AV-unprocessed.smi:189|AV-procd|sdf|1478|dock7
  -GOLD-   2262019303D 1   1.00000     0.00000
 Structure written by MMmdl.
 53 57  0  0  0  0  0  0  0  0  1 V2000
  153.6419  139.1895  158.9819 C   0  0  0  0  0  0  0  0  0  0  0  0
  152.4848  140.1890  159.1229 C   0  0  1  0  0  0  0  0  0  0  0  0
  152.5472  141.0364  160.4170 C   0  0  0  0  0  0  0  0  0  0  0  0
  152.5745  142.4760  159.9038 C   0  0  2  0  0  0  0  0  0  0  0  0
  151.9283  143.5795  160.7499 C   0  0  0  0  0  0  0  0  0  0  0  0
  152.0024  144.9143  159.9772 C   0  0  0  0  0  0  0  0  0  0  0  0
  151.4129  144.8072  158.5510 C   0  0  0  0  0  0  0  0  0  0  0  0
  152.0142  143.6333  157.7495 C   0  0  0  0  0  0  0  0  0  0  0  0
  151.8613  142.3436  158.5698 C   0  0  1  0  0  0  0  0  0  0  0  0
  152.4446  141.1391  158.0074 N   0  0  0  0  0  0  0  0  0  0  0  0
  151.8748  140.6862  156.8685 C   0  0  0  0  0  0  0  0  0  0  0  0
  152.5556  139.7344  156.1850 N   0  0  0  0  0  0  0  0  0  0  0  0
  152.0559  139.2422  155.0476 C   0  0  0  0  0  0  0  0  0  0  0  0
  150.9147  139.5569  154.4314 N   0  0  0  0  0  0  0  0  0  0  0  0
  150.2258  140.5124  155.1194 C   0  0  0  0  0  0  0  0  0  0  0  0
  150.6306  141.1306  156.3358 C   0  0  0  0  0  0  0  0  0  0  0  0
  149.6768  142.0605  156.7334 N   0  0  0  0  0  0  0  0  0  0  0  0
  148.7605  141.9934  155.8071 C   0  0  0  0  0  0  0  0  0  0  0  0
  149.0054  141.0833  154.8035 N   0  0  0  0  0  0  0  0  0  0  0  0
  148.1566  140.8001  153.6568 C   0  0  0  0  0  0  0  0  0  0  0  0
  146.9770  139.8545  153.9836 C   0  0  1  0  0  0  0  0  0  0  0  0
  145.8648  140.6271  154.4010 O   0  0  0  0  0  0  0  0  0  0  0  0
  146.5412  138.9734  152.8156 C   0  0  0  0  0  0  0  0  0  0  0  0
  146.0795  137.6970  153.5044 C   0  0  0  0  0  0  0  0  0  0  0  0
  147.0328  137.5471  154.5418 O   0  0  0  0  0  0  0  0  0  0  0  0
  147.3042  138.8324  155.0909 C   0  0  0  0  0  0  0  0  0  0  0  0
  153.6645  138.4983  159.8245 H   0  0  0  0  0  0  0  0  0  0  0  0
  154.6035  139.7019  158.9430 H   0  0  0  0  0  0  0  0  0  0  0  0
  153.5424  138.5967  158.0721 H   0  0  0  0  0  0  0  0  0  0  0  0
  151.5562  139.6179  159.1450 H   0  0  0  0  0  0  0  0  0  0  0  0
  151.6564  140.8569  161.0201 H   0  0  0  0  0  0  0  0  0  0  0  0
  153.4179  140.8133  161.0344 H   0  0  0  0  0  0  0  0  0  0  0  0
  153.6179  142.7427  159.7218 H   0  0  0  0  0  0  0  0  0  0  0  0
  150.8883  143.3298  160.9638 H   0  0  0  0  0  0  0  0  0  0  0  0
  152.4369  143.6696  161.7101 H   0  0  0  0  0  0  0  0  0  0  0  0
  151.4852  145.6954  160.5349 H   0  0  0  0  0  0  0  0  0  0  0  0
  153.0445  145.2287  159.9078 H   0  0  0  0  0  0  0  0  0  0  0  0
  150.3327  144.6737  158.6217 H   0  0  0  0  0  0  0  0  0  0  0  0
  151.5700  145.7425  158.0132 H   0  0  0  0  0  0  0  0  0  0  0  0
  151.5101  143.5399  156.7871 H   0  0  0  0  0  0  0  0  0  0  0  0
  153.0671  143.8243  157.5375 H   0  0  0  0  0  0  0  0  0  0  0  0
  150.7993  142.1707  158.7509 H   0  0  0  0  0  0  0  0  0  0  0  0
  152.6565  138.4877  154.5617 H   0  0  0  0  0  0  0  0  0  0  0  0
  147.8724  142.6078  155.8334 H   0  0  0  0  0  0  0  0  0  0  0  0
  147.7804  141.7495  153.2736 H   0  0  0  0  0  0  0  0  0  0  0  0
  148.7746  140.3750  152.8647 H   0  0  0  0  0  0  0  0  0  0  0  0
  145.1495  140.4710  153.8038 H   0  0  0  0  0  0  0  0  0  0  0  0
  145.7745  139.4245  152.1840 H   0  0  0  0  0  0  0  0  0  0  0  0
  147.3964  138.7369  152.1817 H   0  0  0  0  0  0  0  0  0  0  0  0
  145.0825  137.8172  153.9313 H   0  0  0  0  0  0  0  0  0  0  0  0
  146.0705  136.8354  152.8363 H   0  0  0  0  0  0  0  0  0  0  0  0
  148.3482  138.8753  155.4030 H   0  0  0  0  0  0  0  0  0  0  0  0
  146.6925  138.9830  155.9821 H   0  0  0  0  0  0  0  0  0  0  0  0
  1  2  1  0  0  0  0
  1 27  1  0  0  0  0
  1 28  1  0  0  0  0
  1 29  1  0  0  0  0
  2 10  1  0  0  0  0
  2  3  1  0  0  0  0
  2 30  1  0  0  0  0
  3  4  1  0  0  0  0
  3 31  1  0  0  0  0
  3 32  1  0  0  0  0
  4  9  1  0  0  0  0
  4  5  1  0  0  0  0
  4 33  1  0  0  0  0
  5  6  1  0  0  0  0
  5 34  1  0  0  0  0
  5 35  1  0  0  0  0
  6  7  1  0  0  0  0
  6 36  1  0  0  0  0
  6 37  1  0  0  0  0
  7  8  1  0  0  0  0
  7 38  1  0  0  0  0
  7 39  1  0  0  0  0
  8  9  1  0  0  0  0
  8 40  1  0  0  0  0
  8 41  1  0  0  0  0
  9 10  1  0  0  0  0
  9 42  1  0  0  0  0
 10 11  1  0  0  0  0
 11 16  1  0  0  0  0
 11 12  2  0  0  0  0
 12 13  1  0  0  0  0
 13 14  2  0  0  0  0
 13 43  1  0  0  0  0
 14 15  1  0  0  0  0
 15 19  1  0  0  0  0
 15 16  2  0  0  0  0
 16 17  1  0  0  0  0
 17 18  2  0  0  0  0
 18 19  1  0  0  0  0
 18 44  1  0  0  0  0
 19 20  1  0  0  0  0
 20 21  1  0  0  0  0
 20 45  1  0  0  0  0
 20 46  1  0  0  0  0
 21 26  1  0  0  0  0
 21 22  1  0  0  0  0
 21 23  1  0  0  0  0
 22 47  1  0  0  0  0
 23 24  1  0  0  0  0
 23 48  1  0  0  0  0
 23 49  1  0  0  0  0
 24 25  1  0  0  0  0
 24 50  1  0  0  0  0
 24 51  1  0  0  0  0
 25 26  1  0  0  0  0
 26 52  1  0  0  0  0
 26 53  1  0  0  0  0
M  END
> <s_m_source_file>
AV-unprocessed.smi

> <i_m_source_file_index>
189

> <i_lp_mmshare_version>
43012

> <i_f3d_flags>
0

> <s_epik_input>
W0NIMl0xW0NIMl1bQ0gyXVtDSDJdW0NASF0oW0NASF0xMilOKFtDQEhdKFtDSDNdKVtDSDJdMiljKG5bY0hdbjMpYyhjMzQpbltjSF1uNFtDSDJdW0NAQF01KFtPSF0pW0NIMl1bQ0gyXU9bQ0gyXTU=

> <s_epik_cmdline>
J2VwaWtfcHl0aG9uJywgJy1waCcsICc3LjAnLCAnLXRuJywgJzgnLCAnLW1hJywgJzIwMCcsICctbWV0YWxfYmluZGluZycsICctaW1hZScsICc8aW5maWxlLm1hZT4nLCAnLW9tYWUnLCAnPG91dGZpbGUubWFlPic=

> <r_lp_tautomer_probability>
1

> <r_epik_Ionization_Penalty>
0.00594261

> <r_epik_Ionization_Penalty_Charging>
0

> <r_epik_Ionization_Penalty_Neutral>
0.00594261

> <r_epik_State_Penalty>
0.00429776

> <r_epik_Charging_Adjusted_Penalty>
0.00429776

> <i_epik_Tot_Q>
0

> <i_epik_Tot_abs_Q>
0

> <r_epik_Metal_State_Penalty>
-0

> <b_epik_Metal_Only>
0

> <s_lp_Force_Field>
OPLS_2005

> <r_lp_Energy>
58.2794

> <b_lp_Chiralities_Consistent>
1

> <s_lp_Variant>
AV-unprocessed.smi:189-4

> <Gold.Version>
5.8.1

> <Gold.Id.Protein>
6NUR|6NUR_protein|mol2

> <Gold.PLP.Fitness>
50.7647

> <Gold.PLP.PLP>
-44.8929

> <Gold.PLP.part.hbond>
-3.1918

> <Gold.PLP.part.metal>
0.0000

> <Gold.PLP.part.buried>
1.2277

> <Gold.PLP.part.nonpolar>
-42.1819

> <Gold.PLP.part.repulsive>
0.8850

> <Gold.PLP.ligand.clash>
0.0000

> <Gold.PLP.ligand.torsion>
1.0548

> <Gold.PLP.Chemscore.Hbond>
2.2625

> <Gold.PLP.Chemscore.CHOScore>
0.3931

> <Gold.PLP.Chemscore.Metal>
0.0000

> <Gold.Chemscore.Hbonds>
donor molecule, donor type, donor heavy atom, donor atom, acceptor molecule, acceptor atom, score
      L1  H    22    47       P1 10175  1.00
      P1  H  7989  7998       L1    14  0.28
      P1  H  7997  8008       L1    12  1.00
      L1  C    18    44       P1  8028  0.40

> <Gold.PLP.Chemscore.Internal.Correction>
0.0146

> <Gold.Rescore>
     Score         DG    S(hbond)    S(metal)    S(lipo)     H(rot)  DE(clash)    DE(int)     intcor
     16.19     -20.22       1.81        0.00     118.68       2.03       1.66       2.37       ----

> <Gold.Chemscore.Fitness>
16.1934

> <Gold.Chemscore.DG>
-20.2235

> <Gold.Chemscore.ZeroCoef>
-5.4800

> <Gold.Chemscore.Hbond>
1.8126

> <Gold.Chemscore.Metal>
0.0000

> <Gold.Chemscore.Lipo>
118.6770

> <Gold.Chemscore.Internal_Hbond>
0.0000

> <Gold.Chemscore.DEClash>
1.6561

> <Gold.Chemscore.DEInternal>
2.3739

> <Gold.Chemscore.Rot>
2.0297

> <Gold.Chemscore.Internal.Correction>
   9.000000E+99

> <Gold.Chemscore.Hbonds>
donor molecule, donor type, donor heavy atom, donor atom, acceptor molecule, acceptor atom, score
      L1  H    22    47       P1 10175  0.98
      P1  H  7997  8008       L1    12  0.63

> <Gold.Chemscore.Hbond.Weighted>
-6.0542

> <Gold.Chemscore.Metal.Weighted>
-0.0000

> <Gold.Chemscore.Lipo.Weighted>
-13.8852

> <Gold.Chemscore.Internal_Hbond.Weighted>
0.0000

> <Gold.Chemscore.DEClash.Weighted>
1.6561

> <Gold.Chemscore.DEInternal.Weighted>
2.3739

> <Gold.Chemscore.Rot.Weighted>
5.1960

> <Gold.Chemscore.Internal.Correction.Weighted>
   9.000000E+99

> <Gold.Protein.RotatedTorsions>
[ 6907 6896 6895 6894 ] final   20.02 input  -60.11 | X-H torsion
[ 7974 7965 7964 7962 ] final  -67.80 input  175.53 | X-H torsion
[ 8008 7997 7996 7995 ] final  -39.16 input   59.86 | X-H torsion
[ 10167 10162 10161 10158 ] final -142.11 input  -65.29 | X-H torsion
[ 10718 10713 10712 10709 ] final   22.06 input   66.30 | X-H torsion
[ 10763 10752 10751 10750 ] final   39.57 input  -60.55 | X-H torsion
[ 11005 11000 10999 10996 ] final -171.01 input  -57.11 | X-H torsion

> <Gold.Protein.ActiveResidues>
 VAL166  LYS551  ARG553  GLY616  TRP617  ASP618  TYR619  PRO620  LYS621  CYS622 
 ASP623  PHE694  ASN695  SER759  ASP760  ASP761  ALA762  ILE779  LEU786  VAL792 
 PHE793  MET794  SER795  GLU796  ALA797  LYS798  CYS799  TRP800  GLU811  SER814 

> <Gold.Protein.RotatedAtoms>
  151.8899  135.0420  160.0496 H   0  0  0  0  0  0  0  0  0  0  0  0  # atno 6907 bound_to 6896
  152.2444  133.5158  159.5297 H   0  0  0  0  0  0  0  0  0  0  0  0  # atno 6908 bound_to 6896
  150.7063  134.0962  159.3992 H   0  0  0  0  0  0  0  0  0  0  0  0  # atno 6909 bound_to 6896
  145.7245  140.9024  143.0612 H   0  0  0  0  0  0  0  0  0  0  0  0  # atno 7974 bound_to 7965
  154.4026  140.1559  156.2818 H   0  0  0  0  0  0  0  0  0  0  0  0  # atno 8008 bound_to 7997
  155.8863  140.3441  155.5902 H   0  0  0  0  0  0  0  0  0  0  0  0  # atno 8009 bound_to 7997
  155.7610  140.0817  157.2146 H   0  0  0  0  0  0  0  0  0  0  0  0  # atno 8010 bound_to 7997
  139.8120  143.7689  152.2664 H   0  0  0  0  0  0  0  0  0  0  0  0  # atno 10167 bound_to 10162
  157.1471  130.6658  149.5999 H   0  0  0  0  0  0  0  0  0  0  0  0  # atno 10718 bound_to 10713
  152.9963  135.6217  154.2487 H   0  0  0  0  0  0  0  0  0  0  0  0  # atno 10763 bound_to 10752
  154.2226  135.2795  155.2921 H   0  0  0  0  0  0  0  0  0  0  0  0  # atno 10764 bound_to 10752
  154.5516  135.5731  153.6986 H   0  0  0  0  0  0  0  0  0  0  0  0  # atno 10765 bound_to 10752
  140.5131  134.5782  157.5025 H   0  0  0  0  0  0  0  0  0  0  0  0  # atno 11005 bound_to 11000
  144.6908  139.9248  143.7469 LP  0  0  0  0  0  0  0  0  0  0  0  0  # atno 17320 bound_to 7965
  146.0595  139.3589  143.0590 LP  0  0  0  0  0  0  0  0  0  0  0  0  # atno 17321 bound_to 7965
  139.7841  144.7434  151.0046 LP  0  0  0  0  0  0  0  0  0  0  0  0  # atno 17342 bound_to 10162
  140.7817  143.4510  151.0412 LP  0  0  0  0  0  0  0  0  0  0  0  0  # atno 17343 bound_to 10162
  155.9777  130.4757  150.6613 LP  0  0  0  0  0  0  0  0  0  0  0  0  # atno 17370 bound_to 10713
  157.4255  131.0842  151.1090 LP  0  0  0  0  0  0  0  0  0  0  0  0  # atno 17371 bound_to 10713
  139.9648  134.7392  156.0162 LP  0  0  0  0  0  0  0  0  0  0  0  0  # atno 17394 bound_to 11000
  141.1375  133.6572  156.3634 LP  0  0  0  0  0  0  0  0  0  0  0  0  # atno 17395 bound_to 11000

$$$$
