AV-unprocessed.smi:3148|AV-procd|sdf|11993|dock6
  -GOLD-   2272017403D 1   1.00000     0.00000
 Structure written by MMmdl.
 34 36  0  0  0  0  0  0  0  0  1 V2000
  154.1021  141.1618  161.1290 C   0  0  0  0  0  0  0  0  0  0  0  0
  153.3940  140.8954  159.9234 O   0  0  0  0  0  0  0  0  0  0  0  0
  152.6097  141.8997  159.3954 C   0  0  0  0  0  0  0  0  0  0  0  0
  152.6769  143.1953  159.9467 C   0  0  0  0  0  0  0  0  0  0  0  0
  151.8460  144.1716  159.3584 C   0  0  0  0  0  0  0  0  0  0  0  0
  151.8204  145.5982  159.8639 C   0  0  0  0  0  0  0  0  0  0  0  0
  151.0289  143.8814  158.3219 N   0  0  0  0  0  0  0  0  0  0  0  0
  151.0400  142.6235  157.8759 C   0  0  0  0  0  0  0  0  0  0  0  0
  150.1868  142.3590  156.8206 N   0  0  0  0  0  0  0  0  0  0  0  0
  149.6715  141.0343  156.4942 C   0  0  2  0  0  0  0  0  0  0  0  0
  150.2198  140.4821  155.1767 C   0  0  0  0  0  0  0  0  0  0  0  0
  148.9295  140.1302  154.4225 C   0  0  2  0  0  0  0  0  0  0  0  0
  148.2238  141.3870  153.8969 C   0  0  0  0  0  0  0  0  0  0  0  0
  147.6647  141.9901  155.1840 C   0  0  0  0  0  0  0  0  0  0  0  0
  148.1511  140.9863  156.2434 C   0  0  1  0  0  0  0  0  0  0  0  0
  148.0722  139.7834  155.4975 O   0  0  0  0  0  0  0  0  0  0  0  0
  151.7850  141.6213  158.3553 N   0  0  0  0  0  0  0  0  0  0  0  0
  154.6768  140.2800  161.4119 H   0  0  0  0  0  0  0  0  0  0  0  0
  153.4212  141.3904  161.9500 H   0  0  0  0  0  0  0  0  0  0  0  0
  154.8032  141.9886  161.0053 H   0  0  0  0  0  0  0  0  0  0  0  0
  153.3299  143.4230  160.7763 H   0  0  0  0  0  0  0  0  0  0  0  0
  152.6121  145.7710  160.5935 H   0  0  0  0  0  0  0  0  0  0  0  0
  150.8636  145.8120  160.3408 H   0  0  0  0  0  0  0  0  0  0  0  0
  151.9584  146.2986  159.0397 H   0  0  0  0  0  0  0  0  0  0  0  0
  149.7598  143.1549  156.3696 H   0  0  0  0  0  0  0  0  0  0  0  0
  149.9290  140.3435  157.2985 H   0  0  0  0  0  0  0  0  0  0  0  0
  150.8350  141.1923  154.6224 H   0  0  0  0  0  0  0  0  0  0  0  0
  150.8185  139.5899  155.3623 H   0  0  0  0  0  0  0  0  0  0  0  0
  149.0534  139.3472  153.6741 H   0  0  0  0  0  0  0  0  0  0  0  0
  148.9053  142.0593  153.3744 H   0  0  0  0  0  0  0  0  0  0  0  0
  147.4144  141.1230  153.2154 H   0  0  0  0  0  0  0  0  0  0  0  0
  148.0130  143.0073  155.3648 H   0  0  0  0  0  0  0  0  0  0  0  0
  146.5751  142.0108  155.1494 H   0  0  0  0  0  0  0  0  0  0  0  0
  147.5520  140.9832  157.1544 H   0  0  0  0  0  0  0  0  0  0  0  0
  1  2  1  0  0  0  0
  1 18  1  0  0  0  0
  1 19  1  0  0  0  0
  1 20  1  0  0  0  0
  2  3  1  0  0  0  0
  3 17  1  0  0  0  0
  3  4  2  0  0  0  0
  4  5  1  0  0  0  0
  4 21  1  0  0  0  0
  5  6  1  0  0  0  0
  5  7  2  0  0  0  0
  6 22  1  0  0  0  0
  6 23  1  0  0  0  0
  6 24  1  0  0  0  0
  7  8  1  0  0  0  0
  8  9  1  0  0  0  0
  8 17  2  0  0  0  0
  9 10  1  0  0  0  0
  9 25  1  0  0  0  0
 10 15  1  0  0  0  0
 10 11  1  0  0  0  0
 10 26  1  0  0  0  0
 11 12  1  0  0  0  0
 11 27  1  0  0  0  0
 11 28  1  0  0  0  0
 12 16  1  0  0  0  0
 12 13  1  0  0  0  0
 12 29  1  0  0  0  0
 13 14  1  0  0  0  0
 13 30  1  0  0  0  0
 13 31  1  0  0  0  0
 14 15  1  0  0  0  0
 14 32  1  0  0  0  0
 14 33  1  0  0  0  0
 15 16  1  0  0  0  0
 15 34  1  0  0  0  0
M  END
> <s_m_source_file>
AV-unprocessed.smi

> <i_m_source_file_index>
3148

> <i_lp_mmshare_version>
43012

> <i_f3d_flags>
0

> <s_epik_input>
W0NIM11PYzFbY0hdYyhbQ0gzXSluYyhuMSlbTkhdW0NASF0oW0NIMl1bQ0BASF0yMylbQ0BASF0oTzMpW0NIMl1bQ0gyXTI=

> <s_epik_cmdline>
J2VwaWtfcHl0aG9uJywgJy1waCcsICc3LjAnLCAnLXRuJywgJzgnLCAnLW1hJywgJzIwMCcsICctbWV0YWxfYmluZGluZycsICctaW1hZScsICc8aW5maWxlLm1hZT4nLCAnLW9tYWUnLCAnPG91dGZpbGUubWFlPic=

> <r_lp_tautomer_probability>
1

> <r_epik_Ionization_Penalty>
0.101645

> <r_epik_Ionization_Penalty_Charging>
0

> <r_epik_Ionization_Penalty_Neutral>
0.101645

> <r_epik_State_Penalty>
0.0916212

> <r_epik_Charging_Adjusted_Penalty>
0.0916212

> <i_epik_Tot_Q>
0

> <i_epik_Tot_abs_Q>
0

> <r_epik_Metal_State_Penalty>
0.0781

> <b_epik_Metal_Only>
0

> <s_lp_Force_Field>
OPLS_2005

> <r_lp_Energy>
31.5885

> <b_lp_Chiralities_Consistent>
1

> <s_lp_Variant>
AV-unprocessed.smi:3148-3

> <Gold.Version>
5.8.1

> <Gold.Id.Protein>
6NUR|6NUR_protein|mol2

> <Gold.PLP.Fitness>
37.5800

> <Gold.PLP.PLP>
-35.1457

> <Gold.PLP.part.hbond>
-1.0000

> <Gold.PLP.part.metal>
0.0000

> <Gold.PLP.part.buried>
-1.4552

> <Gold.PLP.part.nonpolar>
-32.4119

> <Gold.PLP.part.repulsive>
0.1965

> <Gold.PLP.ligand.clash>
0.0000

> <Gold.PLP.ligand.torsion>
0.2878

> <Gold.PLP.Chemscore.Hbond>
1.0000

> <Gold.PLP.Chemscore.CHOScore>
0.0000

> <Gold.PLP.Chemscore.Metal>
0.0000

> <Gold.Chemscore.Hbonds>
donor molecule, donor type, donor heavy atom, donor atom, acceptor molecule, acceptor atom, score
      L1  H     9    25       P1  8028  1.00

> <Gold.PLP.Chemscore.Internal.Correction>
0.0100

> <Gold.Rescore>
     Score         DG    S(hbond)    S(metal)    S(lipo)     H(rot)  DE(clash)    DE(int)     intcor
     15.11     -15.29       0.99        0.00      82.28       1.22       0.02       0.17       ----

> <Gold.Chemscore.Fitness>
15.1074

> <Gold.Chemscore.DG>
-15.2944

> <Gold.Chemscore.ZeroCoef>
-5.4800

> <Gold.Chemscore.Hbond>
0.9937

> <Gold.Chemscore.Metal>
0.0000

> <Gold.Chemscore.Lipo>
82.2787

> <Gold.Chemscore.Internal_Hbond>
0.0000

> <Gold.Chemscore.DEClash>
0.0154

> <Gold.Chemscore.DEInternal>
0.1715

> <Gold.Chemscore.Rot>
1.2232

> <Gold.Chemscore.Internal.Correction>
   9.000000E+99

> <Gold.Chemscore.Hbonds>
donor molecule, donor type, donor heavy atom, donor atom, acceptor molecule, acceptor atom, score
      L1  H     9    25       P1  8028  1.00

> <Gold.Chemscore.Hbond.Weighted>
-3.3191

> <Gold.Chemscore.Metal.Weighted>
-0.0000

> <Gold.Chemscore.Lipo.Weighted>
-9.6266

> <Gold.Chemscore.Internal_Hbond.Weighted>
0.0000

> <Gold.Chemscore.DEClash.Weighted>
0.0154

> <Gold.Chemscore.DEInternal.Weighted>
0.1715

> <Gold.Chemscore.Rot.Weighted>
3.1314

> <Gold.Chemscore.Internal.Correction.Weighted>
   9.000000E+99

> <Gold.Protein.RotatedTorsions>
[ 6907 6896 6895 6894 ] final -142.70 input  -60.11 | X-H torsion
[ 7974 7965 7964 7962 ] final   46.18 input  175.53 | X-H torsion
[ 8008 7997 7996 7995 ] final   55.36 input   59.86 | X-H torsion
[ 10167 10162 10161 10158 ] final -157.28 input  -65.29 | X-H torsion
[ 10718 10713 10712 10709 ] final  116.04 input   66.30 | X-H torsion
[ 10763 10752 10751 10750 ] final   36.71 input  -60.55 | X-H torsion
[ 11005 11000 10999 10996 ] final -151.37 input  -57.11 | X-H torsion

> <Gold.Protein.ActiveResidues>
 VAL166  LYS551  ARG553  GLY616  TRP617  ASP618  TYR619  PRO620  LYS621  CYS622 
 ASP623  PHE694  ASN695  SER759  ASP760  ASP761  ALA762  ILE779  LEU786  VAL792 
 PHE793  MET794  SER795  GLU796  ALA797  LYS798  CYS799  TRP800  GLU811  SER814 

> <Gold.Protein.RotatedAtoms>
  151.0906  133.5319  159.2614 H   0  0  0  0  0  0  0  0  0  0  0  0  # atno 6907 bound_to 6896
  151.2187  135.0509  159.8951 H   0  0  0  0  0  0  0  0  0  0  0  0  # atno 6908 bound_to 6896
  152.5434  134.0711  159.8248 H   0  0  0  0  0  0  0  0  0  0  0  0  # atno 6909 bound_to 6896
  146.0413  139.4884  142.9776 H   0  0  0  0  0  0  0  0  0  0  0  0  # atno 7974 bound_to 7965
  155.4998  140.3474  155.4369 H   0  0  0  0  0  0  0  0  0  0  0  0  # atno 8008 bound_to 7997
  156.0921  140.1413  156.9606 H   0  0  0  0  0  0  0  0  0  0  0  0  # atno 8009 bound_to 7997
  154.4641  140.0924  156.6951 H   0  0  0  0  0  0  0  0  0  0  0  0  # atno 8010 bound_to 7997
  139.6783  143.9626  152.2322 H   0  0  0  0  0  0  0  0  0  0  0  0  # atno 10167 bound_to 10162
  157.6185  131.1020  150.7415 H   0  0  0  0  0  0  0  0  0  0  0  0  # atno 10718 bound_to 10713
  153.0066  135.6298  154.2029 H   0  0  0  0  0  0  0  0  0  0  0  0  # atno 10763 bound_to 10752
  154.1772  135.2815  155.3065 H   0  0  0  0  0  0  0  0  0  0  0  0  # atno 10764 bound_to 10752
  154.5862  135.5632  153.7293 H   0  0  0  0  0  0  0  0  0  0  0  0  # atno 10765 bound_to 10752
  140.7303  134.3628  157.5168 H   0  0  0  0  0  0  0  0  0  0  0  0  # atno 11005 bound_to 11000
  145.6879  141.0172  143.1571 LP  0  0  0  0  0  0  0  0  0  0  0  0  # atno 17320 bound_to 7965
  144.7076  139.8498  143.7425 LP  0  0  0  0  0  0  0  0  0  0  0  0  # atno 17321 bound_to 7965
  139.9409  144.6682  150.8267 LP  0  0  0  0  0  0  0  0  0  0  0  0  # atno 17342 bound_to 10162
  140.7643  143.3245  151.2546 LP  0  0  0  0  0  0  0  0  0  0  0  0  # atno 17343 bound_to 10162
  156.7778  130.4849  149.5406 LP  0  0  0  0  0  0  0  0  0  0  0  0  # atno 17370 bound_to 10713
  156.1319  130.6184  151.0345 LP  0  0  0  0  0  0  0  0  0  0  0  0  # atno 17371 bound_to 10713
  139.8828  134.9014  156.2810 LP  0  0  0  0  0  0  0  0  0  0  0  0  # atno 17394 bound_to 11000
  140.9926  133.7199  156.0838 LP  0  0  0  0  0  0  0  0  0  0  0  0  # atno 17395 bound_to 11000

$$$$
