AV-unprocessed.smi:2504|AV-procd|sdf|9850|dock3
  -GOLD-   2272013483D 1   1.00000     0.00000
 Structure written by MMmdl.
 47 49  0  0  0  0  0  0  0  0  2 V2000
  150.0687  142.1602  158.8169 O   0  0  0  0  0  0  0  0  0  0  0  0
  151.2544  141.8846  159.0038 C   0  0  0  0  0  0  0  0  0  0  0  0
  152.3234  142.9956  159.0655 C   0  0  0  0  0  0  0  0  0  0  0  0
  153.0168  143.0754  160.4363 C   0  0  0  0  0  0  0  0  0  0  0  0
  152.2451  144.1133  161.2666 C   0  0  0  0  0  0  0  0  0  0  0  0
  151.3046  144.8429  160.2978 C   0  0  0  0  0  0  0  0  0  0  0  0
  151.7153  144.3950  158.8920 C   0  0  0  0  0  0  0  0  0  0  0  0
  151.6886  140.5581  159.0835 N   0  0  0  0  0  0  0  0  0  0  0  0
  150.9184  139.4788  158.4836 C   0  0  0  0  0  0  0  0  0  0  0  0
  152.2617  138.7562  158.3327 C   0  0  0  0  0  0  0  0  0  0  0  0
  152.4733  137.9775  156.6710 S   0  0  0  0  0  0  0  0  0  0  0  0
  153.4166  138.7958  155.8937 O   0  0  0  0  0  0  0  0  0  0  0  0
  152.7073  136.5329  156.8177 O   0  0  0  0  0  0  0  0  0  0  0  0
  150.9063  138.1750  155.9741 N   0  0  0  0  0  0  0  0  0  0  0  0
  150.7701  138.9451  154.7352 C   0  0  0  0  0  0  0  0  0  0  0  0
  149.4459  138.6259  154.0200 C   0  0  0  0  0  0  0  0  0  0  0  0
  148.4596  139.7792  154.0376 C   0  0  0  0  0  0  0  0  0  0  0  0
  148.8604  141.0580  154.4839 C   0  0  0  0  0  0  0  0  0  0  0  0
  147.9197  142.1084  154.5084 C   0  0  0  0  0  0  0  0  0  0  0  0
  146.5984  141.8562  154.0867 C   0  0  0  0  0  0  0  0  0  0  0  0
  146.2515  140.6205  153.6645 N   0  3  0  0  0  0  0  0  0  0  0  0
  147.1232  139.5891  153.6232 C   0  0  0  0  0  0  0  0  0  0  0  0
  152.9453  140.1208  158.4938 C   0  0  0  0  0  0  0  0  0  0  0  0
  153.0721  142.8065  158.2951 H   0  0  0  0  0  0  0  0  0  0  0  0
  153.0710  142.1108  160.9435 H   0  0  0  0  0  0  0  0  0  0  0  0
  154.0443  143.4140  160.2986 H   0  0  0  0  0  0  0  0  0  0  0  0
  151.6712  143.6302  162.0583 H   0  0  0  0  0  0  0  0  0  0  0  0
  152.9356  144.8087  161.7449 H   0  0  0  0  0  0  0  0  0  0  0  0
  150.2750  144.5401  160.4929 H   0  0  0  0  0  0  0  0  0  0  0  0
  151.3513  145.9262  160.4115 H   0  0  0  0  0  0  0  0  0  0  0  0
  152.4753  145.0711  158.4983 H   0  0  0  0  0  0  0  0  0  0  0  0
  150.8736  144.4190  158.1986 H   0  0  0  0  0  0  0  0  0  0  0  0
  150.2181  138.9998  159.1683 H   0  0  0  0  0  0  0  0  0  0  0  0
  150.4579  139.7505  157.5312 H   0  0  0  0  0  0  0  0  0  0  0  0
  152.4621  138.0519  159.1418 H   0  0  0  0  0  0  0  0  0  0  0  0
  150.4179  137.2817  155.9083 H   0  0  0  0  0  0  0  0  0  0  0  0
  150.8491  140.0123  154.9475 H   0  0  0  0  0  0  0  0  0  0  0  0
  151.6078  138.6940  154.0843 H   0  0  0  0  0  0  0  0  0  0  0  0
  149.6502  138.3617  152.9817 H   0  0  0  0  0  0  0  0  0  0  0  0
  148.9815  137.7465  154.4685 H   0  0  0  0  0  0  0  0  0  0  0  0
  149.8756  141.2317  154.8104 H   0  0  0  0  0  0  0  0  0  0  0  0
  148.2072  143.0923  154.8494 H   0  0  0  0  0  0  0  0  0  0  0  0
  145.8144  142.5992  154.0755 H   0  0  0  0  0  0  0  0  0  0  0  0
  146.7249  138.6476  153.2745 H   0  0  0  0  0  0  0  0  0  0  0  0
  153.1809  140.6223  157.5546 H   0  0  0  0  0  0  0  0  0  0  0  0
  153.7843  140.1236  159.1900 H   0  0  0  0  0  0  0  0  0  0  0  0
  145.2896  140.4594  153.3653 H   0  0  0  0  0  0  0  0  0  0  0  0
  1  2  2  0  0  0  0
  2  3  1  0  0  0  0
  2  8  1  0  0  0  0
  3  7  1  0  0  0  0
  3  4  1  0  0  0  0
  3 24  1  0  0  0  0
  4  5  1  0  0  0  0
  4 25  1  0  0  0  0
  4 26  1  0  0  0  0
  5  6  1  0  0  0  0
  5 27  1  0  0  0  0
  5 28  1  0  0  0  0
  6  7  1  0  0  0  0
  6 29  1  0  0  0  0
  6 30  1  0  0  0  0
  7 31  1  0  0  0  0
  7 32  1  0  0  0  0
  8 23  1  0  0  0  0
  8  9  1  0  0  0  0
  9 10  1  0  0  0  0
  9 33  1  0  0  0  0
  9 34  1  0  0  0  0
 10 11  1  0  0  0  0
 10 23  1  0  0  0  0
 10 35  1  0  0  0  0
 11 12  2  0  0  0  0
 11 13  2  0  0  0  0
 11 14  1  0  0  0  0
 14 15  1  0  0  0  0
 14 36  1  0  0  0  0
 15 16  1  0  0  0  0
 15 37  1  0  0  0  0
 15 38  1  0  0  0  0
 16 17  1  0  0  0  0
 16 39  1  0  0  0  0
 16 40  1  0  0  0  0
 17 22  1  0  0  0  0
 17 18  2  0  0  0  0
 18 19  1  0  0  0  0
 18 41  1  0  0  0  0
 19 20  2  0  0  0  0
 19 42  1  0  0  0  0
 20 21  1  0  0  0  0
 20 43  1  0  0  0  0
 21 22  2  0  0  0  0
 21 47  1  0  0  0  0
 22 44  1  0  0  0  0
 23 45  1  0  0  0  0
 23 46  1  0  0  0  0
M  CHG  1  21   1
M  END
> <s_m_source_file>
AV-unprocessed.smi

> <i_m_source_file_index>
2504

> <i_lp_mmshare_version>
43012

> <i_f3d_flags>
0

> <s_epik_input>
W0NIMl0xW0NIMl1bQ0gyXVtDSDJdW0NIXTFDKD1PKU4yW0NIMl1bQ0hdKFtDSDJdMilTKD1PKSg9TylbTkhdW0NIMl1bQ0gyXWMzW2NIXVtjSF1bY0hdbltjSF0z

> <s_epik_cmdline>
J2VwaWtfcHl0aG9uJywgJy1waCcsICc3LjAnLCAnLXRuJywgJzgnLCAnLW1hJywgJzIwMCcsICctbWV0YWxfYmluZGluZycsICctaW1hZScsICc8aW5maWxlLm1hZT4nLCAnLW9tYWUnLCAnPG91dGZpbGUubWFlPic=

> <r_epik_Ionization_Penalty>
2.38216

> <r_epik_Ionization_Penalty_Charging>
2.38209

> <r_epik_Ionization_Penalty_Neutral>
6.7549e-05

> <r_epik_State_Penalty>
2.53866

> <r_epik_Charging_Adjusted_Penalty>
4.92075

> <i_epik_Tot_Q>
1

> <i_epik_Tot_abs_Q>
1

> <r_epik_Metal_State_Penalty>
2.64273

> <b_epik_Metal_Only>
0

> <s_lp_Force_Field>
OPLS_2005

> <r_lp_Energy>
40.9078

> <b_lp_Chiralities_Consistent>
1

> <s_lp_Variant>
AV-unprocessed.smi:2504-2

> <Gold.Version>
5.8.1

> <Gold.Id.Protein>
6NUR|6NUR_protein|mol2

> <Gold.PLP.Fitness>
57.9851

> <Gold.PLP.PLP>
-47.2033

> <Gold.PLP.part.hbond>
-3.4902

> <Gold.PLP.part.metal>
0.0000

> <Gold.PLP.part.buried>
-0.5173

> <Gold.PLP.part.nonpolar>
-43.4766

> <Gold.PLP.part.repulsive>
0.0745

> <Gold.PLP.ligand.clash>
0.0000

> <Gold.PLP.ligand.torsion>
1.3654

> <Gold.PLP.Chemscore.Hbond>
3.9513

> <Gold.PLP.Chemscore.CHOScore>
0.0000

> <Gold.PLP.Chemscore.Metal>
0.0000

> <Gold.Chemscore.Hbonds>
donor molecule, donor type, donor heavy atom, donor atom, acceptor molecule, acceptor atom, score
      L1  H    21    47       P1 10175  2.00
      P1  H  7997  8010       L1    12  0.96
      P1  H 10752 10764       L1    13  0.99

> <Gold.PLP.Chemscore.Internal.Correction>
1.6588

> <Gold.Rescore>
     Score         DG    S(hbond)    S(metal)    S(lipo)     H(rot)  DE(clash)    DE(int)     intcor
     22.79     -24.39       2.88        0.00     122.74       1.97       0.23       1.37       ----

> <Gold.Chemscore.Fitness>
22.7927

> <Gold.Chemscore.DG>
-24.3932

> <Gold.Chemscore.ZeroCoef>
-5.4800

> <Gold.Chemscore.Hbond>
2.8767

> <Gold.Chemscore.Metal>
0.0000

> <Gold.Chemscore.Lipo>
122.7404

> <Gold.Chemscore.Internal_Hbond>
0.0000

> <Gold.Chemscore.DEClash>
0.2337

> <Gold.Chemscore.DEInternal>
1.3668

> <Gold.Chemscore.Rot>
1.9749

> <Gold.Chemscore.Internal.Correction>
   9.000000E+99

> <Gold.Chemscore.Hbonds>
donor molecule, donor type, donor heavy atom, donor atom, acceptor molecule, acceptor atom, score
      L1  H    21    47       P1 10175  0.98
      P1  H  7997  8010       L1    12  0.92
      P1  H 10752 10764       L1    13  0.90

> <Gold.Chemscore.Hbond.Weighted>
-9.6082

> <Gold.Chemscore.Metal.Weighted>
-0.0000

> <Gold.Chemscore.Lipo.Weighted>
-14.3606

> <Gold.Chemscore.Internal_Hbond.Weighted>
0.0000

> <Gold.Chemscore.DEClash.Weighted>
0.2337

> <Gold.Chemscore.DEInternal.Weighted>
1.3668

> <Gold.Chemscore.Rot.Weighted>
5.0556

> <Gold.Chemscore.Internal.Correction.Weighted>
   9.000000E+99

> <Gold.Protein.RotatedTorsions>
[ 6907 6896 6895 6894 ] final  -51.97 input  -60.11 | X-H torsion
[ 7974 7965 7964 7962 ] final  135.93 input  175.53 | X-H torsion
[ 8008 7997 7996 7995 ] final   81.40 input   59.86 | X-H torsion
[ 10167 10162 10161 10158 ] final -130.80 input  -65.29 | X-H torsion
[ 10718 10713 10712 10709 ] final -144.79 input   66.30 | X-H torsion
[ 10763 10752 10751 10750 ] final  -15.51 input  -60.55 | X-H torsion
[ 11005 11000 10999 10996 ] final -131.05 input  -57.11 | X-H torsion

> <Gold.Protein.ActiveResidues>
 VAL166  LYS551  ARG553  GLY616  TRP617  ASP618  TYR619  PRO620  LYS621  CYS622 
 ASP623  PHE694  ASN695  SER759  ASP760  ASP761  ALA762  ILE779  LEU786  VAL792 
 PHE793  MET794  SER795  GLU796  ALA797  LYS798  CYS799  TRP800  GLU811  SER814 

> <Gold.Protein.RotatedAtoms>
  150.8561  134.7901  159.7046 H   0  0  0  0  0  0  0  0  0  0  0  0  # atno 6907 bound_to 6896
  152.4612  134.5176  159.9782 H   0  0  0  0  0  0  0  0  0  0  0  0  # atno 6908 bound_to 6896
  151.5288  133.3415  159.2950 H   0  0  0  0  0  0  0  0  0  0  0  0  # atno 6909 bound_to 6896
  144.9615  139.4705  143.5477 H   0  0  0  0  0  0  0  0  0  0  0  0  # atno 7974 bound_to 7965
  155.8966  140.3436  155.5995 H   0  0  0  0  0  0  0  0  0  0  0  0  # atno 8008 bound_to 7997
  155.7549  140.0825  157.2202 H   0  0  0  0  0  0  0  0  0  0  0  0  # atno 8009 bound_to 7997
  154.4039  140.1546  156.2754 H   0  0  0  0  0  0  0  0  0  0  0  0  # atno 8010 bound_to 7997
  139.9256  143.6332  152.2543 H   0  0  0  0  0  0  0  0  0  0  0  0  # atno 10167 bound_to 10162
  156.3744  130.7805  151.1989 H   0  0  0  0  0  0  0  0  0  0  0  0  # atno 10718 bound_to 10713
  153.5445  135.7012  153.5620 H   0  0  0  0  0  0  0  0  0  0  0  0  # atno 10763 bound_to 10752
  153.3572  135.3979  155.1690 H   0  0  0  0  0  0  0  0  0  0  0  0  # atno 10764 bound_to 10752
  154.8669  135.3780  154.4952 H   0  0  0  0  0  0  0  0  0  0  0  0  # atno 10765 bound_to 10752
  140.9293  134.1341  157.4249 H   0  0  0  0  0  0  0  0  0  0  0  0  # atno 11005 bound_to 11000
  146.3354  139.8767  142.8831 LP  0  0  0  0  0  0  0  0  0  0  0  0  # atno 17320 bound_to 7965
  145.2693  141.0103  143.3781 LP  0  0  0  0  0  0  0  0  0  0  0  0  # atno 17321 bound_to 7965
  139.6825  144.7654  151.1583 LP  0  0  0  0  0  0  0  0  0  0  0  0  # atno 17342 bound_to 10162
  140.7651  143.5704  150.9002 LP  0  0  0  0  0  0  0  0  0  0  0  0  # atno 17343 bound_to 10162
  157.7487  131.0362  150.4401 LP  0  0  0  0  0  0  0  0  0  0  0  0  # atno 17370 bound_to 10713
  156.4633  130.4037  149.6562 LP  0  0  0  0  0  0  0  0  0  0  0  0  # atno 17371 bound_to 10713
  139.8792  134.9999  156.5981 LP  0  0  0  0  0  0  0  0  0  0  0  0  # atno 17394 bound_to 11000
  140.7884  133.8602  155.8626 LP  0  0  0  0  0  0  0  0  0  0  0  0  # atno 17395 bound_to 11000

$$$$
