AV-unprocessed.smi:2018|AV-procd|sdf|8170|dock7
  -GOLD-   2272010413D 1   1.00000     0.00000
 Structure written by MMmdl.
 34 35  0  0  0  0  0  0  0  0  2 V2000
  151.5738  144.4075  158.2124 C   0  0  0  0  0  0  0  0  0  0  0  0
  152.1022  143.6286  159.3676 C   0  0  0  0  0  0  0  0  0  0  0  0
  152.8223  142.5132  159.2355 N   0  0  0  0  0  0  0  0  0  0  0  0
  153.2294  141.9773  160.4654 C   0  0  0  0  0  0  0  0  0  0  0  0
  154.0765  140.7281  160.5099 C   0  0  0  0  0  0  0  0  0  0  0  0
  153.3608  139.4395  160.0427 C   0  0  0  0  0  0  0  0  0  0  0  0
  153.1576  139.4691  158.5941 N   0  5  0  0  0  0  0  0  0  0  0  0
  152.3281  138.6418  157.8927 C   0  0  0  0  0  0  0  0  0  0  0  0
  152.3838  137.4065  157.8601 O   0  0  0  0  0  0  0  0  0  0  0  0
  151.2489  139.2551  157.0636 C   0  0  0  0  0  0  0  0  0  0  0  0
  150.6444  138.5372  156.1687 N   0  0  0  0  0  0  0  0  0  0  0  0
  149.6133  139.0292  155.3970 N   0  0  0  0  0  0  0  0  0  0  0  0
  148.8813  137.9902  154.6731 C   0  0  0  0  0  0  0  0  0  0  0  0
  149.2973  140.3450  155.2885 C   0  0  0  0  0  0  0  0  0  0  0  0
  148.3624  140.7782  154.6146 O   0  0  0  0  0  0  0  0  0  0  0  0
  150.1991  141.3264  156.0427 C   0  0  0  0  0  0  0  0  0  0  0  0
  150.8298  140.6943  157.2991 C   0  0  0  0  0  0  0  0  0  0  0  0
  152.7654  142.6986  161.5399 C   0  0  0  0  0  0  0  0  0  0  0  0
  151.8388  144.0888  161.0442 S   0  0  0  0  0  0  0  0  0  0  0  0
  151.8923  143.9606  157.2698 H   0  0  0  0  0  0  0  0  0  0  0  0
  151.9440  145.4318  158.2545 H   0  0  0  0  0  0  0  0  0  0  0  0
  150.4844  144.4247  158.2419 H   0  0  0  0  0  0  0  0  0  0  0  0
  154.9599  140.8734  159.8875 H   0  0  0  0  0  0  0  0  0  0  0  0
  154.4609  140.5777  161.5197 H   0  0  0  0  0  0  0  0  0  0  0  0
  153.9485  138.5768  160.3603 H   0  0  0  0  0  0  0  0  0  0  0  0
  152.4093  139.3584  160.5694 H   0  0  0  0  0  0  0  0  0  0  0  0
  148.0939  138.3751  154.0241 H   0  0  0  0  0  0  0  0  0  0  0  0
  148.4169  137.3011  155.3796 H   0  0  0  0  0  0  0  0  0  0  0  0
  149.5663  137.4157  154.0485 H   0  0  0  0  0  0  0  0  0  0  0  0
  150.9862  141.6404  155.3562 H   0  0  0  0  0  0  0  0  0  0  0  0
  149.6387  142.2229  156.3098 H   0  0  0  0  0  0  0  0  0  0  0  0
  150.1247  140.7314  158.1301 H   0  0  0  0  0  0  0  0  0  0  0  0
  151.6859  141.3027  157.5927 H   0  0  0  0  0  0  0  0  0  0  0  0
  152.9256  142.5027  162.5896 H   0  0  0  0  0  0  0  0  0  0  0  0
  1  2  1  0  0  0  0
  1 20  1  0  0  0  0
  1 21  1  0  0  0  0
  1 22  1  0  0  0  0
  2 19  1  0  0  0  0
  2  3  2  0  0  0  0
  3  4  1  0  0  0  0
  4  5  1  0  0  0  0
  4 18  2  0  0  0  0
  5  6  1  0  0  0  0
  5 23  1  0  0  0  0
  5 24  1  0  0  0  0
  6  7  1  0  0  0  0
  6 25  1  0  0  0  0
  6 26  1  0  0  0  0
  7  8  1  0  0  0  0
  8  9  2  0  0  0  0
  8 10  1  0  0  0  0
 10 17  1  0  0  0  0
 10 11  2  0  0  0  0
 11 12  1  0  0  0  0
 12 13  1  0  0  0  0
 12 14  1  0  0  0  0
 13 27  1  0  0  0  0
 13 28  1  0  0  0  0
 13 29  1  0  0  0  0
 14 15  2  0  0  0  0
 14 16  1  0  0  0  0
 16 17  1  0  0  0  0
 16 30  1  0  0  0  0
 16 31  1  0  0  0  0
 17 32  1  0  0  0  0
 17 33  1  0  0  0  0
 18 19  1  0  0  0  0
 18 34  1  0  0  0  0
M  CHG  1   7  -1
M  END
> <s_m_source_file>
AV-unprocessed.smi

> <i_m_source_file_index>
2018

> <i_lp_mmshare_version>
43012

> <i_f3d_flags>
0

> <s_epik_input>
W0NIM11jMW5jKFtjSF1zMSlbQ0gyXVtDSDJdW05IXUMoPU8pQzI9Tk4oW0NIM10pQyg9TylbQ0gyXVtDSDJdMg==

> <s_epik_cmdline>
J2VwaWtfcHl0aG9uJywgJy1waCcsICc3LjAnLCAnLXRuJywgJzgnLCAnLW1hJywgJzIwMCcsICctbWV0YWxfYmluZGluZycsICctaW1hZScsICc8aW5maWxlLm1hZT4nLCAnLW9tYWUnLCAnPG91dGZpbGUubWFlPic=

> <r_epik_Ionization_Penalty>
5.30398

> <r_epik_Ionization_Penalty_Charging>
5.30014

> <r_epik_Ionization_Penalty_Neutral>
0.0038335

> <r_epik_State_Penalty>
5.30046

> <r_epik_Charging_Adjusted_Penalty>
10.6006

> <i_epik_Tot_Q>
-1

> <i_epik_Tot_abs_Q>
1

> <r_epik_Metal_State_Penalty>
1.34504

> <b_epik_Metal_Only>
1

> <s_epik_Chemistry_Notes>
This compound has an imine and may undergo hydrolysis.

> <s_lp_Force_Field>
OPLS_2005

> <r_lp_Energy>
22.7314

> <b_lp_Chiralities_Consistent>
1

> <s_lp_Variant>
AV-unprocessed.smi:2018-2

> <Gold.Version>
5.8.1

> <Gold.Id.Protein>
6NUR|6NUR_protein|mol2

> <Gold.PLP.Fitness>
48.4445

> <Gold.PLP.PLP>
-43.4058

> <Gold.PLP.part.hbond>
-2.0000

> <Gold.PLP.part.metal>
0.0000

> <Gold.PLP.part.buried>
-4.0549

> <Gold.PLP.part.nonpolar>
-36.0889

> <Gold.PLP.part.repulsive>
0.1866

> <Gold.PLP.ligand.clash>
0.0000

> <Gold.PLP.ligand.torsion>
0.8414

> <Gold.PLP.Chemscore.Hbond>
2.2330

> <Gold.PLP.Chemscore.CHOScore>
0.0000

> <Gold.PLP.Chemscore.Metal>
0.0000

> <Gold.Chemscore.Hbonds>
donor molecule, donor type, donor heavy atom, donor atom, acceptor molecule, acceptor atom, score
      P1  H  7997  8009       L1     7  1.07

> <Gold.PLP.Chemscore.Internal.Correction>
0.0227

> <Gold.Rescore>
     Score         DG    S(hbond)    S(metal)    S(lipo)     H(rot)  DE(clash)    DE(int)     intcor
     15.86     -17.01       0.92        0.00     103.37       1.42       0.26       0.88       ----

> <Gold.Chemscore.Fitness>
15.8623

> <Gold.Chemscore.DG>
-17.0073

> <Gold.Chemscore.ZeroCoef>
-5.4800

> <Gold.Chemscore.Hbond>
0.9168

> <Gold.Chemscore.Metal>
0.0000

> <Gold.Chemscore.Lipo>
103.3746

> <Gold.Chemscore.Internal_Hbond>
0.0000

> <Gold.Chemscore.DEClash>
0.2642

> <Gold.Chemscore.DEInternal>
0.8809

> <Gold.Chemscore.Rot>
1.4178

> <Gold.Chemscore.Internal.Correction>
   9.000000E+99

> <Gold.Chemscore.Hbonds>
donor molecule, donor type, donor heavy atom, donor atom, acceptor molecule, acceptor atom, score
      P1  H  7997  8009       L1     7  0.29

> <Gold.Chemscore.Hbond.Weighted>
-3.0620

> <Gold.Chemscore.Metal.Weighted>
-0.0000

> <Gold.Chemscore.Lipo.Weighted>
-12.0948

> <Gold.Chemscore.Internal_Hbond.Weighted>
0.0000

> <Gold.Chemscore.DEClash.Weighted>
0.2642

> <Gold.Chemscore.DEInternal.Weighted>
0.8809

> <Gold.Chemscore.Rot.Weighted>
3.6295

> <Gold.Chemscore.Internal.Correction.Weighted>
   9.000000E+99

> <Gold.Protein.RotatedTorsions>
[ 6907 6896 6895 6894 ] final -155.18 input  -60.11 | X-H torsion
[ 7974 7965 7964 7962 ] final  -58.47 input  175.53 | X-H torsion
[ 8008 7997 7996 7995 ] final  139.13 input   59.86 | X-H torsion
[ 10167 10162 10161 10158 ] final -152.24 input  -65.29 | X-H torsion
[ 10718 10713 10712 10709 ] final -145.72 input   66.30 | X-H torsion
[ 10763 10752 10751 10750 ] final  -54.99 input  -60.55 | X-H torsion
[ 11005 11000 10999 10996 ] final   65.93 input  -57.11 | X-H torsion

> <Gold.Protein.ActiveResidues>
 VAL166  LYS551  ARG553  GLY616  TRP617  ASP618  TYR619  PRO620  LYS621  CYS622 
 ASP623  PHE694  ASN695  SER759  ASP760  ASP761  ALA762  ILE779  LEU786  VAL792 
 PHE793  MET794  SER795  GLU796  ALA797  LYS798  CYS799  TRP800  GLU811  SER814 

> <Gold.Protein.RotatedAtoms>
  151.2686  133.4266  159.2619 H   0  0  0  0  0  0  0  0  0  0  0  0  # atno 6907 bound_to 6896
  151.0465  134.9644  159.8199 H   0  0  0  0  0  0  0  0  0  0  0  0  # atno 6908 bound_to 6896
  152.5375  134.2643  159.8999 H   0  0  0  0  0  0  0  0  0  0  0  0  # atno 6909 bound_to 6896
  145.8390  140.8430  143.0044 H   0  0  0  0  0  0  0  0  0  0  0  0  # atno 7974 bound_to 7965
  156.2992  140.2375  156.4187 H   0  0  0  0  0  0  0  0  0  0  0  0  # atno 8008 bound_to 7997
  154.8375  140.0430  157.1539 H   0  0  0  0  0  0  0  0  0  0  0  0  # atno 8009 bound_to 7997
  154.9140  140.2994  155.5255 H   0  0  0  0  0  0  0  0  0  0  0  0  # atno 8010 bound_to 7997
  139.7198  143.8975  152.2499 H   0  0  0  0  0  0  0  0  0  0  0  0  # atno 10167 bound_to 10162
  156.3860  130.7861  151.2059 H   0  0  0  0  0  0  0  0  0  0  0  0  # atno 10718 bound_to 10713
  154.1837  135.6439  153.5041 H   0  0  0  0  0  0  0  0  0  0  0  0  # atno 10763 bound_to 10752
  153.0053  135.5412  154.6488 H   0  0  0  0  0  0  0  0  0  0  0  0  # atno 10764 bound_to 10752
  154.5859  135.2929  155.0658 H   0  0  0  0  0  0  0  0  0  0  0  0  # atno 10765 bound_to 10752
  139.9864  134.6662  156.0169 H   0  0  0  0  0  0  0  0  0  0  0  0  # atno 11005 bound_to 11000
  144.6735  140.0783  143.7470 LP  0  0  0  0  0  0  0  0  0  0  0  0  # atno 17320 bound_to 7965
  145.9487  139.2718  143.1225 LP  0  0  0  0  0  0  0  0  0  0  0  0  # atno 17321 bound_to 7965
  139.8867  144.6988  150.8816 LP  0  0  0  0  0  0  0  0  0  0  0  0  # atno 17342 bound_to 10162
  140.7751  143.3618  151.1814 LP  0  0  0  0  0  0  0  0  0  0  0  0  # atno 17343 bound_to 10162
  157.7496  131.0330  150.4251 LP  0  0  0  0  0  0  0  0  0  0  0  0  # atno 17370 bound_to 10713
  156.4503  130.4010  149.6640 LP  0  0  0  0  0  0  0  0  0  0  0  0  # atno 17371 bound_to 10713
  141.1528  133.6546  156.4066 LP  0  0  0  0  0  0  0  0  0  0  0  0  # atno 17394 bound_to 11000
  140.4995  134.6499  157.5243 LP  0  0  0  0  0  0  0  0  0  0  0  0  # atno 17395 bound_to 11000

$$$$
