AV-unprocessed.smi:210|AV-procd|sdf|1612|dock4
  -GOLD-   2262019533D 1   1.00000     0.00000
 Structure written by MMmdl.
 57 61  0  0  0  0  0  0  0  0  1 V2000
  153.1287  137.7927  156.1622 C   0  0  0  0  0  0  0  0  0  0  0  0
  152.6733  139.1122  156.4048 O   0  0  0  0  0  0  0  0  0  0  0  0
  151.7011  139.5391  155.4636 C   0  0  1  0  0  0  0  0  0  0  0  0
  150.5852  138.5075  155.2794 C   0  0  0  0  0  0  0  0  0  0  0  0
  149.6244  139.6984  155.1253 C   0  0  1  0  0  0  0  0  0  0  0  0
  148.2981  139.4846  155.7129 N   0  0  0  0  0  0  0  0  0  0  0  0
  147.3614  140.6006  155.6459 C   0  0  0  0  0  0  0  0  0  0  0  0
  147.6769  138.3172  155.4143 C   0  0  0  0  0  0  0  0  0  0  0  0
  147.6363  137.3098  156.3274 N   0  0  0  0  0  0  0  0  0  0  0  0
  147.0422  136.1520  156.0229 C   0  0  0  0  0  0  0  0  0  0  0  0
  146.4406  135.7959  154.8860 N   0  0  0  0  0  0  0  0  0  0  0  0
  146.4799  136.8037  153.9673 C   0  0  0  0  0  0  0  0  0  0  0  0
  147.0791  138.0819  154.1463 C   0  0  0  0  0  0  0  0  0  0  0  0
  146.9376  138.8399  152.9906 N   0  0  0  0  0  0  0  0  0  0  0  0
  146.2981  138.0504  152.1710 C   0  0  0  0  0  0  0  0  0  0  0  0
  145.9600  136.8181  152.6848 N   0  0  0  0  0  0  0  0  0  0  0  0
  145.2976  135.7495  151.9956 C   0  0  0  0  0  0  0  0  0  0  0  0
  145.0245  134.4052  152.6794 C   0  0  0  0  0  0  0  0  0  0  0  0
  145.2013  133.6931  151.3181 C   0  0  0  0  0  0  0  0  0  0  0  0
  145.9385  132.3392  151.3369 C   0  0  0  0  0  0  0  0  0  0  0  0
  146.4379  131.9739  150.0659 O   0  0  0  0  0  0  0  0  0  0  0  0
  143.8868  133.4844  150.5418 C   0  0  0  0  0  0  0  0  0  0  0  0
  144.1199  133.3341  149.1559 O   0  0  0  0  0  0  0  0  0  0  0  0
  146.0194  134.9414  150.9132 C   0  0  0  0  0  0  0  0  0  0  0  0
  150.6168  140.5005  156.0017 C   0  0  0  0  0  0  0  0  0  0  0  0
  150.7756  142.0187  155.8537 C   0  0  0  0  0  0  0  0  0  0  0  0
  150.9181  142.1356  157.3754 C   0  0  0  0  0  0  0  0  0  0  0  0
  150.4211  140.6938  157.5202 C   0  0  0  0  0  0  0  0  0  0  0  0
  153.8965  137.5308  156.8899 H   0  0  0  0  0  0  0  0  0  0  0  0
  153.5605  137.6928  155.1670 H   0  0  0  0  0  0  0  0  0  0  0  0
  152.3142  137.0740  156.2602 H   0  0  0  0  0  0  0  0  0  0  0  0
  152.1175  139.8484  154.5020 H   0  0  0  0  0  0  0  0  0  0  0  0
  150.6854  137.8816  154.3925 H   0  0  0  0  0  0  0  0  0  0  0  0
  150.4028  137.9121  156.1765 H   0  0  0  0  0  0  0  0  0  0  0  0
  149.5992  140.0706  154.0992 H   0  0  0  0  0  0  0  0  0  0  0  0
  146.4830  140.4215  156.2667 H   0  0  0  0  0  0  0  0  0  0  0  0
  147.0284  140.7583  154.6194 H   0  0  0  0  0  0  0  0  0  0  0  0
  147.8224  141.5232  155.9948 H   0  0  0  0  0  0  0  0  0  0  0  0
  147.0508  135.4034  156.8014 H   0  0  0  0  0  0  0  0  0  0  0  0
  146.0501  138.3517  151.1635 H   0  0  0  0  0  0  0  0  0  0  0  0
  144.3738  136.1768  151.6022 H   0  0  0  0  0  0  0  0  0  0  0  0
  145.7919  134.1503  153.4120 H   0  0  0  0  0  0  0  0  0  0  0  0
  144.0292  134.3170  153.1167 H   0  0  0  0  0  0  0  0  0  0  0  0
  146.7793  132.3651  152.0311 H   0  0  0  0  0  0  0  0  0  0  0  0
  145.2792  131.5379  151.6714 H   0  0  0  0  0  0  0  0  0  0  0  0
  147.3126  131.6326  150.1738 H   0  0  0  0  0  0  0  0  0  0  0  0
  143.3526  132.6056  150.9046 H   0  0  0  0  0  0  0  0  0  0  0  0
  143.2088  134.3279  150.6744 H   0  0  0  0  0  0  0  0  0  0  0  0
  144.7877  133.9497  148.8944 H   0  0  0  0  0  0  0  0  0  0  0  0
  145.8465  135.2991  149.8977 H   0  0  0  0  0  0  0  0  0  0  0  0
  147.0885  134.8478  151.1122 H   0  0  0  0  0  0  0  0  0  0  0  0
  151.6621  142.3254  155.2978 H   0  0  0  0  0  0  0  0  0  0  0  0
  149.8779  142.5073  155.4740 H   0  0  0  0  0  0  0  0  0  0  0  0
  151.9512  142.2632  157.6993 H   0  0  0  0  0  0  0  0  0  0  0  0
  150.2626  142.8802  157.8283 H   0  0  0  0  0  0  0  0  0  0  0  0
  149.3837  140.6503  157.8501 H   0  0  0  0  0  0  0  0  0  0  0  0
  151.0548  140.0687  158.1493 H   0  0  0  0  0  0  0  0  0  0  0  0
  1  2  1  0  0  0  0
  1 29  1  0  0  0  0
  1 30  1  0  0  0  0
  1 31  1  0  0  0  0
  2  3  1  0  0  0  0
  3 25  1  0  0  0  0
  3  4  1  0  0  0  0
  3 32  1  0  0  0  0
  4  5  1  0  0  0  0
  4 33  1  0  0  0  0
  4 34  1  0  0  0  0
  5  6  1  0  0  0  0
  5 25  1  0  0  0  0
  5 35  1  0  0  0  0
  6  7  1  0  0  0  0
  6  8  1  0  0  0  0
  7 36  1  0  0  0  0
  7 37  1  0  0  0  0
  7 38  1  0  0  0  0
  8 13  1  0  0  0  0
  8  9  2  0  0  0  0
  9 10  1  0  0  0  0
 10 11  2  0  0  0  0
 10 39  1  0  0  0  0
 11 12  1  0  0  0  0
 12 16  1  0  0  0  0
 12 13  2  0  0  0  0
 13 14  1  0  0  0  0
 14 15  2  0  0  0  0
 15 16  1  0  0  0  0
 15 40  1  0  0  0  0
 16 17  1  0  0  0  0
 17 24  1  0  0  0  0
 17 18  1  0  0  0  0
 17 41  1  0  0  0  0
 18 19  1  0  0  0  0
 18 42  1  0  0  0  0
 18 43  1  0  0  0  0
 19 20  1  0  0  0  0
 19 22  1  0  0  0  0
 19 24  1  0  0  0  0
 20 21  1  0  0  0  0
 20 44  1  0  0  0  0
 20 45  1  0  0  0  0
 21 46  1  0  0  0  0
 22 23  1  0  0  0  0
 22 47  1  0  0  0  0
 22 48  1  0  0  0  0
 23 49  1  0  0  0  0
 24 50  1  0  0  0  0
 24 51  1  0  0  0  0
 25 28  1  0  0  0  0
 25 26  1  0  0  0  0
 26 27  1  0  0  0  0
 26 52  1  0  0  0  0
 26 53  1  0  0  0  0
 27 28  1  0  0  0  0
 27 54  1  0  0  0  0
 27 55  1  0  0  0  0
 28 56  1  0  0  0  0
 28 57  1  0  0  0  0
M  END
> <s_m_source_file>
AV-unprocessed.smi

> <i_m_source_file_index>
210

> <i_lp_mmshare_version>
43012

> <i_f3d_flags>
0

> <s_epik_input>
W0NIMl0xW0NIMl1bQ0gyXUMxMltDQEhdKE9bQ0gzXSlbQ0gyXVtDQEhdMk4oW0NIM10pYyhuW2NIXW4zKWMoYzM0KW5bY0hdbjRbQ0hdKFtDSDJdNSlbQ0gyXUM1KFtDSDJdW09IXSlbQ0gyXVtPSF0=

> <s_epik_cmdline>
J2VwaWtfcHl0aG9uJywgJy1waCcsICc3LjAnLCAnLXRuJywgJzgnLCAnLW1hJywgJzIwMCcsICctbWV0YWxfYmluZGluZycsICctaW1hZScsICc8aW5maWxlLm1hZT4nLCAnLW9tYWUnLCAnPG91dGZpbGUubWFlPic=

> <r_lp_tautomer_probability>
1

> <r_epik_Ionization_Penalty>
0.00313676

> <r_epik_Ionization_Penalty_Charging>
0

> <r_epik_Ionization_Penalty_Neutral>
0.00313676

> <r_epik_State_Penalty>
0.00199132

> <r_epik_Charging_Adjusted_Penalty>
0.00199132

> <i_epik_Tot_Q>
0

> <i_epik_Tot_abs_Q>
0

> <r_epik_Metal_State_Penalty>
-0

> <b_epik_Metal_Only>
0

> <s_lp_Force_Field>
OPLS_2005

> <r_lp_Energy>
61.2051

> <b_lp_Chiralities_Consistent>
1

> <s_lp_Variant>
AV-unprocessed.smi:210-2

> <Gold.Version>
5.8.1

> <Gold.Id.Protein>
6NUR|6NUR_protein|mol2

> <Gold.PLP.Fitness>
46.2818

> <Gold.PLP.PLP>
-35.5684

> <Gold.PLP.part.hbond>
-3.4104

> <Gold.PLP.part.metal>
0.0000

> <Gold.PLP.part.buried>
-2.1353

> <Gold.PLP.part.nonpolar>
-29.6588

> <Gold.PLP.part.repulsive>
0.3438

> <Gold.PLP.ligand.clash>
0.0000

> <Gold.PLP.ligand.torsion>
1.2534

> <Gold.PLP.Chemscore.Hbond>
3.0000

> <Gold.PLP.Chemscore.CHOScore>
1.0000

> <Gold.PLP.Chemscore.Metal>
0.0000

> <Gold.Chemscore.Hbonds>
donor molecule, donor type, donor heavy atom, donor atom, acceptor molecule, acceptor atom, score
      L1  H    21    46       P1 10747  1.00
      L1  H    23    49       P1  7921  0.99
      P1  H  7997  8010       L1     2  1.00
      L1  C    15    40       P1 10171  0.92

> <Gold.PLP.Chemscore.Internal.Correction>
1.2204

> <Gold.Rescore>
     Score         DG    S(hbond)    S(metal)    S(lipo)     H(rot)  DE(clash)    DE(int)     intcor
     13.24     -16.42       2.72        0.00      94.09       3.57       0.54       2.65       ----

> <Gold.Chemscore.Fitness>
13.2376

> <Gold.Chemscore.DG>
-16.4185

> <Gold.Chemscore.ZeroCoef>
-5.4800

> <Gold.Chemscore.Hbond>
2.7163

> <Gold.Chemscore.Metal>
0.0000

> <Gold.Chemscore.Lipo>
94.0879

> <Gold.Chemscore.Internal_Hbond>
0.0000

> <Gold.Chemscore.DEClash>
0.5358

> <Gold.Chemscore.DEInternal>
2.6452

> <Gold.Chemscore.Rot>
3.5712

> <Gold.Chemscore.Internal.Correction>
   9.000000E+99

> <Gold.Chemscore.Hbonds>
donor molecule, donor type, donor heavy atom, donor atom, acceptor molecule, acceptor atom, score
      L1  H    21    46       P1 10747  1.00
      L1  H    23    49       P1  7921  0.90
      P1  H  7997  8010       L1     2  0.26

> <Gold.Chemscore.Hbond.Weighted>
-9.0726

> <Gold.Chemscore.Metal.Weighted>
-0.0000

> <Gold.Chemscore.Lipo.Weighted>
-11.0083

> <Gold.Chemscore.Internal_Hbond.Weighted>
0.0000

> <Gold.Chemscore.DEClash.Weighted>
0.5358

> <Gold.Chemscore.DEInternal.Weighted>
2.6452

> <Gold.Chemscore.Rot.Weighted>
9.1423

> <Gold.Chemscore.Internal.Correction.Weighted>
   9.000000E+99

> <Gold.Protein.RotatedTorsions>
[ 6907 6896 6895 6894 ] final  175.94 input  -60.11 | X-H torsion
[ 7974 7965 7964 7962 ] final -160.68 input  175.53 | X-H torsion
[ 8008 7997 7996 7995 ] final   78.23 input   59.86 | X-H torsion
[ 10167 10162 10161 10158 ] final   81.10 input  -65.29 | X-H torsion
[ 10718 10713 10712 10709 ] final -122.59 input   66.30 | X-H torsion
[ 10763 10752 10751 10750 ] final -156.40 input  -60.55 | X-H torsion
[ 11005 11000 10999 10996 ] final   77.44 input  -57.11 | X-H torsion

> <Gold.Protein.ActiveResidues>
 VAL166  LYS551  ARG553  GLY616  TRP617  ASP618  TYR619  PRO620  LYS621  CYS622 
 ASP623  PHE694  ASN695  SER759  ASP760  ASP761  ALA762  ILE779  LEU786  VAL792 
 PHE793  MET794  SER795  GLU796  ALA797  LYS798  CYS799  TRP800  GLU811  SER814 

> <Gold.Protein.RotatedAtoms>
  151.7281  133.3316  159.3332 H   0  0  0  0  0  0  0  0  0  0  0  0  # atno 6907 bound_to 6896
  150.7624  134.6388  159.6235 H   0  0  0  0  0  0  0  0  0  0  0  0  # atno 6908 bound_to 6896
  152.3609  134.6876  160.0259 H   0  0  0  0  0  0  0  0  0  0  0  0  # atno 6909 bound_to 6896
  144.7418  140.3506  143.6116 H   0  0  0  0  0  0  0  0  0  0  0  0  # atno 7974 bound_to 7965
  155.8528  140.3457  155.5704 H   0  0  0  0  0  0  0  0  0  0  0  0  # atno 8008 bound_to 7997
  155.8019  140.0886  157.1972 H   0  0  0  0  0  0  0  0  0  0  0  0  # atno 8009 bound_to 7997
  154.4008  140.1464  156.3272 H   0  0  0  0  0  0  0  0  0  0  0  0  # atno 8010 bound_to 7997
  139.9428  144.6078  150.8236 H   0  0  0  0  0  0  0  0  0  0  0  0  # atno 10167 bound_to 10162
  156.1431  130.6480  150.9802 H   0  0  0  0  0  0  0  0  0  0  0  0  # atno 10718 bound_to 10713
  154.7715  135.3146  154.8179 H   0  0  0  0  0  0  0  0  0  0  0  0  # atno 10763 bound_to 10752
  153.8914  135.6825  153.4764 H   0  0  0  0  0  0  0  0  0  0  0  0  # atno 10764 bound_to 10752
  153.1330  135.4772  154.9313 H   0  0  0  0  0  0  0  0  0  0  0  0  # atno 10765 bound_to 10752
  139.9254  134.7683  156.1522 H   0  0  0  0  0  0  0  0  0  0  0  0  # atno 11005 bound_to 11000
  145.7280  139.1728  143.2447 LP  0  0  0  0  0  0  0  0  0  0  0  0  # atno 17320 bound_to 7965
  146.1228  140.7287  142.9449 LP  0  0  0  0  0  0  0  0  0  0  0  0  # atno 17321 bound_to 7965
  140.7606  143.3155  151.2744 LP  0  0  0  0  0  0  0  0  0  0  0  0  # atno 17342 bound_to 10162
  139.6691  144.0052  152.2742 LP  0  0  0  0  0  0  0  0  0  0  0  0  # atno 17343 bound_to 10162
  157.6593  131.0883  150.7875 LP  0  0  0  0  0  0  0  0  0  0  0  0  # atno 17370 bound_to 10713
  156.7948  130.4902  149.5379 LP  0  0  0  0  0  0  0  0  0  0  0  0  # atno 17371 bound_to 10713
  141.0808  133.6755  156.2332 LP  0  0  0  0  0  0  0  0  0  0  0  0  # atno 17394 bound_to 11000
  140.6351  134.5224  157.5564 LP  0  0  0  0  0  0  0  0  0  0  0  0  # atno 17395 bound_to 11000

$$$$
