AV-unprocessed.smi:116|AV-procd|sdf|1128|dock1
  -GOLD-   2262018253D 1   1.00000     0.00000
 Structure written by MMmdl.
 38 41  0  0  0  0  0  0  0  0  1 V2000
  150.3997  139.7382  154.2281 O   0  0  0  0  0  0  0  0  0  0  0  0
  150.7166  140.2876  155.2844 C   0  0  0  0  0  0  0  0  0  0  0  0
  150.1473  141.5555  155.7274 C   0  0  0  0  0  0  0  0  0  0  0  0
  149.2498  142.1876  154.9522 F   0  0  0  0  0  0  0  0  0  0  0  0
  150.5082  142.1094  156.9047 C   0  0  0  0  0  0  0  0  0  0  0  0
  151.4239  141.5265  157.7641 N   0  0  0  0  0  0  0  0  0  0  0  0
  151.7969  142.1812  159.0756 C   0  0  1  0  0  0  0  0  0  0  0  0
  153.2387  142.6981  159.0184 C   0  0  0  0  0  0  0  0  0  0  0  0
  153.0364  144.1445  158.6224 C   0  0  0  0  0  0  0  0  0  0  0  0
  151.7342  144.4784  159.3408 C   0  0  0  0  0  0  0  0  0  0  0  0
  150.9610  143.2824  159.2900 O   0  0  0  0  0  0  0  0  0  0  0  0
  152.0435  140.3090  157.4072 C   0  0  0  0  0  0  0  0  0  0  0  0
  152.8769  139.7842  158.1492 O   0  0  0  0  0  0  0  0  0  0  0  0
  151.6681  139.7265  156.1725 N   0  0  0  0  0  0  0  0  0  0  0  0
  152.2642  138.4482  155.8158 C   0  0  0  0  0  0  0  0  0  0  0  0
  151.2065  137.4024  155.6309 C   0  0  0  0  0  0  0  0  0  0  0  0
  151.4719  136.2147  155.0713 N   0  0  0  0  0  0  0  0  0  0  0  0
  150.3204  135.4340  155.0312 C   0  0  0  0  0  0  0  0  0  0  0  0
  150.2021  134.1191  154.5234 C   0  0  0  0  0  0  0  0  0  0  0  0
  148.9687  133.4379  154.5454 C   0  0  0  0  0  0  0  0  0  0  0  0
  147.8240  134.0611  155.0775 C   0  0  0  0  0  0  0  0  0  0  0  0
  147.9124  135.3687  155.5887 C   0  0  0  0  0  0  0  0  0  0  0  0
  149.1468  136.0439  155.5644 C   0  0  0  0  0  0  0  0  0  0  0  0
  149.5297  137.6659  156.1308 S   0  0  0  0  0  0  0  0  0  0  0  0
  150.0557  143.0520  157.1739 H   0  0  0  0  0  0  0  0  0  0  0  0
  151.6235  141.4351  159.8525 H   0  0  0  0  0  0  0  0  0  0  0  0
  153.6709  142.6327  160.0176 H   0  0  0  0  0  0  0  0  0  0  0  0
  153.8595  142.1284  158.3259 H   0  0  0  0  0  0  0  0  0  0  0  0
  153.8640  144.7900  158.9173 H   0  0  0  0  0  0  0  0  0  0  0  0
  152.9060  144.2269  157.5428 H   0  0  0  0  0  0  0  0  0  0  0  0
  151.9299  144.7243  160.3854 H   0  0  0  0  0  0  0  0  0  0  0  0
  151.2055  145.3169  158.8870 H   0  0  0  0  0  0  0  0  0  0  0  0
  152.8538  138.5736  154.9068 H   0  0  0  0  0  0  0  0  0  0  0  0
  152.9710  138.1644  156.5973 H   0  0  0  0  0  0  0  0  0  0  0  0
  151.0722  133.6291  154.1125 H   0  0  0  0  0  0  0  0  0  0  0  0
  148.9015  132.4340  154.1526 H   0  0  0  0  0  0  0  0  0  0  0  0
  146.8800  133.5365  155.0928 H   0  0  0  0  0  0  0  0  0  0  0  0
  147.0380  135.8526  155.9982 H   0  0  0  0  0  0  0  0  0  0  0  0
  1  2  2  0  0  0  0
  2 14  1  0  0  0  0
  2  3  1  0  0  0  0
  3  4  1  0  0  0  0
  3  5  2  0  0  0  0
  5  6  1  0  0  0  0
  5 25  1  0  0  0  0
  6  7  1  0  0  0  0
  6 12  1  0  0  0  0
  7 11  1  0  0  0  0
  7  8  1  0  0  0  0
  7 26  1  0  0  0  0
  8  9  1  0  0  0  0
  8 27  1  0  0  0  0
  8 28  1  0  0  0  0
  9 10  1  0  0  0  0
  9 29  1  0  0  0  0
  9 30  1  0  0  0  0
 10 11  1  0  0  0  0
 10 31  1  0  0  0  0
 10 32  1  0  0  0  0
 12 13  2  0  0  0  0
 12 14  1  0  0  0  0
 14 15  1  0  0  0  0
 15 16  1  0  0  0  0
 15 33  1  0  0  0  0
 15 34  1  0  0  0  0
 16 24  1  0  0  0  0
 16 17  2  0  0  0  0
 17 18  1  0  0  0  0
 18 23  2  0  0  0  0
 18 19  1  0  0  0  0
 19 20  2  0  0  0  0
 19 35  1  0  0  0  0
 20 21  1  0  0  0  0
 20 36  1  0  0  0  0
 21 22  2  0  0  0  0
 21 37  1  0  0  0  0
 22 23  1  0  0  0  0
 22 38  1  0  0  0  0
 23 24  1  0  0  0  0
M  END
> <s_m_source_file>
AV-unprocessed.smi

> <i_m_source_file_index>
116

> <i_lp_mmshare_version>
43012

> <i_f3d_flags>
0

> <s_epik_input>
TzFbQ0gyXVtDSDJdW0NIMl1bQ0BIXTFuKFtjSF1jKEYpYzI9TyljKD1PKW4yW0NIMl1jKG4zKXNjKGMzNClbY0hdW2NIXVtjSF1bY0hdNA==

> <s_epik_cmdline>
J2VwaWtfcHl0aG9uJywgJy1waCcsICc3LjAnLCAnLXRuJywgJzgnLCAnLW1hJywgJzIwMCcsICctbWV0YWxfYmluZGluZycsICctaW1hZScsICc8aW5maWxlLm1hZT4nLCAnLW9tYWUnLCAnPG91dGZpbGUubWFlPic=

> <r_lp_tautomer_probability>
1

> <r_epik_Ionization_Penalty>
4.2492e-05

> <r_epik_Ionization_Penalty_Charging>
2.84664e-09

> <r_epik_Ionization_Penalty_Neutral>
4.24891e-05

> <r_epik_State_Penalty>
-0

> <r_epik_Charging_Adjusted_Penalty>
2.84664e-09

> <i_epik_Tot_Q>
0

> <i_epik_Tot_abs_Q>
0

> <r_epik_Metal_State_Penalty>
-0

> <b_epik_Metal_Only>
0

> <s_epik_Chemistry_Notes>
This compound contains an acetal/aminal-like group ( X-CH(R)-Y where X, Y are N, S, or O) that may be acid/base labile, releasing an aldehyde.

> <s_lp_Force_Field>
OPLS_2005

> <r_lp_Energy>
30.7685

> <b_lp_Chiralities_Consistent>
1

> <s_lp_Variant>
AV-unprocessed.smi:116-2

> <Gold.Version>
5.8.1

> <Gold.Id.Protein>
6NUR|6NUR_protein|mol2

> <Gold.PLP.Fitness>
49.3115

> <Gold.PLP.PLP>
-40.1842

> <Gold.PLP.part.hbond>
-3.0000

> <Gold.PLP.part.metal>
0.0000

> <Gold.PLP.part.buried>
-1.4120

> <Gold.PLP.part.nonpolar>
-35.9939

> <Gold.PLP.part.repulsive>
0.3242

> <Gold.PLP.ligand.clash>
0.0114

> <Gold.PLP.ligand.torsion>
0.2635

> <Gold.PLP.Chemscore.Hbond>
2.2500

> <Gold.PLP.Chemscore.CHOScore>
0.9664

> <Gold.PLP.Chemscore.Metal>
0.0000

> <Gold.Chemscore.Hbonds>
donor molecule, donor type, donor heavy atom, donor atom, acceptor molecule, acceptor atom, score
      P1  H  7989  7998       L1     1  0.25
      P1  H  7997  8009       L1    13  0.85
      P1  H 10752 10763       L1    17  1.00
      L1  C     5    25       P1  8028  0.97

> <Gold.PLP.Chemscore.Internal.Correction>
0.0166

> <Gold.Rescore>
     Score         DG    S(hbond)    S(metal)    S(lipo)     H(rot)  DE(clash)    DE(int)     intcor
     14.96     -17.90       1.95        0.00      83.65       1.52       0.99       1.95       ----

> <Gold.Chemscore.Fitness>
14.9619

> <Gold.Chemscore.DG>
-17.9044

> <Gold.Chemscore.ZeroCoef>
-5.4800

> <Gold.Chemscore.Hbond>
1.9527

> <Gold.Chemscore.Metal>
0.0000

> <Gold.Chemscore.Lipo>
83.6460

> <Gold.Chemscore.Internal_Hbond>
0.0000

> <Gold.Chemscore.DEClash>
0.9912

> <Gold.Chemscore.DEInternal>
1.9513

> <Gold.Chemscore.Rot>
1.5172

> <Gold.Chemscore.Internal.Correction>
   9.000000E+99

> <Gold.Chemscore.Hbonds>
donor molecule, donor type, donor heavy atom, donor atom, acceptor molecule, acceptor atom, score
      P1  H  7997  8009       L1    13  0.16
      P1  H 10752 10763       L1    17  0.97

> <Gold.Chemscore.Hbond.Weighted>
-6.5219

> <Gold.Chemscore.Metal.Weighted>
-0.0000

> <Gold.Chemscore.Lipo.Weighted>
-9.7866

> <Gold.Chemscore.Internal_Hbond.Weighted>
0.0000

> <Gold.Chemscore.DEClash.Weighted>
0.9912

> <Gold.Chemscore.DEInternal.Weighted>
1.9513

> <Gold.Chemscore.Rot.Weighted>
3.8841

> <Gold.Chemscore.Internal.Correction.Weighted>
   9.000000E+99

> <Gold.Protein.RotatedTorsions>
[ 6907 6896 6895 6894 ] final   74.05 input  -60.11 | X-H torsion
[ 7974 7965 7964 7962 ] final   86.98 input  175.53 | X-H torsion
[ 8008 7997 7996 7995 ] final  160.34 input   59.86 | X-H torsion
[ 10167 10162 10161 10158 ] final  159.07 input  -65.29 | X-H torsion
[ 10718 10713 10712 10709 ] final -177.87 input   66.30 | X-H torsion
[ 10763 10752 10751 10750 ] final   76.83 input  -60.55 | X-H torsion
[ 11005 11000 10999 10996 ] final  -19.43 input  -57.11 | X-H torsion

> <Gold.Protein.ActiveResidues>
 VAL166  LYS551  ARG553  GLY616  TRP617  ASP618  TYR619  PRO620  LYS621  CYS622 
 ASP623  PHE694  ASN695  SER759  ASP760  ASP761  ALA762  ILE779  LEU786  VAL792 
 PHE793  MET794  SER795  GLU796  ALA797  LYS798  CYS799  TRP800  GLU811  SER814 

> <Gold.Protein.RotatedAtoms>
  152.4956  134.4329  159.9517 H   0  0  0  0  0  0  0  0  0  0  0  0  # atno 6907 bound_to 6896
  151.4308  133.3664  159.2776 H   0  0  0  0  0  0  0  0  0  0  0  0  # atno 6908 bound_to 6896
  150.9156  134.8596  159.7514 H   0  0  0  0  0  0  0  0  0  0  0  0  # atno 6909 bound_to 6896
  145.5651  139.2308  143.2437 H   0  0  0  0  0  0  0  0  0  0  0  0  # atno 7974 bound_to 7965
  156.2179  140.1807  156.7547 H   0  0  0  0  0  0  0  0  0  0  0  0  # atno 8008 bound_to 7997
  154.5819  140.0665  156.9145 H   0  0  0  0  0  0  0  0  0  0  0  0  # atno 8009 bound_to 7997
  155.2487  140.3327  155.4287 H   0  0  0  0  0  0  0  0  0  0  0  0  # atno 8010 bound_to 7997
  139.4830  144.4765  151.8504 H   0  0  0  0  0  0  0  0  0  0  0  0  # atno 10167 bound_to 10162
  156.8359  130.9669  151.3103 H   0  0  0  0  0  0  0  0  0  0  0  0  # atno 10718 bound_to 10713
  153.0754  135.4937  154.8393 H   0  0  0  0  0  0  0  0  0  0  0  0  # atno 10763 bound_to 10752
  154.7080  135.3014  154.9243 H   0  0  0  0  0  0  0  0  0  0  0  0  # atno 10764 bound_to 10752
  153.9946  135.6774  153.4809 H   0  0  0  0  0  0  0  0  0  0  0  0  # atno 10765 bound_to 10752
  140.8366  133.7957  155.9815 H   0  0  0  0  0  0  0  0  0  0  0  0  # atno 11005 bound_to 11000
  146.1824  140.6477  142.9183 LP  0  0  0  0  0  0  0  0  0  0  0  0  # atno 17320 bound_to 7965
  144.7464  140.5079  143.6833 LP  0  0  0  0  0  0  0  0  0  0  0  0  # atno 17321 bound_to 7965
  140.4237  144.2208  150.5887 LP  0  0  0  0  0  0  0  0  0  0  0  0  # atno 17342 bound_to 10162
  140.4848  143.2367  151.8904 LP  0  0  0  0  0  0  0  0  0  0  0  0  # atno 17343 bound_to 10162
  157.6382  130.8784  149.9398 LP  0  0  0  0  0  0  0  0  0  0  0  0  # atno 17370 bound_to 10713
  156.0908  130.3663  150.0399 LP  0  0  0  0  0  0  0  0  0  0  0  0  # atno 17371 bound_to 10713
  140.8940  134.2460  157.5078 LP  0  0  0  0  0  0  0  0  0  0  0  0  # atno 17394 bound_to 11000
  139.8704  134.9675  156.4599 LP  0  0  0  0  0  0  0  0  0  0  0  0  # atno 17395 bound_to 11000

$$$$
