AV-unprocessed.smi:754|AV-procd|sdf|3610|dock4
  -GOLD-   22720 1 03D 1   1.00000     0.00000
 Structure written by MMmdl.
 37 38  0  0  0  0  0  0  0  0  1 V2000
  146.6547  143.2025  159.2900 C   0  0  0  0  0  0  0  0  0  0  0  0
  147.6751  142.5837  158.3321 C   0  0  0  0  0  0  0  0  0  0  0  0
  148.9718  142.7284  158.8865 O   0  0  0  0  0  0  0  0  0  0  0  0
  149.9270  141.8668  158.2878 C   0  0  1  0  0  0  0  0  0  0  0  0
  149.7902  141.7175  156.7697 C   0  0  0  0  0  0  0  0  0  0  0  0
  151.3176  141.8111  156.6931 C   0  0  2  0  0  0  0  0  0  0  0  0
  151.9265  140.4823  156.7351 N   0  0  0  0  0  0  0  0  0  0  0  0
  151.8815  139.5887  155.7361 C   0  0  0  0  0  0  0  0  0  0  0  0
  151.2408  139.7578  154.6993 O   0  0  0  0  0  0  0  0  0  0  0  0
  152.7192  138.3245  155.9215 C   0  0  0  0  0  0  0  0  0  0  0  0
  151.9811  137.3384  156.6885 N   0  0  0  0  0  0  0  0  0  0  0  0
  151.4221  137.4076  157.8985 C   0  0  0  0  0  0  0  0  0  0  0  0
  150.8066  136.2794  158.2175 N   0  0  0  0  0  0  0  0  0  0  0  0
  151.0208  135.4791  157.1076 N   0  0  0  0  0  0  0  0  0  0  0  0
  151.7159  136.1025  156.1964 N   0  0  0  0  0  0  0  0  0  0  0  0
  151.3056  142.5364  158.0705 C   0  0  0  0  0  0  0  0  0  0  0  0
  151.2974  144.0675  157.9681 C   0  0  0  0  0  0  0  0  0  0  0  0
  152.3914  142.1747  159.0922 C   0  0  0  0  0  0  0  0  0  0  0  0
  145.6436  143.1126  158.8929 H   0  0  0  0  0  0  0  0  0  0  0  0
  146.8594  144.2615  159.4485 H   0  0  0  0  0  0  0  0  0  0  0  0
  146.6783  142.7070  160.2608 H   0  0  0  0  0  0  0  0  0  0  0  0
  147.4479  141.5279  158.1777 H   0  0  0  0  0  0  0  0  0  0  0  0
  147.6193  143.0786  157.3617 H   0  0  0  0  0  0  0  0  0  0  0  0
  150.0130  140.9042  158.7973 H   0  0  0  0  0  0  0  0  0  0  0  0
  149.3601  140.7702  156.4417 H   0  0  0  0  0  0  0  0  0  0  0  0
  149.2903  142.5664  156.3008 H   0  0  0  0  0  0  0  0  0  0  0  0
  151.6615  142.4343  155.8656 H   0  0  0  0  0  0  0  0  0  0  0  0
  152.4764  140.2567  157.5518 H   0  0  0  0  0  0  0  0  0  0  0  0
  152.9917  137.9062  154.9513 H   0  0  0  0  0  0  0  0  0  0  0  0
  153.6453  138.5589  156.4481 H   0  0  0  0  0  0  0  0  0  0  0  0
  151.4563  138.2801  158.5342 H   0  0  0  0  0  0  0  0  0  0  0  0
  152.2561  144.4467  157.6133 H   0  0  0  0  0  0  0  0  0  0  0  0
  151.0965  144.5341  158.9331 H   0  0  0  0  0  0  0  0  0  0  0  0
  150.5353  144.4259  157.2755 H   0  0  0  0  0  0  0  0  0  0  0  0
  153.3853  142.4355  158.7272 H   0  0  0  0  0  0  0  0  0  0  0  0
  152.3994  141.1089  159.3216 H   0  0  0  0  0  0  0  0  0  0  0  0
  152.2406  142.6952  160.0384 H   0  0  0  0  0  0  0  0  0  0  0  0
  1  2  1  0  0  0  0
  1 19  1  0  0  0  0
  1 20  1  0  0  0  0
  1 21  1  0  0  0  0
  2  3  1  0  0  0  0
  2 22  1  0  0  0  0
  2 23  1  0  0  0  0
  3  4  1  0  0  0  0
  4 16  1  0  0  0  0
  4  5  1  0  0  0  0
  4 24  1  0  0  0  0
  5  6  1  0  0  0  0
  5 25  1  0  0  0  0
  5 26  1  0  0  0  0
  6  7  1  0  0  0  0
  6 16  1  0  0  0  0
  6 27  1  0  0  0  0
  7  8  1  0  0  0  0
  7 28  1  0  0  0  0
  8  9  2  0  0  0  0
  8 10  1  0  0  0  0
 10 11  1  0  0  0  0
 10 29  1  0  0  0  0
 10 30  1  0  0  0  0
 11 15  1  0  0  0  0
 11 12  1  0  0  0  0
 12 13  2  0  0  0  0
 12 31  1  0  0  0  0
 13 14  1  0  0  0  0
 14 15  2  0  0  0  0
 16 17  1  0  0  0  0
 16 18  1  0  0  0  0
 17 32  1  0  0  0  0
 17 33  1  0  0  0  0
 17 34  1  0  0  0  0
 18 35  1  0  0  0  0
 18 36  1  0  0  0  0
 18 37  1  0  0  0  0
M  END
> <s_m_source_file>
AV-unprocessed.smi

> <i_m_source_file_index>
754

> <i_lp_mmshare_version>
43012

> <i_f3d_flags>
0

> <s_epik_input>
W0NIM11bQ0gyXU9bQ0BASF0oQzEoW0NIM10pW0NIM10pW0NIMl1bQ0BIXTFbTkhdQyg9TylbQ0gyXW4yW2NIXW5ubjI=

> <s_epik_cmdline>
J2VwaWtfcHl0aG9uJywgJy1waCcsICc3LjAnLCAnLXRuJywgJzgnLCAnLW1hJywgJzIwMCcsICctbWV0YWxfYmluZGluZycsICctaW1hZScsICc8aW5maWxlLm1hZT4nLCAnLW9tYWUnLCAnPG91dGZpbGUubWFlPic=

> <r_lp_tautomer_probability>
1

> <r_epik_Ionization_Penalty>
8.28422e-07

> <r_epik_Ionization_Penalty_Charging>
0

> <r_epik_Ionization_Penalty_Neutral>
8.28422e-07

> <r_epik_State_Penalty>
-0

> <r_epik_Charging_Adjusted_Penalty>
0

> <i_epik_Tot_Q>
0

> <i_epik_Tot_abs_Q>
0

> <r_epik_Metal_State_Penalty>
-0

> <b_epik_Metal_Only>
0

> <s_lp_Force_Field>
OPLS_2005

> <r_lp_Energy>
21.5247

> <b_lp_Chiralities_Consistent>
1

> <s_lp_Variant>
AV-unprocessed.smi:754-4

> <Gold.Version>
5.8.1

> <Gold.Id.Protein>
6NUR|6NUR_protein|mol2

> <Gold.PLP.Fitness>
34.7043

> <Gold.PLP.PLP>
-28.0489

> <Gold.PLP.part.hbond>
-4.4692

> <Gold.PLP.part.metal>
0.0000

> <Gold.PLP.part.buried>
-5.3676

> <Gold.PLP.part.nonpolar>
-18.5401

> <Gold.PLP.part.repulsive>
0.3498

> <Gold.PLP.ligand.clash>
0.0000

> <Gold.PLP.ligand.torsion>
0.8980

> <Gold.PLP.Chemscore.Hbond>
2.7040

> <Gold.PLP.Chemscore.CHOScore>
0.0000

> <Gold.PLP.Chemscore.Metal>
0.0000

> <Gold.Chemscore.Hbonds>
donor molecule, donor type, donor heavy atom, donor atom, acceptor molecule, acceptor atom, score
      P1  H  6896  6907       L1    13  0.70
      P1  H  7989  7998       L1     9  1.00
      P1  H 10752 10764       L1    15  1.00

> <Gold.PLP.Chemscore.Internal.Correction>
0.3394

> <Gold.Rescore>
     Score         DG    S(hbond)    S(metal)    S(lipo)     H(rot)  DE(clash)    DE(int)     intcor
     12.66     -13.43       2.40        0.00      53.27       2.46       0.01       0.76       ----

> <Gold.Chemscore.Fitness>
12.6567

> <Gold.Chemscore.DG>
-13.4323

> <Gold.Chemscore.ZeroCoef>
-5.4800

> <Gold.Chemscore.Hbond>
2.4014

> <Gold.Chemscore.Metal>
0.0000

> <Gold.Chemscore.Lipo>
53.2749

> <Gold.Chemscore.Internal_Hbond>
0.0000

> <Gold.Chemscore.DEClash>
0.0126

> <Gold.Chemscore.DEInternal>
0.7630

> <Gold.Chemscore.Rot>
2.4616

> <Gold.Chemscore.Internal.Correction>
   9.000000E+99

> <Gold.Chemscore.Hbonds>
donor molecule, donor type, donor heavy atom, donor atom, acceptor molecule, acceptor atom, score
      P1  H  6896  6907       L1    13  0.20
      P1  H  7989  7998       L1     9  1.00
      P1  H 10752 10764       L1    15  0.82

> <Gold.Chemscore.Hbond.Weighted>
-8.0208

> <Gold.Chemscore.Metal.Weighted>
-0.0000

> <Gold.Chemscore.Lipo.Weighted>
-6.2332

> <Gold.Chemscore.Internal_Hbond.Weighted>
0.0000

> <Gold.Chemscore.DEClash.Weighted>
0.0126

> <Gold.Chemscore.DEInternal.Weighted>
0.7630

> <Gold.Chemscore.Rot.Weighted>
6.3016

> <Gold.Chemscore.Internal.Correction.Weighted>
   9.000000E+99

> <Gold.Protein.RotatedTorsions>
[ 6907 6896 6895 6894 ] final  -45.55 input  -60.11 | X-H torsion
[ 7974 7965 7964 7962 ] final  -15.91 input  175.53 | X-H torsion
[ 8008 7997 7996 7995 ] final -103.29 input   59.86 | X-H torsion
[ 10167 10162 10161 10158 ] final   83.49 input  -65.29 | X-H torsion
[ 10718 10713 10712 10709 ] final  123.75 input   66.30 | X-H torsion
[ 10763 10752 10751 10750 ] final  -37.93 input  -60.55 | X-H torsion
[ 11005 11000 10999 10996 ] final   96.37 input  -57.11 | X-H torsion

> <Gold.Protein.ActiveResidues>
 VAL166  LYS551  ARG553  GLY616  TRP617  ASP618  TYR619  PRO620  LYS621  CYS622 
 ASP623  PHE694  ASN695  SER759  ASP760  ASP761  ALA762  ILE779  LEU786  VAL792 
 PHE793  MET794  SER795  GLU796  ALA797  LYS798  CYS799  TRP800  GLU811  SER814 

> <Gold.Protein.RotatedAtoms>
  150.9208  134.8625  159.7486 H   0  0  0  0  0  0  0  0  0  0  0  0  # atno 6907 bound_to 6896
  152.4991  134.4222  159.9494 H   0  0  0  0  0  0  0  0  0  0  0  0  # atno 6908 bound_to 6896
  151.4256  133.3646  159.2797 H   0  0  0  0  0  0  0  0  0  0  0  0  # atno 6909 bound_to 6896
  146.2011  140.3561  142.8423 H   0  0  0  0  0  0  0  0  0  0  0  0  # atno 7974 bound_to 7965
  154.8689  140.0423  157.1712 H   0  0  0  0  0  0  0  0  0  0  0  0  # atno 8008 bound_to 7997
  154.8760  140.2965  155.5432 H   0  0  0  0  0  0  0  0  0  0  0  0  # atno 8009 bound_to 7997
  156.2999  140.2420  156.3756 H   0  0  0  0  0  0  0  0  0  0  0  0  # atno 8010 bound_to 7997
  139.9178  144.6232  150.8471 H   0  0  0  0  0  0  0  0  0  0  0  0  # atno 10167 bound_to 10162
  157.5640  131.1088  150.8488 H   0  0  0  0  0  0  0  0  0  0  0  0  # atno 10718 bound_to 10713
  153.9044  135.6799  153.4754 H   0  0  0  0  0  0  0  0  0  0  0  0  # atno 10763 bound_to 10752
  153.1112  135.4782  154.9035 H   0  0  0  0  0  0  0  0  0  0  0  0  # atno 10764 bound_to 10752
  154.7559  135.3197  154.8426 H   0  0  0  0  0  0  0  0  0  0  0  0  # atno 10765 bound_to 10752
  139.8782  134.8947  156.4148 H   0  0  0  0  0  0  0  0  0  0  0  0  # atno 11005 bound_to 11000
  144.8686  140.7240  143.6061 LP  0  0  0  0  0  0  0  0  0  0  0  0  # atno 17320 bound_to 7965
  145.3480  139.1714  143.4450 LP  0  0  0  0  0  0  0  0  0  0  0  0  # atno 17321 bound_to 7965
  140.7670  143.3319  151.2392 LP  0  0  0  0  0  0  0  0  0  0  0  0  # atno 17342 bound_to 10162
  139.6887  143.9729  152.2848 LP  0  0  0  0  0  0  0  0  0  0  0  0  # atno 17343 bound_to 10162
  156.8978  130.5236  149.5284 LP  0  0  0  0  0  0  0  0  0  0  0  0  # atno 17370 bound_to 10713
  156.0690  130.5727  150.9345 LP  0  0  0  0  0  0  0  0  0  0  0  0  # atno 17371 bound_to 10713
  140.9175  133.7668  155.9866 LP  0  0  0  0  0  0  0  0  0  0  0  0  # atno 17394 bound_to 11000
  140.8477  134.2991  157.5288 LP  0  0  0  0  0  0  0  0  0  0  0  0  # atno 17395 bound_to 11000

$$$$
