AV-unprocessed.smi:1831|AV-procd|sdf|7460|dock7
  -GOLD-   22720 9153D 1   1.00000     0.00000
 Structure written by MMmdl.
 40 41  0  0  0  0  0  0  0  0  3 V2000
  150.9505  142.2470  156.9585 C   0  0  0  0  0  0  0  0  0  0  0  0
  150.7684  140.8069  156.6217 C   0  0  0  0  0  0  0  0  0  0  0  0
  151.2152  140.2705  155.4837 N   0  0  0  0  0  0  0  0  0  0  0  0
  150.9302  138.9154  155.3970 N   0  0  0  0  0  0  0  0  0  0  0  0
  150.2804  138.4456  156.4708 C   0  0  0  0  0  0  0  0  0  0  0  0
  149.9123  137.1590  156.5855 N   0  5  0  0  0  0  0  0  0  0  0  0
  150.2984  136.2630  155.6511 C   0  0  0  0  0  0  0  0  0  0  0  0
  151.4160  136.1789  155.1377 O   0  0  0  0  0  0  0  0  0  0  0  0
  149.3415  135.3825  155.3245 N   0  0  0  0  0  0  0  0  0  0  0  0
  149.4909  134.2213  154.4475 C   0  0  0  0  0  0  0  0  0  0  0  0
  148.1770  133.4206  154.2604 C   0  0  2  0  0  0  0  0  0  0  0  0
  148.2442  132.3790  153.1335 C   0  0  0  0  0  0  0  0  0  0  0  0
  147.4401  132.9665  151.9634 C   0  0  0  0  0  0  0  0  0  0  0  0
  146.9632  134.3008  152.3928 N   0  3  1  0  0  0  0  0  0  0  0  0
  145.7030  134.7719  151.7556 C   0  0  0  0  0  0  0  0  0  0  0  0
  145.4850  136.2774  151.9975 C   0  0  0  0  0  0  0  0  0  0  0  0
  144.4848  133.9841  152.2722 C   0  0  0  0  0  0  0  0  0  0  0  0
  146.9717  134.2835  153.8704 C   0  0  0  0  0  0  0  0  0  0  0  0
  149.9492  139.6778  157.6876 S   0  0  0  0  0  0  0  0  0  0  0  0
  152.0091  142.4668  157.0977 H   0  0  0  0  0  0  0  0  0  0  0  0
  150.4185  142.4926  157.8777 H   0  0  0  0  0  0  0  0  0  0  0  0
  150.5635  142.8725  156.1539 H   0  0  0  0  0  0  0  0  0  0  0  0
  148.4382  135.5070  155.7579 H   0  0  0  0  0  0  0  0  0  0  0  0
  149.8251  134.5907  153.4777 H   0  0  0  0  0  0  0  0  0  0  0  0
  150.2867  133.5657  154.8042 H   0  0  0  0  0  0  0  0  0  0  0  0
  147.9659  132.9230  155.2078 H   0  0  0  0  0  0  0  0  0  0  0  0
  149.2701  132.1455  152.8461 H   0  0  0  0  0  0  0  0  0  0  0  0
  147.7856  131.4445  153.4595 H   0  0  0  0  0  0  0  0  0  0  0  0
  148.0481  133.0569  151.0626 H   0  0  0  0  0  0  0  0  0  0  0  0
  146.5961  132.3138  151.7361 H   0  0  0  0  0  0  0  0  0  0  0  0
  145.7829  134.6081  150.6799 H   0  0  0  0  0  0  0  0  0  0  0  0
  144.5411  136.6107  151.5653 H   0  0  0  0  0  0  0  0  0  0  0  0
  146.2706  136.8823  151.5450 H   0  0  0  0  0  0  0  0  0  0  0  0
  145.4595  136.5079  153.0629 H   0  0  0  0  0  0  0  0  0  0  0  0
  143.5583  134.3768  151.8521 H   0  0  0  0  0  0  0  0  0  0  0  0
  144.4060  134.0433  153.3584 H   0  0  0  0  0  0  0  0  0  0  0  0
  144.5336  132.9308  151.9967 H   0  0  0  0  0  0  0  0  0  0  0  0
  146.0541  133.8123  154.2268 H   0  0  0  0  0  0  0  0  0  0  0  0
  147.0189  135.2833  154.3018 H   0  0  0  0  0  0  0  0  0  0  0  0
  147.6906  134.9511  152.1268 H   0  0  0  0  0  0  0  0  0  0  0  0
  1  2  1  0  0  0  0
  1 20  1  0  0  0  0
  1 21  1  0  0  0  0
  1 22  1  0  0  0  0
  2 19  1  0  0  0  0
  2  3  2  0  0  0  0
  3  4  1  0  0  0  0
  4  5  2  0  0  0  0
  5  6  1  0  0  0  0
  5 19  1  0  0  0  0
  6  7  1  0  0  0  0
  7  8  2  0  0  0  0
  7  9  1  0  0  0  0
  9 10  1  0  0  0  0
  9 23  1  0  0  0  0
 10 11  1  0  0  0  0
 10 24  1  0  0  0  0
 10 25  1  0  0  0  0
 11 18  1  0  0  0  0
 11 12  1  0  0  0  0
 11 26  1  0  0  0  0
 12 13  1  0  0  0  0
 12 27  1  0  0  0  0
 12 28  1  0  0  0  0
 13 14  1  0  0  0  0
 13 29  1  0  0  0  0
 13 30  1  0  0  0  0
 14 15  1  0  0  0  0
 14 18  1  0  0  0  0
 14 40  1  0  0  0  0
 15 16  1  0  0  0  0
 15 17  1  0  0  0  0
 15 31  1  0  0  0  0
 16 32  1  0  0  0  0
 16 33  1  0  0  0  0
 16 34  1  0  0  0  0
 17 35  1  0  0  0  0
 17 36  1  0  0  0  0
 17 37  1  0  0  0  0
 18 38  1  0  0  0  0
 18 39  1  0  0  0  0
M  CHG  1   6  -1
M  CHG  1  14   1
M  END
> <s_m_source_file>
AV-unprocessed.smi

> <i_m_source_file_index>
1831

> <i_lp_mmshare_version>
43012

> <i_f3d_flags>
0

> <s_epik_input>
W0NIM11jMW5uYyhzMSlbTkhdQyg9TylbTkhdW0NIMl1bQ0BASF0yW0NIMl1bQ0gyXU4oW0NIMl0yKVtDSF0oW0NIM10pW0NIM10=

> <s_epik_cmdline>
J2VwaWtfcHl0aG9uJywgJy1waCcsICc3LjAnLCAnLXRuJywgJzgnLCAnLW1hJywgJzIwMCcsICctbWV0YWxfYmluZGluZycsICctaW1hZScsICc8aW5maWxlLm1hZT4nLCAnLW9tYWUnLCAnPG91dGZpbGUubWFlPic=

> <r_lp_tautomer_probability>
1

> <r_epik_Ionization_Penalty>
4.24531

> <r_epik_Ionization_Penalty_Charging>
4.11954

> <r_epik_Ionization_Penalty_Neutral>
0.125766

> <r_epik_State_Penalty>
4.11879

> <r_epik_Charging_Adjusted_Penalty>
8.23833

> <i_epik_Tot_Q>
0

> <i_epik_Tot_abs_Q>
2

> <r_epik_Metal_State_Penalty>
0.659341

> <b_epik_Metal_Only>
1

> <s_lp_Force_Field>
OPLS_2005

> <r_lp_Energy>
22.0545

> <b_lp_Chiralities_Consistent>
1

> <s_lp_Variant>
AV-unprocessed.smi:1831-5

> <Gold.Version>
5.8.1

> <Gold.Id.Protein>
6NUR|6NUR_protein|mol2

> <Gold.PLP.Fitness>
38.0562

> <Gold.PLP.PLP>
-27.0399

> <Gold.PLP.part.hbond>
-3.0000

> <Gold.PLP.part.metal>
0.0000

> <Gold.PLP.part.buried>
-3.7761

> <Gold.PLP.part.nonpolar>
-21.0233

> <Gold.PLP.part.repulsive>
0.2387

> <Gold.PLP.ligand.clash>
0.0000

> <Gold.PLP.ligand.torsion>
0.5037

> <Gold.PLP.Chemscore.Hbond>
3.9920

> <Gold.PLP.Chemscore.CHOScore>
0.0000

> <Gold.PLP.Chemscore.Metal>
0.0000

> <Gold.Chemscore.Hbonds>
donor molecule, donor type, donor heavy atom, donor atom, acceptor molecule, acceptor atom, score
      L1  H    14    40       P1  7948  2.00
      P1  H  7989  7998       L1     3  0.80
      P1  H 10752 10763       L1     8  1.00

> <Gold.PLP.Chemscore.Internal.Correction>
0.0477

> <Gold.Rescore>
     Score         DG    S(hbond)    S(metal)    S(lipo)     H(rot)  DE(clash)    DE(int)     intcor
     15.87     -17.71       2.78        0.00      58.39       1.51       0.03       1.81       ----

> <Gold.Chemscore.Fitness>
15.8737

> <Gold.Chemscore.DG>
-17.7120

> <Gold.Chemscore.ZeroCoef>
-5.4800

> <Gold.Chemscore.Hbond>
2.7765

> <Gold.Chemscore.Metal>
0.0000

> <Gold.Chemscore.Lipo>
58.3919

> <Gold.Chemscore.Internal_Hbond>
0.0000

> <Gold.Chemscore.DEClash>
0.0292

> <Gold.Chemscore.DEInternal>
1.8091

> <Gold.Chemscore.Rot>
1.5131

> <Gold.Chemscore.Internal.Correction>
   9.000000E+99

> <Gold.Chemscore.Hbonds>
donor molecule, donor type, donor heavy atom, donor atom, acceptor molecule, acceptor atom, score
      L1  H    14    40       P1  7948  0.85
      P1  H  7989  7998       L1     3  0.41
      P1  H 10752 10763       L1     8  1.00

> <Gold.Chemscore.Hbond.Weighted>
-9.2736

> <Gold.Chemscore.Metal.Weighted>
-0.0000

> <Gold.Chemscore.Lipo.Weighted>
-6.8318

> <Gold.Chemscore.Internal_Hbond.Weighted>
0.0000

> <Gold.Chemscore.DEClash.Weighted>
0.0292

> <Gold.Chemscore.DEInternal.Weighted>
1.8091

> <Gold.Chemscore.Rot.Weighted>
3.8735

> <Gold.Chemscore.Internal.Correction.Weighted>
   9.000000E+99

> <Gold.Protein.RotatedTorsions>
[ 6907 6896 6895 6894 ] final  147.03 input  -60.11 | X-H torsion
[ 7974 7965 7964 7962 ] final -112.04 input  175.53 | X-H torsion
[ 8008 7997 7996 7995 ] final  112.51 input   59.86 | X-H torsion
[ 10167 10162 10161 10158 ] final -151.72 input  -65.29 | X-H torsion
[ 10718 10713 10712 10709 ] final -116.45 input   66.30 | X-H torsion
[ 10763 10752 10751 10750 ] final   60.47 input  -60.55 | X-H torsion
[ 11005 11000 10999 10996 ] final  -36.87 input  -57.11 | X-H torsion

> <Gold.Protein.ActiveResidues>
 VAL166  LYS551  ARG553  GLY616  TRP617  ASP618  TYR619  PRO620  LYS621  CYS622 
 ASP623  PHE694  ASN695  SER759  ASP760  ASP761  ALA762  ILE779  LEU786  VAL792 
 PHE793  MET794  SER795  GLU796  ALA797  LYS798  CYS799  TRP800  GLU811  SER814 

> <Gold.Protein.RotatedAtoms>
  152.1602  133.4577  159.4856 H   0  0  0  0  0  0  0  0  0  0  0  0  # atno 6907 bound_to 6896
  150.6906  134.2081  159.4357 H   0  0  0  0  0  0  0  0  0  0  0  0  # atno 6908 bound_to 6896
  151.9983  134.9942  160.0615 H   0  0  0  0  0  0  0  0  0  0  0  0  # atno 6909 bound_to 6896
  145.1488  140.8818  143.3659 H   0  0  0  0  0  0  0  0  0  0  0  0  # atno 7974 bound_to 7965
  156.2197  140.2998  155.9923 H   0  0  0  0  0  0  0  0  0  0  0  0  # atno 8008 bound_to 7997
  155.2514  140.0426  157.3004 H   0  0  0  0  0  0  0  0  0  0  0  0  # atno 8009 bound_to 7997
  154.5821  140.2378  155.8046 H   0  0  0  0  0  0  0  0  0  0  0  0  # atno 8010 bound_to 7997
  139.7243  143.8907  152.2514 H   0  0  0  0  0  0  0  0  0  0  0  0  # atno 10167 bound_to 10162
  156.0964  130.6136  150.9037 H   0  0  0  0  0  0  0  0  0  0  0  0  # atno 10718 bound_to 10713
  152.9922  135.5535  154.5878 H   0  0  0  0  0  0  0  0  0  0  0  0  # atno 10763 bound_to 10752
  154.5246  135.2810  155.1235 H   0  0  0  0  0  0  0  0  0  0  0  0  # atno 10764 bound_to 10752
  154.2574  135.6387  153.5315 H   0  0  0  0  0  0  0  0  0  0  0  0  # atno 10765 bound_to 10752
  140.9908  133.7006  156.1847 H   0  0  0  0  0  0  0  0  0  0  0  0  # atno 11005 bound_to 11000
  145.0453  139.3226  143.5956 LP  0  0  0  0  0  0  0  0  0  0  0  0  # atno 17320 bound_to 7965
  146.3497  139.9842  142.8692 LP  0  0  0  0  0  0  0  0  0  0  0  0  # atno 17321 bound_to 7965
  139.8812  144.7016  150.8875 LP  0  0  0  0  0  0  0  0  0  0  0  0  # atno 17342 bound_to 10162
  140.7760  143.3659  151.1739 LP  0  0  0  0  0  0  0  0  0  0  0  0  # atno 17343 bound_to 10162
  157.6126  131.0935  150.8767 LP  0  0  0  0  0  0  0  0  0  0  0  0  # atno 17370 bound_to 10713
  156.8904  130.5211  149.5286 LP  0  0  0  0  0  0  0  0  0  0  0  0  # atno 17371 bound_to 10713
  140.7042  134.4531  157.5585 LP  0  0  0  0  0  0  0  0  0  0  0  0  # atno 17394 bound_to 11000
  139.8991  134.8597  156.1972 LP  0  0  0  0  0  0  0  0  0  0  0  0  # atno 17395 bound_to 11000

$$$$
