AV-unprocessed.smi:2474|AV-procd|sdf|9751|dock5
  -GOLD-   2272013393D 1   1.00000     0.00000
 Structure written by MMmdl.
 40 41  0  0  0  0  0  0  0  0  1 V2000
  151.6466  136.6916  156.3043 C   0  0  0  0  0  0  0  0  0  0  0  0
  150.9434  137.7054  155.4677 C   0  0  0  0  0  0  0  0  0  0  0  0
  151.4675  138.8466  154.9129 C   0  0  0  0  0  0  0  0  0  0  0  0
  150.5392  139.6023  154.1940 N   0  0  0  0  0  0  0  0  0  0  0  0
  149.3215  139.0524  154.1934 C   0  0  0  0  0  0  0  0  0  0  0  0
  148.1182  139.6917  153.5660 C   0  0  2  0  0  0  0  0  0  0  0  0
  147.9038  141.1291  154.0615 C   0  0  0  0  0  0  0  0  0  0  0  0
  146.8439  138.8223  153.6668 C   0  0  0  0  0  0  0  0  0  0  0  0
  146.9495  137.6031  152.8675 N   0  0  0  0  0  0  0  0  0  0  0  0
  145.9917  136.6736  152.7415 C   0  0  0  0  0  0  0  0  0  0  0  0
  144.8492  136.7913  153.1841 O   0  0  0  0  0  0  0  0  0  0  0  0
  146.4487  135.5727  152.1297 N   0  0  0  0  0  0  0  0  0  0  0  0
  145.7076  134.3222  151.9980 C   0  0  2  0  0  0  0  0  0  0  0  0
  146.6865  133.1550  151.7436 C   0  0  0  0  0  0  0  0  0  0  0  0
  145.9763  131.7966  151.6404 C   0  0  0  0  0  0  0  0  0  0  0  0
  144.9665  131.7511  150.4853 C   0  0  0  0  0  0  0  0  0  0  0  0
  143.6475  132.9735  150.7177 S   0  0  0  0  0  0  0  0  0  0  0  0
  144.6769  134.4599  150.8643 C   0  0  0  0  0  0  0  0  0  0  0  0
  149.2507  137.5354  155.0850 S   0  0  0  0  0  0  0  0  0  0  0  0
  152.6879  136.9706  156.4669 H   0  0  0  0  0  0  0  0  0  0  0  0
  151.6311  135.7141  155.8219 H   0  0  0  0  0  0  0  0  0  0  0  0
  151.1683  136.5968  157.2795 H   0  0  0  0  0  0  0  0  0  0  0  0
  152.4847  139.2016  154.9864 H   0  0  0  0  0  0  0  0  0  0  0  0
  148.3460  139.7756  152.5025 H   0  0  0  0  0  0  0  0  0  0  0  0
  148.7894  141.7406  153.8869 H   0  0  0  0  0  0  0  0  0  0  0  0
  147.6877  141.1522  155.1301 H   0  0  0  0  0  0  0  0  0  0  0  0
  147.0686  141.6017  153.5442 H   0  0  0  0  0  0  0  0  0  0  0  0
  146.6340  138.5808  154.7103 H   0  0  0  0  0  0  0  0  0  0  0  0
  145.9825  139.3856  153.3072 H   0  0  0  0  0  0  0  0  0  0  0  0
  147.8515  137.4093  152.4577 H   0  0  0  0  0  0  0  0  0  0  0  0
  147.4027  135.5726  151.8001 H   0  0  0  0  0  0  0  0  0  0  0  0
  145.1660  134.1376  152.9279 H   0  0  0  0  0  0  0  0  0  0  0  0
  147.2564  133.3394  150.8320 H   0  0  0  0  0  0  0  0  0  0  0  0
  147.4177  133.1034  152.5515 H   0  0  0  0  0  0  0  0  0  0  0  0
  146.7218  131.0137  151.4975 H   0  0  0  0  0  0  0  0  0  0  0  0
  145.4729  131.5707  152.5811 H   0  0  0  0  0  0  0  0  0  0  0  0
  145.4661  131.9426  149.5350 H   0  0  0  0  0  0  0  0  0  0  0  0
  144.5164  130.7607  150.4165 H   0  0  0  0  0  0  0  0  0  0  0  0
  144.0212  135.3119  151.0468 H   0  0  0  0  0  0  0  0  0  0  0  0
  145.1759  134.6383  149.9109 H   0  0  0  0  0  0  0  0  0  0  0  0
  1  2  1  0  0  0  0
  1 20  1  0  0  0  0
  1 21  1  0  0  0  0
  1 22  1  0  0  0  0
  2 19  1  0  0  0  0
  2  3  2  0  0  0  0
  3  4  1  0  0  0  0
  3 23  1  0  0  0  0
  4  5  2  0  0  0  0
  5  6  1  0  0  0  0
  5 19  1  0  0  0  0
  6  7  1  0  0  0  0
  6  8  1  0  0  0  0
  6 24  1  0  0  0  0
  7 25  1  0  0  0  0
  7 26  1  0  0  0  0
  7 27  1  0  0  0  0
  8  9  1  0  0  0  0
  8 28  1  0  0  0  0
  8 29  1  0  0  0  0
  9 10  1  0  0  0  0
  9 30  1  0  0  0  0
 10 11  2  0  0  0  0
 10 12  1  0  0  0  0
 12 13  1  0  0  0  0
 12 31  1  0  0  0  0
 13 18  1  0  0  0  0
 13 14  1  0  0  0  0
 13 32  1  0  0  0  0
 14 15  1  0  0  0  0
 14 33  1  0  0  0  0
 14 34  1  0  0  0  0
 15 16  1  0  0  0  0
 15 35  1  0  0  0  0
 15 36  1  0  0  0  0
 16 17  1  0  0  0  0
 16 37  1  0  0  0  0
 16 38  1  0  0  0  0
 17 18  1  0  0  0  0
 18 39  1  0  0  0  0
 18 40  1  0  0  0  0
M  END
> <s_m_source_file>
AV-unprocessed.smi

> <i_m_source_file_index>
2474

> <i_lp_mmshare_version>
43012

> <i_f3d_flags>
0

> <s_epik_input>
W0NIM11jMVtjSF1uYyhzMSlbQ0BIXShbQ0gzXSlbQ0gyXVtOSF1DKD1PKVtOSF1bQ0BASF0yW0NIMl1bQ0gyXVtDSDJdU1tDSDJdMg==

> <s_epik_cmdline>
J2VwaWtfcHl0aG9uJywgJy1waCcsICc3LjAnLCAnLXRuJywgJzgnLCAnLW1hJywgJzIwMCcsICctbWV0YWxfYmluZGluZycsICctaW1hZScsICc8aW5maWxlLm1hZT4nLCAnLW9tYWUnLCAnPG91dGZpbGUubWFlPic=

> <r_epik_Ionization_Penalty>
0.000644338

> <r_epik_Ionization_Penalty_Charging>
0

> <r_epik_Ionization_Penalty_Neutral>
0.000644338

> <r_epik_State_Penalty>
0.000374131

> <r_epik_Charging_Adjusted_Penalty>
0.000374131

> <i_epik_Tot_Q>
0

> <i_epik_Tot_abs_Q>
0

> <r_epik_Metal_State_Penalty>
-0

> <b_epik_Metal_Only>
0

> <s_lp_Force_Field>
OPLS_2005

> <r_lp_Energy>
-6.83814

> <b_lp_Chiralities_Consistent>
1

> <s_lp_Variant>
AV-unprocessed.smi:2474-1

> <Gold.Version>
5.8.1

> <Gold.Id.Protein>
6NUR|6NUR_protein|mol2

> <Gold.PLP.Fitness>
39.8030

> <Gold.PLP.PLP>
-31.5547

> <Gold.PLP.part.hbond>
-3.0000

> <Gold.PLP.part.metal>
0.0000

> <Gold.PLP.part.buried>
-1.9049

> <Gold.PLP.part.nonpolar>
-27.8056

> <Gold.PLP.part.repulsive>
0.3916

> <Gold.PLP.ligand.clash>
0.0000

> <Gold.PLP.ligand.torsion>
0.4047

> <Gold.PLP.Chemscore.Hbond>
2.9760

> <Gold.PLP.Chemscore.CHOScore>
0.0000

> <Gold.PLP.Chemscore.Metal>
0.0000

> <Gold.Chemscore.Hbonds>
donor molecule, donor type, donor heavy atom, donor atom, acceptor molecule, acceptor atom, score
      L1  H     9    30       P1  7948  0.98
      L1  H    12    31       P1  7948  1.00
      P1  H  7989  7998       L1     4  1.00

> <Gold.PLP.Chemscore.Internal.Correction>
0.1297

> <Gold.Rescore>
     Score         DG    S(hbond)    S(metal)    S(lipo)     H(rot)  DE(clash)    DE(int)     intcor
     19.59     -20.55       2.73        0.00      82.83       1.46       0.55       0.41       ----

> <Gold.Chemscore.Fitness>
19.5860

> <Gold.Chemscore.DG>
-20.5484

> <Gold.Chemscore.ZeroCoef>
-5.4800

> <Gold.Chemscore.Hbond>
2.7301

> <Gold.Chemscore.Metal>
0.0000

> <Gold.Chemscore.Lipo>
82.8344

> <Gold.Chemscore.Internal_Hbond>
0.0000

> <Gold.Chemscore.DEClash>
0.5526

> <Gold.Chemscore.DEInternal>
0.4098

> <Gold.Chemscore.Rot>
1.4616

> <Gold.Chemscore.Internal.Correction>
   9.000000E+99

> <Gold.Chemscore.Hbonds>
donor molecule, donor type, donor heavy atom, donor atom, acceptor molecule, acceptor atom, score
      L1  H     9    30       P1  7948  0.93
      L1  H    12    31       P1  7948  0.95
      P1  H  7989  7998       L1     4  0.26

> <Gold.Chemscore.Hbond.Weighted>
-9.1184

> <Gold.Chemscore.Metal.Weighted>
-0.0000

> <Gold.Chemscore.Lipo.Weighted>
-9.6916

> <Gold.Chemscore.Internal_Hbond.Weighted>
0.0000

> <Gold.Chemscore.DEClash.Weighted>
0.5526

> <Gold.Chemscore.DEInternal.Weighted>
0.4098

> <Gold.Chemscore.Rot.Weighted>
3.7416

> <Gold.Chemscore.Internal.Correction.Weighted>
   9.000000E+99

> <Gold.Protein.RotatedTorsions>
[ 6907 6896 6895 6894 ] final   57.51 input  -60.11 | X-H torsion
[ 7974 7965 7964 7962 ] final   11.32 input  175.53 | X-H torsion
[ 8008 7997 7996 7995 ] final -123.71 input   59.86 | X-H torsion
[ 10167 10162 10161 10158 ] final  169.20 input  -65.29 | X-H torsion
[ 10718 10713 10712 10709 ] final -107.18 input   66.30 | X-H torsion
[ 10763 10752 10751 10750 ] final  124.42 input  -60.55 | X-H torsion
[ 11005 11000 10999 10996 ] final -125.37 input  -57.11 | X-H torsion

> <Gold.Protein.ActiveResidues>
 VAL166  LYS551  ARG553  GLY616  TRP617  ASP618  TYR619  PRO620  LYS621  CYS622 
 ASP623  PHE694  ASN695  SER759  ASP760  ASP761  ALA762  ILE779  LEU786  VAL792 
 PHE793  MET794  SER795  GLU796  ALA797  LYS798  CYS799  TRP800  GLU811  SER814 

> <Gold.Protein.RotatedAtoms>
  152.3738  134.6694  160.0166 H   0  0  0  0  0  0  0  0  0  0  0  0  # atno 6907 bound_to 6896
  151.6979  133.3305  159.3267 H   0  0  0  0  0  0  0  0  0  0  0  0  # atno 6908 bound_to 6896
  150.7694  134.6577  159.6367 H   0  0  0  0  0  0  0  0  0  0  0  0  # atno 6909 bound_to 6896
  146.2373  139.9502  142.8471 H   0  0  0  0  0  0  0  0  0  0  0  0  # atno 7974 bound_to 7965
  155.1851  140.0411  157.2889 H   0  0  0  0  0  0  0  0  0  0  0  0  # atno 8008 bound_to 7997
  154.6177  140.2493  155.7561 H   0  0  0  0  0  0  0  0  0  0  0  0  # atno 8009 bound_to 7997
  156.2416  140.2901  156.0470 H   0  0  0  0  0  0  0  0  0  0  0  0  # atno 8010 bound_to 7997
  139.4986  144.3731  151.9703 H   0  0  0  0  0  0  0  0  0  0  0  0  # atno 10167 bound_to 10162
  156.0424  130.5649  150.7785 H   0  0  0  0  0  0  0  0  0  0  0  0  # atno 10718 bound_to 10713
  153.6611  135.3346  155.3127 H   0  0  0  0  0  0  0  0  0  0  0  0  # atno 10763 bound_to 10752
  154.8514  135.4364  154.1803 H   0  0  0  0  0  0  0  0  0  0  0  0  # atno 10764 bound_to 10752
  153.2770  135.7005  153.7498 H   0  0  0  0  0  0  0  0  0  0  0  0  # atno 10765 bound_to 10752
  140.9767  134.0730  157.3810 H   0  0  0  0  0  0  0  0  0  0  0  0  # atno 11005 bound_to 11000
  145.1869  140.9793  143.4234 LP  0  0  0  0  0  0  0  0  0  0  0  0  # atno 17320 bound_to 7965
  144.9892  139.3706  143.6223 LP  0  0  0  0  0  0  0  0  0  0  0  0  # atno 17321 bound_to 7965
  140.3167  144.3475  150.6020 LP  0  0  0  0  0  0  0  0  0  0  0  0  # atno 17342 bound_to 10162
  140.5755  143.2177  151.7523 LP  0  0  0  0  0  0  0  0  0  0  0  0  # atno 17343 bound_to 10162
  157.5259  131.0934  151.0018 LP  0  0  0  0  0  0  0  0  0  0  0  0  # atno 17370 bound_to 10713
  157.0337  130.5721  149.5346 LP  0  0  0  0  0  0  0  0  0  0  0  0  # atno 17371 bound_to 10713
  139.8933  135.0130  156.6893 LP  0  0  0  0  0  0  0  0  0  0  0  0  # atno 17394 bound_to 11000
  140.7248  133.9109  155.8171 LP  0  0  0  0  0  0  0  0  0  0  0  0  # atno 17395 bound_to 11000

$$$$
