AV-unprocessed.smi:2518|AV-procd|sdf|9901|dock6
  -GOLD-   2272013543D 1   1.00000     0.00000
 Structure written by MMmdl.
 41 43  0  0  0  0  0  0  0  0  1 V2000
  151.9264  145.2018  158.3658 C   0  0  0  0  0  0  0  0  0  0  0  0
  151.8911  143.7014  158.5704 C   0  0  0  0  0  0  0  0  0  0  0  0
  152.5914  143.1081  159.6395 C   0  0  0  0  0  0  0  0  0  0  0  0
  152.5531  141.7122  159.8200 C   0  0  0  0  0  0  0  0  0  0  0  0
  151.8203  140.8890  158.9406 C   0  0  0  0  0  0  0  0  0  0  0  0
  151.8406  139.5337  159.1902 O   0  0  0  0  0  0  0  0  0  0  0  0
  150.8800  138.7133  158.5377 C   0  0  0  0  0  0  0  0  0  0  0  0
  150.4898  137.5642  159.4800 C   0  0  2  0  0  0  0  0  0  0  0  0
  151.5721  136.6553  159.5440 O   0  0  0  0  0  0  0  0  0  0  0  0
  149.2298  136.8228  158.9903 C   0  0  0  0  0  0  0  0  0  0  0  0
  148.4315  136.2936  160.0861 N   0  0  0  0  0  0  0  0  0  0  0  0
  147.8380  137.1535  160.9539 N   0  0  0  0  0  0  0  0  0  0  0  0
  147.1983  136.3917  161.8386 C   0  0  0  0  0  0  0  0  0  0  0  0
  147.3635  135.0061  161.5663 C   0  0  0  0  0  0  0  0  0  0  0  0
  146.9061  133.7689  162.1894 C   0  0  0  0  0  0  0  0  0  0  0  0
  147.2681  132.6441  161.6572 N   0  0  0  0  0  0  0  0  0  0  0  0
  148.0757  132.6026  160.5151 N   0  0  0  0  0  0  0  0  0  0  0  0
  148.3800  131.2447  160.0652 C   0  0  0  0  0  0  0  0  0  0  0  0
  148.5479  133.7026  159.8505 C   0  0  0  0  0  0  0  0  0  0  0  0
  149.2468  133.6551  158.8383 O   0  0  0  0  0  0  0  0  0  0  0  0
  148.1425  134.9945  160.4566 C   0  0  0  0  0  0  0  0  0  0  0  0
  151.1160  141.4928  157.8684 C   0  0  0  0  0  0  0  0  0  0  0  0
  151.1540  142.8891  157.6865 C   0  0  0  0  0  0  0  0  0  0  0  0
  152.5140  145.6959  159.1403 H   0  0  0  0  0  0  0  0  0  0  0  0
  150.9161  145.6106  158.3925 H   0  0  0  0  0  0  0  0  0  0  0  0
  152.3683  145.4404  157.3982 H   0  0  0  0  0  0  0  0  0  0  0  0
  153.1607  143.7191  160.3245 H   0  0  0  0  0  0  0  0  0  0  0  0
  153.0946  141.2675  160.6420 H   0  0  0  0  0  0  0  0  0  0  0  0
  149.9987  139.3204  158.3234 H   0  0  0  0  0  0  0  0  0  0  0  0
  151.2571  138.3241  157.5899 H   0  0  0  0  0  0  0  0  0  0  0  0
  150.3010  137.9587  160.4793 H   0  0  0  0  0  0  0  0  0  0  0  0
  152.3013  137.0896  159.9599 H   0  0  0  0  0  0  0  0  0  0  0  0
  148.6020  137.5030  158.4128 H   0  0  0  0  0  0  0  0  0  0  0  0
  149.4952  136.0129  158.3117 H   0  0  0  0  0  0  0  0  0  0  0  0
  146.6460  136.8643  162.6373 H   0  0  0  0  0  0  0  0  0  0  0  0
  146.2772  133.7966  163.0791 H   0  0  0  0  0  0  0  0  0  0  0  0
  149.0792  131.2037  159.2293 H   0  0  0  0  0  0  0  0  0  0  0  0
  147.4645  130.7406  159.7537 H   0  0  0  0  0  0  0  0  0  0  0  0
  148.8184  130.6685  160.8810 H   0  0  0  0  0  0  0  0  0  0  0  0
  150.5376  140.9069  157.1705 H   0  0  0  0  0  0  0  0  0  0  0  0
  150.6142  143.3360  156.8644 H   0  0  0  0  0  0  0  0  0  0  0  0
  1  2  1  0  0  0  0
  1 24  1  0  0  0  0
  1 25  1  0  0  0  0
  1 26  1  0  0  0  0
  2 23  1  0  0  0  0
  2  3  2  0  0  0  0
  3  4  1  0  0  0  0
  3 27  1  0  0  0  0
  4  5  2  0  0  0  0
  4 28  1  0  0  0  0
  5  6  1  0  0  0  0
  5 22  1  0  0  0  0
  6  7  1  0  0  0  0
  7  8  1  0  0  0  0
  7 29  1  0  0  0  0
  7 30  1  0  0  0  0
  8  9  1  0  0  0  0
  8 10  1  0  0  0  0
  8 31  1  0  0  0  0
  9 32  1  0  0  0  0
 10 11  1  0  0  0  0
 10 33  1  0  0  0  0
 10 34  1  0  0  0  0
 11 21  1  0  0  0  0
 11 12  1  0  0  0  0
 12 13  2  0  0  0  0
 13 14  1  0  0  0  0
 13 35  1  0  0  0  0
 14 21  2  0  0  0  0
 14 15  1  0  0  0  0
 15 16  2  0  0  0  0
 15 36  1  0  0  0  0
 16 17  1  0  0  0  0
 17 18  1  0  0  0  0
 17 19  1  0  0  0  0
 18 37  1  0  0  0  0
 18 38  1  0  0  0  0
 18 39  1  0  0  0  0
 19 20  2  0  0  0  0
 19 21  1  0  0  0  0
 22 23  2  0  0  0  0
 22 40  1  0  0  0  0
 23 41  1  0  0  0  0
M  END
> <s_m_source_file>
AV-unprocessed.smi

> <i_m_source_file_index>
2518

> <i_lp_mmshare_version>
43012

> <i_f3d_flags>
0

> <s_epik_input>
W0NIM11jMVtjSF1bY0hdYyhbY0hdW2NIXTEpT1tDSDJdW0NASF0oW09IXSlbQ0gyXW4obltjSF0yKWMoYzIzKWMoPU8pbihbQ0gzXSluW2NIXTM=

> <s_epik_cmdline>
J2VwaWtfcHl0aG9uJywgJy1waCcsICc3LjAnLCAnLXRuJywgJzgnLCAnLW1hJywgJzIwMCcsICctbWV0YWxfYmluZGluZycsICctaW1hZScsICc8aW5maWxlLm1hZT4nLCAnLW9tYWUnLCAnPG91dGZpbGUubWFlPic=

> <r_lp_tautomer_probability>
1

> <r_epik_Ionization_Penalty>
2.246e-06

> <r_epik_Ionization_Penalty_Charging>
1.41975e-10

> <r_epik_Ionization_Penalty_Neutral>
2.24586e-06

> <r_epik_State_Penalty>
-0

> <r_epik_Charging_Adjusted_Penalty>
1.41975e-10

> <i_epik_Tot_Q>
0

> <i_epik_Tot_abs_Q>
0

> <r_epik_Metal_State_Penalty>
-0

> <b_epik_Metal_Only>
0

> <s_lp_Force_Field>
OPLS_2005

> <r_lp_Energy>
32.1328

> <b_lp_Chiralities_Consistent>
1

> <s_lp_Variant>
AV-unprocessed.smi:2518-1

> <Gold.Version>
5.8.1

> <Gold.Id.Protein>
6NUR|6NUR_protein|mol2

> <Gold.PLP.Fitness>
55.8045

> <Gold.PLP.PLP>
-46.7669

> <Gold.PLP.part.hbond>
-3.9005

> <Gold.PLP.part.metal>
0.0000

> <Gold.PLP.part.buried>
-4.5080

> <Gold.PLP.part.nonpolar>
-37.9561

> <Gold.PLP.part.repulsive>
0.0000

> <Gold.PLP.ligand.clash>
0.0000

> <Gold.PLP.ligand.torsion>
0.9239

> <Gold.PLP.Chemscore.Hbond>
3.6160

> <Gold.PLP.Chemscore.CHOScore>
0.0000

> <Gold.PLP.Chemscore.Metal>
0.0000

> <Gold.Chemscore.Hbonds>
donor molecule, donor type, donor heavy atom, donor atom, acceptor molecule, acceptor atom, score
      P1  H  6896  6907       L1    20  0.91
      P1  H  6896  6908       L1     9  1.00
      P1  H  6931  6943       L1    12  0.91
      P1  H  6934  6947       L1    12  0.83

> <Gold.PLP.Chemscore.Internal.Correction>
0.0372

> <Gold.Rescore>
     Score         DG    S(hbond)    S(metal)    S(lipo)     H(rot)  DE(clash)    DE(int)     intcor
     21.49     -23.07       2.73        0.00     123.81       2.35       0.69       0.90       ----

> <Gold.Chemscore.Fitness>
21.4867

> <Gold.Chemscore.DG>
-23.0702

> <Gold.Chemscore.ZeroCoef>
-5.4800

> <Gold.Chemscore.Hbond>
2.7301

> <Gold.Chemscore.Metal>
0.0000

> <Gold.Chemscore.Lipo>
123.8064

> <Gold.Chemscore.Internal_Hbond>
0.0000

> <Gold.Chemscore.DEClash>
0.6870

> <Gold.Chemscore.DEInternal>
0.8965

> <Gold.Chemscore.Rot>
2.3490

> <Gold.Chemscore.Internal.Correction>
   9.000000E+99

> <Gold.Chemscore.Hbonds>
donor molecule, donor type, donor heavy atom, donor atom, acceptor molecule, acceptor atom, score
      P1  H  6896  6907       L1    20  0.61
      P1  H  6896  6908       L1     9  0.74
      P1  H  6931  6943       L1    12  0.53
      P1  H  6934  6947       L1    12  0.68

> <Gold.Chemscore.Hbond.Weighted>
-9.1184

> <Gold.Chemscore.Metal.Weighted>
-0.0000

> <Gold.Chemscore.Lipo.Weighted>
-14.4853

> <Gold.Chemscore.Internal_Hbond.Weighted>
0.0000

> <Gold.Chemscore.DEClash.Weighted>
0.6870

> <Gold.Chemscore.DEInternal.Weighted>
0.8965

> <Gold.Chemscore.Rot.Weighted>
6.0136

> <Gold.Chemscore.Internal.Correction.Weighted>
   9.000000E+99

> <Gold.Protein.RotatedTorsions>
[ 6907 6896 6895 6894 ] final -125.22 input  -60.11 | X-H torsion
[ 7974 7965 7964 7962 ] final  -98.16 input  175.53 | X-H torsion
[ 8008 7997 7996 7995 ] final  -11.27 input   59.86 | X-H torsion
[ 10167 10162 10161 10158 ] final  -92.46 input  -65.29 | X-H torsion
[ 10718 10713 10712 10709 ] final  -19.88 input   66.30 | X-H torsion
[ 10763 10752 10751 10750 ] final   70.79 input  -60.55 | X-H torsion
[ 11005 11000 10999 10996 ] final   19.64 input  -57.11 | X-H torsion

> <Gold.Protein.ActiveResidues>
 VAL166  LYS551  ARG553  GLY616  TRP617  ASP618  TYR619  PRO620  LYS621  CYS622 
 ASP623  PHE694  ASN695  SER759  ASP760  ASP761  ALA762  ILE779  LEU786  VAL792 
 PHE793  MET794  SER795  GLU796  ALA797  LYS798  CYS799  TRP800  GLU811  SER814 

> <Gold.Protein.RotatedAtoms>
  150.8846  133.7325  159.2921 H   0  0  0  0  0  0  0  0  0  0  0  0  # atno 6907 bound_to 6896
  151.4896  135.1055  159.9809 H   0  0  0  0  0  0  0  0  0  0  0  0  # atno 6908 bound_to 6896
  152.4782  133.8142  159.7075 H   0  0  0  0  0  0  0  0  0  0  0  0  # atno 6909 bound_to 6896
  145.3243  140.9428  143.2698 H   0  0  0  0  0  0  0  0  0  0  0  0  # atno 7974 bound_to 7965
  154.5480  140.2307  155.8531 H   0  0  0  0  0  0  0  0  0  0  0  0  # atno 8008 bound_to 7997
  156.1920  140.3074  155.9314 H   0  0  0  0  0  0  0  0  0  0  0  0  # atno 8009 bound_to 7997
  155.3126  140.0436  157.3026 H   0  0  0  0  0  0  0  0  0  0  0  0  # atno 8010 bound_to 7997
  140.3346  143.2976  151.9904 H   0  0  0  0  0  0  0  0  0  0  0  0  # atno 10167 bound_to 10162
  156.5396  130.4675  149.6505 H   0  0  0  0  0  0  0  0  0  0  0  0  # atno 10718 bound_to 10713
  153.0362  135.5161  154.7495 H   0  0  0  0  0  0  0  0  0  0  0  0  # atno 10763 bound_to 10752
  154.6470  135.2920  155.0036 H   0  0  0  0  0  0  0  0  0  0  0  0  # atno 10764 bound_to 10752
  154.0934  135.6647  153.4909 H   0  0  0  0  0  0  0  0  0  0  0  0  # atno 10765 bound_to 10752
  140.4115  134.1613  155.7667 H   0  0  0  0  0  0  0  0  0  0  0  0  # atno 11005 bound_to 11000
  144.8914  139.4769  143.6676 LP  0  0  0  0  0  0  0  0  0  0  0  0  # atno 17320 bound_to 7965
  146.3070  139.7615  142.9048 LP  0  0  0  0  0  0  0  0  0  0  0  0  # atno 17321 bound_to 7965
  139.4850  144.6207  151.7260 LP  0  0  0  0  0  0  0  0  0  0  0  0  # atno 17342 bound_to 10162
  140.5366  144.0646  150.6072 LP  0  0  0  0  0  0  0  0  0  0  0  0  # atno 17343 bound_to 10162
  156.2984  130.7163  151.2029 LP  0  0  0  0  0  0  0  0  0  0  0  0  # atno 17370 bound_to 10713
  157.7407  131.0513  150.5144 LP  0  0  0  0  0  0  0  0  0  0  0  0  # atno 17371 bound_to 10713
  141.1819  133.8395  157.1226 LP  0  0  0  0  0  0  0  0  0  0  0  0  # atno 17394 bound_to 11000
  140.0264  134.9922  157.0695 LP  0  0  0  0  0  0  0  0  0  0  0  0  # atno 17395 bound_to 11000

$$$$
