AV-unprocessed.smi:21|AV-procd|sdf|161|dock4
  -GOLD-   2262015393D 1   1.00000     0.00000
 Structure written by MMmdl.
 61 64  0  0  0  0  0  0  0  0  1 V2000
  152.7386  143.2763  162.9254 C   0  0  0  0  0  0  0  0  0  0  0  0
  152.0445  142.5499  161.9238 O   0  0  0  0  0  0  0  0  0  0  0  0
  152.7892  142.3847  160.7248 C   0  0  1  0  0  0  0  0  0  0  0  0
  152.2325  141.2436  159.8549 C   0  0  0  0  0  0  0  0  0  0  0  0
  152.0722  141.8769  158.4682 C   0  0  1  0  0  0  0  0  0  0  0  0
  151.0554  141.1419  157.5687 C   0  0  0  0  0  0  0  0  0  0  0  0
  151.3503  139.7163  157.4182 N   0  0  0  0  0  0  0  0  0  0  0  0
  152.7325  139.2849  157.6180 C   0  0  0  0  0  0  0  0  0  0  0  0
  150.6054  139.0336  156.5067 C   0  0  0  0  0  0  0  0  0  0  0  0
  150.3162  139.6150  155.3106 N   0  0  0  0  0  0  0  0  0  0  0  0
  149.5797  138.9716  154.4007 C   0  0  0  0  0  0  0  0  0  0  0  0
  149.0416  137.7538  154.4738 N   0  0  0  0  0  0  0  0  0  0  0  0
  149.3369  137.1555  155.6624 C   0  0  0  0  0  0  0  0  0  0  0  0
  150.1024  137.7169  156.7247 C   0  0  0  0  0  0  0  0  0  0  0  0
  150.1912  136.8026  157.7681 N   0  0  0  0  0  0  0  0  0  0  0  0
  149.5080  135.7709  157.3557 C   0  0  0  0  0  0  0  0  0  0  0  0
  148.9764  135.8904  156.0921 N   0  0  0  0  0  0  0  0  0  0  0  0
  148.1760  134.9033  155.3899 C   0  0  0  0  0  0  0  0  0  0  0  0
  148.9931  133.8911  154.5448 C   0  0  2  0  0  0  0  0  0  0  0  0
  148.1134  133.3679  153.3858 C   0  0  0  0  0  0  0  0  0  0  0  0
  147.4730  134.4234  152.6978 O   0  0  0  0  0  0  0  0  0  0  0  0
  149.6408  132.7418  155.3715 C   0  0  1  0  0  0  0  0  0  0  0  0
  150.2334  131.6146  154.5399 C   0  0  0  0  0  0  0  0  0  0  0  0
  151.1567  130.9318  155.5372 C   0  0  0  0  0  0  0  0  0  0  0  0
  151.7242  132.0016  156.2762 O   0  0  0  0  0  0  0  0  0  0  0  0
  150.8609  133.1341  156.2222 C   0  0  0  0  0  0  0  0  0  0  0  0
  151.7355  143.2610  158.7544 N   0  0  0  0  0  0  0  0  0  0  0  0
  151.8626  144.1514  157.6087 C   0  0  0  0  0  0  0  0  0  0  0  0
  152.6278  143.6281  159.8394 C   0  0  0  0  0  0  0  0  0  0  0  0
  153.8473  142.2373  160.9480 H   0  0  0  0  0  0  0  0  0  0  0  0
  153.0497  141.8624  157.9847 H   0  0  0  0  0  0  0  0  0  0  0  0
  152.1078  143.3711  163.8090 H   0  0  0  0  0  0  0  0  0  0  0  0
  152.9867  144.2814  162.5822 H   0  0  0  0  0  0  0  0  0  0  0  0
  153.6583  142.7727  163.2247 H   0  0  0  0  0  0  0  0  0  0  0  0
  152.8827  140.3684  159.8428 H   0  0  0  0  0  0  0  0  0  0  0  0
  151.2601  140.9320  160.2351 H   0  0  0  0  0  0  0  0  0  0  0  0
  150.0471  141.3117  157.9447 H   0  0  0  0  0  0  0  0  0  0  0  0
  151.0693  141.5787  156.5702 H   0  0  0  0  0  0  0  0  0  0  0  0
  152.7895  138.2023  157.7368 H   0  0  0  0  0  0  0  0  0  0  0  0
  153.1609  139.7312  158.5144 H   0  0  0  0  0  0  0  0  0  0  0  0
  153.3526  139.5741  156.7688 H   0  0  0  0  0  0  0  0  0  0  0  0
  149.3965  139.5094  153.4822 H   0  0  0  0  0  0  0  0  0  0  0  0
  149.3856  134.8843  157.9609 H   0  0  0  0  0  0  0  0  0  0  0  0
  147.5620  134.3750  156.1204 H   0  0  0  0  0  0  0  0  0  0  0  0
  147.4840  135.4502  154.7482 H   0  0  0  0  0  0  0  0  0  0  0  0
  149.8054  134.4411  154.0687 H   0  0  0  0  0  0  0  0  0  0  0  0
  148.7185  132.8059  152.6737 H   0  0  0  0  0  0  0  0  0  0  0  0
  147.3558  132.6737  153.7493 H   0  0  0  0  0  0  0  0  0  0  0  0
  148.0971  135.1211  152.5690 H   0  0  0  0  0  0  0  0  0  0  0  0
  148.8882  132.3072  156.0314 H   0  0  0  0  0  0  0  0  0  0  0  0
  149.4816  130.9342  154.1385 H   0  0  0  0  0  0  0  0  0  0  0  0
  150.8142  132.0152  153.7079 H   0  0  0  0  0  0  0  0  0  0  0  0
  150.5858  130.2951  156.2143 H   0  0  0  0  0  0  0  0  0  0  0  0
  151.9226  130.3228  155.0572 H   0  0  0  0  0  0  0  0  0  0  0  0
  151.4152  133.9570  155.7698 H   0  0  0  0  0  0  0  0  0  0  0  0
  150.5771  133.4317  157.2307 H   0  0  0  0  0  0  0  0  0  0  0  0
  151.6608  145.1822  157.9013 H   0  0  0  0  0  0  0  0  0  0  0  0
  151.1501  143.8871  156.8277 H   0  0  0  0  0  0  0  0  0  0  0  0
  152.8662  144.1099  157.1838 H   0  0  0  0  0  0  0  0  0  0  0  0
  152.2505  144.4903  160.3906 H   0  0  0  0  0  0  0  0  0  0  0  0
  153.6056  143.9010  159.4382 H   0  0  0  0  0  0  0  0  0  0  0  0
  1  2  1  0  0  0  0
  1 32  1  0  0  0  0
  1 33  1  0  0  0  0
  1 34  1  0  0  0  0
  2  3  1  0  0  0  0
  3 30  1  0  0  0  0
  3 29  1  0  0  0  0
  3  4  1  0  0  0  0
  4  5  1  0  0  0  0
  4 35  1  0  0  0  0
  4 36  1  0  0  0  0
  5 31  1  0  0  0  0
  5  6  1  0  0  0  0
  5 27  1  0  0  0  0
  6  7  1  0  0  0  0
  6 37  1  0  0  0  0
  6 38  1  0  0  0  0
  7  8  1  0  0  0  0
  7  9  1  0  0  0  0
  8 39  1  0  0  0  0
  8 40  1  0  0  0  0
  8 41  1  0  0  0  0
  9 14  1  0  0  0  0
  9 10  2  0  0  0  0
 10 11  1  0  0  0  0
 11 12  2  0  0  0  0
 11 42  1  0  0  0  0
 12 13  1  0  0  0  0
 13 17  1  0  0  0  0
 13 14  2  0  0  0  0
 14 15  1  0  0  0  0
 15 16  2  0  0  0  0
 16 17  1  0  0  0  0
 16 43  1  0  0  0  0
 17 18  1  0  0  0  0
 18 19  1  0  0  0  0
 18 44  1  0  0  0  0
 18 45  1  0  0  0  0
 19 20  1  0  0  0  0
 19 22  1  0  0  0  0
 19 46  1  0  0  0  0
 20 21  1  0  0  0  0
 20 47  1  0  0  0  0
 20 48  1  0  0  0  0
 21 49  1  0  0  0  0
 22 26  1  0  0  0  0
 22 23  1  0  0  0  0
 22 50  1  0  0  0  0
 23 24  1  0  0  0  0
 23 51  1  0  0  0  0
 23 52  1  0  0  0  0
 24 25  1  0  0  0  0
 24 53  1  0  0  0  0
 24 54  1  0  0  0  0
 25 26  1  0  0  0  0
 26 55  1  0  0  0  0
 26 56  1  0  0  0  0
 27 28  1  0  0  0  0
 27 29  1  0  0  0  0
 28 57  1  0  0  0  0
 28 58  1  0  0  0  0
 28 59  1  0  0  0  0
 29 60  1  0  0  0  0
 29 61  1  0  0  0  0
M  END
> <s_m_source_file>
AV-unprocessed.smi

> <i_m_source_file_index>
21

> <i_lp_mmshare_version>
43012

> <i_f3d_flags>
0

> <s_epik_input>
W0NIM11PW0NASF0xW0NIMl1bQ0BIXShOKFtDSDNdKVtDSDJdMSlbQ0gyXU4oW0NIM10pYyhuW2NIXW4yKWMoYzIzKW5bY0hdbjNbQ0gyXVtDQEhdKFtDSDJdW09IXSlbQ0BASF00W0NIMl1bQ0gyXU9bQ0gyXTQ=

> <s_epik_cmdline>
J2VwaWtfcHl0aG9uJywgJy1waCcsICc3LjAnLCAnLXRuJywgJzgnLCAnLW1hJywgJzIwMCcsICctbWV0YWxfYmluZGluZycsICctaW1hZScsICc8aW5maWxlLm1hZT4nLCAnLW9tYWUnLCAnPG91dGZpbGUubWFlPic=

> <r_lp_tautomer_probability>
1

> <r_epik_Ionization_Penalty>
2.17574

> <r_epik_Ionization_Penalty_Charging>
0

> <r_epik_Ionization_Penalty_Neutral>
2.17574

> <r_epik_State_Penalty>
2.31336

> <r_epik_Charging_Adjusted_Penalty>
2.31336

> <i_epik_Tot_Q>
0

> <i_epik_Tot_abs_Q>
0

> <r_epik_Metal_State_Penalty>
2.31025

> <b_epik_Metal_Only>
0

> <s_lp_Force_Field>
OPLS_2005

> <r_lp_Energy>
70.1796

> <b_lp_Chiralities_Consistent>
1

> <s_lp_Variant>
AV-unprocessed.smi:21-41

> <Gold.Version>
5.8.1

> <Gold.Id.Protein>
6NUR|6NUR_protein|mol2

> <Gold.PLP.Fitness>
46.0550

> <Gold.PLP.PLP>
-42.5712

> <Gold.PLP.part.hbond>
-1.7625

> <Gold.PLP.part.metal>
0.0000

> <Gold.PLP.part.buried>
-4.7467

> <Gold.PLP.part.nonpolar>
-37.4845

> <Gold.PLP.part.repulsive>
0.9497

> <Gold.PLP.ligand.clash>
0.0000

> <Gold.PLP.ligand.torsion>
2.3079

> <Gold.PLP.Chemscore.Hbond>
1.4212

> <Gold.PLP.Chemscore.CHOScore>
1.0000

> <Gold.PLP.Chemscore.Metal>
0.0000

> <Gold.Chemscore.Hbonds>
donor molecule, donor type, donor heavy atom, donor atom, acceptor molecule, acceptor atom, score
      L1  H    21    49       P1  7948  1.00
      P1  H  6933  6945       L1     2  0.56
      L1  C    11    42       P1  7957  1.00

> <Gold.PLP.Chemscore.Internal.Correction>
0.8361

> <Gold.Rescore>
     Score         DG    S(hbond)    S(metal)    S(lipo)     H(rot)  DE(clash)    DE(int)     intcor
     14.00     -16.69       1.82        0.00     109.55       3.00       0.39       2.31       ----

> <Gold.Chemscore.Fitness>
13.9989

> <Gold.Chemscore.DG>
-16.6945

> <Gold.Chemscore.ZeroCoef>
-5.4800

> <Gold.Chemscore.Hbond>
1.8219

> <Gold.Chemscore.Metal>
0.0000

> <Gold.Chemscore.Lipo>
109.5512

> <Gold.Chemscore.Internal_Hbond>
0.0000

> <Gold.Chemscore.DEClash>
0.3858

> <Gold.Chemscore.DEInternal>
2.3098

> <Gold.Chemscore.Rot>
3.0031

> <Gold.Chemscore.Internal.Correction>
   9.000000E+99

> <Gold.Chemscore.Hbonds>
donor molecule, donor type, donor heavy atom, donor atom, acceptor molecule, acceptor atom, score
      L1  H    21    49       P1  7948  0.84
      P1  H  6933  6945       L1     2  0.55

> <Gold.Chemscore.Hbond.Weighted>
-6.0850

> <Gold.Chemscore.Metal.Weighted>
-0.0000

> <Gold.Chemscore.Lipo.Weighted>
-12.8175

> <Gold.Chemscore.Internal_Hbond.Weighted>
0.0000

> <Gold.Chemscore.DEClash.Weighted>
0.3858

> <Gold.Chemscore.DEInternal.Weighted>
2.3098

> <Gold.Chemscore.Rot.Weighted>
7.6880

> <Gold.Chemscore.Internal.Correction.Weighted>
   9.000000E+99

> <Gold.Protein.RotatedTorsions>
[ 6907 6896 6895 6894 ] final  -59.19 input  -60.11 | X-H torsion
[ 7974 7965 7964 7962 ] final  125.00 input  175.53 | X-H torsion
[ 8008 7997 7996 7995 ] final   33.22 input   59.86 | X-H torsion
[ 10167 10162 10161 10158 ] final -155.00 input  -65.29 | X-H torsion
[ 10718 10713 10712 10709 ] final   -9.24 input   66.30 | X-H torsion
[ 10763 10752 10751 10750 ] final   37.67 input  -60.55 | X-H torsion
[ 11005 11000 10999 10996 ] final  -95.34 input  -57.11 | X-H torsion

> <Gold.Protein.ActiveResidues>
 VAL166  LYS551  ARG553  GLY616  TRP617  ASP618  TYR619  PRO620  LYS621  CYS622 
 ASP623  PHE694  ASN695  SER759  ASP760  ASP761  ALA762  ILE779  LEU786  VAL792 
 PHE793  MET794  SER795  GLU796  ALA797  LYS798  CYS799  TRP800  GLU811  SER814 

> <Gold.Protein.RotatedAtoms>
  150.7949  134.7001  159.6544 H   0  0  0  0  0  0  0  0  0  0  0  0  # atno 6907 bound_to 6896
  152.4060  134.6203  160.0059 H   0  0  0  0  0  0  0  0  0  0  0  0  # atno 6908 bound_to 6896
  151.6460  133.3286  159.3177 H   0  0  0  0  0  0  0  0  0  0  0  0  # atno 6909 bound_to 6896
  145.0779  139.3679  143.4924 H   0  0  0  0  0  0  0  0  0  0  0  0  # atno 7974 bound_to 7965
  155.1350  140.3261  155.4465 H   0  0  0  0  0  0  0  0  0  0  0  0  # atno 8008 bound_to 7997
  156.2622  140.2003  156.6417 H   0  0  0  0  0  0  0  0  0  0  0  0  # atno 8009 bound_to 7997
  154.6584  140.0550  157.0021 H   0  0  0  0  0  0  0  0  0  0  0  0  # atno 8010 bound_to 7997
  139.6967  143.9331  152.2410 H   0  0  0  0  0  0  0  0  0  0  0  0  # atno 10167 bound_to 10162
  156.6909  130.5065  149.5944 H   0  0  0  0  0  0  0  0  0  0  0  0  # atno 10718 bound_to 10713
  153.0029  135.6271  154.2181 H   0  0  0  0  0  0  0  0  0  0  0  0  # atno 10763 bound_to 10752
  154.1925  135.2808  155.3019 H   0  0  0  0  0  0  0  0  0  0  0  0  # atno 10764 bound_to 10752
  154.5748  135.5665  153.7189 H   0  0  0  0  0  0  0  0  0  0  0  0  # atno 10765 bound_to 10752
  141.1445  133.8019  157.0421 H   0  0  0  0  0  0  0  0  0  0  0  0  # atno 11005 bound_to 11000
  146.3530  140.0556  142.8633 LP  0  0  0  0  0  0  0  0  0  0  0  0  # atno 17320 bound_to 7965
  145.1213  140.9464  143.4598 LP  0  0  0  0  0  0  0  0  0  0  0  0  # atno 17321 bound_to 7965
  139.9162  144.6827  150.8510 LP  0  0  0  0  0  0  0  0  0  0  0  0  # atno 17342 bound_to 10162
  140.7698  143.3408  151.2212 LP  0  0  0  0  0  0  0  0  0  0  0  0  # atno 17343 bound_to 10162
  156.1798  130.6491  151.0938 LP  0  0  0  0  0  0  0  0  0  0  0  0  # atno 17370 bound_to 10713
  157.7009  131.0776  150.6823 LP  0  0  0  0  0  0  0  0  0  0  0  0  # atno 17371 bound_to 10713
  140.0686  134.9715  157.1428 LP  0  0  0  0  0  0  0  0  0  0  0  0  # atno 17394 bound_to 11000
  140.3744  134.2355  155.7175 LP  0  0  0  0  0  0  0  0  0  0  0  0  # atno 17395 bound_to 11000

$$$$
