AV-unprocessed.smi:3068|AV-procd|sdf|11707|dock5
  -GOLD-   2272017113D 1   1.00000     0.00000
 Structure written by MMmdl.
 39 41  0  0  0  0  0  0  0  0  1 V2000
  148.1869  137.1817  160.4969 N   0  0  0  0  0  0  0  0  0  0  0  0
  148.4577  136.9804  159.3899 C   0  0  0  0  0  0  0  0  0  0  0  0
  148.7984  136.7270  157.9956 C   0  0  0  0  0  0  0  0  0  0  0  0
  147.8207  136.2087  157.2166 N   0  0  0  0  0  0  0  0  0  0  0  0
  148.1229  135.9682  155.9230 C   0  0  0  0  0  0  0  0  0  0  0  0
  149.4012  136.2440  155.4010 C   0  0  0  0  0  0  0  0  0  0  0  0
  150.3817  136.7623  156.1702 N   0  0  0  0  0  0  0  0  0  0  0  0
  150.0928  137.0070  157.4731 C   0  0  0  0  0  0  0  0  0  0  0  0
  151.1037  137.5503  158.2878 N   0  0  0  0  0  0  0  0  0  0  0  0
  151.1356  138.9676  158.6296 C   0  0  0  0  0  0  0  0  0  0  0  0
  152.2378  139.7339  157.8668 C   0  0  1  0  0  0  0  0  0  0  0  0
  151.7575  141.0977  157.3357 C   0  0  0  0  0  0  0  0  0  0  0  0
  151.5798  142.0857  158.3931 N   0  0  0  0  0  0  0  0  0  0  0  0
  151.1429  143.3692  157.8449 C   0  0  0  0  0  0  0  0  0  0  0  0
  150.9148  144.4269  158.9358 C   0  0  0  0  0  0  0  0  0  0  0  0
  152.1907  144.6141  159.7686 C   0  0  0  0  0  0  0  0  0  0  0  0
  152.6743  143.2566  160.3011 C   0  0  0  0  0  0  0  0  0  0  0  0
  152.8223  142.2321  159.1565 C   0  0  1  0  0  0  0  0  0  0  0  0
  153.2921  140.8727  159.7109 C   0  0  0  0  0  0  0  0  0  0  0  0
  153.4128  139.9182  158.6590 O   0  0  0  0  0  0  0  0  0  0  0  0
  147.3420  135.5549  155.3021 H   0  0  0  0  0  0  0  0  0  0  0  0
  149.6376  136.0492  154.3654 H   0  0  0  0  0  0  0  0  0  0  0  0
  151.9306  137.0005  158.4730 H   0  0  0  0  0  0  0  0  0  0  0  0
  150.1612  139.4130  158.4267 H   0  0  0  0  0  0  0  0  0  0  0  0
  151.2766  139.0577  159.7060 H   0  0  0  0  0  0  0  0  0  0  0  0
  152.5324  139.1359  157.0041 H   0  0  0  0  0  0  0  0  0  0  0  0
  152.4880  141.4684  156.6148 H   0  0  0  0  0  0  0  0  0  0  0  0
  150.8244  140.9684  156.7863 H   0  0  0  0  0  0  0  0  0  0  0  0
  151.8821  143.7383  157.1322 H   0  0  0  0  0  0  0  0  0  0  0  0
  150.2173  143.2320  157.2850 H   0  0  0  0  0  0  0  0  0  0  0  0
  150.6163  145.3739  158.4859 H   0  0  0  0  0  0  0  0  0  0  0  0
  150.0938  144.1147  159.5826 H   0  0  0  0  0  0  0  0  0  0  0  0
  152.9692  145.0634  159.1506 H   0  0  0  0  0  0  0  0  0  0  0  0
  152.0082  145.3031  160.5938 H   0  0  0  0  0  0  0  0  0  0  0  0
  153.6248  143.3824  160.8204 H   0  0  0  0  0  0  0  0  0  0  0  0
  151.9637  142.8840  161.0403 H   0  0  0  0  0  0  0  0  0  0  0  0
  153.5998  142.5972  158.4829 H   0  0  0  0  0  0  0  0  0  0  0  0
  154.2650  140.9777  160.1916 H   0  0  0  0  0  0  0  0  0  0  0  0
  152.6076  140.5051  160.4757 H   0  0  0  0  0  0  0  0  0  0  0  0
  1  2  3  0  0  0  0
  2  3  1  0  0  0  0
  3  8  1  0  0  0  0
  3  4  2  0  0  0  0
  4  5  1  0  0  0  0
  5  6  2  0  0  0  0
  5 21  1  0  0  0  0
  6  7  1  0  0  0  0
  6 22  1  0  0  0  0
  7  8  2  0  0  0  0
  8  9  1  0  0  0  0
  9 10  1  0  0  0  0
  9 23  1  0  0  0  0
 10 11  1  0  0  0  0
 10 24  1  0  0  0  0
 10 25  1  0  0  0  0
 11 20  1  0  0  0  0
 11 12  1  0  0  0  0
 11 26  1  0  0  0  0
 12 13  1  0  0  0  0
 12 27  1  0  0  0  0
 12 28  1  0  0  0  0
 13 18  1  0  0  0  0
 13 14  1  0  0  0  0
 14 15  1  0  0  0  0
 14 29  1  0  0  0  0
 14 30  1  0  0  0  0
 15 16  1  0  0  0  0
 15 31  1  0  0  0  0
 15 32  1  0  0  0  0
 16 17  1  0  0  0  0
 16 33  1  0  0  0  0
 16 34  1  0  0  0  0
 17 18  1  0  0  0  0
 17 35  1  0  0  0  0
 17 36  1  0  0  0  0
 18 19  1  0  0  0  0
 18 37  1  0  0  0  0
 19 20  1  0  0  0  0
 19 38  1  0  0  0  0
 19 39  1  0  0  0  0
M  END
> <s_m_source_file>
AV-unprocessed.smi

> <i_m_source_file_index>
3068

> <i_lp_mmshare_version>
43012

> <i_f3d_flags>
0

> <s_epik_input>
TiNDYzFuW2NIXVtjSF1uYzFbTkhdW0NIMl1bQ0BIXShbQ0gyXTIpT1tDSDJdW0NAQEhdKE4yMylbQ0gyXVtDSDJdW0NIMl1bQ0gyXTM=

> <s_epik_cmdline>
J2VwaWtfcHl0aG9uJywgJy1waCcsICc3LjAnLCAnLXRuJywgJzgnLCAnLW1hJywgJzIwMCcsICctbWV0YWxfYmluZGluZycsICctaW1hZScsICc8aW5maWxlLm1hZT4nLCAnLW9tYWUnLCAnPG91dGZpbGUubWFlPic=

> <r_epik_Ionization_Penalty>
1.22359

> <r_epik_Ionization_Penalty_Charging>
0

> <r_epik_Ionization_Penalty_Neutral>
1.22359

> <r_epik_State_Penalty>
1.29103

> <r_epik_Charging_Adjusted_Penalty>
1.29103

> <i_epik_Tot_Q>
0

> <i_epik_Tot_abs_Q>
0

> <r_epik_Metal_State_Penalty>
1.29103

> <b_epik_Metal_Only>
0

> <s_lp_Force_Field>
OPLS_2005

> <r_lp_Energy>
49.2936

> <b_lp_Chiralities_Consistent>
1

> <s_lp_Variant>
AV-unprocessed.smi:3068-10

> <Gold.Version>
5.8.1

> <Gold.Id.Protein>
6NUR|6NUR_protein|mol2

> <Gold.PLP.Fitness>
38.7884

> <Gold.PLP.PLP>
-31.5505

> <Gold.PLP.part.hbond>
-3.0000

> <Gold.PLP.part.metal>
0.0000

> <Gold.PLP.part.buried>
-5.0507

> <Gold.PLP.part.nonpolar>
-23.4883

> <Gold.PLP.part.repulsive>
0.1423

> <Gold.PLP.ligand.clash>
0.0000

> <Gold.PLP.ligand.torsion>
1.3768

> <Gold.PLP.Chemscore.Hbond>
2.3334

> <Gold.PLP.Chemscore.CHOScore>
0.9950

> <Gold.PLP.Chemscore.Metal>
0.0000

> <Gold.Chemscore.Hbonds>
donor molecule, donor type, donor heavy atom, donor atom, acceptor molecule, acceptor atom, score
      P1  H  6931  6943       L1     1  0.75
      P1  H  6934  6947       L1     1  0.50
      P1  H  7997  8009       L1    20  1.00
      L1  C     6    22       P1  7948  0.90

> <Gold.PLP.Chemscore.Internal.Correction>
0.0064

> <Gold.Rescore>
     Score         DG    S(hbond)    S(metal)    S(lipo)     H(rot)  DE(clash)    DE(int)     intcor
     18.70     -19.72       2.07        0.00      91.15       1.30       0.01       1.01       ----

> <Gold.Chemscore.Fitness>
18.7049

> <Gold.Chemscore.DG>
-19.7230

> <Gold.Chemscore.ZeroCoef>
-5.4800

> <Gold.Chemscore.Hbond>
2.0694

> <Gold.Chemscore.Metal>
0.0000

> <Gold.Chemscore.Lipo>
91.1454

> <Gold.Chemscore.Internal_Hbond>
0.0000

> <Gold.Chemscore.DEClash>
0.0089

> <Gold.Chemscore.DEInternal>
1.0092

> <Gold.Chemscore.Rot>
1.3019

> <Gold.Chemscore.Internal.Correction>
   9.000000E+99

> <Gold.Chemscore.Hbonds>
donor molecule, donor type, donor heavy atom, donor atom, acceptor molecule, acceptor atom, score
      P1  H  6931  6943       L1     1  0.75
      P1  H  6934  6947       L1     1  0.48
      P1  H  7997  8009       L1    20  0.27

> <Gold.Chemscore.Hbond.Weighted>
-6.9118

> <Gold.Chemscore.Metal.Weighted>
-0.0000

> <Gold.Chemscore.Lipo.Weighted>
-10.6640

> <Gold.Chemscore.Internal_Hbond.Weighted>
0.0000

> <Gold.Chemscore.DEClash.Weighted>
0.0089

> <Gold.Chemscore.DEInternal.Weighted>
1.0092

> <Gold.Chemscore.Rot.Weighted>
3.3327

> <Gold.Chemscore.Internal.Correction.Weighted>
   9.000000E+99

> <Gold.Protein.RotatedTorsions>
[ 6907 6896 6895 6894 ] final -109.73 input  -60.11 | X-H torsion
[ 7974 7965 7964 7962 ] final  -37.86 input  175.53 | X-H torsion
[ 8008 7997 7996 7995 ] final  137.52 input   59.86 | X-H torsion
[ 10167 10162 10161 10158 ] final  -98.85 input  -65.29 | X-H torsion
[ 10718 10713 10712 10709 ] final   53.32 input   66.30 | X-H torsion
[ 10763 10752 10751 10750 ] final   74.59 input  -60.55 | X-H torsion
[ 11005 11000 10999 10996 ] final -148.93 input  -57.11 | X-H torsion

> <Gold.Protein.ActiveResidues>
 VAL166  LYS551  ARG553  GLY616  TRP617  ASP618  TYR619  PRO620  LYS621  CYS622 
 ASP623  PHE694  ASN695  SER759  ASP760  ASP761  ALA762  ILE779  LEU786  VAL792 
 PHE793  MET794  SER795  GLU796  ALA797  LYS798  CYS799  TRP800  GLU811  SER814 

> <Gold.Protein.RotatedAtoms>
  150.7580  133.9485  159.3478 H   0  0  0  0  0  0  0  0  0  0  0  0  # atno 6907 bound_to 6896
  151.7400  135.0854  160.0323 H   0  0  0  0  0  0  0  0  0  0  0  0  # atno 6908 bound_to 6896
  152.3534  133.6170  159.5997 H   0  0  0  0  0  0  0  0  0  0  0  0  # atno 6909 bound_to 6896
  146.0538  140.6445  142.9029 H   0  0  0  0  0  0  0  0  0  0  0  0  # atno 7974 bound_to 7965
  156.3002  140.2417  156.3922 H   0  0  0  0  0  0  0  0  0  0  0  0  # atno 8008 bound_to 7997
  154.8603  140.0420  157.1681 H   0  0  0  0  0  0  0  0  0  0  0  0  # atno 8009 bound_to 7997
  154.8903  140.2962  155.5378 H   0  0  0  0  0  0  0  0  0  0  0  0  # atno 8010 bound_to 7997
  140.2686  143.3359  152.0556 H   0  0  0  0  0  0  0  0  0  0  0  0  # atno 10167 bound_to 10162
  157.5156  130.8530  149.8492 H   0  0  0  0  0  0  0  0  0  0  0  0  # atno 10718 bound_to 10713
  153.0597  135.5020  154.8064 H   0  0  0  0  0  0  0  0  0  0  0  0  # atno 10763 bound_to 10752
  154.6863  135.2976  154.9545 H   0  0  0  0  0  0  0  0  0  0  0  0  # atno 10764 bound_to 10752
  154.0315  135.6729  153.4834 H   0  0  0  0  0  0  0  0  0  0  0  0  # atno 10765 bound_to 10752
  140.7560  134.3352  157.5114 H   0  0  0  0  0  0  0  0  0  0  0  0  # atno 11005 bound_to 11000
  144.7136  140.4131  143.7061 LP  0  0  0  0  0  0  0  0  0  0  0  0  # atno 17320 bound_to 7965
  145.6679  139.1593  143.2771 LP  0  0  0  0  0  0  0  0  0  0  0  0  # atno 17321 bound_to 7965
  139.4995  144.6671  151.6330 LP  0  0  0  0  0  0  0  0  0  0  0  0  # atno 17342 bound_to 10162
  140.5908  143.9783  150.6323 LP  0  0  0  0  0  0  0  0  0  0  0  0  # atno 17343 bound_to 10162
  156.0318  130.3762  150.1666 LP  0  0  0  0  0  0  0  0  0  0  0  0  # atno 17370 bound_to 10713
  156.9855  130.9877  151.3427 LP  0  0  0  0  0  0  0  0  0  0  0  0  # atno 17371 bound_to 10713
  139.8779  134.9172  156.3173 LP  0  0  0  0  0  0  0  0  0  0  0  0  # atno 17394 bound_to 11000
  140.9707  133.7329  156.0530 LP  0  0  0  0  0  0  0  0  0  0  0  0  # atno 17395 bound_to 11000

$$$$
