AV-unprocessed.smi:2050|AV-procd|sdf|8325|dock3
  -GOLD-   2272010593D 1   1.00000     0.00000
 Structure written by MMmdl.
 33 34  0  0  0  0  0  0  0  0  1 V2000
  144.8242  131.3102  150.8975 C   0  0  0  0  0  0  0  0  0  0  0  0
  144.9887  132.7782  151.0946 C   0  0  0  0  0  0  0  0  0  0  0  0
  146.0514  133.5548  151.4625 C   0  0  0  0  0  0  0  0  0  0  0  0
  145.5069  134.8666  151.4538 C   0  0  0  0  0  0  0  0  0  0  0  0
  146.3071  135.9886  151.7888 N   0  0  0  0  0  0  0  0  0  0  0  0
  145.8928  137.1861  152.2368 C   0  0  0  0  0  0  0  0  0  0  0  0
  144.7189  137.5041  152.4290 O   0  0  0  0  0  0  0  0  0  0  0  0
  146.9299  138.0076  152.4564 N   0  0  0  0  0  0  0  0  0  0  0  0
  146.8369  139.3816  152.9414 C   0  0  0  0  0  0  0  0  0  0  0  0
  148.2006  139.9178  153.4168 C   0  0  1  0  0  0  0  0  0  0  0  0
  148.0820  141.2968  154.0948 C   0  0  0  0  0  0  0  0  0  0  0  0
  149.4226  141.6346  154.7543 C   0  0  0  0  0  0  0  0  0  0  0  0
  150.0994  140.0362  155.3372 S   0  0  0  0  0  0  0  0  0  0  0  0
  151.4590  139.8690  154.8017 O   0  0  0  0  0  0  0  0  0  0  0  0
  149.8272  139.8827  156.7743 O   0  0  0  0  0  0  0  0  0  0  0  0
  148.9332  138.9821  154.3943 C   0  0  0  0  0  0  0  0  0  0  0  0
  144.2281  134.8892  151.1109 N   0  0  0  0  0  0  0  0  0  0  0  0
  143.8894  133.5507  150.8792 O   0  0  0  0  0  0  0  0  0  0  0  0
  145.7478  130.7795  151.1298 H   0  0  0  0  0  0  0  0  0  0  0  0
  144.5561  131.0863  149.8649 H   0  0  0  0  0  0  0  0  0  0  0  0
  144.0381  130.9194  151.5438 H   0  0  0  0  0  0  0  0  0  0  0  0
  147.0545  133.2322  151.6992 H   0  0  0  0  0  0  0  0  0  0  0  0
  147.3024  135.8651  151.6762 H   0  0  0  0  0  0  0  0  0  0  0  0
  147.8583  137.6566  152.2723 H   0  0  0  0  0  0  0  0  0  0  0  0
  146.4720  139.9948  152.1170 H   0  0  0  0  0  0  0  0  0  0  0  0
  146.0927  139.4683  153.7352 H   0  0  0  0  0  0  0  0  0  0  0  0
  148.8426  140.0463  152.5438 H   0  0  0  0  0  0  0  0  0  0  0  0
  147.7815  142.0707  153.3880 H   0  0  0  0  0  0  0  0  0  0  0  0
  147.3116  141.2527  154.8659 H   0  0  0  0  0  0  0  0  0  0  0  0
  150.1183  142.0503  154.0250 H   0  0  0  0  0  0  0  0  0  0  0  0
  149.3278  142.3326  155.5860 H   0  0  0  0  0  0  0  0  0  0  0  0
  148.2379  138.5382  155.1076 H   0  0  0  0  0  0  0  0  0  0  0  0
  149.4739  138.1789  153.8934 H   0  0  0  0  0  0  0  0  0  0  0  0
  1  2  1  0  0  0  0
  1 19  1  0  0  0  0
  1 20  1  0  0  0  0
  1 21  1  0  0  0  0
  2 18  1  0  0  0  0
  2  3  2  0  0  0  0
  3  4  1  0  0  0  0
  3 22  1  0  0  0  0
  4  5  1  0  0  0  0
  4 17  2  0  0  0  0
  5  6  1  0  0  0  0
  5 23  1  0  0  0  0
  6  7  2  0  0  0  0
  6  8  1  0  0  0  0
  8  9  1  0  0  0  0
  8 24  1  0  0  0  0
  9 10  1  0  0  0  0
  9 25  1  0  0  0  0
  9 26  1  0  0  0  0
 10 16  1  0  0  0  0
 10 11  1  0  0  0  0
 10 27  1  0  0  0  0
 11 12  1  0  0  0  0
 11 28  1  0  0  0  0
 11 29  1  0  0  0  0
 12 13  1  0  0  0  0
 12 30  1  0  0  0  0
 12 31  1  0  0  0  0
 13 14  2  0  0  0  0
 13 15  2  0  0  0  0
 13 16  1  0  0  0  0
 16 32  1  0  0  0  0
 16 33  1  0  0  0  0
 17 18  1  0  0  0  0
M  END
> <s_m_source_file>
AV-unprocessed.smi

> <i_m_source_file_index>
2050

> <i_lp_mmshare_version>
43012

> <i_f3d_flags>
0

> <s_epik_input>
W0NIM11jMVtjSF1jKG5vMSlbTkhdQyg9TylbTkhdW0NIMl1bQ0BASF0oW0NIMl0yKVtDSDJdW0NIMl1TMig9Tyk9Tw==

> <s_epik_cmdline>
J2VwaWtfcHl0aG9uJywgJy1waCcsICc3LjAnLCAnLXRuJywgJzgnLCAnLW1hJywgJzIwMCcsICctbWV0YWxfYmluZGluZycsICctaW1hZScsICc8aW5maWxlLm1hZT4nLCAnLW9tYWUnLCAnPG91dGZpbGUubWFlPic=

> <r_lp_tautomer_probability>
1

> <r_epik_Ionization_Penalty>
2.22143e-05

> <r_epik_Ionization_Penalty_Charging>
0

> <r_epik_Ionization_Penalty_Neutral>
2.22143e-05

> <r_epik_State_Penalty>
-0

> <r_epik_Charging_Adjusted_Penalty>
0

> <i_epik_Tot_Q>
0

> <i_epik_Tot_abs_Q>
0

> <r_epik_Metal_State_Penalty>
-0

> <b_epik_Metal_Only>
0

> <s_lp_Force_Field>
OPLS_2005

> <r_lp_Energy>
0.896814

> <b_lp_Chiralities_Consistent>
1

> <s_lp_Variant>
AV-unprocessed.smi:2050-2

> <Gold.Version>
5.8.1

> <Gold.Id.Protein>
6NUR|6NUR_protein|mol2

> <Gold.PLP.Fitness>
37.1028

> <Gold.PLP.PLP>
-28.6044

> <Gold.PLP.part.hbond>
-3.0000

> <Gold.PLP.part.metal>
0.0000

> <Gold.PLP.part.buried>
-1.6949

> <Gold.PLP.part.nonpolar>
-25.1556

> <Gold.PLP.part.repulsive>
1.7824

> <Gold.PLP.ligand.clash>
0.0000

> <Gold.PLP.ligand.torsion>
0.2403

> <Gold.PLP.Chemscore.Hbond>
2.9920

> <Gold.PLP.Chemscore.CHOScore>
0.0000

> <Gold.PLP.Chemscore.Metal>
0.0000

> <Gold.Chemscore.Hbonds>
donor molecule, donor type, donor heavy atom, donor atom, acceptor molecule, acceptor atom, score
      L1  H     5    23       P1  7948  1.00
      L1  H     8    24       P1  7948  0.99
      P1  H  7989  7998       L1    14  1.00

> <Gold.PLP.Chemscore.Internal.Correction>
0.0029

> <Gold.Rescore>
     Score         DG    S(hbond)    S(metal)    S(lipo)     H(rot)  DE(clash)    DE(int)     intcor
     16.83     -18.23       2.94        0.00      54.86       1.36       0.04       1.37       ----

> <Gold.Chemscore.Fitness>
16.8286

> <Gold.Chemscore.DG>
-18.2333

> <Gold.Chemscore.ZeroCoef>
-5.4800

> <Gold.Chemscore.Hbond>
2.9367

> <Gold.Chemscore.Metal>
0.0000

> <Gold.Chemscore.Lipo>
54.8555

> <Gold.Chemscore.Internal_Hbond>
0.0000

> <Gold.Chemscore.DEClash>
0.0377

> <Gold.Chemscore.DEInternal>
1.3670

> <Gold.Chemscore.Rot>
1.3567

> <Gold.Chemscore.Internal.Correction>
   9.000000E+99

> <Gold.Chemscore.Hbonds>
donor molecule, donor type, donor heavy atom, donor atom, acceptor molecule, acceptor atom, score
      L1  H     5    23       P1  7948  0.99
      L1  H     8    24       P1  7948  0.94
      P1  H  7989  7998       L1    14  0.70

> <Gold.Chemscore.Hbond.Weighted>
-9.8084

> <Gold.Chemscore.Metal.Weighted>
-0.0000

> <Gold.Chemscore.Lipo.Weighted>
-6.4181

> <Gold.Chemscore.Internal_Hbond.Weighted>
0.0000

> <Gold.Chemscore.DEClash.Weighted>
0.0377

> <Gold.Chemscore.DEInternal.Weighted>
1.3670

> <Gold.Chemscore.Rot.Weighted>
3.4732

> <Gold.Chemscore.Internal.Correction.Weighted>
   9.000000E+99

> <Gold.Protein.RotatedTorsions>
[ 6907 6896 6895 6894 ] final  150.65 input  -60.11 | X-H torsion
[ 7974 7965 7964 7962 ] final   89.66 input  175.53 | X-H torsion
[ 8008 7997 7996 7995 ] final -174.59 input   59.86 | X-H torsion
[ 10167 10162 10161 10158 ] final -147.21 input  -65.29 | X-H torsion
[ 10718 10713 10712 10709 ] final -147.74 input   66.30 | X-H torsion
[ 10763 10752 10751 10750 ] final  -25.57 input  -60.55 | X-H torsion
[ 11005 11000 10999 10996 ] final   72.55 input  -57.11 | X-H torsion

> <Gold.Protein.ActiveResidues>
 VAL166  LYS551  ARG553  GLY616  TRP617  ASP618  TYR619  PRO620  LYS621  CYS622 
 ASP623  PHE694  ASN695  SER759  ASP760  ASP761  ALA762  ILE779  LEU786  VAL792 
 PHE793  MET794  SER795  GLU796  ALA797  LYS798  CYS799  TRP800  GLU811  SER814 

> <Gold.Protein.RotatedAtoms>
  152.1115  133.4303  159.4632 H   0  0  0  0  0  0  0  0  0  0  0  0  # atno 6907 bound_to 6896
  150.6867  134.2642  159.4571 H   0  0  0  0  0  0  0  0  0  0  0  0  # atno 6908 bound_to 6896
  152.0512  134.9652  160.0625 H   0  0  0  0  0  0  0  0  0  0  0  0  # atno 6909 bound_to 6896
  145.5294  139.2282  143.2627 H   0  0  0  0  0  0  0  0  0  0  0  0  # atno 7974 bound_to 7965
  155.9720  140.1165  157.0803 H   0  0  0  0  0  0  0  0  0  0  0  0  # atno 8008 bound_to 7997
  154.4159  140.1161  156.5387 H   0  0  0  0  0  0  0  0  0  0  0  0  # atno 8009 bound_to 7997
  155.6583  140.3473  155.4775 H   0  0  0  0  0  0  0  0  0  0  0  0  # atno 8010 bound_to 7997
  139.7643  143.8331  152.2613 H   0  0  0  0  0  0  0  0  0  0  0  0  # atno 10167 bound_to 10162
  156.4114  130.7983  151.2201 H   0  0  0  0  0  0  0  0  0  0  0  0  # atno 10718 bound_to 10713
  153.7019  135.6956  153.5060 H   0  0  0  0  0  0  0  0  0  0  0  0  # atno 10763 bound_to 10752
  153.2336  135.4329  155.0621 H   0  0  0  0  0  0  0  0  0  0  0  0  # atno 10764 bound_to 10752
  154.8341  135.3490  154.6559 H   0  0  0  0  0  0  0  0  0  0  0  0  # atno 10765 bound_to 10752
  139.9485  134.7270  156.0920 H   0  0  0  0  0  0  0  0  0  0  0  0  # atno 11005 bound_to 11000
  146.2054  140.6110  142.9083 LP  0  0  0  0  0  0  0  0  0  0  0  0  # atno 17320 bound_to 7965
  144.7634  140.5474  143.6720 LP  0  0  0  0  0  0  0  0  0  0  0  0  # atno 17321 bound_to 7965
  139.8346  144.7238  150.9407 LP  0  0  0  0  0  0  0  0  0  0  0  0  # atno 17342 bound_to 10162
  140.7809  143.4038  151.1105 LP  0  0  0  0  0  0  0  0  0  0  0  0  # atno 17343 bound_to 10162
  157.7507  131.0256  150.3928 LP  0  0  0  0  0  0  0  0  0  0  0  0  # atno 17370 bound_to 10713
  156.4227  130.3956  149.6814 LP  0  0  0  0  0  0  0  0  0  0  0  0  # atno 17371 bound_to 10713
  141.1142  133.6633  156.3052 LP  0  0  0  0  0  0  0  0  0  0  0  0  # atno 17394 bound_to 11000
  140.5776  134.5777  157.5472 LP  0  0  0  0  0  0  0  0  0  0  0  0  # atno 17395 bound_to 11000

$$$$
