AV-unprocessed.smi:2757|AV-procd|sdf|10620|dock3
  -GOLD-   2272015 63D 1   1.00000     0.00000
 Structure written by MMmdl.
 32 33  0  0  0  0  0  0  0  0  2 V2000
  152.7111  142.6373  160.7140 C   0  0  0  0  0  0  0  0  0  0  0  0
  152.4078  142.1451  159.3792 N   0  0  0  0  0  0  0  0  0  0  0  0
  151.1667  141.9517  158.9090 C   0  0  0  0  0  0  0  0  0  0  0  0
  150.1465  142.1759  159.5614 O   0  0  0  0  0  0  0  0  0  0  0  0
  151.0931  141.4153  157.5096 C   0  0  0  0  0  0  0  0  0  0  0  0
  152.2539  140.8955  156.8653 C   0  0  0  0  0  0  0  0  0  0  0  0
  151.8049  140.5168  155.6329 C   0  0  0  0  0  0  0  0  0  0  0  0
  150.4573  140.8048  155.5771 N   0  0  0  0  0  0  0  0  0  0  0  0
  149.5359  140.5821  154.4731 C   0  0  2  0  0  0  0  0  0  0  0  0
  148.0684  140.7741  154.9075 C   0  0  0  0  0  0  0  0  0  0  0  0
  147.1237  140.5136  153.7245 C   0  0  0  0  0  0  0  0  0  0  0  0
  147.3798  139.1261  153.1119 C   0  0  0  0  0  0  0  0  0  0  0  0
  148.7980  138.9808  152.7162 N   0  3  0  0  0  0  0  0  0  0  0  0
  149.7361  139.1879  153.8416 C   0  0  0  0  0  0  0  0  0  0  0  0
  150.0189  141.3515  156.7332 N   0  0  0  0  0  0  0  0  0  0  0  0
  153.7894  142.7379  160.8373 H   0  0  0  0  0  0  0  0  0  0  0  0
  152.3440  141.9461  161.4736 H   0  0  0  0  0  0  0  0  0  0  0  0
  152.2557  143.6142  160.8821 H   0  0  0  0  0  0  0  0  0  0  0  0
  153.1867  141.9291  158.7740 H   0  0  0  0  0  0  0  0  0  0  0  0
  153.2615  140.8151  157.2464 H   0  0  0  0  0  0  0  0  0  0  0  0
  152.3292  140.0716  154.8000 H   0  0  0  0  0  0  0  0  0  0  0  0
  149.7621  141.3321  153.7131 H   0  0  0  0  0  0  0  0  0  0  0  0
  147.8213  140.0911  155.7215 H   0  0  0  0  0  0  0  0  0  0  0  0
  147.9165  141.7837  155.2909 H   0  0  0  0  0  0  0  0  0  0  0  0
  146.0865  140.5911  154.0522 H   0  0  0  0  0  0  0  0  0  0  0  0
  147.2668  141.2833  152.9651 H   0  0  0  0  0  0  0  0  0  0  0  0
  147.1253  138.3426  153.8270 H   0  0  0  0  0  0  0  0  0  0  0  0
  146.7480  138.9765  152.2360 H   0  0  0  0  0  0  0  0  0  0  0  0
  148.9394  138.0549  152.3381 H   0  0  0  0  0  0  0  0  0  0  0  0
  150.7569  139.0802  153.4737 H   0  0  0  0  0  0  0  0  0  0  0  0
  149.5791  138.3998  154.5797 H   0  0  0  0  0  0  0  0  0  0  0  0
  149.0029  139.6607  151.9978 H   0  0  0  0  0  0  0  0  0  0  0  0
  1  2  1  0  0  0  0
  1 16  1  0  0  0  0
  1 17  1  0  0  0  0
  1 18  1  0  0  0  0
  2  3  1  0  0  0  0
  2 19  1  0  0  0  0
  3  4  2  0  0  0  0
  3  5  1  0  0  0  0
  5 15  2  0  0  0  0
  5  6  1  0  0  0  0
  6  7  2  0  0  0  0
  6 20  1  0  0  0  0
  7  8  1  0  0  0  0
  7 21  1  0  0  0  0
  8  9  1  0  0  0  0
  8 15  1  0  0  0  0
  9 14  1  0  0  0  0
  9 10  1  0  0  0  0
  9 22  1  0  0  0  0
 10 11  1  0  0  0  0
 10 23  1  0  0  0  0
 10 24  1  0  0  0  0
 11 12  1  0  0  0  0
 11 25  1  0  0  0  0
 11 26  1  0  0  0  0
 12 13  1  0  0  0  0
 12 27  1  0  0  0  0
 12 28  1  0  0  0  0
 13 14  1  0  0  0  0
 13 29  1  0  0  0  0
 13 32  1  0  0  0  0
 14 30  1  0  0  0  0
 14 31  1  0  0  0  0
M  CHG  1  13   1
M  END
> <s_m_source_file>
AV-unprocessed.smi

> <i_m_source_file_index>
2757

> <i_lp_mmshare_version>
43012

> <i_f3d_flags>
0

> <s_epik_input>
W0NIM11bTkhdQyg9TyljMVtjSF1bY0hdbihuMSlbQ0BASF0yW0NIMl1bQ0gyXVtDSDJdW05IXVtDSDJdMg==

> <s_epik_cmdline>
J2VwaWtfcHl0aG9uJywgJy1waCcsICc3LjAnLCAnLXRuJywgJzgnLCAnLW1hJywgJzIwMCcsICctbWV0YWxfYmluZGluZycsICctaW1hZScsICc8aW5maWxlLm1hZT4nLCAnLW9tYWUnLCAnPG91dGZpbGUubWFlPic=

> <r_lp_tautomer_probability>
1

> <r_epik_Ionization_Penalty>
0.000652722

> <r_epik_Ionization_Penalty_Charging>
0.000651447

> <r_epik_Ionization_Penalty_Neutral>
1.27533e-06

> <r_epik_State_Penalty>
0.000412577

> <r_epik_Charging_Adjusted_Penalty>
0.00106402

> <i_epik_Tot_Q>
1

> <i_epik_Tot_abs_Q>
1

> <r_epik_Metal_State_Penalty>
-0

> <b_epik_Metal_Only>
0

> <s_lp_Force_Field>
OPLS_2005

> <r_lp_Energy>
20.0976

> <b_lp_Chiralities_Consistent>
1

> <s_lp_Variant>
AV-unprocessed.smi:2757-1

> <Gold.Version>
5.8.1

> <Gold.Id.Protein>
6NUR|6NUR_protein|mol2

> <Gold.PLP.Fitness>
38.8627

> <Gold.PLP.PLP>
-31.4850

> <Gold.PLP.part.hbond>
-2.7827

> <Gold.PLP.part.metal>
0.0000

> <Gold.PLP.part.buried>
-3.7060

> <Gold.PLP.part.nonpolar>
-25.0697

> <Gold.PLP.part.repulsive>
0.3098

> <Gold.PLP.ligand.clash>
0.0000

> <Gold.PLP.ligand.torsion>
0.3958

> <Gold.PLP.Chemscore.Hbond>
2.7168

> <Gold.PLP.Chemscore.CHOScore>
0.0000

> <Gold.PLP.Chemscore.Metal>
0.0000

> <Gold.Chemscore.Hbonds>
donor molecule, donor type, donor heavy atom, donor atom, acceptor molecule, acceptor atom, score
      L1  H    13    29       P1  7948  2.00

> <Gold.PLP.Chemscore.Internal.Correction>
0.0191

> <Gold.Rescore>
     Score         DG    S(hbond)    S(metal)    S(lipo)     H(rot)  DE(clash)    DE(int)     intcor
     16.05     -16.79       1.97        0.00      62.22       1.00       0.00       0.74       ----

> <Gold.Chemscore.Fitness>
16.0468

> <Gold.Chemscore.DG>
-16.7900

> <Gold.Chemscore.ZeroCoef>
-5.4800

> <Gold.Chemscore.Hbond>
1.9731

> <Gold.Chemscore.Metal>
0.0000

> <Gold.Chemscore.Lipo>
62.2217

> <Gold.Chemscore.Internal_Hbond>
0.0000

> <Gold.Chemscore.DEClash>
0.0021

> <Gold.Chemscore.DEInternal>
0.7411

> <Gold.Chemscore.Rot>
1.0000

> <Gold.Chemscore.Internal.Correction>
   9.000000E+99

> <Gold.Chemscore.Hbonds>
donor molecule, donor type, donor heavy atom, donor atom, acceptor molecule, acceptor atom, score
      L1  H    13    29       P1  7948  0.98
      L1  H    13    32       P1  7957  0.03

> <Gold.Chemscore.Hbond.Weighted>
-6.5901

> <Gold.Chemscore.Metal.Weighted>
-0.0000

> <Gold.Chemscore.Lipo.Weighted>
-7.2799

> <Gold.Chemscore.Internal_Hbond.Weighted>
0.0000

> <Gold.Chemscore.DEClash.Weighted>
0.0021

> <Gold.Chemscore.DEInternal.Weighted>
0.7411

> <Gold.Chemscore.Rot.Weighted>
2.5600

> <Gold.Chemscore.Internal.Correction.Weighted>
   9.000000E+99

> <Gold.Protein.RotatedTorsions>
[ 6907 6896 6895 6894 ] final  133.56 input  -60.11 | X-H torsion
[ 7974 7965 7964 7962 ] final  152.00 input  175.53 | X-H torsion
[ 8008 7997 7996 7995 ] final -135.87 input   59.86 | X-H torsion
[ 10167 10162 10161 10158 ] final  -13.65 input  -65.29 | X-H torsion
[ 10718 10713 10712 10709 ] final  -11.71 input   66.30 | X-H torsion
[ 10763 10752 10751 10750 ] final   55.80 input  -60.55 | X-H torsion
[ 11005 11000 10999 10996 ] final  119.63 input  -57.11 | X-H torsion

> <Gold.Protein.ActiveResidues>
 VAL166  LYS551  ARG553  GLY616  TRP617  ASP618  TYR619  PRO620  LYS621  CYS622 
 ASP623  PHE694  ASN695  SER759  ASP760  ASP761  ALA762  ILE779  LEU786  VAL792 
 PHE793  MET794  SER795  GLU796  ALA797  LYS798  CYS799  TRP800  GLU811  SER814 

> <Gold.Protein.RotatedAtoms>
  152.3207  133.5850  159.5742 H   0  0  0  0  0  0  0  0  0  0  0  0  # atno 6907 bound_to 6896
  150.7370  134.0016  159.3649 H   0  0  0  0  0  0  0  0  0  0  0  0  # atno 6908 bound_to 6896
  151.7900  135.0739  160.0437 H   0  0  0  0  0  0  0  0  0  0  0  0  # atno 6909 bound_to 6896
  144.8253  139.6611  143.6083 H   0  0  0  0  0  0  0  0  0  0  0  0  # atno 7974 bound_to 7965
  155.3857  140.0497  157.3042 H   0  0  0  0  0  0  0  0  0  0  0  0  # atno 8008 bound_to 7997
  154.5060  140.2174  155.9211 H   0  0  0  0  0  0  0  0  0  0  0  0  # atno 8009 bound_to 7997
  156.1526  140.3133  155.8679 H   0  0  0  0  0  0  0  0  0  0  0  0  # atno 8010 bound_to 7997
  140.7186  143.5404  150.9416 H   0  0  0  0  0  0  0  0  0  0  0  0  # atno 10167 bound_to 10162
  156.6552  130.4966  149.6049 H   0  0  0  0  0  0  0  0  0  0  0  0  # atno 10718 bound_to 10713
  152.9822  135.5698  154.5126 H   0  0  0  0  0  0  0  0  0  0  0  0  # atno 10763 bound_to 10752
  154.4627  135.2782  155.1703 H   0  0  0  0  0  0  0  0  0  0  0  0  # atno 10764 bound_to 10752
  154.3284  135.6254  153.5593 H   0  0  0  0  0  0  0  0  0  0  0  0  # atno 10765 bound_to 10752
  139.9154  134.9630  156.7685 H   0  0  0  0  0  0  0  0  0  0  0  0  # atno 11005 bound_to 11000
  146.2558  139.6299  142.9396 LP  0  0  0  0  0  0  0  0  0  0  0  0  # atno 17320 bound_to 7965
  145.5015  141.0437  143.2538 LP  0  0  0  0  0  0  0  0  0  0  0  0  # atno 17321 bound_to 7965
  139.9126  143.6701  152.3112 LP  0  0  0  0  0  0  0  0  0  0  0  0  # atno 17342 bound_to 10162
  139.7090  144.7623  151.1144 LP  0  0  0  0  0  0  0  0  0  0  0  0  # atno 17343 bound_to 10162
  156.2054  130.6645  151.1212 LP  0  0  0  0  0  0  0  0  0  0  0  0  # atno 17370 bound_to 10713
  157.7128  131.0725  150.6439 LP  0  0  0  0  0  0  0  0  0  0  0  0  # atno 17371 bound_to 10713
  140.6640  133.9619  155.7820 LP  0  0  0  0  0  0  0  0  0  0  0  0  # atno 17394 bound_to 11000
  141.0623  134.0327  157.3641 LP  0  0  0  0  0  0  0  0  0  0  0  0  # atno 17395 bound_to 11000

$$$$
