AV-unprocessed.smi:2340|AV-procd|sdf|9347|dock4
  -GOLD-   2272012563D 1   1.00000     0.00000
 Structure written by MMmdl.
 40 41  0  0  0  0  0  0  0  0  1 V2000
  154.7108  140.3974  160.1688 C   0  0  0  0  0  0  0  0  0  0  0  0
  153.8425  141.5349  160.6042 C   0  0  0  0  0  0  0  0  0  0  0  0
  153.4888  141.8612  161.8896 C   0  0  0  0  0  0  0  0  0  0  0  0
  152.4436  143.2537  161.9415 S   0  0  0  0  0  0  0  0  0  0  0  0
  152.5275  143.3454  160.1854 C   0  0  0  0  0  0  0  0  0  0  0  0
  151.7804  144.3650  159.3799 C   0  0  1  0  0  0  0  0  0  0  0  0
  151.8783  145.7681  159.9958 C   0  0  0  0  0  0  0  0  0  0  0  0
  152.1434  144.3414  157.8791 C   0  0  0  0  0  0  0  0  0  0  0  0
  151.1098  143.6991  157.0685 N   0  0  0  0  0  0  0  0  0  0  0  0
  150.8715  142.3807  157.0106 C   0  0  0  0  0  0  0  0  0  0  0  0
  151.5316  141.5304  157.6073 O   0  0  0  0  0  0  0  0  0  0  0  0
  149.8176  142.1018  156.2312 N   0  0  0  0  0  0  0  0  0  0  0  0
  149.2700  140.7652  155.9971 C   0  0  1  0  0  0  0  0  0  0  0  0
  148.7686  140.1549  157.3051 C   0  0  0  0  0  0  0  0  0  0  0  0
  147.3664  139.6574  156.9709 C   0  0  0  0  0  0  0  0  0  0  0  0
  146.9316  140.5587  155.9684 O   0  0  0  0  0  0  0  0  0  0  0  0
  148.0234  140.7553  155.0819 C   0  0  1  0  0  0  0  0  0  0  0  0
  147.7739  141.9922  154.2038 C   0  0  0  0  0  0  0  0  0  0  0  0
  153.2962  142.3938  159.6472 N   0  0  0  0  0  0  0  0  0  0  0  0
  155.0743  139.8230  161.0212 H   0  0  0  0  0  0  0  0  0  0  0  0
  155.5800  140.7544  159.6163 H   0  0  0  0  0  0  0  0  0  0  0  0
  154.1634  139.7130  159.5204 H   0  0  0  0  0  0  0  0  0  0  0  0
  153.7740  141.3658  162.8057 H   0  0  0  0  0  0  0  0  0  0  0  0
  150.7283  144.0839  159.4432 H   0  0  0  0  0  0  0  0  0  0  0  0
  151.5218  145.7704  161.0265 H   0  0  0  0  0  0  0  0  0  0  0  0
  151.2764  146.4850  159.4366 H   0  0  0  0  0  0  0  0  0  0  0  0
  152.9072  146.1292  159.9979 H   0  0  0  0  0  0  0  0  0  0  0  0
  152.2715  145.3609  157.5145 H   0  0  0  0  0  0  0  0  0  0  0  0
  153.1060  143.8471  157.7365 H   0  0  0  0  0  0  0  0  0  0  0  0
  150.5102  144.3110  156.5345 H   0  0  0  0  0  0  0  0  0  0  0  0
  149.3449  142.8701  155.7782 H   0  0  0  0  0  0  0  0  0  0  0  0
  150.0341  140.1155  155.5662 H   0  0  0  0  0  0  0  0  0  0  0  0
  149.4133  139.3555  157.6711 H   0  0  0  0  0  0  0  0  0  0  0  0
  148.7034  140.9103  158.0898 H   0  0  0  0  0  0  0  0  0  0  0  0
  147.3982  138.6457  156.5637 H   0  0  0  0  0  0  0  0  0  0  0  0
  146.7007  139.6604  157.8342 H   0  0  0  0  0  0  0  0  0  0  0  0
  148.0783  139.8771  154.4359 H   0  0  0  0  0  0  0  0  0  0  0  0
  148.6086  142.1671  153.5246 H   0  0  0  0  0  0  0  0  0  0  0  0
  147.6301  142.8903  154.8049 H   0  0  0  0  0  0  0  0  0  0  0  0
  146.8779  141.8585  153.5974 H   0  0  0  0  0  0  0  0  0  0  0  0
  1  2  1  0  0  0  0
  1 20  1  0  0  0  0
  1 21  1  0  0  0  0
  1 22  1  0  0  0  0
  2 19  1  0  0  0  0
  2  3  2  0  0  0  0
  3  4  1  0  0  0  0
  3 23  1  0  0  0  0
  4  5  1  0  0  0  0
  5  6  1  0  0  0  0
  5 19  2  0  0  0  0
  6  7  1  0  0  0  0
  6  8  1  0  0  0  0
  6 24  1  0  0  0  0
  7 25  1  0  0  0  0
  7 26  1  0  0  0  0
  7 27  1  0  0  0  0
  8  9  1  0  0  0  0
  8 28  1  0  0  0  0
  8 29  1  0  0  0  0
  9 10  1  0  0  0  0
  9 30  1  0  0  0  0
 10 11  2  0  0  0  0
 10 12  1  0  0  0  0
 12 13  1  0  0  0  0
 12 31  1  0  0  0  0
 13 17  1  0  0  0  0
 13 14  1  0  0  0  0
 13 32  1  0  0  0  0
 14 15  1  0  0  0  0
 14 33  1  0  0  0  0
 14 34  1  0  0  0  0
 15 16  1  0  0  0  0
 15 35  1  0  0  0  0
 15 36  1  0  0  0  0
 16 17  1  0  0  0  0
 17 18  1  0  0  0  0
 17 37  1  0  0  0  0
 18 38  1  0  0  0  0
 18 39  1  0  0  0  0
 18 40  1  0  0  0  0
M  END
> <s_m_source_file>
AV-unprocessed.smi

> <i_m_source_file_index>
2340

> <i_lp_mmshare_version>
43012

> <i_f3d_flags>
0

> <s_epik_input>
W0NIM11jMVtjSF1zYyhuMSlbQ0BIXShbQ0gzXSlbQ0gyXVtOSF1DKD1PKVtOSF1bQ0BASF0yW0NIMl1bQ0gyXU9bQ0BIXTJbQ0gzXQ==

> <s_epik_cmdline>
J2VwaWtfcHl0aG9uJywgJy1waCcsICc3LjAnLCAnLXRuJywgJzgnLCAnLW1hJywgJzIwMCcsICctbWV0YWxfYmluZGluZycsICctaW1hZScsICc8aW5maWxlLm1hZT4nLCAnLW9tYWUnLCAnPG91dGZpbGUubWFlPic=

> <r_epik_Ionization_Penalty>
0.00156622

> <r_epik_Ionization_Penalty_Charging>
0

> <r_epik_Ionization_Penalty_Neutral>
0.00156622

> <r_epik_State_Penalty>
0.00101902

> <r_epik_Charging_Adjusted_Penalty>
0.00101902

> <i_epik_Tot_Q>
0

> <i_epik_Tot_abs_Q>
0

> <r_epik_Metal_State_Penalty>
-0

> <b_epik_Metal_Only>
0

> <s_lp_Force_Field>
OPLS_2005

> <r_lp_Energy>
5.75985

> <b_lp_Chiralities_Consistent>
1

> <s_lp_Variant>
AV-unprocessed.smi:2340-4

> <Gold.Version>
5.8.1

> <Gold.Id.Protein>
6NUR|6NUR_protein|mol2

> <Gold.PLP.Fitness>
50.1608

> <Gold.PLP.PLP>
-46.0915

> <Gold.PLP.part.hbond>
-2.0000

> <Gold.PLP.part.metal>
0.0000

> <Gold.PLP.part.buried>
-5.4696

> <Gold.PLP.part.nonpolar>
-38.2483

> <Gold.PLP.part.repulsive>
0.1520

> <Gold.PLP.ligand.clash>
0.0000

> <Gold.PLP.ligand.torsion>
1.0283

> <Gold.PLP.Chemscore.Hbond>
2.0000

> <Gold.PLP.Chemscore.CHOScore>
0.0000

> <Gold.PLP.Chemscore.Metal>
0.0000

> <Gold.Chemscore.Hbonds>
donor molecule, donor type, donor heavy atom, donor atom, acceptor molecule, acceptor atom, score
      L1  H     9    30       P1  8028  1.00
      L1  H    12    31       P1  8028  1.00

> <Gold.PLP.Chemscore.Internal.Correction>
0.1258

> <Gold.Rescore>
     Score         DG    S(hbond)    S(metal)    S(lipo)     H(rot)  DE(clash)    DE(int)     intcor
     18.47     -21.37       1.92        0.00     114.58       1.53       0.11       2.79       ----

> <Gold.Chemscore.Fitness>
18.4691

> <Gold.Chemscore.DG>
-21.3654

> <Gold.Chemscore.ZeroCoef>
-5.4800

> <Gold.Chemscore.Hbond>
1.9172

> <Gold.Chemscore.Metal>
0.0000

> <Gold.Chemscore.Lipo>
114.5763

> <Gold.Chemscore.Internal_Hbond>
0.0000

> <Gold.Chemscore.DEClash>
0.1073

> <Gold.Chemscore.DEInternal>
2.7890

> <Gold.Chemscore.Rot>
1.5325

> <Gold.Chemscore.Internal.Correction>
   9.000000E+99

> <Gold.Chemscore.Hbonds>
donor molecule, donor type, donor heavy atom, donor atom, acceptor molecule, acceptor atom, score
      L1  H     9    30       P1  8028  0.97
      L1  H    12    31       P1  8028  0.96

> <Gold.Chemscore.Hbond.Weighted>
-6.4033

> <Gold.Chemscore.Metal.Weighted>
-0.0000

> <Gold.Chemscore.Lipo.Weighted>
-13.4054

> <Gold.Chemscore.Internal_Hbond.Weighted>
0.0000

> <Gold.Chemscore.DEClash.Weighted>
0.1073

> <Gold.Chemscore.DEInternal.Weighted>
2.7890

> <Gold.Chemscore.Rot.Weighted>
3.9233

> <Gold.Chemscore.Internal.Correction.Weighted>
   9.000000E+99

> <Gold.Protein.RotatedTorsions>
[ 6907 6896 6895 6894 ] final  121.75 input  -60.11 | X-H torsion
[ 7974 7965 7964 7962 ] final  -78.57 input  175.53 | X-H torsion
[ 8008 7997 7996 7995 ] final -155.98 input   59.86 | X-H torsion
[ 10167 10162 10161 10158 ] final   12.90 input  -65.29 | X-H torsion
[ 10718 10713 10712 10709 ] final   87.39 input   66.30 | X-H torsion
[ 10763 10752 10751 10750 ] final  171.59 input  -60.55 | X-H torsion
[ 11005 11000 10999 10996 ] final   88.36 input  -57.11 | X-H torsion

> <Gold.Protein.ActiveResidues>
 VAL166  LYS551  ARG553  GLY616  TRP617  ASP618  TYR619  PRO620  LYS621  CYS622 
 ASP623  PHE694  ASN695  SER759  ASP760  ASP761  ALA762  ILE779  LEU786  VAL792 
 PHE793  MET794  SER795  GLU796  ALA797  LYS798  CYS799  TRP800  GLU811  SER814 

> <Gold.Protein.RotatedAtoms>
  152.4297  133.7257  159.6558 H   0  0  0  0  0  0  0  0  0  0  0  0  # atno 6907 bound_to 6896
  150.8176  133.8299  159.3159 H   0  0  0  0  0  0  0  0  0  0  0  0  # atno 6908 bound_to 6896
  151.5991  135.1050  160.0108 H   0  0  0  0  0  0  0  0  0  0  0  0  # atno 6909 bound_to 6896
  145.5847  140.9441  143.1325 H   0  0  0  0  0  0  0  0  0  0  0  0  # atno 7974 bound_to 7965
  155.7102  140.0777  157.2374 H   0  0  0  0  0  0  0  0  0  0  0  0  # atno 8008 bound_to 7997
  154.4059  140.1631  156.2342 H   0  0  0  0  0  0  0  0  0  0  0  0  # atno 8009 bound_to 7997
  155.9289  140.3392  155.6236 H   0  0  0  0  0  0  0  0  0  0  0  0  # atno 8010 bound_to 7997
  140.6038  143.8550  150.6992 H   0  0  0  0  0  0  0  0  0  0  0  0  # atno 10167 bound_to 10162
  157.6939  131.0253  150.3116 H   0  0  0  0  0  0  0  0  0  0  0  0  # atno 10718 bound_to 10713
  154.4141  135.2756  155.2018 H   0  0  0  0  0  0  0  0  0  0  0  0  # atno 10763 bound_to 10752
  154.3991  135.6048  153.5890 H   0  0  0  0  0  0  0  0  0  0  0  0  # atno 10764 bound_to 10752
  152.9831  135.5922  154.4427 H   0  0  0  0  0  0  0  0  0  0  0  0  # atno 10765 bound_to 10752
  139.8898  134.8482  156.2989 H   0  0  0  0  0  0  0  0  0  0  0  0  # atno 11005 bound_to 11000
  144.7378  139.7535  143.7322 LP  0  0  0  0  0  0  0  0  0  0  0  0  # atno 17320 bound_to 7965
  146.1691  139.4834  142.9939 LP  0  0  0  0  0  0  0  0  0  0  0  0  # atno 17321 bound_to 7965
  140.2102  143.3889  152.1724 LP  0  0  0  0  0  0  0  0  0  0  0  0  # atno 17342 bound_to 10162
  139.5310  144.7158  151.5057 LP  0  0  0  0  0  0  0  0  0  0  0  0  # atno 17343 bound_to 10162
  156.3616  130.3848  149.7246 LP  0  0  0  0  0  0  0  0  0  0  0  0  # atno 17370 bound_to 10713
  156.4691  130.7988  151.3006 LP  0  0  0  0  0  0  0  0  0  0  0  0  # atno 17371 bound_to 10713
  140.9926  133.7199  156.0837 LP  0  0  0  0  0  0  0  0  0  0  0  0  # atno 17394 bound_to 11000
  140.7604  134.3945  157.5526 LP  0  0  0  0  0  0  0  0  0  0  0  0  # atno 17395 bound_to 11000

$$$$
