AV-unprocessed.smi:15|AV-procd|sdf|83|dock5
  -GOLD-   2262015213D 1   1.00000     0.00000
 Structure written by MMmdl.
 53 56  0  0  0  0  0  0  0  0  1 V2000
  151.9232  138.0279  159.2305 C   0  0  0  0  0  0  0  0  0  0  0  0
  152.8417  138.9808  158.4537 C   0  0  0  0  0  0  0  0  0  0  0  0
  152.1092  140.0281  157.7360 N   0  0  0  0  0  0  0  0  0  0  0  0
  151.3692  141.0391  158.4962 C   0  0  0  0  0  0  0  0  0  0  0  0
  151.8912  142.4704  158.2759 C   0  0  2  0  0  0  0  0  0  0  0  0
  152.5851  143.0545  159.5025 C   0  0  0  0  0  0  0  0  0  0  0  0
  152.4991  144.5516  159.2630 C   0  0  0  0  0  0  0  0  0  0  0  0
  151.3215  144.7006  158.2945 C   0  0  0  0  0  0  0  0  0  0  0  0
  150.8213  143.3844  158.0932 O   0  0  0  0  0  0  0  0  0  0  0  0
  151.5357  139.6762  156.5553 C   0  0  0  0  0  0  0  0  0  0  0  0
  151.9375  138.5406  155.9230 N   0  0  0  0  0  0  0  0  0  0  0  0
  151.3663  138.1672  154.7744 C   0  0  0  0  0  0  0  0  0  0  0  0
  150.3925  138.7721  154.0922 N   0  0  0  0  0  0  0  0  0  0  0  0
  149.9915  139.9175  154.7142 C   0  0  0  0  0  0  0  0  0  0  0  0
  150.5027  140.4370  155.9372 C   0  0  0  0  0  0  0  0  0  0  0  0
  149.8505  141.6233  156.2533 N   0  0  0  0  0  0  0  0  0  0  0  0
  148.9962  141.7883  155.2810 C   0  0  0  0  0  0  0  0  0  0  0  0
  149.0235  140.8182  154.3048 N   0  0  0  0  0  0  0  0  0  0  0  0
  148.1858  140.7512  153.1176 C   0  0  0  0  0  0  0  0  0  0  0  0
  147.0325  139.7163  153.1851 C   0  0  1  0  0  0  0  0  0  0  0  0
  145.9209  140.4033  153.7351 O   0  0  0  0  0  0  0  0  0  0  0  0
  146.6180  139.1222  151.8464 C   0  0  0  0  0  0  0  0  0  0  0  0
  145.8566  137.8671  152.2619 C   0  0  0  0  0  0  0  0  0  0  0  0
  146.4944  137.4104  153.4496 O   0  0  0  0  0  0  0  0  0  0  0  0
  147.3252  138.4337  153.9953 C   0  0  2  0  0  0  0  0  0  0  0  0
  147.1608  138.5336  155.5198 C   0  0  0  0  0  0  0  0  0  0  0  0
  152.5120  137.3263  159.8210 H   0  0  0  0  0  0  0  0  0  0  0  0
  151.2942  137.4392  158.5629 H   0  0  0  0  0  0  0  0  0  0  0  0
  151.2746  138.5751  159.9149 H   0  0  0  0  0  0  0  0  0  0  0  0
  153.5239  139.4450  159.1677 H   0  0  0  0  0  0  0  0  0  0  0  0
  153.4596  138.4176  157.7539 H   0  0  0  0  0  0  0  0  0  0  0  0
  150.3084  140.9857  158.2527 H   0  0  0  0  0  0  0  0  0  0  0  0
  151.4246  140.8087  159.5591 H   0  0  0  0  0  0  0  0  0  0  0  0
  152.5661  142.5189  157.4193 H   0  0  0  0  0  0  0  0  0  0  0  0
  152.0318  142.7949  160.4065 H   0  0  0  0  0  0  0  0  0  0  0  0
  153.6096  142.7000  159.6194 H   0  0  0  0  0  0  0  0  0  0  0  0
  152.3438  145.0996  160.1927 H   0  0  0  0  0  0  0  0  0  0  0  0
  153.4152  144.9230  158.8020 H   0  0  0  0  0  0  0  0  0  0  0  0
  150.5386  145.3481  158.6895 H   0  0  0  0  0  0  0  0  0  0  0  0
  151.6560  145.1131  157.3419 H   0  0  0  0  0  0  0  0  0  0  0  0
  151.7426  137.2523  154.3408 H   0  0  0  0  0  0  0  0  0  0  0  0
  148.3230  142.6327  155.2452 H   0  0  0  0  0  0  0  0  0  0  0  0
  147.7800  141.7478  152.9385 H   0  0  0  0  0  0  0  0  0  0  0  0
  148.8307  140.5317  152.2655 H   0  0  0  0  0  0  0  0  0  0  0  0
  145.1851  140.2967  153.1516 H   0  0  0  0  0  0  0  0  0  0  0  0
  146.0247  139.7993  151.2307 H   0  0  0  0  0  0  0  0  0  0  0  0
  147.4890  138.8206  151.2659 H   0  0  0  0  0  0  0  0  0  0  0  0
  144.8187  138.1088  152.4938 H   0  0  0  0  0  0  0  0  0  0  0  0
  145.8601  137.1004  151.4871 H   0  0  0  0  0  0  0  0  0  0  0  0
  148.3398  138.0992  153.7844 H   0  0  0  0  0  0  0  0  0  0  0  0
  147.7920  139.3215  155.9311 H   0  0  0  0  0  0  0  0  0  0  0  0
  147.4467  137.5972  155.9991 H   0  0  0  0  0  0  0  0  0  0  0  0
  146.1289  138.7434  155.8024 H   0  0  0  0  0  0  0  0  0  0  0  0
  1  2  1  0  0  0  0
  1 27  1  0  0  0  0
  1 28  1  0  0  0  0
  1 29  1  0  0  0  0
  2  3  1  0  0  0  0
  2 30  1  0  0  0  0
  2 31  1  0  0  0  0
  3  4  1  0  0  0  0
  3 10  1  0  0  0  0
  4  5  1  0  0  0  0
  4 32  1  0  0  0  0
  4 33  1  0  0  0  0
  5  9  1  0  0  0  0
  5  6  1  0  0  0  0
  5 34  1  0  0  0  0
  6  7  1  0  0  0  0
  6 35  1  0  0  0  0
  6 36  1  0  0  0  0
  7  8  1  0  0  0  0
  7 37  1  0  0  0  0
  7 38  1  0  0  0  0
  8  9  1  0  0  0  0
  8 39  1  0  0  0  0
  8 40  1  0  0  0  0
 10 15  1  0  0  0  0
 10 11  2  0  0  0  0
 11 12  1  0  0  0  0
 12 13  2  0  0  0  0
 12 41  1  0  0  0  0
 13 14  1  0  0  0  0
 14 18  1  0  0  0  0
 14 15  2  0  0  0  0
 15 16  1  0  0  0  0
 16 17  2  0  0  0  0
 17 18  1  0  0  0  0
 17 42  1  0  0  0  0
 18 19  1  0  0  0  0
 19 20  1  0  0  0  0
 19 43  1  0  0  0  0
 19 44  1  0  0  0  0
 20 25  1  0  0  0  0
 20 21  1  0  0  0  0
 20 22  1  0  0  0  0
 21 45  1  0  0  0  0
 22 23  1  0  0  0  0
 22 46  1  0  0  0  0
 22 47  1  0  0  0  0
 23 24  1  0  0  0  0
 23 48  1  0  0  0  0
 23 49  1  0  0  0  0
 24 25  1  0  0  0  0
 25 26  1  0  0  0  0
 25 50  1  0  0  0  0
 26 51  1  0  0  0  0
 26 52  1  0  0  0  0
 26 53  1  0  0  0  0
M  END
> <s_m_source_file>
AV-unprocessed.smi

> <i_m_source_file_index>
15

> <i_lp_mmshare_version>
43012

> <i_f3d_flags>
0

> <s_epik_input>
TzFbQ0gyXVtDSDJdW0NIMl1bQ0BIXTFbQ0gyXU4oW0NIMl1bQ0gzXSljKG5bY0hdbjIpYyhjMjMpbltjSF1uM1tDSDJdW0NAQF00KFtPSF0pW0NIMl1bQ0gyXU9bQ0BIXTRbQ0gzXQ==

> <s_epik_cmdline>
J2VwaWtfcHl0aG9uJywgJy1waCcsICc3LjAnLCAnLXRuJywgJzgnLCAnLW1hJywgJzIwMCcsICctbWV0YWxfYmluZGluZycsICctaW1hZScsICc8aW5maWxlLm1hZT4nLCAnLW9tYWUnLCAnPG91dGZpbGUubWFlPic=

> <r_lp_tautomer_probability>
1

> <r_epik_Ionization_Penalty>
0.00360814

> <r_epik_Ionization_Penalty_Charging>
0

> <r_epik_Ionization_Penalty_Neutral>
0.00360814

> <r_epik_State_Penalty>
0.00237482

> <r_epik_Charging_Adjusted_Penalty>
0.00237482

> <i_epik_Tot_Q>
0

> <i_epik_Tot_abs_Q>
0

> <r_epik_Metal_State_Penalty>
-0

> <b_epik_Metal_Only>
0

> <s_lp_Force_Field>
OPLS_2005

> <r_lp_Energy>
48.2804

> <b_lp_Chiralities_Consistent>
1

> <s_lp_Variant>
AV-unprocessed.smi:15-5

> <Gold.Version>
5.8.1

> <Gold.Id.Protein>
6NUR|6NUR_protein|mol2

> <Gold.PLP.Fitness>
48.2073

> <Gold.PLP.PLP>
-45.2322

> <Gold.PLP.part.hbond>
-1.0000

> <Gold.PLP.part.metal>
0.0000

> <Gold.PLP.part.buried>
-0.0811

> <Gold.PLP.part.nonpolar>
-45.6031

> <Gold.PLP.part.repulsive>
0.8734

> <Gold.PLP.ligand.clash>
0.0000

> <Gold.PLP.ligand.torsion>
1.8345

> <Gold.PLP.Chemscore.Hbond>
1.0000

> <Gold.PLP.Chemscore.CHOScore>
0.9140

> <Gold.PLP.Chemscore.Metal>
0.0000

> <Gold.Chemscore.Hbonds>
donor molecule, donor type, donor heavy atom, donor atom, acceptor molecule, acceptor atom, score
      L1  H    21    45       P1 10175  1.00
      L1  C    17    42       P1  8028  0.92

> <Gold.PLP.Chemscore.Internal.Correction>
0.9020

> <Gold.Rescore>
     Score         DG    S(hbond)    S(metal)    S(lipo)     H(rot)  DE(clash)    DE(int)     intcor
     10.27     -15.03       1.00        0.00     106.56       2.44       1.67       3.09       ----

> <Gold.Chemscore.Fitness>
10.2689

> <Gold.Chemscore.DG>
-15.0276

> <Gold.Chemscore.ZeroCoef>
-5.4800

> <Gold.Chemscore.Hbond>
0.9984

> <Gold.Chemscore.Metal>
0.0000

> <Gold.Chemscore.Lipo>
106.5581

> <Gold.Chemscore.Internal_Hbond>
0.0000

> <Gold.Chemscore.DEClash>
1.6698

> <Gold.Chemscore.DEInternal>
3.0889

> <Gold.Chemscore.Rot>
2.4431

> <Gold.Chemscore.Internal.Correction>
   9.000000E+99

> <Gold.Chemscore.Hbonds>
donor molecule, donor type, donor heavy atom, donor atom, acceptor molecule, acceptor atom, score
      L1  H    21    45       P1 10175  0.99

> <Gold.Chemscore.Hbond.Weighted>
-3.3347

> <Gold.Chemscore.Metal.Weighted>
-0.0000

> <Gold.Chemscore.Lipo.Weighted>
-12.4673

> <Gold.Chemscore.Internal_Hbond.Weighted>
0.0000

> <Gold.Chemscore.DEClash.Weighted>
1.6698

> <Gold.Chemscore.DEInternal.Weighted>
3.0889

> <Gold.Chemscore.Rot.Weighted>
6.2544

> <Gold.Chemscore.Internal.Correction.Weighted>
   9.000000E+99

> <Gold.Protein.RotatedTorsions>
[ 6907 6896 6895 6894 ] final   -5.86 input  -60.11 | X-H torsion
[ 7974 7965 7964 7962 ] final   10.08 input  175.53 | X-H torsion
[ 8008 7997 7996 7995 ] final  -23.05 input   59.86 | X-H torsion
[ 10167 10162 10161 10158 ] final -103.14 input  -65.29 | X-H torsion
[ 10718 10713 10712 10709 ] final  -89.31 input   66.30 | X-H torsion
[ 10763 10752 10751 10750 ] final  134.99 input  -60.55 | X-H torsion
[ 11005 11000 10999 10996 ] final  -81.89 input  -57.11 | X-H torsion

> <Gold.Protein.ActiveResidues>
 VAL166  LYS551  ARG553  GLY616  TRP617  ASP618  TYR619  PRO620  LYS621  CYS622 
 ASP623  PHE694  ASN695  SER759  ASP760  ASP761  ALA762  ILE779  LEU786  VAL792 
 PHE793  MET794  SER795  GLU796  ALA797  LYS798  CYS799  TRP800  GLU811  SER814 

> <Gold.Protein.RotatedAtoms>
  151.4748  135.1048  159.9761 H   0  0  0  0  0  0  0  0  0  0  0  0  # atno 6907 bound_to 6896
  152.4802  133.8232  159.7075 H   0  0  0  0  0  0  0  0  0  0  0  0  # atno 6908 bound_to 6896
  150.8868  133.7235  159.2942 H   0  0  0  0  0  0  0  0  0  0  0  0  # atno 6909 bound_to 6896
  146.2394  139.9687  142.8449 H   0  0  0  0  0  0  0  0  0  0  0  0  # atno 7974 bound_to 7965
  154.4608  140.1991  156.0251 H   0  0  0  0  0  0  0  0  0  0  0  0  # atno 8008 bound_to 7997
  156.0836  140.3268  155.7696 H   0  0  0  0  0  0  0  0  0  0  0  0  # atno 8009 bound_to 7997
  155.5072  140.0558  157.2920 H   0  0  0  0  0  0  0  0  0  0  0  0  # atno 8010 bound_to 7997
  140.2231  143.3661  152.0952 H   0  0  0  0  0  0  0  0  0  0  0  0  # atno 10167 bound_to 10162
  155.9984  130.4867  150.5152 H   0  0  0  0  0  0  0  0  0  0  0  0  # atno 10718 bound_to 10713
  153.8327  135.3101  155.3420 H   0  0  0  0  0  0  0  0  0  0  0  0  # atno 10763 bound_to 10752
  154.7966  135.4751  154.0179 H   0  0  0  0  0  0  0  0  0  0  0  0  # atno 10764 bound_to 10752
  153.1624  135.6863  153.8814 H   0  0  0  0  0  0  0  0  0  0  0  0  # atno 10765 bound_to 10752
  141.1665  133.7218  156.8490 H   0  0  0  0  0  0  0  0  0  0  0  0  # atno 11005 bound_to 11000
  145.1701  140.9717  143.4326 LP  0  0  0  0  0  0  0  0  0  0  0  0  # atno 17320 bound_to 7965
  145.0036  139.3575  143.6155 LP  0  0  0  0  0  0  0  0  0  0  0  0  # atno 17321 bound_to 7965
  139.5137  144.6936  151.5692 LP  0  0  0  0  0  0  0  0  0  0  0  0  # atno 17342 bound_to 10162
  140.6240  143.9204  150.6549 LP  0  0  0  0  0  0  0  0  0  0  0  0  # atno 17343 bound_to 10162
  157.3120  131.0665  151.1994 LP  0  0  0  0  0  0  0  0  0  0  0  0  # atno 17370 bound_to 10713
  157.2937  130.6809  149.6127 LP  0  0  0  0  0  0  0  0  0  0  0  0  # atno 17371 bound_to 10713
  140.1929  134.8953  157.3081 LP  0  0  0  0  0  0  0  0  0  0  0  0  # atno 17394 bound_to 11000
  140.2271  134.3954  155.7539 LP  0  0  0  0  0  0  0  0  0  0  0  0  # atno 17395 bound_to 11000

$$$$
