AV-unprocessed.smi:2204|AV-procd|sdf|8939|dock10
  -GOLD-   2272012153D 1   1.00000     0.00000
 Structure written by MMmdl.
 39 40  0  0  0  0  0  0  0  0  1 V2000
  154.5820  139.6926  160.3509 C   0  0  0  0  0  0  0  0  0  0  0  0
  153.8980  141.0049  160.5966 C   0  0  0  0  0  0  0  0  0  0  0  0
  153.6624  141.6558  161.8392 C   0  0  0  0  0  0  0  0  0  0  0  0
  152.9892  142.7957  161.5011 C   0  0  0  0  0  0  0  0  0  0  0  0
  152.4450  143.8821  162.3690 C   0  0  0  0  0  0  0  0  0  0  0  0
  152.8578  142.7918  160.1230 N   0  0  0  0  0  0  0  0  0  0  0  0
  152.1953  143.7590  159.2560 C   0  0  0  0  0  0  0  0  0  0  0  0
  151.0740  143.1103  158.4379 C   0  0  0  0  0  0  0  0  0  0  0  0
  149.9152  143.5055  158.5613 O   0  0  0  0  0  0  0  0  0  0  0  0
  151.4387  142.1290  157.5979 N   0  0  0  0  0  0  0  0  0  0  0  0
  150.5941  141.4909  156.5927 C   0  0  2  0  0  0  0  0  0  0  0  0
  149.3883  140.8236  157.2693 C   0  0  0  0  0  0  0  0  0  0  0  0
  151.4311  140.4927  155.7663 C   0  0  1  0  0  0  0  0  0  0  0  0
  151.7539  139.1717  156.4787 C   0  0  0  0  0  0  0  0  0  0  0  0
  151.8532  138.2034  155.3225 C   0  0  0  0  0  0  0  0  0  0  0  0
  150.7486  138.7139  154.4061 C   0  0  0  0  0  0  0  0  0  0  0  0
  150.7522  140.1288  154.5630 O   0  0  0  0  0  0  0  0  0  0  0  0
  153.4206  141.6930  159.5730 N   0  0  0  0  0  0  0  0  0  0  0  0
  155.1157  139.3549  161.2394 H   0  0  0  0  0  0  0  0  0  0  0  0
  155.3056  139.7684  159.5388 H   0  0  0  0  0  0  0  0  0  0  0  0
  153.8594  138.9208  160.0848 H   0  0  0  0  0  0  0  0  0  0  0  0
  153.9355  141.3283  162.8315 H   0  0  0  0  0  0  0  0  0  0  0  0
  152.6360  143.6717  163.4217 H   0  0  0  0  0  0  0  0  0  0  0  0
  151.3671  143.9808  162.2380 H   0  0  0  0  0  0  0  0  0  0  0  0
  152.9075  144.8398  162.1296 H   0  0  0  0  0  0  0  0  0  0  0  0
  151.7849  144.5712  159.8562 H   0  0  0  0  0  0  0  0  0  0  0  0
  152.9377  144.2008  158.5895 H   0  0  0  0  0  0  0  0  0  0  0  0
  152.4145  141.8698  157.5838 H   0  0  0  0  0  0  0  0  0  0  0  0
  150.2091  142.2424  155.9014 H   0  0  0  0  0  0  0  0  0  0  0  0
  148.7366  140.3543  156.5320 H   0  0  0  0  0  0  0  0  0  0  0  0
  148.7925  141.5546  157.8169 H   0  0  0  0  0  0  0  0  0  0  0  0
  149.7016  140.0533  157.9749 H   0  0  0  0  0  0  0  0  0  0  0  0
  152.3714  140.9611  155.4719 H   0  0  0  0  0  0  0  0  0  0  0  0
  152.6673  139.2234  157.0715 H   0  0  0  0  0  0  0  0  0  0  0  0
  150.9441  138.8607  157.1393 H   0  0  0  0  0  0  0  0  0  0  0  0
  152.8238  138.2971  154.8337 H   0  0  0  0  0  0  0  0  0  0  0  0
  151.7142  137.1637  155.6200 H   0  0  0  0  0  0  0  0  0  0  0  0
  150.8976  138.4252  153.3657 H   0  0  0  0  0  0  0  0  0  0  0  0
  149.7805  138.3309  154.7294 H   0  0  0  0  0  0  0  0  0  0  0  0
  1  2  1  0  0  0  0
  1 19  1  0  0  0  0
  1 20  1  0  0  0  0
  1 21  1  0  0  0  0
  2 18  2  0  0  0  0
  2  3  1  0  0  0  0
  3  4  2  0  0  0  0
  3 22  1  0  0  0  0
  4  5  1  0  0  0  0
  4  6  1  0  0  0  0
  5 23  1  0  0  0  0
  5 24  1  0  0  0  0
  5 25  1  0  0  0  0
  6  7  1  0  0  0  0
  6 18  1  0  0  0  0
  7  8  1  0  0  0  0
  7 26  1  0  0  0  0
  7 27  1  0  0  0  0
  8  9  2  0  0  0  0
  8 10  1  0  0  0  0
 10 11  1  0  0  0  0
 10 28  1  0  0  0  0
 11 12  1  0  0  0  0
 11 13  1  0  0  0  0
 11 29  1  0  0  0  0
 12 30  1  0  0  0  0
 12 31  1  0  0  0  0
 12 32  1  0  0  0  0
 13 17  1  0  0  0  0
 13 14  1  0  0  0  0
 13 33  1  0  0  0  0
 14 15  1  0  0  0  0
 14 34  1  0  0  0  0
 14 35  1  0  0  0  0
 15 16  1  0  0  0  0
 15 36  1  0  0  0  0
 15 37  1  0  0  0  0
 16 17  1  0  0  0  0
 16 38  1  0  0  0  0
 16 39  1  0  0  0  0
M  END
> <s_m_source_file>
AV-unprocessed.smi

> <i_m_source_file_index>
2204

> <i_lp_mmshare_version>
43012

> <i_f3d_flags>
0

> <s_epik_input>
W0NIM11jMVtjSF1jKFtDSDNdKW4objEpW0NIMl1DKD1PKVtOSF1bQ0BIXShbQ0gzXSlbQ0BASF0yW0NIMl1bQ0gyXVtDSDJdTzI=

> <s_epik_cmdline>
J2VwaWtfcHl0aG9uJywgJy1waCcsICc3LjAnLCAnLXRuJywgJzgnLCAnLW1hJywgJzIwMCcsICctbWV0YWxfYmluZGluZycsICctaW1hZScsICc8aW5maWxlLm1hZT4nLCAnLW9tYWUnLCAnPG91dGZpbGUubWFlPic=

> <r_lp_tautomer_probability>
1

> <r_epik_Ionization_Penalty>
0.000433354

> <r_epik_Ionization_Penalty_Charging>
0

> <r_epik_Ionization_Penalty_Neutral>
0.000433354

> <r_epik_State_Penalty>
-0

> <r_epik_Charging_Adjusted_Penalty>
0

> <i_epik_Tot_Q>
0

> <i_epik_Tot_abs_Q>
0

> <r_epik_Metal_State_Penalty>
-0

> <b_epik_Metal_Only>
0

> <s_lp_Force_Field>
OPLS_2005

> <r_lp_Energy>
16.4317

> <b_lp_Chiralities_Consistent>
1

> <s_lp_Variant>
AV-unprocessed.smi:2204-3

> <Gold.Version>
5.8.1

> <Gold.Id.Protein>
6NUR|6NUR_protein|mol2

> <Gold.PLP.Fitness>
43.6744

> <Gold.PLP.PLP>
-41.0992

> <Gold.PLP.part.hbond>
-1.0000

> <Gold.PLP.part.metal>
0.0000

> <Gold.PLP.part.buried>
-4.0697

> <Gold.PLP.part.nonpolar>
-36.2748

> <Gold.PLP.part.repulsive>
0.3131

> <Gold.PLP.ligand.clash>
0.0000

> <Gold.PLP.ligand.torsion>
0.2224

> <Gold.PLP.Chemscore.Hbond>
1.0000

> <Gold.PLP.Chemscore.CHOScore>
0.0000

> <Gold.PLP.Chemscore.Metal>
0.0000

> <Gold.Chemscore.Hbonds>
donor molecule, donor type, donor heavy atom, donor atom, acceptor molecule, acceptor atom, score
      P1  H  7989  7998       L1    17  1.00

> <Gold.PLP.Chemscore.Internal.Correction>
0.0199

> <Gold.Rescore>
     Score         DG    S(hbond)    S(metal)    S(lipo)     H(rot)  DE(clash)    DE(int)     intcor
     13.64     -16.64       0.94        0.00     101.50       1.50       0.31       2.69       ----

> <Gold.Chemscore.Fitness>
13.6362

> <Gold.Chemscore.DG>
-16.6413

> <Gold.Chemscore.ZeroCoef>
-5.4800

> <Gold.Chemscore.Hbond>
0.9362

> <Gold.Chemscore.Metal>
0.0000

> <Gold.Chemscore.Lipo>
101.5013

> <Gold.Chemscore.Internal_Hbond>
0.0000

> <Gold.Chemscore.DEClash>
0.3108

> <Gold.Chemscore.DEInternal>
2.6943

> <Gold.Chemscore.Rot>
1.5005

> <Gold.Chemscore.Internal.Correction>
   9.000000E+99

> <Gold.Chemscore.Hbonds>
donor molecule, donor type, donor heavy atom, donor atom, acceptor molecule, acceptor atom, score
      P1  H  7989  7998       L1    17  0.25

> <Gold.Chemscore.Hbond.Weighted>
-3.1269

> <Gold.Chemscore.Metal.Weighted>
-0.0000

> <Gold.Chemscore.Lipo.Weighted>
-11.8757

> <Gold.Chemscore.Internal_Hbond.Weighted>
0.0000

> <Gold.Chemscore.DEClash.Weighted>
0.3108

> <Gold.Chemscore.DEInternal.Weighted>
2.6943

> <Gold.Chemscore.Rot.Weighted>
3.8412

> <Gold.Chemscore.Internal.Correction.Weighted>
   9.000000E+99

> <Gold.Protein.RotatedTorsions>
[ 6907 6896 6895 6894 ] final -134.30 input  -60.11 | X-H torsion
[ 7974 7965 7964 7962 ] final   71.90 input  175.53 | X-H torsion
[ 8008 7997 7996 7995 ] final  -62.11 input   59.86 | X-H torsion
[ 10167 10162 10161 10158 ] final -130.17 input  -65.29 | X-H torsion
[ 10718 10713 10712 10709 ] final  -22.82 input   66.30 | X-H torsion
[ 10763 10752 10751 10750 ] final -101.14 input  -60.55 | X-H torsion
[ 11005 11000 10999 10996 ] final   58.71 input  -57.11 | X-H torsion

> <Gold.Protein.ActiveResidues>
 VAL166  LYS551  ARG553  GLY616  TRP617  ASP618  TYR619  PRO620  LYS621  CYS622 
 ASP623  PHE694  ASN695  SER759  ASP760  ASP761  ALA762  ILE779  LEU786  VAL792 
 PHE793  MET794  SER795  GLU796  ALA797  LYS798  CYS799  TRP800  GLU811  SER814 

> <Gold.Protein.RotatedAtoms>
  150.9843  133.6214  159.2717 H   0  0  0  0  0  0  0  0  0  0  0  0  # atno 6907 bound_to 6896
  151.3457  135.0872  159.9396 H   0  0  0  0  0  0  0  0  0  0  0  0  # atno 6908 bound_to 6896
  152.5225  133.9445  159.7697 H   0  0  0  0  0  0  0  0  0  0  0  0  # atno 6909 bound_to 6896
  145.7600  139.2796  143.1382 H   0  0  0  0  0  0  0  0  0  0  0  0  # atno 7974 bound_to 7965
  154.4482  140.1003  156.6535 H   0  0  0  0  0  0  0  0  0  0  0  0  # atno 8008 bound_to 7997
  155.5371  140.3482  155.4420 H   0  0  0  0  0  0  0  0  0  0  0  0  # atno 8009 bound_to 7997
  156.0623  140.1329  156.9916 H   0  0  0  0  0  0  0  0  0  0  0  0  # atno 8010 bound_to 7997
  139.9321  143.6260  152.2527 H   0  0  0  0  0  0  0  0  0  0  0  0  # atno 10167 bound_to 10162
  156.4994  130.4584  149.6710 H   0  0  0  0  0  0  0  0  0  0  0  0  # atno 10718 bound_to 10713
  154.7634  135.4909  153.9508 H   0  0  0  0  0  0  0  0  0  0  0  0  # atno 10763 bound_to 10752
  153.1278  135.6746  153.9235 H   0  0  0  0  0  0  0  0  0  0  0  0  # atno 10764 bound_to 10752
  153.8947  135.3116  155.3426 H   0  0  0  0  0  0  0  0  0  0  0  0  # atno 10765 bound_to 10752
  140.0358  134.5946  155.9447 H   0  0  0  0  0  0  0  0  0  0  0  0  # atno 11005 bound_to 11000
  146.0273  140.8291  142.9893 LP  0  0  0  0  0  0  0  0  0  0  0  0  # atno 17320 bound_to 7965
  144.6832  140.2717  143.7305 LP  0  0  0  0  0  0  0  0  0  0  0  0  # atno 17321 bound_to 7965
  139.6773  144.7658  151.1672 LP  0  0  0  0  0  0  0  0  0  0  0  0  # atno 17342 bound_to 10162
  140.7634  143.5776  150.8929 LP  0  0  0  0  0  0  0  0  0  0  0  0  # atno 17343 bound_to 10162
  156.3348  130.7350  151.2286 LP  0  0  0  0  0  0  0  0  0  0  0  0  # atno 17370 bound_to 10713
  157.7464  131.0420  150.4673 LP  0  0  0  0  0  0  0  0  0  0  0  0  # atno 17371 bound_to 10713
  141.1856  133.6555  156.5205 LP  0  0  0  0  0  0  0  0  0  0  0  0  # atno 17394 bound_to 11000
  140.4151  134.7238  157.4858 LP  0  0  0  0  0  0  0  0  0  0  0  0  # atno 17395 bound_to 11000

$$$$
