AV-unprocessed.smi:278|AV-procd|sdf|2091|dock6
  -GOLD-   2262021373D 1   1.00000     0.00000
 Structure written by MMmdl.
 50 54  0  0  0  0  0  0  0  0  1 V2000
  144.2808  136.1005  161.4911 O   0  0  0  0  0  0  0  0  0  0  0  0
  145.5294  136.7384  161.0475 S   0  0  0  0  0  0  0  0  0  0  0  0
  145.5993  138.1943  160.8473 O   0  0  0  0  0  0  0  0  0  0  0  0
  146.8919  136.2231  162.1636 C   0  0  0  0  0  0  0  0  0  0  0  0
  147.6882  135.1525  161.4058 C   0  0  0  0  0  0  0  0  0  0  0  0
  147.5692  135.4104  159.8927 C   0  0  2  0  0  0  0  0  0  0  0  0
  148.4217  136.5808  159.3908 C   0  0  0  0  0  0  0  0  0  0  0  0
  147.7026  137.1065  158.2388 N   0  0  0  0  0  0  0  0  0  0  0  0
  148.1051  138.2446  157.6155 C   0  0  0  0  0  0  0  0  0  0  0  0
  147.3539  138.7305  156.5911 N   0  0  0  0  0  0  0  0  0  0  0  0
  147.7145  139.8476  155.9533 C   0  0  0  0  0  0  0  0  0  0  0  0
  148.7695  140.6323  156.1774 N   0  0  0  0  0  0  0  0  0  0  0  0
  149.5217  140.1614  157.2121 C   0  0  0  0  0  0  0  0  0  0  0  0
  149.2670  138.9879  157.9793 C   0  0  0  0  0  0  0  0  0  0  0  0
  150.2514  138.8459  158.9525 N   0  0  0  0  0  0  0  0  0  0  0  0
  151.0426  139.8665  158.7654 C   0  0  0  0  0  0  0  0  0  0  0  0
  150.6760  140.7086  157.7416 N   0  0  0  0  0  0  0  0  0  0  0  0
  151.3643  141.9143  157.3172 C   0  0  0  0  0  0  0  0  0  0  0  0
  151.1302  143.0935  158.2803 C   0  0  2  0  0  0  0  0  0  0  0  0
  150.9240  144.2930  157.5577 O   0  0  0  0  0  0  0  0  0  0  0  0
  152.2709  143.2619  159.3047 C   0  0  2  0  0  0  0  0  0  0  0  0
  152.6957  142.0047  160.0688 C   0  0  0  0  0  0  0  0  0  0  0  0
  153.3418  142.6118  161.2943 C   0  0  0  0  0  0  0  0  0  0  0  0
  152.4297  143.8051  161.5680 C   0  0  0  0  0  0  0  0  0  0  0  0
  151.9640  144.2422  160.2937 O   0  0  0  0  0  0  0  0  0  0  0  0
  146.2886  136.7654  158.3249 C   0  0  0  0  0  0  0  0  0  0  0  0
  146.1453  135.8535  159.5521 C   0  0  2  0  0  0  0  0  0  0  0  0
  147.8263  134.5157  159.3239 H   0  0  0  0  0  0  0  0  0  0  0  0
  145.4849  135.0063  159.3651 H   0  0  0  0  0  0  0  0  0  0  0  0
  147.5112  137.0978  162.3629 H   0  0  0  0  0  0  0  0  0  0  0  0
  146.4884  135.8625  163.1098 H   0  0  0  0  0  0  0  0  0  0  0  0
  148.7276  135.1146  161.7334 H   0  0  0  0  0  0  0  0  0  0  0  0
  147.2530  134.1766  161.6243 H   0  0  0  0  0  0  0  0  0  0  0  0
  148.5072  137.3603  160.1492 H   0  0  0  0  0  0  0  0  0  0  0  0
  149.4268  136.2556  159.1205 H   0  0  0  0  0  0  0  0  0  0  0  0
  147.0634  140.1575  155.1494 H   0  0  0  0  0  0  0  0  0  0  0  0
  151.9211  140.0339  159.3716 H   0  0  0  0  0  0  0  0  0  0  0  0
  152.4296  141.6920  157.2452 H   0  0  0  0  0  0  0  0  0  0  0  0
  151.0300  142.1676  156.3102 H   0  0  0  0  0  0  0  0  0  0  0  0
  150.2105  142.9063  158.8360 H   0  0  0  0  0  0  0  0  0  0  0  0
  150.4042  144.0965  156.7935 H   0  0  0  0  0  0  0  0  0  0  0  0
  153.1485  143.6398  158.7773 H   0  0  0  0  0  0  0  0  0  0  0  0
  151.8367  141.4046  160.3701 H   0  0  0  0  0  0  0  0  0  0  0  0
  153.3730  141.3685  159.4982 H   0  0  0  0  0  0  0  0  0  0  0  0
  153.4049  141.9208  162.1354 H   0  0  0  0  0  0  0  0  0  0  0  0
  154.3495  142.9554  161.0561 H   0  0  0  0  0  0  0  0  0  0  0  0
  151.5683  143.4953  162.1615 H   0  0  0  0  0  0  0  0  0  0  0  0
  152.9394  144.6061  162.1043 H   0  0  0  0  0  0  0  0  0  0  0  0
  145.6509  137.6470  158.3925 H   0  0  0  0  0  0  0  0  0  0  0  0
  146.0091  136.2220  157.4220 H   0  0  0  0  0  0  0  0  0  0  0  0
  1  2  2  0  0  0  0
  2 27  1  0  0  0  0
  2  3  2  0  0  0  0
  2  4  1  0  0  0  0
  4  5  1  0  0  0  0
  4 30  1  0  0  0  0
  4 31  1  0  0  0  0
  5  6  1  0  0  0  0
  5 32  1  0  0  0  0
  5 33  1  0  0  0  0
  6 28  1  0  0  0  0
  6 27  1  0  0  0  0
  6  7  1  0  0  0  0
  7  8  1  0  0  0  0
  7 34  1  0  0  0  0
  7 35  1  0  0  0  0
  8  9  1  0  0  0  0
  8 26  1  0  0  0  0
  9 14  1  0  0  0  0
  9 10  2  0  0  0  0
 10 11  1  0  0  0  0
 11 12  2  0  0  0  0
 11 36  1  0  0  0  0
 12 13  1  0  0  0  0
 13 17  1  0  0  0  0
 13 14  2  0  0  0  0
 14 15  1  0  0  0  0
 15 16  2  0  0  0  0
 16 17  1  0  0  0  0
 16 37  1  0  0  0  0
 17 18  1  0  0  0  0
 18 19  1  0  0  0  0
 18 38  1  0  0  0  0
 18 39  1  0  0  0  0
 19 20  1  0  0  0  0
 19 21  1  0  0  0  0
 19 40  1  0  0  0  0
 20 41  1  0  0  0  0
 21 25  1  0  0  0  0
 21 22  1  0  0  0  0
 21 42  1  0  0  0  0
 22 23  1  0  0  0  0
 22 43  1  0  0  0  0
 22 44  1  0  0  0  0
 23 24  1  0  0  0  0
 23 45  1  0  0  0  0
 23 46  1  0  0  0  0
 24 25  1  0  0  0  0
 24 47  1  0  0  0  0
 24 48  1  0  0  0  0
 26 27  1  0  0  0  0
 26 49  1  0  0  0  0
 26 50  1  0  0  0  0
 27 29  1  0  0  0  0
M  END
> <s_m_source_file>
AV-unprocessed.smi

> <i_m_source_file_index>
278

> <i_lp_mmshare_version>
43012

> <i_f3d_flags>
0

> <s_epik_input>
W0NIMl0xW0NIMl1TKD1PKSg9TylbQ0BASF0oW0NAQEhdMTIpW0NIMl1OKFtDSDJdMiljKG5bY0hdbjMpYyhjMzQpbltjSF1uNFtDSDJdW0NASF0oW09IXSlbQ0BASF01W0NIMl1bQ0gyXVtDSDJdTzU=

> <s_epik_cmdline>
J2VwaWtfcHl0aG9uJywgJy1waCcsICc3LjAnLCAnLXRuJywgJzgnLCAnLW1hJywgJzIwMCcsICctbWV0YWxfYmluZGluZycsICctaW1hZScsICc8aW5maWxlLm1hZT4nLCAnLW9tYWUnLCAnPG91dGZpbGUubWFlPic=

> <r_lp_tautomer_probability>
1

> <r_epik_Ionization_Penalty>
0.000636766

> <r_epik_Ionization_Penalty_Charging>
0

> <r_epik_Ionization_Penalty_Neutral>
0.000636766

> <r_epik_State_Penalty>
0.000329976

> <r_epik_Charging_Adjusted_Penalty>
0.000329976

> <i_epik_Tot_Q>
0

> <i_epik_Tot_abs_Q>
0

> <r_epik_Metal_State_Penalty>
-0

> <b_epik_Metal_Only>
0

> <s_lp_Force_Field>
OPLS_2005

> <r_lp_Energy>
50.4142

> <b_lp_Chiralities_Consistent>
1

> <s_lp_Variant>
AV-unprocessed.smi:278-5

> <Gold.Version>
5.8.1

> <Gold.Id.Protein>
6NUR|6NUR_protein|mol2

> <Gold.PLP.Fitness>
42.9565

> <Gold.PLP.PLP>
-39.2467

> <Gold.PLP.part.hbond>
-2.7184

> <Gold.PLP.part.metal>
0.0000

> <Gold.PLP.part.buried>
-8.0155

> <Gold.PLP.part.nonpolar>
-27.4217

> <Gold.PLP.part.repulsive>
0.1322

> <Gold.PLP.ligand.clash>
0.0000

> <Gold.PLP.ligand.torsion>
0.9860

> <Gold.PLP.Chemscore.Hbond>
1.8000

> <Gold.PLP.Chemscore.CHOScore>
0.0000

> <Gold.PLP.Chemscore.Metal>
0.0000

> <Gold.Chemscore.Hbonds>
donor molecule, donor type, donor heavy atom, donor atom, acceptor molecule, acceptor atom, score
      L1  H    20    41       P1  8028  0.86
      P1  H  6934  6947       L1     3  0.77

> <Gold.PLP.Chemscore.Internal.Correction>
0.2819

> <Gold.Rescore>
     Score         DG    S(hbond)    S(metal)    S(lipo)     H(rot)  DE(clash)    DE(int)     intcor
     14.00     -16.33       1.69        0.00      91.08       2.13       0.02       2.31       ----

> <Gold.Chemscore.Fitness>
13.9975

> <Gold.Chemscore.DG>
-16.3296

> <Gold.Chemscore.ZeroCoef>
-5.4800

> <Gold.Chemscore.Hbond>
1.6941

> <Gold.Chemscore.Metal>
0.0000

> <Gold.Chemscore.Lipo>
91.0750

> <Gold.Chemscore.Internal_Hbond>
0.0000

> <Gold.Chemscore.DEClash>
0.0238

> <Gold.Chemscore.DEInternal>
2.3082

> <Gold.Chemscore.Rot>
2.1346

> <Gold.Chemscore.Internal.Correction>
   9.000000E+99

> <Gold.Chemscore.Hbonds>
donor molecule, donor type, donor heavy atom, donor atom, acceptor molecule, acceptor atom, score
      L1  H    20    41       P1  8028  0.82
      P1  H  6934  6947       L1     3  0.75

> <Gold.Chemscore.Hbond.Weighted>
-5.6584

> <Gold.Chemscore.Metal.Weighted>
-0.0000

> <Gold.Chemscore.Lipo.Weighted>
-10.6558

> <Gold.Chemscore.Internal_Hbond.Weighted>
0.0000

> <Gold.Chemscore.DEClash.Weighted>
0.0238

> <Gold.Chemscore.DEInternal.Weighted>
2.3082

> <Gold.Chemscore.Rot.Weighted>
5.4646

> <Gold.Chemscore.Internal.Correction.Weighted>
   9.000000E+99

> <Gold.Protein.RotatedTorsions>
[ 6907 6896 6895 6894 ] final   96.85 input  -60.11 | X-H torsion
[ 7974 7965 7964 7962 ] final -148.27 input  175.53 | X-H torsion
[ 8008 7997 7996 7995 ] final  -62.65 input   59.86 | X-H torsion
[ 10167 10162 10161 10158 ] final -121.80 input  -65.29 | X-H torsion
[ 10718 10713 10712 10709 ] final   53.10 input   66.30 | X-H torsion
[ 10763 10752 10751 10750 ] final  135.68 input  -60.55 | X-H torsion
[ 11005 11000 10999 10996 ] final  -26.83 input  -57.11 | X-H torsion

> <Gold.Protein.ActiveResidues>
 VAL166  LYS551  ARG553  GLY616  TRP617  ASP618  TYR619  PRO620  LYS621  CYS622 
 ASP623  PHE694  ASN695  SER759  ASP760  ASP761  ALA762  ILE779  LEU786  VAL792 
 PHE793  MET794  SER795  GLU796  ALA797  LYS798  CYS799  TRP800  GLU811  SER814 

> <Gold.Protein.RotatedAtoms>
  152.5430  134.0823  159.8240 H   0  0  0  0  0  0  0  0  0  0  0  0  # atno 6907 bound_to 6896
  151.0924  133.5299  159.2621 H   0  0  0  0  0  0  0  0  0  0  0  0  # atno 6908 bound_to 6896
  151.2085  135.0480  159.8955 H   0  0  0  0  0  0  0  0  0  0  0  0  # atno 6909 bound_to 6896
  144.8040  140.5218  143.5688 H   0  0  0  0  0  0  0  0  0  0  0  0  # atno 7974 bound_to 7965
  154.4511  140.0991  156.6621 H   0  0  0  0  0  0  0  0  0  0  0  0  # atno 8008 bound_to 7997
  155.5282  140.3480  155.4402 H   0  0  0  0  0  0  0  0  0  0  0  0  # atno 8009 bound_to 7997
  156.0683  140.1343  156.9848 H   0  0  0  0  0  0  0  0  0  0  0  0  # atno 8010 bound_to 7997
  140.0211  143.5344  152.2220 H   0  0  0  0  0  0  0  0  0  0  0  0  # atno 10167 bound_to 10162
  157.5136  130.8517  149.8466 H   0  0  0  0  0  0  0  0  0  0  0  0  # atno 10718 bound_to 10713
  153.8440  135.3088  155.3428 H   0  0  0  0  0  0  0  0  0  0  0  0  # atno 10763 bound_to 10752
  154.7920  135.4777  154.0078 H   0  0  0  0  0  0  0  0  0  0  0  0  # atno 10764 bound_to 10752
  153.1559  135.6852  153.8906 H   0  0  0  0  0  0  0  0  0  0  0  0  # atno 10765 bound_to 10752
  140.9064  133.7490  156.0612 H   0  0  0  0  0  0  0  0  0  0  0  0  # atno 11005 bound_to 11000
  145.5484  139.1476  143.3408 LP  0  0  0  0  0  0  0  0  0  0  0  0  # atno 17320 bound_to 7965
  146.2327  140.5622  142.8968 LP  0  0  0  0  0  0  0  0  0  0  0  0  # atno 17321 bound_to 7965
  139.6139  144.7615  151.2889 LP  0  0  0  0  0  0  0  0  0  0  0  0  # atno 17342 bound_to 10162
  140.7342  143.6772  150.8031 LP  0  0  0  0  0  0  0  0  0  0  0  0  # atno 17343 bound_to 10162
  156.0305  130.3766  150.1701 LP  0  0  0  0  0  0  0  0  0  0  0  0  # atno 17370 bound_to 10713
  156.9890  130.9887  151.3419 LP  0  0  0  0  0  0  0  0  0  0  0  0  # atno 17371 bound_to 10713
  140.8165  134.3338  157.5395 LP  0  0  0  0  0  0  0  0  0  0  0  0  # atno 17394 bound_to 11000
  139.8750  134.9284  156.3451 LP  0  0  0  0  0  0  0  0  0  0  0  0  # atno 17395 bound_to 11000

$$$$
