AV-unprocessed.smi:308|AV-procd|sdf|2290|dock4
  -GOLD-   2262022193D 1   1.00000     0.00000
 Structure written by MMmdl.
 50 51  0  0  0  0  0  0  0  0  4 V2000
  147.8910  131.1787  153.7808 C   0  0  0  0  0  0  0  0  0  0  0  0
  148.1713  132.3253  152.7937 C   0  0  2  0  0  0  0  0  0  0  0  0
  149.6353  132.8010  152.8324 C   0  0  0  0  0  0  0  0  0  0  0  0
  149.9466  133.6248  154.0945 C   0  0  0  0  0  0  0  0  0  0  0  0
  149.0154  134.7793  154.2241 N   0  3  2  0  0  0  0  0  0  0  0  0
  149.3600  135.7085  155.3346 C   0  0  0  0  0  0  0  0  0  0  0  0
  150.5368  136.6360  154.9725 C   0  0  0  0  0  0  0  0  0  0  0  0
  150.0269  137.8810  154.3924 N   0  5  0  0  0  0  0  0  0  0  0  0
  150.3235  139.1280  154.8470 C   0  0  0  0  0  0  0  0  0  0  0  0
  150.3190  140.1846  154.2056 O   0  0  0  0  0  0  0  0  0  0  0  0
  150.6678  139.1226  156.1473 N   0  0  0  0  0  0  0  0  0  0  0  0
  151.0083  140.2138  156.9918 C   0  0  0  0  0  0  0  0  0  0  0  0
  150.5900  141.5027  156.6026 C   0  0  0  0  0  0  0  0  0  0  0  0
  150.9233  142.6186  157.3972 C   0  0  0  0  0  0  0  0  0  0  0  0
  151.6865  142.4407  158.5773 C   0  0  0  0  0  0  0  0  0  0  0  0
  152.0614  143.5065  159.4237 N   0  0  0  0  0  0  0  0  0  0  0  0
  152.7641  143.2282  160.6713 C   0  0  0  0  0  0  0  0  0  0  0  0
  151.7782  144.8800  159.0286 C   0  0  0  0  0  0  0  0  0  0  0  0
  152.0781  141.1842  158.9018 N   0  3  0  0  0  0  0  0  0  0  0  0
  151.7804  140.0886  158.1706 C   0  0  0  0  0  0  0  0  0  0  0  0
  147.5973  134.3394  154.2595 C   0  0  0  0  0  0  0  0  0  0  0  0
  147.2356  133.5303  153.0011 C   0  0  0  0  0  0  0  0  0  0  0  0
  148.0521  131.4772  154.8163 H   0  0  0  0  0  0  0  0  0  0  0  0
  148.5376  130.3242  153.5800 H   0  0  0  0  0  0  0  0  0  0  0  0
  146.8600  130.8347  153.6944 H   0  0  0  0  0  0  0  0  0  0  0  0
  147.9802  131.9270  151.7964 H   0  0  0  0  0  0  0  0  0  0  0  0
  150.3122  131.9486  152.7644 H   0  0  0  0  0  0  0  0  0  0  0  0
  149.8348  133.4154  151.9532 H   0  0  0  0  0  0  0  0  0  0  0  0
  149.8816  132.9990  154.9851 H   0  0  0  0  0  0  0  0  0  0  0  0
  150.9760  133.9800  154.0399 H   0  0  0  0  0  0  0  0  0  0  0  0
  148.5011  136.3337  155.5843 H   0  0  0  0  0  0  0  0  0  0  0  0
  149.5846  135.1429  156.2400 H   0  0  0  0  0  0  0  0  0  0  0  0
  151.1223  136.8291  155.8713 H   0  0  0  0  0  0  0  0  0  0  0  0
  151.2031  136.1013  154.2944 H   0  0  0  0  0  0  0  0  0  0  0  0
  150.7446  138.2078  156.5675 H   0  0  0  0  0  0  0  0  0  0  0  0
  150.0104  141.6393  155.7010 H   0  0  0  0  0  0  0  0  0  0  0  0
  150.5864  143.5957  157.0850 H   0  0  0  0  0  0  0  0  0  0  0  0
  152.1514  142.6064  161.3249 H   0  0  0  0  0  0  0  0  0  0  0  0
  152.9991  144.1468  161.2092 H   0  0  0  0  0  0  0  0  0  0  0  0
  153.7021  142.7077  160.4753 H   0  0  0  0  0  0  0  0  0  0  0  0
  152.2664  145.1147  158.0823 H   0  0  0  0  0  0  0  0  0  0  0  0
  152.1385  145.5895  159.7739 H   0  0  0  0  0  0  0  0  0  0  0  0
  150.7046  145.0327  158.9157 H   0  0  0  0  0  0  0  0  0  0  0  0
  152.1841  139.1634  158.5534 H   0  0  0  0  0  0  0  0  0  0  0  0
  147.4172  133.7541  155.1620 H   0  0  0  0  0  0  0  0  0  0  0  0
  146.9462  135.2128  154.3146 H   0  0  0  0  0  0  0  0  0  0  0  0
  147.3005  134.1857  152.1312 H   0  0  0  0  0  0  0  0  0  0  0  0
  146.1975  133.1997  153.0527 H   0  0  0  0  0  0  0  0  0  0  0  0
  149.1116  135.3330  153.3838 H   0  0  0  0  0  0  0  0  0  0  0  0
  152.6344  141.0567  159.7472 H   0  0  0  0  0  0  0  0  0  0  0  0
  1  2  1  0  0  0  0
  1 23  1  0  0  0  0
  1 24  1  0  0  0  0
  1 25  1  0  0  0  0
  2 22  1  0  0  0  0
  2  3  1  0  0  0  0
  2 26  1  0  0  0  0
  3  4  1  0  0  0  0
  3 27  1  0  0  0  0
  3 28  1  0  0  0  0
  4  5  1  0  0  0  0
  4 29  1  0  0  0  0
  4 30  1  0  0  0  0
  5  6  1  0  0  0  0
  5 21  1  0  0  0  0
  5 49  1  0  0  0  0
  6  7  1  0  0  0  0
  6 31  1  0  0  0  0
  6 32  1  0  0  0  0
  7  8  1  0  0  0  0
  7 33  1  0  0  0  0
  7 34  1  0  0  0  0
  8  9  1  0  0  0  0
  9 10  2  0  0  0  0
  9 11  1  0  0  0  0
 11 12  1  0  0  0  0
 11 35  1  0  0  0  0
 12 20  1  0  0  0  0
 12 13  2  0  0  0  0
 13 14  1  0  0  0  0
 13 36  1  0  0  0  0
 14 15  2  0  0  0  0
 14 37  1  0  0  0  0
 15 16  1  0  0  0  0
 15 19  1  0  0  0  0
 16 17  1  0  0  0  0
 16 18  1  0  0  0  0
 17 38  1  0  0  0  0
 17 39  1  0  0  0  0
 17 40  1  0  0  0  0
 18 41  1  0  0  0  0
 18 42  1  0  0  0  0
 18 43  1  0  0  0  0
 19 20  2  0  0  0  0
 19 50  1  0  0  0  0
 20 44  1  0  0  0  0
 21 22  1  0  0  0  0
 21 45  1  0  0  0  0
 21 46  1  0  0  0  0
 22 47  1  0  0  0  0
 22 48  1  0  0  0  0
M  CHG  1   5   1
M  CHG  1   8  -1
M  CHG  1  19   1
M  END
> <s_m_source_file>
AV-unprocessed.smi

> <i_m_source_file_index>
308

> <i_lp_mmshare_version>
43012

> <i_f3d_flags>
0

> <s_epik_input>
W0NIM11bQ0hdMVtDSDJdW0NIMl1OKFtDSDJdW0NIMl0xKVtDSDJdW0NIMl1bTkhdQyg9TylbTkhdYzJbY0hdW2NIXWMoTihbQ0gzXSlbQ0gzXSluW2NIXTI=

> <s_epik_cmdline>
J2VwaWtfcHl0aG9uJywgJy1waCcsICc3LjAnLCAnLXRuJywgJzgnLCAnLW1hJywgJzIwMCcsICctbWV0YWxfYmluZGluZycsICctaW1hZScsICc8aW5maWxlLm1hZT4nLCAnLW9tYWUnLCAnPG91dGZpbGUubWFlPic=

> <r_lp_tautomer_probability>
0.999994

> <r_epik_Ionization_Penalty>
7.42107

> <r_epik_Ionization_Penalty_Charging>
7.42107

> <r_epik_Ionization_Penalty_Neutral>
3.68925e-06

> <r_epik_State_Penalty>
7.0982

> <r_epik_Charging_Adjusted_Penalty>
14.5193

> <i_epik_Tot_Q>
1

> <i_epik_Tot_abs_Q>
3

> <r_epik_Metal_State_Penalty>
3.28646

> <b_epik_Metal_Only>
1

> <s_lp_Force_Field>
OPLS_2005

> <r_lp_Energy>
21.4752

> <b_lp_Chiralities_Consistent>
1

> <s_lp_Variant>
AV-unprocessed.smi:308-6

> <Gold.Version>
5.8.1

> <Gold.Id.Protein>
6NUR|6NUR_protein|mol2

> <Gold.PLP.Fitness>
49.4269

> <Gold.PLP.PLP>
-41.7385

> <Gold.PLP.part.hbond>
-1.7773

> <Gold.PLP.part.metal>
0.0000

> <Gold.PLP.part.buried>
-6.3554

> <Gold.PLP.part.nonpolar>
-34.4346

> <Gold.PLP.part.repulsive>
0.5103

> <Gold.PLP.ligand.clash>
0.0430

> <Gold.PLP.ligand.torsion>
0.6983

> <Gold.PLP.Chemscore.Hbond>
3.0000

> <Gold.PLP.Chemscore.CHOScore>
0.0000

> <Gold.PLP.Chemscore.Metal>
0.0000

> <Gold.Chemscore.Hbonds>
donor molecule, donor type, donor heavy atom, donor atom, acceptor molecule, acceptor atom, score
      L1  H     5    49       P1  7948  2.00
      P1  H  7989  7998       L1    10  1.00

> <Gold.PLP.Chemscore.Internal.Correction>
0.1280

> <Gold.Rescore>
     Score         DG    S(hbond)    S(metal)    S(lipo)     H(rot)  DE(clash)    DE(int)     intcor
     16.44     -18.54       1.97        0.00      86.49       1.42       0.01       2.09       ----

> <Gold.Chemscore.Fitness>
16.4364

> <Gold.Chemscore.DG>
-18.5418

> <Gold.Chemscore.ZeroCoef>
-5.4800

> <Gold.Chemscore.Hbond>
1.9723

> <Gold.Chemscore.Metal>
0.0000

> <Gold.Chemscore.Lipo>
86.4941

> <Gold.Chemscore.Internal_Hbond>
0.0000

> <Gold.Chemscore.DEClash>
0.0149

> <Gold.Chemscore.DEInternal>
2.0905

> <Gold.Chemscore.Rot>
1.4241

> <Gold.Chemscore.Internal.Correction>
   9.000000E+99

> <Gold.Chemscore.Hbonds>
donor molecule, donor type, donor heavy atom, donor atom, acceptor molecule, acceptor atom, score
      L1  H     5    49       P1  7948  0.40
      P1  H  7989  7998       L1    10  0.96

> <Gold.Chemscore.Hbond.Weighted>
-6.5876

> <Gold.Chemscore.Metal.Weighted>
-0.0000

> <Gold.Chemscore.Lipo.Weighted>
-10.1198

> <Gold.Chemscore.Internal_Hbond.Weighted>
0.0000

> <Gold.Chemscore.DEClash.Weighted>
0.0149

> <Gold.Chemscore.DEInternal.Weighted>
2.0905

> <Gold.Chemscore.Rot.Weighted>
3.6456

> <Gold.Chemscore.Internal.Correction.Weighted>
   9.000000E+99

> <Gold.Protein.RotatedTorsions>
[ 6907 6896 6895 6894 ] final   99.52 input  -60.11 | X-H torsion
[ 7974 7965 7964 7962 ] final   13.11 input  175.53 | X-H torsion
[ 8008 7997 7996 7995 ] final   49.34 input   59.86 | X-H torsion
[ 10167 10162 10161 10158 ] final -170.40 input  -65.29 | X-H torsion
[ 10718 10713 10712 10709 ] final  126.00 input   66.30 | X-H torsion
[ 10763 10752 10751 10750 ] final  -70.05 input  -60.55 | X-H torsion
[ 11005 11000 10999 10996 ] final -120.45 input  -57.11 | X-H torsion

> <Gold.Protein.ActiveResidues>
 VAL166  LYS551  ARG553  GLY616  TRP617  ASP618  TYR619  PRO620  LYS621  CYS622 
 ASP623  PHE694  ASN695  SER759  ASP760  ASP761  ALA762  ILE779  LEU786  VAL792 
 PHE793  MET794  SER795  GLU796  ALA797  LYS798  CYS799  TRP800  GLU811  SER814 

> <Gold.Protein.RotatedAtoms>
  152.5390  134.0415  159.8069 H   0  0  0  0  0  0  0  0  0  0  0  0  # atno 6907 bound_to 6896
  151.0571  133.5568  159.2644 H   0  0  0  0  0  0  0  0  0  0  0  0  # atno 6908 bound_to 6896
  151.2480  135.0620  159.9105 H   0  0  0  0  0  0  0  0  0  0  0  0  # atno 6909 bound_to 6896
  146.2336  139.9237  142.8506 H   0  0  0  0  0  0  0  0  0  0  0  0  # atno 7974 bound_to 7965
  155.4005  140.3437  155.4256 H   0  0  0  0  0  0  0  0  0  0  0  0  # atno 8008 bound_to 7997
  156.1506  140.1570  156.8808 H   0  0  0  0  0  0  0  0  0  0  0  0  # atno 8009 bound_to 7997
  154.5049  140.0805  156.7855 H   0  0  0  0  0  0  0  0  0  0  0  0  # atno 8010 bound_to 7997
  139.5864  144.1309  152.1580 H   0  0  0  0  0  0  0  0  0  0  0  0  # atno 10167 bound_to 10162
  157.5456  131.1095  150.8787 H   0  0  0  0  0  0  0  0  0  0  0  0  # atno 10718 bound_to 10713
  154.4121  135.6006  153.5959 H   0  0  0  0  0  0  0  0  0  0  0  0  # atno 10763 bound_to 10752
  152.9790  135.5932  154.4057 H   0  0  0  0  0  0  0  0  0  0  0  0  # atno 10764 bound_to 10752
  154.3871  135.2841  155.2155 H   0  0  0  0  0  0  0  0  0  0  0  0  # atno 10765 bound_to 10752
  141.0142  134.0220  157.3372 H   0  0  0  0  0  0  0  0  0  0  0  0  # atno 11005 bound_to 11000
  145.2111  140.9896  143.4100 LP  0  0  0  0  0  0  0  0  0  0  0  0  # atno 17320 bound_to 7965
  144.9690  139.3900  143.6318 LP  0  0  0  0  0  0  0  0  0  0  0  0  # atno 17321 bound_to 7965
  140.0874  144.5650  150.7079 LP  0  0  0  0  0  0  0  0  0  0  0  0  # atno 17342 bound_to 10162
  140.7135  143.2524  151.4508 LP  0  0  0  0  0  0  0  0  0  0  0  0  # atno 17343 bound_to 10162
  156.9327  130.5355  149.5279 LP  0  0  0  0  0  0  0  0  0  0  0  0  # atno 17370 bound_to 10713
  156.0533  130.5599  150.9037 LP  0  0  0  0  0  0  0  0  0  0  0  0  # atno 17371 bound_to 10713
  139.9107  135.0189  156.7680 LP  0  0  0  0  0  0  0  0  0  0  0  0  # atno 17394 bound_to 11000
  140.6682  133.9583  155.7842 LP  0  0  0  0  0  0  0  0  0  0  0  0  # atno 17395 bound_to 11000

$$$$
