AV-unprocessed.smi:220|AV-procd|sdf|1683|dock1
  -GOLD-   2262020113D 1   1.00000     0.00000
 Structure written by MMmdl.
 51 55  0  0  0  0  0  0  0  0  1 V2000
  150.3286  137.8128  153.5272 N   0  0  0  0  0  0  0  0  0  0  0  0
  150.3664  137.1018  154.6565 C   0  0  0  0  0  0  0  0  0  0  0  0
  151.0879  136.1128  154.7774 O   0  0  0  0  0  0  0  0  0  0  0  0
  149.4434  137.5711  155.8035 C   0  0  1  0  0  0  0  0  0  0  0  0
  149.6510  139.0360  156.2798 C   0  0  1  0  0  0  0  0  0  0  0  0
  151.0001  139.7592  156.0460 C   0  0  0  0  0  0  0  0  0  0  0  0
  150.6227  141.1337  155.4844 C   0  0  0  0  0  0  0  0  0  0  0  0
  149.3345  140.8816  154.7014 C   0  0  0  0  0  0  0  0  0  0  0  0
  148.5791  139.8739  155.5725 C   0  0  1  0  0  0  0  0  0  0  0  0
  147.6735  138.8748  154.8473 C   0  0  0  0  0  0  0  0  0  0  0  0
  148.0367  137.5709  155.3932 N   0  0  0  0  0  0  0  0  0  0  0  0
  147.3750  136.4408  155.0128 C   0  0  0  0  0  0  0  0  0  0  0  0
  147.7060  135.2651  155.6114 N   0  0  0  0  0  0  0  0  0  0  0  0
  147.0845  134.1304  155.2818 C   0  0  0  0  0  0  0  0  0  0  0  0
  146.1154  133.9421  154.3868 N   0  0  0  0  0  0  0  0  0  0  0  0
  145.7796  135.1102  153.7700 C   0  0  0  0  0  0  0  0  0  0  0  0
  146.3544  136.3919  154.0147 C   0  0  0  0  0  0  0  0  0  0  0  0
  145.7598  137.3294  153.1767 N   0  0  0  0  0  0  0  0  0  0  0  0
  144.8842  136.6492  152.4908 C   0  0  0  0  0  0  0  0  0  0  0  0
  144.8205  135.3088  152.7909 N   0  0  0  0  0  0  0  0  0  0  0  0
  143.9400  134.3207  152.1860 C   0  0  0  0  0  0  0  0  0  0  0  0
  144.6813  133.2592  151.3482 C   0  0  0  0  0  0  0  0  0  0  0  0
  143.6885  132.4805  150.4676 C   0  0  0  0  0  0  0  0  0  0  0  0
  143.2211  133.2730  149.3952 O   0  0  0  0  0  0  0  0  0  0  0  0
  145.9375  133.7434  150.6098 C   0  0  0  0  0  0  0  0  0  0  0  0
  146.7392  132.6732  151.1521 O   0  0  0  0  0  0  0  0  0  0  0  0
  145.6943  132.3915  152.1074 C   0  0  0  0  0  0  0  0  0  0  0  0
  150.9165  137.5489  152.7499 H   0  0  0  0  0  0  0  0  0  0  0  0
  149.7170  138.6130  153.4552 H   0  0  0  0  0  0  0  0  0  0  0  0
  149.5873  136.9242  156.6678 H   0  0  0  0  0  0  0  0  0  0  0  0
  149.4325  139.0697  157.3486 H   0  0  0  0  0  0  0  0  0  0  0  0
  151.5788  139.8453  156.9661 H   0  0  0  0  0  0  0  0  0  0  0  0
  151.6396  139.2590  155.3217 H   0  0  0  0  0  0  0  0  0  0  0  0
  150.4243  141.8258  156.3041 H   0  0  0  0  0  0  0  0  0  0  0  0
  151.4113  141.5657  154.8676 H   0  0  0  0  0  0  0  0  0  0  0  0
  148.7636  141.7928  154.5226 H   0  0  0  0  0  0  0  0  0  0  0  0
  149.5818  140.4444  153.7329 H   0  0  0  0  0  0  0  0  0  0  0  0
  148.0057  140.4116  156.3293 H   0  0  0  0  0  0  0  0  0  0  0  0
  146.6228  139.1033  155.0317 H   0  0  0  0  0  0  0  0  0  0  0  0
  147.8376  138.8881  153.7688 H   0  0  0  0  0  0  0  0  0  0  0  0
  147.4102  133.2475  155.8116 H   0  0  0  0  0  0  0  0  0  0  0  0
  144.2578  137.1130  151.7435 H   0  0  0  0  0  0  0  0  0  0  0  0
  143.3780  133.8454  152.9911 H   0  0  0  0  0  0  0  0  0  0  0  0
  143.1958  134.8402  151.5815 H   0  0  0  0  0  0  0  0  0  0  0  0
  144.1310  131.5669  150.0704 H   0  0  0  0  0  0  0  0  0  0  0  0
  142.8221  132.1667  151.0507 H   0  0  0  0  0  0  0  0  0  0  0  0
  142.5133  133.8154  149.7081 H   0  0  0  0  0  0  0  0  0  0  0  0
  145.8591  133.7014  149.5227 H   0  0  0  0  0  0  0  0  0  0  0  0
  146.3019  134.7183  150.9365 H   0  0  0  0  0  0  0  0  0  0  0  0
  145.9432  132.7672  153.1011 H   0  0  0  0  0  0  0  0  0  0  0  0
  145.4358  131.3327  152.1461 H   0  0  0  0  0  0  0  0  0  0  0  0
  1  2  1  0  0  0  0
  1 28  1  0  0  0  0
  1 29  1  0  0  0  0
  2  3  2  0  0  0  0
  2  4  1  0  0  0  0
  4 11  1  0  0  0  0
  4  5  1  0  0  0  0
  4 30  1  0  0  0  0
  5  9  1  0  0  0  0
  5  6  1  0  0  0  0
  5 31  1  0  0  0  0
  6  7  1  0  0  0  0
  6 32  1  0  0  0  0
  6 33  1  0  0  0  0
  7  8  1  0  0  0  0
  7 34  1  0  0  0  0
  7 35  1  0  0  0  0
  8  9  1  0  0  0  0
  8 36  1  0  0  0  0
  8 37  1  0  0  0  0
  9 10  1  0  0  0  0
  9 38  1  0  0  0  0
 10 11  1  0  0  0  0
 10 39  1  0  0  0  0
 10 40  1  0  0  0  0
 11 12  1  0  0  0  0
 12 17  1  0  0  0  0
 12 13  2  0  0  0  0
 13 14  1  0  0  0  0
 14 15  2  0  0  0  0
 14 41  1  0  0  0  0
 15 16  1  0  0  0  0
 16 20  1  0  0  0  0
 16 17  2  0  0  0  0
 17 18  1  0  0  0  0
 18 19  2  0  0  0  0
 19 20  1  0  0  0  0
 19 42  1  0  0  0  0
 20 21  1  0  0  0  0
 21 22  1  0  0  0  0
 21 43  1  0  0  0  0
 21 44  1  0  0  0  0
 22 27  1  0  0  0  0
 22 23  1  0  0  0  0
 22 25  1  0  0  0  0
 23 24  1  0  0  0  0
 23 45  1  0  0  0  0
 23 46  1  0  0  0  0
 24 47  1  0  0  0  0
 25 26  1  0  0  0  0
 25 48  1  0  0  0  0
 25 49  1  0  0  0  0
 26 27  1  0  0  0  0
 27 50  1  0  0  0  0
 27 51  1  0  0  0  0
M  END
> <s_m_source_file>
AV-unprocessed.smi

> <i_m_source_file_index>
220

> <i_lp_mmshare_version>
43012

> <i_f3d_flags>
0

> <s_epik_input>
W0NIMl0xW0NIMl1bQ0gyXVtDQEhdKFtDQEhdMTIpW0NIMl1OKFtDQEBIXTJDKD1PKVtOSDJdKWMobltjSF1uMyljKGMzNCluW2NIXW40W0NIMl1DNShbQ0gyXVtPSF0pW0NIMl1PW0NIMl01

> <s_epik_cmdline>
J2VwaWtfcHl0aG9uJywgJy1waCcsICc3LjAnLCAnLXRuJywgJzgnLCAnLW1hJywgJzIwMCcsICctbWV0YWxfYmluZGluZycsICctaW1hZScsICc8aW5maWxlLm1hZT4nLCAnLW9tYWUnLCAnPG91dGZpbGUubWFlPic=

> <r_lp_tautomer_probability>
1

> <r_epik_Ionization_Penalty>
0.00118987

> <r_epik_Ionization_Penalty_Charging>
0

> <r_epik_Ionization_Penalty_Neutral>
0.00118987

> <r_epik_State_Penalty>
0.000654261

> <r_epik_Charging_Adjusted_Penalty>
0.000654261

> <i_epik_Tot_Q>
0

> <i_epik_Tot_abs_Q>
0

> <r_epik_Metal_State_Penalty>
-0

> <b_epik_Metal_Only>
0

> <s_lp_Force_Field>
OPLS_2005

> <r_lp_Energy>
61.4398

> <b_lp_Chiralities_Consistent>
1

> <s_lp_Variant>
AV-unprocessed.smi:220-2

> <Gold.Version>
5.8.1

> <Gold.Id.Protein>
6NUR|6NUR_protein|mol2

> <Gold.PLP.Fitness>
39.1720

> <Gold.PLP.PLP>
-28.2225

> <Gold.PLP.part.hbond>
-4.0000

> <Gold.PLP.part.metal>
0.0000

> <Gold.PLP.part.buried>
-5.5033

> <Gold.PLP.part.nonpolar>
-20.5444

> <Gold.PLP.part.repulsive>
1.5893

> <Gold.PLP.ligand.clash>
0.0000

> <Gold.PLP.ligand.torsion>
0.6756

> <Gold.PLP.Chemscore.Hbond>
2.8640

> <Gold.PLP.Chemscore.CHOScore>
1.0000

> <Gold.PLP.Chemscore.Metal>
0.0000

> <Gold.Chemscore.Hbonds>
donor molecule, donor type, donor heavy atom, donor atom, acceptor molecule, acceptor atom, score
      L1  H     1    28       P1  7949  0.71
      L1  H    24    47       P1 10186  1.00
      P1  H 10752 10765       L1     3  1.00
      L1  C    19    42       P1 10171  1.00

> <Gold.PLP.Chemscore.Internal.Correction>
0.7086

> <Gold.Rescore>
     Score         DG    S(hbond)    S(metal)    S(lipo)     H(rot)  DE(clash)    DE(int)     intcor
      9.40     -13.30       2.36        0.00      62.63       2.89       0.69       3.21       ----

> <Gold.Chemscore.Fitness>
9.3966

> <Gold.Chemscore.DG>
-13.2984

> <Gold.Chemscore.ZeroCoef>
-5.4800

> <Gold.Chemscore.Hbond>
2.3595

> <Gold.Chemscore.Metal>
0.0000

> <Gold.Chemscore.Lipo>
62.6344

> <Gold.Chemscore.Internal_Hbond>
0.0000

> <Gold.Chemscore.DEClash>
0.6877

> <Gold.Chemscore.DEInternal>
3.2141

> <Gold.Chemscore.Rot>
2.8869

> <Gold.Chemscore.Internal.Correction>
   9.000000E+99

> <Gold.Chemscore.Hbonds>
donor molecule, donor type, donor heavy atom, donor atom, acceptor molecule, acceptor atom, score
      L1  H     1    28       P1  7949  0.13
      L1  H    24    47       P1 10186  0.95
      P1  H 10752 10765       L1     3  0.99

> <Gold.Chemscore.Hbond.Weighted>
-7.8807

> <Gold.Chemscore.Metal.Weighted>
-0.0000

> <Gold.Chemscore.Lipo.Weighted>
-7.3282

> <Gold.Chemscore.Internal_Hbond.Weighted>
0.0000

> <Gold.Chemscore.DEClash.Weighted>
0.6877

> <Gold.Chemscore.DEInternal.Weighted>
3.2141

> <Gold.Chemscore.Rot.Weighted>
7.3905

> <Gold.Chemscore.Internal.Correction.Weighted>
   9.000000E+99

> <Gold.Protein.RotatedTorsions>
[ 6907 6896 6895 6894 ] final  -61.00 input  -60.11 | X-H torsion
[ 7974 7965 7964 7962 ] final  -30.99 input  175.53 | X-H torsion
[ 8008 7997 7996 7995 ] final -141.37 input   59.86 | X-H torsion
[ 10167 10162 10161 10158 ] final -118.65 input  -65.29 | X-H torsion
[ 10718 10713 10712 10709 ] final -124.62 input   66.30 | X-H torsion
[ 10763 10752 10751 10750 ] final -177.18 input  -60.55 | X-H torsion
[ 11005 11000 10999 10996 ] final  143.83 input  -57.11 | X-H torsion

> <Gold.Protein.ActiveResidues>
 VAL166  LYS551  ARG553  GLY616  TRP617  ASP618  TYR619  PRO620  LYS621  CYS622 
 ASP623  PHE694  ASN695  SER759  ASP760  ASP761  ALA762  ILE779  LEU786  VAL792 
 PHE793  MET794  SER795  GLU796  ALA797  LYS798  CYS799  TRP800  GLU811  SER814 

> <Gold.Protein.RotatedAtoms>
  150.7816  134.6763  159.6418 H   0  0  0  0  0  0  0  0  0  0  0  0  # atno 6907 bound_to 6896
  152.3901  134.6451  160.0119 H   0  0  0  0  0  0  0  0  0  0  0  0  # atno 6908 bound_to 6896
  151.6754  133.3276  159.3243 H   0  0  0  0  0  0  0  0  0  0  0  0  # atno 6909 bound_to 6896
  146.1101  140.5611  142.8782 H   0  0  0  0  0  0  0  0  0  0  0  0  # atno 7974 bound_to 7965
  155.4767  140.0557  157.2972 H   0  0  0  0  0  0  0  0  0  0  0  0  # atno 8008 bound_to 7997
  154.4676  140.2026  156.0030 H   0  0  0  0  0  0  0  0  0  0  0  0  # atno 8009 bound_to 7997
  156.1002  140.3220  155.7936 H   0  0  0  0  0  0  0  0  0  0  0  0  # atno 8010 bound_to 7997
  140.0551  143.5022  152.2061 H   0  0  0  0  0  0  0  0  0  0  0  0  # atno 10167 bound_to 10162
  156.1603  130.6597  151.0040 H   0  0  0  0  0  0  0  0  0  0  0  0  # atno 10718 bound_to 10713
  154.5633  135.2822  155.0898 H   0  0  0  0  0  0  0  0  0  0  0  0  # atno 10763 bound_to 10752
  154.2298  135.6376  153.5175 H   0  0  0  0  0  0  0  0  0  0  0  0  # atno 10764 bound_to 10752
  153.0035  135.5534  154.6234 H   0  0  0  0  0  0  0  0  0  0  0  0  # atno 10765 bound_to 10752
  140.0584  134.9218  157.1141 H   0  0  0  0  0  0  0  0  0  0  0  0  # atno 11005 bound_to 11000
  144.7504  140.5177  143.6806 LP  0  0  0  0  0  0  0  0  0  0  0  0  # atno 17320 bound_to 7965
  145.5681  139.1482  143.3304 LP  0  0  0  0  0  0  0  0  0  0  0  0  # atno 17321 bound_to 7965
  139.5928  144.7556  151.3358 LP  0  0  0  0  0  0  0  0  0  0  0  0  # atno 17342 bound_to 10162
  140.7198  143.7166  150.7728 LP  0  0  0  0  0  0  0  0  0  0  0  0  # atno 17343 bound_to 10162
  157.6727  131.0857  150.7571 LP  0  0  0  0  0  0  0  0  0  0  0  0  # atno 17370 bound_to 10713
  156.7634  130.4806  149.5432 LP  0  0  0  0  0  0  0  0  0  0  0  0  # atno 17371 bound_to 10713
  140.3808  134.2289  155.7171 LP  0  0  0  0  0  0  0  0  0  0  0  0  # atno 17394 bound_to 11000
  141.1962  133.8087  157.0681 LP  0  0  0  0  0  0  0  0  0  0  0  0  # atno 17395 bound_to 11000

$$$$
