AV-unprocessed.smi:1135|AV-procd|sdf|4860|dock9
  -GOLD-   22720 3433D 1   1.00000     0.00000
 Structure written by MMmdl.
 46 47  0  0  0  0  0  0  0  0  2 V2000
  150.7364  141.0729  158.2322 C   0  0  0  0  0  0  0  0  0  0  0  0
  150.1665  140.5956  156.8890 C   0  0  2  0  0  0  0  0  0  0  0  0
  150.2173  141.7060  155.8270 C   0  0  0  0  0  0  0  0  0  0  0  0
  149.6479  141.2296  154.4788 C   0  0  0  0  0  0  0  0  0  0  0  0
  148.2096  140.6596  154.5711 C   0  0  1  0  0  0  0  0  0  0  0  0
  147.1919  141.8004  154.8097 C   0  0  0  0  0  0  0  0  0  0  0  0
  147.9444  140.0231  153.2738 N   0  0  0  0  0  0  0  0  0  0  0  0
  146.8953  139.2618  152.9223 C   0  0  0  0  0  0  0  0  0  0  0  0
  145.9296  139.0228  153.6477 O   0  0  0  0  0  0  0  0  0  0  0  0
  147.0476  138.7474  151.6932 N   0  0  0  0  0  0  0  0  0  0  0  0
  146.1426  137.7869  151.0645 C   0  0  0  0  0  0  0  0  0  0  0  0
  145.5680  136.7692  152.0725 C   0  0  0  0  0  0  0  0  0  0  0  0
  145.3791  135.3749  151.4985 C   0  0  0  0  0  0  0  0  0  0  0  0
  144.1148  134.8937  151.0923 C   0  0  0  0  0  0  0  0  0  0  0  0
  144.0165  133.6060  150.5255 C   0  0  0  0  0  0  0  0  0  0  0  0
  145.1816  132.8244  150.3824 C   0  0  0  0  0  0  0  0  0  0  0  0
  146.4170  133.3513  150.8111 C   0  0  0  0  0  0  0  0  0  0  0  0
  146.4708  134.5907  151.3467 N   0  3  0  0  0  0  0  0  0  0  0  0
  148.1529  139.5910  155.6991 C   0  0  0  0  0  0  0  0  0  0  0  0
  148.7266  140.0798  157.0400 C   0  0  0  0  0  0  0  0  0  0  0  0
  150.1567  141.9033  158.6365 H   0  0  0  0  0  0  0  0  0  0  0  0
  151.7685  141.4080  158.1244 H   0  0  0  0  0  0  0  0  0  0  0  0
  150.7264  140.2699  158.9697 H   0  0  0  0  0  0  0  0  0  0  0  0
  150.7881  139.7680  156.5436 H   0  0  0  0  0  0  0  0  0  0  0  0
  149.6679  142.5808  156.1757 H   0  0  0  0  0  0  0  0  0  0  0  0
  151.2476  142.0345  155.6862 H   0  0  0  0  0  0  0  0  0  0  0  0
  149.6830  142.0486  153.7586 H   0  0  0  0  0  0  0  0  0  0  0  0
  150.3169  140.4614  154.0865 H   0  0  0  0  0  0  0  0  0  0  0  0
  147.4025  142.3510  155.7257 H   0  0  0  0  0  0  0  0  0  0  0  0
  146.1723  141.4260  154.8989 H   0  0  0  0  0  0  0  0  0  0  0  0
  147.2058  142.5199  153.9903 H   0  0  0  0  0  0  0  0  0  0  0  0
  148.6679  140.1438  152.5799 H   0  0  0  0  0  0  0  0  0  0  0  0
  147.8710  139.0063  151.1691 H   0  0  0  0  0  0  0  0  0  0  0  0
  145.3317  138.3087  150.5535 H   0  0  0  0  0  0  0  0  0  0  0  0
  146.6957  137.2577  150.2882 H   0  0  0  0  0  0  0  0  0  0  0  0
  146.2242  136.7051  152.9415 H   0  0  0  0  0  0  0  0  0  0  0  0
  144.6085  137.1284  152.4462 H   0  0  0  0  0  0  0  0  0  0  0  0
  143.2329  135.5085  151.1979 H   0  0  0  0  0  0  0  0  0  0  0  0
  143.0597  133.2248  150.1998 H   0  0  0  0  0  0  0  0  0  0  0  0
  145.1286  131.8367  149.9482 H   0  0  0  0  0  0  0  0  0  0  0  0
  147.3579  132.8259  150.7363 H   0  0  0  0  0  0  0  0  0  0  0  0
  147.1296  139.2510  155.8595 H   0  0  0  0  0  0  0  0  0  0  0  0
  148.7163  138.7092  155.3894 H   0  0  0  0  0  0  0  0  0  0  0  0
  148.7000  139.2628  157.7619 H   0  0  0  0  0  0  0  0  0  0  0  0
  148.0913  140.8658  157.4495 H   0  0  0  0  0  0  0  0  0  0  0  0
  147.3778  134.9564  151.6373 H   0  0  0  0  0  0  0  0  0  0  0  0
  1  2  1  0  0  0  0
  1 21  1  0  0  0  0
  1 22  1  0  0  0  0
  1 23  1  0  0  0  0
  2 20  1  0  0  0  0
  2  3  1  0  0  0  0
  2 24  1  0  0  0  0
  3  4  1  0  0  0  0
  3 25  1  0  0  0  0
  3 26  1  0  0  0  0
  4  5  1  0  0  0  0
  4 27  1  0  0  0  0
  4 28  1  0  0  0  0
  5  6  1  0  0  0  0
  5  7  1  0  0  0  0
  5 19  1  0  0  0  0
  6 29  1  0  0  0  0
  6 30  1  0  0  0  0
  6 31  1  0  0  0  0
  7  8  1  0  0  0  0
  7 32  1  0  0  0  0
  8  9  2  0  0  0  0
  8 10  1  0  0  0  0
 10 11  1  0  0  0  0
 10 33  1  0  0  0  0
 11 12  1  0  0  0  0
 11 34  1  0  0  0  0
 11 35  1  0  0  0  0
 12 13  1  0  0  0  0
 12 36  1  0  0  0  0
 12 37  1  0  0  0  0
 13 18  1  0  0  0  0
 13 14  2  0  0  0  0
 14 15  1  0  0  0  0
 14 38  1  0  0  0  0
 15 16  2  0  0  0  0
 15 39  1  0  0  0  0
 16 17  1  0  0  0  0
 16 40  1  0  0  0  0
 17 18  2  0  0  0  0
 17 41  1  0  0  0  0
 18 46  1  0  0  0  0
 19 20  1  0  0  0  0
 19 42  1  0  0  0  0
 19 43  1  0  0  0  0
 20 44  1  0  0  0  0
 20 45  1  0  0  0  0
M  CHG  1  18   1
M  END
> <s_m_source_file>
AV-unprocessed.smi

> <i_m_source_file_index>
1135

> <i_lp_mmshare_version>
43012

> <i_f3d_flags>
0

> <s_epik_input>
W0NIMl0xW0NIMl1bQ0BIXShbQ0gzXSlbQ0gyXVtDSDJdW0NAQF0xKFtDSDNdKVtOSF1DKD1PKVtOSF1bQ0gyXVtDSDJdYzJbY0hdW2NIXVtjSF1bY0hdbjI=

> <s_epik_cmdline>
J2VwaWtfcHl0aG9uJywgJy1waCcsICc3LjAnLCAnLXRuJywgJzgnLCAnLW1hJywgJzIwMCcsICctbWV0YWxfYmluZGluZycsICctaW1hZScsICc8aW5maWxlLm1hZT4nLCAnLW9tYWUnLCAnPG91dGZpbGUubWFlPic=

> <r_epik_Ionization_Penalty>
1.55217

> <r_epik_Ionization_Penalty_Charging>
1.55211

> <r_epik_Ionization_Penalty_Neutral>
5.91929e-05

> <r_epik_State_Penalty>
1.64641

> <r_epik_Charging_Adjusted_Penalty>
3.19851

> <i_epik_Tot_Q>
1

> <i_epik_Tot_abs_Q>
1

> <r_epik_Metal_State_Penalty>
1.68848

> <b_epik_Metal_Only>
0

> <s_lp_Force_Field>
OPLS_2005

> <r_lp_Energy>
15.0823

> <b_lp_Chiralities_Consistent>
1

> <s_lp_Variant>
AV-unprocessed.smi:1135-3

> <Gold.Version>
5.8.1

> <Gold.Id.Protein>
6NUR|6NUR_protein|mol2

> <Gold.PLP.Fitness>
45.2555

> <Gold.PLP.PLP>
-34.7399

> <Gold.PLP.part.hbond>
-3.9035

> <Gold.PLP.part.metal>
0.0000

> <Gold.PLP.part.buried>
-1.4034

> <Gold.PLP.part.nonpolar>
-31.3105

> <Gold.PLP.part.repulsive>
1.3432

> <Gold.PLP.ligand.clash>
0.0000

> <Gold.PLP.ligand.torsion>
0.7357

> <Gold.PLP.Chemscore.Hbond>
3.9920

> <Gold.PLP.Chemscore.CHOScore>
0.0000

> <Gold.PLP.Chemscore.Metal>
0.0000

> <Gold.Chemscore.Hbonds>
donor molecule, donor type, donor heavy atom, donor atom, acceptor molecule, acceptor atom, score
      L1  H     7    32       P1  7957  1.00
      L1  H    10    33       P1  7957  0.96
      L1  H    18    46       P1  7948  2.00

> <Gold.PLP.Chemscore.Internal.Correction>
0.0111

> <Gold.Rescore>
     Score         DG    S(hbond)    S(metal)    S(lipo)     H(rot)  DE(clash)    DE(int)     intcor
     17.60     -20.79       2.76        0.00      85.19       1.51       1.07       2.13       ----

> <Gold.Chemscore.Fitness>
17.5964

> <Gold.Chemscore.DG>
-20.7898

> <Gold.Chemscore.ZeroCoef>
-5.4800

> <Gold.Chemscore.Hbond>
2.7557

> <Gold.Chemscore.Metal>
0.0000

> <Gold.Chemscore.Lipo>
85.1910

> <Gold.Chemscore.Internal_Hbond>
0.0000

> <Gold.Chemscore.DEClash>
1.0670

> <Gold.Chemscore.DEInternal>
2.1265

> <Gold.Chemscore.Rot>
1.5085

> <Gold.Chemscore.Internal.Correction>
   9.000000E+99

> <Gold.Chemscore.Hbonds>
donor molecule, donor type, donor heavy atom, donor atom, acceptor molecule, acceptor atom, score
      L1  H     7    32       P1  7957  1.00
      L1  H    10    33       P1  7957  0.45
      L1  H    18    46       P1  7948  0.72

> <Gold.Chemscore.Hbond.Weighted>
-9.2042

> <Gold.Chemscore.Metal.Weighted>
-0.0000

> <Gold.Chemscore.Lipo.Weighted>
-9.9673

> <Gold.Chemscore.Internal_Hbond.Weighted>
0.0000

> <Gold.Chemscore.DEClash.Weighted>
1.0670

> <Gold.Chemscore.DEInternal.Weighted>
2.1265

> <Gold.Chemscore.Rot.Weighted>
3.8617

> <Gold.Chemscore.Internal.Correction.Weighted>
   9.000000E+99

> <Gold.Protein.RotatedTorsions>
[ 6907 6896 6895 6894 ] final  -77.33 input  -60.11 | X-H torsion
[ 7974 7965 7964 7962 ] final -118.59 input  175.53 | X-H torsion
[ 8008 7997 7996 7995 ] final  -36.14 input   59.86 | X-H torsion
[ 10167 10162 10161 10158 ] final  128.00 input  -65.29 | X-H torsion
[ 10718 10713 10712 10709 ] final   52.75 input   66.30 | X-H torsion
[ 10763 10752 10751 10750 ] final   72.12 input  -60.55 | X-H torsion
[ 11005 11000 10999 10996 ] final  -10.04 input  -57.11 | X-H torsion

> <Gold.Protein.ActiveResidues>
 VAL166  LYS551  ARG553  GLY616  TRP617  ASP618  TYR619  PRO620  LYS621  CYS622 
 ASP623  PHE694  ASN695  SER759  ASP760  ASP761  ALA762  ILE779  LEU786  VAL792 
 PHE793  MET794  SER795  GLU796  ALA797  LYS798  CYS799  TRP800  GLU811  SER814 

> <Gold.Protein.RotatedAtoms>
  150.7002  134.4439  159.5304 H   0  0  0  0  0  0  0  0  0  0  0  0  # atno 6907 bound_to 6896
  152.2144  134.8469  160.0502 H   0  0  0  0  0  0  0  0  0  0  0  0  # atno 6908 bound_to 6896
  151.9342  133.3585  159.3979 H   0  0  0  0  0  0  0  0  0  0  0  0  # atno 6909 bound_to 6896
  145.0720  140.8366  143.4090 H   0  0  0  0  0  0  0  0  0  0  0  0  # atno 7974 bound_to 7965
  154.4079  140.1638  156.2326 H   0  0  0  0  0  0  0  0  0  0  0  0  # atno 8008 bound_to 7997
  155.9270  140.3417  155.6195 H   0  0  0  0  0  0  0  0  0  0  0  0  # atno 8009 bound_to 7997
  155.7153  140.0761  157.2344 H   0  0  0  0  0  0  0  0  0  0  0  0  # atno 8010 bound_to 7997
  139.5549  144.6841  151.4212 H   0  0  0  0  0  0  0  0  0  0  0  0  # atno 10167 bound_to 10162
  157.5104  130.8497  149.8428 H   0  0  0  0  0  0  0  0  0  0  0  0  # atno 10718 bound_to 10713
  153.0439  135.5111  154.7696 H   0  0  0  0  0  0  0  0  0  0  0  0  # atno 10763 bound_to 10752
  154.6611  135.2939  154.9867 H   0  0  0  0  0  0  0  0  0  0  0  0  # atno 10764 bound_to 10752
  154.0718  135.6676  153.4878 H   0  0  0  0  0  0  0  0  0  0  0  0  # atno 10765 bound_to 10752
  140.7405  133.8674  155.8964 H   0  0  0  0  0  0  0  0  0  0  0  0  # atno 11005 bound_to 11000
  145.1280  139.2650  143.5554 LP  0  0  0  0  0  0  0  0  0  0  0  0  # atno 17320 bound_to 7965
  146.3529  140.0923  142.8612 LP  0  0  0  0  0  0  0  0  0  0  0  0  # atno 17321 bound_to 7965
  140.6820  143.8060  150.7134 LP  0  0  0  0  0  0  0  0  0  0  0  0  # atno 17342 bound_to 10162
  140.1516  143.4352  152.2127 LP  0  0  0  0  0  0  0  0  0  0  0  0  # atno 17343 bound_to 10162
  156.0285  130.3772  150.1754 LP  0  0  0  0  0  0  0  0  0  0  0  0  # atno 17370 bound_to 10713
  156.9943  130.9903  151.3407 LP  0  0  0  0  0  0  0  0  0  0  0  0  # atno 17371 bound_to 10713
  140.9841  134.1367  157.4468 LP  0  0  0  0  0  0  0  0  0  0  0  0  # atno 17394 bound_to 11000
  139.8807  135.0020  156.6099 LP  0  0  0  0  0  0  0  0  0  0  0  0  # atno 17395 bound_to 11000

$$$$
