AV-unprocessed.smi:566|AV-procd|sdf|2955|dock6
  -GOLD-   2262023453D 1   1.00000     0.00000
 Structure written by MMmdl.
 39 40  0  0  0  0  0  0  0  0  1 V2000
  147.4928  136.2454  154.2306 C   0  0  0  0  0  0  0  0  0  0  0  0
  148.7197  137.1172  154.4692 C   0  0  0  0  0  0  0  0  0  0  0  0
  148.5446  138.5508  154.4564 C   0  0  0  0  0  0  0  0  0  0  0  0
  149.5717  139.3787  154.7055 C   0  0  0  0  0  0  0  0  0  0  0  0
  149.3709  140.8904  154.7004 C   0  0  0  0  0  0  0  0  0  0  0  0
  150.8690  138.8601  154.9709 N   0  0  0  0  0  0  0  0  0  0  0  0
  151.9836  139.7948  155.2531 C   0  0  0  0  0  0  0  0  0  0  0  0
  152.0959  140.1447  156.7495 C   0  0  0  0  0  0  0  0  0  0  0  0
  151.3617  141.3295  157.0255 O   0  0  0  0  0  0  0  0  0  0  0  0
  151.7269  142.0877  158.1166 C   0  0  0  0  0  0  0  0  0  0  0  0
  151.3816  143.4547  158.0879 C   0  0  0  0  0  0  0  0  0  0  0  0
  151.7137  144.3048  159.1601 C   0  0  0  0  0  0  0  0  0  0  0  0
  152.4009  143.7933  160.2763 C   0  0  0  0  0  0  0  0  0  0  0  0
  152.7542  142.4317  160.3175 C   0  0  0  0  0  0  0  0  0  0  0  0
  153.4170  141.9381  161.3902 F   0  0  0  0  0  0  0  0  0  0  0  0
  152.4199  141.5810  159.2454 C   0  0  0  0  0  0  0  0  0  0  0  0
  151.1296  137.5129  154.9664 C   0  0  0  0  0  0  0  0  0  0  0  0
  152.2815  137.1006  155.1363 O   0  0  0  0  0  0  0  0  0  0  0  0
  149.9599  136.6224  154.7290 C   0  0  0  0  0  0  0  0  0  0  0  0
  150.2178  135.1693  154.7629 C   0  0  0  0  0  0  0  0  0  0  0  0
  149.8701  134.5030  153.6531 N   0  0  0  0  0  0  0  0  0  0  0  0
  150.7822  134.5771  155.6813 O   0  0  0  0  0  0  0  0  0  0  0  0
  146.5802  136.8422  154.2248 H   0  0  0  0  0  0  0  0  0  0  0  0
  147.3860  135.4950  155.0147 H   0  0  0  0  0  0  0  0  0  0  0  0
  147.5630  135.7397  153.2674 H   0  0  0  0  0  0  0  0  0  0  0  0
  147.5669  138.9630  154.2522 H   0  0  0  0  0  0  0  0  0  0  0  0
  148.4053  141.1483  154.2648 H   0  0  0  0  0  0  0  0  0  0  0  0
  150.1258  141.4105  154.1134 H   0  0  0  0  0  0  0  0  0  0  0  0
  149.3829  141.2795  155.7187 H   0  0  0  0  0  0  0  0  0  0  0  0
  152.9302  139.3858  154.9041 H   0  0  0  0  0  0  0  0  0  0  0  0
  151.8943  140.7148  154.6730 H   0  0  0  0  0  0  0  0  0  0  0  0
  151.7322  139.3222  157.3660 H   0  0  0  0  0  0  0  0  0  0  0  0
  153.1463  140.3077  156.9946 H   0  0  0  0  0  0  0  0  0  0  0  0
  150.8540  143.8547  157.2343 H   0  0  0  0  0  0  0  0  0  0  0  0
  151.4409  145.3492  159.1257 H   0  0  0  0  0  0  0  0  0  0  0  0
  152.6571  144.4443  161.0991 H   0  0  0  0  0  0  0  0  0  0  0  0
  152.7087  140.5434  159.3123 H   0  0  0  0  0  0  0  0  0  0  0  0
  150.0286  133.5077  153.5912 H   0  0  0  0  0  0  0  0  0  0  0  0
  149.4641  135.0028  152.8753 H   0  0  0  0  0  0  0  0  0  0  0  0
  1  2  1  0  0  0  0
  1 23  1  0  0  0  0
  1 24  1  0  0  0  0
  1 25  1  0  0  0  0
  2 19  2  0  0  0  0
  2  3  1  0  0  0  0
  3  4  2  0  0  0  0
  3 26  1  0  0  0  0
  4  5  1  0  0  0  0
  4  6  1  0  0  0  0
  5 27  1  0  0  0  0
  5 28  1  0  0  0  0
  5 29  1  0  0  0  0
  6  7  1  0  0  0  0
  6 17  1  0  0  0  0
  7  8  1  0  0  0  0
  7 30  1  0  0  0  0
  7 31  1  0  0  0  0
  8  9  1  0  0  0  0
  8 32  1  0  0  0  0
  8 33  1  0  0  0  0
  9 10  1  0  0  0  0
 10 16  1  0  0  0  0
 10 11  2  0  0  0  0
 11 12  1  0  0  0  0
 11 34  1  0  0  0  0
 12 13  2  0  0  0  0
 12 35  1  0  0  0  0
 13 14  1  0  0  0  0
 13 36  1  0  0  0  0
 14 15  1  0  0  0  0
 14 16  2  0  0  0  0
 16 37  1  0  0  0  0
 17 18  2  0  0  0  0
 17 19  1  0  0  0  0
 19 20  1  0  0  0  0
 20 21  1  0  0  0  0
 20 22  2  0  0  0  0
 21 38  1  0  0  0  0
 21 39  1  0  0  0  0
M  END
> <s_m_source_file>
AV-unprocessed.smi

> <i_m_source_file_index>
566

> <i_lp_mmshare_version>
43012

> <i_f3d_flags>
0

> <s_epik_input>
W0NIM11jMVtjSF1jKFtDSDNdKW4oYyg9TyljMUMoPU8pW05IMl0pW0NIMl1bQ0gyXU9jMltjSF1bY0hdW2NIXWMoRilbY0hdMg==

> <s_epik_cmdline>
J2VwaWtfcHl0aG9uJywgJy1waCcsICc3LjAnLCAnLXRuJywgJzgnLCAnLW1hJywgJzIwMCcsICctbWV0YWxfYmluZGluZycsICctaW1hZScsICc8aW5maWxlLm1hZT4nLCAnLW9tYWUnLCAnPG91dGZpbGUubWFlPic=

> <r_lp_tautomer_probability>
1

> <r_epik_Ionization_Penalty>
1.93248e-07

> <r_epik_Ionization_Penalty_Charging>
2.77691e-08

> <r_epik_Ionization_Penalty_Neutral>
1.65479e-07

> <r_epik_State_Penalty>
-0

> <r_epik_Charging_Adjusted_Penalty>
2.77691e-08

> <i_epik_Tot_Q>
0

> <i_epik_Tot_abs_Q>
0

> <r_epik_Metal_State_Penalty>
-0

> <b_epik_Metal_Only>
0

> <s_lp_Force_Field>
OPLS_2005

> <r_lp_Energy>
41.2098

> <b_lp_Chiralities_Consistent>
1

> <s_lp_Variant>
AV-unprocessed.smi:566-1

> <Gold.Version>
5.8.1

> <Gold.Id.Protein>
6NUR|6NUR_protein|mol2

> <Gold.PLP.Fitness>
45.1417

> <Gold.PLP.PLP>
-42.9050

> <Gold.PLP.part.hbond>
-2.0000

> <Gold.PLP.part.metal>
0.0000

> <Gold.PLP.part.buried>
-0.8371

> <Gold.PLP.part.nonpolar>
-39.0179

> <Gold.PLP.part.repulsive>
0.1368

> <Gold.PLP.ligand.clash>
0.0000

> <Gold.PLP.ligand.torsion>
2.0439

> <Gold.PLP.Chemscore.Hbond>
2.0000

> <Gold.PLP.Chemscore.CHOScore>
0.0000

> <Gold.PLP.Chemscore.Metal>
0.0000

> <Gold.Chemscore.Hbonds>
donor molecule, donor type, donor heavy atom, donor atom, acceptor molecule, acceptor atom, score
      L1  H    21    39       P1  7948  0.05
      P1  H 10752 10765       L1    18  0.80

> <Gold.PLP.Chemscore.Internal.Correction>
0.3246

> <Gold.Rescore>
     Score         DG    S(hbond)    S(metal)    S(lipo)     H(rot)  DE(clash)    DE(int)     intcor
     16.03     -18.32       1.55        0.00     102.28       1.69       0.38       1.91       ----

> <Gold.Chemscore.Fitness>
16.0292

> <Gold.Chemscore.DG>
-18.3159

> <Gold.Chemscore.ZeroCoef>
-5.4800

> <Gold.Chemscore.Hbond>
1.5537

> <Gold.Chemscore.Metal>
0.0000

> <Gold.Chemscore.Lipo>
102.2830

> <Gold.Chemscore.Internal_Hbond>
0.0000

> <Gold.Chemscore.DEClash>
0.3816

> <Gold.Chemscore.DEInternal>
1.9051

> <Gold.Chemscore.Rot>
1.6878

> <Gold.Chemscore.Internal.Correction>
   9.000000E+99

> <Gold.Chemscore.Hbonds>
donor molecule, donor type, donor heavy atom, donor atom, acceptor molecule, acceptor atom, score
      P1  H 10752 10765       L1    18  0.79

> <Gold.Chemscore.Hbond.Weighted>
-5.1895

> <Gold.Chemscore.Metal.Weighted>
-0.0000

> <Gold.Chemscore.Lipo.Weighted>
-11.9671

> <Gold.Chemscore.Internal_Hbond.Weighted>
0.0000

> <Gold.Chemscore.DEClash.Weighted>
0.3816

> <Gold.Chemscore.DEInternal.Weighted>
1.9051

> <Gold.Chemscore.Rot.Weighted>
4.3207

> <Gold.Chemscore.Internal.Correction.Weighted>
   9.000000E+99

> <Gold.Protein.RotatedTorsions>
[ 6907 6896 6895 6894 ] final  152.24 input  -60.11 | X-H torsion
[ 7974 7965 7964 7962 ] final   -7.87 input  175.53 | X-H torsion
[ 8008 7997 7996 7995 ] final  -65.17 input   59.86 | X-H torsion
[ 10167 10162 10161 10158 ] final -173.21 input  -65.29 | X-H torsion
[ 10718 10713 10712 10709 ] final  -98.26 input   66.30 | X-H torsion
[ 10763 10752 10751 10750 ] final  176.55 input  -60.55 | X-H torsion
[ 11005 11000 10999 10996 ] final -167.28 input  -57.11 | X-H torsion

> <Gold.Protein.ActiveResidues>
 VAL166  LYS551  ARG553  GLY616  TRP617  ASP618  TYR619  PRO620  LYS621  CYS622 
 ASP623  PHE694  ASN695  SER759  ASP760  ASP761  ALA762  ILE779  LEU786  VAL792 
 PHE793  MET794  SER795  GLU796  ALA797  LYS798  CYS799  TRP800  GLU811  SER814 

> <Gold.Protein.RotatedAtoms>
  152.0894  133.4193  159.4536 H   0  0  0  0  0  0  0  0  0  0  0  0  # atno 6907 bound_to 6896
  150.6862  134.2889  159.4667 H   0  0  0  0  0  0  0  0  0  0  0  0  # atno 6908 bound_to 6896
  152.0739  134.9515  160.0625 H   0  0  0  0  0  0  0  0  0  0  0  0  # atno 6909 bound_to 6896
  146.2295  140.2384  142.8342 H   0  0  0  0  0  0  0  0  0  0  0  0  # atno 7974 bound_to 7965
  154.4655  140.0938  156.7010 H   0  0  0  0  0  0  0  0  0  0  0  0  # atno 8008 bound_to 7997
  155.4869  140.3469  155.4330 H   0  0  0  0  0  0  0  0  0  0  0  0  # atno 8009 bound_to 7997
  156.0949  140.1407  156.9532 H   0  0  0  0  0  0  0  0  0  0  0  0  # atno 8010 bound_to 7997
  139.5701  144.1661  152.1371 H   0  0  0  0  0  0  0  0  0  0  0  0  # atno 10167 bound_to 10162
  156.0103  130.5230  150.6496 H   0  0  0  0  0  0  0  0  0  0  0  0  # atno 10718 bound_to 10713
  154.4827  135.2775  155.1558 H   0  0  0  0  0  0  0  0  0  0  0  0  # atno 10763 bound_to 10752
  154.3262  135.6199  153.5534 H   0  0  0  0  0  0  0  0  0  0  0  0  # atno 10764 bound_to 10752
  152.9877  135.5754  154.5231 H   0  0  0  0  0  0  0  0  0  0  0  0  # atno 10765 bound_to 10752
  140.5550  134.5391  157.5131 H   0  0  0  0  0  0  0  0  0  0  0  0  # atno 11005 bound_to 11000
  144.9503  140.8171  143.5576 LP  0  0  0  0  0  0  0  0  0  0  0  0  # atno 17320 bound_to 7965
  145.2344  139.2100  143.5025 LP  0  0  0  0  0  0  0  0  0  0  0  0  # atno 17321 bound_to 7965
  140.1192  144.5388  150.6873 LP  0  0  0  0  0  0  0  0  0  0  0  0  # atno 17342 bound_to 10162
  140.6985  143.2419  151.4931 LP  0  0  0  0  0  0  0  0  0  0  0  0  # atno 17343 bound_to 10162
  157.4260  131.0843  151.1085 LP  0  0  0  0  0  0  0  0  0  0  0  0  # atno 17370 bound_to 10713
  157.1672  130.6251  149.5629 LP  0  0  0  0  0  0  0  0  0  0  0  0  # atno 17371 bound_to 10713
  139.9436  134.7742  156.0617 LP  0  0  0  0  0  0  0  0  0  0  0  0  # atno 17394 bound_to 11000
  141.1149  133.6631  156.3069 LP  0  0  0  0  0  0  0  0  0  0  0  0  # atno 17395 bound_to 11000

$$$$
