AV-unprocessed.smi:1812|AV-procd|sdf|7339|dock6
  -GOLD-   22720 9 03D 1   1.00000     0.00000
 Structure written by MMmdl.
 33 35  0  0  0  0  0  0  0  0  2 V2000
  150.0702  135.3473  156.4248 O   0  0  0  0  0  0  0  0  0  0  0  0
  150.0889  135.6336  155.2256 C   0  0  0  0  0  0  0  0  0  0  0  0
  149.0758  135.2652  154.4293 N   0  0  0  0  0  0  0  0  0  0  0  0
  147.8935  134.5087  154.8272 C   0  0  0  0  0  0  0  0  0  0  0  0
  147.0728  134.1151  153.5916 C   0  0  1  0  0  0  0  0  0  0  0  0
  147.7464  133.0682  152.7062 C   0  0  0  0  0  0  0  0  0  0  0  0
  146.5800  132.3891  152.0036 C   0  0  0  0  0  0  0  0  0  0  0  0
  145.3493  132.8459  152.7928 C   0  0  0  0  0  0  0  0  0  0  0  0
  145.8686  133.4623  153.9621 O   0  0  0  0  0  0  0  0  0  0  0  0
  151.0659  136.3103  154.5800 N   0  5  0  0  0  0  0  0  0  0  0  0
  151.3073  137.5965  154.8829 C   0  0  0  0  0  0  0  0  0  0  0  0
  152.5355  138.1309  154.8283 N   0  0  0  0  0  0  0  0  0  0  0  0
  152.5630  139.4699  155.1901 N   0  0  0  0  0  0  0  0  0  0  0  0
  151.3532  139.9273  155.5211 C   0  0  0  0  0  0  0  0  0  0  0  0
  151.1212  141.3372  155.9505 C   0  0  0  0  0  0  0  0  0  0  0  0
  150.6601  141.6720  157.3525 C   0  0  0  0  0  0  0  0  0  0  0  0
  149.7207  141.8537  156.1875 C   0  0  0  0  0  0  0  0  0  0  0  0
  150.0694  138.7332  155.4163 S   0  0  0  0  0  0  0  0  0  0  0  0
  149.1358  135.5283  153.4565 H   0  0  0  0  0  0  0  0  0  0  0  0
  148.1724  133.6044  155.3703 H   0  0  0  0  0  0  0  0  0  0  0  0
  147.2964  135.1171  155.5075 H   0  0  0  0  0  0  0  0  0  0  0  0
  146.8317  134.9993  152.9980 H   0  0  0  0  0  0  0  0  0  0  0  0
  148.4639  133.5064  152.0120 H   0  0  0  0  0  0  0  0  0  0  0  0
  148.2755  132.3387  153.3208 H   0  0  0  0  0  0  0  0  0  0  0  0
  146.5050  132.6968  150.9601 H   0  0  0  0  0  0  0  0  0  0  0  0
  146.6926  131.3048  152.0268 H   0  0  0  0  0  0  0  0  0  0  0  0
  144.7804  133.5821  152.2230 H   0  0  0  0  0  0  0  0  0  0  0  0
  144.6823  132.0215  153.0455 H   0  0  0  0  0  0  0  0  0  0  0  0
  151.8396  142.0051  155.4791 H   0  0  0  0  0  0  0  0  0  0  0  0
  150.4499  140.8518  158.0361 H   0  0  0  0  0  0  0  0  0  0  0  0
  151.0692  142.5688  157.8132 H   0  0  0  0  0  0  0  0  0  0  0  0
  149.5018  142.8713  155.8705 H   0  0  0  0  0  0  0  0  0  0  0  0
  148.8986  141.1471  156.0911 H   0  0  0  0  0  0  0  0  0  0  0  0
  1  2  2  0  0  0  0
  2  3  1  0  0  0  0
  2 10  1  0  0  0  0
  3  4  1  0  0  0  0
  3 19  1  0  0  0  0
  4  5  1  0  0  0  0
  4 20  1  0  0  0  0
  4 21  1  0  0  0  0
  5  9  1  0  0  0  0
  5  6  1  0  0  0  0
  5 22  1  0  0  0  0
  6  7  1  0  0  0  0
  6 23  1  0  0  0  0
  6 24  1  0  0  0  0
  7  8  1  0  0  0  0
  7 25  1  0  0  0  0
  7 26  1  0  0  0  0
  8  9  1  0  0  0  0
  8 27  1  0  0  0  0
  8 28  1  0  0  0  0
 10 11  1  0  0  0  0
 11 18  1  0  0  0  0
 11 12  2  0  0  0  0
 12 13  1  0  0  0  0
 13 14  2  0  0  0  0
 14 15  1  0  0  0  0
 14 18  1  0  0  0  0
 15 17  1  0  0  0  0
 15 16  1  0  0  0  0
 15 29  1  0  0  0  0
 16 17  1  0  0  0  0
 16 30  1  0  0  0  0
 16 31  1  0  0  0  0
 17 32  1  0  0  0  0
 17 33  1  0  0  0  0
M  CHG  1  10  -1
M  END
> <s_m_source_file>
AV-unprocessed.smi

> <i_m_source_file_index>
1812

> <i_lp_mmshare_version>
43012

> <i_f3d_flags>
0

> <s_epik_input>
TzFbQ0gyXVtDSDJdW0NIMl1bQ0BIXTFbQ0gyXVtOSF1DKD1PKVtOSF1jMm5uYyhzMilbQ0hdM1tDSDJdW0NIMl0z

> <s_epik_cmdline>
J2VwaWtfcHl0aG9uJywgJy1waCcsICc3LjAnLCAnLXRuJywgJzgnLCAnLW1hJywgJzIwMCcsICctbWV0YWxfYmluZGluZycsICctaW1hZScsICc8aW5maWxlLm1hZT4nLCAnLW9tYWUnLCAnPG91dGZpbGUubWFlPic=

> <r_lp_tautomer_probability>
1

> <r_epik_Ionization_Penalty>
4.72991

> <r_epik_Ionization_Penalty_Charging>
4.58249

> <r_epik_Ionization_Penalty_Neutral>
0.147417

> <r_epik_State_Penalty>
4.58223

> <r_epik_Charging_Adjusted_Penalty>
9.16473

> <i_epik_Tot_Q>
-1

> <i_epik_Tot_abs_Q>
1

> <r_epik_Metal_State_Penalty>
0.861876

> <b_epik_Metal_Only>
1

> <s_lp_Force_Field>
OPLS_2005

> <r_lp_Energy>
14.1682

> <b_lp_Chiralities_Consistent>
1

> <s_lp_Variant>
AV-unprocessed.smi:1812-4

> <Gold.Version>
5.8.1

> <Gold.Id.Protein>
6NUR|6NUR_protein|mol2

> <Gold.PLP.Fitness>
38.0644

> <Gold.PLP.PLP>
-27.8056

> <Gold.PLP.part.hbond>
-4.2015

> <Gold.PLP.part.metal>
0.0000

> <Gold.PLP.part.buried>
-4.1967

> <Gold.PLP.part.nonpolar>
-20.3991

> <Gold.PLP.part.repulsive>
1.3840

> <Gold.PLP.ligand.clash>
0.0000

> <Gold.PLP.ligand.torsion>
0.9586

> <Gold.PLP.Chemscore.Hbond>
4.0000

> <Gold.PLP.Chemscore.CHOScore>
0.0000

> <Gold.PLP.Chemscore.Metal>
0.0000

> <Gold.Chemscore.Hbonds>
donor molecule, donor type, donor heavy atom, donor atom, acceptor molecule, acceptor atom, score
      L1  H     3    19       P1  7948  1.00
      P1  H  7997  8009       L1    13  0.67
      P1  H 10752 10763       L1    10  2.00

> <Gold.PLP.Chemscore.Internal.Correction>
0.1760

> <Gold.Rescore>
     Score         DG    S(hbond)    S(metal)    S(lipo)     H(rot)  DE(clash)    DE(int)     intcor
     13.46     -14.54       2.06        0.00      50.36       1.45       0.00       1.07       ----

> <Gold.Chemscore.Fitness>
13.4615

> <Gold.Chemscore.DG>
-14.5400

> <Gold.Chemscore.ZeroCoef>
-5.4800

> <Gold.Chemscore.Hbond>
2.0561

> <Gold.Chemscore.Metal>
0.0000

> <Gold.Chemscore.Lipo>
50.3610

> <Gold.Chemscore.Internal_Hbond>
0.0000

> <Gold.Chemscore.DEClash>
0.0048

> <Gold.Chemscore.DEInternal>
1.0737

> <Gold.Chemscore.Rot>
1.4451

> <Gold.Chemscore.Internal.Correction>
   9.000000E+99

> <Gold.Chemscore.Hbonds>
donor molecule, donor type, donor heavy atom, donor atom, acceptor molecule, acceptor atom, score
      L1  H     3    19       P1  7948  0.55
      P1  H  7997  8009       L1    13  0.60
      P1  H 10752 10763       L1    10  0.29

> <Gold.Chemscore.Hbond.Weighted>
-6.8673

> <Gold.Chemscore.Metal.Weighted>
-0.0000

> <Gold.Chemscore.Lipo.Weighted>
-5.8922

> <Gold.Chemscore.Internal_Hbond.Weighted>
0.0000

> <Gold.Chemscore.DEClash.Weighted>
0.0048

> <Gold.Chemscore.DEInternal.Weighted>
1.0737

> <Gold.Chemscore.Rot.Weighted>
3.6995

> <Gold.Chemscore.Internal.Correction.Weighted>
   9.000000E+99

> <Gold.Protein.RotatedTorsions>
[ 6907 6896 6895 6894 ] final  -84.13 input  -60.11 | X-H torsion
[ 7974 7965 7964 7962 ] final  -12.89 input  175.53 | X-H torsion
[ 8008 7997 7996 7995 ] final -129.78 input   59.86 | X-H torsion
[ 10167 10162 10161 10158 ] final   -2.48 input  -65.29 | X-H torsion
[ 10718 10713 10712 10709 ] final  100.42 input   66.30 | X-H torsion
[ 10763 10752 10751 10750 ] final   54.16 input  -60.55 | X-H torsion
[ 11005 11000 10999 10996 ] final  163.14 input  -57.11 | X-H torsion

> <Gold.Protein.ActiveResidues>
 VAL166  LYS551  ARG553  GLY616  TRP617  ASP618  TYR619  PRO620  LYS621  CYS622 
 ASP623  PHE694  ASN695  SER759  ASP760  ASP761  ALA762  ILE779  LEU786  VAL792 
 PHE793  MET794  SER795  GLU796  ALA797  LYS798  CYS799  TRP800  GLU811  SER814 

> <Gold.Protein.RotatedAtoms>
  150.6879  134.3405  159.4865 H   0  0  0  0  0  0  0  0  0  0  0  0  # atno 6907 bound_to 6896
  152.1259  134.9169  160.0570 H   0  0  0  0  0  0  0  0  0  0  0  0  # atno 6908 bound_to 6896
  152.0357  133.3921  159.4353 H   0  0  0  0  0  0  0  0  0  0  0  0  # atno 6909 bound_to 6896
  146.2135  140.3123  142.8383 H   0  0  0  0  0  0  0  0  0  0  0  0  # atno 7974 bound_to 7965
  155.2849  140.0445  157.3018 H   0  0  0  0  0  0  0  0  0  0  0  0  # atno 8008 bound_to 7997
  154.5575  140.2336  155.8355 H   0  0  0  0  0  0  0  0  0  0  0  0  # atno 8009 bound_to 7997
  156.2019  140.3023  155.9553 H   0  0  0  0  0  0  0  0  0  0  0  0  # atno 8010 bound_to 7997
  140.6852  143.6652  150.8232 H   0  0  0  0  0  0  0  0  0  0  0  0  # atno 10167 bound_to 10162
  157.6854  131.0698  150.5098 H   0  0  0  0  0  0  0  0  0  0  0  0  # atno 10718 bound_to 10713
  152.9802  135.5754  154.4859 H   0  0  0  0  0  0  0  0  0  0  0  0  # atno 10763 bound_to 10752
  154.4401  135.2775  155.1856 H   0  0  0  0  0  0  0  0  0  0  0  0  # atno 10764 bound_to 10752
  154.3527  135.6205  153.5704 H   0  0  0  0  0  0  0  0  0  0  0  0  # atno 10765 bound_to 10752
  140.2328  134.8111  157.3334 H   0  0  0  0  0  0  0  0  0  0  0  0  # atno 11005 bound_to 11000
  144.8979  140.7606  143.5885 LP  0  0  0  0  0  0  0  0  0  0  0  0  # atno 17320 bound_to 7965
  145.3048  139.1838  143.4670 LP  0  0  0  0  0  0  0  0  0  0  0  0  # atno 17321 bound_to 7965
  140.0358  143.5396  152.2740 LP  0  0  0  0  0  0  0  0  0  0  0  0  # atno 17342 bound_to 10162
  139.6206  144.7628  151.2750 LP  0  0  0  0  0  0  0  0  0  0  0  0  # atno 17343 bound_to 10162
  156.5416  130.4209  149.6151 LP  0  0  0  0  0  0  0  0  0  0  0  0  # atno 17370 bound_to 10713
  156.2981  130.7161  151.2026 LP  0  0  0  0  0  0  0  0  0  0  0  0  # atno 17371 bound_to 10713
  140.1733  134.4581  155.7818 LP  0  0  0  0  0  0  0  0  0  0  0  0  # atno 17394 bound_to 11000
  141.2216  133.6951  156.7744 LP  0  0  0  0  0  0  0  0  0  0  0  0  # atno 17395 bound_to 11000

$$$$
