AV-unprocessed.smi:1152|AV-procd|sdf|4897|dock1
  -GOLD-   22720 3473D 1   1.00000     0.00000
 Structure written by MMmdl.
 32 33  0  0  0  0  0  0  0  0  1 V2000
  147.0796  139.0948  152.3561 C   0  0  0  0  0  0  0  0  0  0  0  0
  148.3248  138.8729  153.0752 N   0  0  0  0  0  0  0  0  0  0  0  0
  148.7938  139.6816  154.0347 C   0  0  0  0  0  0  0  0  0  0  0  0
  148.2108  140.7013  154.4048 O   0  0  0  0  0  0  0  0  0  0  0  0
  149.9631  139.2316  154.5235 N   0  0  0  0  0  0  0  0  0  0  0  0
  150.7704  139.8035  155.5421 C   0  0  0  0  0  0  0  0  0  0  0  0
  151.8729  139.2217  156.0331 N   0  0  0  0  0  0  0  0  0  0  0  0
  152.4706  139.9945  157.0181 N   0  0  0  0  0  0  0  0  0  0  0  0
  151.8063  141.1359  157.2446 C   0  0  0  0  0  0  0  0  0  0  0  0
  152.2433  142.1463  158.2589 C   0  0  0  0  0  0  0  0  0  0  0  0
  152.2916  141.5679  159.6866 C   0  0  0  0  0  0  0  0  0  0  0  0
  152.7847  142.6150  160.6990 C   0  0  0  0  0  0  0  0  0  0  0  0
  151.9381  143.8967  160.6346 C   0  0  0  0  0  0  0  0  0  0  0  0
  151.9193  144.4812  159.2128 C   0  0  0  0  0  0  0  0  0  0  0  0
  151.4201  143.4474  158.1899 C   0  0  0  0  0  0  0  0  0  0  0  0
  150.3701  141.3582  156.2512 S   0  0  0  0  0  0  0  0  0  0  0  0
  146.9229  138.2980  151.6291 H   0  0  0  0  0  0  0  0  0  0  0  0
  147.1041  140.0450  151.8210 H   0  0  0  0  0  0  0  0  0  0  0  0
  146.2313  139.1029  153.0417 H   0  0  0  0  0  0  0  0  0  0  0  0
  148.8609  138.0543  152.8267 H   0  0  0  0  0  0  0  0  0  0  0  0
  150.3184  138.3782  154.1188 H   0  0  0  0  0  0  0  0  0  0  0  0
  153.2682  142.4126  157.9966 H   0  0  0  0  0  0  0  0  0  0  0  0
  151.2992  141.2224  159.9796 H   0  0  0  0  0  0  0  0  0  0  0  0
  152.9444  140.6947  159.7151 H   0  0  0  0  0  0  0  0  0  0  0  0
  152.7543  142.1994  161.7066 H   0  0  0  0  0  0  0  0  0  0  0  0
  153.8289  142.8567  160.4963 H   0  0  0  0  0  0  0  0  0  0  0  0
  150.9183  143.6775  160.9533 H   0  0  0  0  0  0  0  0  0  0  0  0
  152.3290  144.6355  161.3348 H   0  0  0  0  0  0  0  0  0  0  0  0
  151.2852  145.3678  159.1836 H   0  0  0  0  0  0  0  0  0  0  0  0
  152.9229  144.8106  158.9404 H   0  0  0  0  0  0  0  0  0  0  0  0
  151.4719  143.8705  157.1860 H   0  0  0  0  0  0  0  0  0  0  0  0
  150.3682  143.2302  158.3807 H   0  0  0  0  0  0  0  0  0  0  0  0
  1  2  1  0  0  0  0
  1 17  1  0  0  0  0
  1 18  1  0  0  0  0
  1 19  1  0  0  0  0
  2  3  1  0  0  0  0
  2 20  1  0  0  0  0
  3  4  2  0  0  0  0
  3  5  1  0  0  0  0
  5  6  1  0  0  0  0
  5 21  1  0  0  0  0
  6 16  1  0  0  0  0
  6  7  2  0  0  0  0
  7  8  1  0  0  0  0
  8  9  2  0  0  0  0
  9 10  1  0  0  0  0
  9 16  1  0  0  0  0
 10 15  1  0  0  0  0
 10 11  1  0  0  0  0
 10 22  1  0  0  0  0
 11 12  1  0  0  0  0
 11 23  1  0  0  0  0
 11 24  1  0  0  0  0
 12 13  1  0  0  0  0
 12 25  1  0  0  0  0
 12 26  1  0  0  0  0
 13 14  1  0  0  0  0
 13 27  1  0  0  0  0
 13 28  1  0  0  0  0
 14 15  1  0  0  0  0
 14 29  1  0  0  0  0
 14 30  1  0  0  0  0
 15 31  1  0  0  0  0
 15 32  1  0  0  0  0
M  END
> <s_m_source_file>
AV-unprocessed.smi

> <i_m_source_file_index>
1152

> <i_lp_mmshare_version>
43012

> <i_f3d_flags>
0

> <s_epik_input>
W0NIM11bTkhdQyg9TylbTkhdYzFubmMoczEpW0NIXTJbQ0gyXVtDSDJdW0NIMl1bQ0gyXVtDSDJdMg==

> <s_epik_cmdline>
J2VwaWtfcHl0aG9uJywgJy1waCcsICc3LjAnLCAnLXRuJywgJzgnLCAnLW1hJywgJzIwMCcsICctbWV0YWxfYmluZGluZycsICctaW1hZScsICc8aW5maWxlLm1hZT4nLCAnLW9tYWUnLCAnPG91dGZpbGUubWFlPic=

> <r_lp_tautomer_probability>
1

> <r_epik_Ionization_Penalty>
0.00039794

> <r_epik_Ionization_Penalty_Charging>
0

> <r_epik_Ionization_Penalty_Neutral>
0.00039794

> <r_epik_State_Penalty>
-0

> <r_epik_Charging_Adjusted_Penalty>
0

> <i_epik_Tot_Q>
0

> <i_epik_Tot_abs_Q>
0

> <r_epik_Metal_State_Penalty>
0.193873

> <b_epik_Metal_Only>
0

> <s_lp_Force_Field>
OPLS_2005

> <r_lp_Energy>
2.48504

> <b_lp_Chiralities_Consistent>
1

> <s_lp_Variant>
AV-unprocessed.smi:1152-1

> <Gold.Version>
5.8.1

> <Gold.Id.Protein>
6NUR|6NUR_protein|mol2

> <Gold.PLP.Fitness>
39.1244

> <Gold.PLP.PLP>
-33.1933

> <Gold.PLP.part.hbond>
-3.0000

> <Gold.PLP.part.metal>
0.0000

> <Gold.PLP.part.buried>
-3.6340

> <Gold.PLP.part.nonpolar>
-26.5223

> <Gold.PLP.part.repulsive>
0.2398

> <Gold.PLP.ligand.clash>
0.0000

> <Gold.PLP.ligand.torsion>
0.0652

> <Gold.PLP.Chemscore.Hbond>
2.0000

> <Gold.PLP.Chemscore.CHOScore>
0.0000

> <Gold.PLP.Chemscore.Metal>
0.0000

> <Gold.Chemscore.Hbonds>
donor molecule, donor type, donor heavy atom, donor atom, acceptor molecule, acceptor atom, score
      L1  H     2    20       P1  7948  0.98
      P1  H  7997  8010       L1     8  1.00

> <Gold.PLP.Chemscore.Internal.Correction>
0.0615

> <Gold.Rescore>
     Score         DG    S(hbond)    S(metal)    S(lipo)     H(rot)  DE(clash)    DE(int)     intcor
     17.43     -18.82       1.72        0.00      86.86       1.00       0.12       1.27       ----

> <Gold.Chemscore.Fitness>
17.4260

> <Gold.Chemscore.DG>
-18.8204

> <Gold.Chemscore.ZeroCoef>
-5.4800

> <Gold.Chemscore.Hbond>
1.7180

> <Gold.Chemscore.Metal>
0.0000

> <Gold.Chemscore.Lipo>
86.8562

> <Gold.Chemscore.Internal_Hbond>
0.0000

> <Gold.Chemscore.DEClash>
0.1220

> <Gold.Chemscore.DEInternal>
1.2724

> <Gold.Chemscore.Rot>
1.0000

> <Gold.Chemscore.Internal.Correction>
   9.000000E+99

> <Gold.Chemscore.Hbonds>
donor molecule, donor type, donor heavy atom, donor atom, acceptor molecule, acceptor atom, score
      L1  H     2    20       P1  7948  0.86
      P1  H  7997  8010       L1     8  0.57

> <Gold.Chemscore.Hbond.Weighted>
-5.7382

> <Gold.Chemscore.Metal.Weighted>
-0.0000

> <Gold.Chemscore.Lipo.Weighted>
-10.1622

> <Gold.Chemscore.Internal_Hbond.Weighted>
0.0000

> <Gold.Chemscore.DEClash.Weighted>
0.1220

> <Gold.Chemscore.DEInternal.Weighted>
1.2724

> <Gold.Chemscore.Rot.Weighted>
2.5600

> <Gold.Chemscore.Internal.Correction.Weighted>
   9.000000E+99

> <Gold.Protein.RotatedTorsions>
[ 6907 6896 6895 6894 ] final -114.08 input  -60.11 | X-H torsion
[ 7974 7965 7964 7962 ] final    1.40 input  175.53 | X-H torsion
[ 8008 7997 7996 7995 ] final   62.45 input   59.86 | X-H torsion
[ 10167 10162 10161 10158 ] final   87.36 input  -65.29 | X-H torsion
[ 10718 10713 10712 10709 ] final  107.55 input   66.30 | X-H torsion
[ 10763 10752 10751 10750 ] final  -90.64 input  -60.55 | X-H torsion
[ 11005 11000 10999 10996 ] final -179.91 input  -57.11 | X-H torsion

> <Gold.Protein.ActiveResidues>
 VAL166  LYS551  ARG553  GLY616  TRP617  ASP618  TYR619  PRO620  LYS621  CYS622 
 ASP623  PHE694  ASN695  SER759  ASP760  ASP761  ALA762  ILE779  LEU786  VAL792 
 PHE793  MET794  SER795  GLU796  ALA797  LYS798  CYS799  TRP800  GLU811  SER814 

> <Gold.Protein.RotatedAtoms>
  150.7876  133.8853  159.3297 H   0  0  0  0  0  0  0  0  0  0  0  0  # atno 6907 bound_to 6896
  151.6699  135.0975  160.0205 H   0  0  0  0  0  0  0  0  0  0  0  0  # atno 6908 bound_to 6896
  152.3943  133.6685  159.6298 H   0  0  0  0  0  0  0  0  0  0  0  0  # atno 6909 bound_to 6896
  146.2440  140.0992  142.8348 H   0  0  0  0  0  0  0  0  0  0  0  0  # atno 7974 bound_to 7965
  155.6145  140.3495  155.4632 H   0  0  0  0  0  0  0  0  0  0  0  0  # atno 8008 bound_to 7997
  156.0128  140.1237  157.0460 H   0  0  0  0  0  0  0  0  0  0  0  0  # atno 8009 bound_to 7997
  154.4287  140.1078  156.5840 H   0  0  0  0  0  0  0  0  0  0  0  0  # atno 8010 bound_to 7997
  139.8782  144.6455  150.8873 H   0  0  0  0  0  0  0  0  0  0  0  0  # atno 10167 bound_to 10162
  157.6624  131.0875  150.6173 H   0  0  0  0  0  0  0  0  0  0  0  0  # atno 10718 bound_to 10713
  154.6679  135.5297  153.8100 H   0  0  0  0  0  0  0  0  0  0  0  0  # atno 10763 bound_to 10752
  153.0482  135.6522  154.0771 H   0  0  0  0  0  0  0  0  0  0  0  0  # atno 10764 bound_to 10752
  154.0673  135.2957  155.3294 H   0  0  0  0  0  0  0  0  0  0  0  0  # atno 10765 bound_to 10752
  140.4134  134.6671  157.4626 H   0  0  0  0  0  0  0  0  0  0  0  0  # atno 11005 bound_to 11000
  145.0583  140.9069  143.4954 LP  0  0  0  0  0  0  0  0  0  0  0  0  # atno 17320 bound_to 7965
  145.1103  139.2762  143.5641 LP  0  0  0  0  0  0  0  0  0  0  0  0  # atno 17321 bound_to 7965
  140.7749  143.3608  151.1833 LP  0  0  0  0  0  0  0  0  0  0  0  0  # atno 17342 bound_to 10162
  139.7221  143.9207  152.2989 LP  0  0  0  0  0  0  0  0  0  0  0  0  # atno 17343 bound_to 10162
  156.6475  130.4476  149.5731 LP  0  0  0  0  0  0  0  0  0  0  0  0  # atno 17370 bound_to 10713
  156.2163  130.6709  151.1322 LP  0  0  0  0  0  0  0  0  0  0  0  0  # atno 17371 bound_to 10713
  140.0251  134.6488  155.9184 LP  0  0  0  0  0  0  0  0  0  0  0  0  # atno 17394 bound_to 11000
  141.1812  133.6547  156.5029 LP  0  0  0  0  0  0  0  0  0  0  0  0  # atno 17395 bound_to 11000

$$$$
