AV-unprocessed.smi:37|AV-procd|sdf|311|dock4
  -GOLD-   2262016123D 1   1.00000     0.00000
 Structure written by MMmdl.
 44 45  0  0  0  0  0  0  0  0  1 V2000
  147.1682  134.6941  161.9089 C   0  0  0  0  0  0  0  0  0  0  0  0
  147.7665  136.0463  161.4983 C   0  0  0  0  0  0  0  0  0  0  0  0
  148.3369  136.0174  160.0821 C   0  0  0  0  0  0  0  0  0  0  0  0
  148.3942  134.9719  159.4344 O   0  0  0  0  0  0  0  0  0  0  0  0
  148.7496  137.2246  159.6657 O   0  0  0  0  0  0  0  0  0  0  0  0
  149.0830  137.4200  158.3020 C   0  0  0  0  0  0  0  0  0  0  0  0
  150.5923  137.6659  158.1863 C   0  0  2  0  0  0  0  0  0  0  0  0
  150.9948  138.7770  158.9794 O   0  0  0  0  0  0  0  0  0  0  0  0
  152.1563  139.3459  158.4486 C   0  0  1  0  0  0  0  0  0  0  0  0
  153.2960  139.1911  159.4304 N   0  0  0  0  0  0  0  0  0  0  0  0
  153.5651  137.9856  160.0682 C   0  0  0  0  0  0  0  0  0  0  0  0
  154.5822  137.8313  160.9484 C   0  0  0  0  0  0  0  0  0  0  0  0
  154.7854  136.6338  161.5232 F   0  0  0  0  0  0  0  0  0  0  0  0
  155.4617  138.9502  161.2754 C   0  0  0  0  0  0  0  0  0  0  0  0
  156.4060  138.9086  162.0615 O   0  0  0  0  0  0  0  0  0  0  0  0
  155.1565  140.1390  160.6060 N   0  0  0  0  0  0  0  0  0  0  0  0
  154.1140  140.3110  159.6940 C   0  0  0  0  0  0  0  0  0  0  0  0
  153.9412  141.4011  159.1503 O   0  0  0  0  0  0  0  0  0  0  0  0
  152.4295  138.6680  157.0876 C   0  0  1  0  0  0  0  0  0  0  0  0
  153.8016  137.2159  157.1769 Br  0  0  0  0  0  0  0  0  0  0  0  0
  151.0865  138.0309  156.7838 C   0  0  2  0  0  0  0  0  0  0  0  0
  150.2282  138.9984  156.1835 O   0  0  0  0  0  0  0  0  0  0  0  0
  150.5795  139.6287  155.0478 C   0  0  0  0  0  0  0  0  0  0  0  0
  151.6417  139.4855  154.4403 O   0  0  0  0  0  0  0  0  0  0  0  0
  149.4815  140.5779  154.5632 C   0  0  0  0  0  0  0  0  0  0  0  0
  148.2958  140.6934  155.5328 C   0  0  0  0  0  0  0  0  0  0  0  0
  155.7423  140.9390  160.7966 H   0  0  0  0  0  0  0  0  0  0  0  0
  146.8091  134.7298  162.9373 H   0  0  0  0  0  0  0  0  0  0  0  0
  147.9099  133.8972  161.8459 H   0  0  0  0  0  0  0  0  0  0  0  0
  146.3242  134.4205  161.2748 H   0  0  0  0  0  0  0  0  0  0  0  0
  147.0060  136.8251  161.5573 H   0  0  0  0  0  0  0  0  0  0  0  0
  148.5598  136.3257  162.1922 H   0  0  0  0  0  0  0  0  0  0  0  0
  148.8078  136.5272  157.7391 H   0  0  0  0  0  0  0  0  0  0  0  0
  148.5240  138.2592  157.8855 H   0  0  0  0  0  0  0  0  0  0  0  0
  151.1344  136.7821  158.5264 H   0  0  0  0  0  0  0  0  0  0  0  0
  151.9696  140.4183  158.3640 H   0  0  0  0  0  0  0  0  0  0  0  0
  152.9553  137.1190  159.8603 H   0  0  0  0  0  0  0  0  0  0  0  0
  152.7543  139.3949  156.3422 H   0  0  0  0  0  0  0  0  0  0  0  0
  151.2012  137.1458  156.1569 H   0  0  0  0  0  0  0  0  0  0  0  0
  149.9222  141.5625  154.4043 H   0  0  0  0  0  0  0  0  0  0  0  0
  149.1280  140.2308  153.5920 H   0  0  0  0  0  0  0  0  0  0  0  0
  147.5444  141.3782  155.1395 H   0  0  0  0  0  0  0  0  0  0  0  0
  148.6118  141.0742  156.5046 H   0  0  0  0  0  0  0  0  0  0  0  0
  147.8123  139.7281  155.6878 H   0  0  0  0  0  0  0  0  0  0  0  0
  1  2  1  0  0  0  0
  1 28  1  0  0  0  0
  1 29  1  0  0  0  0
  1 30  1  0  0  0  0
  2  3  1  0  0  0  0
  2 31  1  0  0  0  0
  2 32  1  0  0  0  0
  3  4  2  0  0  0  0
  3  5  1  0  0  0  0
  5  6  1  0  0  0  0
  6  7  1  0  0  0  0
  6 33  1  0  0  0  0
  6 34  1  0  0  0  0
  7 21  1  0  0  0  0
  7  8  1  0  0  0  0
  7 35  1  0  0  0  0
  8  9  1  0  0  0  0
  9 10  1  0  0  0  0
  9 19  1  0  0  0  0
  9 36  1  0  0  0  0
 10 17  1  0  0  0  0
 10 11  1  0  0  0  0
 11 12  2  0  0  0  0
 11 37  1  0  0  0  0
 12 13  1  0  0  0  0
 12 14  1  0  0  0  0
 14 15  2  0  0  0  0
 14 16  1  0  0  0  0
 16 27  1  0  0  0  0
 16 17  1  0  0  0  0
 17 18  2  0  0  0  0
 19 20  1  0  0  0  0
 19 21  1  0  0  0  0
 19 38  1  0  0  0  0
 21 22  1  0  0  0  0
 21 39  1  0  0  0  0
 22 23  1  0  0  0  0
 23 24  2  0  0  0  0
 23 25  1  0  0  0  0
 25 26  1  0  0  0  0
 25 40  1  0  0  0  0
 25 41  1  0  0  0  0
 26 42  1  0  0  0  0
 26 43  1  0  0  0  0
 26 44  1  0  0  0  0
M  END
> <s_m_source_file>
AV-unprocessed.smi

> <i_m_source_file_index>
37

> <i_lp_mmshare_version>
43012

> <i_f3d_flags>
0

> <s_epik_input>
W0NIM11bQ0gyXUMoPU8pT1tDSDJdW0NAQEhdMU9bQ0BASF0objJbY0hdYyhGKWMoPU8pW25IXWMyPU8pW0NAQEhdKEJyKVtDQEhdMU9DKD1PKVtDSDJdW0NIM10=

> <s_epik_cmdline>
J2VwaWtfcHl0aG9uJywgJy1waCcsICc3LjAnLCAnLXRuJywgJzgnLCAnLW1hJywgJzIwMCcsICctbWV0YWxfYmluZGluZycsICctaW1hZScsICc8aW5maWxlLm1hZT4nLCAnLW9tYWUnLCAnPG91dGZpbGUubWFlPic=

> <r_lp_tautomer_probability>
0.999537

> <r_epik_Ionization_Penalty>
0.104106

> <r_epik_Ionization_Penalty_Charging>
0.104106

> <r_epik_Ionization_Penalty_Neutral>
3.94675e-16

> <r_epik_State_Penalty>
0.0940182

> <r_epik_Charging_Adjusted_Penalty>
0.198124

> <i_epik_Tot_Q>
0

> <i_epik_Tot_abs_Q>
0

> <r_epik_Metal_State_Penalty>
3.05314

> <b_epik_Metal_Only>
0

> <s_epik_Chemistry_Notes>
This compound has an ester and may undergo hydrolysis at high or low pH. This compound contains an acetal/aminal-like group ( X-CH(R)-Y where X, Y are N, S, or O) that may be acid/base labile, releasing an aldehyde.

> <s_lp_Force_Field>
OPLS_2005

> <r_lp_Energy>
26.7513

> <b_lp_Chiralities_Consistent>
1

> <s_lp_Variant>
AV-unprocessed.smi:37-9

> <Gold.Version>
5.8.1

> <Gold.Id.Protein>
6NUR|6NUR_protein|mol2

> <Gold.PLP.Fitness>
43.9481

> <Gold.PLP.PLP>
-39.6487

> <Gold.PLP.part.hbond>
-6.6561

> <Gold.PLP.part.metal>
0.0000

> <Gold.PLP.part.buried>
-1.5997

> <Gold.PLP.part.nonpolar>
-30.6904

> <Gold.PLP.part.repulsive>
0.0826

> <Gold.PLP.ligand.clash>
0.0000

> <Gold.PLP.ligand.torsion>
0.9073

> <Gold.PLP.Chemscore.Hbond>
1.9588

> <Gold.PLP.Chemscore.CHOScore>
0.0000

> <Gold.PLP.Chemscore.Metal>
0.0000

> <Gold.Chemscore.Hbonds>
donor molecule, donor type, donor heavy atom, donor atom, acceptor molecule, acceptor atom, score
      P1  H  6896  6907       L1     4  0.32
      P1  H  7989  7998       L1    24  1.00

> <Gold.PLP.Chemscore.Internal.Correction>
0.2377

> <Gold.Rescore>
     Score         DG    S(hbond)    S(metal)    S(lipo)     H(rot)  DE(clash)    DE(int)     intcor
      6.97     -10.04       1.85        0.00      59.10       3.33       0.91       2.17       ----

> <Gold.Chemscore.Fitness>
6.9656

> <Gold.Chemscore.DG>
-10.0414

> <Gold.Chemscore.ZeroCoef>
-5.4800

> <Gold.Chemscore.Hbond>
1.8481

> <Gold.Chemscore.Metal>
0.0000

> <Gold.Chemscore.Lipo>
59.0965

> <Gold.Chemscore.Internal_Hbond>
0.0000

> <Gold.Chemscore.DEClash>
0.9071

> <Gold.Chemscore.DEInternal>
2.1687

> <Gold.Chemscore.Rot>
3.3303

> <Gold.Chemscore.Internal.Correction>
   9.000000E+99

> <Gold.Chemscore.Hbonds>
donor molecule, donor type, donor heavy atom, donor atom, acceptor molecule, acceptor atom, score
      P1  H  6896  6907       L1     4  0.11
      P1  H  7989  7998       L1    24  0.29

> <Gold.Chemscore.Hbond.Weighted>
-6.1727

> <Gold.Chemscore.Metal.Weighted>
-0.0000

> <Gold.Chemscore.Lipo.Weighted>
-6.9143

> <Gold.Chemscore.Internal_Hbond.Weighted>
0.0000

> <Gold.Chemscore.DEClash.Weighted>
0.9071

> <Gold.Chemscore.DEInternal.Weighted>
2.1687

> <Gold.Chemscore.Rot.Weighted>
8.5256

> <Gold.Chemscore.Internal.Correction.Weighted>
   9.000000E+99

> <Gold.Protein.RotatedTorsions>
[ 6907 6896 6895 6894 ] final  -76.07 input  -60.11 | X-H torsion
[ 7974 7965 7964 7962 ] final  -64.74 input  175.53 | X-H torsion
[ 8008 7997 7996 7995 ] final    8.87 input   59.86 | X-H torsion
[ 10167 10162 10161 10158 ] final -149.64 input  -65.29 | X-H torsion
[ 10718 10713 10712 10709 ] final  -94.39 input   66.30 | X-H torsion
[ 10763 10752 10751 10750 ] final -171.28 input  -60.55 | X-H torsion
[ 11005 11000 10999 10996 ] final   46.37 input  -57.11 | X-H torsion

> <Gold.Protein.ActiveResidues>
 VAL166  LYS551  ARG553  GLY616  TRP617  ASP618  TYR619  PRO620  LYS621  CYS622 
 ASP623  PHE694  ASN695  SER759  ASP760  ASP761  ALA762  ILE779  LEU786  VAL792 
 PHE793  MET794  SER795  GLU796  ALA797  LYS798  CYS799  TRP800  GLU811  SER814 

> <Gold.Protein.RotatedAtoms>
  150.7039  134.4627  159.5387 H   0  0  0  0  0  0  0  0  0  0  0  0  # atno 6907 bound_to 6896
  152.2298  134.8330  160.0484 H   0  0  0  0  0  0  0  0  0  0  0  0  # atno 6908 bound_to 6896
  151.9149  133.3535  159.3913 H   0  0  0  0  0  0  0  0  0  0  0  0  # atno 6909 bound_to 6896
  145.7629  140.8852  143.0420 H   0  0  0  0  0  0  0  0  0  0  0  0  # atno 7974 bound_to 7965
  154.7725  140.2804  155.6127 H   0  0  0  0  0  0  0  0  0  0  0  0  # atno 8008 bound_to 7997
  156.2936  140.2638  156.2459 H   0  0  0  0  0  0  0  0  0  0  0  0  # atno 8009 bound_to 7997
  154.9882  140.0374  157.2298 H   0  0  0  0  0  0  0  0  0  0  0  0  # atno 8010 bound_to 7997
  139.7424  143.8641  152.2566 H   0  0  0  0  0  0  0  0  0  0  0  0  # atno 10167 bound_to 10162
  156.0026  130.5066  150.5919 H   0  0  0  0  0  0  0  0  0  0  0  0  # atno 10718 bound_to 10713
  154.6322  135.2888  155.0203 H   0  0  0  0  0  0  0  0  0  0  0  0  # atno 10763 bound_to 10752
  154.1359  135.6526  153.4936 H   0  0  0  0  0  0  0  0  0  0  0  0  # atno 10764 bound_to 10752
  153.0285  135.5321  154.7154 H   0  0  0  0  0  0  0  0  0  0  0  0  # atno 10765 bound_to 10752
  140.1375  134.4626  155.8475 H   0  0  0  0  0  0  0  0  0  0  0  0  # atno 11005 bound_to 11000
  144.6827  139.9748  143.7482 LP  0  0  0  0  0  0  0  0  0  0  0  0  # atno 17320 bound_to 7965
  146.0246  139.3281  143.0792 LP  0  0  0  0  0  0  0  0  0  0  0  0  # atno 17321 bound_to 7965
  139.8596  144.7124  150.9115 LP  0  0  0  0  0  0  0  0  0  0  0  0  # atno 17342 bound_to 10162
  140.7787  143.3829  151.1445 LP  0  0  0  0  0  0  0  0  0  0  0  0  # atno 17343 bound_to 10162
  157.3782  131.0776  151.1499 LP  0  0  0  0  0  0  0  0  0  0  0  0  # atno 17370 bound_to 10713
  157.2230  130.6490  149.5819 LP  0  0  0  0  0  0  0  0  0  0  0  0  # atno 17371 bound_to 10713
  141.2180  133.6820  156.7184 LP  0  0  0  0  0  0  0  0  0  0  0  0  # atno 17394 bound_to 11000
  140.2764  134.8351  157.3894 LP  0  0  0  0  0  0  0  0  0  0  0  0  # atno 17395 bound_to 11000

$$$$
