AV-unprocessed.smi:170|AV-procd|sdf|1407|dock9
  -GOLD-   2262019163D 1   1.00000     0.00000
 Structure written by MMmdl.
 57 61  0  0  0  0  0  0  0  0  1 V2000
  149.1322  143.5075  158.0016 O   0  0  0  0  0  0  0  0  0  0  0  0
  150.2843  142.7586  158.3416 C   0  0  1  0  0  0  0  0  0  0  0  0
  150.7910  141.9563  157.1272 C   0  0  0  0  0  0  0  0  0  0  0  0
  150.4560  140.5469  157.2191 N   0  0  0  0  0  0  0  0  0  0  0  0
  149.5377  139.8633  156.4551 C   0  0  0  0  0  0  0  0  0  0  0  0
  149.4183  138.5940  156.7347 N   0  0  0  0  0  0  0  0  0  0  0  0
  150.3199  138.3885  157.7726 C   0  0  0  0  0  0  0  0  0  0  0  0
  150.7025  137.2612  158.5544 C   0  0  0  0  0  0  0  0  0  0  0  0
  150.1923  136.0159  158.4227 N   0  0  0  0  0  0  0  0  0  0  0  0
  150.3475  135.5388  157.0536 C   0  0  0  0  0  0  0  0  0  0  0  0
  149.9416  134.0626  156.9567 C   0  0  0  0  0  0  0  0  0  0  0  0
  148.6063  133.9204  157.4214 O   0  0  0  0  0  0  0  0  0  0  0  0
  148.4743  134.2999  158.7869 C   0  0  0  0  0  0  0  0  0  0  0  0
  148.8511  135.7884  158.9765 C   0  0  1  0  0  0  0  0  0  0  0  0
  148.7460  136.2190  160.4629 C   0  0  0  0  0  0  0  0  0  0  0  0
  147.4331  135.8253  161.1362 C   0  0  0  0  0  0  0  0  0  0  0  0
  147.1779  136.2142  162.6007 C   0  0  0  0  0  0  0  0  0  0  0  0
  146.4230  134.8933  162.7706 C   0  0  0  0  0  0  0  0  0  0  0  0
  147.2065  134.3676  161.5646 C   0  0  0  0  0  0  0  0  0  0  0  0
  151.6567  137.4374  159.5009 N   0  0  0  0  0  0  0  0  0  0  0  0
  152.1985  138.6450  159.6868 C   0  0  0  0  0  0  0  0  0  0  0  0
  151.9384  139.7857  159.0439 N   0  0  0  0  0  0  0  0  0  0  0  0
  150.9848  139.6073  158.0850 C   0  0  0  0  0  0  0  0  0  0  0  0
  151.3652  143.6805  158.9395 C   0  0  2  0  0  0  0  0  0  0  0  0
  150.9394  144.5393  160.1425 C   0  0  0  0  0  0  0  0  0  0  0  0
  151.4327  145.9342  159.7890 C   0  0  0  0  0  0  0  0  0  0  0  0
  152.4320  145.6849  158.6648 C   0  0  0  0  0  0  0  0  0  0  0  0
  151.8602  144.5924  157.9661 O   0  0  0  0  0  0  0  0  0  0  0  0
  149.2164  143.7906  157.1039 H   0  0  0  0  0  0  0  0  0  0  0  0
  149.9797  142.0554  159.1179 H   0  0  0  0  0  0  0  0  0  0  0  0
  150.3740  142.3535  156.2008 H   0  0  0  0  0  0  0  0  0  0  0  0
  151.8751  142.0435  157.0438 H   0  0  0  0  0  0  0  0  0  0  0  0
  148.9542  140.3394  155.6806 H   0  0  0  0  0  0  0  0  0  0  0  0
  149.7287  136.1379  156.3838 H   0  0  0  0  0  0  0  0  0  0  0  0
  151.3826  135.6581  156.7297 H   0  0  0  0  0  0  0  0  0  0  0  0
  149.9975  133.7240  155.9221 H   0  0  0  0  0  0  0  0  0  0  0  0
  150.6150  133.4311  157.5385 H   0  0  0  0  0  0  0  0  0  0  0  0
  147.4391  134.1226  159.0761 H   0  0  0  0  0  0  0  0  0  0  0  0
  149.0947  133.6563  159.4131 H   0  0  0  0  0  0  0  0  0  0  0  0
  148.1426  136.3783  158.3952 H   0  0  0  0  0  0  0  0  0  0  0  0
  149.5840  135.7982  161.0199 H   0  0  0  0  0  0  0  0  0  0  0  0
  148.8564  137.3003  160.5448 H   0  0  0  0  0  0  0  0  0  0  0  0
  146.5760  136.1369  160.5360 H   0  0  0  0  0  0  0  0  0  0  0  0
  148.0937  136.2558  163.1935 H   0  0  0  0  0  0  0  0  0  0  0  0
  146.5714  137.1103  162.7353 H   0  0  0  0  0  0  0  0  0  0  0  0
  146.6188  134.3707  163.7073 H   0  0  0  0  0  0  0  0  0  0  0  0
  145.3539  134.9880  162.5725 H   0  0  0  0  0  0  0  0  0  0  0  0
  146.6217  133.7714  160.8634 H   0  0  0  0  0  0  0  0  0  0  0  0
  148.1284  133.8595  161.8526 H   0  0  0  0  0  0  0  0  0  0  0  0
  152.9468  138.7067  160.4632 H   0  0  0  0  0  0  0  0  0  0  0  0
  152.2130  143.0653  159.2475 H   0  0  0  0  0  0  0  0  0  0  0  0
  149.8627  144.5396  160.3155 H   0  0  0  0  0  0  0  0  0  0  0  0
  151.4156  144.1736  161.0529 H   0  0  0  0  0  0  0  0  0  0  0  0
  150.6021  146.5335  159.4142 H   0  0  0  0  0  0  0  0  0  0  0  0
  151.8729  146.4598  160.6368 H   0  0  0  0  0  0  0  0  0  0  0  0
  152.5655  146.5523  158.0183 H   0  0  0  0  0  0  0  0  0  0  0  0
  153.4059  145.3962  159.0633 H   0  0  0  0  0  0  0  0  0  0  0  0
  1  2  1  0  0  0  0
  1 29  1  0  0  0  0
  2  3  1  0  0  0  0
  2 24  1  0  0  0  0
  2 30  1  0  0  0  0
  3  4  1  0  0  0  0
  3 31  1  0  0  0  0
  3 32  1  0  0  0  0
  4 23  1  0  0  0  0
  4  5  1  0  0  0  0
  5  6  2  0  0  0  0
  5 33  1  0  0  0  0
  6  7  1  0  0  0  0
  7 23  2  0  0  0  0
  7  8  1  0  0  0  0
  8  9  1  0  0  0  0
  8 20  2  0  0  0  0
  9 14  1  0  0  0  0
  9 10  1  0  0  0  0
 10 11  1  0  0  0  0
 10 34  1  0  0  0  0
 10 35  1  0  0  0  0
 11 12  1  0  0  0  0
 11 36  1  0  0  0  0
 11 37  1  0  0  0  0
 12 13  1  0  0  0  0
 13 14  1  0  0  0  0
 13 38  1  0  0  0  0
 13 39  1  0  0  0  0
 14 15  1  0  0  0  0
 14 40  1  0  0  0  0
 15 16  1  0  0  0  0
 15 41  1  0  0  0  0
 15 42  1  0  0  0  0
 16 19  1  0  0  0  0
 16 17  1  0  0  0  0
 16 43  1  0  0  0  0
 17 18  1  0  0  0  0
 17 44  1  0  0  0  0
 17 45  1  0  0  0  0
 18 19  1  0  0  0  0
 18 46  1  0  0  0  0
 18 47  1  0  0  0  0
 19 48  1  0  0  0  0
 19 49  1  0  0  0  0
 20 21  1  0  0  0  0
 21 22  2  0  0  0  0
 21 50  1  0  0  0  0
 22 23  1  0  0  0  0
 24 28  1  0  0  0  0
 24 25  1  0  0  0  0
 24 51  1  0  0  0  0
 25 26  1  0  0  0  0
 25 52  1  0  0  0  0
 25 53  1  0  0  0  0
 26 27  1  0  0  0  0
 26 54  1  0  0  0  0
 26 55  1  0  0  0  0
 27 28  1  0  0  0  0
 27 56  1  0  0  0  0
 27 57  1  0  0  0  0
M  END
> <s_m_source_file>
AV-unprocessed.smi

> <i_m_source_file_index>
170

> <i_lp_mmshare_version>
43012

> <i_f3d_flags>
0

> <s_epik_input>
TzFbQ0gyXVtDSDJdW0NIMl1bQ0BIXTFbQ0BIXShbT0hdKVtDSDJdbihbY0hdbjIpYyhjMjMpbltjSF1uYzNONFtDSDJdW0NIMl1PW0NIMl1bQ0BIXTRbQ0gyXVtDSF01W0NIMl1bQ0gyXVtDSDJdNQ==

> <s_epik_cmdline>
J2VwaWtfcHl0aG9uJywgJy1waCcsICc3LjAnLCAnLXRuJywgJzgnLCAnLW1hJywgJzIwMCcsICctbWV0YWxfYmluZGluZycsICctaW1hZScsICc8aW5maWxlLm1hZT4nLCAnLW9tYWUnLCAnPG91dGZpbGUubWFlPic=

> <r_lp_tautomer_probability>
1

> <r_epik_Ionization_Penalty>
4.98275e-05

> <r_epik_Ionization_Penalty_Charging>
0

> <r_epik_Ionization_Penalty_Neutral>
4.98275e-05

> <r_epik_State_Penalty>
-0

> <r_epik_Charging_Adjusted_Penalty>
0

> <i_epik_Tot_Q>
0

> <i_epik_Tot_abs_Q>
0

> <r_epik_Metal_State_Penalty>
-0

> <b_epik_Metal_Only>
0

> <s_lp_Force_Field>
OPLS_2005

> <r_lp_Energy>
52.7393

> <b_lp_Chiralities_Consistent>
1

> <s_lp_Variant>
AV-unprocessed.smi:170-2

> <Gold.Version>
5.8.1

> <Gold.Id.Protein>
6NUR|6NUR_protein|mol2

> <Gold.PLP.Fitness>
48.7296

> <Gold.PLP.PLP>
-44.3258

> <Gold.PLP.part.hbond>
-3.9279

> <Gold.PLP.part.metal>
0.0000

> <Gold.PLP.part.buried>
-8.1946

> <Gold.PLP.part.nonpolar>
-33.7332

> <Gold.PLP.part.repulsive>
0.1023

> <Gold.PLP.ligand.clash>
0.0000

> <Gold.PLP.ligand.torsion>
1.1033

> <Gold.PLP.Chemscore.Hbond>
2.1158

> <Gold.PLP.Chemscore.CHOScore>
0.0000

> <Gold.PLP.Chemscore.Metal>
0.0000

> <Gold.Chemscore.Hbonds>
donor molecule, donor type, donor heavy atom, donor atom, acceptor molecule, acceptor atom, score
      L1  H     1    29       P1  8028  1.00
      P1  H  6896  6907       L1    20  0.15
      P1  H  6896  6909       L1     9  0.01

> <Gold.PLP.Chemscore.Internal.Correction>
0.2631

> <Gold.Rescore>
     Score         DG    S(hbond)    S(metal)    S(lipo)     H(rot)  DE(clash)    DE(int)     intcor
     15.51     -16.69       1.47        0.00     111.19       2.61       0.00       1.18       ----

> <Gold.Chemscore.Fitness>
15.5105

> <Gold.Chemscore.DG>
-16.6929

> <Gold.Chemscore.ZeroCoef>
-5.4800

> <Gold.Chemscore.Hbond>
1.4661

> <Gold.Chemscore.Metal>
0.0000

> <Gold.Chemscore.Lipo>
111.1876

> <Gold.Chemscore.Internal_Hbond>
0.0000

> <Gold.Chemscore.DEClash>
0.0004

> <Gold.Chemscore.DEInternal>
1.1820

> <Gold.Chemscore.Rot>
2.6144

> <Gold.Chemscore.Internal.Correction>
   9.000000E+99

> <Gold.Chemscore.Hbonds>
donor molecule, donor type, donor heavy atom, donor atom, acceptor molecule, acceptor atom, score
      L1  H     1    29       P1  8028  0.49
      P1  H  6896  6907       L1    20  0.01

> <Gold.Chemscore.Hbond.Weighted>
-4.8969

> <Gold.Chemscore.Metal.Weighted>
-0.0000

> <Gold.Chemscore.Lipo.Weighted>
-13.0090

> <Gold.Chemscore.Internal_Hbond.Weighted>
0.0000

> <Gold.Chemscore.DEClash.Weighted>
0.0004

> <Gold.Chemscore.DEInternal.Weighted>
1.1820

> <Gold.Chemscore.Rot.Weighted>
6.6929

> <Gold.Chemscore.Internal.Correction.Weighted>
   9.000000E+99

> <Gold.Protein.RotatedTorsions>
[ 6907 6896 6895 6894 ] final    8.90 input  -60.11 | X-H torsion
[ 7974 7965 7964 7962 ] final  -19.36 input  175.53 | X-H torsion
[ 8008 7997 7996 7995 ] final  106.69 input   59.86 | X-H torsion
[ 10167 10162 10161 10158 ] final -173.01 input  -65.29 | X-H torsion
[ 10718 10713 10712 10709 ] final  -79.71 input   66.30 | X-H torsion
[ 10763 10752 10751 10750 ] final  113.80 input  -60.55 | X-H torsion
[ 11005 11000 10999 10996 ] final   82.90 input  -57.11 | X-H torsion

> <Gold.Protein.ActiveResidues>
 VAL166  LYS551  ARG553  GLY616  TRP617  ASP618  TYR619  PRO620  LYS621  CYS622 
 ASP623  PHE694  ASN695  SER759  ASP760  ASP761  ALA762  ILE779  LEU786  VAL792 
 PHE793  MET794  SER795  GLU796  ALA797  LYS798  CYS799  TRP800  GLU811  SER814 

> <Gold.Protein.RotatedAtoms>
  151.7135  135.0908  160.0271 H   0  0  0  0  0  0  0  0  0  0  0  0  # atno 6907 bound_to 6896
  152.3647  133.6337  159.6049 H   0  0  0  0  0  0  0  0  0  0  0  0  # atno 6908 bound_to 6896
  150.7629  133.9284  159.3461 H   0  0  0  0  0  0  0  0  0  0  0  0  # atno 6909 bound_to 6896
  146.1845  140.4051  142.8481 H   0  0  0  0  0  0  0  0  0  0  0  0  # atno 7974 bound_to 7965
  156.1763  140.3108  155.9065 H   0  0  0  0  0  0  0  0  0  0  0  0  # atno 8008 bound_to 7997
  155.3480  140.0469  157.3063 H   0  0  0  0  0  0  0  0  0  0  0  0  # atno 8009 bound_to 7997
  154.5294  140.2225  155.8842 H   0  0  0  0  0  0  0  0  0  0  0  0  # atno 8010 bound_to 7997
  139.5712  144.1636  152.1387 H   0  0  0  0  0  0  0  0  0  0  0  0  # atno 10167 bound_to 10162
  156.0086  130.4553  150.3690 H   0  0  0  0  0  0  0  0  0  0  0  0  # atno 10718 bound_to 10713
  153.4978  135.3644  155.2524 H   0  0  0  0  0  0  0  0  0  0  0  0  # atno 10763 bound_to 10752
  154.8749  135.3992  154.3514 H   0  0  0  0  0  0  0  0  0  0  0  0  # atno 10764 bound_to 10752
  153.4145  135.7078  153.6402 H   0  0  0  0  0  0  0  0  0  0  0  0  # atno 10765 bound_to 10752
  139.9048  134.8105  156.2237 H   0  0  0  0  0  0  0  0  0  0  0  0  # atno 11005 bound_to 11000
  144.8373  140.6802  143.6252 LP  0  0  0  0  0  0  0  0  0  0  0  0  # atno 17320 bound_to 7965
  145.3979  139.1603  143.4193 LP  0  0  0  0  0  0  0  0  0  0  0  0  # atno 17321 bound_to 7965
  140.1170  144.5407  150.6888 LP  0  0  0  0  0  0  0  0  0  0  0  0  # atno 17342 bound_to 10162
  140.6997  143.2426  151.4901 LP  0  0  0  0  0  0  0  0  0  0  0  0  # atno 17343 bound_to 10162
  157.1776  131.0384  151.2765 LP  0  0  0  0  0  0  0  0  0  0  0  0  # atno 17370 bound_to 10713
  157.4174  130.7419  149.6886 LP  0  0  0  0  0  0  0  0  0  0  0  0  # atno 17371 bound_to 10713
  141.0389  133.6948  156.1563 LP  0  0  0  0  0  0  0  0  0  0  0  0  # atno 17394 bound_to 11000
  140.6985  134.4590  157.5587 LP  0  0  0  0  0  0  0  0  0  0  0  0  # atno 17395 bound_to 11000

$$$$
