AV-unprocessed.smi:1535|AV-procd|sdf|6178|dock4
  -GOLD-   22720 6333D 1   1.00000     0.00000
 Structure written by MMmdl.
 47 48  0  0  0  0  0  0  0  0  2 V2000
  152.8573  142.8179  160.8426 C   0  0  0  0  0  0  0  0  0  0  0  0
  152.4252  141.9959  159.6410 C   0  0  0  0  0  0  0  0  0  0  0  0
  152.8627  140.6569  159.5321 C   0  0  0  0  0  0  0  0  0  0  0  0
  152.4825  139.8581  158.4318 C   0  0  0  0  0  0  0  0  0  0  0  0
  152.7918  138.5440  158.1272 N   0  0  0  0  0  0  0  0  0  0  0  0
  152.1428  138.3745  156.9796 C   0  0  0  0  0  0  0  0  0  0  0  0
  151.4588  139.4296  156.4956 N   0  0  0  0  0  0  0  0  0  0  0  0
  150.6885  139.4801  155.2652 C   0  0  0  0  0  0  0  0  0  0  0  0
  150.7738  138.1725  154.4527 C   0  0  2  0  0  0  0  0  0  0  0  0
  150.0577  138.3573  153.2490 O   0  0  0  0  0  0  0  0  0  0  0  0
  150.1956  136.9412  155.1865 C   0  0  0  0  0  0  0  0  0  0  0  0
  148.8648  136.5598  154.6524 N   0  3  2  0  0  0  0  0  0  0  0  0
  147.7948  137.4764  155.1066 C   0  0  0  0  0  0  0  0  0  0  0  0
  148.5258  135.1316  154.8881 C   0  0  0  0  0  0  0  0  0  0  0  0
  149.7690  134.2284  154.8117 C   0  0  2  0  0  0  0  0  0  0  0  0
  149.5154  132.9946  153.9366 C   0  0  0  0  0  0  0  0  0  0  0  0
  150.2166  133.8298  156.1562 C   0  0  0  0  0  0  0  0  0  0  0  0
  150.5713  133.5203  157.2126 N   0  0  0  0  0  0  0  0  0  0  0  0
  151.6449  140.4392  157.4349 C   0  0  0  0  0  0  0  0  0  0  0  0
  151.1988  141.7692  157.5356 C   0  0  0  0  0  0  0  0  0  0  0  0
  151.5916  142.5546  158.6393 C   0  0  0  0  0  0  0  0  0  0  0  0
  151.1075  143.9906  158.7362 C   0  0  0  0  0  0  0  0  0  0  0  0
  153.4673  142.2300  161.5294 H   0  0  0  0  0  0  0  0  0  0  0  0
  151.9872  143.1768  161.3926 H   0  0  0  0  0  0  0  0  0  0  0  0
  153.4465  143.6788  160.5256 H   0  0  0  0  0  0  0  0  0  0  0  0
  153.4957  140.2301  160.2963 H   0  0  0  0  0  0  0  0  0  0  0  0
  152.1742  137.4303  156.4554 H   0  0  0  0  0  0  0  0  0  0  0  0
  149.6498  139.6987  155.5182 H   0  0  0  0  0  0  0  0  0  0  0  0
  151.0496  140.3211  154.6716 H   0  0  0  0  0  0  0  0  0  0  0  0
  151.8150  137.9978  154.1856 H   0  0  0  0  0  0  0  0  0  0  0  0
  149.6130  137.5509  153.0339 H   0  0  0  0  0  0  0  0  0  0  0  0
  150.8569  136.0774  155.1088 H   0  0  0  0  0  0  0  0  0  0  0  0
  150.1257  137.1722  156.2510 H   0  0  0  0  0  0  0  0  0  0  0  0
  147.6863  137.4430  156.1915 H   0  0  0  0  0  0  0  0  0  0  0  0
  146.8366  137.2133  154.6590 H   0  0  0  0  0  0  0  0  0  0  0  0
  148.0198  138.5033  154.8171 H   0  0  0  0  0  0  0  0  0  0  0  0
  148.0719  135.0039  155.8714 H   0  0  0  0  0  0  0  0  0  0  0  0
  147.7686  134.8106  154.1711 H   0  0  0  0  0  0  0  0  0  0  0  0
  150.5939  134.7878  154.3704 H   0  0  0  0  0  0  0  0  0  0  0  0
  150.4108  132.3763  153.8659 H   0  0  0  0  0  0  0  0  0  0  0  0
  149.2312  133.2813  152.9237 H   0  0  0  0  0  0  0  0  0  0  0  0
  148.7162  132.3764  154.3469 H   0  0  0  0  0  0  0  0  0  0  0  0
  150.5578  142.1833  156.7719 H   0  0  0  0  0  0  0  0  0  0  0  0
  150.5298  144.2764  157.8568 H   0  0  0  0  0  0  0  0  0  0  0  0
  151.9513  144.6758  158.8170 H   0  0  0  0  0  0  0  0  0  0  0  0
  150.4712  144.1194  159.6120 H   0  0  0  0  0  0  0  0  0  0  0  0
  148.9367  136.6824  153.6520 H   0  0  0  0  0  0  0  0  0  0  0  0
  1  2  1  0  0  0  0
  1 23  1  0  0  0  0
  1 24  1  0  0  0  0
  1 25  1  0  0  0  0
  2 21  1  0  0  0  0
  2  3  2  0  0  0  0
  3  4  1  0  0  0  0
  3 26  1  0  0  0  0
  4 19  2  0  0  0  0
  4  5  1  0  0  0  0
  5  6  2  0  0  0  0
  6  7  1  0  0  0  0
  6 27  1  0  0  0  0
  7  8  1  0  0  0  0
  7 19  1  0  0  0  0
  8  9  1  0  0  0  0
  8 28  1  0  0  0  0
  8 29  1  0  0  0  0
  9 10  1  0  0  0  0
  9 11  1  0  0  0  0
  9 30  1  0  0  0  0
 10 31  1  0  0  0  0
 11 12  1  0  0  0  0
 11 32  1  0  0  0  0
 11 33  1  0  0  0  0
 12 13  1  0  0  0  0
 12 14  1  0  0  0  0
 12 47  1  0  0  0  0
 13 34  1  0  0  0  0
 13 35  1  0  0  0  0
 13 36  1  0  0  0  0
 14 15  1  0  0  0  0
 14 37  1  0  0  0  0
 14 38  1  0  0  0  0
 15 16  1  0  0  0  0
 15 17  1  0  0  0  0
 15 39  1  0  0  0  0
 16 40  1  0  0  0  0
 16 41  1  0  0  0  0
 16 42  1  0  0  0  0
 17 18  3  0  0  0  0
 19 20  1  0  0  0  0
 20 21  2  0  0  0  0
 20 43  1  0  0  0  0
 21 22  1  0  0  0  0
 22 44  1  0  0  0  0
 22 45  1  0  0  0  0
 22 46  1  0  0  0  0
M  CHG  1  12   1
M  END
> <s_m_source_file>
AV-unprocessed.smi

> <i_m_source_file_index>
1535

> <i_lp_mmshare_version>
43012

> <i_f3d_flags>
0

> <s_epik_input>
W0NIM11jKFtjSF0xKWMoW0NIM10pW2NIXWMoYzEyKW4oW2NIXW4yKVtDSDJdW0NASF0oW09IXSlbQ0gyXU4oW0NIM10pW0NIMl1bQ0BIXShbQ0gzXSlDI04=

> <s_epik_cmdline>
J2VwaWtfcHl0aG9uJywgJy1waCcsICc3LjAnLCAnLXRuJywgJzgnLCAnLW1hJywgJzIwMCcsICctbWV0YWxfYmluZGluZycsICctaW1hZScsICc8aW5maWxlLm1hZT4nLCAnLW9tYWUnLCAnPG91dGZpbGUubWFlPic=

> <r_epik_Ionization_Penalty>
2.21058

> <r_epik_Ionization_Penalty_Charging>
2.12381

> <r_epik_Ionization_Penalty_Neutral>
0.0867699

> <r_epik_State_Penalty>
2.36208

> <r_epik_Charging_Adjusted_Penalty>
4.48589

> <i_epik_Tot_Q>
1

> <i_epik_Tot_abs_Q>
1

> <r_epik_Metal_State_Penalty>
2.2818

> <b_epik_Metal_Only>
0

> <s_lp_Force_Field>
OPLS_2005

> <r_lp_Energy>
15.029

> <b_lp_Chiralities_Consistent>
1

> <s_lp_Variant>
AV-unprocessed.smi:1535-9

> <Gold.Version>
5.8.1

> <Gold.Id.Protein>
6NUR|6NUR_protein|mol2

> <Gold.PLP.Fitness>
50.1372

> <Gold.PLP.PLP>
-41.9524

> <Gold.PLP.part.hbond>
-4.4829

> <Gold.PLP.part.metal>
0.0000

> <Gold.PLP.part.buried>
-3.8348

> <Gold.PLP.part.nonpolar>
-33.3137

> <Gold.PLP.part.repulsive>
0.0000

> <Gold.PLP.ligand.clash>
0.0000

> <Gold.PLP.ligand.torsion>
1.6810

> <Gold.PLP.Chemscore.Hbond>
3.8000

> <Gold.PLP.Chemscore.CHOScore>
0.0000

> <Gold.PLP.Chemscore.Metal>
0.0000

> <Gold.Chemscore.Hbonds>
donor molecule, donor type, donor heavy atom, donor atom, acceptor molecule, acceptor atom, score
      L1  H    10    31       P1  7948  1.00
      L1  H    12    47       P1  7948  2.00
      P1  H  6896  6907       L1    18  0.86

> <Gold.PLP.Chemscore.Internal.Correction>
0.1468

> <Gold.Rescore>
     Score         DG    S(hbond)    S(metal)    S(lipo)     H(rot)  DE(clash)    DE(int)     intcor
     17.17     -20.26       2.74        0.00     104.98       2.60       0.14       2.95       ----

> <Gold.Chemscore.Fitness>
17.1701

> <Gold.Chemscore.DG>
-20.2558

> <Gold.Chemscore.ZeroCoef>
-5.4800

> <Gold.Chemscore.Hbond>
2.7418

> <Gold.Chemscore.Metal>
0.0000

> <Gold.Chemscore.Lipo>
104.9765

> <Gold.Chemscore.Internal_Hbond>
0.0000

> <Gold.Chemscore.DEClash>
0.1377

> <Gold.Chemscore.DEInternal>
2.9481

> <Gold.Chemscore.Rot>
2.6031

> <Gold.Chemscore.Internal.Correction>
   9.000000E+99

> <Gold.Chemscore.Hbonds>
donor molecule, donor type, donor heavy atom, donor atom, acceptor molecule, acceptor atom, score
      L1  H    10    31       P1  7948  0.72
      L1  H    12    47       P1  7948  0.99
      P1  H  6896  6907       L1    18  0.78

> <Gold.Chemscore.Hbond.Weighted>
-9.1575

> <Gold.Chemscore.Metal.Weighted>
-0.0000

> <Gold.Chemscore.Lipo.Weighted>
-12.2822

> <Gold.Chemscore.Internal_Hbond.Weighted>
0.0000

> <Gold.Chemscore.DEClash.Weighted>
0.1377

> <Gold.Chemscore.DEInternal.Weighted>
2.9481

> <Gold.Chemscore.Rot.Weighted>
6.6640

> <Gold.Chemscore.Internal.Correction.Weighted>
   9.000000E+99

> <Gold.Protein.RotatedTorsions>
[ 6907 6896 6895 6894 ] final -139.17 input  -60.11 | X-H torsion
[ 7974 7965 7964 7962 ] final  141.03 input  175.53 | X-H torsion
[ 8008 7997 7996 7995 ] final -158.22 input   59.86 | X-H torsion
[ 10167 10162 10161 10158 ] final  136.48 input  -65.29 | X-H torsion
[ 10718 10713 10712 10709 ] final  160.18 input   66.30 | X-H torsion
[ 10763 10752 10751 10750 ] final  -81.02 input  -60.55 | X-H torsion
[ 11005 11000 10999 10996 ] final  168.78 input  -57.11 | X-H torsion

> <Gold.Protein.ActiveResidues>
 VAL166  LYS551  ARG553  GLY616  TRP617  ASP618  TYR619  PRO620  LYS621  CYS622 
 ASP623  PHE694  ASN695  SER759  ASP760  ASP761  ALA762  ILE779  LEU786  VAL792 
 PHE793  MET794  SER795  GLU796  ALA797  LYS798  CYS799  TRP800  GLU811  SER814 

> <Gold.Protein.RotatedAtoms>
  151.0444  133.5678  159.2647 H   0  0  0  0  0  0  0  0  0  0  0  0  # atno 6907 bound_to 6896
  151.2713  135.0684  159.9145 H   0  0  0  0  0  0  0  0  0  0  0  0  # atno 6908 bound_to 6896
  152.5370  134.0173  159.8020 H   0  0  0  0  0  0  0  0  0  0  0  0  # atno 6909 bound_to 6896
  144.9133  139.5263  143.5698 H   0  0  0  0  0  0  0  0  0  0  0  0  # atno 7974 bound_to 7965
  155.7443  140.0818  157.2231 H   0  0  0  0  0  0  0  0  0  0  0  0  # atno 8008 bound_to 7997
  154.4018  140.1572  156.2707 H   0  0  0  0  0  0  0  0  0  0  0  0  # atno 8009 bound_to 7997
  155.8990  140.3411  155.6015 H   0  0  0  0  0  0  0  0  0  0  0  0  # atno 8010 bound_to 7997
  139.5178  144.6462  151.5433 H   0  0  0  0  0  0  0  0  0  0  0  0  # atno 10167 bound_to 10162
  157.1540  131.0571  151.2266 H   0  0  0  0  0  0  0  0  0  0  0  0  # atno 10718 bound_to 10713
  154.5584  135.5641  153.6985 H   0  0  0  0  0  0  0  0  0  0  0  0  # atno 10763 bound_to 10752
  153.0010  135.6268  154.2278 H   0  0  0  0  0  0  0  0  0  0  0  0  # atno 10764 bound_to 10752
  154.2215  135.2869  155.2903 H   0  0  0  0  0  0  0  0  0  0  0  0  # atno 10765 bound_to 10752
  140.2908  134.7674  157.3837 H   0  0  0  0  0  0  0  0  0  0  0  0  # atno 11005 bound_to 11000
  146.3169  139.7956  142.8976 LP  0  0  0  0  0  0  0  0  0  0  0  0  # atno 17320 bound_to 7965
  145.3417  141.0289  143.3388 LP  0  0  0  0  0  0  0  0  0  0  0  0  # atno 17321 bound_to 7965
  140.6248  143.9190  150.6555 LP  0  0  0  0  0  0  0  0  0  0  0  0  # atno 17342 bound_to 10162
  140.2475  143.3618  152.1434 LP  0  0  0  0  0  0  0  0  0  0  0  0  # atno 17343 bound_to 10162
  157.4194  130.7429  149.6901 LP  0  0  0  0  0  0  0  0  0  0  0  0  # atno 17370 bound_to 10713
  155.9765  130.4074  150.3773 LP  0  0  0  0  0  0  0  0  0  0  0  0  # atno 17371 bound_to 10713
  140.1197  134.5236  155.8194 LP  0  0  0  0  0  0  0  0  0  0  0  0  # atno 17394 bound_to 11000
  141.2146  133.6752  156.6843 LP  0  0  0  0  0  0  0  0  0  0  0  0  # atno 17395 bound_to 11000

$$$$
