AV-unprocessed.smi:708|AV-procd|sdf|3457|dock6
  -GOLD-   22720 0443D 1   1.00000     0.00000
 Structure written by MMmdl.
 42 43  0  0  0  0  0  0  0  0  1 V2000
  146.6615  136.8429  153.6696 O   0  0  0  0  0  0  0  0  0  0  0  0
  145.8059  137.5026  153.0788 C   0  0  0  0  0  0  0  0  0  0  0  0
  145.3584  137.1089  151.6654 C   0  0  0  0  0  0  0  0  0  0  0  0
  144.6911  135.7972  151.6287 N   0  0  0  0  0  0  0  0  0  0  0  0
  145.1995  134.8397  150.7283 C   0  0  0  0  0  0  0  0  0  0  0  0
  144.6601  133.6156  150.6147 C   0  0  0  0  0  0  0  0  0  0  0  0
  143.5262  133.2888  151.4468 C   0  0  0  0  0  0  0  0  0  0  0  0
  143.0347  134.1956  152.3142 C   0  0  0  0  0  0  0  0  0  0  0  0
  143.6233  135.5335  152.4448 C   0  0  0  0  0  0  0  0  0  0  0  0
  143.1834  136.3662  153.2385 O   0  0  0  0  0  0  0  0  0  0  0  0
  145.2203  138.5894  153.6029 N   0  0  0  0  0  0  0  0  0  0  0  0
  145.4490  139.1046  154.9485 C   0  0  0  0  0  0  0  0  0  0  0  0
  146.5064  140.2299  154.9847 C   0  0  0  0  0  0  0  0  0  0  0  0
  147.6245  140.0402  153.9314 C   0  0  0  0  0  0  0  0  0  0  0  0
  148.7164  141.1148  154.0752 C   0  0  0  0  0  0  0  0  0  0  0  0
  149.2512  141.0671  155.4416 N   0  0  0  0  0  0  0  0  0  0  0  0
  150.4962  140.6060  155.7224 C   0  0  0  0  0  0  0  0  0  0  0  0
  151.2726  140.2472  154.8348 O   0  0  0  0  0  0  0  0  0  0  0  0
  150.9742  140.5204  157.1832 C   0  0  0  0  0  0  0  0  0  0  0  0
  150.9442  141.7310  157.7418 F   0  0  0  0  0  0  0  0  0  0  0  0
  150.1997  139.6775  157.8678 F   0  0  0  0  0  0  0  0  0  0  0  0
  152.2287  140.0680  157.2216 F   0  0  0  0  0  0  0  0  0  0  0  0
  148.2273  141.4381  156.4258 C   0  0  0  0  0  0  0  0  0  0  0  0
  147.1073  140.3820  156.3995 C   0  0  0  0  0  0  0  0  0  0  0  0
  144.6940  137.8730  151.2564 H   0  0  0  0  0  0  0  0  0  0  0  0
  146.2366  137.1171  151.0185 H   0  0  0  0  0  0  0  0  0  0  0  0
  146.0519  135.1597  150.1468 H   0  0  0  0  0  0  0  0  0  0  0  0
  145.0651  132.8930  149.9215 H   0  0  0  0  0  0  0  0  0  0  0  0
  143.0705  132.3123  151.3741 H   0  0  0  0  0  0  0  0  0  0  0  0
  142.1862  133.9330  152.9288 H   0  0  0  0  0  0  0  0  0  0  0  0
  144.5351  139.0740  153.0415 H   0  0  0  0  0  0  0  0  0  0  0  0
  144.5056  139.4549  155.3706 H   0  0  0  0  0  0  0  0  0  0  0  0
  145.7742  138.2711  155.5719 H   0  0  0  0  0  0  0  0  0  0  0  0
  146.0037  141.1699  154.7528 H   0  0  0  0  0  0  0  0  0  0  0  0
  148.0719  139.0512  154.0394 H   0  0  0  0  0  0  0  0  0  0  0  0
  147.2100  140.0844  152.9239 H   0  0  0  0  0  0  0  0  0  0  0  0
  149.4824  140.9683  153.3125 H   0  0  0  0  0  0  0  0  0  0  0  0
  148.2971  142.1036  153.8836 H   0  0  0  0  0  0  0  0  0  0  0  0
  148.6096  141.5429  157.4388 H   0  0  0  0  0  0  0  0  0  0  0  0
  147.8209  142.4175  156.1690 H   0  0  0  0  0  0  0  0  0  0  0  0
  146.3252  140.6569  157.1079 H   0  0  0  0  0  0  0  0  0  0  0  0
  147.5068  139.4248  156.7374 H   0  0  0  0  0  0  0  0  0  0  0  0
  1  2  2  0  0  0  0
  2  3  1  0  0  0  0
  2 11  1  0  0  0  0
  3  4  1  0  0  0  0
  3 25  1  0  0  0  0
  3 26  1  0  0  0  0
  4  9  1  0  0  0  0
  4  5  1  0  0  0  0
  5  6  2  0  0  0  0
  5 27  1  0  0  0  0
  6  7  1  0  0  0  0
  6 28  1  0  0  0  0
  7  8  2  0  0  0  0
  7 29  1  0  0  0  0
  8  9  1  0  0  0  0
  8 30  1  0  0  0  0
  9 10  2  0  0  0  0
 11 12  1  0  0  0  0
 11 31  1  0  0  0  0
 12 13  1  0  0  0  0
 12 32  1  0  0  0  0
 12 33  1  0  0  0  0
 13 24  1  0  0  0  0
 13 14  1  0  0  0  0
 13 34  1  0  0  0  0
 14 15  1  0  0  0  0
 14 35  1  0  0  0  0
 14 36  1  0  0  0  0
 15 16  1  0  0  0  0
 15 37  1  0  0  0  0
 15 38  1  0  0  0  0
 16 17  1  0  0  0  0
 16 23  1  0  0  0  0
 17 18  2  0  0  0  0
 17 19  1  0  0  0  0
 19 20  1  0  0  0  0
 19 21  1  0  0  0  0
 19 22  1  0  0  0  0
 23 24  1  0  0  0  0
 23 39  1  0  0  0  0
 23 40  1  0  0  0  0
 24 41  1  0  0  0  0
 24 42  1  0  0  0  0
M  END
> <s_m_source_file>
AV-unprocessed.smi

> <i_m_source_file_index>
708

> <i_lp_mmshare_version>
43012

> <i_f3d_flags>
0

> <s_epik_input>
Tz1jMVtjSF1bY0hdW2NIXVtjSF1uMVtDSDJdQyg9TylbTkhdW0NIMl1bQ0hdMltDSDJdW0NIMl1OKEMoPU8pQyhGKShGKUYpW0NIMl1bQ0gyXTI=

> <s_epik_cmdline>
J2VwaWtfcHl0aG9uJywgJy1waCcsICc3LjAnLCAnLXRuJywgJzgnLCAnLW1hJywgJzIwMCcsICctbWV0YWxfYmluZGluZycsICctaW1hZScsICc8aW5maWxlLm1hZT4nLCAnLW9tYWUnLCAnPG91dGZpbGUubWFlPic=

> <r_lp_tautomer_probability>
1

> <r_epik_Ionization_Penalty>
3.72594e-07

> <r_epik_Ionization_Penalty_Charging>
3.54487e-07

> <r_epik_Ionization_Penalty_Neutral>
1.81071e-08

> <r_epik_State_Penalty>
-0

> <r_epik_Charging_Adjusted_Penalty>
3.54487e-07

> <i_epik_Tot_Q>
0

> <i_epik_Tot_abs_Q>
0

> <r_epik_Metal_State_Penalty>
-0

> <b_epik_Metal_Only>
0

> <s_lp_Force_Field>
OPLS_2005

> <r_lp_Energy>
36.5202

> <b_lp_Chiralities_Consistent>
1

> <s_lp_Variant>
AV-unprocessed.smi:708-1

> <Gold.Version>
5.8.1

> <Gold.Id.Protein>
6NUR|6NUR_protein|mol2

> <Gold.PLP.Fitness>
42.5621

> <Gold.PLP.PLP>
-35.0314

> <Gold.PLP.part.hbond>
-2.0000

> <Gold.PLP.part.metal>
0.0000

> <Gold.PLP.part.buried>
-2.7066

> <Gold.PLP.part.nonpolar>
-31.0917

> <Gold.PLP.part.repulsive>
1.1063

> <Gold.PLP.ligand.clash>
0.0000

> <Gold.PLP.ligand.torsion>
0.4904

> <Gold.PLP.Chemscore.Hbond>
2.0000

> <Gold.PLP.Chemscore.CHOScore>
0.8281

> <Gold.PLP.Chemscore.Metal>
0.0000

> <Gold.Chemscore.Hbonds>
donor molecule, donor type, donor heavy atom, donor atom, acceptor molecule, acceptor atom, score
      L1  H    11    31       P1 10175  1.00
      P1  H  7989  7998       L1    18  0.96
      L1  C     5    27       P1  7921  0.84

> <Gold.PLP.Chemscore.Internal.Correction>
0.0273

> <Gold.Rescore>
     Score         DG    S(hbond)    S(metal)    S(lipo)     H(rot)  DE(clash)    DE(int)     intcor
     11.00     -13.63       1.95        0.00      55.62       1.91       0.01       2.62       ----

> <Gold.Chemscore.Fitness>
10.9955

> <Gold.Chemscore.DG>
-13.6261

> <Gold.Chemscore.ZeroCoef>
-5.4800

> <Gold.Chemscore.Hbond>
1.9540

> <Gold.Chemscore.Metal>
0.0000

> <Gold.Chemscore.Lipo>
55.6196

> <Gold.Chemscore.Internal_Hbond>
0.0000

> <Gold.Chemscore.DEClash>
0.0081

> <Gold.Chemscore.DEInternal>
2.6226

> <Gold.Chemscore.Rot>
1.9093

> <Gold.Chemscore.Internal.Correction>
   9.000000E+99

> <Gold.Chemscore.Hbonds>
donor molecule, donor type, donor heavy atom, donor atom, acceptor molecule, acceptor atom, score
      L1  H    11    31       P1 10175  0.99
      P1  H  7989  7998       L1    18  0.90

> <Gold.Chemscore.Hbond.Weighted>
-6.5263

> <Gold.Chemscore.Metal.Weighted>
-0.0000

> <Gold.Chemscore.Lipo.Weighted>
-6.5075

> <Gold.Chemscore.Internal_Hbond.Weighted>
0.0000

> <Gold.Chemscore.DEClash.Weighted>
0.0081

> <Gold.Chemscore.DEInternal.Weighted>
2.6226

> <Gold.Chemscore.Rot.Weighted>
4.8877

> <Gold.Chemscore.Internal.Correction.Weighted>
   9.000000E+99

> <Gold.Protein.RotatedTorsions>
[ 6907 6896 6895 6894 ] final  -49.41 input  -60.11 | X-H torsion
[ 7974 7965 7964 7962 ] final   37.32 input  175.53 | X-H torsion
[ 8008 7997 7996 7995 ] final  131.72 input   59.86 | X-H torsion
[ 10167 10162 10161 10158 ] final -155.68 input  -65.29 | X-H torsion
[ 10718 10713 10712 10709 ] final   -9.12 input   66.30 | X-H torsion
[ 10763 10752 10751 10750 ] final -133.11 input  -60.55 | X-H torsion
[ 11005 11000 10999 10996 ] final   87.86 input  -57.11 | X-H torsion

> <Gold.Protein.ActiveResidues>
 VAL166  LYS551  ARG553  GLY616  TRP617  ASP618  TYR619  PRO620  LYS621  CYS622 
 ASP623  PHE694  ASN695  SER759  ASP760  ASP761  ALA762  ILE779  LEU786  VAL792 
 PHE793  MET794  SER795  GLU796  ALA797  LYS798  CYS799  TRP800  GLU811  SER814 

> <Gold.Protein.RotatedAtoms>
  150.8808  134.8198  159.7223 H   0  0  0  0  0  0  0  0  0  0  0  0  # atno 6907 bound_to 6896
  152.4776  134.4799  159.9672 H   0  0  0  0  0  0  0  0  0  0  0  0  # atno 6908 bound_to 6896
  151.4875  133.3494  159.2883 H   0  0  0  0  0  0  0  0  0  0  0  0  # atno 6909 bound_to 6896
  146.1146  139.5909  142.9329 H   0  0  0  0  0  0  0  0  0  0  0  0  # atno 7974 bound_to 7965
  156.2973  140.2564  156.2971 H   0  0  0  0  0  0  0  0  0  0  0  0  # atno 8008 bound_to 7997
  154.9453  140.0395  157.2136 H   0  0  0  0  0  0  0  0  0  0  0  0  # atno 8009 bound_to 7997
  154.8087  140.2840  155.5873 H   0  0  0  0  0  0  0  0  0  0  0  0  # atno 8010 bound_to 7997
  139.6912  143.9418  152.2385 H   0  0  0  0  0  0  0  0  0  0  0  0  # atno 10167 bound_to 10162
  156.6927  130.5070  149.5939 H   0  0  0  0  0  0  0  0  0  0  0  0  # atno 10718 bound_to 10713
  154.8736  135.3776  154.4520 H   0  0  0  0  0  0  0  0  0  0  0  0  # atno 10763 bound_to 10752
  153.5195  135.7029  153.5744 H   0  0  0  0  0  0  0  0  0  0  0  0  # atno 10764 bound_to 10752
  153.3997  135.3951  155.1945 H   0  0  0  0  0  0  0  0  0  0  0  0  # atno 10765 bound_to 10752
  139.8910  134.8450  156.2919 H   0  0  0  0  0  0  0  0  0  0  0  0  # atno 11005 bound_to 11000
  145.5592  141.0406  143.2235 LP  0  0  0  0  0  0  0  0  0  0  0  0  # atno 17320 bound_to 7965
  144.7542  139.7117  143.7261 LP  0  0  0  0  0  0  0  0  0  0  0  0  # atno 17321 bound_to 7965
  139.9235  144.6785  150.8437 LP  0  0  0  0  0  0  0  0  0  0  0  0  # atno 17342 bound_to 10162
  140.7683  143.3358  151.2311 LP  0  0  0  0  0  0  0  0  0  0  0  0  # atno 17343 bound_to 10162
  156.1786  130.6484  151.0924 LP  0  0  0  0  0  0  0  0  0  0  0  0  # atno 17370 bound_to 10713
  157.7003  131.0778  150.6842 LP  0  0  0  0  0  0  0  0  0  0  0  0  # atno 17371 bound_to 10713
  140.9971  133.7174  156.0902 LP  0  0  0  0  0  0  0  0  0  0  0  0  # atno 17394 bound_to 11000
  140.7548  134.4004  157.5535 LP  0  0  0  0  0  0  0  0  0  0  0  0  # atno 17395 bound_to 11000

$$$$
