AV-unprocessed.smi:688|AV-procd|sdf|3355|dock6
  -GOLD-   22720 0333D 1   1.00000     0.00000
 Structure written by MMmdl.
 36 37  0  0  0  0  0  0  0  0  1 V2000
  142.5233  141.5450  155.7621 O   0  0  0  0  0  0  0  0  0  0  0  0
  143.7388  141.6056  155.5881 C   0  0  0  0  0  0  0  0  0  0  0  0
  144.2660  142.5202  154.6712 N   0  0  0  0  0  0  0  0  0  0  0  0
  145.6199  142.6898  154.3802 C   0  0  0  0  0  0  0  0  0  0  0  0
  145.9686  143.5286  153.5494 O   0  0  0  0  0  0  0  0  0  0  0  0
  146.5300  141.8629  155.0776 N   0  0  0  0  0  0  0  0  0  0  0  0
  147.9363  142.0120  154.7846 C   0  0  0  0  0  0  0  0  0  0  0  0
  148.6198  140.7196  154.2833 C   0  0  1  0  0  0  0  0  0  0  0  0
  149.4765  141.0870  153.2221 O   0  0  0  0  0  0  0  0  0  0  0  0
  149.4653  140.0137  155.3584 C   0  0  0  0  0  0  0  0  0  0  0  0
  150.7796  140.5449  155.3285 O   0  0  0  0  0  0  0  0  0  0  0  0
  151.5155  140.2624  156.5069 C   0  0  0  0  0  0  0  0  0  0  0  0
  151.6215  141.4843  157.3968 C   0  0  0  0  0  0  0  0  0  0  0  0
  152.2699  141.3882  158.6456 C   0  0  0  0  0  0  0  0  0  0  0  0
  152.3683  142.5176  159.4812 C   0  0  0  0  0  0  0  0  0  0  0  0
  151.8176  143.7475  159.0713 C   0  0  0  0  0  0  0  0  0  0  0  0
  151.9391  145.1315  160.0944 Cl  0  0  0  0  0  0  0  0  0  0  0  0
  151.1665  143.8463  157.8261 C   0  0  0  0  0  0  0  0  0  0  0  0
  151.0664  142.7163  156.9910 C   0  0  0  0  0  0  0  0  0  0  0  0
  146.0515  140.9404  155.9960 C   0  0  0  0  0  0  0  0  0  0  0  0
  144.7345  140.7813  156.2718 C   0  0  0  0  0  0  0  0  0  0  0  0
  144.2167  139.6056  157.4266 Cl  0  0  0  0  0  0  0  0  0  0  0  0
  143.6108  143.1089  154.1776 H   0  0  0  0  0  0  0  0  0  0  0  0
  148.0221  142.8310  154.0663 H   0  0  0  0  0  0  0  0  0  0  0  0
  148.4050  142.3686  155.7034 H   0  0  0  0  0  0  0  0  0  0  0  0
  147.8690  140.0311  153.8946 H   0  0  0  0  0  0  0  0  0  0  0  0
  149.4493  140.4050  152.5683 H   0  0  0  0  0  0  0  0  0  0  0  0
  149.0129  140.1184  156.3462 H   0  0  0  0  0  0  0  0  0  0  0  0
  149.5331  138.9464  155.1464 H   0  0  0  0  0  0  0  0  0  0  0  0
  151.0406  139.4456  157.0531 H   0  0  0  0  0  0  0  0  0  0  0  0
  152.5241  139.9356  156.2491 H   0  0  0  0  0  0  0  0  0  0  0  0
  152.6942  140.4471  158.9640 H   0  0  0  0  0  0  0  0  0  0  0  0
  152.8666  142.4385  160.4362 H   0  0  0  0  0  0  0  0  0  0  0  0
  150.7425  144.7883  157.5098 H   0  0  0  0  0  0  0  0  0  0  0  0
  150.5642  142.8010  156.0384 H   0  0  0  0  0  0  0  0  0  0  0  0
  146.7590  140.3108  156.5167 H   0  0  0  0  0  0  0  0  0  0  0  0
  1  2  2  0  0  0  0
  2 21  1  0  0  0  0
  2  3  1  0  0  0  0
  3 23  1  0  0  0  0
  3  4  1  0  0  0  0
  4  5  2  0  0  0  0
  4  6  1  0  0  0  0
  6  7  1  0  0  0  0
  6 20  1  0  0  0  0
  7  8  1  0  0  0  0
  7 24  1  0  0  0  0
  7 25  1  0  0  0  0
  8  9  1  0  0  0  0
  8 10  1  0  0  0  0
  8 26  1  0  0  0  0
  9 27  1  0  0  0  0
 10 11  1  0  0  0  0
 10 28  1  0  0  0  0
 10 29  1  0  0  0  0
 11 12  1  0  0  0  0
 12 13  1  0  0  0  0
 12 30  1  0  0  0  0
 12 31  1  0  0  0  0
 13 19  1  0  0  0  0
 13 14  2  0  0  0  0
 14 15  1  0  0  0  0
 14 32  1  0  0  0  0
 15 16  2  0  0  0  0
 15 33  1  0  0  0  0
 16 17  1  0  0  0  0
 16 18  1  0  0  0  0
 18 19  2  0  0  0  0
 18 34  1  0  0  0  0
 19 35  1  0  0  0  0
 20 21  2  0  0  0  0
 20 36  1  0  0  0  0
 21 22  1  0  0  0  0
M  END
> <s_m_source_file>
AV-unprocessed.smi

> <i_m_source_file_index>
688

> <i_lp_mmshare_version>
43012

> <i_f3d_flags>
0

> <s_epik_input>
Tz1jMVtuSF1jKD1PKW4oW2NIXWMxQ2wpW0NIMl1bQ0BIXShbT0hdKVtDSDJdT1tDSDJdYzJbY0hdW2NIXWMoQ2wpW2NIXVtjSF0y

> <s_epik_cmdline>
J2VwaWtfcHl0aG9uJywgJy1waCcsICc3LjAnLCAnLXRuJywgJzgnLCAnLW1hJywgJzIwMCcsICctbWV0YWxfYmluZGluZycsICctaW1hZScsICc8aW5maWxlLm1hZT4nLCAnLW9tYWUnLCAnPG91dGZpbGUubWFlPic=

> <r_lp_tautomer_probability>
0.999537

> <r_epik_Ionization_Penalty>
0.0280571

> <r_epik_Ionization_Penalty_Charging>
0.028057

> <r_epik_Ionization_Penalty_Neutral>
6.25502e-08

> <r_epik_State_Penalty>
0.0230008

> <r_epik_Charging_Adjusted_Penalty>
0.0510579

> <i_epik_Tot_Q>
0

> <i_epik_Tot_abs_Q>
0

> <r_epik_Metal_State_Penalty>
2.1942

> <b_epik_Metal_Only>
0

> <s_lp_Force_Field>
OPLS_2005

> <r_lp_Energy>
13.9943

> <b_lp_Chiralities_Consistent>
1

> <s_lp_Variant>
AV-unprocessed.smi:688-2

> <Gold.Version>
5.8.1

> <Gold.Id.Protein>
6NUR|6NUR_protein|mol2

> <Gold.PLP.Fitness>
45.9996

> <Gold.PLP.PLP>
-39.9291

> <Gold.PLP.part.hbond>
-5.6700

> <Gold.PLP.part.metal>
0.0000

> <Gold.PLP.part.buried>
-2.2113

> <Gold.PLP.part.nonpolar>
-32.7331

> <Gold.PLP.part.repulsive>
0.4113

> <Gold.PLP.ligand.clash>
0.0000

> <Gold.PLP.ligand.torsion>
1.3527

> <Gold.PLP.Chemscore.Hbond>
2.8819

> <Gold.PLP.Chemscore.CHOScore>
0.0000

> <Gold.PLP.Chemscore.Metal>
0.0000

> <Gold.Chemscore.Hbonds>
donor molecule, donor type, donor heavy atom, donor atom, acceptor molecule, acceptor atom, score
      L1  H     3    23       P1 10174  0.11
      L1  H     9    27       P1  7957  0.77
      P1  H  7989  7998       L1    11  0.94
      P1  H  8011  8017       L1     9  1.00

> <Gold.PLP.Chemscore.Internal.Correction>
0.1304

> <Gold.Rescore>
     Score         DG    S(hbond)    S(metal)    S(lipo)     H(rot)  DE(clash)    DE(int)     intcor
     15.02     -16.53       2.20        0.00      96.17       2.94       0.12       1.40       ----

> <Gold.Chemscore.Fitness>
15.0208

> <Gold.Chemscore.DG>
-16.5335

> <Gold.Chemscore.ZeroCoef>
-5.4800

> <Gold.Chemscore.Hbond>
2.1963

> <Gold.Chemscore.Metal>
0.0000

> <Gold.Chemscore.Lipo>
96.1664

> <Gold.Chemscore.Internal_Hbond>
0.0000

> <Gold.Chemscore.DEClash>
0.1172

> <Gold.Chemscore.DEInternal>
1.3955

> <Gold.Chemscore.Rot>
2.9429

> <Gold.Chemscore.Internal.Correction>
   9.000000E+99

> <Gold.Chemscore.Hbonds>
donor molecule, donor type, donor heavy atom, donor atom, acceptor molecule, acceptor atom, score
      L1  H     3    23       P1 10174  0.05
      L1  H     9    27       P1  7957  0.73
      P1  H  7989  7998       L1    11  0.80
      P1  H  8011  8017       L1     9  0.34

> <Gold.Chemscore.Hbond.Weighted>
-7.3358

> <Gold.Chemscore.Metal.Weighted>
-0.0000

> <Gold.Chemscore.Lipo.Weighted>
-11.2515

> <Gold.Chemscore.Internal_Hbond.Weighted>
0.0000

> <Gold.Chemscore.DEClash.Weighted>
0.1172

> <Gold.Chemscore.DEInternal.Weighted>
1.3955

> <Gold.Chemscore.Rot.Weighted>
7.5337

> <Gold.Chemscore.Internal.Correction.Weighted>
   9.000000E+99

> <Gold.Protein.RotatedTorsions>
[ 6907 6896 6895 6894 ] final -116.61 input  -60.11 | X-H torsion
[ 7974 7965 7964 7962 ] final  -82.51 input  175.53 | X-H torsion
[ 8008 7997 7996 7995 ] final  168.06 input   59.86 | X-H torsion
[ 10167 10162 10161 10158 ] final  123.21 input  -65.29 | X-H torsion
[ 10718 10713 10712 10709 ] final  142.23 input   66.30 | X-H torsion
[ 10763 10752 10751 10750 ] final -106.05 input  -60.55 | X-H torsion
[ 11005 11000 10999 10996 ] final   -0.03 input  -57.11 | X-H torsion

> <Gold.Protein.ActiveResidues>
 VAL166  LYS551  ARG553  GLY616  TRP617  ASP618  TYR619  PRO620  LYS621  CYS622 
 ASP623  PHE694  ASN695  SER759  ASP760  ASP761  ALA762  ILE779  LEU786  VAL792 
 PHE793  MET794  SER795  GLU796  ALA797  LYS798  CYS799  TRP800  GLU811  SER814 

> <Gold.Protein.RotatedAtoms>
  150.8069  133.8493  159.3200 H   0  0  0  0  0  0  0  0  0  0  0  0  # atno 6907 bound_to 6896
  151.6289  135.1023  160.0127 H   0  0  0  0  0  0  0  0  0  0  0  0  # atno 6908 bound_to 6896
  152.4160  133.6999  159.6474 H   0  0  0  0  0  0  0  0  0  0  0  0  # atno 6909 bound_to 6896
  145.5324  140.9519  143.1596 H   0  0  0  0  0  0  0  0  0  0  0  0  # atno 7974 bound_to 7965
  156.1580  140.1600  156.8660 H   0  0  0  0  0  0  0  0  0  0  0  0  # atno 8008 bound_to 7997
  154.5133  140.0795  156.8068 H   0  0  0  0  0  0  0  0  0  0  0  0  # atno 8009 bound_to 7997
  155.3764  140.3403  155.4247 H   0  0  0  0  0  0  0  0  0  0  0  0  # atno 8010 bound_to 7997
  139.5813  144.6987  151.3522 H   0  0  0  0  0  0  0  0  0  0  0  0  # atno 10167 bound_to 10162
  157.3830  131.0994  151.0721 H   0  0  0  0  0  0  0  0  0  0  0  0  # atno 10718 bound_to 10713
  154.7987  135.4726  154.0223 H   0  0  0  0  0  0  0  0  0  0  0  0  # atno 10763 bound_to 10752
  153.1745  135.6830  153.8568 H   0  0  0  0  0  0  0  0  0  0  0  0  # atno 10764 bound_to 10752
  153.8139  135.3213  155.3381 H   0  0  0  0  0  0  0  0  0  0  0  0  # atno 10765 bound_to 10752
  140.6317  133.9569  155.8278 H   0  0  0  0  0  0  0  0  0  0  0  0  # atno 11005 bound_to 11000
  144.7619  139.6936  143.7231 LP  0  0  0  0  0  0  0  0  0  0  0  0  # atno 17320 bound_to 7965
  146.2035  139.5345  142.9727 LP  0  0  0  0  0  0  0  0  0  0  0  0  # atno 17321 bound_to 7965
  140.7091  143.7438  150.7534 LP  0  0  0  0  0  0  0  0  0  0  0  0  # atno 17342 bound_to 10162
  140.0971  143.4823  152.2446 LP  0  0  0  0  0  0  0  0  0  0  0  0  # atno 17343 bound_to 10162
  157.1782  130.6298  149.5663 LP  0  0  0  0  0  0  0  0  0  0  0  0  # atno 17370 bound_to 10713
  155.9780  130.4762  150.6628 LP  0  0  0  0  0  0  0  0  0  0  0  0  # atno 17371 bound_to 10713
  141.0670  134.0262  157.3579 LP  0  0  0  0  0  0  0  0  0  0  0  0  # atno 17394 bound_to 11000
  139.9113  135.0190  156.7704 LP  0  0  0  0  0  0  0  0  0  0  0  0  # atno 17395 bound_to 11000

$$$$
