AV-unprocessed.smi:37|AV-procd|sdf|305|dock4
  -GOLD-   2262016113D 1   1.00000     0.00000
 Structure written by MMmdl.
 44 45  0  0  0  0  0  0  0  0  1 V2000
  147.0506  134.7175  162.5717 C   0  0  0  0  0  0  0  0  0  0  0  0
  147.0232  134.8942  161.0474 C   0  0  0  0  0  0  0  0  0  0  0  0
  147.5024  136.2781  160.6136 C   0  0  0  0  0  0  0  0  0  0  0  0
  147.0932  137.3002  161.1640 O   0  0  0  0  0  0  0  0  0  0  0  0
  148.3730  136.2293  159.5937 O   0  0  0  0  0  0  0  0  0  0  0  0
  148.8619  137.4335  159.0266 C   0  0  0  0  0  0  0  0  0  0  0  0
  149.6251  137.1084  157.7369 C   0  0  2  0  0  0  0  0  0  0  0  0
  150.7390  136.2541  157.9983 O   0  0  0  0  0  0  0  0  0  0  0  0
  151.8380  136.6230  157.2125 C   0  0  2  0  0  0  0  0  0  0  0  0
  152.9433  137.1588  158.1005 N   0  0  0  0  0  0  0  0  0  0  0  0
  152.7651  138.2569  158.9343 C   0  0  0  0  0  0  0  0  0  0  0  0
  153.7482  138.7496  159.7245 C   0  0  0  0  0  0  0  0  0  0  0  0
  153.5006  139.8161  160.5038 F   0  0  0  0  0  0  0  0  0  0  0  0
  155.0729  138.1368  159.7368 C   0  0  0  0  0  0  0  0  0  0  0  0
  156.0256  138.5116  160.4172 O   0  0  0  0  0  0  0  0  0  0  0  0
  155.2078  137.0386  158.8828 N   0  0  0  0  0  0  0  0  0  0  0  0
  154.2039  136.5216  158.0627 C   0  0  0  0  0  0  0  0  0  0  0  0
  154.4368  135.5531  157.3406 O   0  0  0  0  0  0  0  0  0  0  0  0
  151.3609  137.7164  156.2510 C   0  0  1  0  0  0  0  0  0  0  0  0
  150.6991  136.8653  154.5711 Br  0  0  0  0  0  0  0  0  0  0  0  0
  150.2164  138.3315  157.0381 C   0  0  1  0  0  0  0  0  0  0  0  0
  149.2597  138.9783  156.2101 O   0  0  0  0  0  0  0  0  0  0  0  0
  149.6621  139.7864  155.2150 C   0  0  0  0  0  0  0  0  0  0  0  0
  150.8244  140.1128  154.9742 O   0  0  0  0  0  0  0  0  0  0  0  0
  148.5005  140.2846  154.3591 C   0  0  0  0  0  0  0  0  0  0  0  0
  148.4844  141.8151  154.2445 C   0  0  0  0  0  0  0  0  0  0  0  0
  156.1087  136.5831  158.8554 H   0  0  0  0  0  0  0  0  0  0  0  0
  146.6612  133.7384  162.8507 H   0  0  0  0  0  0  0  0  0  0  0  0
  146.4391  135.4706  163.0696 H   0  0  0  0  0  0  0  0  0  0  0  0
  148.0647  134.7917  162.9660 H   0  0  0  0  0  0  0  0  0  0  0  0
  147.6491  134.1397  160.5713 H   0  0  0  0  0  0  0  0  0  0  0  0
  146.0092  134.7414  160.6768 H   0  0  0  0  0  0  0  0  0  0  0  0
  148.0370  138.1177  158.8257 H   0  0  0  0  0  0  0  0  0  0  0  0
  149.5283  137.9206  159.7395 H   0  0  0  0  0  0  0  0  0  0  0  0
  148.9725  136.5680  157.0490 H   0  0  0  0  0  0  0  0  0  0  0  0
  152.2574  135.7433  156.7206 H   0  0  0  0  0  0  0  0  0  0  0  0
  151.8113  138.7586  158.9714 H   0  0  0  0  0  0  0  0  0  0  0  0
  152.1478  138.4243  155.9886 H   0  0  0  0  0  0  0  0  0  0  0  0
  150.6130  139.0105  157.7953 H   0  0  0  0  0  0  0  0  0  0  0  0
  148.5763  139.8391  153.3669 H   0  0  0  0  0  0  0  0  0  0  0  0
  147.5652  139.9320  154.7945 H   0  0  0  0  0  0  0  0  0  0  0  0
  147.6729  142.1437  153.5954 H   0  0  0  0  0  0  0  0  0  0  0  0
  149.4175  142.1907  153.8230 H   0  0  0  0  0  0  0  0  0  0  0  0
  148.3398  142.2873  155.2168 H   0  0  0  0  0  0  0  0  0  0  0  0
  1  2  1  0  0  0  0
  1 28  1  0  0  0  0
  1 29  1  0  0  0  0
  1 30  1  0  0  0  0
  2  3  1  0  0  0  0
  2 31  1  0  0  0  0
  2 32  1  0  0  0  0
  3  4  2  0  0  0  0
  3  5  1  0  0  0  0
  5  6  1  0  0  0  0
  6  7  1  0  0  0  0
  6 33  1  0  0  0  0
  6 34  1  0  0  0  0
  7 21  1  0  0  0  0
  7  8  1  0  0  0  0
  7 35  1  0  0  0  0
  8  9  1  0  0  0  0
  9 10  1  0  0  0  0
  9 19  1  0  0  0  0
  9 36  1  0  0  0  0
 10 17  1  0  0  0  0
 10 11  1  0  0  0  0
 11 12  2  0  0  0  0
 11 37  1  0  0  0  0
 12 13  1  0  0  0  0
 12 14  1  0  0  0  0
 14 15  2  0  0  0  0
 14 16  1  0  0  0  0
 16 27  1  0  0  0  0
 16 17  1  0  0  0  0
 17 18  2  0  0  0  0
 19 20  1  0  0  0  0
 19 21  1  0  0  0  0
 19 38  1  0  0  0  0
 21 22  1  0  0  0  0
 21 39  1  0  0  0  0
 22 23  1  0  0  0  0
 23 24  2  0  0  0  0
 23 25  1  0  0  0  0
 25 26  1  0  0  0  0
 25 40  1  0  0  0  0
 25 41  1  0  0  0  0
 26 42  1  0  0  0  0
 26 43  1  0  0  0  0
 26 44  1  0  0  0  0
M  END
> <s_m_source_file>
AV-unprocessed.smi

> <i_m_source_file_index>
37

> <i_lp_mmshare_version>
43012

> <i_f3d_flags>
0

> <s_epik_input>
W0NIM11bQ0gyXUMoPU8pT1tDSDJdW0NAQEhdMU9bQ0BASF0objJbY0hdYyhGKWMoPU8pW25IXWMyPU8pW0NAQEhdKEJyKVtDQEhdMU9DKD1PKVtDSDJdW0NIM10=

> <s_epik_cmdline>
J2VwaWtfcHl0aG9uJywgJy1waCcsICc3LjAnLCAnLXRuJywgJzgnLCAnLW1hJywgJzIwMCcsICctbWV0YWxfYmluZGluZycsICctaW1hZScsICc8aW5maWxlLm1hZT4nLCAnLW9tYWUnLCAnPG91dGZpbGUubWFlPic=

> <r_lp_tautomer_probability>
0.999537

> <r_epik_Ionization_Penalty>
0.104106

> <r_epik_Ionization_Penalty_Charging>
0.104106

> <r_epik_Ionization_Penalty_Neutral>
3.94675e-16

> <r_epik_State_Penalty>
0.0940182

> <r_epik_Charging_Adjusted_Penalty>
0.198124

> <i_epik_Tot_Q>
0

> <i_epik_Tot_abs_Q>
0

> <r_epik_Metal_State_Penalty>
3.05314

> <b_epik_Metal_Only>
0

> <s_epik_Chemistry_Notes>
This compound has an ester and may undergo hydrolysis at high or low pH. This compound contains an acetal/aminal-like group ( X-CH(R)-Y where X, Y are N, S, or O) that may be acid/base labile, releasing an aldehyde.

> <s_lp_Force_Field>
OPLS_2005

> <r_lp_Energy>
22.9743

> <b_lp_Chiralities_Consistent>
1

> <s_lp_Variant>
AV-unprocessed.smi:37-3

> <Gold.Version>
5.8.1

> <Gold.Id.Protein>
6NUR|6NUR_protein|mol2

> <Gold.PLP.Fitness>
45.6045

> <Gold.PLP.PLP>
-32.9887

> <Gold.PLP.part.hbond>
-4.9957

> <Gold.PLP.part.metal>
0.0000

> <Gold.PLP.part.buried>
-5.1211

> <Gold.PLP.part.nonpolar>
-23.3810

> <Gold.PLP.part.repulsive>
0.0895

> <Gold.PLP.ligand.clash>
0.0000

> <Gold.PLP.ligand.torsion>
0.4178

> <Gold.PLP.Chemscore.Hbond>
4.4160

> <Gold.PLP.Chemscore.CHOScore>
0.0000

> <Gold.PLP.Chemscore.Metal>
0.0000

> <Gold.Chemscore.Hbonds>
donor molecule, donor type, donor heavy atom, donor atom, acceptor molecule, acceptor atom, score
      P1  H  6896  6908       L1     8  0.43
      P1  H  6931  6943       L1     4  0.28
      P1  H  6934  6947       L1     4  1.00
      P1  H  7989  7998       L1    24  1.00
      P1  H 10752 10764       L1    18  1.00

> <Gold.PLP.Chemscore.Internal.Correction>
0.2034

> <Gold.Rescore>
     Score         DG    S(hbond)    S(metal)    S(lipo)     H(rot)  DE(clash)    DE(int)     intcor
     16.30     -18.09       4.24        0.00      59.74       3.33       0.00       1.80       ----

> <Gold.Chemscore.Fitness>
16.2959

> <Gold.Chemscore.DG>
-18.0913

> <Gold.Chemscore.ZeroCoef>
-5.4800

> <Gold.Chemscore.Hbond>
4.2357

> <Gold.Chemscore.Metal>
0.0000

> <Gold.Chemscore.Lipo>
59.7396

> <Gold.Chemscore.Internal_Hbond>
0.0000

> <Gold.Chemscore.DEClash>
0.0000

> <Gold.Chemscore.DEInternal>
1.7953

> <Gold.Chemscore.Rot>
3.3303

> <Gold.Chemscore.Internal.Correction>
   9.000000E+99

> <Gold.Chemscore.Hbonds>
donor molecule, donor type, donor heavy atom, donor atom, acceptor molecule, acceptor atom, score
      P1  H  6896  6908       L1     8  0.41
      P1  H  6931  6943       L1     4  0.11
      P1  H  6934  6947       L1     4  0.99
      P1  H  7989  7998       L1    24  1.00
      P1  H 10752 10764       L1    18  0.95

> <Gold.Chemscore.Hbond.Weighted>
-14.1473

> <Gold.Chemscore.Metal.Weighted>
-0.0000

> <Gold.Chemscore.Lipo.Weighted>
-6.9895

> <Gold.Chemscore.Internal_Hbond.Weighted>
0.0000

> <Gold.Chemscore.DEClash.Weighted>
0.0000

> <Gold.Chemscore.DEInternal.Weighted>
1.7953

> <Gold.Chemscore.Rot.Weighted>
8.5256

> <Gold.Chemscore.Internal.Correction.Weighted>
   9.000000E+99

> <Gold.Protein.RotatedTorsions>
[ 6907 6896 6895 6894 ] final -168.24 input  -60.11 | X-H torsion
[ 7974 7965 7964 7962 ] final -136.74 input  175.53 | X-H torsion
[ 8008 7997 7996 7995 ] final  -69.20 input   59.86 | X-H torsion
[ 10167 10162 10161 10158 ] final -157.22 input  -65.29 | X-H torsion
[ 10718 10713 10712 10709 ] final   12.83 input   66.30 | X-H torsion
[ 10763 10752 10751 10750 ] final   40.15 input  -60.55 | X-H torsion
[ 11005 11000 10999 10996 ] final -170.93 input  -57.11 | X-H torsion

> <Gold.Protein.ActiveResidues>
 VAL166  LYS551  ARG553  GLY616  TRP617  ASP618  TYR619  PRO620  LYS621  CYS622 
 ASP623  PHE694  ASN695  SER759  ASP760  ASP761  ALA762  ILE779  LEU786  VAL792 
 PHE793  MET794  SER795  GLU796  ALA797  LYS798  CYS799  TRP800  GLU811  SER814 

> <Gold.Protein.RotatedAtoms>
  151.4724  133.3566  159.2825 H   0  0  0  0  0  0  0  0  0  0  0  0  # atno 6907 bound_to 6896
  150.8952  134.8361  159.7332 H   0  0  0  0  0  0  0  0  0  0  0  0  # atno 6908 bound_to 6896
  152.4847  134.4638  159.9666 H   0  0  0  0  0  0  0  0  0  0  0  0  # atno 6909 bound_to 6896
  144.8901  140.6630  143.5150 H   0  0  0  0  0  0  0  0  0  0  0  0  # atno 7974 bound_to 7965
  154.4922  140.0858  156.7619 H   0  0  0  0  0  0  0  0  0  0  0  0  # atno 8008 bound_to 7997
  155.4203  140.3445  155.4252 H   0  0  0  0  0  0  0  0  0  0  0  0  # atno 8009 bound_to 7997
  156.1345  140.1511  156.9003 H   0  0  0  0  0  0  0  0  0  0  0  0  # atno 8010 bound_to 7997
  139.6787  143.9618  152.2325 H   0  0  0  0  0  0  0  0  0  0  0  0  # atno 10167 bound_to 10162
  157.0159  130.6135  149.5714 H   0  0  0  0  0  0  0  0  0  0  0  0  # atno 10718 bound_to 10713
  152.9945  135.6200  154.2580 H   0  0  0  0  0  0  0  0  0  0  0  0  # atno 10763 bound_to 10752
  154.2317  135.2792  155.2889 H   0  0  0  0  0  0  0  0  0  0  0  0  # atno 10764 bound_to 10752
  154.5444  135.5751  153.6925 H   0  0  0  0  0  0  0  0  0  0  0  0  # atno 10765 bound_to 10752
  140.5139  134.5774  157.5027 H   0  0  0  0  0  0  0  0  0  0  0  0  # atno 11005 bound_to 11000
  145.3798  139.1639  143.4287 LP  0  0  0  0  0  0  0  0  0  0  0  0  # atno 17320 bound_to 7965
  146.3048  140.3878  142.8691 LP  0  0  0  0  0  0  0  0  0  0  0  0  # atno 17321 bound_to 7965
  139.9402  144.6686  150.8274 LP  0  0  0  0  0  0  0  0  0  0  0  0  # atno 17342 bound_to 10162
  140.7645  143.3249  151.2537 LP  0  0  0  0  0  0  0  0  0  0  0  0  # atno 17343 bound_to 10162
  156.0119  130.5211  150.8016 LP  0  0  0  0  0  0  0  0  0  0  0  0  # atno 17370 bound_to 10713
  157.5286  131.0935  150.9985 LP  0  0  0  0  0  0  0  0  0  0  0  0  # atno 17371 bound_to 10713
  139.9643  134.7399  156.0171 LP  0  0  0  0  0  0  0  0  0  0  0  0  # atno 17394 bound_to 11000
  141.1370  133.6573  156.3623 LP  0  0  0  0  0  0  0  0  0  0  0  0  # atno 17395 bound_to 11000

$$$$
