AV-unprocessed.smi:113|AV-procd|sdf|1095|dock7
  -GOLD-   2262018203D 1   1.00000     0.00000
 Structure written by MMmdl.
 52 55  0  0  0  0  0  0  0  0  1 V2000
  151.8986  145.1103  159.2479 C   0  0  0  0  0  0  0  0  0  0  0  0
  152.1559  143.6199  159.1701 C   0  0  0  0  0  0  0  0  0  0  0  0
  151.4762  142.8219  158.2330 C   0  0  0  0  0  0  0  0  0  0  0  0
  151.7385  141.4333  158.1956 C   0  0  0  0  0  0  0  0  0  0  0  0
  151.0251  140.5185  157.1936 C   0  0  0  0  0  0  0  0  0  0  0  0
  149.6867  140.9149  156.7787 N   0  0  0  0  0  0  0  0  0  0  0  0
  149.3909  140.8973  155.3938 C   0  0  0  0  0  0  0  0  0  0  0  0
  150.2366  140.5735  154.5571 O   0  0  0  0  0  0  0  0  0  0  0  0
  148.0162  141.2660  155.0467 C   0  0  0  0  0  0  0  0  0  0  0  0
  147.6211  141.2578  153.5783 C   0  0  0  0  0  0  0  0  0  0  0  0
  147.1390  141.5912  156.0267 C   0  0  0  0  0  0  0  0  0  0  0  0
  147.4568  141.6108  157.3736 N   0  0  0  0  0  0  0  0  0  0  0  0
  146.3818  141.9298  158.3901 C   0  0  2  0  0  0  0  0  0  0  0  0
  145.1668  140.9895  158.3153 C   0  0  0  0  0  0  0  0  0  0  0  0
  144.0144  141.9361  158.0132 C   0  0  1  0  0  0  0  0  0  0  0  0
  142.8532  141.5524  158.7211 O   0  0  0  0  0  0  0  0  0  0  0  0
  144.5480  143.2983  158.4709 C   0  0  2  0  0  0  0  0  0  0  0  0
  143.9307  144.5056  157.7484 C   0  0  0  0  0  0  0  0  0  0  0  0
  144.5764  145.6994  158.1377 O   0  0  0  0  0  0  0  0  0  0  0  0
  145.9335  143.2297  158.1648 O   0  0  0  0  0  0  0  0  0  0  0  0
  148.7528  141.2347  157.7897 C   0  0  0  0  0  0  0  0  0  0  0  0
  149.0472  141.1714  158.9851 O   0  0  0  0  0  0  0  0  0  0  0  0
  152.6861  140.9104  159.1170 C   0  0  0  0  0  0  0  0  0  0  0  0
  153.0077  139.5317  159.1449 C   0  0  0  0  0  0  0  0  0  0  0  0
  153.9490  139.0346  160.0640 C   0  0  0  0  0  0  0  0  0  0  0  0
  154.5782  139.9095  160.9650 C   0  0  0  0  0  0  0  0  0  0  0  0
  154.2638  141.2800  160.9446 C   0  0  0  0  0  0  0  0  0  0  0  0
  153.3230  141.8015  160.0306 C   0  0  0  0  0  0  0  0  0  0  0  0
  153.0526  143.1253  160.0455 N   0  0  0  0  0  0  0  0  0  0  0  0
  151.4982  145.4870  158.3063 H   0  0  0  0  0  0  0  0  0  0  0  0
  152.8193  145.6535  159.4640 H   0  0  0  0  0  0  0  0  0  0  0  0
  151.1783  145.3258  160.0376 H   0  0  0  0  0  0  0  0  0  0  0  0
  150.7674  143.2826  157.5614 H   0  0  0  0  0  0  0  0  0  0  0  0
  151.6257  140.4108  156.2890 H   0  0  0  0  0  0  0  0  0  0  0  0
  150.9554  139.5053  157.5923 H   0  0  0  0  0  0  0  0  0  0  0  0
  146.5819  141.5546  153.4352 H   0  0  0  0  0  0  0  0  0  0  0  0
  147.7438  140.2594  153.1567 H   0  0  0  0  0  0  0  0  0  0  0  0
  148.2459  141.9486  153.0109 H   0  0  0  0  0  0  0  0  0  0  0  0
  146.1313  141.8504  155.7349 H   0  0  0  0  0  0  0  0  0  0  0  0
  146.8624  141.8854  159.3680 H   0  0  0  0  0  0  0  0  0  0  0  0
  145.2868  140.2090  157.5631 H   0  0  0  0  0  0  0  0  0  0  0  0
  145.0521  140.5105  159.2888 H   0  0  0  0  0  0  0  0  0  0  0  0
  143.8060  141.9433  156.9431 H   0  0  0  0  0  0  0  0  0  0  0  0
  142.9760  140.6704  159.0388 H   0  0  0  0  0  0  0  0  0  0  0  0
  144.4538  143.4041  159.5536 H   0  0  0  0  0  0  0  0  0  0  0  0
  144.0430  144.3926  156.6697 H   0  0  0  0  0  0  0  0  0  0  0  0
  142.8624  144.5808  157.9548 H   0  0  0  0  0  0  0  0  0  0  0  0
  145.4892  145.5104  158.2930 H   0  0  0  0  0  0  0  0  0  0  0  0
  152.5426  138.8326  158.4668 H   0  0  0  0  0  0  0  0  0  0  0  0
  154.1881  137.9813  160.0773 H   0  0  0  0  0  0  0  0  0  0  0  0
  155.3018  139.5308  161.6719 H   0  0  0  0  0  0  0  0  0  0  0  0
  154.7542  141.9429  161.6425 H   0  0  0  0  0  0  0  0  0  0  0  0
  1  2  1  0  0  0  0
  1 30  1  0  0  0  0
  1 31  1  0  0  0  0
  1 32  1  0  0  0  0
  2 29  1  0  0  0  0
  2  3  2  0  0  0  0
  3  4  1  0  0  0  0
  3 33  1  0  0  0  0
  4  5  1  0  0  0  0
  4 23  2  0  0  0  0
  5  6  1  0  0  0  0
  5 34  1  0  0  0  0
  5 35  1  0  0  0  0
  6 21  1  0  0  0  0
  6  7  1  0  0  0  0
  7  8  2  0  0  0  0
  7  9  1  0  0  0  0
  9 10  1  0  0  0  0
  9 11  2  0  0  0  0
 10 36  1  0  0  0  0
 10 37  1  0  0  0  0
 10 38  1  0  0  0  0
 11 12  1  0  0  0  0
 11 39  1  0  0  0  0
 12 13  1  0  0  0  0
 12 21  1  0  0  0  0
 13 20  1  0  0  0  0
 13 14  1  0  0  0  0
 13 40  1  0  0  0  0
 14 15  1  0  0  0  0
 14 41  1  0  0  0  0
 14 42  1  0  0  0  0
 15 16  1  0  0  0  0
 15 17  1  0  0  0  0
 15 43  1  0  0  0  0
 16 44  1  0  0  0  0
 17 18  1  0  0  0  0
 17 20  1  0  0  0  0
 17 45  1  0  0  0  0
 18 19  1  0  0  0  0
 18 46  1  0  0  0  0
 18 47  1  0  0  0  0
 19 48  1  0  0  0  0
 21 22  2  0  0  0  0
 23 28  1  0  0  0  0
 23 24  1  0  0  0  0
 24 25  2  0  0  0  0
 24 49  1  0  0  0  0
 25 26  1  0  0  0  0
 25 50  1  0  0  0  0
 26 27  2  0  0  0  0
 26 51  1  0  0  0  0
 27 28  1  0  0  0  0
 27 52  1  0  0  0  0
 28 29  2  0  0  0  0
M  END
> <s_m_source_file>
AV-unprocessed.smi

> <i_m_source_file_index>
113

> <i_lp_mmshare_version>
43012

> <i_f3d_flags>
0

> <s_epik_input>
W2NIXTFbY0hdW2NIXVtjSF1jKGMxMiluYyhbQ0gzXSlbY0hdYzJbQ0gyXW4zYyg9TyljKFtDSDNdKVtjSF1uKGMzPU8pW0NAQEhdNFtDSDJdW0NAQEhdKFtPSF0pW0NASF0oTzQpW0NIMl1bT0hd

> <s_epik_cmdline>
J2VwaWtfcHl0aG9uJywgJy1waCcsICc3LjAnLCAnLXRuJywgJzgnLCAnLW1hJywgJzIwMCcsICctbWV0YWxfYmluZGluZycsICctaW1hZScsICc8aW5maWxlLm1hZT4nLCAnLW9tYWUnLCAnPG91dGZpbGUubWFlPic=

> <r_lp_tautomer_probability>
1

> <r_epik_Ionization_Penalty>
0.214728

> <r_epik_Ionization_Penalty_Charging>
3.04883e-08

> <r_epik_Ionization_Penalty_Neutral>
0.214728

> <r_epik_State_Penalty>
0.204913

> <r_epik_Charging_Adjusted_Penalty>
0.204913

> <i_epik_Tot_Q>
0

> <i_epik_Tot_abs_Q>
0

> <r_epik_Metal_State_Penalty>
0.000244761

> <b_epik_Metal_Only>
0

> <s_epik_Chemistry_Notes>
This compound contains an acetal/aminal-like group ( X-CH(R)-Y where X, Y are N, S, or O) that may be acid/base labile, releasing an aldehyde.

> <s_lp_Force_Field>
OPLS_2005

> <r_lp_Energy>
32.9041

> <b_lp_Chiralities_Consistent>
1

> <s_lp_Variant>
AV-unprocessed.smi:113-5

> <Gold.Version>
5.8.1

> <Gold.Id.Protein>
6NUR|6NUR_protein|mol2

> <Gold.PLP.Fitness>
51.1006

> <Gold.PLP.PLP>
-46.2041

> <Gold.PLP.part.hbond>
-4.0000

> <Gold.PLP.part.metal>
0.0000

> <Gold.PLP.part.buried>
-5.2073

> <Gold.PLP.part.nonpolar>
-38.8287

> <Gold.PLP.part.repulsive>
2.0719

> <Gold.PLP.ligand.clash>
0.0000

> <Gold.PLP.ligand.torsion>
0.5113

> <Gold.PLP.Chemscore.Hbond>
1.9600

> <Gold.PLP.Chemscore.CHOScore>
0.0000

> <Gold.PLP.Chemscore.Metal>
0.0000

> <Gold.Chemscore.Hbonds>
donor molecule, donor type, donor heavy atom, donor atom, acceptor molecule, acceptor atom, score
      P1  H  7989  7998       L1     8  0.90

> <Gold.PLP.Chemscore.Internal.Correction>
0.0391

> <Gold.Rescore>
     Score         DG    S(hbond)    S(metal)    S(lipo)     H(rot)  DE(clash)    DE(int)     intcor
     14.89     -18.21       1.77        0.00     122.68       2.95       1.59       1.73       ----

> <Gold.Chemscore.Fitness>
14.8896

> <Gold.Chemscore.DG>
-18.2063

> <Gold.Chemscore.ZeroCoef>
-5.4800

> <Gold.Chemscore.Hbond>
1.7714

> <Gold.Chemscore.Metal>
0.0000

> <Gold.Chemscore.Lipo>
122.6810

> <Gold.Chemscore.Internal_Hbond>
0.0000

> <Gold.Chemscore.DEClash>
1.5888

> <Gold.Chemscore.DEInternal>
1.7279

> <Gold.Chemscore.Rot>
2.9469

> <Gold.Chemscore.Internal.Correction>
   9.000000E+99

> <Gold.Chemscore.Hbonds>
donor molecule, donor type, donor heavy atom, donor atom, acceptor molecule, acceptor atom, score
      P1  H  7989  7998       L1     8  0.88

> <Gold.Chemscore.Hbond.Weighted>
-5.9166

> <Gold.Chemscore.Metal.Weighted>
-0.0000

> <Gold.Chemscore.Lipo.Weighted>
-14.3537

> <Gold.Chemscore.Internal_Hbond.Weighted>
0.0000

> <Gold.Chemscore.DEClash.Weighted>
1.5888

> <Gold.Chemscore.DEInternal.Weighted>
1.7279

> <Gold.Chemscore.Rot.Weighted>
7.5439

> <Gold.Chemscore.Internal.Correction.Weighted>
   9.000000E+99

> <Gold.Protein.RotatedTorsions>
[ 6907 6896 6895 6894 ] final  -56.95 input  -60.11 | X-H torsion
[ 7974 7965 7964 7962 ] final   99.96 input  175.53 | X-H torsion
[ 8008 7997 7996 7995 ] final  117.43 input   59.86 | X-H torsion
[ 10167 10162 10161 10158 ] final  118.65 input  -65.29 | X-H torsion
[ 10718 10713 10712 10709 ] final   14.21 input   66.30 | X-H torsion
[ 10763 10752 10751 10750 ] final -110.01 input  -60.55 | X-H torsion
[ 11005 11000 10999 10996 ] final   32.32 input  -57.11 | X-H torsion

> <Gold.Protein.ActiveResidues>
 VAL166  LYS551  ARG553  GLY616  TRP617  ASP618  TYR619  PRO620  LYS621  CYS622 
 ASP623  PHE694  ASN695  SER759  ASP760  ASP761  ALA762  ILE779  LEU786  VAL792 
 PHE793  MET794  SER795  GLU796  ALA797  LYS798  CYS799  TRP800  GLU811  SER814 

> <Gold.Protein.RotatedAtoms>
  150.8126  134.7289  159.6700 H   0  0  0  0  0  0  0  0  0  0  0  0  # atno 6907 bound_to 6896
  152.4245  134.5890  159.9978 H   0  0  0  0  0  0  0  0  0  0  0  0  # atno 6908 bound_to 6896
  151.6096  133.3311  159.3100 H   0  0  0  0  0  0  0  0  0  0  0  0  # atno 6909 bound_to 6896
  145.3919  139.2361  143.3347 H   0  0  0  0  0  0  0  0  0  0  0  0  # atno 7974 bound_to 7965
  156.2494  140.2896  156.0678 H   0  0  0  0  0  0  0  0  0  0  0  0  # atno 8008 bound_to 7997
  155.1704  140.0401  157.2879 H   0  0  0  0  0  0  0  0  0  0  0  0  # atno 8009 bound_to 7997
  154.6329  140.2504  155.7419 H   0  0  0  0  0  0  0  0  0  0  0  0  # atno 8010 bound_to 7997
  139.6098  144.7079  151.2871 H   0  0  0  0  0  0  0  0  0  0  0  0  # atno 10167 bound_to 10162
  157.0358  130.6211  149.5742 H   0  0  0  0  0  0  0  0  0  0  0  0  # atno 10718 bound_to 10713
  154.8225  135.4580  154.0820 H   0  0  0  0  0  0  0  0  0  0  0  0  # atno 10763 bound_to 10752
  153.2162  135.6888  153.8061 H   0  0  0  0  0  0  0  0  0  0  0  0  # atno 10764 bound_to 10752
  153.7495  135.3300  155.3295 H   0  0  0  0  0  0  0  0  0  0  0  0  # atno 10765 bound_to 10752
  140.2746  134.3042  155.7818 H   0  0  0  0  0  0  0  0  0  0  0  0  # atno 11005 bound_to 11000
  146.2793  140.4604  142.8783 LP  0  0  0  0  0  0  0  0  0  0  0  0  # atno 17320 bound_to 7965
  144.8434  140.6892  143.6215 LP  0  0  0  0  0  0  0  0  0  0  0  0  # atno 17321 bound_to 7965
  140.7311  143.6862  150.7960 LP  0  0  0  0  0  0  0  0  0  0  0  0  # atno 17342 bound_to 10162
  140.0455  143.5303  152.2698 LP  0  0  0  0  0  0  0  0  0  0  0  0  # atno 17343 bound_to 10162
  156.0054  130.5140  150.7812 LP  0  0  0  0  0  0  0  0  0  0  0  0  # atno 17370 bound_to 10713
  157.5143  131.0927  151.0159 LP  0  0  0  0  0  0  0  0  0  0  0  0  # atno 17371 bound_to 10713
  141.2172  133.7488  156.9388 LP  0  0  0  0  0  0  0  0  0  0  0  0  # atno 17394 bound_to 11000
  140.1340  134.9337  157.2376 LP  0  0  0  0  0  0  0  0  0  0  0  0  # atno 17395 bound_to 11000

$$$$
