AV-unprocessed.smi:1870|AV-procd|sdf|7594|dock7
  -GOLD-   22720 9303D 1   1.00000     0.00000
 Structure written by MMmdl.
 48 50  0  0  0  0  0  0  0  0  2 V2000
  150.3597  142.6657  157.3631 C   0  0  0  0  0  0  0  0  0  0  0  0
  150.3367  141.5232  156.3838 C   0  0  0  0  0  0  0  0  0  0  0  0
  149.3906  141.5338  155.5031 N   0  0  0  0  0  0  0  0  0  0  0  0
  149.2740  140.5323  154.5588 N   0  0  0  0  0  0  0  0  0  0  0  0
  148.1494  140.7119  153.6306 C   0  0  0  0  0  0  0  0  0  0  0  0
  147.1257  139.5556  153.6910 C   0  0  1  0  0  0  0  0  0  0  0  0
  145.9556  140.0607  154.3032 O   0  0  0  0  0  0  0  0  0  0  0  0
  146.7632  138.9929  152.2978 C   0  0  0  0  0  0  0  0  0  0  0  0
  146.4782  137.5344  152.3070 N   0  3  1  0  0  0  0  0  0  0  0  0
  145.9292  137.0782  153.6056 C   0  0  0  0  0  0  0  0  0  0  0  0
  145.9702  135.5472  153.6871 C   0  0  0  0  0  0  0  0  0  0  0  0
  145.3641  134.8893  152.4613 C   0  0  0  0  0  0  0  0  0  0  0  0
  144.9754  133.5348  152.5134 C   0  0  0  0  0  0  0  0  0  0  0  0
  144.4446  132.9070  151.3705 C   0  0  0  0  0  0  0  0  0  0  0  0
  144.3028  133.6313  150.1719 C   0  0  0  0  0  0  0  0  0  0  0  0
  144.6912  134.9836  150.1155 C   0  0  0  0  0  0  0  0  0  0  0  0
  145.2240  135.6195  151.2564 C   0  0  0  0  0  0  0  0  0  0  0  0
  145.6193  137.0901  151.1757 C   0  0  0  0  0  0  0  0  0  0  0  0
  150.0999  139.4510  154.4690 C   0  0  0  0  0  0  0  0  0  0  0  0
  149.9473  138.5706  153.6215 O   0  0  0  0  0  0  0  0  0  0  0  0
  151.1754  139.4498  155.4630 C   0  0  0  0  0  0  0  0  0  0  0  0
  152.0728  138.3419  155.3947 C   0  0  0  0  0  0  0  0  0  0  0  0
  152.7960  137.4411  155.3196 N   0  0  0  0  0  0  0  0  0  0  0  0
  151.3101  140.4359  156.3847 C   0  0  0  0  0  0  0  0  0  0  0  0
  152.4084  140.4772  157.4384 C   0  0  0  0  0  0  0  0  0  0  0  0
  150.3998  142.2979  158.3887 H   0  0  0  0  0  0  0  0  0  0  0  0
  149.4716  143.2938  157.2762 H   0  0  0  0  0  0  0  0  0  0  0  0
  151.2307  143.2997  157.1959 H   0  0  0  0  0  0  0  0  0  0  0  0
  147.6530  141.6599  153.8473 H   0  0  0  0  0  0  0  0  0  0  0  0
  148.5241  140.8119  152.6096 H   0  0  0  0  0  0  0  0  0  0  0  0
  147.5239  138.7711  154.3325 H   0  0  0  0  0  0  0  0  0  0  0  0
  145.2170  139.8996  153.7365 H   0  0  0  0  0  0  0  0  0  0  0  0
  145.8921  139.5351  151.9267 H   0  0  0  0  0  0  0  0  0  0  0  0
  147.5648  139.1807  151.5823 H   0  0  0  0  0  0  0  0  0  0  0  0
  146.5029  137.4920  154.4360 H   0  0  0  0  0  0  0  0  0  0  0  0
  144.9060  137.4420  153.7138 H   0  0  0  0  0  0  0  0  0  0  0  0
  147.0030  135.2087  153.7774 H   0  0  0  0  0  0  0  0  0  0  0  0
  145.4472  135.2086  154.5824 H   0  0  0  0  0  0  0  0  0  0  0  0
  145.0890  132.9717  153.4285 H   0  0  0  0  0  0  0  0  0  0  0  0
  144.1487  131.8690  151.4128 H   0  0  0  0  0  0  0  0  0  0  0  0
  143.8952  133.1490  149.2953 H   0  0  0  0  0  0  0  0  0  0  0  0
  144.5750  135.5332  149.1925 H   0  0  0  0  0  0  0  0  0  0  0  0
  144.7058  137.6861  151.1502 H   0  0  0  0  0  0  0  0  0  0  0  0
  146.1351  137.2512  150.2297 H   0  0  0  0  0  0  0  0  0  0  0  0
  153.1767  139.7249  157.2615 H   0  0  0  0  0  0  0  0  0  0  0  0
  151.9890  140.2976  158.4287 H   0  0  0  0  0  0  0  0  0  0  0  0
  152.9052  141.4478  157.4456 H   0  0  0  0  0  0  0  0  0  0  0  0
  147.3682  137.0680  152.2057 H   0  0  0  0  0  0  0  0  0  0  0  0
  1  2  1  0  0  0  0
  1 26  1  0  0  0  0
  1 27  1  0  0  0  0
  1 28  1  0  0  0  0
  2 24  1  0  0  0  0
  2  3  2  0  0  0  0
  3  4  1  0  0  0  0
  4  5  1  0  0  0  0
  4 19  1  0  0  0  0
  5  6  1  0  0  0  0
  5 29  1  0  0  0  0
  5 30  1  0  0  0  0
  6  7  1  0  0  0  0
  6  8  1  0  0  0  0
  6 31  1  0  0  0  0
  7 32  1  0  0  0  0
  8  9  1  0  0  0  0
  8 33  1  0  0  0  0
  8 34  1  0  0  0  0
  9 18  1  0  0  0  0
  9 10  1  0  0  0  0
  9 48  1  0  0  0  0
 10 11  1  0  0  0  0
 10 35  1  0  0  0  0
 10 36  1  0  0  0  0
 11 12  1  0  0  0  0
 11 37  1  0  0  0  0
 11 38  1  0  0  0  0
 12 17  2  0  0  0  0
 12 13  1  0  0  0  0
 13 14  2  0  0  0  0
 13 39  1  0  0  0  0
 14 15  1  0  0  0  0
 14 40  1  0  0  0  0
 15 16  2  0  0  0  0
 15 41  1  0  0  0  0
 16 17  1  0  0  0  0
 16 42  1  0  0  0  0
 17 18  1  0  0  0  0
 18 43  1  0  0  0  0
 18 44  1  0  0  0  0
 19 20  2  0  0  0  0
 19 21  1  0  0  0  0
 21 22  1  0  0  0  0
 21 24  2  0  0  0  0
 22 23  3  0  0  0  0
 24 25  1  0  0  0  0
 25 45  1  0  0  0  0
 25 46  1  0  0  0  0
 25 47  1  0  0  0  0
M  CHG  1   9   1
M  END
> <s_m_source_file>
AV-unprocessed.smi

> <i_m_source_file_index>
1870

> <i_lp_mmshare_version>
43012

> <i_f3d_flags>
0

> <s_epik_input>
TiNDYyhjMVtDSDNdKWMoPU8pbihuYzFbQ0gzXSlbQ0gyXVtDQEhdKFtPSF0pW0NIMl1OKFtDSDJdW0NIMl0yKVtDSDJdYyhjMjMpW2NIXVtjSF1bY0hdW2NIXTM=

> <s_epik_cmdline>
J2VwaWtfcHl0aG9uJywgJy1waCcsICc3LjAnLCAnLXRuJywgJzgnLCAnLW1hJywgJzIwMCcsICctbWV0YWxfYmluZGluZycsICctaW1hZScsICc8aW5maWxlLm1hZT4nLCAnLW9tYWUnLCAnPG91dGZpbGUubWFlPic=

> <r_epik_Ionization_Penalty>
0.0122865

> <r_epik_Ionization_Penalty_Charging>
0.0122864

> <r_epik_Ionization_Penalty_Neutral>
1.48087e-07

> <r_epik_State_Penalty>
0.00950248

> <r_epik_Charging_Adjusted_Penalty>
0.0217889

> <i_epik_Tot_Q>
1

> <i_epik_Tot_abs_Q>
1

> <r_epik_Metal_State_Penalty>
0.00950248

> <b_epik_Metal_Only>
0

> <s_lp_Force_Field>
OPLS_2005

> <r_lp_Energy>
36.9803

> <b_lp_Chiralities_Consistent>
1

> <s_lp_Variant>
AV-unprocessed.smi:1870-2

> <Gold.Version>
5.8.1

> <Gold.Id.Protein>
6NUR|6NUR_protein|mol2

> <Gold.PLP.Fitness>
46.6653

> <Gold.PLP.PLP>
-38.7496

> <Gold.PLP.part.hbond>
-3.0000

> <Gold.PLP.part.metal>
0.0000

> <Gold.PLP.part.buried>
2.1339

> <Gold.PLP.part.nonpolar>
-39.6454

> <Gold.PLP.part.repulsive>
1.1188

> <Gold.PLP.ligand.clash>
0.0000

> <Gold.PLP.ligand.torsion>
1.4600

> <Gold.PLP.Chemscore.Hbond>
3.5920

> <Gold.PLP.Chemscore.CHOScore>
0.0000

> <Gold.PLP.Chemscore.Metal>
0.0000

> <Gold.Chemscore.Hbonds>
donor molecule, donor type, donor heavy atom, donor atom, acceptor molecule, acceptor atom, score
      L1  H     7    32       P1 10175  0.91
      L1  H     9    48       P1  7948  2.00
      P1  H 10752 10765       L1    23  0.45

> <Gold.PLP.Chemscore.Internal.Correction>
0.0596

> <Gold.Rescore>
     Score         DG    S(hbond)    S(metal)    S(lipo)     H(rot)  DE(clash)    DE(int)     intcor
     14.43     -20.40       2.60        0.00     100.55       2.16       2.60       3.38       ----

> <Gold.Chemscore.Fitness>
14.4271

> <Gold.Chemscore.DG>
-20.3999

> <Gold.Chemscore.ZeroCoef>
-5.4800

> <Gold.Chemscore.Hbond>
2.6023

> <Gold.Chemscore.Metal>
0.0000

> <Gold.Chemscore.Lipo>
100.5542

> <Gold.Chemscore.Internal_Hbond>
0.0000

> <Gold.Chemscore.DEClash>
2.5956

> <Gold.Chemscore.DEInternal>
3.3772

> <Gold.Chemscore.Rot>
2.1628

> <Gold.Chemscore.Internal.Correction>
   9.000000E+99

> <Gold.Chemscore.Hbonds>
donor molecule, donor type, donor heavy atom, donor atom, acceptor molecule, acceptor atom, score
      L1  H     7    32       P1 10175  0.85
      L1  H     9    48       P1  7948  1.00
      P1  H 10752 10765       L1    23  0.45

> <Gold.Chemscore.Hbond.Weighted>
-8.6917

> <Gold.Chemscore.Metal.Weighted>
-0.0000

> <Gold.Chemscore.Lipo.Weighted>
-11.7648

> <Gold.Chemscore.Internal_Hbond.Weighted>
0.0000

> <Gold.Chemscore.DEClash.Weighted>
2.5956

> <Gold.Chemscore.DEInternal.Weighted>
3.3772

> <Gold.Chemscore.Rot.Weighted>
5.5367

> <Gold.Chemscore.Internal.Correction.Weighted>
   9.000000E+99

> <Gold.Protein.RotatedTorsions>
[ 6907 6896 6895 6894 ] final  144.39 input  -60.11 | X-H torsion
[ 7974 7965 7964 7962 ] final   51.46 input  175.53 | X-H torsion
[ 8008 7997 7996 7995 ] final   74.88 input   59.86 | X-H torsion
[ 10167 10162 10161 10158 ] final   20.87 input  -65.29 | X-H torsion
[ 10718 10713 10712 10709 ] final   30.91 input   66.30 | X-H torsion
[ 10763 10752 10751 10750 ] final -157.40 input  -60.55 | X-H torsion
[ 11005 11000 10999 10996 ] final  141.22 input  -57.11 | X-H torsion

> <Gold.Protein.ActiveResidues>
 VAL166  LYS551  ARG553  GLY616  TRP617  ASP618  TYR619  PRO620  LYS621  CYS622 
 ASP623  PHE694  ASN695  SER759  ASP760  ASP761  ALA762  ILE779  LEU786  VAL792 
 PHE793  MET794  SER795  GLU796  ALA797  LYS798  CYS799  TRP800  GLU811  SER814 

> <Gold.Protein.RotatedAtoms>
  152.1943  133.4795  159.5024 H   0  0  0  0  0  0  0  0  0  0  0  0  # atno 6907 bound_to 6896
  150.6957  134.1673  159.4208 H   0  0  0  0  0  0  0  0  0  0  0  0  # atno 6908 bound_to 6896
  151.9588  135.0133  160.0597 H   0  0  0  0  0  0  0  0  0  0  0  0  # atno 6909 bound_to 6896
  145.9911  139.4339  143.0073 H   0  0  0  0  0  0  0  0  0  0  0  0  # atno 7974 bound_to 7965
  155.8048  140.3475  155.5423 H   0  0  0  0  0  0  0  0  0  0  0  0  # atno 8008 bound_to 7997
  155.8501  140.0955  157.1700 H   0  0  0  0  0  0  0  0  0  0  0  0  # atno 8009 bound_to 7997
  154.4007  140.1378  156.3821 H   0  0  0  0  0  0  0  0  0  0  0  0  # atno 8010 bound_to 7997
  140.5471  143.9576  150.6554 H   0  0  0  0  0  0  0  0  0  0  0  0  # atno 10167 bound_to 10162
  157.2657  130.7183  149.6477 H   0  0  0  0  0  0  0  0  0  0  0  0  # atno 10718 bound_to 10713
  154.7639  135.3125  154.8325 H   0  0  0  0  0  0  0  0  0  0  0  0  # atno 10763 bound_to 10752
  153.9078  135.6809  153.4756 H   0  0  0  0  0  0  0  0  0  0  0  0  # atno 10764 bound_to 10752
  153.1242  135.4809  154.9178 H   0  0  0  0  0  0  0  0  0  0  0  0  # atno 10765 bound_to 10752
  140.0385  134.9317  157.0798 H   0  0  0  0  0  0  0  0  0  0  0  0  # atno 11005 bound_to 11000
  145.7629  140.9928  143.1190 LP  0  0  0  0  0  0  0  0  0  0  0  0  # atno 17320 bound_to 7965
  144.6889  139.9352  143.7473 LP  0  0  0  0  0  0  0  0  0  0  0  0  # atno 17321 bound_to 7965
  140.2991  143.3272  152.0989 LP  0  0  0  0  0  0  0  0  0  0  0  0  # atno 17342 bound_to 10162
  139.5012  144.6708  151.6248 LP  0  0  0  0  0  0  0  0  0  0  0  0  # atno 17343 bound_to 10162
  155.9663  130.4383  150.5212 LP  0  0  0  0  0  0  0  0  0  0  0  0  # atno 17370 bound_to 10713
  157.3126  131.0666  151.1990 LP  0  0  0  0  0  0  0  0  0  0  0  0  # atno 17371 bound_to 10713
  140.4108  134.1983  155.7163 LP  0  0  0  0  0  0  0  0  0  0  0  0  # atno 17394 bound_to 11000
  141.1870  133.8290  157.1047 LP  0  0  0  0  0  0  0  0  0  0  0  0  # atno 17395 bound_to 11000

$$$$
