AV-unprocessed.smi:2278|AV-procd|sdf|9181|dock10
  -GOLD-   2272012393D 1   1.00000     0.00000
 Structure written by MMmdl.
 46 47  0  0  0  0  0  0  0  0  2 V2000
  150.3288  142.3666  155.4640 C   0  0  0  0  0  0  0  0  0  0  0  0
  149.3656  141.2482  155.1082 C   0  0  0  0  0  0  0  0  0  0  0  0
  149.8016  140.3691  154.1128 N   0  0  0  0  0  0  0  0  0  0  0  0
  149.0489  139.3835  153.7483 C   0  0  0  0  0  0  0  0  0  0  0  0
  147.7893  139.1604  154.3299 N   0  0  0  0  0  0  0  0  0  0  0  0
  147.0408  137.9945  153.8271 C   0  0  0  0  0  0  0  0  0  0  0  0
  147.2850  136.7192  154.6658 C   0  0  2  0  0  0  0  0  0  0  0  0
  148.5811  136.2463  154.3582 O   0  0  0  0  0  0  0  0  0  0  0  0
  146.2724  135.5874  154.3822 C   0  0  0  0  0  0  0  0  0  0  0  0
  146.4490  134.9840  153.0366 N   0  3  2  0  0  0  0  0  0  0  0  0
  145.2535  135.1721  152.1754 C   0  0  0  0  0  0  0  0  0  0  0  0
  145.5107  134.6649  150.7448 C   0  0  0  0  0  0  0  0  0  0  0  0
  145.9701  133.1955  150.7197 C   0  0  2  0  0  0  0  0  0  0  0  0
  144.8262  132.2073  151.0083 C   0  0  0  0  0  0  0  0  0  0  0  0
  147.1649  133.0178  151.6740 C   0  0  0  0  0  0  0  0  0  0  0  0
  146.8692  133.5582  153.0842 C   0  0  0  0  0  0  0  0  0  0  0  0
  147.2847  139.9762  155.3008 C   0  0  0  0  0  0  0  0  0  0  0  0
  146.1788  139.7739  155.8056 O   0  0  0  0  0  0  0  0  0  0  0  0
  148.1538  141.0920  155.7076 C   0  0  0  0  0  0  0  0  0  0  0  0
  147.6284  142.0137  156.8011 C   0  0  0  0  0  0  0  0  0  0  0  0
  149.8640  143.3386  155.2972 H   0  0  0  0  0  0  0  0  0  0  0  0
  151.2334  142.3213  154.8558 H   0  0  0  0  0  0  0  0  0  0  0  0
  150.6258  142.2965  156.5107 H   0  0  0  0  0  0  0  0  0  0  0  0
  149.3425  138.6682  152.9779 H   0  0  0  0  0  0  0  0  0  0  0  0
  145.9706  138.2027  153.7724 H   0  0  0  0  0  0  0  0  0  0  0  0
  147.3300  137.8085  152.7903 H   0  0  0  0  0  0  0  0  0  0  0  0
  147.2785  136.9870  155.7217 H   0  0  0  0  0  0  0  0  0  0  0  0
  148.6074  136.0077  153.4436 H   0  0  0  0  0  0  0  0  0  0  0  0
  146.3487  134.7943  155.1259 H   0  0  0  0  0  0  0  0  0  0  0  0
  145.2653  135.9966  154.4776 H   0  0  0  0  0  0  0  0  0  0  0  0
  144.3975  134.6601  152.6173 H   0  0  0  0  0  0  0  0  0  0  0  0
  144.9964  136.2313  152.1325 H   0  0  0  0  0  0  0  0  0  0  0  0
  144.6155  134.7921  150.1351 H   0  0  0  0  0  0  0  0  0  0  0  0
  146.2799  135.2865  150.2842 H   0  0  0  0  0  0  0  0  0  0  0  0
  146.3190  132.9765  149.7097 H   0  0  0  0  0  0  0  0  0  0  0  0
  144.3997  132.3483  152.0011 H   0  0  0  0  0  0  0  0  0  0  0  0
  145.1761  131.1766  150.9445 H   0  0  0  0  0  0  0  0  0  0  0  0
  144.0194  132.3223  150.2842 H   0  0  0  0  0  0  0  0  0  0  0  0
  147.4526  131.9671  151.7284 H   0  0  0  0  0  0  0  0  0  0  0  0
  148.0285  133.5460  151.2674 H   0  0  0  0  0  0  0  0  0  0  0  0
  147.7643  133.4463  153.6946 H   0  0  0  0  0  0  0  0  0  0  0  0
  146.0919  132.9623  153.5645 H   0  0  0  0  0  0  0  0  0  0  0  0
  147.4353  141.4445  157.7108 H   0  0  0  0  0  0  0  0  0  0  0  0
  146.6921  142.4754  156.4859 H   0  0  0  0  0  0  0  0  0  0  0  0
  148.3195  142.8152  157.0572 H   0  0  0  0  0  0  0  0  0  0  0  0
  147.1962  135.5006  152.5944 H   0  0  0  0  0  0  0  0  0  0  0  0
  1  2  1  0  0  0  0
  1 21  1  0  0  0  0
  1 22  1  0  0  0  0
  1 23  1  0  0  0  0
  2 19  2  0  0  0  0
  2  3  1  0  0  0  0
  3  4  2  0  0  0  0
  4  5  1  0  0  0  0
  4 24  1  0  0  0  0
  5  6  1  0  0  0  0
  5 17  1  0  0  0  0
  6  7  1  0  0  0  0
  6 25  1  0  0  0  0
  6 26  1  0  0  0  0
  7  8  1  0  0  0  0
  7  9  1  0  0  0  0
  7 27  1  0  0  0  0
  8 28  1  0  0  0  0
  9 10  1  0  0  0  0
  9 29  1  0  0  0  0
  9 30  1  0  0  0  0
 10 16  1  0  0  0  0
 10 11  1  0  0  0  0
 10 46  1  0  0  0  0
 11 12  1  0  0  0  0
 11 31  1  0  0  0  0
 11 32  1  0  0  0  0
 12 13  1  0  0  0  0
 12 33  1  0  0  0  0
 12 34  1  0  0  0  0
 13 14  1  0  0  0  0
 13 15  1  0  0  0  0
 13 35  1  0  0  0  0
 14 36  1  0  0  0  0
 14 37  1  0  0  0  0
 14 38  1  0  0  0  0
 15 16  1  0  0  0  0
 15 39  1  0  0  0  0
 15 40  1  0  0  0  0
 16 41  1  0  0  0  0
 16 42  1  0  0  0  0
 17 18  2  0  0  0  0
 17 19  1  0  0  0  0
 19 20  1  0  0  0  0
 20 43  1  0  0  0  0
 20 44  1  0  0  0  0
 20 45  1  0  0  0  0
M  CHG  1  10   1
M  END
> <s_m_source_file>
AV-unprocessed.smi

> <i_m_source_file_index>
2278

> <i_lp_mmshare_version>
43012

> <i_f3d_flags>
0

> <s_epik_input>
W0NIM11jMW5bY0hdbihjKD1PKWMxW0NIM10pW0NIMl1bQ0BIXShbT0hdKVtDSDJdTjJbQ0gyXVtDSDJdW0NIXShbQ0gzXSlbQ0gyXVtDSDJdMg==

> <s_epik_cmdline>
J2VwaWtfcHl0aG9uJywgJy1waCcsICc3LjAnLCAnLXRuJywgJzgnLCAnLW1hJywgJzIwMCcsICctbWV0YWxfYmluZGluZycsICctaW1hZScsICc8aW5maWxlLm1hZT4nLCAnLW9tYWUnLCAnPG91dGZpbGUubWFlPic=

> <r_lp_tautomer_probability>
1

> <r_epik_Ionization_Penalty>
0.00139489

> <r_epik_Ionization_Penalty_Charging>
0.00136819

> <r_epik_Ionization_Penalty_Neutral>
2.66975e-05

> <r_epik_State_Penalty>
0.000910892

> <r_epik_Charging_Adjusted_Penalty>
0.00227908

> <i_epik_Tot_Q>
1

> <i_epik_Tot_abs_Q>
1

> <r_epik_Metal_State_Penalty>
-0

> <b_epik_Metal_Only>
0

> <s_lp_Force_Field>
OPLS_2005

> <r_lp_Energy>
30.3115

> <b_lp_Chiralities_Consistent>
1

> <s_lp_Variant>
AV-unprocessed.smi:2278-3

> <Gold.Version>
5.8.1

> <Gold.Id.Protein>
6NUR|6NUR_protein|mol2

> <Gold.PLP.Fitness>
38.8999

> <Gold.PLP.PLP>
-25.9724

> <Gold.PLP.part.hbond>
-2.8129

> <Gold.PLP.part.metal>
0.0000

> <Gold.PLP.part.buried>
-2.8560

> <Gold.PLP.part.nonpolar>
-19.6349

> <Gold.PLP.part.repulsive>
0.0926

> <Gold.PLP.ligand.clash>
0.0000

> <Gold.PLP.ligand.torsion>
1.2514

> <Gold.PLP.Chemscore.Hbond>
4.0000

> <Gold.PLP.Chemscore.CHOScore>
1.1375

> <Gold.PLP.Chemscore.Metal>
0.0000

> <Gold.Chemscore.Hbonds>
donor molecule, donor type, donor heavy atom, donor atom, acceptor molecule, acceptor atom, score
      L1  H     8    28       P1  7948  1.00
      L1  H    10    46       P1  7948  2.00
      P1  H  7989  7998       L1     3  0.77
      L1  C     4    24       P1  7948  0.65
      L1  C     4    24       P1  7957  0.45

> <Gold.PLP.Chemscore.Internal.Correction>
0.0178

> <Gold.Rescore>
     Score         DG    S(hbond)    S(metal)    S(lipo)     H(rot)  DE(clash)    DE(int)     intcor
     15.09     -16.55       2.84        0.00      61.49       2.20       0.08       1.38       ----

> <Gold.Chemscore.Fitness>
15.0930

> <Gold.Chemscore.DG>
-16.5468

> <Gold.Chemscore.ZeroCoef>
-5.4800

> <Gold.Chemscore.Hbond>
2.8445

> <Gold.Chemscore.Metal>
0.0000

> <Gold.Chemscore.Lipo>
61.4916

> <Gold.Chemscore.Internal_Hbond>
0.0000

> <Gold.Chemscore.DEClash>
0.0768

> <Gold.Chemscore.DEInternal>
1.3770

> <Gold.Chemscore.Rot>
2.1986

> <Gold.Chemscore.Internal.Correction>
   9.000000E+99

> <Gold.Chemscore.Hbonds>
donor molecule, donor type, donor heavy atom, donor atom, acceptor molecule, acceptor atom, score
      L1  H     8    28       P1  7948  0.97
      L1  H    10    46       P1  7948  0.94
      P1  H  7989  7998       L1     3  0.58

> <Gold.Chemscore.Hbond.Weighted>
-9.5007

> <Gold.Chemscore.Metal.Weighted>
-0.0000

> <Gold.Chemscore.Lipo.Weighted>
-7.1945

> <Gold.Chemscore.Internal_Hbond.Weighted>
0.0000

> <Gold.Chemscore.DEClash.Weighted>
0.0768

> <Gold.Chemscore.DEInternal.Weighted>
1.3770

> <Gold.Chemscore.Rot.Weighted>
5.6285

> <Gold.Chemscore.Internal.Correction.Weighted>
   9.000000E+99

> <Gold.Protein.RotatedTorsions>
[ 6907 6896 6895 6894 ] final -160.48 input  -60.11 | X-H torsion
[ 7974 7965 7964 7962 ] final  -20.22 input  175.53 | X-H torsion
[ 8008 7997 7996 7995 ] final -135.01 input   59.86 | X-H torsion
[ 10167 10162 10161 10158 ] final  130.60 input  -65.29 | X-H torsion
[ 10718 10713 10712 10709 ] final  144.82 input   66.30 | X-H torsion
[ 10763 10752 10751 10750 ] final  -64.42 input  -60.55 | X-H torsion
[ 11005 11000 10999 10996 ] final -161.39 input  -57.11 | X-H torsion

> <Gold.Protein.ActiveResidues>
 VAL166  LYS551  ARG553  GLY616  TRP617  ASP618  TYR619  PRO620  LYS621  CYS622 
 ASP623  PHE694  ASN695  SER759  ASP760  ASP761  ALA762  ILE779  LEU786  VAL792 
 PHE793  MET794  SER795  GLU796  ALA797  LYS798  CYS799  TRP800  GLU811  SER814 

> <Gold.Protein.RotatedAtoms>
  151.3497  133.3930  159.2678 H   0  0  0  0  0  0  0  0  0  0  0  0  # atno 6907 bound_to 6896
  150.9811  134.9167  159.7855 H   0  0  0  0  0  0  0  0  0  0  0  0  # atno 6908 bound_to 6896
  152.5217  134.3460  159.9286 H   0  0  0  0  0  0  0  0  0  0  0  0  # atno 6909 bound_to 6896
  146.1800  140.4172  142.8498 H   0  0  0  0  0  0  0  0  0  0  0  0  # atno 7974 bound_to 7965
  155.3715  140.0488  157.3045 H   0  0  0  0  0  0  0  0  0  0  0  0  # atno 8008 bound_to 7997
  154.5127  140.2197  155.9087 H   0  0  0  0  0  0  0  0  0  0  0  0  # atno 8009 bound_to 7997
  156.1602  140.3118  155.8799 H   0  0  0  0  0  0  0  0  0  0  0  0  # atno 8010 bound_to 7997
  139.5422  144.6741  151.4587 H   0  0  0  0  0  0  0  0  0  0  0  0  # atno 10167 bound_to 10162
  157.3527  131.0953  151.0986 H   0  0  0  0  0  0  0  0  0  0  0  0  # atno 10718 bound_to 10713
  154.3298  135.6179  153.5546 H   0  0  0  0  0  0  0  0  0  0  0  0  # atno 10763 bound_to 10752
  152.9812  135.5744  154.4975 H   0  0  0  0  0  0  0  0  0  0  0  0  # atno 10764 bound_to 10752
  154.4659  135.2857  155.1655 H   0  0  0  0  0  0  0  0  0  0  0  0  # atno 10765 bound_to 10752
  140.6209  134.4751  157.5223 H   0  0  0  0  0  0  0  0  0  0  0  0  # atno 11005 bound_to 11000
  144.8298  140.6689  143.6298 LP  0  0  0  0  0  0  0  0  0  0  0  0  # atno 17320 bound_to 7965
  145.4104  139.1581  143.4129 LP  0  0  0  0  0  0  0  0  0  0  0  0  # atno 17321 bound_to 7965
  140.6657  143.8403  150.6939 LP  0  0  0  0  0  0  0  0  0  0  0  0  # atno 17342 bound_to 10162
  140.1811  143.4114  152.1932 LP  0  0  0  0  0  0  0  0  0  0  0  0  # atno 17343 bound_to 10162
  157.2155  130.6457  149.5791 LP  0  0  0  0  0  0  0  0  0  0  0  0  # atno 17370 bound_to 10713
  155.9724  130.4646  150.6223 LP  0  0  0  0  0  0  0  0  0  0  0  0  # atno 17371 bound_to 10713
  139.9154  134.8258  156.1385 LP  0  0  0  0  0  0  0  0  0  0  0  0  # atno 17394 bound_to 11000
  141.0743  133.6782  156.2204 LP  0  0  0  0  0  0  0  0  0  0  0  0  # atno 17395 bound_to 11000

$$$$
