AV-unprocessed.smi:1920|AV-procd|sdf|7780|dock3
  -GOLD-   22720 9523D 1   1.00000     0.00000
 Structure written by MMmdl.
 37 38  0  0  0  0  0  0  0  0  2 V2000
  148.5776  138.9507  155.8859 C   0  0  0  0  0  0  0  0  0  0  0  0
  149.7996  139.8582  155.6905 C   0  0  1  0  0  0  0  0  0  0  0  0
  149.5613  140.8792  154.5578 C   0  0  0  0  0  0  0  0  0  0  0  0
  148.1399  141.1629  154.3313 N   0  0  0  0  0  0  0  0  0  0  0  0
  147.3547  142.0602  155.0089 C   0  0  0  0  0  0  0  0  0  0  0  0
  146.1027  141.9797  154.4559 C   0  0  0  0  0  0  0  0  0  0  0  0
  146.1787  141.0442  153.4592 N   0  3  0  0  0  0  0  0  0  0  0  0
  147.4189  140.5510  153.3827 C   0  0  0  0  0  0  0  0  0  0  0  0
  150.0931  140.5348  156.9534 N   0  0  0  0  0  0  0  0  0  0  0  0
  151.3072  140.6664  157.5114 C   0  0  0  0  0  0  0  0  0  0  0  0
  152.3374  140.2259  157.0007 O   0  0  0  0  0  0  0  0  0  0  0  0
  151.3597  141.4176  158.8472 C   0  0  0  0  0  0  0  0  0  0  0  0
  152.2979  142.6458  158.8508 C   0  0  1  0  0  0  0  0  0  0  0  0
  151.8484  143.7584  157.9346 C   0  0  0  0  0  0  0  0  0  0  0  0
  151.7208  144.9247  158.5625 C   0  0  0  0  0  0  0  0  0  0  0  0
  152.0566  144.8308  160.0244 C   0  0  0  0  0  0  0  0  0  0  0  0
  152.3856  143.3359  160.2367 C   0  0  0  0  0  0  0  0  0  0  0  0
  148.3455  138.4035  154.9718 H   0  0  0  0  0  0  0  0  0  0  0  0
  147.6935  139.5268  156.1619 H   0  0  0  0  0  0  0  0  0  0  0  0
  148.7556  138.2152  156.6713 H   0  0  0  0  0  0  0  0  0  0  0  0
  150.6354  139.2131  155.4139 H   0  0  0  0  0  0  0  0  0  0  0  0
  150.0385  141.8296  154.8004 H   0  0  0  0  0  0  0  0  0  0  0  0
  150.0050  140.5338  153.6223 H   0  0  0  0  0  0  0  0  0  0  0  0
  147.7338  142.6676  155.8180 H   0  0  0  0  0  0  0  0  0  0  0  0
  145.1884  142.5051  154.6904 H   0  0  0  0  0  0  0  0  0  0  0  0
  147.7655  139.7998  152.6955 H   0  0  0  0  0  0  0  0  0  0  0  0
  149.3052  140.9253  157.4504 H   0  0  0  0  0  0  0  0  0  0  0  0
  150.3504  141.7319  159.1185 H   0  0  0  0  0  0  0  0  0  0  0  0
  151.6789  140.7130  159.6157 H   0  0  0  0  0  0  0  0  0  0  0  0
  153.2984  142.3447  158.5367 H   0  0  0  0  0  0  0  0  0  0  0  0
  151.6761  143.6028  156.8807 H   0  0  0  0  0  0  0  0  0  0  0  0
  151.4231  145.8536  158.0987 H   0  0  0  0  0  0  0  0  0  0  0  0
  152.9106  145.4684  160.2546 H   0  0  0  0  0  0  0  0  0  0  0  0
  151.2088  145.1498  160.6315 H   0  0  0  0  0  0  0  0  0  0  0  0
  151.6782  142.8974  160.9421 H   0  0  0  0  0  0  0  0  0  0  0  0
  153.3792  143.2134  160.6694 H   0  0  0  0  0  0  0  0  0  0  0  0
  145.4086  140.7634  152.8651 H   0  0  0  0  0  0  0  0  0  0  0  0
  1  2  1  0  0  0  0
  1 18  1  0  0  0  0
  1 19  1  0  0  0  0
  1 20  1  0  0  0  0
  2  3  1  0  0  0  0
  2  9  1  0  0  0  0
  2 21  1  0  0  0  0
  3  4  1  0  0  0  0
  3 22  1  0  0  0  0
  3 23  1  0  0  0  0
  4  8  1  0  0  0  0
  4  5  1  0  0  0  0
  5  6  2  0  0  0  0
  5 24  1  0  0  0  0
  6  7  1  0  0  0  0
  6 25  1  0  0  0  0
  7  8  2  0  0  0  0
  7 37  1  0  0  0  0
  8 26  1  0  0  0  0
  9 10  1  0  0  0  0
  9 27  1  0  0  0  0
 10 11  2  0  0  0  0
 10 12  1  0  0  0  0
 12 13  1  0  0  0  0
 12 28  1  0  0  0  0
 12 29  1  0  0  0  0
 13 17  1  0  0  0  0
 13 14  1  0  0  0  0
 13 30  1  0  0  0  0
 14 15  2  0  0  0  0
 14 31  1  0  0  0  0
 15 16  1  0  0  0  0
 15 32  1  0  0  0  0
 16 17  1  0  0  0  0
 16 33  1  0  0  0  0
 16 34  1  0  0  0  0
 17 35  1  0  0  0  0
 17 36  1  0  0  0  0
M  CHG  1   7   1
M  END
> <s_m_source_file>
AV-unprocessed.smi

> <i_m_source_file_index>
1920

> <i_lp_mmshare_version>
43012

> <i_f3d_flags>
0

> <s_epik_input>
W2NIXTFuW2NIXVtjSF1uMVtDSDJdW0NAQEhdKFtDSDNdKVtOSF1DKD1PKVtDSDJdW0NAQEhdMltDSF09W0NIXVtDSDJdW0NIMl0y

> <s_epik_cmdline>
J2VwaWtfcHl0aG9uJywgJy1waCcsICc3LjAnLCAnLXRuJywgJzgnLCAnLW1hJywgJzIwMCcsICctbWV0YWxfYmluZGluZycsICctaW1hZScsICc8aW5maWxlLm1hZT4nLCAnLW9tYWUnLCAnPG91dGZpbGUubWFlPic=

> <r_lp_tautomer_probability>
1

> <r_epik_Ionization_Penalty>
0.24816

> <r_epik_Ionization_Penalty_Charging>
0

> <r_epik_Ionization_Penalty_Neutral>
0.24816

> <r_epik_State_Penalty>
0.2394

> <r_epik_Charging_Adjusted_Penalty>
0.2394

> <i_epik_Tot_Q>
1

> <i_epik_Tot_abs_Q>
1

> <r_epik_Metal_State_Penalty>
0.531457

> <b_epik_Metal_Only>
0

> <s_lp_Force_Field>
OPLS_2005

> <r_lp_Energy>
19.5873

> <b_lp_Chiralities_Consistent>
1

> <s_lp_Variant>
AV-unprocessed.smi:1920-4

> <Gold.Version>
5.8.1

> <Gold.Id.Protein>
6NUR|6NUR_protein|mol2

> <Gold.PLP.Fitness>
50.4388

> <Gold.PLP.PLP>
-37.8881

> <Gold.PLP.part.hbond>
-2.0000

> <Gold.PLP.part.metal>
0.0000

> <Gold.PLP.part.buried>
-0.5627

> <Gold.PLP.part.nonpolar>
-34.8620

> <Gold.PLP.part.repulsive>
0.0384

> <Gold.PLP.ligand.clash>
0.0000

> <Gold.PLP.ligand.torsion>
1.0467

> <Gold.PLP.Chemscore.Hbond>
3.0000

> <Gold.PLP.Chemscore.CHOScore>
1.8587

> <Gold.PLP.Chemscore.Metal>
0.0000

> <Gold.Chemscore.Hbonds>
donor molecule, donor type, donor heavy atom, donor atom, acceptor molecule, acceptor atom, score
      L1  H     7    37       P1 10175  2.00
      P1  H  7997  8009       L1    11  0.93
      L1  C     5    24       P1  8028  0.94
      L1  C     8    26       P1  7957  0.92

> <Gold.PLP.Chemscore.Internal.Correction>
0.0678

> <Gold.Rescore>
     Score         DG    S(hbond)    S(metal)    S(lipo)     H(rot)  DE(clash)    DE(int)     intcor
     16.67     -17.54       1.97        0.00      91.00       2.01       0.01       0.87       ----

> <Gold.Chemscore.Fitness>
16.6704

> <Gold.Chemscore.DG>
-17.5426

> <Gold.Chemscore.ZeroCoef>
-5.4800

> <Gold.Chemscore.Hbond>
1.9666

> <Gold.Chemscore.Metal>
0.0000

> <Gold.Chemscore.Lipo>
91.0040

> <Gold.Chemscore.Internal_Hbond>
0.0000

> <Gold.Chemscore.DEClash>
0.0071

> <Gold.Chemscore.DEInternal>
0.8651

> <Gold.Chemscore.Rot>
2.0130

> <Gold.Chemscore.Internal.Correction>
   9.000000E+99

> <Gold.Chemscore.Hbonds>
donor molecule, donor type, donor heavy atom, donor atom, acceptor molecule, acceptor atom, score
      L1  H     7    37       P1 10175  0.49
      P1  H  7997  8009       L1    11  0.86

> <Gold.Chemscore.Hbond.Weighted>
-6.5684

> <Gold.Chemscore.Metal.Weighted>
-0.0000

> <Gold.Chemscore.Lipo.Weighted>
-10.6475

> <Gold.Chemscore.Internal_Hbond.Weighted>
0.0000

> <Gold.Chemscore.DEClash.Weighted>
0.0071

> <Gold.Chemscore.DEInternal.Weighted>
0.8651

> <Gold.Chemscore.Rot.Weighted>
5.1533

> <Gold.Chemscore.Internal.Correction.Weighted>
   9.000000E+99

> <Gold.Protein.RotatedTorsions>
[ 6907 6896 6895 6894 ] final   82.18 input  -60.11 | X-H torsion
[ 7974 7965 7964 7962 ] final  103.39 input  175.53 | X-H torsion
[ 8008 7997 7996 7995 ] final -176.25 input   59.86 | X-H torsion
[ 10167 10162 10161 10158 ] final -147.36 input  -65.29 | X-H torsion
[ 10718 10713 10712 10709 ] final -149.51 input   66.30 | X-H torsion
[ 10763 10752 10751 10750 ] final   76.57 input  -60.55 | X-H torsion
[ 11005 11000 10999 10996 ] final -168.69 input  -57.11 | X-H torsion

> <Gold.Protein.ActiveResidues>
 VAL166  LYS551  ARG553  GLY616  TRP617  ASP618  TYR619  PRO620  LYS621  CYS622 
 ASP623  PHE694  ASN695  SER759  ASP760  ASP761  ALA762  ILE779  LEU786  VAL792 
 PHE793  MET794  SER795  GLU796  ALA797  LYS798  CYS799  TRP800  GLU811  SER814 

> <Gold.Protein.RotatedAtoms>
  152.5291  134.3090  159.9106 H   0  0  0  0  0  0  0  0  0  0  0  0  # atno 6907 bound_to 6896
  151.3040  133.4103  159.2649 H   0  0  0  0  0  0  0  0  0  0  0  0  # atno 6908 bound_to 6896
  151.0095  134.9402  159.8056 H   0  0  0  0  0  0  0  0  0  0  0  0  # atno 6909 bound_to 6896
  145.3466  139.2449  143.3581 H   0  0  0  0  0  0  0  0  0  0  0  0  # atno 7974 bound_to 7965
  155.9925  140.1204  157.0624 H   0  0  0  0  0  0  0  0  0  0  0  0  # atno 8008 bound_to 7997
  154.4216  140.1123  156.5654 H   0  0  0  0  0  0  0  0  0  0  0  0  # atno 8009 bound_to 7997
  155.6323  140.3473  155.4689 H   0  0  0  0  0  0  0  0  0  0  0  0  # atno 8010 bound_to 7997
  139.7629  143.8350  152.2610 H   0  0  0  0  0  0  0  0  0  0  0  0  # atno 10167 bound_to 10162
  156.4340  130.8089  151.2317 H   0  0  0  0  0  0  0  0  0  0  0  0  # atno 10718 bound_to 10713
  153.0735  135.4946  154.8354 H   0  0  0  0  0  0  0  0  0  0  0  0  # atno 10763 bound_to 10752
  154.7055  135.3010  154.9279 H   0  0  0  0  0  0  0  0  0  0  0  0  # atno 10764 bound_to 10752
  153.9989  135.6769  153.4811 H   0  0  0  0  0  0  0  0  0  0  0  0  # atno 10765 bound_to 10752
  140.5391  134.5540  157.5095 H   0  0  0  0  0  0  0  0  0  0  0  0  # atno 11005 bound_to 11000
  146.2985  140.4073  142.8712 LP  0  0  0  0  0  0  0  0  0  0  0  0  # atno 17320 bound_to 7965
  144.8750  140.7324  143.6023 LP  0  0  0  0  0  0  0  0  0  0  0  0  # atno 17321 bound_to 7965
  139.8362  144.7231  150.9388 LP  0  0  0  0  0  0  0  0  0  0  0  0  # atno 17342 bound_to 10162
  140.7808  143.4025  151.1125 LP  0  0  0  0  0  0  0  0  0  0  0  0  # atno 17343 bound_to 10162
  157.7507  131.0189  150.3646 LP  0  0  0  0  0  0  0  0  0  0  0  0  # atno 17370 bound_to 10713
  156.3989  130.3912  149.6974 LP  0  0  0  0  0  0  0  0  0  0  0  0  # atno 17371 bound_to 10713
  139.9513  134.7612  156.0442 LP  0  0  0  0  0  0  0  0  0  0  0  0  # atno 17394 bound_to 11000
  141.1237  133.6605  156.3281 LP  0  0  0  0  0  0  0  0  0  0  0  0  # atno 17395 bound_to 11000

$$$$
