AV-unprocessed.smi:798|AV-procd|sdf|3773|dock6
  -GOLD-   22720 1203D 1   1.00000     0.00000
 Structure written by MMmdl.
 34 36  0  0  0  0  0  0  0  0  1 V2000
  150.5255  136.1014  158.8017 O   0  0  0  0  0  0  0  0  0  0  0  0
  149.5901  136.7497  158.3319 C   0  0  0  0  0  0  0  0  0  0  0  0
  148.4038  136.9512  158.9317 N   0  0  0  0  0  0  0  0  0  0  0  0
  147.9648  136.4769  160.1962 C   0  0  0  0  0  0  0  0  0  0  0  0
  147.3933  137.2570  161.1270 N   0  0  0  0  0  0  0  0  0  0  0  0
  147.0608  136.5428  162.2709 N   0  0  0  0  0  0  0  0  0  0  0  0
  147.3942  135.2539  162.1580 C   0  0  0  0  0  0  0  0  0  0  0  0
  148.1474  134.7866  160.6430 S   0  0  0  0  0  0  0  0  0  0  0  0
  149.6316  137.3440  157.1308 N   0  0  0  0  0  0  0  0  0  0  0  0
  150.7752  137.3280  156.2162 C   0  0  2  0  0  0  0  0  0  0  0  0
  151.9314  138.2367  156.7029 C   0  0  2  0  0  0  0  0  0  0  0  0
  151.4274  139.6544  157.0489 C   0  0  0  0  0  0  0  0  0  0  0  0
  151.0837  140.2351  155.6656 C   0  0  0  0  0  0  0  0  0  0  0  0
  151.4646  139.0886  154.7054 C   0  0  1  0  0  0  0  0  0  0  0  0
  152.6875  138.5092  155.4065 C   0  0  0  0  0  0  0  0  0  0  0  0
  150.4779  137.8986  154.7985 C   0  0  2  0  0  0  0  0  0  0  0  0
  149.0055  138.2128  154.4481 C   0  0  0  0  0  0  0  0  0  0  0  0
  148.8935  138.5969  153.0942 O   0  0  0  0  0  0  0  0  0  0  0  0
  147.7330  137.5065  158.4216 H   0  0  0  0  0  0  0  0  0  0  0  0
  147.1955  134.5736  162.9728 H   0  0  0  0  0  0  0  0  0  0  0  0
  148.8156  137.8522  156.8228 H   0  0  0  0  0  0  0  0  0  0  0  0
  151.1532  136.3080  156.1203 H   0  0  0  0  0  0  0  0  0  0  0  0
  152.5325  137.7869  157.4937 H   0  0  0  0  0  0  0  0  0  0  0  0
  150.5794  139.6670  157.7333 H   0  0  0  0  0  0  0  0  0  0  0  0
  152.2238  140.2370  157.5136 H   0  0  0  0  0  0  0  0  0  0  0  0
  150.0413  140.5395  155.5833 H   0  0  0  0  0  0  0  0  0  0  0  0
  151.6933  141.1174  155.4661 H   0  0  0  0  0  0  0  0  0  0  0  0
  151.6475  139.4215  153.6832 H   0  0  0  0  0  0  0  0  0  0  0  0
  153.5030  139.2258  155.5209 H   0  0  0  0  0  0  0  0  0  0  0  0
  153.0741  137.6053  154.9321 H   0  0  0  0  0  0  0  0  0  0  0  0
  150.8108  137.1483  154.0786 H   0  0  0  0  0  0  0  0  0  0  0  0
  148.3893  137.3255  154.5956 H   0  0  0  0  0  0  0  0  0  0  0  0
  148.5877  138.9955  155.0800 H   0  0  0  0  0  0  0  0  0  0  0  0
  148.7684  137.8199  152.5709 H   0  0  0  0  0  0  0  0  0  0  0  0
  1  2  2  0  0  0  0
  2  3  1  0  0  0  0
  2  9  1  0  0  0  0
  3  4  1  0  0  0  0
  3 19  1  0  0  0  0
  4  8  1  0  0  0  0
  4  5  2  0  0  0  0
  5  6  1  0  0  0  0
  6  7  2  0  0  0  0
  7  8  1  0  0  0  0
  7 20  1  0  0  0  0
  9 10  1  0  0  0  0
  9 21  1  0  0  0  0
 10 16  1  0  0  0  0
 10 11  1  0  0  0  0
 10 22  1  0  0  0  0
 11 15  1  0  0  0  0
 11 12  1  0  0  0  0
 11 23  1  0  0  0  0
 12 13  1  0  0  0  0
 12 24  1  0  0  0  0
 12 25  1  0  0  0  0
 13 14  1  0  0  0  0
 13 26  1  0  0  0  0
 13 27  1  0  0  0  0
 14 15  1  0  0  0  0
 14 16  1  0  0  0  0
 14 28  1  0  0  0  0
 15 29  1  0  0  0  0
 15 30  1  0  0  0  0
 16 17  1  0  0  0  0
 16 31  1  0  0  0  0
 17 18  1  0  0  0  0
 17 32  1  0  0  0  0
 17 33  1  0  0  0  0
 18 34  1  0  0  0  0
M  END
> <s_m_source_file>
AV-unprocessed.smi

> <i_m_source_file_index>
798

> <i_lp_mmshare_version>
43012

> <i_f3d_flags>
0

> <s_epik_input>
W0NIMl0xW0NIMl1bQ0BASF0oW0NIMl0yKVtDQEBIXShbQ0gyXVtPSF0pW0NAQEhdKFtDQEhdMTIpW05IXUMoPU8pW05IXWMzbm5bY0hdczM=

> <s_epik_cmdline>
J2VwaWtfcHl0aG9uJywgJy1waCcsICc3LjAnLCAnLXRuJywgJzgnLCAnLW1hJywgJzIwMCcsICctbWV0YWxfYmluZGluZycsICctaW1hZScsICc8aW5maWxlLm1hZT4nLCAnLW9tYWUnLCAnPG91dGZpbGUubWFlPic=

> <r_lp_tautomer_probability>
1

> <r_epik_Ionization_Penalty>
0.000329046

> <r_epik_Ionization_Penalty_Charging>
0

> <r_epik_Ionization_Penalty_Neutral>
0.000329046

> <r_epik_State_Penalty>
-0

> <r_epik_Charging_Adjusted_Penalty>
0

> <i_epik_Tot_Q>
0

> <i_epik_Tot_abs_Q>
0

> <r_epik_Metal_State_Penalty>
0.173433

> <b_epik_Metal_Only>
0

> <s_lp_Force_Field>
OPLS_2005

> <r_lp_Energy>
50.5105

> <b_lp_Chiralities_Consistent>
1

> <s_lp_Variant>
AV-unprocessed.smi:798-5

> <Gold.Version>
5.8.1

> <Gold.Id.Protein>
6NUR|6NUR_protein|mol2

> <Gold.PLP.Fitness>
39.4589

> <Gold.PLP.PLP>
-29.2089

> <Gold.PLP.part.hbond>
-4.4629

> <Gold.PLP.part.metal>
0.0000

> <Gold.PLP.part.buried>
-4.1970

> <Gold.PLP.part.nonpolar>
-20.6894

> <Gold.PLP.part.repulsive>
0.1661

> <Gold.PLP.ligand.clash>
0.0000

> <Gold.PLP.ligand.torsion>
0.5553

> <Gold.PLP.Chemscore.Hbond>
3.7840

> <Gold.PLP.Chemscore.CHOScore>
0.0000

> <Gold.PLP.Chemscore.Metal>
0.0000

> <Gold.Chemscore.Hbonds>
donor molecule, donor type, donor heavy atom, donor atom, acceptor molecule, acceptor atom, score
      L1  H    18    34       P1  7948  1.00
      P1  H  6896  6909       L1     1  0.90
      P1  H  6931  6943       L1     5  0.68
      P1  H  6934  6947       L1     5  1.00

> <Gold.PLP.Chemscore.Internal.Correction>
0.0087

> <Gold.Rescore>
     Score         DG    S(hbond)    S(metal)    S(lipo)     H(rot)  DE(clash)    DE(int)     intcor
     16.95     -17.39       2.83        0.00      63.62       1.94       0.01       0.42       ----

> <Gold.Chemscore.Fitness>
16.9541

> <Gold.Chemscore.DG>
-17.3866

> <Gold.Chemscore.ZeroCoef>
-5.4800

> <Gold.Chemscore.Hbond>
2.8263

> <Gold.Chemscore.Metal>
0.0000

> <Gold.Chemscore.Lipo>
63.6226

> <Gold.Chemscore.Internal_Hbond>
0.0000

> <Gold.Chemscore.DEClash>
0.0095

> <Gold.Chemscore.DEInternal>
0.4231

> <Gold.Chemscore.Rot>
1.9442

> <Gold.Chemscore.Internal.Correction>
   9.000000E+99

> <Gold.Chemscore.Hbonds>
donor molecule, donor type, donor heavy atom, donor atom, acceptor molecule, acceptor atom, score
      L1  H    18    34       P1  7948  1.00
      P1  H  6896  6909       L1     1  0.85
      P1  H  6931  6943       L1     5  0.04
      P1  H  6934  6947       L1     5  0.94

> <Gold.Chemscore.Hbond.Weighted>
-9.4398

> <Gold.Chemscore.Metal.Weighted>
-0.0000

> <Gold.Chemscore.Lipo.Weighted>
-7.4438

> <Gold.Chemscore.Internal_Hbond.Weighted>
0.0000

> <Gold.Chemscore.DEClash.Weighted>
0.0095

> <Gold.Chemscore.DEInternal.Weighted>
0.4231

> <Gold.Chemscore.Rot.Weighted>
4.9771

> <Gold.Chemscore.Internal.Correction.Weighted>
   9.000000E+99

> <Gold.Protein.RotatedTorsions>
[ 6907 6896 6895 6894 ] final   65.35 input  -60.11 | X-H torsion
[ 7974 7965 7964 7962 ] final -115.65 input  175.53 | X-H torsion
[ 8008 7997 7996 7995 ] final   33.65 input   59.86 | X-H torsion
[ 10167 10162 10161 10158 ] final   72.90 input  -65.29 | X-H torsion
[ 10718 10713 10712 10709 ] final   14.11 input   66.30 | X-H torsion
[ 10763 10752 10751 10750 ] final -155.07 input  -60.55 | X-H torsion
[ 11005 11000 10999 10996 ] final -133.84 input  -57.11 | X-H torsion

> <Gold.Protein.ActiveResidues>
 VAL166  LYS551  ARG553  GLY616  TRP617  ASP618  TYR619  PRO620  LYS621  CYS622 
 ASP623  PHE694  ASN695  SER759  ASP760  ASP761  ALA762  ILE779  LEU786  VAL792 
 PHE793  MET794  SER795  GLU796  ALA797  LYS798  CYS799  TRP800  GLU811  SER814 

> <Gold.Protein.RotatedAtoms>
  152.4401  134.5608  159.9893 H   0  0  0  0  0  0  0  0  0  0  0  0  # atno 6907 bound_to 6896
  151.5707  133.3384  159.2997 H   0  0  0  0  0  0  0  0  0  0  0  0  # atno 6908 bound_to 6896
  150.8306  134.7591  159.6914 H   0  0  0  0  0  0  0  0  0  0  0  0  # atno 6909 bound_to 6896
  145.1059  140.8581  143.3898 H   0  0  0  0  0  0  0  0  0  0  0  0  # atno 7974 bound_to 7965
  155.1421  140.3267  155.4450 H   0  0  0  0  0  0  0  0  0  0  0  0  # atno 8008 bound_to 7997
  156.2601  140.1992  156.6486 H   0  0  0  0  0  0  0  0  0  0  0  0  # atno 8009 bound_to 7997
  154.6535  140.0555  156.9968 H   0  0  0  0  0  0  0  0  0  0  0  0  # atno 8010 bound_to 7997
  140.0302  144.5471  150.7512 H   0  0  0  0  0  0  0  0  0  0  0  0  # atno 10167 bound_to 10162
  157.0343  130.6205  149.5740 H   0  0  0  0  0  0  0  0  0  0  0  0  # atno 10718 bound_to 10713
  154.7813  135.3176  154.7983 H   0  0  0  0  0  0  0  0  0  0  0  0  # atno 10763 bound_to 10752
  153.8693  135.6846  153.4780 H   0  0  0  0  0  0  0  0  0  0  0  0  # atno 10764 bound_to 10752
  153.1451  135.4723  154.9491 H   0  0  0  0  0  0  0  0  0  0  0  0  # atno 10765 bound_to 10752
  140.9045  134.1648  157.4436 H   0  0  0  0  0  0  0  0  0  0  0  0  # atno 11005 bound_to 11000
  145.0902  139.2895  143.5739 LP  0  0  0  0  0  0  0  0  0  0  0  0  # atno 17320 bound_to 7965
  146.3528  140.0437  142.8641 LP  0  0  0  0  0  0  0  0  0  0  0  0  # atno 17321 bound_to 7965
  140.7305  143.2684  151.3969 LP  0  0  0  0  0  0  0  0  0  0  0  0  # atno 17342 bound_to 10162
  139.6081  144.1155  152.2270 LP  0  0  0  0  0  0  0  0  0  0  0  0  # atno 17343 bound_to 10162
  156.0059  130.5145  150.7827 LP  0  0  0  0  0  0  0  0  0  0  0  0  # atno 17370 bound_to 10713
  157.5153  131.0928  151.0147 LP  0  0  0  0  0  0  0  0  0  0  0  0  # atno 17371 bound_to 10713
  139.8747  134.9911  156.5534 LP  0  0  0  0  0  0  0  0  0  0  0  0  # atno 17394 bound_to 11000
  140.8189  133.8370  155.8877 LP  0  0  0  0  0  0  0  0  0  0  0  0  # atno 17395 bound_to 11000

$$$$
