AV-unprocessed.smi:1432|AV-procd|sdf|5832|dock10
  -GOLD-   22720 5493D 1   1.00000     0.00000
 Structure written by MMmdl.
 47 48  0  0  0  0  0  0  0  0  2 V2000
  145.5543  137.6775  154.9170 C   0  0  0  0  0  0  0  0  0  0  0  0
  146.7372  137.1623  154.0683 C   0  0  1  0  0  0  0  0  0  0  0  0
  146.3229  136.0245  153.1114 C   0  0  0  0  0  0  0  0  0  0  0  0
  145.4907  136.5390  151.9277 C   0  0  0  0  0  0  0  0  0  0  0  0
  146.2430  137.6636  151.2060 C   0  0  0  0  0  0  0  0  0  0  0  0
  146.6425  138.7818  152.1828 C   0  0  0  0  0  0  0  0  0  0  0  0
  147.4430  138.2431  153.3162 N   0  3  1  0  0  0  0  0  0  0  0  0
  148.0232  139.2964  154.1880 C   0  0  0  0  0  0  0  0  0  0  0  0
  148.7082  138.7059  155.4355 C   0  0  0  0  0  0  0  0  0  0  0  0
  150.0208  139.3009  155.6586 N   0  0  0  0  0  0  0  0  0  0  0  0
  150.2330  140.5163  156.1861 C   0  0  0  0  0  0  0  0  0  0  0  0
  149.3177  141.2616  156.5391 O   0  0  0  0  0  0  0  0  0  0  0  0
  151.7024  140.9422  156.3192 C   0  0  0  0  0  0  0  0  0  0  0  0
  152.0951  141.2740  157.6991 N   0  0  0  0  0  0  0  0  0  0  0  0
  151.5248  142.4318  158.2634 C   0  0  0  0  0  0  0  0  0  0  0  0
  151.7797  142.8361  159.5222 C   0  0  0  0  0  0  0  0  0  0  0  0
  151.1758  144.1145  160.0821 C   0  0  0  0  0  0  0  0  0  0  0  0
  151.5835  145.1602  159.3642 F   0  0  0  0  0  0  0  0  0  0  0  0
  149.8437  144.0778  160.0475 F   0  0  0  0  0  0  0  0  0  0  0  0
  151.5573  144.3065  161.3453 F   0  0  0  0  0  0  0  0  0  0  0  0
  152.7138  142.0292  160.2826 C   0  0  0  0  0  0  0  0  0  0  0  0
  153.2720  140.9213  159.7564 C   0  0  0  0  0  0  0  0  0  0  0  0
  152.9638  140.4799  158.3940 C   0  0  0  0  0  0  0  0  0  0  0  0
  153.4534  139.4599  157.9086 O   0  0  0  0  0  0  0  0  0  0  0  0
  145.0880  136.8569  155.4626 H   0  0  0  0  0  0  0  0  0  0  0  0
  144.7787  138.1435  154.3102 H   0  0  0  0  0  0  0  0  0  0  0  0
  145.8760  138.4076  155.6596 H   0  0  0  0  0  0  0  0  0  0  0  0
  147.4617  136.7344  154.7630 H   0  0  0  0  0  0  0  0  0  0  0  0
  147.2197  135.5362  152.7273 H   0  0  0  0  0  0  0  0  0  0  0  0
  145.7702  135.2557  153.6524 H   0  0  0  0  0  0  0  0  0  0  0  0
  145.2811  135.7234  151.2350 H   0  0  0  0  0  0  0  0  0  0  0  0
  144.5240  136.9027  152.2771 H   0  0  0  0  0  0  0  0  0  0  0  0
  147.1372  137.2582  150.7306 H   0  0  0  0  0  0  0  0  0  0  0  0
  145.6252  138.0708  150.4051 H   0  0  0  0  0  0  0  0  0  0  0  0
  147.2187  139.5294  151.6390 H   0  0  0  0  0  0  0  0  0  0  0  0
  145.7552  139.2920  152.5586 H   0  0  0  0  0  0  0  0  0  0  0  0
  148.7215  139.9111  153.6179 H   0  0  0  0  0  0  0  0  0  0  0  0
  147.2243  139.9622  154.5170 H   0  0  0  0  0  0  0  0  0  0  0  0
  148.0825  138.8479  156.3187 H   0  0  0  0  0  0  0  0  0  0  0  0
  148.8522  137.6315  155.3271 H   0  0  0  0  0  0  0  0  0  0  0  0
  150.8257  138.7490  155.3976 H   0  0  0  0  0  0  0  0  0  0  0  0
  152.3363  140.1490  155.9185 H   0  0  0  0  0  0  0  0  0  0  0  0
  151.8744  141.7990  155.6659 H   0  0  0  0  0  0  0  0  0  0  0  0
  150.8571  142.9706  157.6067 H   0  0  0  0  0  0  0  0  0  0  0  0
  152.9682  142.3132  161.2931 H   0  0  0  0  0  0  0  0  0  0  0  0
  153.9618  140.3423  160.3528 H   0  0  0  0  0  0  0  0  0  0  0  0
  148.2376  137.7831  152.8952 H   0  0  0  0  0  0  0  0  0  0  0  0
  1  2  1  0  0  0  0
  1 25  1  0  0  0  0
  1 26  1  0  0  0  0
  1 27  1  0  0  0  0
  2  7  1  0  0  0  0
  2  3  1  0  0  0  0
  2 28  1  0  0  0  0
  3  4  1  0  0  0  0
  3 29  1  0  0  0  0
  3 30  1  0  0  0  0
  4  5  1  0  0  0  0
  4 31  1  0  0  0  0
  4 32  1  0  0  0  0
  5  6  1  0  0  0  0
  5 33  1  0  0  0  0
  5 34  1  0  0  0  0
  6  7  1  0  0  0  0
  6 35  1  0  0  0  0
  6 36  1  0  0  0  0
  7  8  1  0  0  0  0
  7 47  1  0  0  0  0
  8  9  1  0  0  0  0
  8 37  1  0  0  0  0
  8 38  1  0  0  0  0
  9 10  1  0  0  0  0
  9 39  1  0  0  0  0
  9 40  1  0  0  0  0
 10 11  1  0  0  0  0
 10 41  1  0  0  0  0
 11 12  2  0  0  0  0
 11 13  1  0  0  0  0
 13 14  1  0  0  0  0
 13 42  1  0  0  0  0
 13 43  1  0  0  0  0
 14 23  1  0  0  0  0
 14 15  1  0  0  0  0
 15 16  2  0  0  0  0
 15 44  1  0  0  0  0
 16 17  1  0  0  0  0
 16 21  1  0  0  0  0
 17 18  1  0  0  0  0
 17 19  1  0  0  0  0
 17 20  1  0  0  0  0
 21 22  2  0  0  0  0
 21 45  1  0  0  0  0
 22 23  1  0  0  0  0
 22 46  1  0  0  0  0
 23 24  2  0  0  0  0
M  CHG  1   7   1
M  END
> <s_m_source_file>
AV-unprocessed.smi

> <i_m_source_file_index>
1432

> <i_lp_mmshare_version>
43012

> <i_f3d_flags>
0

> <s_epik_input>
W0NIM11bQ0BASF0xW0NIMl1bQ0gyXVtDSDJdW0NIMl1OMVtDSDJdW0NIMl1bTkhdQyg9TylbQ0gyXW4yW2NIXWMoQyhGKShGKUYpW2NIXVtjSF1jMj1P

> <s_epik_cmdline>
J2VwaWtfcHl0aG9uJywgJy1waCcsICc3LjAnLCAnLXRuJywgJzgnLCAnLW1hJywgJzIwMCcsICctbWV0YWxfYmluZGluZycsICctaW1hZScsICc8aW5maWxlLm1hZT4nLCAnLW9tYWUnLCAnPG91dGZpbGUubWFlPic=

> <r_lp_tautomer_probability>
1

> <r_epik_Ionization_Penalty>
0.00237222

> <r_epik_Ionization_Penalty_Charging>
0.00237213

> <r_epik_Ionization_Penalty_Neutral>
8.2065e-08

> <r_epik_State_Penalty>
0.00163922

> <r_epik_Charging_Adjusted_Penalty>
0.00401135

> <i_epik_Tot_Q>
1

> <i_epik_Tot_abs_Q>
1

> <r_epik_Metal_State_Penalty>
-0

> <b_epik_Metal_Only>
0

> <s_lp_Force_Field>
OPLS_2005

> <r_lp_Energy>
30.8691

> <b_lp_Chiralities_Consistent>
1

> <s_lp_Variant>
AV-unprocessed.smi:1432-2

> <Gold.Version>
5.8.1

> <Gold.Id.Protein>
6NUR|6NUR_protein|mol2

> <Gold.PLP.Fitness>
48.9274

> <Gold.PLP.PLP>
-42.6254

> <Gold.PLP.part.hbond>
-2.0000

> <Gold.PLP.part.metal>
0.0000

> <Gold.PLP.part.buried>
-0.4609

> <Gold.PLP.part.nonpolar>
-38.6051

> <Gold.PLP.part.repulsive>
0.1515

> <Gold.PLP.ligand.clash>
0.0000

> <Gold.PLP.ligand.torsion>
0.6349

> <Gold.PLP.Chemscore.Hbond>
2.4956

> <Gold.PLP.Chemscore.CHOScore>
0.0000

> <Gold.PLP.Chemscore.Metal>
0.0000

> <Gold.Chemscore.Hbonds>
donor molecule, donor type, donor heavy atom, donor atom, acceptor molecule, acceptor atom, score
      L1  H     7    47       P1  7948  1.98
      P1  H  7997  8009       L1    24  0.99

> <Gold.PLP.Chemscore.Internal.Correction>
0.0849

> <Gold.Rescore>
     Score         DG    S(hbond)    S(metal)    S(lipo)     H(rot)  DE(clash)    DE(int)     intcor
     12.14     -13.53       0.99        0.00      86.01       2.08       0.50       0.89       ----

> <Gold.Chemscore.Fitness>
12.1375

> <Gold.Chemscore.DG>
-13.5312

> <Gold.Chemscore.ZeroCoef>
-5.4800

> <Gold.Chemscore.Hbond>
0.9890

> <Gold.Chemscore.Metal>
0.0000

> <Gold.Chemscore.Lipo>
86.0071

> <Gold.Chemscore.Internal_Hbond>
0.0000

> <Gold.Chemscore.DEClash>
0.5002

> <Gold.Chemscore.DEInternal>
0.8934

> <Gold.Chemscore.Rot>
2.0762

> <Gold.Chemscore.Internal.Correction>
   9.000000E+99

> <Gold.Chemscore.Hbonds>
donor molecule, donor type, donor heavy atom, donor atom, acceptor molecule, acceptor atom, score
      L1  H     7    47       P1  7948  0.91
      P1  H  7997  8009       L1    24  0.37

> <Gold.Chemscore.Hbond.Weighted>
-3.3033

> <Gold.Chemscore.Metal.Weighted>
-0.0000

> <Gold.Chemscore.Lipo.Weighted>
-10.0628

> <Gold.Chemscore.Internal_Hbond.Weighted>
0.0000

> <Gold.Chemscore.DEClash.Weighted>
0.5002

> <Gold.Chemscore.DEInternal.Weighted>
0.8934

> <Gold.Chemscore.Rot.Weighted>
5.3150

> <Gold.Chemscore.Internal.Correction.Weighted>
   9.000000E+99

> <Gold.Protein.RotatedTorsions>
[ 6907 6896 6895 6894 ] final  -96.96 input  -60.11 | X-H torsion
[ 7974 7965 7964 7962 ] final  -32.07 input  175.53 | X-H torsion
[ 8008 7997 7996 7995 ] final  136.16 input   59.86 | X-H torsion
[ 10167 10162 10161 10158 ] final  -22.95 input  -65.29 | X-H torsion
[ 10718 10713 10712 10709 ] final -111.32 input   66.30 | X-H torsion
[ 10763 10752 10751 10750 ] final -135.74 input  -60.55 | X-H torsion
[ 11005 11000 10999 10996 ] final -173.00 input  -57.11 | X-H torsion

> <Gold.Protein.ActiveResidues>
 VAL166  LYS551  ARG553  GLY616  TRP617  ASP618  TYR619  PRO620  LYS621  CYS622 
 ASP623  PHE694  ASN695  SER759  ASP760  ASP761  ALA762  ILE779  LEU786  VAL792 
 PHE793  MET794  SER795  GLU796  ALA797  LYS798  CYS799  TRP800  GLU811  SER814 

> <Gold.Protein.RotatedAtoms>
  150.7003  134.1422  159.4108 H   0  0  0  0  0  0  0  0  0  0  0  0  # atno 6907 bound_to 6896
  151.9406  135.0213  160.0545 H   0  0  0  0  0  0  0  0  0  0  0  0  # atno 6908 bound_to 6896
  152.2097  133.4867  159.5140 H   0  0  0  0  0  0  0  0  0  0  0  0  # atno 6909 bound_to 6896
  146.1019  140.5746  142.8817 H   0  0  0  0  0  0  0  0  0  0  0  0  # atno 7974 bound_to 7965
  156.3004  140.2452  156.3700 H   0  0  0  0  0  0  0  0  0  0  0  0  # atno 8008 bound_to 7997
  154.8798  140.0413  157.1795 H   0  0  0  0  0  0  0  0  0  0  0  0  # atno 8009 bound_to 7997
  154.8708  140.2935  155.5486 H   0  0  0  0  0  0  0  0  0  0  0  0  # atno 8010 bound_to 7997
  140.7287  143.4488  151.0547 H   0  0  0  0  0  0  0  0  0  0  0  0  # atno 10167 bound_to 10162
  156.0640  130.5861  150.8357 H   0  0  0  0  0  0  0  0  0  0  0  0  # atno 10718 bound_to 10713
  154.8697  135.3694  154.4947 H   0  0  0  0  0  0  0  0  0  0  0  0  # atno 10763 bound_to 10752
  153.5591  135.7023  153.5560 H   0  0  0  0  0  0  0  0  0  0  0  0  # atno 10764 bound_to 10752
  153.3644  135.4038  155.1706 H   0  0  0  0  0  0  0  0  0  0  0  0  # atno 10765 bound_to 10752
  140.4906  134.5988  157.4953 H   0  0  0  0  0  0  0  0  0  0  0  0  # atno 11005 bound_to 11000
  144.7439  140.5016  143.6849 LP  0  0  0  0  0  0  0  0  0  0  0  0  # atno 17320 bound_to 7965
  145.5838  139.1490  143.3220 LP  0  0  0  0  0  0  0  0  0  0  0  0  # atno 17321 bound_to 7965
  139.8162  143.7882  152.3174 LP  0  0  0  0  0  0  0  0  0  0  0  0  # atno 17342 bound_to 10162
  139.7949  144.7396  150.9904 LP  0  0  0  0  0  0  0  0  0  0  0  0  # atno 17343 bound_to 10162
  157.5669  131.0946  150.9476 LP  0  0  0  0  0  0  0  0  0  0  0  0  # atno 17370 bound_to 10713
  156.9700  130.5487  149.5290 LP  0  0  0  0  0  0  0  0  0  0  0  0  # atno 17371 bound_to 10713
  139.9771  134.7197  155.9929 LP  0  0  0  0  0  0  0  0  0  0  0  0  # atno 17394 bound_to 11000
  141.1486  133.6552  156.3942 LP  0  0  0  0  0  0  0  0  0  0  0  0  # atno 17395 bound_to 11000

$$$$
