AV-unprocessed.smi:1626|AV-procd|sdf|6514|dock10
  -GOLD-   22720 7183D 1   1.00000     0.00000
 Structure written by MMmdl.
 47 49  0  0  0  0  0  0  0  0  1 V2000
  153.0764  142.6526  161.7601 C   0  0  0  0  0  0  0  0  0  0  0  0
  152.5405  142.3564  160.3704 C   0  0  0  0  0  0  0  0  0  0  0  0
  152.9302  141.1612  159.7241 C   0  0  0  0  0  0  0  0  0  0  0  0
  152.4501  140.8455  158.4340 C   0  0  0  0  0  0  0  0  0  0  0  0
  152.6930  139.7474  157.6260 N   0  0  0  0  0  0  0  0  0  0  0  0
  151.9556  140.0331  156.5563 C   0  0  0  0  0  0  0  0  0  0  0  0
  151.2637  141.1886  156.5764 N   0  0  0  0  0  0  0  0  0  0  0  0
  150.3884  141.7134  155.5453 C   0  0  0  0  0  0  0  0  0  0  0  0
  149.5675  140.6010  154.8633 C   0  0  2  0  0  0  0  0  0  0  0  0
  150.3937  139.9134  153.9456 O   0  0  0  0  0  0  0  0  0  0  0  0
  148.3477  141.1431  154.0919 C   0  0  0  0  0  0  0  0  0  0  0  0
  147.3997  141.9331  154.8806 N   0  0  0  0  0  0  0  0  0  0  0  0
  146.8034  141.1630  155.9780 C   0  0  0  0  0  0  0  0  0  0  0  0
  145.8420  142.0023  156.8372 C   0  0  0  0  0  0  0  0  0  0  0  0
  144.7356  142.6122  155.9626 C   0  0  0  0  0  0  0  0  0  0  0  0
  143.9320  143.4806  156.7335 O   0  0  0  0  0  0  0  0  0  0  0  0
  145.3630  143.3793  154.7880 C   0  0  0  0  0  0  0  0  0  0  0  0
  146.3426  142.4729  154.0233 C   0  0  0  0  0  0  0  0  0  0  0  0
  151.5633  141.7663  157.8041 C   0  0  0  0  0  0  0  0  0  0  0  0
  151.1716  142.9604  158.4339 C   0  0  0  0  0  0  0  0  0  0  0  0
  151.6613  143.2609  159.7221 C   0  0  0  0  0  0  0  0  0  0  0  0
  151.2322  144.5537  160.3929 C   0  0  0  0  0  0  0  0  0  0  0  0
  153.6593  141.8168  162.1483 H   0  0  0  0  0  0  0  0  0  0  0  0
  152.2582  142.8387  162.4564 H   0  0  0  0  0  0  0  0  0  0  0  0
  153.7213  143.5316  161.7394 H   0  0  0  0  0  0  0  0  0  0  0  0
  153.6020  140.4736  160.2163 H   0  0  0  0  0  0  0  0  0  0  0  0
  151.9108  139.3615  155.7113 H   0  0  0  0  0  0  0  0  0  0  0  0
  149.7256  142.4431  156.0122 H   0  0  0  0  0  0  0  0  0  0  0  0
  150.9865  142.2596  154.8144 H   0  0  0  0  0  0  0  0  0  0  0  0
  149.2506  139.8685  155.6049 H   0  0  0  0  0  0  0  0  0  0  0  0
  149.9290  139.8304  153.1272 H   0  0  0  0  0  0  0  0  0  0  0  0
  148.7197  141.7541  153.2681 H   0  0  0  0  0  0  0  0  0  0  0  0
  147.8175  140.3103  153.6269 H   0  0  0  0  0  0  0  0  0  0  0  0
  146.2738  140.2970  155.5781 H   0  0  0  0  0  0  0  0  0  0  0  0
  147.5806  140.7743  156.6340 H   0  0  0  0  0  0  0  0  0  0  0  0
  145.4058  141.3837  157.6221 H   0  0  0  0  0  0  0  0  0  0  0  0
  146.4030  142.7929  157.3379 H   0  0  0  0  0  0  0  0  0  0  0  0
  144.0995  141.8150  155.5755 H   0  0  0  0  0  0  0  0  0  0  0  0
  143.1393  143.6624  156.2521 H   0  0  0  0  0  0  0  0  0  0  0  0
  144.5856  143.7420  154.1143 H   0  0  0  0  0  0  0  0  0  0  0  0
  145.8952  144.2582  155.1553 H   0  0  0  0  0  0  0  0  0  0  0  0
  146.7881  143.0485  153.2109 H   0  0  0  0  0  0  0  0  0  0  0  0
  145.7919  141.6552  153.5553 H   0  0  0  0  0  0  0  0  0  0  0  0
  150.4989  143.6379  157.9287 H   0  0  0  0  0  0  0  0  0  0  0  0
  150.6339  145.1702  159.7214 H   0  0  0  0  0  0  0  0  0  0  0  0
  152.1024  145.1376  160.6937 H   0  0  0  0  0  0  0  0  0  0  0  0
  150.6328  144.3419  161.2786 H   0  0  0  0  0  0  0  0  0  0  0  0
  1  2  1  0  0  0  0
  1 23  1  0  0  0  0
  1 24  1  0  0  0  0
  1 25  1  0  0  0  0
  2 21  1  0  0  0  0
  2  3  2  0  0  0  0
  3  4  1  0  0  0  0
  3 26  1  0  0  0  0
  4 19  2  0  0  0  0
  4  5  1  0  0  0  0
  5  6  2  0  0  0  0
  6  7  1  0  0  0  0
  6 27  1  0  0  0  0
  7  8  1  0  0  0  0
  7 19  1  0  0  0  0
  8  9  1  0  0  0  0
  8 28  1  0  0  0  0
  8 29  1  0  0  0  0
  9 10  1  0  0  0  0
  9 11  1  0  0  0  0
  9 30  1  0  0  0  0
 10 31  1  0  0  0  0
 11 12  1  0  0  0  0
 11 32  1  0  0  0  0
 11 33  1  0  0  0  0
 12 18  1  0  0  0  0
 12 13  1  0  0  0  0
 13 14  1  0  0  0  0
 13 34  1  0  0  0  0
 13 35  1  0  0  0  0
 14 15  1  0  0  0  0
 14 36  1  0  0  0  0
 14 37  1  0  0  0  0
 15 16  1  0  0  0  0
 15 17  1  0  0  0  0
 15 38  1  0  0  0  0
 16 39  1  0  0  0  0
 17 18  1  0  0  0  0
 17 40  1  0  0  0  0
 17 41  1  0  0  0  0
 18 42  1  0  0  0  0
 18 43  1  0  0  0  0
 19 20  1  0  0  0  0
 20 21  2  0  0  0  0
 20 44  1  0  0  0  0
 21 22  1  0  0  0  0
 22 45  1  0  0  0  0
 22 46  1  0  0  0  0
 22 47  1  0  0  0  0
M  END
> <s_m_source_file>
AV-unprocessed.smi

> <i_m_source_file_index>
1626

> <i_lp_mmshare_version>
43012

> <i_f3d_flags>
0

> <s_epik_input>
W0NIM11jKFtjSF0xKWMoW0NIM10pW2NIXWMoYzEyKW4oW2NIXW4yKVtDSDJdW0NASF0oW09IXSlbQ0gyXU4zW0NIMl1bQ0gyXVtDSF0oW09IXSlbQ0gyXVtDSDJdMw==

> <s_epik_cmdline>
J2VwaWtfcHl0aG9uJywgJy1waCcsICc3LjAnLCAnLXRuJywgJzgnLCAnLW1hJywgJzIwMCcsICctbWV0YWxfYmluZGluZycsICctaW1hZScsICc8aW5maWxlLm1hZT4nLCAnLW9tYWUnLCAnPG91dGZpbGUubWFlPic=

> <r_epik_Ionization_Penalty>
2.14395

> <r_epik_Ionization_Penalty_Charging>
0

> <r_epik_Ionization_Penalty_Neutral>
2.14395

> <r_epik_State_Penalty>
2.24477

> <r_epik_Charging_Adjusted_Penalty>
2.24477

> <i_epik_Tot_Q>
0

> <i_epik_Tot_abs_Q>
0

> <r_epik_Metal_State_Penalty>
2.17429

> <b_epik_Metal_Only>
0

> <s_lp_Force_Field>
OPLS_2005

> <r_lp_Energy>
28.7152

> <b_lp_Chiralities_Consistent>
1

> <s_lp_Variant>
AV-unprocessed.smi:1626-9

> <Gold.Version>
5.8.1

> <Gold.Id.Protein>
6NUR|6NUR_protein|mol2

> <Gold.PLP.Fitness>
55.7978

> <Gold.PLP.PLP>
-47.7202

> <Gold.PLP.part.hbond>
-3.0000

> <Gold.PLP.part.metal>
0.0000

> <Gold.PLP.part.buried>
-6.6084

> <Gold.PLP.part.nonpolar>
-37.8779

> <Gold.PLP.part.repulsive>
0.1433

> <Gold.PLP.ligand.clash>
0.0000

> <Gold.PLP.ligand.torsion>
0.4656

> <Gold.PLP.Chemscore.Hbond>
3.0000

> <Gold.PLP.Chemscore.CHOScore>
0.0000

> <Gold.PLP.Chemscore.Metal>
0.0000

> <Gold.Chemscore.Hbonds>
donor molecule, donor type, donor heavy atom, donor atom, acceptor molecule, acceptor atom, score
      L1  H    10    31       P1  7957  1.00
      P1  H  7989  7998       L1    10  1.00
      P1  H  7997  8008       L1     5  1.00

> <Gold.PLP.Chemscore.Internal.Correction>
0.0089

> <Gold.Rescore>
     Score         DG    S(hbond)    S(metal)    S(lipo)     H(rot)  DE(clash)    DE(int)     intcor
     17.51     -19.13       2.06        0.00     114.52       2.59       0.55       1.08       ----

> <Gold.Chemscore.Fitness>
17.5067

> <Gold.Chemscore.DG>
-19.1326

> <Gold.Chemscore.ZeroCoef>
-5.4800

> <Gold.Chemscore.Hbond>
2.0647

> <Gold.Chemscore.Metal>
0.0000

> <Gold.Chemscore.Lipo>
114.5195

> <Gold.Chemscore.Internal_Hbond>
0.0000

> <Gold.Chemscore.DEClash>
0.5460

> <Gold.Chemscore.DEInternal>
1.0799

> <Gold.Chemscore.Rot>
2.5947

> <Gold.Chemscore.Internal.Correction>
   9.000000E+99

> <Gold.Chemscore.Hbonds>
donor molecule, donor type, donor heavy atom, donor atom, acceptor molecule, acceptor atom, score
      L1  H    10    31       P1  7957  0.95
      P1  H  7989  7998       L1    10  0.18
      P1  H  7997  8008       L1     5  0.13

> <Gold.Chemscore.Hbond.Weighted>
-6.8962

> <Gold.Chemscore.Metal.Weighted>
-0.0000

> <Gold.Chemscore.Lipo.Weighted>
-13.3988

> <Gold.Chemscore.Internal_Hbond.Weighted>
0.0000

> <Gold.Chemscore.DEClash.Weighted>
0.5460

> <Gold.Chemscore.DEInternal.Weighted>
1.0799

> <Gold.Chemscore.Rot.Weighted>
6.6424

> <Gold.Chemscore.Internal.Correction.Weighted>
   9.000000E+99

> <Gold.Protein.RotatedTorsions>
[ 6907 6896 6895 6894 ] final  129.00 input  -60.11 | X-H torsion
[ 7974 7965 7964 7962 ] final   56.54 input  175.53 | X-H torsion
[ 8008 7997 7996 7995 ] final  -78.01 input   59.86 | X-H torsion
[ 10167 10162 10161 10158 ] final  -79.48 input  -65.29 | X-H torsion
[ 10718 10713 10712 10709 ] final   49.37 input   66.30 | X-H torsion
[ 10763 10752 10751 10750 ] final -106.24 input  -60.55 | X-H torsion
[ 11005 11000 10999 10996 ] final  -62.55 input  -57.11 | X-H torsion

> <Gold.Protein.ActiveResidues>
 VAL166  LYS551  ARG553  GLY616  TRP617  ASP618  TYR619  PRO620  LYS621  CYS622 
 ASP623  PHE694  ASN695  SER759  ASP760  ASP761  ALA762  ILE779  LEU786  VAL792 
 PHE793  MET794  SER795  GLU796  ALA797  LYS798  CYS799  TRP800  GLU811  SER814 

> <Gold.Protein.RotatedAtoms>
  152.3666  133.6365  159.6055 H   0  0  0  0  0  0  0  0  0  0  0  0  # atno 6907 bound_to 6896
  150.7638  133.9338  159.3444 H   0  0  0  0  0  0  0  0  0  0  0  0  # atno 6908 bound_to 6896
  151.7167  135.0903  160.0328 H   0  0  0  0  0  0  0  0  0  0  0  0  # atno 6909 bound_to 6896
  145.9387  139.3870  143.0377 H   0  0  0  0  0  0  0  0  0  0  0  0  # atno 7974 bound_to 7965
  154.5649  140.0701  156.8876 H   0  0  0  0  0  0  0  0  0  0  0  0  # atno 8008 bound_to 7997
  155.2742  140.3367  155.4245 H   0  0  0  0  0  0  0  0  0  0  0  0  # atno 8009 bound_to 7997
  156.2072  140.1745  156.7759 H   0  0  0  0  0  0  0  0  0  0  0  0  # atno 8010 bound_to 7997
  140.4589  143.2460  151.8378 H   0  0  0  0  0  0  0  0  0  0  0  0  # atno 10167 bound_to 10162
  157.4779  130.8297  149.8060 H   0  0  0  0  0  0  0  0  0  0  0  0  # atno 10718 bound_to 10713
  154.7999  135.4719  154.0251 H   0  0  0  0  0  0  0  0  0  0  0  0  # atno 10763 bound_to 10752
  153.1764  135.6833  153.8544 H   0  0  0  0  0  0  0  0  0  0  0  0  # atno 10764 bound_to 10752
  153.8109  135.3217  155.3378 H   0  0  0  0  0  0  0  0  0  0  0  0  # atno 10765 bound_to 10752
  141.1363  133.6641  156.5545 H   0  0  0  0  0  0  0  0  0  0  0  0  # atno 11005 bound_to 11000
  145.8329  140.9621  143.0840 LP  0  0  0  0  0  0  0  0  0  0  0  0  # atno 17320 bound_to 7965
  144.6776  140.0185  143.7484 LP  0  0  0  0  0  0  0  0  0  0  0  0  # atno 17321 bound_to 7965
  139.4804  144.5031  151.9033 LP  0  0  0  0  0  0  0  0  0  0  0  0  # atno 17342 bound_to 10162
  140.4117  144.2360  150.5888 LP  0  0  0  0  0  0  0  0  0  0  0  0  # atno 17343 bound_to 10162
  156.0106  130.3835  150.2277 LP  0  0  0  0  0  0  0  0  0  0  0  0  # atno 17370 bound_to 10713
  157.0462  131.0049  151.3268 LP  0  0  0  0  0  0  0  0  0  0  0  0  # atno 17371 bound_to 10713
  140.4037  134.7334  157.4795 LP  0  0  0  0  0  0  0  0  0  0  0  0  # atno 17394 bound_to 11000
  140.0477  134.6175  155.8900 LP  0  0  0  0  0  0  0  0  0  0  0  0  # atno 17395 bound_to 11000

$$$$
