AV-unprocessed.smi:152|AV-procd|sdf|1249|dock8
  -GOLD-   2262018473D 1   1.00000     0.00000
 Structure written by MMmdl.
 58 61  0  0  0  0  0  0  0  0  2 V2000
  147.7240  132.9785  153.2416 C   0  0  0  0  0  0  0  0  0  0  0  0
  146.5295  133.8616  153.6265 C   0  0  0  0  0  0  0  0  0  0  0  0
  146.9000  135.2958  153.7068 N   0  3  1  0  0  0  0  0  0  0  0  0
  145.7678  136.2358  153.5077 C   0  0  0  0  0  0  0  0  0  0  0  0
  145.7921  137.2207  154.6797 C   0  0  0  0  0  0  0  0  0  0  0  0
  147.2230  137.1417  155.1907 C   0  0  0  0  0  0  0  0  0  0  0  0
  147.5891  135.6730  154.9634 C   0  0  2  0  0  0  0  0  0  0  0  0
  149.1130  135.4345  154.8736 C   0  0  0  0  0  0  0  0  0  0  0  0
  149.8726  136.0859  155.9401 N   0  0  0  0  0  0  0  0  0  0  0  0
  149.2933  136.0564  157.2760 C   0  0  0  0  0  0  0  0  0  0  0  0
  150.4851  137.2651  155.6756 C   0  0  0  0  0  0  0  0  0  0  0  0
  151.6298  137.2110  154.9497 N   0  0  0  0  0  0  0  0  0  0  0  0
  152.2849  138.3341  154.6421 C   0  0  0  0  0  0  0  0  0  0  0  0
  151.9763  139.5927  154.9587 N   0  0  0  0  0  0  0  0  0  0  0  0
  150.8363  139.6524  155.7043 C   0  0  0  0  0  0  0  0  0  0  0  0
  150.0322  138.5474  156.1051 C   0  0  0  0  0  0  0  0  0  0  0  0
  148.9520  139.0012  156.8541 N   0  0  0  0  0  0  0  0  0  0  0  0
  149.1062  140.2962  156.8897 C   0  0  0  0  0  0  0  0  0  0  0  0
  150.2166  140.7723  156.2309 N   0  0  0  0  0  0  0  0  0  0  0  0
  150.6289  142.1627  156.1145 C   0  0  0  0  0  0  0  0  0  0  0  0
  150.9180  142.8532  157.4712 C   0  0  0  0  0  0  0  0  0  0  0  0
  149.6818  143.2895  158.0084 O   0  0  0  0  0  0  0  0  0  0  0  0
  151.5488  141.8494  158.4572 C   0  0  0  0  0  0  0  0  0  0  0  0
  152.0114  142.5260  159.7596 C   0  0  0  0  0  0  0  0  0  0  0  0
  152.9065  143.5905  159.4616 O   0  0  0  0  0  0  0  0  0  0  0  0
  152.2960  144.6244  158.6991 C   0  0  0  0  0  0  0  0  0  0  0  0
  151.8458  144.0801  157.3315 C   0  0  0  0  0  0  0  0  0  0  0  0
  147.4363  131.9269  153.2300 H   0  0  0  0  0  0  0  0  0  0  0  0
  148.5416  133.0898  153.9543 H   0  0  0  0  0  0  0  0  0  0  0  0
  148.1070  133.2234  152.2508 H   0  0  0  0  0  0  0  0  0  0  0  0
  145.7089  133.7269  152.9201 H   0  0  0  0  0  0  0  0  0  0  0  0
  146.1598  133.5327  154.5980 H   0  0  0  0  0  0  0  0  0  0  0  0
  145.9215  136.7594  152.5638 H   0  0  0  0  0  0  0  0  0  0  0  0
  144.8023  135.7312  153.4497 H   0  0  0  0  0  0  0  0  0  0  0  0
  145.5003  138.2307  154.3902 H   0  0  0  0  0  0  0  0  0  0  0  0
  145.1064  136.8845  155.4589 H   0  0  0  0  0  0  0  0  0  0  0  0
  147.8631  137.7923  154.5932 H   0  0  0  0  0  0  0  0  0  0  0  0
  147.3162  137.4441  156.2345 H   0  0  0  0  0  0  0  0  0  0  0  0
  147.1470  135.0861  155.7700 H   0  0  0  0  0  0  0  0  0  0  0  0
  149.3399  134.3689  154.8722 H   0  0  0  0  0  0  0  0  0  0  0  0
  149.4743  135.8105  153.9158 H   0  0  0  0  0  0  0  0  0  0  0  0
  148.5498  136.8464  157.3912 H   0  0  0  0  0  0  0  0  0  0  0  0
  150.0614  136.1935  158.0381 H   0  0  0  0  0  0  0  0  0  0  0  0
  148.8055  135.1003  157.4662 H   0  0  0  0  0  0  0  0  0  0  0  0
  153.1859  138.2067  154.0603 H   0  0  0  0  0  0  0  0  0  0  0  0
  148.4141  140.9443  157.4078 H   0  0  0  0  0  0  0  0  0  0  0  0
  151.5080  142.2077  155.4702 H   0  0  0  0  0  0  0  0  0  0  0  0
  149.8396  142.6994  155.5865 H   0  0  0  0  0  0  0  0  0  0  0  0
  149.2725  143.8729  157.3878 H   0  0  0  0  0  0  0  0  0  0  0  0
  150.8505  141.0420  158.6815 H   0  0  0  0  0  0  0  0  0  0  0  0
  152.4153  141.3811  157.9886 H   0  0  0  0  0  0  0  0  0  0  0  0
  151.1622  142.8980  160.3350 H   0  0  0  0  0  0  0  0  0  0  0  0
  152.5261  141.8025  160.3921 H   0  0  0  0  0  0  0  0  0  0  0  0
  151.4551  145.0486  159.2496 H   0  0  0  0  0  0  0  0  0  0  0  0
  153.0177  145.4294  158.5597 H   0  0  0  0  0  0  0  0  0  0  0  0
  152.7317  143.7972  156.7616 H   0  0  0  0  0  0  0  0  0  0  0  0
  151.3578  144.8752  156.7663 H   0  0  0  0  0  0  0  0  0  0  0  0
  147.5558  135.4790  152.9609 H   0  0  0  0  0  0  0  0  0  0  0  0
  1  2  1  0  0  0  0
  1 28  1  0  0  0  0
  1 29  1  0  0  0  0
  1 30  1  0  0  0  0
  2  3  1  0  0  0  0
  2 31  1  0  0  0  0
  2 32  1  0  0  0  0
  3  7  1  0  0  0  0
  3  4  1  0  0  0  0
  3 58  1  0  0  0  0
  4  5  1  0  0  0  0
  4 33  1  0  0  0  0
  4 34  1  0  0  0  0
  5  6  1  0  0  0  0
  5 35  1  0  0  0  0
  5 36  1  0  0  0  0
  6  7  1  0  0  0  0
  6 37  1  0  0  0  0
  6 38  1  0  0  0  0
  7  8  1  0  0  0  0
  7 39  1  0  0  0  0
  8  9  1  0  0  0  0
  8 40  1  0  0  0  0
  8 41  1  0  0  0  0
  9 10  1  0  0  0  0
  9 11  1  0  0  0  0
 10 42  1  0  0  0  0
 10 43  1  0  0  0  0
 10 44  1  0  0  0  0
 11 16  1  0  0  0  0
 11 12  2  0  0  0  0
 12 13  1  0  0  0  0
 13 14  2  0  0  0  0
 13 45  1  0  0  0  0
 14 15  1  0  0  0  0
 15 19  1  0  0  0  0
 15 16  2  0  0  0  0
 16 17  1  0  0  0  0
 17 18  2  0  0  0  0
 18 19  1  0  0  0  0
 18 46  1  0  0  0  0
 19 20  1  0  0  0  0
 20 21  1  0  0  0  0
 20 47  1  0  0  0  0
 20 48  1  0  0  0  0
 21 27  1  0  0  0  0
 21 22  1  0  0  0  0
 21 23  1  0  0  0  0
 22 49  1  0  0  0  0
 23 24  1  0  0  0  0
 23 50  1  0  0  0  0
 23 51  1  0  0  0  0
 24 25  1  0  0  0  0
 24 52  1  0  0  0  0
 24 53  1  0  0  0  0
 25 26  1  0  0  0  0
 26 27  1  0  0  0  0
 26 54  1  0  0  0  0
 26 55  1  0  0  0  0
 27 56  1  0  0  0  0
 27 57  1  0  0  0  0
M  CHG  1   3   1
M  END
> <s_m_source_file>
AV-unprocessed.smi

> <i_m_source_file_index>
152

> <i_lp_mmshare_version>
43012

> <i_f3d_flags>
0

> <s_epik_input>
W0NIM11bQ0gyXU4xW0NIMl1bQ0gyXVtDSDJdW0NASF0xW0NIMl1OKFtDSDNdKWMobltjSF1uMiljKGMyMyluW2NIXW4zW0NIMl1DNChbT0hdKVtDSDJdW0NIMl1PW0NIMl1bQ0gyXTQ=

> <s_epik_cmdline>
J2VwaWtfcHl0aG9uJywgJy1waCcsICc3LjAnLCAnLXRuJywgJzgnLCAnLW1hJywgJzIwMCcsICctbWV0YWxfYmluZGluZycsICctaW1hZScsICc8aW5maWxlLm1hZT4nLCAnLW9tYWUnLCAnPG91dGZpbGUubWFlPic=

> <r_lp_tautomer_probability>
1

> <r_epik_Ionization_Penalty>
0.00152183

> <r_epik_Ionization_Penalty_Charging>
0.00112577

> <r_epik_Ionization_Penalty_Neutral>
0.000396066

> <r_epik_State_Penalty>
-0

> <r_epik_Charging_Adjusted_Penalty>
0.00112577

> <i_epik_Tot_Q>
1

> <i_epik_Tot_abs_Q>
1

> <r_epik_Metal_State_Penalty>
-0

> <b_epik_Metal_Only>
0

> <s_lp_Force_Field>
OPLS_2005

> <r_lp_Energy>
45.0855

> <b_lp_Chiralities_Consistent>
1

> <s_lp_Variant>
AV-unprocessed.smi:152-4

> <Gold.Version>
5.8.1

> <Gold.Id.Protein>
6NUR|6NUR_protein|mol2

> <Gold.PLP.Fitness>
54.1700

> <Gold.PLP.PLP>
-42.5254

> <Gold.PLP.part.hbond>
-4.0000

> <Gold.PLP.part.metal>
0.0000

> <Gold.PLP.part.buried>
-6.2709

> <Gold.PLP.part.nonpolar>
-32.8217

> <Gold.PLP.part.repulsive>
0.2147

> <Gold.PLP.ligand.clash>
0.0000

> <Gold.PLP.ligand.torsion>
1.5775

> <Gold.PLP.Chemscore.Hbond>
4.6873

> <Gold.PLP.Chemscore.CHOScore>
0.0000

> <Gold.PLP.Chemscore.Metal>
0.0000

> <Gold.Chemscore.Hbonds>
donor molecule, donor type, donor heavy atom, donor atom, acceptor molecule, acceptor atom, score
      L1  H     3    58       P1  7948  2.00
      L1  H    22    49       P1  8028  1.00
      P1  H  7989  7998       L1    14  0.93
      P1  H 10752 10764       L1    12  0.81

> <Gold.PLP.Chemscore.Internal.Correction>
0.7378

> <Gold.Rescore>
     Score         DG    S(hbond)    S(metal)    S(lipo)     H(rot)  DE(clash)    DE(int)     intcor
     14.65     -17.71       2.63        0.00      89.15       2.73       0.08       2.97       ----

> <Gold.Chemscore.Fitness>
14.6503

> <Gold.Chemscore.DG>
-17.7093

> <Gold.Chemscore.ZeroCoef>
-5.4800

> <Gold.Chemscore.Hbond>
2.6348

> <Gold.Chemscore.Metal>
0.0000

> <Gold.Chemscore.Lipo>
89.1475

> <Gold.Chemscore.Internal_Hbond>
0.0000

> <Gold.Chemscore.DEClash>
0.0848

> <Gold.Chemscore.DEInternal>
2.9742

> <Gold.Chemscore.Rot>
2.7348

> <Gold.Chemscore.Internal.Correction>
   9.000000E+99

> <Gold.Chemscore.Hbonds>
donor molecule, donor type, donor heavy atom, donor atom, acceptor molecule, acceptor atom, score
      L1  H     3    58       P1  7948  1.00
      L1  H    22    49       P1  8028  0.25
      P1  H  7989  7998       L1    14  0.43
      P1  H 10752 10764       L1    12  0.43

> <Gold.Chemscore.Hbond.Weighted>
-8.8001

> <Gold.Chemscore.Metal.Weighted>
-0.0000

> <Gold.Chemscore.Lipo.Weighted>
-10.4303

> <Gold.Chemscore.Internal_Hbond.Weighted>
0.0000

> <Gold.Chemscore.DEClash.Weighted>
0.0848

> <Gold.Chemscore.DEInternal.Weighted>
2.9742

> <Gold.Chemscore.Rot.Weighted>
7.0010

> <Gold.Chemscore.Internal.Correction.Weighted>
   9.000000E+99

> <Gold.Protein.RotatedTorsions>
[ 6907 6896 6895 6894 ] final  -23.98 input  -60.11 | X-H torsion
[ 7974 7965 7964 7962 ] final  -68.86 input  175.53 | X-H torsion
[ 8008 7997 7996 7995 ] final  158.78 input   59.86 | X-H torsion
[ 10167 10162 10161 10158 ] final  -27.28 input  -65.29 | X-H torsion
[ 10718 10713 10712 10709 ] final -120.11 input   66.30 | X-H torsion
[ 10763 10752 10751 10750 ] final  -68.71 input  -60.55 | X-H torsion
[ 11005 11000 10999 10996 ] final  138.87 input  -57.11 | X-H torsion

> <Gold.Protein.ActiveResidues>
 VAL166  LYS551  ARG553  GLY616  TRP617  ASP618  TYR619  PRO620  LYS621  CYS622 
 ASP623  PHE694  ASN695  SER759  ASP760  ASP761  ALA762  ILE779  LEU786  VAL792 
 PHE793  MET794  SER795  GLU796  ALA797  LYS798  CYS799  TRP800  GLU811  SER814 

> <Gold.Protein.RotatedAtoms>
  151.1961  135.0423  159.8852 H   0  0  0  0  0  0  0  0  0  0  0  0  # atno 6907 bound_to 6896
  152.5436  134.0902  159.8284 H   0  0  0  0  0  0  0  0  0  0  0  0  # atno 6908 bound_to 6896
  151.1037  133.5177  159.2641 H   0  0  0  0  0  0  0  0  0  0  0  0  # atno 6909 bound_to 6896
  145.7111  140.9078  143.0680 H   0  0  0  0  0  0  0  0  0  0  0  0  # atno 7974 bound_to 7965
  156.2281  140.1849  156.7312 H   0  0  0  0  0  0  0  0  0  0  0  0  # atno 8008 bound_to 7997
  154.5975  140.0641  156.9352 H   0  0  0  0  0  0  0  0  0  0  0  0  # atno 8009 bound_to 7997
  155.2230  140.3309  155.4315 H   0  0  0  0  0  0  0  0  0  0  0  0  # atno 8010 bound_to 7997
  140.7278  143.4106  151.1111 H   0  0  0  0  0  0  0  0  0  0  0  0  # atno 10167 bound_to 10162
  156.1233  130.6340  150.9500 H   0  0  0  0  0  0  0  0  0  0  0  0  # atno 10718 bound_to 10713
  154.3929  135.6048  153.5853 H   0  0  0  0  0  0  0  0  0  0  0  0  # atno 10763 bound_to 10752
  152.9787  135.5888  154.4276 H   0  0  0  0  0  0  0  0  0  0  0  0  # atno 10764 bound_to 10752
  154.4063  135.2843  155.2043 H   0  0  0  0  0  0  0  0  0  0  0  0  # atno 10765 bound_to 10752
  140.0214  134.9395  157.0481 H   0  0  0  0  0  0  0  0  0  0  0  0  # atno 11005 bound_to 11000
  144.6942  139.9075  143.7462 LP  0  0  0  0  0  0  0  0  0  0  0  0  # atno 17320 bound_to 7965
  146.0712  139.3701  143.0522 LP  0  0  0  0  0  0  0  0  0  0  0  0  # atno 17321 bound_to 7965
  139.7739  143.8454  152.3125 LP  0  0  0  0  0  0  0  0  0  0  0  0  # atno 17342 bound_to 10162
  139.8381  144.7222  150.9365 LP  0  0  0  0  0  0  0  0  0  0  0  0  # atno 17343 bound_to 10162
  157.6416  131.0909  150.8240 LP  0  0  0  0  0  0  0  0  0  0  0  0  # atno 17370 bound_to 10713
  156.8334  130.5023  149.5329 LP  0  0  0  0  0  0  0  0  0  0  0  0  # atno 17371 bound_to 10713
  140.4381  134.1710  155.7172 LP  0  0  0  0  0  0  0  0  0  0  0  0  # atno 17394 bound_to 11000
  141.1776  133.8481  157.1369 LP  0  0  0  0  0  0  0  0  0  0  0  0  # atno 17395 bound_to 11000

$$$$
