AV-unprocessed.smi:1308|AV-procd|sdf|5442|dock4
  -GOLD-   22720 5 13D 1   1.00000     0.00000
 Structure written by MMmdl.
 44 44  0  0  0  0  0  0  0  0  2 V2000
  153.0021  138.5707  154.8297 C   0  0  0  0  0  0  0  0  0  0  0  0
  152.1036  139.5812  155.5106 C   0  0  0  0  0  0  0  0  0  0  0  0
  151.0682  140.0110  154.8960 N   0  0  0  0  0  0  0  0  0  0  0  0
  150.2338  140.9527  155.5215 C   0  0  0  0  0  0  0  0  0  0  0  0
  149.0333  141.4158  154.7147 C   0  0  0  0  0  0  0  0  0  0  0  0
  150.5065  141.4142  156.7752 C   0  0  0  0  0  0  0  0  0  0  0  0
  149.6390  142.4500  157.4930 C   0  0  0  0  0  0  0  0  0  0  0  0
  148.1942  142.0308  157.7760 C   0  0  0  0  0  0  0  0  0  0  0  0
  147.9195  140.8403  157.9242 O   0  0  0  0  0  0  0  0  0  0  0  0
  147.2888  143.0189  157.8603 N   0  0  0  0  0  0  0  0  0  0  0  0
  145.8566  142.8638  158.0997 C   0  0  2  0  0  0  0  0  0  0  0  0
  145.1489  142.6514  156.7545 C   0  0  0  0  0  0  0  0  0  0  0  0
  145.2955  144.0873  158.8504 C   0  0  0  0  0  0  0  0  0  0  0  0
  143.9423  143.8248  159.5392 C   0  0  0  0  0  0  0  0  0  0  0  0
  144.0609  143.2361  160.9594 C   0  0  0  0  0  0  0  0  0  0  0  0
  142.7728  143.4189  161.7798 C   0  0  0  0  0  0  0  0  0  0  0  0
  145.2594  143.8483  161.7001 C   0  0  0  0  0  0  0  0  0  0  0  0
  151.7107  140.8954  157.4485 C   0  0  0  0  0  0  0  0  0  0  0  0
  152.0131  141.2939  158.5725 O   0  0  0  0  0  0  0  0  0  0  0  0
  152.4674  139.9819  156.7765 N   0  5  0  0  0  0  0  0  0  0  0  0
  152.7144  138.4286  153.7872 H   0  0  0  0  0  0  0  0  0  0  0  0
  152.9389  137.6078  155.3375 H   0  0  0  0  0  0  0  0  0  0  0  0
  154.0390  138.9077  154.8535 H   0  0  0  0  0  0  0  0  0  0  0  0
  148.1068  141.1211  155.2074 H   0  0  0  0  0  0  0  0  0  0  0  0
  149.0359  140.9781  153.7157 H   0  0  0  0  0  0  0  0  0  0  0  0
  149.0390  142.5002  154.6039 H   0  0  0  0  0  0  0  0  0  0  0  0
  150.1133  142.6994  158.4425 H   0  0  0  0  0  0  0  0  0  0  0  0
  149.6208  143.3896  156.9403 H   0  0  0  0  0  0  0  0  0  0  0  0
  147.6231  143.9638  157.7323 H   0  0  0  0  0  0  0  0  0  0  0  0
  145.6711  141.9763  158.7070 H   0  0  0  0  0  0  0  0  0  0  0  0
  144.0773  142.5065  156.8924 H   0  0  0  0  0  0  0  0  0  0  0  0
  145.5372  141.7698  156.2431 H   0  0  0  0  0  0  0  0  0  0  0  0
  145.2876  143.5074  156.0929 H   0  0  0  0  0  0  0  0  0  0  0  0
  146.0278  144.4214  159.5858 H   0  0  0  0  0  0  0  0  0  0  0  0
  145.1772  144.9091  158.1434 H   0  0  0  0  0  0  0  0  0  0  0  0
  143.3988  144.7690  159.5943 H   0  0  0  0  0  0  0  0  0  0  0  0
  143.3325  143.1624  158.9238 H   0  0  0  0  0  0  0  0  0  0  0  0
  144.2511  142.1660  160.8678 H   0  0  0  0  0  0  0  0  0  0  0  0
  142.5036  144.4721  161.8654 H   0  0  0  0  0  0  0  0  0  0  0  0
  142.8930  143.0249  162.7893 H   0  0  0  0  0  0  0  0  0  0  0  0
  141.9303  142.8941  161.3303 H   0  0  0  0  0  0  0  0  0  0  0  0
  145.1390  144.9250  161.8252 H   0  0  0  0  0  0  0  0  0  0  0  0
  146.1887  143.6788  161.1555 H   0  0  0  0  0  0  0  0  0  0  0  0
  145.3768  143.4088  162.6910 H   0  0  0  0  0  0  0  0  0  0  0  0
  1  2  1  0  0  0  0
  1 21  1  0  0  0  0
  1 22  1  0  0  0  0
  1 23  1  0  0  0  0
  2 20  1  0  0  0  0
  2  3  2  0  0  0  0
  3  4  1  0  0  0  0
  4  5  1  0  0  0  0
  4  6  2  0  0  0  0
  5 24  1  0  0  0  0
  5 25  1  0  0  0  0
  5 26  1  0  0  0  0
  6  7  1  0  0  0  0
  6 18  1  0  0  0  0
  7  8  1  0  0  0  0
  7 27  1  0  0  0  0
  7 28  1  0  0  0  0
  8  9  2  0  0  0  0
  8 10  1  0  0  0  0
 10 11  1  0  0  0  0
 10 29  1  0  0  0  0
 11 12  1  0  0  0  0
 11 13  1  0  0  0  0
 11 30  1  0  0  0  0
 12 31  1  0  0  0  0
 12 32  1  0  0  0  0
 12 33  1  0  0  0  0
 13 14  1  0  0  0  0
 13 34  1  0  0  0  0
 13 35  1  0  0  0  0
 14 15  1  0  0  0  0
 14 36  1  0  0  0  0
 14 37  1  0  0  0  0
 15 16  1  0  0  0  0
 15 17  1  0  0  0  0
 15 38  1  0  0  0  0
 16 39  1  0  0  0  0
 16 40  1  0  0  0  0
 16 41  1  0  0  0  0
 17 42  1  0  0  0  0
 17 43  1  0  0  0  0
 17 44  1  0  0  0  0
 18 19  2  0  0  0  0
 18 20  1  0  0  0  0
M  CHG  1  20  -1
M  END
> <s_m_source_file>
AV-unprocessed.smi

> <i_m_source_file_index>
1308

> <i_lp_mmshare_version>
43012

> <i_f3d_flags>
0

> <s_epik_input>
W0NIM11jMW5jKFtDSDNdKWMoYyg9TylbbkhdMSlbQ0gyXUMoPU8pW05IXVtDQEhdKFtDSDNdKVtDSDJdW0NIMl1bQ0hdKFtDSDNdKVtDSDNd

> <s_epik_cmdline>
J2VwaWtfcHl0aG9uJywgJy1waCcsICc3LjAnLCAnLXRuJywgJzgnLCAnLW1hJywgJzIwMCcsICctbWV0YWxfYmluZGluZycsICctaW1hZScsICc8aW5maWxlLm1hZT4nLCAnLW9tYWUnLCAnPG91dGZpbGUubWFlPic=

> <r_lp_tautomer_probability>
0.839158

> <r_epik_Ionization_Penalty>
6.61719

> <r_epik_Ionization_Penalty_Charging>
7.20681e-08

> <r_epik_Ionization_Penalty_Neutral>
6.61719

> <r_epik_State_Penalty>
4.43758

> <r_epik_Charging_Adjusted_Penalty>
4.43758

> <i_epik_Tot_Q>
-1

> <i_epik_Tot_abs_Q>
1

> <r_epik_Metal_State_Penalty>
0.801586

> <b_epik_Metal_Only>
1

> <s_lp_Force_Field>
OPLS_2005

> <r_lp_Energy>
8.43775

> <b_lp_Chiralities_Consistent>
1

> <s_lp_Variant>
AV-unprocessed.smi:1308-5

> <Gold.Version>
5.8.1

> <Gold.Id.Protein>
6NUR|6NUR_protein|mol2

> <Gold.PLP.Fitness>
45.6596

> <Gold.PLP.PLP>
-36.4032

> <Gold.PLP.part.hbond>
-4.1863

> <Gold.PLP.part.metal>
0.0000

> <Gold.PLP.part.buried>
-3.4510

> <Gold.PLP.part.nonpolar>
-28.4177

> <Gold.PLP.part.repulsive>
0.1625

> <Gold.PLP.ligand.clash>
0.0000

> <Gold.PLP.ligand.torsion>
1.2613

> <Gold.PLP.Chemscore.Hbond>
3.8968

> <Gold.PLP.Chemscore.CHOScore>
0.0000

> <Gold.PLP.Chemscore.Metal>
0.0000

> <Gold.Chemscore.Hbonds>
donor molecule, donor type, donor heavy atom, donor atom, acceptor molecule, acceptor atom, score
      L1  H    10    29       P1  8029  0.50
      P1  H  7989  7998       L1     3  1.00
      P1  H  7997  8009       L1    20  1.70

> <Gold.PLP.Chemscore.Internal.Correction>
0.0887

> <Gold.Rescore>
     Score         DG    S(hbond)    S(metal)    S(lipo)     H(rot)  DE(clash)    DE(int)     intcor
     11.00     -12.15       1.13        0.00      66.52       1.91       0.10       1.05       ----

> <Gold.Chemscore.Fitness>
10.9999

> <Gold.Chemscore.DG>
-12.1456

> <Gold.Chemscore.ZeroCoef>
-5.4800

> <Gold.Chemscore.Hbond>
1.1308

> <Gold.Chemscore.Metal>
0.0000

> <Gold.Chemscore.Lipo>
66.5220

> <Gold.Chemscore.Internal_Hbond>
0.0000

> <Gold.Chemscore.DEClash>
0.0989

> <Gold.Chemscore.DEInternal>
1.0468

> <Gold.Chemscore.Rot>
1.9118

> <Gold.Chemscore.Internal.Correction>
   9.000000E+99

> <Gold.Chemscore.Hbonds>
donor molecule, donor type, donor heavy atom, donor atom, acceptor molecule, acceptor atom, score
      L1  H    10    29       P1  8029  0.02
      P1  H  7989  7998       L1     3  0.24
      P1  H  7997  8009       L1    20  0.15

> <Gold.Chemscore.Hbond.Weighted>
-3.7769

> <Gold.Chemscore.Metal.Weighted>
-0.0000

> <Gold.Chemscore.Lipo.Weighted>
-7.7831

> <Gold.Chemscore.Internal_Hbond.Weighted>
0.0000

> <Gold.Chemscore.DEClash.Weighted>
0.0989

> <Gold.Chemscore.DEInternal.Weighted>
1.0468

> <Gold.Chemscore.Rot.Weighted>
4.8943

> <Gold.Chemscore.Internal.Correction.Weighted>
   9.000000E+99

> <Gold.Protein.RotatedTorsions>
[ 6907 6896 6895 6894 ] final -128.81 input  -60.11 | X-H torsion
[ 7974 7965 7964 7962 ] final    9.96 input  175.53 | X-H torsion
[ 8008 7997 7996 7995 ] final -169.09 input   59.86 | X-H torsion
[ 10167 10162 10161 10158 ] final  -77.96 input  -65.29 | X-H torsion
[ 10718 10713 10712 10709 ] final   85.00 input   66.30 | X-H torsion
[ 10763 10752 10751 10750 ] final -141.61 input  -60.55 | X-H torsion
[ 11005 11000 10999 10996 ] final  175.82 input  -57.11 | X-H torsion

> <Gold.Protein.ActiveResidues>
 VAL166  LYS551  ARG553  GLY616  TRP617  ASP618  TYR619  PRO620  LYS621  CYS622 
 ASP623  PHE694  ASN695  SER759  ASP760  ASP761  ALA762  ILE779  LEU786  VAL792 
 PHE793  MET794  SER795  GLU796  ALA797  LYS798  CYS799  TRP800  GLU811  SER814 

> <Gold.Protein.RotatedAtoms>
  150.9219  133.6870  159.2830 H   0  0  0  0  0  0  0  0  0  0  0  0  # atno 6907 bound_to 6896
  151.4322  135.1009  159.9655 H   0  0  0  0  0  0  0  0  0  0  0  0  # atno 6908 bound_to 6896
  152.4983  133.8646  159.7322 H   0  0  0  0  0  0  0  0  0  0  0  0  # atno 6909 bound_to 6896
  146.2396  139.9706  142.8447 H   0  0  0  0  0  0  0  0  0  0  0  0  # atno 7974 bound_to 7965
  155.9003  140.1040  157.1354 H   0  0  0  0  0  0  0  0  0  0  0  0  # atno 8008 bound_to 7997
  154.4025  140.1294  156.4492 H   0  0  0  0  0  0  0  0  0  0  0  0  # atno 8009 bound_to 7997
  155.7430  140.3466  155.5116 H   0  0  0  0  0  0  0  0  0  0  0  0  # atno 8010 bound_to 7997
  140.4724  143.2423  151.8185 H   0  0  0  0  0  0  0  0  0  0  0  0  # atno 10167 bound_to 10162
  157.6907  131.0156  150.2756 H   0  0  0  0  0  0  0  0  0  0  0  0  # atno 10718 bound_to 10713
  154.8539  135.3519  154.5896 H   0  0  0  0  0  0  0  0  0  0  0  0  # atno 10763 bound_to 10752
  153.6505  135.6994  153.5215 H   0  0  0  0  0  0  0  0  0  0  0  0  # atno 10764 bound_to 10752
  153.2897  135.4238  155.1114 H   0  0  0  0  0  0  0  0  0  0  0  0  # atno 10765 bound_to 10752
  140.3663  134.7069  157.4364 H   0  0  0  0  0  0  0  0  0  0  0  0  # atno 11005 bound_to 11000
  145.1685  140.9709  143.4335 LP  0  0  0  0  0  0  0  0  0  0  0  0  # atno 17320 bound_to 7965
  145.0050  139.3562  143.6148 LP  0  0  0  0  0  0  0  0  0  0  0  0  # atno 17321 bound_to 7965
  139.4820  144.4875  151.9227 LP  0  0  0  0  0  0  0  0  0  0  0  0  # atno 17342 bound_to 10162
  140.3961  144.2554  150.5896 LP  0  0  0  0  0  0  0  0  0  0  0  0  # atno 17343 bound_to 10162
  156.3312  130.3800  149.7490 LP  0  0  0  0  0  0  0  0  0  0  0  0  # atno 17370 bound_to 10713
  156.5029  130.8137  151.3139 LP  0  0  0  0  0  0  0  0  0  0  0  0  # atno 17371 bound_to 10713
  140.0587  134.6027  155.8775 LP  0  0  0  0  0  0  0  0  0  0  0  0  # atno 17394 bound_to 11000
  141.1968  133.6593  156.5712 LP  0  0  0  0  0  0  0  0  0  0  0  0  # atno 17395 bound_to 11000

$$$$
