AV-unprocessed.smi:679|AV-procd|sdf|3319|dock6
  -GOLD-   22720 0283D 1   1.00000     0.00000
 Structure written by MMmdl.
 41 43  0  0  0  0  0  0  0  0  1 V2000
  153.7491  143.3533  163.6410 C   0  0  0  0  0  0  0  0  0  0  0  0
  153.3211  142.3975  162.5253 C   0  0  0  0  0  0  0  0  0  0  0  0
  152.8160  143.1579  161.4411 O   0  0  0  0  0  0  0  0  0  0  0  0
  152.2049  142.3579  160.4410 C   0  0  2  0  0  0  0  0  0  0  0  0
  153.1460  141.3643  159.7526 C   0  0  0  0  0  0  0  0  0  0  0  0
  152.4640  141.7377  158.4314 C   0  0  1  0  0  0  0  0  0  0  0  0
  151.3369  140.8486  158.1501 N   0  0  0  0  0  0  0  0  0  0  0  0
  151.3172  139.9210  157.1804 C   0  0  0  0  0  0  0  0  0  0  0  0
  152.2578  139.7274  156.4112 O   0  0  0  0  0  0  0  0  0  0  0  0
  150.0348  139.0981  157.0402 C   0  0  0  0  0  0  0  0  0  0  0  0
  149.9196  138.1009  158.0888 N   0  0  0  0  0  0  0  0  0  0  0  0
  149.7743  136.7758  158.0259 C   0  0  0  0  0  0  0  0  0  0  0  0
  149.6970  136.2346  159.2318 N   0  0  0  0  0  0  0  0  0  0  0  0
  149.8072  137.3278  160.0749 N   0  0  0  0  0  0  0  0  0  0  0  0
  149.9395  138.4380  159.4023 N   0  0  0  0  0  0  0  0  0  0  0  0
  152.0415  143.0813  159.0820 C   0  0  0  0  0  0  0  0  0  0  0  0
  152.9567  144.2804  158.8196 C   0  0  0  0  0  0  0  0  0  0  0  0
  152.1857  145.5401  159.2284 C   0  0  0  0  0  0  0  0  0  0  0  0
  150.7090  145.1342  159.2587 C   0  0  0  0  0  0  0  0  0  0  0  0
  150.6718  143.6835  158.7745 C   0  0  0  0  0  0  0  0  0  0  0  0
  154.1392  142.8030  164.4973 H   0  0  0  0  0  0  0  0  0  0  0  0
  152.9081  143.9560  163.9849 H   0  0  0  0  0  0  0  0  0  0  0  0
  154.5292  144.0322  163.2963 H   0  0  0  0  0  0  0  0  0  0  0  0
  154.1736  141.7969  162.2047 H   0  0  0  0  0  0  0  0  0  0  0  0
  152.5542  141.7143  162.8931 H   0  0  0  0  0  0  0  0  0  0  0  0
  151.2743  141.8933  160.7748 H   0  0  0  0  0  0  0  0  0  0  0  0
  154.1917  141.6742  159.7892 H   0  0  0  0  0  0  0  0  0  0  0  0
  153.0248  140.3268  160.0666 H   0  0  0  0  0  0  0  0  0  0  0  0
  153.1707  141.8437  157.6064 H   0  0  0  0  0  0  0  0  0  0  0  0
  150.5193  140.9479  158.7337 H   0  0  0  0  0  0  0  0  0  0  0  0
  149.1690  139.7598  157.0842 H   0  0  0  0  0  0  0  0  0  0  0  0
  150.0105  138.5987  156.0704 H   0  0  0  0  0  0  0  0  0  0  0  0
  149.7211  136.2140  157.1051 H   0  0  0  0  0  0  0  0  0  0  0  0
  153.9110  144.2100  159.3429 H   0  0  0  0  0  0  0  0  0  0  0  0
  153.1925  144.3367  157.7560 H   0  0  0  0  0  0  0  0  0  0  0  0
  152.5001  145.8769  160.2169 H   0  0  0  0  0  0  0  0  0  0  0  0
  152.3681  146.3568  158.5293 H   0  0  0  0  0  0  0  0  0  0  0  0
  150.3329  145.1949  160.2808 H   0  0  0  0  0  0  0  0  0  0  0  0
  150.0881  145.7833  158.6406 H   0  0  0  0  0  0  0  0  0  0  0  0
  150.4917  143.6690  157.6987 H   0  0  0  0  0  0  0  0  0  0  0  0
  149.8551  143.1306  159.2397 H   0  0  0  0  0  0  0  0  0  0  0  0
  1  2  1  0  0  0  0
  1 21  1  0  0  0  0
  1 22  1  0  0  0  0
  1 23  1  0  0  0  0
  2  3  1  0  0  0  0
  2 24  1  0  0  0  0
  2 25  1  0  0  0  0
  3  4  1  0  0  0  0
  4 16  1  0  0  0  0
  4  5  1  0  0  0  0
  4 26  1  0  0  0  0
  5  6  1  0  0  0  0
  5 27  1  0  0  0  0
  5 28  1  0  0  0  0
  6  7  1  0  0  0  0
  6 16  1  0  0  0  0
  6 29  1  0  0  0  0
  7  8  1  0  0  0  0
  7 30  1  0  0  0  0
  8  9  2  0  0  0  0
  8 10  1  0  0  0  0
 10 11  1  0  0  0  0
 10 31  1  0  0  0  0
 10 32  1  0  0  0  0
 11 15  1  0  0  0  0
 11 12  1  0  0  0  0
 12 13  2  0  0  0  0
 12 33  1  0  0  0  0
 13 14  1  0  0  0  0
 14 15  2  0  0  0  0
 16 20  1  0  0  0  0
 16 17  1  0  0  0  0
 17 18  1  0  0  0  0
 17 34  1  0  0  0  0
 17 35  1  0  0  0  0
 18 19  1  0  0  0  0
 18 36  1  0  0  0  0
 18 37  1  0  0  0  0
 19 20  1  0  0  0  0
 19 38  1  0  0  0  0
 19 39  1  0  0  0  0
 20 40  1  0  0  0  0
 20 41  1  0  0  0  0
M  END
> <s_m_source_file>
AV-unprocessed.smi

> <i_m_source_file_index>
679

> <i_lp_mmshare_version>
43012

> <i_f3d_flags>
0

> <s_epik_input>
W0NIMl0xW0NIMl1bQ0gyXVtDSDJdQzEyW0NASF0oT1tDSDJdW0NIM10pW0NIMl1bQ0BIXTJbTkhdQyg9TylbQ0gyXW4zW2NIXW5ubjM=

> <s_epik_cmdline>
J2VwaWtfcHl0aG9uJywgJy1waCcsICc3LjAnLCAnLXRuJywgJzgnLCAnLW1hJywgJzIwMCcsICctbWV0YWxfYmluZGluZycsICctaW1hZScsICc8aW5maWxlLm1hZT4nLCAnLW9tYWUnLCAnPG91dGZpbGUubWFlPic=

> <r_lp_tautomer_probability>
1

> <r_epik_Ionization_Penalty>
7.96741e-07

> <r_epik_Ionization_Penalty_Charging>
0

> <r_epik_Ionization_Penalty_Neutral>
7.96741e-07

> <r_epik_State_Penalty>
-0

> <r_epik_Charging_Adjusted_Penalty>
0

> <i_epik_Tot_Q>
0

> <i_epik_Tot_abs_Q>
0

> <r_epik_Metal_State_Penalty>
-0

> <b_epik_Metal_Only>
0

> <s_lp_Force_Field>
OPLS_2005

> <r_lp_Energy>
39.8699

> <b_lp_Chiralities_Consistent>
1

> <s_lp_Variant>
AV-unprocessed.smi:679-1

> <Gold.Version>
5.8.1

> <Gold.Id.Protein>
6NUR|6NUR_protein|mol2

> <Gold.PLP.Fitness>
46.7092

> <Gold.PLP.PLP>
-41.4095

> <Gold.PLP.part.hbond>
-4.1058

> <Gold.PLP.part.metal>
0.0000

> <Gold.PLP.part.buried>
-6.3063

> <Gold.PLP.part.nonpolar>
-29.6639

> <Gold.PLP.part.repulsive>
0.1709

> <Gold.PLP.ligand.clash>
0.0000

> <Gold.PLP.ligand.torsion>
0.5259

> <Gold.PLP.Chemscore.Hbond>
2.0000

> <Gold.PLP.Chemscore.CHOScore>
0.0000

> <Gold.PLP.Chemscore.Metal>
0.0000

> <Gold.Chemscore.Hbonds>
donor molecule, donor type, donor heavy atom, donor atom, acceptor molecule, acceptor atom, score
      P1  H  6896  6909       L1    13  1.00
      P1  H  6931  6943       L1    14  0.12
      P1  H  7997  8010       L1     9  0.76

> <Gold.PLP.Chemscore.Internal.Correction>
0.3514

> <Gold.Rescore>
     Score         DG    S(hbond)    S(metal)    S(lipo)     H(rot)  DE(clash)    DE(int)     intcor
     17.92     -18.92       2.00        0.00     110.57       2.41       0.00       0.99       ----

> <Gold.Chemscore.Fitness>
17.9208

> <Gold.Chemscore.DG>
-18.9198

> <Gold.Chemscore.ZeroCoef>
-5.4800

> <Gold.Chemscore.Hbond>
1.9968

> <Gold.Chemscore.Metal>
0.0000

> <Gold.Chemscore.Lipo>
110.5747

> <Gold.Chemscore.Internal_Hbond>
0.0000

> <Gold.Chemscore.DEClash>
0.0044

> <Gold.Chemscore.DEInternal>
0.9946

> <Gold.Chemscore.Rot>
2.4089

> <Gold.Chemscore.Internal.Correction>
   9.000000E+99

> <Gold.Chemscore.Hbonds>
donor molecule, donor type, donor heavy atom, donor atom, acceptor molecule, acceptor atom, score
      P1  H  6896  6909       L1    13  0.89
      P1  H  6931  6943       L1    14  0.01
      P1  H  7997  8010       L1     9  0.75

> <Gold.Chemscore.Hbond.Weighted>
-6.6694

> <Gold.Chemscore.Metal.Weighted>
-0.0000

> <Gold.Chemscore.Lipo.Weighted>
-12.9372

> <Gold.Chemscore.Internal_Hbond.Weighted>
0.0000

> <Gold.Chemscore.DEClash.Weighted>
0.0044

> <Gold.Chemscore.DEInternal.Weighted>
0.9946

> <Gold.Chemscore.Rot.Weighted>
6.1668

> <Gold.Chemscore.Internal.Correction.Weighted>
   9.000000E+99

> <Gold.Protein.RotatedTorsions>
[ 6907 6896 6895 6894 ] final   64.27 input  -60.11 | X-H torsion
[ 7974 7965 7964 7962 ] final   -5.71 input  175.53 | X-H torsion
[ 8008 7997 7996 7995 ] final   66.45 input   59.86 | X-H torsion
[ 10167 10162 10161 10158 ] final -115.86 input  -65.29 | X-H torsion
[ 10718 10713 10712 10709 ] final  -77.52 input   66.30 | X-H torsion
[ 10763 10752 10751 10750 ] final  174.91 input  -60.55 | X-H torsion
[ 11005 11000 10999 10996 ] final -114.93 input  -57.11 | X-H torsion

> <Gold.Protein.ActiveResidues>
 VAL166  LYS551  ARG553  GLY616  TRP617  ASP618  TYR619  PRO620  LYS621  CYS622 
 ASP623  PHE694  ASN695  SER759  ASP760  ASP761  ALA762  ILE779  LEU786  VAL792 
 PHE793  MET794  SER795  GLU796  ALA797  LYS798  CYS799  TRP800  GLU811  SER814 

> <Gold.Protein.RotatedAtoms>
  152.4319  134.5762  159.9934 H   0  0  0  0  0  0  0  0  0  0  0  0  # atno 6907 bound_to 6896
  151.5883  133.3364  159.3030 H   0  0  0  0  0  0  0  0  0  0  0  0  # atno 6908 bound_to 6896
  150.8212  134.7457  159.6839 H   0  0  0  0  0  0  0  0  0  0  0  0  # atno 6909 bound_to 6896
  146.2347  140.2062  142.8334 H   0  0  0  0  0  0  0  0  0  0  0  0  # atno 7974 bound_to 7965
  155.6776  140.3496  155.4842 H   0  0  0  0  0  0  0  0  0  0  0  0  # atno 8008 bound_to 7997
  155.9634  140.1142  157.0898 H   0  0  0  0  0  0  0  0  0  0  0  0  # atno 8009 bound_to 7997
  154.4148  140.1171  156.5196 H   0  0  0  0  0  0  0  0  0  0  0  0  # atno 8010 bound_to 7997
  140.0855  143.4748  152.1901 H   0  0  0  0  0  0  0  0  0  0  0  0  # atno 10167 bound_to 10162
  156.0143  130.4493  150.3357 H   0  0  0  0  0  0  0  0  0  0  0  0  # atno 10718 bound_to 10713
  154.4604  135.2767  155.1717 H   0  0  0  0  0  0  0  0  0  0  0  0  # atno 10763 bound_to 10752
  154.3507  135.6150  153.5645 H   0  0  0  0  0  0  0  0  0  0  0  0  # atno 10764 bound_to 10752
  152.9854  135.5810  154.4966 H   0  0  0  0  0  0  0  0  0  0  0  0  # atno 10765 bound_to 10752
  141.0520  133.9671  157.2819 H   0  0  0  0  0  0  0  0  0  0  0  0  # atno 11005 bound_to 11000
  144.9742  140.8398  143.5436 LP  0  0  0  0  0  0  0  0  0  0  0  0  # atno 17320 bound_to 7965
  145.2047  139.2234  143.5174 LP  0  0  0  0  0  0  0  0  0  0  0  0  # atno 17321 bound_to 7965
  139.5755  144.7485  151.3777 LP  0  0  0  0  0  0  0  0  0  0  0  0  # atno 17342 bound_to 10162
  140.7056  143.7522  150.7476 LP  0  0  0  0  0  0  0  0  0  0  0  0  # atno 17343 bound_to 10162
  157.1454  131.0307  151.2909 LP  0  0  0  0  0  0  0  0  0  0  0  0  # atno 17370 bound_to 10713
  157.4437  130.7558  149.7091 LP  0  0  0  0  0  0  0  0  0  0  0  0  # atno 17371 bound_to 10713
  139.9359  135.0196  156.8552 LP  0  0  0  0  0  0  0  0  0  0  0  0  # atno 17394 bound_to 11000
  140.6036  134.0148  155.7547 LP  0  0  0  0  0  0  0  0  0  0  0  0  # atno 17395 bound_to 11000

$$$$
