AV-unprocessed.smi:72|AV-procd|sdf|680|dock7
  -GOLD-   2262016593D 1   1.00000     0.00000
 Structure written by MMmdl.
 29 30  0  0  0  0  0  0  0  0  1 V2000
  143.2227  133.0308  148.1754 N   0  0  0  0  0  0  0  0  0  0  0  0
  143.9559  132.7714  149.1978 C   0  0  0  0  0  0  0  0  0  0  0  0
  145.1609  132.0535  149.1715 N   0  0  0  0  0  0  0  0  0  0  0  0
  145.7971  131.8656  150.2867 C   0  0  0  0  0  0  0  0  0  0  0  0
  145.2999  132.3719  151.5585 N   0  0  0  0  0  0  0  0  0  0  0  0
  146.0451  132.1561  152.8626 C   0  0  1  0  0  0  0  0  0  0  0  0
  147.1595  131.3367  152.6398 O   0  0  0  0  0  0  0  0  0  0  0  0
  148.3529  132.0814  152.8534 C   0  0  2  0  0  0  0  0  0  0  0  0
  149.5348  131.1441  153.1608 C   0  0  0  0  0  0  0  0  0  0  0  0
  149.2600  130.2762  154.2410 O   0  0  0  0  0  0  0  0  0  0  0  0
  147.9631  133.0948  153.9300 C   0  0  1  0  0  0  0  0  0  0  0  0
  148.8494  134.1958  154.0073 O   0  0  0  0  0  0  0  0  0  0  0  0
  146.5471  133.4743  153.5060 C   0  0  1  0  0  0  0  0  0  0  0  0
  146.5292  134.5817  152.6168 O   0  0  0  0  0  0  0  0  0  0  0  0
  144.0909  133.1082  151.5983 C   0  0  0  0  0  0  0  0  0  0  0  0
  143.6399  133.5775  152.6429 O   0  0  0  0  0  0  0  0  0  0  0  0
  143.4666  133.2701  150.4118 N   0  0  0  0  0  0  0  0  0  0  0  0
  145.3613  131.6004  153.5065 H   0  0  0  0  0  0  0  0  0  0  0  0
  148.5671  132.6135  151.9249 H   0  0  0  0  0  0  0  0  0  0  0  0
  147.9138  132.6126  154.9067 H   0  0  0  0  0  0  0  0  0  0  0  0
  145.9261  133.7198  154.3679 H   0  0  0  0  0  0  0  0  0  0  0  0
  142.4104  133.5609  148.4574 H   0  0  0  0  0  0  0  0  0  0  0  0
  146.7400  131.3210  150.3353 H   0  0  0  0  0  0  0  0  0  0  0  0
  149.7995  130.5598  152.2792 H   0  0  0  0  0  0  0  0  0  0  0  0
  150.4115  131.7353  153.4255 H   0  0  0  0  0  0  0  0  0  0  0  0
  149.1551  129.3995  153.9038 H   0  0  0  0  0  0  0  0  0  0  0  0
  149.0494  134.4813  153.1291 H   0  0  0  0  0  0  0  0  0  0  0  0
  146.7576  134.2747  151.7528 H   0  0  0  0  0  0  0  0  0  0  0  0
  142.5995  133.7871  150.4045 H   0  0  0  0  0  0  0  0  0  0  0  0
  1  2  2  0  0  0  0
  1 22  1  0  0  0  0
  2 17  1  0  0  0  0
  2  3  1  0  0  0  0
  3  4  2  0  0  0  0
  4  5  1  0  0  0  0
  4 23  1  0  0  0  0
  5  6  1  0  0  0  0
  5 15  1  0  0  0  0
  6 18  1  0  0  0  0
  6 13  1  0  0  0  0
  6  7  1  0  0  0  0
  7  8  1  0  0  0  0
  8 19  1  0  0  0  0
  8  9  1  0  0  0  0
  8 11  1  0  0  0  0
  9 10  1  0  0  0  0
  9 24  1  0  0  0  0
  9 25  1  0  0  0  0
 10 26  1  0  0  0  0
 11 20  1  0  0  0  0
 11 12  1  0  0  0  0
 11 13  1  0  0  0  0
 12 27  1  0  0  0  0
 13 21  1  0  0  0  0
 13 14  1  0  0  0  0
 14 28  1  0  0  0  0
 15 16  2  0  0  0  0
 15 17  1  0  0  0  0
 17 29  1  0  0  0  0
M  END
> <s_m_source_file>
AV-unprocessed.smi

> <i_m_source_file_index>
72

> <i_lp_mmshare_version>
43012

> <i_f3d_flags>
0

> <s_epik_input>
W05IMl1jMW5bY0hdbihjKD1PKW4xKVtDQEBIXTJPW0NASF0oW0NIMl1bT0hdKVtDQEBIXShbT0hdKVtDQEhdMltPSF0=

> <s_epik_cmdline>
J2VwaWtfcHl0aG9uJywgJy1waCcsICc3LjAnLCAnLXRuJywgJzgnLCAnLW1hJywgJzIwMCcsICctbWV0YWxfYmluZGluZycsICctaW1hZScsICc8aW5maWxlLm1hZT4nLCAnLW9tYWUnLCAnPG91dGZpbGUubWFlPic=

> <r_lp_tautomer_probability>
7.17554e-07

> <r_epik_Ionization_Penalty>
0.0066451

> <r_epik_Ionization_Penalty_Charging>
0.00663793

> <r_epik_Ionization_Penalty_Neutral>
7.17052e-06

> <r_epik_State_Penalty>
0.419231

> <r_epik_Charging_Adjusted_Penalty>
0.425868

> <i_epik_Tot_Q>
0

> <i_epik_Tot_abs_Q>
0

> <r_epik_Metal_State_Penalty>
1.44144

> <b_epik_Metal_Only>
0

> <s_epik_Chemistry_Notes>
This compound contains an acetal/aminal-like group ( X-CH(R)-Y where X, Y are N, S, or O) that may be acid/base labile, releasing an aldehyde.

> <s_lp_Force_Field>
OPLS_2005

> <r_lp_Energy>
48.597

> <b_lp_Chiralities_Consistent>
1

> <s_lp_Variant>
AV-unprocessed.smi:72-18

> <Gold.Version>
5.8.1

> <Gold.Id.Protein>
6NUR|6NUR_protein|mol2

> <Gold.PLP.Fitness>
39.1894

> <Gold.PLP.PLP>
-27.5677

> <Gold.PLP.part.hbond>
-4.8535

> <Gold.PLP.part.metal>
0.0000

> <Gold.PLP.part.buried>
-6.7212

> <Gold.PLP.part.nonpolar>
-16.1325

> <Gold.PLP.part.repulsive>
0.5117

> <Gold.PLP.ligand.clash>
0.0000

> <Gold.PLP.ligand.torsion>
0.0474

> <Gold.PLP.Chemscore.Hbond>
2.8938

> <Gold.PLP.Chemscore.CHOScore>
0.9957

> <Gold.PLP.Chemscore.Metal>
0.0000

> <Gold.Chemscore.Hbonds>
donor molecule, donor type, donor heavy atom, donor atom, acceptor molecule, acceptor atom, score
      L1  H     1    22       P1 10186  1.00
      L1  H    12    27       P1  7948  0.34
      L1  H    17    29       P1 10186  1.00
      L1  C     4    23       P1 10747  1.00

> <Gold.PLP.Chemscore.Internal.Correction>
0.0482

> <Gold.Rescore>
     Score         DG    S(hbond)    S(metal)    S(lipo)     H(rot)  DE(clash)    DE(int)     intcor
      6.29      -6.53       2.82        0.00      17.34       4.06       0.08       0.16       ----

> <Gold.Chemscore.Fitness>
6.2891

> <Gold.Chemscore.DG>
-6.5264

> <Gold.Chemscore.ZeroCoef>
-5.4800

> <Gold.Chemscore.Hbond>
2.8178

> <Gold.Chemscore.Metal>
0.0000

> <Gold.Chemscore.Lipo>
17.3390

> <Gold.Chemscore.Internal_Hbond>
0.0000

> <Gold.Chemscore.DEClash>
0.0799

> <Gold.Chemscore.DEInternal>
0.1574

> <Gold.Chemscore.Rot>
4.0600

> <Gold.Chemscore.Internal.Correction>
   9.000000E+99

> <Gold.Chemscore.Hbonds>
donor molecule, donor type, donor heavy atom, donor atom, acceptor molecule, acceptor atom, score
      L1  H     1    22       P1 10186  0.99
      L1  H    12    27       P1  7948  0.02
      L1  H    17    29       P1 10186  0.94

> <Gold.Chemscore.Hbond.Weighted>
-9.4114

> <Gold.Chemscore.Metal.Weighted>
-0.0000

> <Gold.Chemscore.Lipo.Weighted>
-2.0287

> <Gold.Chemscore.Internal_Hbond.Weighted>
0.0000

> <Gold.Chemscore.DEClash.Weighted>
0.0799

> <Gold.Chemscore.DEInternal.Weighted>
0.1574

> <Gold.Chemscore.Rot.Weighted>
10.3936

> <Gold.Chemscore.Internal.Correction.Weighted>
   9.000000E+99

> <Gold.Protein.RotatedTorsions>
[ 6907 6896 6895 6894 ] final  146.41 input  -60.11 | X-H torsion
[ 7974 7965 7964 7962 ] final  -95.47 input  175.53 | X-H torsion
[ 8008 7997 7996 7995 ] final -123.10 input   59.86 | X-H torsion
[ 10167 10162 10161 10158 ] final   37.14 input  -65.29 | X-H torsion
[ 10718 10713 10712 10709 ] final  -56.88 input   66.30 | X-H torsion
[ 10763 10752 10751 10750 ] final   88.04 input  -60.55 | X-H torsion
[ 11005 11000 10999 10996 ] final  110.54 input  -57.11 | X-H torsion

> <Gold.Protein.ActiveResidues>
 VAL166  LYS551  ARG553  GLY616  TRP617  ASP618  TYR619  PRO620  LYS621  CYS622 
 ASP623  PHE694  ASN695  SER759  ASP760  ASP761  ALA762  ILE779  LEU786  VAL792 
 PHE793  MET794  SER795  GLU796  ALA797  LYS798  CYS799  TRP800  GLU811  SER814 

> <Gold.Protein.RotatedAtoms>
  152.1682  133.4626  159.4895 H   0  0  0  0  0  0  0  0  0  0  0  0  # atno 6907 bound_to 6896
  150.6916  134.1986  159.4322 H   0  0  0  0  0  0  0  0  0  0  0  0  # atno 6908 bound_to 6896
  151.9892  134.9988  160.0611 H   0  0  0  0  0  0  0  0  0  0  0  0  # atno 6909 bound_to 6896
  145.3597  140.9490  143.2508 H   0  0  0  0  0  0  0  0  0  0  0  0  # atno 7974 bound_to 7965
  155.1751  140.0409  157.2871 H   0  0  0  0  0  0  0  0  0  0  0  0  # atno 8008 bound_to 7997
  154.6242  140.2508  155.7484 H   0  0  0  0  0  0  0  0  0  0  0  0  # atno 8009 bound_to 7997
  156.2450  140.2888  156.0565 H   0  0  0  0  0  0  0  0  0  0  0  0  # atno 8010 bound_to 7997
  140.4061  144.1657  150.6136 H   0  0  0  0  0  0  0  0  0  0  0  0  # atno 10167 bound_to 10162
  156.1254  130.4163  150.0365 H   0  0  0  0  0  0  0  0  0  0  0  0  # atno 10718 bound_to 10713
  153.1728  135.4521  154.9926 H   0  0  0  0  0  0  0  0  0  0  0  0  # atno 10763 bound_to 10752
  154.7978  135.3244  154.7627 H   0  0  0  0  0  0  0  0  0  0  0  0  # atno 10764 bound_to 10752
  153.8101  135.6955  153.4897 H   0  0  0  0  0  0  0  0  0  0  0  0  # atno 10765 bound_to 10752
  139.8884  134.9486  156.6294 H   0  0  0  0  0  0  0  0  0  0  0  0  # atno 11005 bound_to 11000
  144.8656  139.5113  143.6792 LP  0  0  0  0  0  0  0  0  0  0  0  0  # atno 17320 bound_to 7965
  146.2933  139.7202  142.9145 LP  0  0  0  0  0  0  0  0  0  0  0  0  # atno 17321 bound_to 7965
  140.4688  143.2421  151.9118 LP  0  0  0  0  0  0  0  0  0  0  0  0  # atno 17342 bound_to 10162
  139.4783  144.5392  151.8554 LP  0  0  0  0  0  0  0  0  0  0  0  0  # atno 17343 bound_to 10162
  156.8292  130.9386  151.3638 LP  0  0  0  0  0  0  0  0  0  0  0  0  # atno 17370 bound_to 10713
  157.6435  130.8825  149.9494 LP  0  0  0  0  0  0  0  0  0  0  0  0  # atno 17371 bound_to 10713
  140.7678  133.8763  155.8468 LP  0  0  0  0  0  0  0  0  0  0  0  0  # atno 17394 bound_to 11000
  140.9867  134.1333  157.4445 LP  0  0  0  0  0  0  0  0  0  0  0  0  # atno 17395 bound_to 11000

$$$$
