AV-unprocessed.smi:2416|AV-procd|sdf|9545|dock1
  -GOLD-   2272013173D 1   1.00000     0.00000
 Structure written by MMmdl.
 40 41  0  0  0  0  0  0  0  0  1 V2000
  157.6824  134.3420  163.2561 C   0  0  0  0  0  0  0  0  0  0  0  0
  156.9109  135.4825  163.6118 O   0  0  0  0  0  0  0  0  0  0  0  0
  155.5372  135.5041  163.1988 C   0  0  2  0  0  0  0  0  0  0  0  0
  154.7739  134.3213  163.8080 C   0  0  0  0  0  0  0  0  0  0  0  0
  155.4409  135.7657  161.6831 C   0  0  0  0  0  0  0  0  0  0  0  0
  155.5794  137.2519  162.0066 C   0  0  1  0  0  0  0  0  0  0  0  0
  154.7544  138.0972  161.1492 N   0  0  0  0  0  0  0  0  0  0  0  0
  154.4968  139.3905  161.3886 C   0  0  0  0  0  0  0  0  0  0  0  0
  154.9298  139.9962  162.3695 O   0  0  0  0  0  0  0  0  0  0  0  0
  153.7154  139.9193  160.4300 N   0  0  0  0  0  0  0  0  0  0  0  0
  153.2320  141.2514  160.3278 C   0  0  0  0  0  0  0  0  0  0  0  0
  153.1536  141.9553  161.5513 C   0  0  0  0  0  0  0  0  0  0  0  0
  152.6840  143.2833  161.5581 C   0  0  0  0  0  0  0  0  0  0  0  0
  152.3060  143.8728  160.3387 C   0  0  0  0  0  0  0  0  0  0  0  0
  151.8486  145.1466  160.2953 F   0  0  0  0  0  0  0  0  0  0  0  0
  152.4159  143.1048  159.1650 C   0  0  0  0  0  0  0  0  0  0  0  0
  152.8651  141.8317  159.1574 N   0  0  0  0  0  0  0  0  0  0  0  0
  154.9820  136.9518  163.4059 C   0  0  0  0  0  0  0  0  0  0  0  0
  153.4528  137.0741  163.5477 C   0  0  0  0  0  0  0  0  0  0  0  0
  155.5723  137.7530  164.5716 C   0  0  0  0  0  0  0  0  0  0  0  0
  158.7298  134.5364  163.4866 H   0  0  0  0  0  0  0  0  0  0  0  0
  157.6157  134.1086  162.1940 H   0  0  0  0  0  0  0  0  0  0  0  0
  157.3852  133.4630  163.8275 H   0  0  0  0  0  0  0  0  0  0  0  0
  153.7073  134.3733  163.5923 H   0  0  0  0  0  0  0  0  0  0  0  0
  154.8868  134.2936  164.8919 H   0  0  0  0  0  0  0  0  0  0  0  0
  155.1157  133.3661  163.4100 H   0  0  0  0  0  0  0  0  0  0  0  0
  156.2498  135.3642  161.0734 H   0  0  0  0  0  0  0  0  0  0  0  0
  154.4681  135.4964  161.2677 H   0  0  0  0  0  0  0  0  0  0  0  0
  156.6277  137.5569  162.0490 H   0  0  0  0  0  0  0  0  0  0  0  0
  154.3625  137.6708  160.3225 H   0  0  0  0  0  0  0  0  0  0  0  0
  153.4392  139.2986  159.6838 H   0  0  0  0  0  0  0  0  0  0  0  0
  153.4481  141.4858  162.4785 H   0  0  0  0  0  0  0  0  0  0  0  0
  152.6152  143.8380  162.4823 H   0  0  0  0  0  0  0  0  0  0  0  0
  152.1365  143.5210  158.2084 H   0  0  0  0  0  0  0  0  0  0  0  0
  153.1264  138.1137  163.5051 H   0  0  0  0  0  0  0  0  0  0  0  0
  153.1059  136.6677  164.4984 H   0  0  0  0  0  0  0  0  0  0  0  0
  152.9215  136.5419  162.7586 H   0  0  0  0  0  0  0  0  0  0  0  0
  155.1812  138.7704  164.5980 H   0  0  0  0  0  0  0  0  0  0  0  0
  156.6567  137.8391  164.5000 H   0  0  0  0  0  0  0  0  0  0  0  0
  155.3463  137.2866  165.5309 H   0  0  0  0  0  0  0  0  0  0  0  0
  1  2  1  0  0  0  0
  1 21  1  0  0  0  0
  1 22  1  0  0  0  0
  1 23  1  0  0  0  0
  2  3  1  0  0  0  0
  3 18  1  0  0  0  0
  3  4  1  0  0  0  0
  3  5  1  0  0  0  0
  4 24  1  0  0  0  0
  4 25  1  0  0  0  0
  4 26  1  0  0  0  0
  5  6  1  0  0  0  0
  5 27  1  0  0  0  0
  5 28  1  0  0  0  0
  6  7  1  0  0  0  0
  6 18  1  0  0  0  0
  6 29  1  0  0  0  0
  7  8  1  0  0  0  0
  7 30  1  0  0  0  0
  8  9  2  0  0  0  0
  8 10  1  0  0  0  0
 10 11  1  0  0  0  0
 10 31  1  0  0  0  0
 11 17  1  0  0  0  0
 11 12  2  0  0  0  0
 12 13  1  0  0  0  0
 12 32  1  0  0  0  0
 13 14  2  0  0  0  0
 13 33  1  0  0  0  0
 14 15  1  0  0  0  0
 14 16  1  0  0  0  0
 16 17  2  0  0  0  0
 16 34  1  0  0  0  0
 18 19  1  0  0  0  0
 18 20  1  0  0  0  0
 19 35  1  0  0  0  0
 19 36  1  0  0  0  0
 19 37  1  0  0  0  0
 20 38  1  0  0  0  0
 20 39  1  0  0  0  0
 20 40  1  0  0  0  0
M  END
> <s_m_source_file>
AV-unprocessed.smi

> <i_m_source_file_index>
2416

> <i_lp_mmshare_version>
43012

> <i_f3d_flags>
0

> <s_epik_input>
W0NIM11PW0NAQF0xKFtDSDNdKVtDSDJdW0NASF0oQzEoW0NIM10pW0NIM10pW05IXUMoPU8pW05IXWMyW2NIXVtjSF1jKEYpW2NIXW4y

> <s_epik_cmdline>
J2VwaWtfcHl0aG9uJywgJy1waCcsICc3LjAnLCAnLXRuJywgJzgnLCAnLW1hJywgJzIwMCcsICctbWV0YWxfYmluZGluZycsICctaW1hZScsICc8aW5maWxlLm1hZT4nLCAnLW9tYWUnLCAnPG91dGZpbGUubWFlPic=

> <r_lp_tautomer_probability>
1

> <r_epik_Ionization_Penalty>
3.67756e-05

> <r_epik_Ionization_Penalty_Charging>
0

> <r_epik_Ionization_Penalty_Neutral>
3.67756e-05

> <r_epik_State_Penalty>
-0

> <r_epik_Charging_Adjusted_Penalty>
0

> <i_epik_Tot_Q>
0

> <i_epik_Tot_abs_Q>
0

> <r_epik_Metal_State_Penalty>
-0

> <b_epik_Metal_Only>
0

> <s_lp_Force_Field>
OPLS_2005

> <r_lp_Energy>
27.4355

> <b_lp_Chiralities_Consistent>
1

> <s_lp_Variant>
AV-unprocessed.smi:2416-2

> <Gold.Version>
5.8.1

> <Gold.Id.Protein>
6NUR|6NUR_protein|mol2

> <Gold.PLP.Fitness>
37.4653

> <Gold.PLP.PLP>
-37.7241

> <Gold.PLP.part.hbond>
0.0000

> <Gold.PLP.part.metal>
0.0000

> <Gold.PLP.part.buried>
-5.8602

> <Gold.PLP.part.nonpolar>
-31.5140

> <Gold.PLP.part.repulsive>
0.0716

> <Gold.PLP.ligand.clash>
0.0000

> <Gold.PLP.ligand.torsion>
0.3159

> <Gold.PLP.Chemscore.Hbond>
0.0000

> <Gold.PLP.Chemscore.CHOScore>
0.0000

> <Gold.PLP.Chemscore.Metal>
0.0000

> <Gold.PLP.Chemscore.Internal.Correction>
0.3730

> <Gold.Rescore>
     Score         DG    S(hbond)    S(metal)    S(lipo)     H(rot)  DE(clash)    DE(int)     intcor
     11.43     -13.27       0.00        0.00      94.23       1.27       0.09       1.74       ----

> <Gold.Chemscore.Fitness>
11.4319

> <Gold.Chemscore.DG>
-13.2656

> <Gold.Chemscore.ZeroCoef>
-5.4800

> <Gold.Chemscore.Hbond>
0.0000

> <Gold.Chemscore.Metal>
0.0000

> <Gold.Chemscore.Lipo>
94.2292

> <Gold.Chemscore.Internal_Hbond>
0.0000

> <Gold.Chemscore.DEClash>
0.0931

> <Gold.Chemscore.DEInternal>
1.7406

> <Gold.Chemscore.Rot>
1.2653

> <Gold.Chemscore.Internal.Correction>
   9.000000E+99

> <Gold.Chemscore.Hbond.Weighted>
-0.0000

> <Gold.Chemscore.Metal.Weighted>
-0.0000

> <Gold.Chemscore.Lipo.Weighted>
-11.0248

> <Gold.Chemscore.Internal_Hbond.Weighted>
0.0000

> <Gold.Chemscore.DEClash.Weighted>
0.0931

> <Gold.Chemscore.DEInternal.Weighted>
1.7406

> <Gold.Chemscore.Rot.Weighted>
3.2392

> <Gold.Chemscore.Internal.Correction.Weighted>
   9.000000E+99

> <Gold.Protein.RotatedTorsions>
[ 6907 6896 6895 6894 ] final   47.22 input  -60.11 | X-H torsion
[ 7974 7965 7964 7962 ] final   56.14 input  175.53 | X-H torsion
[ 8008 7997 7996 7995 ] final   37.43 input   59.86 | X-H torsion
[ 10167 10162 10161 10158 ] final  -44.17 input  -65.29 | X-H torsion
[ 10718 10713 10712 10709 ] final   16.10 input   66.30 | X-H torsion
[ 10763 10752 10751 10750 ] final   39.08 input  -60.55 | X-H torsion
[ 11005 11000 10999 10996 ] final  -39.80 input  -57.11 | X-H torsion

> <Gold.Protein.ActiveResidues>
 VAL166  LYS551  ARG553  GLY616  TRP617  ASP618  TYR619  PRO620  LYS621  CYS622 
 ASP623  PHE694  ASN695  SER759  ASP760  ASP761  ALA762  ILE779  LEU786  VAL792 
 PHE793  MET794  SER795  GLU796  ALA797  LYS798  CYS799  TRP800  GLU811  SER814 

> <Gold.Protein.RotatedAtoms>
  152.2655  134.7989  160.0423 H   0  0  0  0  0  0  0  0  0  0  0  0  # atno 6907 bound_to 6896
  151.8620  133.3454  159.3715 H   0  0  0  0  0  0  0  0  0  0  0  0  # atno 6908 bound_to 6896
  150.7132  134.5124  159.5658 H   0  0  0  0  0  0  0  0  0  0  0  0  # atno 6909 bound_to 6896
  145.9430  139.3905  143.0352 H   0  0  0  0  0  0  0  0  0  0  0  0  # atno 7974 bound_to 7965
  155.2036  140.3318  155.4339 H   0  0  0  0  0  0  0  0  0  0  0  0  # atno 8008 bound_to 7997
  156.2397  140.1889  156.7071 H   0  0  0  0  0  0  0  0  0  0  0  0  # atno 8009 bound_to 7997
  154.6124  140.0607  156.9497 H   0  0  0  0  0  0  0  0  0  0  0  0  # atno 8010 bound_to 7997
  140.6907  143.2944  151.3457 H   0  0  0  0  0  0  0  0  0  0  0  0  # atno 10167 bound_to 10162
  157.0630  130.6317  149.5790 H   0  0  0  0  0  0  0  0  0  0  0  0  # atno 10718 bound_to 10713
  152.9979  135.6231  154.2407 H   0  0  0  0  0  0  0  0  0  0  0  0  # atno 10763 bound_to 10752
  154.2148  135.2798  155.2947 H   0  0  0  0  0  0  0  0  0  0  0  0  # atno 10764 bound_to 10752
  154.5577  135.5714  153.7037 H   0  0  0  0  0  0  0  0  0  0  0  0  # atno 10765 bound_to 10752
  141.0129  133.6899  156.2236 H   0  0  0  0  0  0  0  0  0  0  0  0  # atno 11005 bound_to 11000
  145.8274  140.9648  143.0867 LP  0  0  0  0  0  0  0  0  0  0  0  0  # atno 17320 bound_to 7965
  144.6782  140.0119  143.7484 LP  0  0  0  0  0  0  0  0  0  0  0  0  # atno 17321 bound_to 7965
  139.6307  144.0727  152.2473 LP  0  0  0  0  0  0  0  0  0  0  0  0  # atno 17342 bound_to 10162
  140.0200  144.6160  150.7574 LP  0  0  0  0  0  0  0  0  0  0  0  0  # atno 17343 bound_to 10162
  155.9973  130.5044  150.7528 LP  0  0  0  0  0  0  0  0  0  0  0  0  # atno 17370 bound_to 10713
  157.4939  131.0913  151.0394 LP  0  0  0  0  0  0  0  0  0  0  0  0  # atno 17371 bound_to 10713
  140.6704  134.4874  157.5587 LP  0  0  0  0  0  0  0  0  0  0  0  0  # atno 17394 bound_to 11000
  139.9100  134.8366  156.1564 LP  0  0  0  0  0  0  0  0  0  0  0  0  # atno 17395 bound_to 11000

$$$$
