AV-unprocessed.smi:3080|AV-procd|sdf|11738|dock4
  -GOLD-   2272017133D 1   1.00000     0.00000
 Structure written by MMmdl.
 27 28  0  0  0  0  0  0  0  0  2 V2000
  153.6075  141.9033  161.8452 C   0  0  0  0  0  0  0  0  0  0  0  0
  153.1643  143.1394  162.3537 C   0  0  0  0  0  0  0  0  0  0  0  0
  152.4114  143.9863  161.5170 C   0  0  0  0  0  0  0  0  0  0  0  0
  152.1321  143.5560  160.2023 C   0  0  0  0  0  0  0  0  0  0  0  0
  151.3320  144.4280  159.2535 C   0  0  0  0  0  0  0  0  0  0  0  0
  152.0158  144.5770  157.8875 C   0  0  0  0  0  0  0  0  0  0  0  0
  151.2799  143.8431  156.8410 N   0  3  0  0  0  0  0  0  0  0  0  0
  150.9654  142.4493  157.2087 C   0  0  0  0  0  0  0  0  0  0  0  0
  150.2281  141.6866  156.1353 C   0  0  0  0  0  0  0  0  0  0  0  0
  149.4860  142.1925  157.3550 C   0  0  0  0  0  0  0  0  0  0  0  0
  152.5557  142.3716  159.7069 N   0  0  0  0  0  0  0  0  0  0  0  0
  153.2769  141.5668  160.5175 C   0  0  0  0  0  0  0  0  0  0  0  0
  154.1871  141.2287  162.4582 H   0  0  0  0  0  0  0  0  0  0  0  0
  153.3981  143.4329  163.3664 H   0  0  0  0  0  0  0  0  0  0  0  0
  152.0598  144.9414  161.8791 H   0  0  0  0  0  0  0  0  0  0  0  0
  150.3386  143.9938  159.1300 H   0  0  0  0  0  0  0  0  0  0  0  0
  151.1836  145.4091  159.7067 H   0  0  0  0  0  0  0  0  0  0  0  0
  152.0735  145.6309  157.6115 H   0  0  0  0  0  0  0  0  0  0  0  0
  153.0380  144.1989  157.9354 H   0  0  0  0  0  0  0  0  0  0  0  0
  150.4135  144.3295  156.6587 H   0  0  0  0  0  0  0  0  0  0  0  0
  151.6708  141.9516  157.8719 H   0  0  0  0  0  0  0  0  0  0  0  0
  150.0378  142.1860  155.1870 H   0  0  0  0  0  0  0  0  0  0  0  0
  150.4061  140.6153  156.0686 H   0  0  0  0  0  0  0  0  0  0  0  0
  149.1744  141.4521  158.0893 H   0  0  0  0  0  0  0  0  0  0  0  0
  148.7996  143.0258  157.2150 H   0  0  0  0  0  0  0  0  0  0  0  0
  153.6009  140.6272  160.0949 H   0  0  0  0  0  0  0  0  0  0  0  0
  151.8328  143.8382  155.9959 H   0  0  0  0  0  0  0  0  0  0  0  0
  1 12  1  0  0  0  0
  1  2  2  0  0  0  0
  1 13  1  0  0  0  0
  2  3  1  0  0  0  0
  2 14  1  0  0  0  0
  3  4  2  0  0  0  0
  3 15  1  0  0  0  0
  4  5  1  0  0  0  0
  4 11  1  0  0  0  0
  5  6  1  0  0  0  0
  5 16  1  0  0  0  0
  5 17  1  0  0  0  0
  6  7  1  0  0  0  0
  6 18  1  0  0  0  0
  6 19  1  0  0  0  0
  7  8  1  0  0  0  0
  7 20  1  0  0  0  0
  7 27  1  0  0  0  0
  8 10  1  0  0  0  0
  8  9  1  0  0  0  0
  8 21  1  0  0  0  0
  9 10  1  0  0  0  0
  9 22  1  0  0  0  0
  9 23  1  0  0  0  0
 10 24  1  0  0  0  0
 10 25  1  0  0  0  0
 11 12  2  0  0  0  0
 12 26  1  0  0  0  0
M  CHG  1   7   1
M  END
> <s_m_source_file>
AV-unprocessed.smi

> <i_m_source_file_index>
3080

> <i_lp_mmshare_version>
43012

> <i_f3d_flags>
0

> <s_epik_input>
bjFbY0hdW2NIXVtjSF1bY0hdYzFbQ0gyXVtDSDJdW05IXVtDSF0yW0NIMl1bQ0gyXTI=

> <s_epik_cmdline>
J2VwaWtfcHl0aG9uJywgJy1waCcsICc3LjAnLCAnLXRuJywgJzgnLCAnLW1hJywgJzIwMCcsICctbWV0YWxfYmluZGluZycsICctaW1hZScsICc8aW5maWxlLm1hZT4nLCAnLW9tYWUnLCAnPG91dGZpbGUubWFlPic=

> <r_epik_Ionization_Penalty>
0.0260151

> <r_epik_Ionization_Penalty_Charging>
0.024724

> <r_epik_Ionization_Penalty_Neutral>
0.00129111

> <r_epik_State_Penalty>
0.0109584

> <r_epik_Charging_Adjusted_Penalty>
0.0356824

> <i_epik_Tot_Q>
1

> <i_epik_Tot_abs_Q>
1

> <r_epik_Metal_State_Penalty>
0.00998059

> <b_epik_Metal_Only>
0

> <s_lp_Force_Field>
OPLS_2005

> <r_lp_Energy>
12.7619

> <b_lp_Chiralities_Consistent>
1

> <s_lp_Variant>
AV-unprocessed.smi:3080-1

> <Gold.Version>
5.8.1

> <Gold.Id.Protein>
6NUR|6NUR_protein|mol2

> <Gold.PLP.Fitness>
42.5728

> <Gold.PLP.PLP>
-37.6415

> <Gold.PLP.part.hbond>
-1.0000

> <Gold.PLP.part.metal>
0.0000

> <Gold.PLP.part.buried>
-5.1374

> <Gold.PLP.part.nonpolar>
-29.7137

> <Gold.PLP.part.repulsive>
0.0200

> <Gold.PLP.ligand.clash>
0.0000

> <Gold.PLP.ligand.torsion>
0.8481

> <Gold.PLP.Chemscore.Hbond>
2.0000

> <Gold.PLP.Chemscore.CHOScore>
0.0000

> <Gold.PLP.Chemscore.Metal>
0.0000

> <Gold.Chemscore.Hbonds>
donor molecule, donor type, donor heavy atom, donor atom, acceptor molecule, acceptor atom, score
      L1  H     7    20       P1  8028  2.00

> <Gold.PLP.Chemscore.Internal.Correction>
0.6276

> <Gold.Rescore>
     Score         DG    S(hbond)    S(metal)    S(lipo)     H(rot)  DE(clash)    DE(int)     intcor
     16.35     -17.08       1.00        0.00     101.68       1.42       0.03       0.70       ----

> <Gold.Chemscore.Fitness>
16.3540

> <Gold.Chemscore.DG>
-17.0840

> <Gold.Chemscore.ZeroCoef>
-5.4800

> <Gold.Chemscore.Hbond>
0.9989

> <Gold.Chemscore.Metal>
0.0000

> <Gold.Chemscore.Lipo>
101.6798

> <Gold.Chemscore.Internal_Hbond>
0.0000

> <Gold.Chemscore.DEClash>
0.0252

> <Gold.Chemscore.DEInternal>
0.7049

> <Gold.Chemscore.Rot>
1.4175

> <Gold.Chemscore.Internal.Correction>
   9.000000E+99

> <Gold.Chemscore.Hbonds>
donor molecule, donor type, donor heavy atom, donor atom, acceptor molecule, acceptor atom, score
      L1  H     7    20       P1  8028  0.97

> <Gold.Chemscore.Hbond.Weighted>
-3.3364

> <Gold.Chemscore.Metal.Weighted>
-0.0000

> <Gold.Chemscore.Lipo.Weighted>
-11.8965

> <Gold.Chemscore.Internal_Hbond.Weighted>
0.0000

> <Gold.Chemscore.DEClash.Weighted>
0.0252

> <Gold.Chemscore.DEInternal.Weighted>
0.7049

> <Gold.Chemscore.Rot.Weighted>
3.6289

> <Gold.Chemscore.Internal.Correction.Weighted>
   9.000000E+99

> <Gold.Protein.RotatedTorsions>
[ 6907 6896 6895 6894 ] final   39.60 input  -60.11 | X-H torsion
[ 7974 7965 7964 7962 ] final -115.98 input  175.53 | X-H torsion
[ 8008 7997 7996 7995 ] final -106.92 input   59.86 | X-H torsion
[ 10167 10162 10161 10158 ] final   42.36 input  -65.29 | X-H torsion
[ 10718 10713 10712 10709 ] final -143.44 input   66.30 | X-H torsion
[ 10763 10752 10751 10750 ] final -159.76 input  -60.55 | X-H torsion
[ 11005 11000 10999 10996 ] final    0.45 input  -57.11 | X-H torsion

> <Gold.Protein.ActiveResidues>
 VAL166  LYS551  ARG553  GLY616  TRP617  ASP618  TYR619  PRO620  LYS621  CYS622 
 ASP623  PHE694  ASN695  SER759  ASP760  ASP761  ALA762  ILE779  LEU786  VAL792 
 PHE793  MET794  SER795  GLU796  ALA797  LYS798  CYS799  TRP800  GLU811  SER814 

> <Gold.Protein.RotatedAtoms>
  152.1716  134.8829  160.0533 H   0  0  0  0  0  0  0  0  0  0  0  0  # atno 6907 bound_to 6896
  151.9786  133.3745  159.4107 H   0  0  0  0  0  0  0  0  0  0  0  0  # atno 6908 bound_to 6896
  150.6903  134.3985  159.5152 H   0  0  0  0  0  0  0  0  0  0  0  0  # atno 6909 bound_to 6896
  145.1021  140.8558  143.3920 H   0  0  0  0  0  0  0  0  0  0  0  0  # atno 7974 bound_to 7965
  154.9216  140.0407  157.2001 H   0  0  0  0  0  0  0  0  0  0  0  0  # atno 8008 bound_to 7997
  154.8248  140.2889  155.5740 H   0  0  0  0  0  0  0  0  0  0  0  0  # atno 8009 bound_to 7997
  156.2982  140.2512  156.3162 H   0  0  0  0  0  0  0  0  0  0  0  0  # atno 8010 bound_to 7997
  140.3552  144.2299  150.6142 H   0  0  0  0  0  0  0  0  0  0  0  0  # atno 10167 bound_to 10162
  156.3580  130.7723  151.1886 H   0  0  0  0  0  0  0  0  0  0  0  0  # atno 10718 bound_to 10713
  154.7448  135.3077  154.8664 H   0  0  0  0  0  0  0  0  0  0  0  0  # atno 10763 bound_to 10752
  153.9469  135.6768  153.4748 H   0  0  0  0  0  0  0  0  0  0  0  0  # atno 10764 bound_to 10752
  153.1045  135.4896  154.8852 H   0  0  0  0  0  0  0  0  0  0  0  0  # atno 10765 bound_to 10752
  140.6264  133.9615  155.8251 H   0  0  0  0  0  0  0  0  0  0  0  0  # atno 11005 bound_to 11000
  145.0944  139.2867  143.5718 LP  0  0  0  0  0  0  0  0  0  0  0  0  # atno 17320 bound_to 7965
  146.3529  140.0491  142.8637 LP  0  0  0  0  0  0  0  0  0  0  0  0  # atno 17321 bound_to 7965
  140.5181  143.2273  151.8432 LP  0  0  0  0  0  0  0  0  0  0  0  0  # atno 17342 bound_to 10162
  139.4821  144.4870  151.9234 LP  0  0  0  0  0  0  0  0  0  0  0  0  # atno 17343 bound_to 10162
  157.7470  131.0408  150.4617 LP  0  0  0  0  0  0  0  0  0  0  0  0  # atno 17370 bound_to 10713
  156.4823  130.4076  149.6454 LP  0  0  0  0  0  0  0  0  0  0  0  0  # atno 17371 bound_to 10713
  141.0706  134.0210  157.3531 LP  0  0  0  0  0  0  0  0  0  0  0  0  # atno 17394 bound_to 11000
  139.9133  135.0193  156.7781 LP  0  0  0  0  0  0  0  0  0  0  0  0  # atno 17395 bound_to 11000

$$$$
