AV-unprocessed.smi:1344|AV-procd|sdf|5509|dock3
  -GOLD-   22720 5 93D 1   1.00000     0.00000
 Structure written by MMmdl.
 32 34  0  0  0  0  0  0  0  0  1 V2000
  150.1510  140.5352  157.0725 O   0  0  0  0  0  0  0  0  0  0  0  0
  149.7570  141.6685  156.7970 C   0  0  0  0  0  0  0  0  0  0  0  0
  149.6728  142.7358  157.8898 C   0  0  0  0  0  0  0  0  0  0  0  0
  151.0038  142.8894  158.5674 C   0  0  0  0  0  0  0  0  0  0  0  0
  151.6677  144.0652  158.8187 C   0  0  0  0  0  0  0  0  0  0  0  0
  153.1844  143.7989  159.6341 S   0  0  0  0  0  0  0  0  0  0  0  0
  152.8575  142.0638  159.6030 C   0  0  0  0  0  0  0  0  0  0  0  0
  153.6865  141.0364  160.1423 N   0  0  0  0  0  0  0  0  0  0  0  0
  154.3989  141.2093  161.4044 C   0  0  0  0  0  0  0  0  0  0  0  0
  155.1790  139.9081  161.5652 C   0  0  0  0  0  0  0  0  0  0  0  0
  154.7869  139.1713  160.3869 N   0  0  0  0  0  0  0  0  0  0  0  0
  153.9391  139.8311  159.5945 C   0  0  0  0  0  0  0  0  0  0  0  0
  153.4821  139.3773  158.5471 O   0  0  0  0  0  0  0  0  0  0  0  0
  151.6975  141.7581  159.0124 N   0  0  0  0  0  0  0  0  0  0  0  0
  149.3880  142.0494  155.5646 N   0  0  0  0  0  0  0  0  0  0  0  0
  149.4112  141.2287  154.3981 C   0  0  0  0  0  0  0  0  0  0  0  0
  148.0967  140.9843  153.6890 C   0  0  0  0  0  0  0  0  0  0  0  0
  148.7376  139.8759  154.4778 C   0  0  0  0  0  0  0  0  0  0  0  0
  149.3479  143.6815  157.4535 H   0  0  0  0  0  0  0  0  0  0  0  0
  148.9045  142.4506  158.6100 H   0  0  0  0  0  0  0  0  0  0  0  0
  151.3541  145.0704  158.5781 H   0  0  0  0  0  0  0  0  0  0  0  0
  155.0658  142.0715  161.3570 H   0  0  0  0  0  0  0  0  0  0  0  0
  153.6962  141.3561  162.2260 H   0  0  0  0  0  0  0  0  0  0  0  0
  156.2568  140.0745  161.5709 H   0  0  0  0  0  0  0  0  0  0  0  0
  154.8965  139.3682  162.4696 H   0  0  0  0  0  0  0  0  0  0  0  0
  155.1274  138.2407  160.1927 H   0  0  0  0  0  0  0  0  0  0  0  0
  149.0809  143.0035  155.4410 H   0  0  0  0  0  0  0  0  0  0  0  0
  150.2935  141.2873  153.7622 H   0  0  0  0  0  0  0  0  0  0  0  0
  147.2010  141.4431  154.1043 H   0  0  0  0  0  0  0  0  0  0  0  0
  148.1191  140.9067  152.6039 H   0  0  0  0  0  0  0  0  0  0  0  0
  149.1889  139.0580  153.9199 H   0  0  0  0  0  0  0  0  0  0  0  0
  148.2702  139.5940  155.4196 H   0  0  0  0  0  0  0  0  0  0  0  0
  1  2  2  0  0  0  0
  2  3  1  0  0  0  0
  2 15  1  0  0  0  0
  3  4  1  0  0  0  0
  3 19  1  0  0  0  0
  3 20  1  0  0  0  0
  4 14  1  0  0  0  0
  4  5  2  0  0  0  0
  5  6  1  0  0  0  0
  5 21  1  0  0  0  0
  6  7  1  0  0  0  0
  7  8  1  0  0  0  0
  7 14  2  0  0  0  0
  8 12  1  0  0  0  0
  8  9  1  0  0  0  0
  9 10  1  0  0  0  0
  9 22  1  0  0  0  0
  9 23  1  0  0  0  0
 10 11  1  0  0  0  0
 10 24  1  0  0  0  0
 10 25  1  0  0  0  0
 11 12  1  0  0  0  0
 11 26  1  0  0  0  0
 12 13  2  0  0  0  0
 15 16  1  0  0  0  0
 15 27  1  0  0  0  0
 16 18  1  0  0  0  0
 16 17  1  0  0  0  0
 16 28  1  0  0  0  0
 17 18  1  0  0  0  0
 17 29  1  0  0  0  0
 17 30  1  0  0  0  0
 18 31  1  0  0  0  0
 18 32  1  0  0  0  0
M  END
> <s_m_source_file>
AV-unprocessed.smi

> <i_m_source_file_index>
1344

> <i_lp_mmshare_version>
43012

> <i_f3d_flags>
0

> <s_epik_input>
W0NIMl0xW0NIMl1bQ0hdMVtOSF1DKD1PKVtDSDJdYzJbY0hdc2MobjIpTjNbQ0gyXVtDSDJdW05IXUMzPU8=

> <s_epik_cmdline>
J2VwaWtfcHl0aG9uJywgJy1waCcsICc3LjAnLCAnLXRuJywgJzgnLCAnLW1hJywgJzIwMCcsICctbWV0YWxfYmluZGluZycsICctaW1hZScsICc8aW5maWxlLm1hZT4nLCAnLW9tYWUnLCAnPG91dGZpbGUubWFlPic=

> <r_lp_tautomer_probability>
1

> <r_epik_Ionization_Penalty>
0.000119825

> <r_epik_Ionization_Penalty_Charging>
0

> <r_epik_Ionization_Penalty_Neutral>
0.000119825

> <r_epik_State_Penalty>
-0

> <r_epik_Charging_Adjusted_Penalty>
0

> <i_epik_Tot_Q>
0

> <i_epik_Tot_abs_Q>
0

> <r_epik_Metal_State_Penalty>
-0

> <b_epik_Metal_Only>
0

> <s_lp_Force_Field>
OPLS_2005

> <r_lp_Energy>
42.6691

> <b_lp_Chiralities_Consistent>
1

> <s_lp_Variant>
AV-unprocessed.smi:1344-1

> <Gold.Version>
5.8.1

> <Gold.Id.Protein>
6NUR|6NUR_protein|mol2

> <Gold.PLP.Fitness>
39.8905

> <Gold.PLP.PLP>
-35.4075

> <Gold.PLP.part.hbond>
-2.0000

> <Gold.PLP.part.metal>
0.0000

> <Gold.PLP.part.buried>
-2.2666

> <Gold.PLP.part.nonpolar>
-30.5343

> <Gold.PLP.part.repulsive>
0.2133

> <Gold.PLP.ligand.clash>
0.0000

> <Gold.PLP.ligand.torsion>
0.7813

> <Gold.PLP.Chemscore.Hbond>
2.0000

> <Gold.PLP.Chemscore.CHOScore>
0.0000

> <Gold.PLP.Chemscore.Metal>
0.0000

> <Gold.Chemscore.Hbonds>
donor molecule, donor type, donor heavy atom, donor atom, acceptor molecule, acceptor atom, score
      L1  H    15    27       P1  8028  1.00
      P1  H  7997  8009       L1    13  1.00

> <Gold.PLP.Chemscore.Internal.Correction>
0.0456

> <Gold.Rescore>
     Score         DG    S(hbond)    S(metal)    S(lipo)     H(rot)  DE(clash)    DE(int)     intcor
     12.83     -16.72       1.97        0.00      75.06       1.61       0.17       3.73       ----

> <Gold.Chemscore.Fitness>
12.8271

> <Gold.Chemscore.DG>
-16.7216

> <Gold.Chemscore.ZeroCoef>
-5.4800

> <Gold.Chemscore.Hbond>
1.9679

> <Gold.Chemscore.Metal>
0.0000

> <Gold.Chemscore.Lipo>
75.0592

> <Gold.Chemscore.Internal_Hbond>
0.0000

> <Gold.Chemscore.DEClash>
0.1656

> <Gold.Chemscore.DEInternal>
3.7288

> <Gold.Chemscore.Rot>
1.6067

> <Gold.Chemscore.Internal.Correction>
   9.000000E+99

> <Gold.Chemscore.Hbonds>
donor molecule, donor type, donor heavy atom, donor atom, acceptor molecule, acceptor atom, score
      L1  H    15    27       P1  8028  1.00
      P1  H  7997  8009       L1    13  0.59

> <Gold.Chemscore.Hbond.Weighted>
-6.5728

> <Gold.Chemscore.Metal.Weighted>
-0.0000

> <Gold.Chemscore.Lipo.Weighted>
-8.7819

> <Gold.Chemscore.Internal_Hbond.Weighted>
0.0000

> <Gold.Chemscore.DEClash.Weighted>
0.1656

> <Gold.Chemscore.DEInternal.Weighted>
3.7288

> <Gold.Chemscore.Rot.Weighted>
4.1132

> <Gold.Chemscore.Internal.Correction.Weighted>
   9.000000E+99

> <Gold.Protein.RotatedTorsions>
[ 6907 6896 6895 6894 ] final   77.80 input  -60.11 | X-H torsion
[ 7974 7965 7964 7962 ] final  -26.83 input  175.53 | X-H torsion
[ 8008 7997 7996 7995 ] final  151.65 input   59.86 | X-H torsion
[ 10167 10162 10161 10158 ] final -107.91 input  -65.29 | X-H torsion
[ 10718 10713 10712 10709 ] final  134.76 input   66.30 | X-H torsion
[ 10763 10752 10751 10750 ] final  -13.60 input  -60.55 | X-H torsion
[ 11005 11000 10999 10996 ] final   35.86 input  -57.11 | X-H torsion

> <Gold.Protein.ActiveResidues>
 VAL166  LYS551  ARG553  GLY616  TRP617  ASP618  TYR619  PRO620  LYS621  CYS622 
 ASP623  PHE694  ASN695  SER759  ASP760  ASP761  ALA762  ILE779  LEU786  VAL792 
 PHE793  MET794  SER795  GLU796  ALA797  LYS798  CYS799  TRP800  GLU811  SER814 

> <Gold.Protein.RotatedAtoms>
  152.5133  134.3762  159.9335 H   0  0  0  0  0  0  0  0  0  0  0  0  # atno 6907 bound_to 6896
  151.3718  133.3846  159.2708 H   0  0  0  0  0  0  0  0  0  0  0  0  # atno 6908 bound_to 6896
  150.9572  134.8984  159.7767 H   0  0  0  0  0  0  0  0  0  0  0  0  # atno 6909 bound_to 6896
  146.1399  140.5071  142.8656 H   0  0  0  0  0  0  0  0  0  0  0  0  # atno 7974 bound_to 7965
  156.2664  140.2042  156.6209 H   0  0  0  0  0  0  0  0  0  0  0  0  # atno 8008 bound_to 7997
  154.6758  140.0545  157.0238 H   0  0  0  0  0  0  0  0  0  0  0  0  # atno 8009 bound_to 7997
  155.1072  140.3212  155.4534 H   0  0  0  0  0  0  0  0  0  0  0  0  # atno 8010 bound_to 7997
  140.1718  143.4036  152.1348 H   0  0  0  0  0  0  0  0  0  0  0  0  # atno 10167 bound_to 10162
  157.4640  131.1075  150.9885 H   0  0  0  0  0  0  0  0  0  0  0  0  # atno 10718 bound_to 10713
  153.5157  135.7016  153.5757 H   0  0  0  0  0  0  0  0  0  0  0  0  # atno 10763 bound_to 10752
  153.3828  135.3916  155.1869 H   0  0  0  0  0  0  0  0  0  0  0  0  # atno 10764 bound_to 10752
  154.8699  135.3839  154.4641 H   0  0  0  0  0  0  0  0  0  0  0  0  # atno 10765 bound_to 10752
  140.2384  134.3444  155.7935 H   0  0  0  0  0  0  0  0  0  0  0  0  # atno 11005 bound_to 11000
  144.7781  140.5782  143.6624 LP  0  0  0  0  0  0  0  0  0  0  0  0  # atno 17320 bound_to 7965
  145.5070  139.1481  143.3625 LP  0  0  0  0  0  0  0  0  0  0  0  0  # atno 17321 bound_to 7965
  139.5334  144.7184  151.4976 LP  0  0  0  0  0  0  0  0  0  0  0  0  # atno 17342 bound_to 10162
  140.6577  143.8565  150.6853 LP  0  0  0  0  0  0  0  0  0  0  0  0  # atno 17343 bound_to 10162
  157.0672  130.5849  149.5396 LP  0  0  0  0  0  0  0  0  0  0  0  0  # atno 17370 bound_to 10713
  156.0042  130.5126  150.7771 LP  0  0  0  0  0  0  0  0  0  0  0  0  # atno 17371 bound_to 10713
  141.2212  133.7285  156.8846 LP  0  0  0  0  0  0  0  0  0  0  0  0  # atno 17394 bound_to 11000
  140.1678  134.9121  157.2796 LP  0  0  0  0  0  0  0  0  0  0  0  0  # atno 17395 bound_to 11000

$$$$
