AV-unprocessed.smi:342|AV-procd|sdf|2384|dock6
  -GOLD-   2262022313D 1   1.00000     0.00000
 Structure written by MMmdl.
 41 43  0  0  0  0  0  0  0  0  1 V2000
  152.9399  137.8485  160.0875 O   0  0  0  0  0  0  0  0  0  0  0  0
  152.7327  138.9100  159.1794 C   0  0  2  0  0  0  0  0  0  0  0  0
  152.5891  138.3181  157.7600 C   0  0  0  0  0  0  0  0  0  0  0  0
  151.5594  138.9349  156.9229 N   0  0  0  0  0  0  0  0  0  0  0  0
  151.7384  140.3797  156.7817 C   0  0  0  0  0  0  0  0  0  0  0  0
  150.6702  141.0046  155.8670 C   0  0  0  0  0  0  0  0  0  0  0  0
  150.6910  140.3635  154.5962 O   0  0  0  0  0  0  0  0  0  0  0  0
  150.4726  138.9599  154.6873 C   0  0  0  0  0  0  0  0  0  0  0  0
  151.5447  138.3319  155.5939 C   0  0  0  0  0  0  0  0  0  0  0  0
  153.9163  139.8887  159.3235 C   0  0  0  0  0  0  0  0  0  0  0  0
  153.6714  140.9309  160.3134 N   0  0  0  0  0  0  0  0  0  0  0  0
  154.0817  140.9866  161.6085 C   0  0  0  0  0  0  0  0  0  0  0  0
  154.8932  139.8935  162.2479 C   0  0  0  0  0  0  0  0  0  0  0  0
  156.0491  139.7197  161.6051 F   0  0  0  0  0  0  0  0  0  0  0  0
  155.1745  140.1980  163.5149 F   0  0  0  0  0  0  0  0  0  0  0  0
  154.2368  138.7340  162.2187 F   0  0  0  0  0  0  0  0  0  0  0  0
  153.7065  142.0761  162.2829 N   0  0  0  0  0  0  0  0  0  0  0  0
  152.9798  142.7840  161.3476 C   0  0  0  0  0  0  0  0  0  0  0  0
  152.3160  144.0274  161.4510 C   0  0  0  0  0  0  0  0  0  0  0  0
  151.6207  144.5592  160.3455 C   0  0  0  0  0  0  0  0  0  0  0  0
  151.5758  143.8547  159.1251 C   0  0  0  0  0  0  0  0  0  0  0  0
  152.2304  142.6142  159.0018 C   0  0  0  0  0  0  0  0  0  0  0  0
  152.9295  142.0905  160.1063 C   0  0  0  0  0  0  0  0  0  0  0  0
  152.2030  137.8163  160.6789 H   0  0  0  0  0  0  0  0  0  0  0  0
  151.8224  139.4270  159.4757 H   0  0  0  0  0  0  0  0  0  0  0  0
  153.5429  138.3821  157.2352 H   0  0  0  0  0  0  0  0  0  0  0  0
  152.3818  137.2519  157.8616 H   0  0  0  0  0  0  0  0  0  0  0  0
  151.6875  140.8701  157.7525 H   0  0  0  0  0  0  0  0  0  0  0  0
  152.7289  140.5926  156.3760 H   0  0  0  0  0  0  0  0  0  0  0  0
  149.6787  140.9116  156.3127 H   0  0  0  0  0  0  0  0  0  0  0  0
  150.8623  142.0690  155.7321 H   0  0  0  0  0  0  0  0  0  0  0  0
  149.4726  138.7634  155.0771 H   0  0  0  0  0  0  0  0  0  0  0  0
  150.5187  138.5259  153.6885 H   0  0  0  0  0  0  0  0  0  0  0  0
  152.5233  138.4456  155.1246 H   0  0  0  0  0  0  0  0  0  0  0  0
  151.3612  137.2600  155.6758 H   0  0  0  0  0  0  0  0  0  0  0  0
  154.8134  139.3462  159.6249 H   0  0  0  0  0  0  0  0  0  0  0  0
  154.1469  140.3407  158.3600 H   0  0  0  0  0  0  0  0  0  0  0  0
  152.3410  144.5723  162.3830 H   0  0  0  0  0  0  0  0  0  0  0  0
  151.1172  145.5107  160.4350 H   0  0  0  0  0  0  0  0  0  0  0  0
  151.0379  144.2671  158.2839 H   0  0  0  0  0  0  0  0  0  0  0  0
  152.1933  142.0731  158.0682 H   0  0  0  0  0  0  0  0  0  0  0  0
  1  2  1  0  0  0  0
  1 24  1  0  0  0  0
  2  3  1  0  0  0  0
  2 10  1  0  0  0  0
  2 25  1  0  0  0  0
  3  4  1  0  0  0  0
  3 26  1  0  0  0  0
  3 27  1  0  0  0  0
  4  9  1  0  0  0  0
  4  5  1  0  0  0  0
  5  6  1  0  0  0  0
  5 28  1  0  0  0  0
  5 29  1  0  0  0  0
  6  7  1  0  0  0  0
  6 30  1  0  0  0  0
  6 31  1  0  0  0  0
  7  8  1  0  0  0  0
  8  9  1  0  0  0  0
  8 32  1  0  0  0  0
  8 33  1  0  0  0  0
  9 34  1  0  0  0  0
  9 35  1  0  0  0  0
 10 11  1  0  0  0  0
 10 36  1  0  0  0  0
 10 37  1  0  0  0  0
 11 23  1  0  0  0  0
 11 12  1  0  0  0  0
 12 13  1  0  0  0  0
 12 17  2  0  0  0  0
 13 14  1  0  0  0  0
 13 15  1  0  0  0  0
 13 16  1  0  0  0  0
 17 18  1  0  0  0  0
 18 23  2  0  0  0  0
 18 19  1  0  0  0  0
 19 20  2  0  0  0  0
 19 38  1  0  0  0  0
 20 21  1  0  0  0  0
 20 39  1  0  0  0  0
 21 22  2  0  0  0  0
 21 40  1  0  0  0  0
 22 23  1  0  0  0  0
 22 41  1  0  0  0  0
M  END
> <s_m_source_file>
AV-unprocessed.smi

> <i_m_source_file_index>
342

> <i_lp_mmshare_version>
43012

> <i_f3d_flags>
0

> <s_epik_input>
W2NIXTFbY0hdW2NIXVtjSF1jKGMxMiluKGMobjIpQyhGKShGKUYpW0NIMl1bQ0BIXShbT0hdKVtDSDJdTjNbQ0gyXVtDSDJdT1tDSDJdW0NIMl0z

> <s_epik_cmdline>
J2VwaWtfcHl0aG9uJywgJy1waCcsICc3LjAnLCAnLXRuJywgJzgnLCAnLW1hJywgJzIwMCcsICctbWV0YWxfYmluZGluZycsICctaW1hZScsICc8aW5maWxlLm1hZT4nLCAnLW9tYWUnLCAnPG91dGZpbGUubWFlPic=

> <r_epik_Ionization_Penalty>
0.263195

> <r_epik_Ionization_Penalty_Charging>
0

> <r_epik_Ionization_Penalty_Neutral>
0.263195

> <r_epik_State_Penalty>
0.254683

> <r_epik_Charging_Adjusted_Penalty>
0.254683

> <i_epik_Tot_Q>
0

> <i_epik_Tot_abs_Q>
0

> <r_epik_Metal_State_Penalty>
0.254691

> <b_epik_Metal_Only>
0

> <s_lp_Force_Field>
OPLS_2005

> <r_lp_Energy>
34.5918

> <b_lp_Chiralities_Consistent>
1

> <s_lp_Variant>
AV-unprocessed.smi:342-1

> <Gold.Version>
5.8.1

> <Gold.Id.Protein>
6NUR|6NUR_protein|mol2

> <Gold.PLP.Fitness>
49.9454

> <Gold.PLP.PLP>
-49.4017

> <Gold.PLP.part.hbond>
-1.6192

> <Gold.PLP.part.metal>
0.0000

> <Gold.PLP.part.buried>
-3.9456

> <Gold.PLP.part.nonpolar>
-43.0657

> <Gold.PLP.part.repulsive>
0.1171

> <Gold.PLP.ligand.clash>
0.0000

> <Gold.PLP.ligand.torsion>
1.2674

> <Gold.PLP.Chemscore.Hbond>
1.0000

> <Gold.PLP.Chemscore.CHOScore>
0.0000

> <Gold.PLP.Chemscore.Metal>
0.0000

> <Gold.Chemscore.Hbonds>
donor molecule, donor type, donor heavy atom, donor atom, acceptor molecule, acceptor atom, score
      P1  H  7989  7998       L1     7  1.00

> <Gold.PLP.Chemscore.Internal.Correction>
0.0786

> <Gold.Rescore>
     Score         DG    S(hbond)    S(metal)    S(lipo)     H(rot)  DE(clash)    DE(int)     intcor
     13.94     -16.96       0.97        0.00     119.46       2.24       0.07       2.95       ----

> <Gold.Chemscore.Fitness>
13.9403

> <Gold.Chemscore.DG>
-16.9627

> <Gold.Chemscore.ZeroCoef>
-5.4800

> <Gold.Chemscore.Hbond>
0.9717

> <Gold.Chemscore.Metal>
0.0000

> <Gold.Chemscore.Lipo>
119.4620

> <Gold.Chemscore.Internal_Hbond>
0.0000

> <Gold.Chemscore.DEClash>
0.0727

> <Gold.Chemscore.DEInternal>
2.9498

> <Gold.Chemscore.Rot>
2.2421

> <Gold.Chemscore.Internal.Correction>
   9.000000E+99

> <Gold.Chemscore.Hbonds>
donor molecule, donor type, donor heavy atom, donor atom, acceptor molecule, acceptor atom, score
      P1  H  7989  7998       L1     7  0.87

> <Gold.Chemscore.Hbond.Weighted>
-3.2456

> <Gold.Chemscore.Metal.Weighted>
-0.0000

> <Gold.Chemscore.Lipo.Weighted>
-13.9771

> <Gold.Chemscore.Internal_Hbond.Weighted>
0.0000

> <Gold.Chemscore.DEClash.Weighted>
0.0727

> <Gold.Chemscore.DEInternal.Weighted>
2.9498

> <Gold.Chemscore.Rot.Weighted>
5.7399

> <Gold.Chemscore.Internal.Correction.Weighted>
   9.000000E+99

> <Gold.Protein.RotatedTorsions>
[ 6907 6896 6895 6894 ] final -136.24 input  -60.11 | X-H torsion
[ 7974 7965 7964 7962 ] final  -96.97 input  175.53 | X-H torsion
[ 8008 7997 7996 7995 ] final   78.80 input   59.86 | X-H torsion
[ 10167 10162 10161 10158 ] final -152.28 input  -65.29 | X-H torsion
[ 10718 10713 10712 10709 ] final   27.30 input   66.30 | X-H torsion
[ 10763 10752 10751 10750 ] final -173.89 input  -60.55 | X-H torsion
[ 11005 11000 10999 10996 ] final  -59.79 input  -57.11 | X-H torsion

> <Gold.Protein.ActiveResidues>
 VAL166  LYS551  ARG553  GLY616  TRP617  ASP618  TYR619  PRO620  LYS621  CYS622 
 ASP623  PHE694  ASN695  SER759  ASP760  ASP761  ALA762  ILE779  LEU786  VAL792 
 PHE793  MET794  SER795  GLU796  ALA797  LYS798  CYS799  TRP800  GLU811  SER814 

> <Gold.Protein.RotatedAtoms>
  151.0077  133.5995  159.2686 H   0  0  0  0  0  0  0  0  0  0  0  0  # atno 6907 bound_to 6896
  151.3158  135.0805  159.9298 H   0  0  0  0  0  0  0  0  0  0  0  0  # atno 6908 bound_to 6896
  152.5291  133.9733  159.7826 H   0  0  0  0  0  0  0  0  0  0  0  0  # atno 6909 bound_to 6896
  145.3398  140.9457  143.2614 H   0  0  0  0  0  0  0  0  0  0  0  0  # atno 7974 bound_to 7965
  155.8607  140.3454  155.5755 H   0  0  0  0  0  0  0  0  0  0  0  0  # atno 8008 bound_to 7997
  155.7936  140.0875  157.2015 H   0  0  0  0  0  0  0  0  0  0  0  0  # atno 8009 bound_to 7997
  154.4011  140.1478  156.3179 H   0  0  0  0  0  0  0  0  0  0  0  0  # atno 8010 bound_to 7997
  139.7195  143.8980  152.2498 H   0  0  0  0  0  0  0  0  0  0  0  0  # atno 10167 bound_to 10162
  157.2183  130.6967  149.6259 H   0  0  0  0  0  0  0  0  0  0  0  0  # atno 10718 bound_to 10713
  154.6027  135.2856  155.0518 H   0  0  0  0  0  0  0  0  0  0  0  0  # atno 10763 bound_to 10752
  154.1777  135.6462  153.5030 H   0  0  0  0  0  0  0  0  0  0  0  0  # atno 10764 bound_to 10752
  153.0163  135.5416  154.6751 H   0  0  0  0  0  0  0  0  0  0  0  0  # atno 10765 bound_to 10752
  141.1262  133.6618  156.5125 H   0  0  0  0  0  0  0  0  0  0  0  0  # atno 11005 bound_to 11000
  144.8799  139.4919  143.6728 LP  0  0  0  0  0  0  0  0  0  0  0  0  # atno 17320 bound_to 7965
  146.3012  139.7432  142.9090 LP  0  0  0  0  0  0  0  0  0  0  0  0  # atno 17321 bound_to 7965
  139.8872  144.6985  150.8811 LP  0  0  0  0  0  0  0  0  0  0  0  0  # atno 17342 bound_to 10162
  140.7751  143.3615  151.1820 LP  0  0  0  0  0  0  0  0  0  0  0  0  # atno 17343 bound_to 10162
  155.9684  130.4528  150.5788 LP  0  0  0  0  0  0  0  0  0  0  0  0  # atno 17370 bound_to 10713
  157.3602  131.0748  151.1643 LP  0  0  0  0  0  0  0  0  0  0  0  0  # atno 17371 bound_to 10713
  140.4358  134.7061  157.4966 LP  0  0  0  0  0  0  0  0  0  0  0  0  # atno 17394 bound_to 11000
  140.0263  134.6472  155.9168 LP  0  0  0  0  0  0  0  0  0  0  0  0  # atno 17395 bound_to 11000

$$$$
