AV-unprocessed.smi:3284|AV-procd|sdf|12574|dock1
  -GOLD-   2272018493D 1   1.00000     0.00000
 Structure written by MMmdl.
 44 45  0  0  0  0  0  0  0  0  2 V2000
  146.9578  142.5617  154.1589 C   0  0  0  0  0  0  0  0  0  0  0  0
  147.5340  141.1555  154.1794 C   0  0  0  0  0  0  0  0  0  0  0  0
  146.7966  140.1252  153.7232 C   0  0  0  0  0  0  0  0  0  0  0  0
  147.2912  138.7009  153.6258 C   0  0  0  0  0  0  0  0  0  0  0  0
  148.8204  138.6520  153.6092 C   0  0  0  0  0  0  0  0  0  0  0  0
  149.4210  139.4814  154.7558 C   0  0  1  0  0  0  0  0  0  0  0  0
  150.9542  139.3268  154.7498 C   0  0  0  0  0  0  0  0  0  0  0  0
  148.9715  140.9749  154.7097 C   0  0  2  0  0  0  0  0  0  0  0  0
  149.1868  141.6358  156.0973 C   0  0  0  0  0  0  0  0  0  0  0  0
  150.3059  142.6001  156.1098 N   0  3  0  0  0  0  0  0  0  0  0  0
  151.2786  142.3802  157.1969 C   0  0  0  0  0  0  0  0  0  0  0  0
  151.5481  143.6796  157.9658 C   0  0  0  0  0  0  0  0  0  0  0  0
  151.9900  143.4264  159.3733 C   0  0  0  0  0  0  0  0  0  0  0  0
  152.2798  142.2178  159.8445 N   0  0  0  0  0  0  0  0  0  0  0  0
  152.6615  142.4332  161.1643 C   0  0  0  0  0  0  0  0  0  0  0  0
  152.5965  143.7768  161.4438 C   0  0  0  0  0  0  0  0  0  0  0  0
  152.1694  144.4051  160.2815 N   0  0  0  0  0  0  0  0  0  0  0  0
  151.9672  145.8305  160.1095 C   0  0  0  0  0  0  0  0  0  0  0  0
  147.6510  143.2529  153.6790 H   0  0  0  0  0  0  0  0  0  0  0  0
  146.7479  142.9114  155.1694 H   0  0  0  0  0  0  0  0  0  0  0  0
  146.0201  142.5972  153.6030 H   0  0  0  0  0  0  0  0  0  0  0  0
  145.7854  140.2948  153.3826 H   0  0  0  0  0  0  0  0  0  0  0  0
  146.8922  138.1328  154.4666 H   0  0  0  0  0  0  0  0  0  0  0  0
  146.8984  138.2470  152.7156 H   0  0  0  0  0  0  0  0  0  0  0  0
  149.1486  137.6139  153.6744 H   0  0  0  0  0  0  0  0  0  0  0  0
  149.1862  139.0313  152.6537 H   0  0  0  0  0  0  0  0  0  0  0  0
  149.0488  139.0464  155.6851 H   0  0  0  0  0  0  0  0  0  0  0  0
  151.3908  139.7570  153.8480 H   0  0  0  0  0  0  0  0  0  0  0  0
  151.2395  138.2749  154.7807 H   0  0  0  0  0  0  0  0  0  0  0  0
  151.4254  139.8062  155.6064 H   0  0  0  0  0  0  0  0  0  0  0  0
  149.6123  141.4814  153.9860 H   0  0  0  0  0  0  0  0  0  0  0  0
  148.2686  142.1340  156.4122 H   0  0  0  0  0  0  0  0  0  0  0  0
  149.4051  140.8893  156.8592 H   0  0  0  0  0  0  0  0  0  0  0  0
  150.7885  142.5453  155.2243 H   0  0  0  0  0  0  0  0  0  0  0  0
  150.8902  141.6206  157.8768 H   0  0  0  0  0  0  0  0  0  0  0  0
  152.2082  141.9939  156.7771 H   0  0  0  0  0  0  0  0  0  0  0  0
  152.2965  144.2804  157.4483 H   0  0  0  0  0  0  0  0  0  0  0  0
  150.6415  144.2853  157.9960 H   0  0  0  0  0  0  0  0  0  0  0  0
  152.9518  141.6130  161.8043 H   0  0  0  0  0  0  0  0  0  0  0  0
  152.8162  144.3223  162.3499 H   0  0  0  0  0  0  0  0  0  0  0  0
  152.2927  146.3668  161.0015 H   0  0  0  0  0  0  0  0  0  0  0  0
  150.9097  146.0350  159.9420 H   0  0  0  0  0  0  0  0  0  0  0  0
  152.5435  146.1865  159.2555 H   0  0  0  0  0  0  0  0  0  0  0  0
  149.9212  143.5287  156.2112 H   0  0  0  0  0  0  0  0  0  0  0  0
  1  2  1  0  0  0  0
  1 19  1  0  0  0  0
  1 20  1  0  0  0  0
  1 21  1  0  0  0  0
  2  8  1  0  0  0  0
  2  3  2  0  0  0  0
  3  4  1  0  0  0  0
  3 22  1  0  0  0  0
  4  5  1  0  0  0  0
  4 23  1  0  0  0  0
  4 24  1  0  0  0  0
  5  6  1  0  0  0  0
  5 25  1  0  0  0  0
  5 26  1  0  0  0  0
  6  7  1  0  0  0  0
  6  8  1  0  0  0  0
  6 27  1  0  0  0  0
  7 28  1  0  0  0  0
  7 29  1  0  0  0  0
  7 30  1  0  0  0  0
  8  9  1  0  0  0  0
  8 31  1  0  0  0  0
  9 10  1  0  0  0  0
  9 32  1  0  0  0  0
  9 33  1  0  0  0  0
 10 11  1  0  0  0  0
 10 34  1  0  0  0  0
 10 44  1  0  0  0  0
 11 12  1  0  0  0  0
 11 35  1  0  0  0  0
 11 36  1  0  0  0  0
 12 13  1  0  0  0  0
 12 37  1  0  0  0  0
 12 38  1  0  0  0  0
 13 17  1  0  0  0  0
 13 14  2  0  0  0  0
 14 15  1  0  0  0  0
 15 16  2  0  0  0  0
 15 39  1  0  0  0  0
 16 17  1  0  0  0  0
 16 40  1  0  0  0  0
 17 18  1  0  0  0  0
 18 41  1  0  0  0  0
 18 42  1  0  0  0  0
 18 43  1  0  0  0  0
M  CHG  1  10   1
M  END
> <s_m_source_file>
AV-unprocessed.smi

> <i_m_source_file_index>
3284

> <i_lp_mmshare_version>
43012

> <i_f3d_flags>
0

> <s_epik_input>
W0NIM11DMT1bQ0hdW0NIMl1bQ0gyXVtDQEBIXShbQ0gzXSlbQ0BIXTFbQ0gyXVtOSF1bQ0gyXVtDSDJdYzJuW2NIXVtjSF1uMltDSDNd

> <s_epik_cmdline>
J2VwaWtfcHl0aG9uJywgJy1waCcsICc3LjAnLCAnLXRuJywgJzgnLCAnLW1hJywgJzIwMCcsICctbWV0YWxfYmluZGluZycsICctaW1hZScsICc8aW5maWxlLm1hZT4nLCAnLW9tYWUnLCAnPG91dGZpbGUubWFlPic=

> <r_lp_tautomer_probability>
1

> <r_epik_Ionization_Penalty>
0.150779

> <r_epik_Ionization_Penalty_Charging>
0.150779

> <r_epik_Ionization_Penalty_Neutral>
1.39452e-13

> <r_epik_State_Penalty>
0.349447

> <r_epik_Charging_Adjusted_Penalty>
0.500226

> <i_epik_Tot_Q>
1

> <i_epik_Tot_abs_Q>
1

> <r_epik_Metal_State_Penalty>
0.000470967

> <b_epik_Metal_Only>
0

> <s_lp_Force_Field>
OPLS_2005

> <r_lp_Energy>
12.7203

> <b_lp_Chiralities_Consistent>
1

> <s_lp_Variant>
AV-unprocessed.smi:3284-3

> <Gold.Version>
5.8.1

> <Gold.Id.Protein>
6NUR|6NUR_protein|mol2

> <Gold.PLP.Fitness>
45.2370

> <Gold.PLP.PLP>
-42.3777

> <Gold.PLP.part.hbond>
-1.0000

> <Gold.PLP.part.metal>
0.0000

> <Gold.PLP.part.buried>
0.1090

> <Gold.PLP.part.nonpolar>
-40.4528

> <Gold.PLP.part.repulsive>
0.1239

> <Gold.PLP.ligand.clash>
0.0000

> <Gold.PLP.ligand.torsion>
1.6157

> <Gold.PLP.Chemscore.Hbond>
2.0000

> <Gold.PLP.Chemscore.CHOScore>
0.0000

> <Gold.PLP.Chemscore.Metal>
0.0000

> <Gold.Chemscore.Hbonds>
donor molecule, donor type, donor heavy atom, donor atom, acceptor molecule, acceptor atom, score
      L1  H    10    44       P1  8028  1.98

> <Gold.PLP.Chemscore.Internal.Correction>
0.0908

> <Gold.Rescore>
     Score         DG    S(hbond)    S(metal)    S(lipo)     H(rot)  DE(clash)    DE(int)     intcor
     15.34     -17.30       0.95        0.00     109.09       1.61       0.36       1.60       ----

> <Gold.Chemscore.Fitness>
15.3377

> <Gold.Chemscore.DG>
-17.2978

> <Gold.Chemscore.ZeroCoef>
-5.4800

> <Gold.Chemscore.Hbond>
0.9514

> <Gold.Chemscore.Metal>
0.0000

> <Gold.Chemscore.Lipo>
109.0874

> <Gold.Chemscore.Internal_Hbond>
0.0000

> <Gold.Chemscore.DEClash>
0.3649

> <Gold.Chemscore.DEInternal>
1.5951

> <Gold.Chemscore.Rot>
1.6105

> <Gold.Chemscore.Internal.Correction>
   9.000000E+99

> <Gold.Chemscore.Hbonds>
donor molecule, donor type, donor heavy atom, donor atom, acceptor molecule, acceptor atom, score
      L1  H    10    44       P1  8028  0.94

> <Gold.Chemscore.Hbond.Weighted>
-3.1776

> <Gold.Chemscore.Metal.Weighted>
-0.0000

> <Gold.Chemscore.Lipo.Weighted>
-12.7632

> <Gold.Chemscore.Internal_Hbond.Weighted>
0.0000

> <Gold.Chemscore.DEClash.Weighted>
0.3649

> <Gold.Chemscore.DEInternal.Weighted>
1.5951

> <Gold.Chemscore.Rot.Weighted>
4.1230

> <Gold.Chemscore.Internal.Correction.Weighted>
   9.000000E+99

> <Gold.Protein.RotatedTorsions>
[ 6907 6896 6895 6894 ] final  148.90 input  -60.11 | X-H torsion
[ 7974 7965 7964 7962 ] final  -70.74 input  175.53 | X-H torsion
[ 8008 7997 7996 7995 ] final -165.33 input   59.86 | X-H torsion
[ 10167 10162 10161 10158 ] final  -53.93 input  -65.29 | X-H torsion
[ 10718 10713 10712 10709 ] final   46.35 input   66.30 | X-H torsion
[ 10763 10752 10751 10750 ] final   60.19 input  -60.55 | X-H torsion
[ 11005 11000 10999 10996 ] final  158.16 input  -57.11 | X-H torsion

> <Gold.Protein.ActiveResidues>
 VAL166  LYS551  ARG553  GLY616  TRP617  ASP618  TYR619  PRO620  LYS621  CYS622 
 ASP623  PHE694  ASN695  SER759  ASP760  ASP761  ALA762  ILE779  LEU786  VAL792 
 PHE793  MET794  SER795  GLU796  ALA797  LYS798  CYS799  TRP800  GLU811  SER814 

> <Gold.Protein.RotatedAtoms>
  152.1353  133.4431  159.4740 H   0  0  0  0  0  0  0  0  0  0  0  0  # atno 6907 bound_to 6896
  150.6881  134.2371  159.4467 H   0  0  0  0  0  0  0  0  0  0  0  0  # atno 6908 bound_to 6896
  152.0258  134.9796  160.0622 H   0  0  0  0  0  0  0  0  0  0  0  0  # atno 6909 bound_to 6896
  145.6871  140.9167  143.0801 H   0  0  0  0  0  0  0  0  0  0  0  0  # atno 7974 bound_to 7965
  155.8483  140.0959  157.1691 H   0  0  0  0  0  0  0  0  0  0  0  0  # atno 8008 bound_to 7997
  154.3984  140.1388  156.3875 H   0  0  0  0  0  0  0  0  0  0  0  0  # atno 8009 bound_to 7997
  155.7989  140.3453  155.5394 H   0  0  0  0  0  0  0  0  0  0  0  0  # atno 8010 bound_to 7997
  140.6458  143.2534  151.4863 H   0  0  0  0  0  0  0  0  0  0  0  0  # atno 10167 bound_to 10162
  157.4471  130.8116  149.7752 H   0  0  0  0  0  0  0  0  0  0  0  0  # atno 10718 bound_to 10713
  152.9914  135.5545  154.5835 H   0  0  0  0  0  0  0  0  0  0  0  0  # atno 10763 bound_to 10752
  154.5211  135.2808  155.1264 H   0  0  0  0  0  0  0  0  0  0  0  0  # atno 10764 bound_to 10752
  154.2617  135.6380  153.5330 H   0  0  0  0  0  0  0  0  0  0  0  0  # atno 10765 bound_to 10752
  140.1839  134.8456  157.2834 H   0  0  0  0  0  0  0  0  0  0  0  0  # atno 11005 bound_to 11000
  144.7008  139.8773  143.7445 LP  0  0  0  0  0  0  0  0  0  0  0  0  # atno 17320 bound_to 7965
  146.0914  139.3904  143.0403 LP  0  0  0  0  0  0  0  0  0  0  0  0  # atno 17321 bound_to 7965
  139.5669  144.2022  152.1778 LP  0  0  0  0  0  0  0  0  0  0  0  0  # atno 17342 bound_to 10162
  140.1306  144.5291  150.6805 LP  0  0  0  0  0  0  0  0  0  0  0  0  # atno 17343 bound_to 10162
  155.9972  130.3901  150.2750 LP  0  0  0  0  0  0  0  0  0  0  0  0  # atno 17370 bound_to 10713
  157.0919  131.0172  151.3118 LP  0  0  0  0  0  0  0  0  0  0  0  0  # atno 17371 bound_to 10713
  140.2236  134.3993  155.7554 LP  0  0  0  0  0  0  0  0  0  0  0  0  # atno 17394 bound_to 11000
  141.2224  133.7179  156.8530 LP  0  0  0  0  0  0  0  0  0  0  0  0  # atno 17395 bound_to 11000

$$$$
