AV-unprocessed.smi:657|AV-procd|sdf|3229|dock2
  -GOLD-   22720 0173D 1   1.00000     0.00000
 Structure written by MMmdl.
 46 47  0  0  0  0  0  0  0  0  3 V2000
  145.5836  134.9046  150.7366 C   0  0  0  0  0  0  0  0  0  0  0  0
  145.6526  135.0787  152.2633 C   0  0  0  0  0  0  0  0  0  0  0  0
  144.2605  134.9547  152.9133 C   0  0  0  0  0  0  0  0  0  0  0  0
  146.3892  136.3287  152.6529 N   0  3  1  0  0  0  0  0  0  0  0  0
  145.9086  137.5438  151.9305 C   0  0  0  0  0  0  0  0  0  0  0  0
  146.8083  138.7595  152.1879 C   0  0  0  0  0  0  0  0  0  0  0  0
  146.8760  139.0606  153.6851 C   0  0  0  0  0  0  0  0  0  0  0  0
  147.3802  137.8195  154.4249 C   0  0  0  0  0  0  0  0  0  0  0  0
  146.5138  136.5697  154.1308 C   0  0  2  0  0  0  0  0  0  0  0  0
  147.1397  135.3768  154.8822 C   0  0  0  0  0  0  0  0  0  0  0  0
  147.4721  134.3824  154.2272 O   0  0  0  0  0  0  0  0  0  0  0  0
  147.2105  135.6159  156.2208 N   0  5  0  0  0  0  0  0  0  0  0  0
  148.2070  135.0109  157.1055 C   0  0  0  0  0  0  0  0  0  0  0  0
  147.5334  134.4011  158.3563 C   0  0  0  0  0  0  0  0  0  0  0  0
  147.5307  135.3004  159.5753 C   0  0  0  0  0  0  0  0  0  0  0  0
  147.8008  136.6988  159.6073 C   0  0  0  0  0  0  0  0  0  0  0  0
  147.7116  137.2181  160.8210 N   0  0  0  0  0  0  0  0  0  0  0  0
  147.3928  136.1718  161.6090 N   0  0  0  0  0  0  0  0  0  0  0  0
  147.2065  136.3782  163.0288 C   0  0  0  0  0  0  0  0  0  0  0  0
  147.2925  135.0007  160.8903 C   0  0  0  0  0  0  0  0  0  0  0  0
  145.2106  133.9120  150.4821 H   0  0  0  0  0  0  0  0  0  0  0  0
  146.5706  135.0056  150.2845 H   0  0  0  0  0  0  0  0  0  0  0  0
  144.9177  135.6258  150.2640 H   0  0  0  0  0  0  0  0  0  0  0  0
  146.2292  134.2179  152.5934 H   0  0  0  0  0  0  0  0  0  0  0  0
  143.8036  133.9984  152.6583 H   0  0  0  0  0  0  0  0  0  0  0  0
  143.5760  135.7326  152.5762 H   0  0  0  0  0  0  0  0  0  0  0  0
  144.3185  134.9995  154.0006 H   0  0  0  0  0  0  0  0  0  0  0  0
  145.8757  137.3673  150.8568 H   0  0  0  0  0  0  0  0  0  0  0  0
  144.8917  137.7835  152.2426 H   0  0  0  0  0  0  0  0  0  0  0  0
  147.8097  138.5708  151.7983 H   0  0  0  0  0  0  0  0  0  0  0  0
  146.4234  139.6276  151.6520 H   0  0  0  0  0  0  0  0  0  0  0  0
  147.5377  139.9068  153.8718 H   0  0  0  0  0  0  0  0  0  0  0  0
  145.8900  139.3427  154.0567 H   0  0  0  0  0  0  0  0  0  0  0  0
  148.4166  137.6368  154.1356 H   0  0  0  0  0  0  0  0  0  0  0  0
  147.3939  138.0211  155.4971 H   0  0  0  0  0  0  0  0  0  0  0  0
  145.5097  136.7693  154.5115 H   0  0  0  0  0  0  0  0  0  0  0  0
  148.7977  134.2377  156.6119 H   0  0  0  0  0  0  0  0  0  0  0  0
  148.9321  135.7560  157.4330 H   0  0  0  0  0  0  0  0  0  0  0  0
  146.5094  134.1336  158.0948 H   0  0  0  0  0  0  0  0  0  0  0  0
  148.0220  133.4539  158.5881 H   0  0  0  0  0  0  0  0  0  0  0  0
  148.0460  137.3515  158.7826 H   0  0  0  0  0  0  0  0  0  0  0  0
  146.7588  135.4916  163.4784 H   0  0  0  0  0  0  0  0  0  0  0  0
  146.5472  137.2303  163.1968 H   0  0  0  0  0  0  0  0  0  0  0  0
  148.1698  136.5698  163.5017 H   0  0  0  0  0  0  0  0  0  0  0  0
  147.0464  134.0616  161.3635 H   0  0  0  0  0  0  0  0  0  0  0  0
  147.3380  136.1775  152.3422 H   0  0  0  0  0  0  0  0  0  0  0  0
  1  2  1  0  0  0  0
  1 21  1  0  0  0  0
  1 22  1  0  0  0  0
  1 23  1  0  0  0  0
  2  3  1  0  0  0  0
  2  4  1  0  0  0  0
  2 24  1  0  0  0  0
  3 25  1  0  0  0  0
  3 26  1  0  0  0  0
  3 27  1  0  0  0  0
  4  9  1  0  0  0  0
  4  5  1  0  0  0  0
  4 46  1  0  0  0  0
  5  6  1  0  0  0  0
  5 28  1  0  0  0  0
  5 29  1  0  0  0  0
  6  7  1  0  0  0  0
  6 30  1  0  0  0  0
  6 31  1  0  0  0  0
  7  8  1  0  0  0  0
  7 32  1  0  0  0  0
  7 33  1  0  0  0  0
  8  9  1  0  0  0  0
  8 34  1  0  0  0  0
  8 35  1  0  0  0  0
  9 10  1  0  0  0  0
  9 36  1  0  0  0  0
 10 11  2  0  0  0  0
 10 12  1  0  0  0  0
 12 13  1  0  0  0  0
 13 14  1  0  0  0  0
 13 37  1  0  0  0  0
 13 38  1  0  0  0  0
 14 15  1  0  0  0  0
 14 39  1  0  0  0  0
 14 40  1  0  0  0  0
 15 20  2  0  0  0  0
 15 16  1  0  0  0  0
 16 17  2  0  0  0  0
 16 41  1  0  0  0  0
 17 18  1  0  0  0  0
 18 19  1  0  0  0  0
 18 20  1  0  0  0  0
 19 42  1  0  0  0  0
 19 43  1  0  0  0  0
 19 44  1  0  0  0  0
 20 45  1  0  0  0  0
M  CHG  1   4   1
M  CHG  1  12  -1
M  END
> <s_m_source_file>
AV-unprocessed.smi

> <i_m_source_file_index>
657

> <i_lp_mmshare_version>
43012

> <i_f3d_flags>
0

> <s_epik_input>
W0NIM11bQ0hdKFtDSDNdKU4xW0NIMl1bQ0gyXVtDSDJdW0NIMl1bQ0BIXTFDKD1PKVtOSF1bQ0gyXVtDSDJdYzJbY0hdbm4oW0NIM10pW2NIXTI=

> <s_epik_cmdline>
J2VwaWtfcHl0aG9uJywgJy1waCcsICc3LjAnLCAnLXRuJywgJzgnLCAnLW1hJywgJzIwMCcsICctbWV0YWxfYmluZGluZycsICctaW1hZScsICc8aW5maWxlLm1hZT4nLCAnLW9tYWUnLCAnPG91dGZpbGUubWFlPic=

> <r_lp_tautomer_probability>
1

> <r_epik_Ionization_Penalty>
6.1622

> <r_epik_Ionization_Penalty_Charging>
6.16146

> <r_epik_Ionization_Penalty_Neutral>
0.00073675

> <r_epik_State_Penalty>
6.18018

> <r_epik_Charging_Adjusted_Penalty>
12.3416

> <i_epik_Tot_Q>
0

> <i_epik_Tot_abs_Q>
2

> <r_epik_Metal_State_Penalty>
2.12232

> <b_epik_Metal_Only>
1

> <s_lp_Force_Field>
OPLS_2005

> <r_lp_Energy>
9.74682

> <b_lp_Chiralities_Consistent>
1

> <s_lp_Variant>
AV-unprocessed.smi:657-10

> <Gold.Version>
5.8.1

> <Gold.Id.Protein>
6NUR|6NUR_protein|mol2

> <Gold.PLP.Fitness>
39.3974

> <Gold.PLP.PLP>
-29.9401

> <Gold.PLP.part.hbond>
-3.0000

> <Gold.PLP.part.metal>
0.0000

> <Gold.PLP.part.buried>
-1.6492

> <Gold.PLP.part.nonpolar>
-24.8422

> <Gold.PLP.part.repulsive>
0.1384

> <Gold.PLP.ligand.clash>
0.0000

> <Gold.PLP.ligand.torsion>
0.7744

> <Gold.PLP.Chemscore.Hbond>
3.6000

> <Gold.PLP.Chemscore.CHOScore>
0.0000

> <Gold.PLP.Chemscore.Metal>
0.0000

> <Gold.Chemscore.Hbonds>
donor molecule, donor type, donor heavy atom, donor atom, acceptor molecule, acceptor atom, score
      L1  H     4    46       P1  7948  2.00
      P1  H  6931  6943       L1    17  0.83
      P1  H  6934  6947       L1    17  0.90

> <Gold.PLP.Chemscore.Internal.Correction>
0.2061

> <Gold.Rescore>
     Score         DG    S(hbond)    S(metal)    S(lipo)     H(rot)  DE(clash)    DE(int)     intcor
     15.52     -17.49       2.56        0.00      64.08       1.57       0.03       1.94       ----

> <Gold.Chemscore.Fitness>
15.5225

> <Gold.Chemscore.DG>
-17.4891

> <Gold.Chemscore.ZeroCoef>
-5.4800

> <Gold.Chemscore.Hbond>
2.5572

> <Gold.Chemscore.Metal>
0.0000

> <Gold.Chemscore.Lipo>
64.0828

> <Gold.Chemscore.Internal_Hbond>
0.0000

> <Gold.Chemscore.DEClash>
0.0314

> <Gold.Chemscore.DEInternal>
1.9351

> <Gold.Chemscore.Rot>
1.5741

> <Gold.Chemscore.Internal.Correction>
   9.000000E+99

> <Gold.Chemscore.Hbonds>
donor molecule, donor type, donor heavy atom, donor atom, acceptor molecule, acceptor atom, score
      L1  H     4    46       P1  7948  1.00
      P1  H  6931  6943       L1    17  0.36
      P1  H  6934  6947       L1    17  0.83

> <Gold.Chemscore.Hbond.Weighted>
-8.5410

> <Gold.Chemscore.Metal.Weighted>
-0.0000

> <Gold.Chemscore.Lipo.Weighted>
-7.4977

> <Gold.Chemscore.Internal_Hbond.Weighted>
0.0000

> <Gold.Chemscore.DEClash.Weighted>
0.0314

> <Gold.Chemscore.DEInternal.Weighted>
1.9351

> <Gold.Chemscore.Rot.Weighted>
4.0297

> <Gold.Chemscore.Internal.Correction.Weighted>
   9.000000E+99

> <Gold.Protein.RotatedTorsions>
[ 6907 6896 6895 6894 ] final   52.73 input  -60.11 | X-H torsion
[ 7974 7965 7964 7962 ] final  -11.16 input  175.53 | X-H torsion
[ 8008 7997 7996 7995 ] final   -7.33 input   59.86 | X-H torsion
[ 10167 10162 10161 10158 ] final  127.69 input  -65.29 | X-H torsion
[ 10718 10713 10712 10709 ] final -118.15 input   66.30 | X-H torsion
[ 10763 10752 10751 10750 ] final  111.00 input  -60.55 | X-H torsion
[ 11005 11000 10999 10996 ] final    8.52 input  -57.11 | X-H torsion

> <Gold.Protein.ActiveResidues>
 VAL166  LYS551  ARG553  GLY616  TRP617  ASP618  TYR619  PRO620  LYS621  CYS622 
 ASP623  PHE694  ASN695  SER759  ASP760  ASP761  ALA762  ILE779  LEU786  VAL792 
 PHE793  MET794  SER795  GLU796  ALA797  LYS798  CYS799  TRP800  GLU811  SER814 

> <Gold.Protein.RotatedAtoms>
  152.3264  134.7315  160.0300 H   0  0  0  0  0  0  0  0  0  0  0  0  # atno 6907 bound_to 6896
  151.7747  133.3339  159.3462 H   0  0  0  0  0  0  0  0  0  0  0  0  # atno 6908 bound_to 6896
  150.7398  134.5918  159.6036 H   0  0  0  0  0  0  0  0  0  0  0  0  # atno 6909 bound_to 6896
  146.2197  140.2870  142.8366 H   0  0  0  0  0  0  0  0  0  0  0  0  # atno 7974 bound_to 7965
  154.5849  140.2410  155.8001 H   0  0  0  0  0  0  0  0  0  0  0  0  # atno 8008 bound_to 7997
  156.2206  140.2998  155.9899 H   0  0  0  0  0  0  0  0  0  0  0  0  # atno 8009 bound_to 7997
  155.2475  140.0409  157.2973 H   0  0  0  0  0  0  0  0  0  0  0  0  # atno 8010 bound_to 7997
  139.5565  144.6852  151.4167 H   0  0  0  0  0  0  0  0  0  0  0  0  # atno 10167 bound_to 10162
  156.1085  130.6230  150.9254 H   0  0  0  0  0  0  0  0  0  0  0  0  # atno 10718 bound_to 10713
  153.4570  135.3731  155.2317 H   0  0  0  0  0  0  0  0  0  0  0  0  # atno 10763 bound_to 10752
  154.8757  135.3899  154.3970 H   0  0  0  0  0  0  0  0  0  0  0  0  # atno 10764 bound_to 10752
  153.4537  135.7086  153.6157 H   0  0  0  0  0  0  0  0  0  0  0  0  # atno 10765 bound_to 10752
  140.5361  134.0420  155.7889 H   0  0  0  0  0  0  0  0  0  0  0  0  # atno 11005 bound_to 11000
  144.9155  140.7807  143.5781 LP  0  0  0  0  0  0  0  0  0  0  0  0  # atno 17320 bound_to 7965
  145.2803  139.1921  143.4794 LP  0  0  0  0  0  0  0  0  0  0  0  0  # atno 17321 bound_to 7965
  140.6839  143.8020  150.7158 LP  0  0  0  0  0  0  0  0  0  0  0  0  # atno 17342 bound_to 10162
  140.1481  143.4381  152.2149 LP  0  0  0  0  0  0  0  0  0  0  0  0  # atno 17343 bound_to 10162
  157.6264  131.0925  150.8525 LP  0  0  0  0  0  0  0  0  0  0  0  0  # atno 17370 bound_to 10713
  156.8640  130.5123  149.5301 LP  0  0  0  0  0  0  0  0  0  0  0  0  # atno 17371 bound_to 10713
  141.1254  133.9392  157.2646 LP  0  0  0  0  0  0  0  0  0  0  0  0  # atno 17394 bound_to 11000
  139.9529  135.0172  156.9044 LP  0  0  0  0  0  0  0  0  0  0  0  0  # atno 17395 bound_to 11000

$$$$
