AV-unprocessed.smi:294|AV-procd|sdf|2252|dock1
  -GOLD-   2262022133D 1   1.00000     0.00000
 Structure written by MMmdl.
 29 30  0  0  0  0  0  0  0  0  1 V2000
  154.6137  135.2327  157.1497 N   0  0  0  0  0  0  0  0  0  0  0  0
  154.5201  135.7843  158.1626 C   0  0  0  0  0  0  0  0  0  0  0  0
  154.4025  136.4763  159.4346 C   0  0  0  0  0  0  0  0  0  0  0  0
  153.7754  135.9033  160.5029 N   0  0  0  0  0  0  0  0  0  0  0  0
  153.9331  136.8831  161.3844 C   0  0  0  0  0  0  0  0  0  0  0  0
  154.5863  137.9464  160.9035 N   0  0  0  0  0  0  0  0  0  0  0  0
  154.9642  139.1901  161.5477 C   0  0  0  0  0  0  0  0  0  0  0  0
  154.6322  140.3841  160.6532 C   0  0  0  0  0  0  0  0  0  0  0  0
  155.0395  140.4148  159.4922 O   0  0  0  0  0  0  0  0  0  0  0  0
  153.8796  141.3505  161.2010 N   0  0  0  0  0  0  0  0  0  0  0  0
  153.4152  142.5458  160.5055 C   0  0  2  0  0  0  0  0  0  0  0  0
  152.7099  143.5150  161.4719 C   0  0  0  0  0  0  0  0  0  0  0  0
  151.9384  144.5541  160.6486 C   0  0  0  0  0  0  0  0  0  0  0  0
  151.4284  143.7037  159.1063 S   0  0  0  0  0  0  0  0  0  0  0  0
  150.0014  143.3563  159.1830 O   0  0  0  0  0  0  0  0  0  0  0  0
  151.9674  144.4423  157.9543 O   0  0  0  0  0  0  0  0  0  0  0  0
  152.4270  142.1932  159.3829 C   0  0  0  0  0  0  0  0  0  0  0  0
  154.9072  137.6959  159.6103 N   0  0  0  0  0  0  0  0  0  0  0  0
  153.5709  136.8242  162.4005 H   0  0  0  0  0  0  0  0  0  0  0  0
  154.4527  139.2726  162.5083 H   0  0  0  0  0  0  0  0  0  0  0  0
  156.0351  139.1690  161.7538 H   0  0  0  0  0  0  0  0  0  0  0  0
  153.5883  141.2379  162.1615 H   0  0  0  0  0  0  0  0  0  0  0  0
  154.2655  143.0737  160.0692 H   0  0  0  0  0  0  0  0  0  0  0  0
  151.9982  142.9583  162.0835 H   0  0  0  0  0  0  0  0  0  0  0  0
  153.4137  143.9902  162.1562 H   0  0  0  0  0  0  0  0  0  0  0  0
  151.0658  144.9488  161.1691 H   0  0  0  0  0  0  0  0  0  0  0  0
  152.5858  145.3873  160.3736 H   0  0  0  0  0  0  0  0  0  0  0  0
  152.9204  141.8927  158.4584 H   0  0  0  0  0  0  0  0  0  0  0  0
  151.7471  141.3972  159.6891 H   0  0  0  0  0  0  0  0  0  0  0  0
  1  2  3  0  0  0  0
  2  3  1  0  0  0  0
  3 18  2  0  0  0  0
  3  4  1  0  0  0  0
  4  5  2  0  0  0  0
  5  6  1  0  0  0  0
  5 19  1  0  0  0  0
  6  7  1  0  0  0  0
  6 18  1  0  0  0  0
  7  8  1  0  0  0  0
  7 20  1  0  0  0  0
  7 21  1  0  0  0  0
  8  9  2  0  0  0  0
  8 10  1  0  0  0  0
 10 11  1  0  0  0  0
 10 22  1  0  0  0  0
 11 17  1  0  0  0  0
 11 12  1  0  0  0  0
 11 23  1  0  0  0  0
 12 13  1  0  0  0  0
 12 24  1  0  0  0  0
 12 25  1  0  0  0  0
 13 14  1  0  0  0  0
 13 26  1  0  0  0  0
 13 27  1  0  0  0  0
 14 15  2  0  0  0  0
 14 16  2  0  0  0  0
 14 17  1  0  0  0  0
 17 28  1  0  0  0  0
 17 29  1  0  0  0  0
M  END
> <s_m_source_file>
AV-unprocessed.smi

> <i_m_source_file_index>
294

> <i_lp_mmshare_version>
43012

> <i_f3d_flags>
0

> <s_epik_input>
TiNDYzFuW2NIXW4objEpW0NIMl1DKD1PKVtOSF1bQ0BASF0oW0NIMl0yKVtDSDJdW0NIMl1TMig9Tyk9Tw==

> <s_epik_cmdline>
J2VwaWtfcHl0aG9uJywgJy1waCcsICc3LjAnLCAnLXRuJywgJzgnLCAnLW1hJywgJzIwMCcsICctbWV0YWxfYmluZGluZycsICctaW1hZScsICc8aW5maWxlLm1hZT4nLCAnLW9tYWUnLCAnPG91dGZpbGUubWFlPic=

> <r_lp_tautomer_probability>
1

> <r_epik_Ionization_Penalty>
6.08231e-07

> <r_epik_Ionization_Penalty_Charging>
0

> <r_epik_Ionization_Penalty_Neutral>
6.08231e-07

> <r_epik_State_Penalty>
-0

> <r_epik_Charging_Adjusted_Penalty>
0

> <i_epik_Tot_Q>
0

> <i_epik_Tot_abs_Q>
0

> <r_epik_Metal_State_Penalty>
-0

> <b_epik_Metal_Only>
0

> <s_lp_Force_Field>
OPLS_2005

> <r_lp_Energy>
6.42809

> <b_lp_Chiralities_Consistent>
1

> <s_lp_Variant>
AV-unprocessed.smi:294-1

> <Gold.Version>
5.8.1

> <Gold.Id.Protein>
6NUR|6NUR_protein|mol2

> <Gold.PLP.Fitness>
38.8042

> <Gold.PLP.PLP>
-31.3901

> <Gold.PLP.part.hbond>
-3.8472

> <Gold.PLP.part.metal>
0.0000

> <Gold.PLP.part.buried>
-5.2813

> <Gold.PLP.part.nonpolar>
-21.9443

> <Gold.PLP.part.repulsive>
0.2046

> <Gold.PLP.ligand.clash>
0.0000

> <Gold.PLP.ligand.torsion>
0.2406

> <Gold.PLP.Chemscore.Hbond>
2.6292

> <Gold.PLP.Chemscore.CHOScore>
0.0000

> <Gold.PLP.Chemscore.Metal>
0.0000

> <Gold.Chemscore.Hbonds>
donor molecule, donor type, donor heavy atom, donor atom, acceptor molecule, acceptor atom, score
      P1  H  6896  6909       L1     4  1.00
      P1  H  7997  8008       L1     9  0.54
      P1  H 10752 10763       L1     1  1.00

> <Gold.PLP.Chemscore.Internal.Correction>
0.0076

> <Gold.Rescore>
     Score         DG    S(hbond)    S(metal)    S(lipo)     H(rot)  DE(clash)    DE(int)     intcor
     14.20     -15.65       2.89        0.00      51.70       2.15       0.01       1.44       ----

> <Gold.Chemscore.Fitness>
14.2002

> <Gold.Chemscore.DG>
-15.6533

> <Gold.Chemscore.ZeroCoef>
-5.4800

> <Gold.Chemscore.Hbond>
2.8862

> <Gold.Chemscore.Metal>
0.0000

> <Gold.Chemscore.Lipo>
51.7013

> <Gold.Chemscore.Internal_Hbond>
0.0000

> <Gold.Chemscore.DEClash>
0.0128

> <Gold.Chemscore.DEInternal>
1.4403

> <Gold.Chemscore.Rot>
2.1546

> <Gold.Chemscore.Internal.Correction>
   9.000000E+99

> <Gold.Chemscore.Hbonds>
donor molecule, donor type, donor heavy atom, donor atom, acceptor molecule, acceptor atom, score
      P1  H  6896  6909       L1     4  0.88
      P1  H  7997  8008       L1     9  0.53
      P1  H 10752 10763       L1     1  1.00

> <Gold.Chemscore.Hbond.Weighted>
-9.6400

> <Gold.Chemscore.Metal.Weighted>
-0.0000

> <Gold.Chemscore.Lipo.Weighted>
-6.0491

> <Gold.Chemscore.Internal_Hbond.Weighted>
0.0000

> <Gold.Chemscore.DEClash.Weighted>
0.0128

> <Gold.Chemscore.DEInternal.Weighted>
1.4403

> <Gold.Chemscore.Rot.Weighted>
5.5158

> <Gold.Chemscore.Internal.Correction.Weighted>
   9.000000E+99

> <Gold.Protein.RotatedTorsions>
[ 6907 6896 6895 6894 ] final  171.17 input  -60.11 | X-H torsion
[ 7974 7965 7964 7962 ] final -105.08 input  175.53 | X-H torsion
[ 8008 7997 7996 7995 ] final -133.57 input   59.86 | X-H torsion
[ 10167 10162 10161 10158 ] final -115.96 input  -65.29 | X-H torsion
[ 10718 10713 10712 10709 ] final   -8.68 input   66.30 | X-H torsion
[ 10763 10752 10751 10750 ] final  151.23 input  -60.55 | X-H torsion
[ 11005 11000 10999 10996 ] final -152.36 input  -57.11 | X-H torsion

> <Gold.Protein.ActiveResidues>
 VAL166  LYS551  ARG553  GLY616  TRP617  ASP618  TYR619  PRO620  LYS621  CYS622 
 ASP623  PHE694  ASN695  SER759  ASP760  ASP761  ALA762  ILE779  LEU786  VAL792 
 PHE793  MET794  SER795  GLU796  ALA797  LYS798  CYS799  TRP800  GLU811  SER814 

> <Gold.Protein.RotatedAtoms>
  151.8045  133.3374  159.3536 H   0  0  0  0  0  0  0  0  0  0  0  0  # atno 6907 bound_to 6896
  150.7347  134.5722  159.5905 H   0  0  0  0  0  0  0  0  0  0  0  0  # atno 6908 bound_to 6896
  152.3119  134.7488  160.0385 H   0  0  0  0  0  0  0  0  0  0  0  0  # atno 6909 bound_to 6896
  145.2350  140.9184  143.3183 H   0  0  0  0  0  0  0  0  0  0  0  0  # atno 7974 bound_to 7965
  155.3476  140.0475  157.3046 H   0  0  0  0  0  0  0  0  0  0  0  0  # atno 8008 bound_to 7997
  154.5244  140.2236  155.8881 H   0  0  0  0  0  0  0  0  0  0  0  0  # atno 8009 bound_to 7997
  156.1724  140.3093  155.9003 H   0  0  0  0  0  0  0  0  0  0  0  0  # atno 8010 bound_to 7997
  140.0844  143.4757  152.1907 H   0  0  0  0  0  0  0  0  0  0  0  0  # atno 10167 bound_to 10162
  156.6991  130.5088  149.5922 H   0  0  0  0  0  0  0  0  0  0  0  0  # atno 10718 bound_to 10713
  154.1004  135.2846  155.3253 H   0  0  0  0  0  0  0  0  0  0  0  0  # atno 10763 bound_to 10752
  154.6559  135.5352  153.7962 H   0  0  0  0  0  0  0  0  0  0  0  0  # atno 10764 bound_to 10752
  153.0381  135.6522  154.1168 H   0  0  0  0  0  0  0  0  0  0  0  0  # atno 10765 bound_to 10752
  140.7197  134.3741  157.5185 H   0  0  0  0  0  0  0  0  0  0  0  0  # atno 11005 bound_to 11000
  144.9642  139.3948  143.6341 LP  0  0  0  0  0  0  0  0  0  0  0  0  # atno 17320 bound_to 7965
  146.3343  139.8709  142.8840 LP  0  0  0  0  0  0  0  0  0  0  0  0  # atno 17321 bound_to 7965
  139.5761  144.7488  151.3763 LP  0  0  0  0  0  0  0  0  0  0  0  0  # atno 17342 bound_to 10162
  140.7061  143.7510  150.7484 LP  0  0  0  0  0  0  0  0  0  0  0  0  # atno 17343 bound_to 10162
  156.1742  130.6457  151.0874 LP  0  0  0  0  0  0  0  0  0  0  0  0  # atno 17370 bound_to 10713
  157.6980  131.0787  150.6910 LP  0  0  0  0  0  0  0  0  0  0  0  0  # atno 17371 bound_to 10713
  139.8851  134.8946  156.2663 LP  0  0  0  0  0  0  0  0  0  0  0  0  # atno 17394 bound_to 11000
  141.0014  133.7149  156.0966 LP  0  0  0  0  0  0  0  0  0  0  0  0  # atno 17395 bound_to 11000

$$$$
