AV-unprocessed.smi:247|AV-procd|sdf|1892|dock7
  -GOLD-   2262020553D 1   1.00000     0.00000
 Structure written by MMmdl.
 61 65  0  0  0  0  0  0  0  0  1 V2000
  148.6159  138.1906  154.2378 O   0  0  0  0  0  0  0  0  0  0  0  0
  148.9744  137.4297  155.3745 C   0  0  0  0  0  0  0  0  0  0  0  0
  150.3748  137.7901  155.9450 C   0  0  0  0  0  0  0  0  0  0  0  0
  150.6314  136.9248  157.2203 C   0  0  0  0  0  0  0  0  0  0  0  0
  149.5449  136.9192  158.1890 N   0  0  0  0  0  0  0  0  0  0  0  0
  149.0008  138.0136  158.8240 C   0  0  0  0  0  0  0  0  0  0  0  0
  148.0374  137.7499  159.6632 N   0  0  0  0  0  0  0  0  0  0  0  0
  147.8914  136.3704  159.5853 C   0  0  0  0  0  0  0  0  0  0  0  0
  147.0531  135.4211  160.2352 C   0  0  0  0  0  0  0  0  0  0  0  0
  146.1419  135.7217  161.1854 N   0  0  0  0  0  0  0  0  0  0  0  0
  146.3473  135.0306  162.4562 C   0  0  0  0  0  0  0  0  0  0  0  0
  144.9702  134.5502  162.9234 C   0  0  0  0  0  0  0  0  0  0  0  0
  144.0046  135.4259  162.1340 C   0  0  0  0  0  0  0  0  0  0  0  0
  144.7384  135.5784  160.7952 C   0  0  1  0  0  0  0  0  0  0  0  0
  144.2514  136.6938  159.8073 C   0  0  2  0  0  0  0  0  0  0  0  0
  144.4354  138.1424  160.3204 C   0  0  0  0  0  0  0  0  0  0  0  0
  143.5769  138.3986  161.4292 O   0  0  0  0  0  0  0  0  0  0  0  0
  142.1943  138.3235  161.0971 C   0  0  0  0  0  0  0  0  0  0  0  0
  141.8452  136.9206  160.5752 C   0  0  0  0  0  0  0  0  0  0  0  0
  142.7637  136.5547  159.4004 C   0  0  2  0  0  0  0  0  0  0  0  0
  142.4444  135.2709  158.9051 O   0  0  0  0  0  0  0  0  0  0  0  0
  147.1870  134.1156  159.8979 N   0  0  0  0  0  0  0  0  0  0  0  0
  148.0928  133.7528  158.9845 C   0  0  0  0  0  0  0  0  0  0  0  0
  148.9512  134.5198  158.3086 N   0  0  0  0  0  0  0  0  0  0  0  0
  148.8176  135.8343  158.6484 C   0  0  0  0  0  0  0  0  0  0  0  0
  151.4569  137.5599  154.8582 C   0  0  0  0  0  0  0  0  0  0  0  0
  152.8314  138.1125  155.2749 C   0  0  0  0  0  0  0  0  0  0  0  0
  152.7243  139.4995  155.5708 O   0  0  0  0  0  0  0  0  0  0  0  0
  151.8522  139.7725  156.6612 C   0  0  0  0  0  0  0  0  0  0  0  0
  150.4250  139.2896  156.3367 C   0  0  0  0  0  0  0  0  0  0  0  0
  148.7356  137.6553  153.4683 H   0  0  0  0  0  0  0  0  0  0  0  0
  148.2057  137.5770  156.1339 H   0  0  0  0  0  0  0  0  0  0  0  0
  148.9335  136.3806  155.0817 H   0  0  0  0  0  0  0  0  0  0  0  0
  150.8348  135.8866  156.9631 H   0  0  0  0  0  0  0  0  0  0  0  0
  151.5303  137.2753  157.7292 H   0  0  0  0  0  0  0  0  0  0  0  0
  149.3519  139.0209  158.6542 H   0  0  0  0  0  0  0  0  0  0  0  0
  147.0555  134.2035  162.3926 H   0  0  0  0  0  0  0  0  0  0  0  0
  146.7524  135.7512  163.1669 H   0  0  0  0  0  0  0  0  0  0  0  0
  144.8306  133.5052  162.6433 H   0  0  0  0  0  0  0  0  0  0  0  0
  144.8364  134.6315  164.0024 H   0  0  0  0  0  0  0  0  0  0  0  0
  143.0169  134.9754  162.0327 H   0  0  0  0  0  0  0  0  0  0  0  0
  143.9012  136.3810  162.6491 H   0  0  0  0  0  0  0  0  0  0  0  0
  144.6351  134.6157  160.2953 H   0  0  0  0  0  0  0  0  0  0  0  0
  144.8472  136.6159  158.8965 H   0  0  0  0  0  0  0  0  0  0  0  0
  145.4693  138.3373  160.6018 H   0  0  0  0  0  0  0  0  0  0  0  0
  144.2137  138.8555  159.5244 H   0  0  0  0  0  0  0  0  0  0  0  0
  141.6052  138.5506  161.9855 H   0  0  0  0  0  0  0  0  0  0  0  0
  141.9515  139.0836  160.3529 H   0  0  0  0  0  0  0  0  0  0  0  0
  141.9494  136.1947  161.3824 H   0  0  0  0  0  0  0  0  0  0  0  0
  140.8005  136.8909  160.2636 H   0  0  0  0  0  0  0  0  0  0  0  0
  142.5654  137.2510  158.5843 H   0  0  0  0  0  0  0  0  0  0  0  0
  143.1563  134.9742  158.3587 H   0  0  0  0  0  0  0  0  0  0  0  0
  148.1407  132.6958  158.7687 H   0  0  0  0  0  0  0  0  0  0  0  0
  151.5347  136.5060  154.5940 H   0  0  0  0  0  0  0  0  0  0  0  0
  151.1687  138.0678  153.9371 H   0  0  0  0  0  0  0  0  0  0  0  0
  153.2407  137.5739  156.1298 H   0  0  0  0  0  0  0  0  0  0  0  0
  153.5425  137.9867  154.4583 H   0  0  0  0  0  0  0  0  0  0  0  0
  152.2363  139.3171  157.5740 H   0  0  0  0  0  0  0  0  0  0  0  0
  151.8455  140.8484  156.8355 H   0  0  0  0  0  0  0  0  0  0  0  0
  150.0538  139.9061  155.5179 H   0  0  0  0  0  0  0  0  0  0  0  0
  149.7639  139.4854  157.1815 H   0  0  0  0  0  0  0  0  0  0  0  0
  1  2  1  0  0  0  0
  1 31  1  0  0  0  0
  2  3  1  0  0  0  0
  2 32  1  0  0  0  0
  2 33  1  0  0  0  0
  3 30  1  0  0  0  0
  3  4  1  0  0  0  0
  3 26  1  0  0  0  0
  4  5  1  0  0  0  0
  4 34  1  0  0  0  0
  4 35  1  0  0  0  0
  5 25  1  0  0  0  0
  5  6  1  0  0  0  0
  6  7  2  0  0  0  0
  6 36  1  0  0  0  0
  7  8  1  0  0  0  0
  8 25  2  0  0  0  0
  8  9  1  0  0  0  0
  9 10  1  0  0  0  0
  9 22  2  0  0  0  0
 10 14  1  0  0  0  0
 10 11  1  0  0  0  0
 11 12  1  0  0  0  0
 11 37  1  0  0  0  0
 11 38  1  0  0  0  0
 12 13  1  0  0  0  0
 12 39  1  0  0  0  0
 12 40  1  0  0  0  0
 13 14  1  0  0  0  0
 13 41  1  0  0  0  0
 13 42  1  0  0  0  0
 14 15  1  0  0  0  0
 14 43  1  0  0  0  0
 15 20  1  0  0  0  0
 15 16  1  0  0  0  0
 15 44  1  0  0  0  0
 16 17  1  0  0  0  0
 16 45  1  0  0  0  0
 16 46  1  0  0  0  0
 17 18  1  0  0  0  0
 18 19  1  0  0  0  0
 18 47  1  0  0  0  0
 18 48  1  0  0  0  0
 19 20  1  0  0  0  0
 19 49  1  0  0  0  0
 19 50  1  0  0  0  0
 20 21  1  0  0  0  0
 20 51  1  0  0  0  0
 21 52  1  0  0  0  0
 22 23  1  0  0  0  0
 23 24  2  0  0  0  0
 23 53  1  0  0  0  0
 24 25  1  0  0  0  0
 26 27  1  0  0  0  0
 26 54  1  0  0  0  0
 26 55  1  0  0  0  0
 27 28  1  0  0  0  0
 27 56  1  0  0  0  0
 27 57  1  0  0  0  0
 28 29  1  0  0  0  0
 29 30  1  0  0  0  0
 29 58  1  0  0  0  0
 29 59  1  0  0  0  0
 30 60  1  0  0  0  0
 30 61  1  0  0  0  0
M  END
> <s_m_source_file>
AV-unprocessed.smi

> <i_m_source_file_index>
247

> <i_lp_mmshare_version>
43012

> <i_f3d_flags>
0

> <s_epik_input>
W0NIMl0xW0NIMl1PW0NIMl1bQ0gyXUMxKFtDSDJdW09IXSlbQ0gyXW4oW2NIXW4yKWMoYzIzKW5bY0hdbmMzTjRbQ0gyXVtDSDJdW0NIMl1bQ0BIXTRbQ0BASF01W0NIMl1PW0NIMl1bQ0gyXVtDQEhdNVtPSF0=

> <s_epik_cmdline>
J2VwaWtfcHl0aG9uJywgJy1waCcsICc3LjAnLCAnLXRuJywgJzgnLCAnLW1hJywgJzIwMCcsICctbWV0YWxfYmluZGluZycsICctaW1hZScsICc8aW5maWxlLm1hZT4nLCAnLW9tYWUnLCAnPG91dGZpbGUubWFlPic=

> <r_lp_tautomer_probability>
1

> <r_epik_Ionization_Penalty>
0.00362597

> <r_epik_Ionization_Penalty_Charging>
0

> <r_epik_Ionization_Penalty_Neutral>
0.00362597

> <r_epik_State_Penalty>
0.00241433

> <r_epik_Charging_Adjusted_Penalty>
0.00241433

> <i_epik_Tot_Q>
0

> <i_epik_Tot_abs_Q>
0

> <r_epik_Metal_State_Penalty>
-0

> <b_epik_Metal_Only>
0

> <s_lp_Force_Field>
OPLS_2005

> <r_lp_Energy>
63.5358

> <b_lp_Chiralities_Consistent>
1

> <s_lp_Variant>
AV-unprocessed.smi:247-5

> <Gold.Version>
5.8.1

> <Gold.Id.Protein>
6NUR|6NUR_protein|mol2

> <Gold.PLP.Fitness>
43.3894

> <Gold.PLP.PLP>
-30.4468

> <Gold.PLP.part.hbond>
-5.6474

> <Gold.PLP.part.metal>
0.0000

> <Gold.PLP.part.buried>
-6.2760

> <Gold.PLP.part.nonpolar>
-20.9952

> <Gold.PLP.part.repulsive>
0.0000

> <Gold.PLP.ligand.clash>
0.0000

> <Gold.PLP.ligand.torsion>
0.2020

> <Gold.PLP.Chemscore.Hbond>
4.4154

> <Gold.PLP.Chemscore.CHOScore>
0.0000

> <Gold.PLP.Chemscore.Metal>
0.0000

> <Gold.Chemscore.Hbonds>
donor molecule, donor type, donor heavy atom, donor atom, acceptor molecule, acceptor atom, score
      L1  H     1    31       P1  7948  0.71
      P1  H  6896  6909       L1    24  0.80
      P1  H  6934  6947       L1     7  0.50
      P1  H  7997  8008       L1    28  1.00
      P1  H 11000 11005       L1    21  0.09

> <Gold.PLP.Chemscore.Internal.Correction>
0.1003

> <Gold.Rescore>
     Score         DG    S(hbond)    S(metal)    S(lipo)     H(rot)  DE(clash)    DE(int)     intcor
     15.43     -16.81       3.85        0.00      57.60       3.23       0.23       1.14       ----

> <Gold.Chemscore.Fitness>
15.4291

> <Gold.Chemscore.DG>
-16.8054

> <Gold.Chemscore.ZeroCoef>
-5.4800

> <Gold.Chemscore.Hbond>
3.8471

> <Gold.Chemscore.Metal>
0.0000

> <Gold.Chemscore.Lipo>
57.6012

> <Gold.Chemscore.Internal_Hbond>
0.0000

> <Gold.Chemscore.DEClash>
0.2332

> <Gold.Chemscore.DEInternal>
1.1431

> <Gold.Chemscore.Rot>
3.2278

> <Gold.Chemscore.Internal.Correction>
   9.000000E+99

> <Gold.Chemscore.Hbonds>
donor molecule, donor type, donor heavy atom, donor atom, acceptor molecule, acceptor atom, score
      L1  H     1    31       P1  7948  0.71
      P1  H  6896  6909       L1    24  0.03
      P1  H  6934  6947       L1     7  0.47
      P1  H  7997  8008       L1    28  0.19

> <Gold.Chemscore.Hbond.Weighted>
-12.8493

> <Gold.Chemscore.Metal.Weighted>
-0.0000

> <Gold.Chemscore.Lipo.Weighted>
-6.7393

> <Gold.Chemscore.Internal_Hbond.Weighted>
0.0000

> <Gold.Chemscore.DEClash.Weighted>
0.2332

> <Gold.Chemscore.DEInternal.Weighted>
1.1431

> <Gold.Chemscore.Rot.Weighted>
8.2633

> <Gold.Chemscore.Internal.Correction.Weighted>
   9.000000E+99

> <Gold.Protein.RotatedTorsions>
[ 6907 6896 6895 6894 ] final   23.00 input  -60.11 | X-H torsion
[ 7974 7965 7964 7962 ] final -175.20 input  175.53 | X-H torsion
[ 8008 7997 7996 7995 ] final  -40.56 input   59.86 | X-H torsion
[ 10167 10162 10161 10158 ] final  130.31 input  -65.29 | X-H torsion
[ 10718 10713 10712 10709 ] final    0.18 input   66.30 | X-H torsion
[ 10763 10752 10751 10750 ] final -102.77 input  -60.55 | X-H torsion
[ 11005 11000 10999 10996 ] final -129.41 input  -57.11 | X-H torsion

> <Gold.Protein.ActiveResidues>
 VAL166  LYS551  ARG553  GLY616  TRP617  ASP618  TYR619  PRO620  LYS621  CYS622 
 ASP623  PHE694  ASN695  SER759  ASP760  ASP761  ALA762  ILE779  LEU786  VAL792 
 PHE793  MET794  SER795  GLU796  ALA797  LYS798  CYS799  TRP800  GLU811  SER814 

> <Gold.Protein.RotatedAtoms>
  151.9357  135.0236  160.0532 H   0  0  0  0  0  0  0  0  0  0  0  0  # atno 6907 bound_to 6896
  152.2080  133.4885  159.5102 H   0  0  0  0  0  0  0  0  0  0  0  0  # atno 6908 bound_to 6896
  150.6969  134.1421  159.4152 H   0  0  0  0  0  0  0  0  0  0  0  0  # atno 6909 bound_to 6896
  144.7129  140.1356  143.6395 H   0  0  0  0  0  0  0  0  0  0  0  0  # atno 7974 bound_to 7965
  154.4011  140.1522  156.3048 H   0  0  0  0  0  0  0  0  0  0  0  0  # atno 8008 bound_to 7997
  155.8668  140.3451  155.5772 H   0  0  0  0  0  0  0  0  0  0  0  0  # atno 8009 bound_to 7997
  155.7818  140.0844  157.2045 H   0  0  0  0  0  0  0  0  0  0  0  0  # atno 8010 bound_to 7997
  139.5436  144.6753  151.4545 H   0  0  0  0  0  0  0  0  0  0  0  0  # atno 10167 bound_to 10162
  156.8296  130.5484  149.5688 H   0  0  0  0  0  0  0  0  0  0  0  0  # atno 10718 bound_to 10713
  154.7758  135.4848  153.9741 H   0  0  0  0  0  0  0  0  0  0  0  0  # atno 10763 bound_to 10752
  153.1427  135.6776  153.9010 H   0  0  0  0  0  0  0  0  0  0  0  0  # atno 10764 bound_to 10752
  153.8679  135.3147  155.3419 H   0  0  0  0  0  0  0  0  0  0  0  0  # atno 10765 bound_to 10752
  140.9434  134.1163  157.4130 H   0  0  0  0  0  0  0  0  0  0  0  0  # atno 11005 bound_to 11000
  145.9247  139.2568  143.1360 LP  0  0  0  0  0  0  0  0  0  0  0  0  # atno 17320 bound_to 7965
  145.9584  140.8855  143.0223 LP  0  0  0  0  0  0  0  0  0  0  0  0  # atno 17321 bound_to 7965
  140.6676  143.8365  150.6960 LP  0  0  0  0  0  0  0  0  0  0  0  0  # atno 17342 bound_to 10162
  140.1779  143.4139  152.1954 LP  0  0  0  0  0  0  0  0  0  0  0  0  # atno 17343 bound_to 10162
  156.0942  130.5919  150.9784 LP  0  0  0  0  0  0  0  0  0  0  0  0  # atno 17370 bound_to 10713
  157.6414  131.0910  150.8244 LP  0  0  0  0  0  0  0  0  0  0  0  0  # atno 17371 bound_to 10713
  139.8826  135.0043  156.6244 LP  0  0  0  0  0  0  0  0  0  0  0  0  # atno 17394 bound_to 11000
  140.7703  133.8744  155.8486 LP  0  0  0  0  0  0  0  0  0  0  0  0  # atno 17395 bound_to 11000

$$$$
