AV-unprocessed.smi:1165|AV-procd|sdf|4932|dock4
  -GOLD-   22720 3513D 1   1.00000     0.00000
 Structure written by MMmdl.
 40 41  0  0  0  0  0  0  0  0  2 V2000
  151.3420  144.5648  158.0986 C   0  0  0  0  0  0  0  0  0  0  0  0
  151.4515  143.1053  158.5531 C   0  0  1  0  0  0  0  0  0  0  0  0
  151.5037  142.1317  157.3616 C   0  0  0  0  0  0  0  0  0  0  0  0
  151.7348  140.7475  157.8070 N   0  0  0  0  0  0  0  0  0  0  0  0
  151.5866  139.5109  156.5966 S   0  0  0  0  0  0  0  0  0  0  0  0
  151.2717  140.1960  155.3325 O   0  0  0  0  0  0  0  0  0  0  0  0
  152.8393  138.7400  156.6620 O   0  0  0  0  0  0  0  0  0  0  0  0
  150.2984  138.7507  157.2264 N   0  5  0  0  0  0  0  0  0  0  0  0
  150.3674  137.3207  157.4828 C   0  0  0  0  0  0  0  0  0  0  0  0
  150.7985  136.5568  156.2092 C   0  0  0  0  0  0  0  0  0  0  0  0
  150.4712  135.0672  156.2023 C   0  0  0  0  0  0  0  0  0  0  0  0
  151.0321  134.1871  157.1536 C   0  0  0  0  0  0  0  0  0  0  0  0
  150.6896  132.8224  157.1031 C   0  0  0  0  0  0  0  0  0  0  0  0
  149.8002  132.3917  156.0989 C   0  0  0  0  0  0  0  0  0  0  0  0
  149.2652  133.2185  155.1755 N   0  0  0  0  0  0  0  0  0  0  0  0
  149.5993  134.5255  155.2316 C   0  0  0  0  0  0  0  0  0  0  0  0
  152.8565  140.6295  158.7599 C   0  0  0  0  0  0  0  0  0  0  0  0
  152.7543  141.6714  159.8876 C   0  0  1  0  0  0  0  0  0  0  0  0
  153.9889  141.6541  160.7955 C   0  0  0  0  0  0  0  0  0  0  0  0
  152.6334  142.9712  159.3285 O   0  0  0  0  0  0  0  0  0  0  0  0
  150.4382  144.7256  157.5102 H   0  0  0  0  0  0  0  0  0  0  0  0
  152.1963  144.8527  157.4856 H   0  0  0  0  0  0  0  0  0  0  0  0
  151.3048  145.2375  158.9556 H   0  0  0  0  0  0  0  0  0  0  0  0
  150.5849  142.8742  159.1752 H   0  0  0  0  0  0  0  0  0  0  0  0
  150.5674  142.1874  156.8065 H   0  0  0  0  0  0  0  0  0  0  0  0
  152.3016  142.4141  156.6736 H   0  0  0  0  0  0  0  0  0  0  0  0
  151.0881  137.1048  158.2716 H   0  0  0  0  0  0  0  0  0  0  0  0
  149.4194  136.9163  157.8398 H   0  0  0  0  0  0  0  0  0  0  0  0
  150.3456  137.0222  155.3326 H   0  0  0  0  0  0  0  0  0  0  0  0
  151.8753  136.6658  156.0778 H   0  0  0  0  0  0  0  0  0  0  0  0
  151.7068  134.5529  157.9135 H   0  0  0  0  0  0  0  0  0  0  0  0
  151.0958  132.1239  157.8193 H   0  0  0  0  0  0  0  0  0  0  0  0
  149.5143  131.3523  156.0324 H   0  0  0  0  0  0  0  0  0  0  0  0
  149.1540  135.1601  154.4799 H   0  0  0  0  0  0  0  0  0  0  0  0
  152.8762  139.6323  159.1968 H   0  0  0  0  0  0  0  0  0  0  0  0
  153.7926  140.7540  158.2140 H   0  0  0  0  0  0  0  0  0  0  0  0
  151.8754  141.4600  160.4992 H   0  0  0  0  0  0  0  0  0  0  0  0
  154.1201  140.6765  161.2598 H   0  0  0  0  0  0  0  0  0  0  0  0
  153.8974  142.3917  161.5929 H   0  0  0  0  0  0  0  0  0  0  0  0
  154.8951  141.8813  160.2331 H   0  0  0  0  0  0  0  0  0  0  0  0
  1  2  1  0  0  0  0
  1 21  1  0  0  0  0
  1 22  1  0  0  0  0
  1 23  1  0  0  0  0
  2 20  1  0  0  0  0
  2  3  1  0  0  0  0
  2 24  1  0  0  0  0
  3  4  1  0  0  0  0
  3 25  1  0  0  0  0
  3 26  1  0  0  0  0
  4  5  1  0  0  0  0
  4 17  1  0  0  0  0
  5  6  2  0  0  0  0
  5  7  2  0  0  0  0
  5  8  1  0  0  0  0
  8  9  1  0  0  0  0
  9 10  1  0  0  0  0
  9 27  1  0  0  0  0
  9 28  1  0  0  0  0
 10 11  1  0  0  0  0
 10 29  1  0  0  0  0
 10 30  1  0  0  0  0
 11 16  1  0  0  0  0
 11 12  2  0  0  0  0
 12 13  1  0  0  0  0
 12 31  1  0  0  0  0
 13 14  2  0  0  0  0
 13 32  1  0  0  0  0
 14 15  1  0  0  0  0
 14 33  1  0  0  0  0
 15 16  2  0  0  0  0
 16 34  1  0  0  0  0
 17 18  1  0  0  0  0
 17 35  1  0  0  0  0
 17 36  1  0  0  0  0
 18 19  1  0  0  0  0
 18 20  1  0  0  0  0
 18 37  1  0  0  0  0
 19 38  1  0  0  0  0
 19 39  1  0  0  0  0
 19 40  1  0  0  0  0
M  CHG  1   8  -1
M  END
> <s_m_source_file>
AV-unprocessed.smi

> <i_m_source_file_index>
1165

> <i_lp_mmshare_version>
43012

> <i_f3d_flags>
0

> <s_epik_input>
W0NIM11bQ0BASF0xW0NIMl1OKFtDSDJdW0NASF0oTzEpW0NIM10pUyg9TykoPU8pW05IXVtDSDJdW0NIMl1jMltjSF1bY0hdW2NIXW5bY0hdMg==

> <s_epik_cmdline>
J2VwaWtfcHl0aG9uJywgJy1waCcsICc3LjAnLCAnLXRuJywgJzgnLCAnLW1hJywgJzIwMCcsICctbWV0YWxfYmluZGluZycsICctaW1hZScsICc8aW5maWxlLm1hZT4nLCAnLW9tYWUnLCAnPG91dGZpbGUubWFlPic=

> <r_epik_Ionization_Penalty>
1.23471

> <r_epik_Ionization_Penalty_Charging>
1.20871

> <r_epik_Ionization_Penalty_Neutral>
0.025996

> <r_epik_State_Penalty>
1.46261

> <r_epik_Charging_Adjusted_Penalty>
2.67132

> <i_epik_Tot_Q>
-1

> <i_epik_Tot_abs_Q>
1

> <r_epik_Metal_State_Penalty>
0.521406

> <b_epik_Metal_Only>
0

> <s_lp_Force_Field>
OPLS_2005

> <r_lp_Energy>
1.53282

> <b_lp_Chiralities_Consistent>
1

> <s_lp_Variant>
AV-unprocessed.smi:1165-5

> <Gold.Version>
5.8.1

> <Gold.Id.Protein>
6NUR|6NUR_protein|mol2

> <Gold.PLP.Fitness>
41.6681

> <Gold.PLP.PLP>
-33.1329

> <Gold.PLP.part.hbond>
-2.0000

> <Gold.PLP.part.metal>
0.0000

> <Gold.PLP.part.buried>
-5.8356

> <Gold.PLP.part.nonpolar>
-25.1406

> <Gold.PLP.part.repulsive>
0.1370

> <Gold.PLP.ligand.clash>
0.0000

> <Gold.PLP.ligand.torsion>
0.9342

> <Gold.PLP.Chemscore.Hbond>
1.9760

> <Gold.PLP.Chemscore.CHOScore>
1.0000

> <Gold.PLP.Chemscore.Metal>
0.0000

> <Gold.Chemscore.Hbonds>
donor molecule, donor type, donor heavy atom, donor atom, acceptor molecule, acceptor atom, score
      P1  H  7989  7998       L1     6  1.00
      P1  H  7997  8008       L1     7  0.96
      L1  C    16    34       P1  7948  0.31

> <Gold.PLP.Chemscore.Internal.Correction>
1.4757

> <Gold.Rescore>
     Score         DG    S(hbond)    S(metal)    S(lipo)     H(rot)  DE(clash)    DE(int)     intcor
     17.60     -18.56       1.92        0.00      89.30       1.47       0.00       0.95       ----

> <Gold.Chemscore.Fitness>
17.6001

> <Gold.Chemscore.DG>
-18.5555

> <Gold.Chemscore.ZeroCoef>
-5.4800

> <Gold.Chemscore.Hbond>
1.9156

> <Gold.Chemscore.Metal>
0.0000

> <Gold.Chemscore.Lipo>
89.3048

> <Gold.Chemscore.Internal_Hbond>
0.0000

> <Gold.Chemscore.DEClash>
0.0038

> <Gold.Chemscore.DEInternal>
0.9516

> <Gold.Chemscore.Rot>
1.4731

> <Gold.Chemscore.Internal.Correction>
   9.000000E+99

> <Gold.Chemscore.Hbonds>
donor molecule, donor type, donor heavy atom, donor atom, acceptor molecule, acceptor atom, score
      P1  H  7989  7998       L1     6  0.94
      P1  H  7997  8008       L1     7  0.63

> <Gold.Chemscore.Hbond.Weighted>
-6.3980

> <Gold.Chemscore.Metal.Weighted>
-0.0000

> <Gold.Chemscore.Lipo.Weighted>
-10.4487

> <Gold.Chemscore.Internal_Hbond.Weighted>
0.0000

> <Gold.Chemscore.DEClash.Weighted>
0.0038

> <Gold.Chemscore.DEInternal.Weighted>
0.9516

> <Gold.Chemscore.Rot.Weighted>
3.7712

> <Gold.Chemscore.Internal.Correction.Weighted>
   9.000000E+99

> <Gold.Protein.RotatedTorsions>
[ 6907 6896 6895 6894 ] final   65.34 input  -60.11 | X-H torsion
[ 7974 7965 7964 7962 ] final -127.36 input  175.53 | X-H torsion
[ 8008 7997 7996 7995 ] final  -65.33 input   59.86 | X-H torsion
[ 10167 10162 10161 10158 ] final   34.55 input  -65.29 | X-H torsion
[ 10718 10713 10712 10709 ] final -149.47 input   66.30 | X-H torsion
[ 10763 10752 10751 10750 ] final  -77.65 input  -60.55 | X-H torsion
[ 11005 11000 10999 10996 ] final  -95.11 input  -57.11 | X-H torsion

> <Gold.Protein.ActiveResidues>
 VAL166  LYS551  ARG553  GLY616  TRP617  ASP618  TYR619  PRO620  LYS621  CYS622 
 ASP623  PHE694  ASN695  SER759  ASP760  ASP761  ALA762  ILE779  LEU786  VAL792 
 PHE793  MET794  SER795  GLU796  ALA797  LYS798  CYS799  TRP800  GLU811  SER814 

> <Gold.Protein.RotatedAtoms>
  152.4400  134.5609  159.9893 H   0  0  0  0  0  0  0  0  0  0  0  0  # atno 6907 bound_to 6896
  151.5709  133.3384  159.2997 H   0  0  0  0  0  0  0  0  0  0  0  0  # atno 6908 bound_to 6896
  150.8305  134.7590  159.6913 H   0  0  0  0  0  0  0  0  0  0  0  0  # atno 6909 bound_to 6896
  144.9779  140.7611  143.4630 H   0  0  0  0  0  0  0  0  0  0  0  0  # atno 7974 bound_to 7965
  154.4665  140.0935  156.7033 H   0  0  0  0  0  0  0  0  0  0  0  0  # atno 8008 bound_to 7997
  155.4844  140.3468  155.4326 H   0  0  0  0  0  0  0  0  0  0  0  0  # atno 8009 bound_to 7997
  156.0965  140.1411  156.9512 H   0  0  0  0  0  0  0  0  0  0  0  0  # atno 8010 bound_to 7997
  140.4305  144.1332  150.6159 H   0  0  0  0  0  0  0  0  0  0  0  0  # atno 10167 bound_to 10162
  156.4335  130.8087  151.2315 H   0  0  0  0  0  0  0  0  0  0  0  0  # atno 10718 bound_to 10713
  154.5157  135.5757  153.6640 H   0  0  0  0  0  0  0  0  0  0  0  0  # atno 10763 bound_to 10752
  152.9906  135.6169  154.2820 H   0  0  0  0  0  0  0  0  0  0  0  0  # atno 10764 bound_to 10752
  154.2738  135.2852  155.2706 H   0  0  0  0  0  0  0  0  0  0  0  0  # atno 10765 bound_to 10752
  141.1451  133.8003  157.0391 H   0  0  0  0  0  0  0  0  0  0  0  0  # atno 11005 bound_to 11000
  145.2463  139.2050  143.4966 LP  0  0  0  0  0  0  0  0  0  0  0  0  # atno 17320 bound_to 7965
  146.3400  140.2368  142.8594 LP  0  0  0  0  0  0  0  0  0  0  0  0  # atno 17321 bound_to 7965
  140.4433  143.2517  151.9444 LP  0  0  0  0  0  0  0  0  0  0  0  0  # atno 17342 bound_to 10162
  139.4785  144.5633  151.8204 LP  0  0  0  0  0  0  0  0  0  0  0  0  # atno 17343 bound_to 10162
  157.7508  131.0191  150.3652 LP  0  0  0  0  0  0  0  0  0  0  0  0  # atno 17370 bound_to 10713
  156.3994  130.3913  149.6971 LP  0  0  0  0  0  0  0  0  0  0  0  0  # atno 17371 bound_to 10713
  140.0704  134.9705  157.1458 LP  0  0  0  0  0  0  0  0  0  0  0  0  # atno 17394 bound_to 11000
  140.3718  134.2381  155.7177 LP  0  0  0  0  0  0  0  0  0  0  0  0  # atno 17395 bound_to 11000

$$$$
