AV-unprocessed.smi:1703|AV-procd|sdf|6869|dock2
  -GOLD-   22720 8 63D 1   1.00000     0.00000
 Structure written by MMmdl.
 49 51  0  0  0  0  0  0  0  0  2 V2000
  155.5096  139.9328  162.9371 C   0  0  0  0  0  0  0  0  0  0  0  0
  155.8265  138.7601  161.9960 C   0  0  2  0  0  0  0  0  0  0  0  0
  155.0116  138.7824  160.6861 C   0  0  0  0  0  0  0  0  0  0  0  0
  153.6224  138.3649  160.8672 N   0  0  0  0  0  0  0  0  0  0  0  0
  152.8792  138.3374  159.6065 C   0  0  0  0  0  0  0  0  0  0  0  0
  152.6663  139.7034  158.9158 C   0  0  1  0  0  0  0  0  0  0  0  0
  153.3825  139.6806  157.6997 O   0  0  0  0  0  0  0  0  0  0  0  0
  151.1974  140.0231  158.5603 C   0  0  0  0  0  0  0  0  0  0  0  0
  150.9703  141.4217  158.1650 N   0  0  0  0  0  0  0  0  0  0  0  0
  150.3229  141.9493  157.0844 C   0  0  0  0  0  0  0  0  0  0  0  0
  149.6315  141.2011  155.9901 C   0  0  0  0  0  0  0  0  0  0  0  0
  149.0234  142.0535  155.0435 O   0  0  0  0  0  0  0  0  0  0  0  0
  150.4199  143.3059  157.1819 N   0  3  0  0  0  0  0  0  0  0  0  0
  151.1222  143.6495  158.3367 C   0  0  0  0  0  0  0  0  0  0  0  0
  151.4605  144.8930  158.8612 C   0  0  0  0  0  0  0  0  0  0  0  0
  152.1791  144.8928  160.0747 C   0  0  0  0  0  0  0  0  0  0  0  0
  152.5363  143.6890  160.7166 C   0  0  0  0  0  0  0  0  0  0  0  0
  152.1908  142.4343  160.1722 C   0  0  0  0  0  0  0  0  0  0  0  0
  151.4766  142.4440  158.9748 C   0  0  0  0  0  0  0  0  0  0  0  0
  153.6002  137.0592  161.5127 C   0  0  0  0  0  0  0  0  0  0  0  0
  154.3361  137.0755  162.8632 C   0  0  1  0  0  0  0  0  0  0  0  0
  154.3698  135.6913  163.5187 C   0  0  0  0  0  0  0  0  0  0  0  0
  155.6814  137.5026  162.6577 O   0  0  0  0  0  0  0  0  0  0  0  0
  155.6929  140.8884  162.4454 H   0  0  0  0  0  0  0  0  0  0  0  0
  156.1340  139.8942  163.8295 H   0  0  0  0  0  0  0  0  0  0  0  0
  154.4703  139.9239  163.2600 H   0  0  0  0  0  0  0  0  0  0  0  0
  156.8804  138.8463  161.7308 H   0  0  0  0  0  0  0  0  0  0  0  0
  155.0603  139.7831  160.2589 H   0  0  0  0  0  0  0  0  0  0  0  0
  155.4945  138.1189  159.9668 H   0  0  0  0  0  0  0  0  0  0  0  0
  153.3908  137.6628  158.9177 H   0  0  0  0  0  0  0  0  0  0  0  0
  151.8979  137.8905  159.7716 H   0  0  0  0  0  0  0  0  0  0  0  0
  153.0924  140.5107  159.5094 H   0  0  0  0  0  0  0  0  0  0  0  0
  152.7987  139.3997  157.0116 H   0  0  0  0  0  0  0  0  0  0  0  0
  150.8506  139.3842  157.7467 H   0  0  0  0  0  0  0  0  0  0  0  0
  150.5462  139.8071  159.4079 H   0  0  0  0  0  0  0  0  0  0  0  0
  150.3542  140.5611  155.4839 H   0  0  0  0  0  0  0  0  0  0  0  0
  148.8632  140.5537  156.4112 H   0  0  0  0  0  0  0  0  0  0  0  0
  149.2243  142.9484  155.2728 H   0  0  0  0  0  0  0  0  0  0  0  0
  151.1862  145.8159  158.3716 H   0  0  0  0  0  0  0  0  0  0  0  0
  152.4616  145.8348  160.5221 H   0  0  0  0  0  0  0  0  0  0  0  0
  153.0878  143.7280  161.6449 H   0  0  0  0  0  0  0  0  0  0  0  0
  152.4693  141.5174  160.6703 H   0  0  0  0  0  0  0  0  0  0  0  0
  152.5680  136.7457  161.6732 H   0  0  0  0  0  0  0  0  0  0  0  0
  154.0535  136.3140  160.8567 H   0  0  0  0  0  0  0  0  0  0  0  0
  153.8333  137.7636  163.5434 H   0  0  0  0  0  0  0  0  0  0  0  0
  153.3617  135.3227  163.7090 H   0  0  0  0  0  0  0  0  0  0  0  0
  154.8973  135.7248  164.4723 H   0  0  0  0  0  0  0  0  0  0  0  0
  154.8772  134.9653  162.8826 H   0  0  0  0  0  0  0  0  0  0  0  0
  150.0212  143.9458  156.5071 H   0  0  0  0  0  0  0  0  0  0  0  0
  1  2  1  0  0  0  0
  1 24  1  0  0  0  0
  1 25  1  0  0  0  0
  1 26  1  0  0  0  0
  2 23  1  0  0  0  0
  2  3  1  0  0  0  0
  2 27  1  0  0  0  0
  3  4  1  0  0  0  0
  3 28  1  0  0  0  0
  3 29  1  0  0  0  0
  4  5  1  0  0  0  0
  4 20  1  0  0  0  0
  5  6  1  0  0  0  0
  5 30  1  0  0  0  0
  5 31  1  0  0  0  0
  6  7  1  0  0  0  0
  6  8  1  0  0  0  0
  6 32  1  0  0  0  0
  7 33  1  0  0  0  0
  8  9  1  0  0  0  0
  8 34  1  0  0  0  0
  8 35  1  0  0  0  0
  9 19  1  0  0  0  0
  9 10  1  0  0  0  0
 10 11  1  0  0  0  0
 10 13  2  0  0  0  0
 11 12  1  0  0  0  0
 11 36  1  0  0  0  0
 11 37  1  0  0  0  0
 12 38  1  0  0  0  0
 13 14  1  0  0  0  0
 13 49  1  0  0  0  0
 14 19  2  0  0  0  0
 14 15  1  0  0  0  0
 15 16  2  0  0  0  0
 15 39  1  0  0  0  0
 16 17  1  0  0  0  0
 16 40  1  0  0  0  0
 17 18  2  0  0  0  0
 17 41  1  0  0  0  0
 18 19  1  0  0  0  0
 18 42  1  0  0  0  0
 20 21  1  0  0  0  0
 20 43  1  0  0  0  0
 20 44  1  0  0  0  0
 21 22  1  0  0  0  0
 21 23  1  0  0  0  0
 21 45  1  0  0  0  0
 22 46  1  0  0  0  0
 22 47  1  0  0  0  0
 22 48  1  0  0  0  0
M  CHG  1  13   1
M  END
> <s_m_source_file>
AV-unprocessed.smi

> <i_m_source_file_index>
1703

> <i_lp_mmshare_version>
43012

> <i_f3d_flags>
0

> <s_epik_input>
W0NIM11bQ0BASF0xW0NIMl1OKFtDSDJdW0NASF0oTzEpW0NIM10pW0NIMl1bQ0BIXShbT0hdKVtDSDJdbihjKG4yKVtDSDJdW09IXSljKGMyMylbY0hdW2NIXVtjSF1bY0hdMw==

> <s_epik_cmdline>
J2VwaWtfcHl0aG9uJywgJy1waCcsICc3LjAnLCAnLXRuJywgJzgnLCAnLW1hJywgJzIwMCcsICctbWV0YWxfYmluZGluZycsICctaW1hZScsICc8aW5maWxlLm1hZT4nLCAnLW9tYWUnLCAnPG91dGZpbGUubWFlPic=

> <r_epik_Ionization_Penalty>
1.7682

> <r_epik_Ionization_Penalty_Charging>
1.55298

> <r_epik_Ionization_Penalty_Neutral>
0.215215

> <r_epik_State_Penalty>
1.83821

> <r_epik_Charging_Adjusted_Penalty>
3.39119

> <i_epik_Tot_Q>
1

> <i_epik_Tot_abs_Q>
1

> <r_epik_Metal_State_Penalty>
5.89206

> <b_epik_Metal_Only>
0

> <s_lp_Force_Field>
OPLS_2005

> <r_lp_Energy>
30.0096

> <b_lp_Chiralities_Consistent>
1

> <s_lp_Variant>
AV-unprocessed.smi:1703-17

> <Gold.Version>
5.8.1

> <Gold.Id.Protein>
6NUR|6NUR_protein|mol2

> <Gold.PLP.Fitness>
56.0994

> <Gold.PLP.PLP>
-46.0372

> <Gold.PLP.part.hbond>
-2.7305

> <Gold.PLP.part.metal>
0.0000

> <Gold.PLP.part.buried>
-6.0311

> <Gold.PLP.part.nonpolar>
-37.7016

> <Gold.PLP.part.repulsive>
0.0107

> <Gold.PLP.ligand.clash>
0.0000

> <Gold.PLP.ligand.torsion>
0.9366

> <Gold.PLP.Chemscore.Hbond>
3.9750

> <Gold.PLP.Chemscore.CHOScore>
0.0000

> <Gold.PLP.Chemscore.Metal>
0.0000

> <Gold.Chemscore.Hbonds>
donor molecule, donor type, donor heavy atom, donor atom, acceptor molecule, acceptor atom, score
      L1  H    12    38       P1  8028  1.00
      L1  H    13    49       P1  8028  2.00
      P1  H  7997  8010       L1     7  0.89

> <Gold.PLP.Chemscore.Internal.Correction>
0.0105

> <Gold.Rescore>
     Score         DG    S(hbond)    S(metal)    S(lipo)     H(rot)  DE(clash)    DE(int)     intcor
     21.52     -22.57       2.87        0.00     128.79       2.96       0.14       0.90       ----

> <Gold.Chemscore.Fitness>
21.5214

> <Gold.Chemscore.DG>
-22.5680

> <Gold.Chemscore.ZeroCoef>
-5.4800

> <Gold.Chemscore.Hbond>
2.8698

> <Gold.Chemscore.Metal>
0.0000

> <Gold.Chemscore.Lipo>
128.7931

> <Gold.Chemscore.Internal_Hbond>
0.0000

> <Gold.Chemscore.DEClash>
0.1432

> <Gold.Chemscore.DEInternal>
0.9035

> <Gold.Chemscore.Rot>
2.9555

> <Gold.Chemscore.Internal.Correction>
   9.000000E+99

> <Gold.Chemscore.Hbonds>
donor molecule, donor type, donor heavy atom, donor atom, acceptor molecule, acceptor atom, score
      L1  H    12    38       P1  8028  0.99
      L1  H    13    49       P1  8028  0.98
      P1  H  7997  8010       L1     7  0.61

> <Gold.Chemscore.Hbond.Weighted>
-9.5852

> <Gold.Chemscore.Metal.Weighted>
-0.0000

> <Gold.Chemscore.Lipo.Weighted>
-15.0688

> <Gold.Chemscore.Internal_Hbond.Weighted>
0.0000

> <Gold.Chemscore.DEClash.Weighted>
0.1432

> <Gold.Chemscore.DEInternal.Weighted>
0.9035

> <Gold.Chemscore.Rot.Weighted>
7.5660

> <Gold.Chemscore.Internal.Correction.Weighted>
   9.000000E+99

> <Gold.Protein.RotatedTorsions>
[ 6907 6896 6895 6894 ] final  -46.58 input  -60.11 | X-H torsion
[ 7974 7965 7964 7962 ] final   70.89 input  175.53 | X-H torsion
[ 8008 7997 7996 7995 ] final   23.11 input   59.86 | X-H torsion
[ 10167 10162 10161 10158 ] final  151.16 input  -65.29 | X-H torsion
[ 10718 10713 10712 10709 ] final  -11.83 input   66.30 | X-H torsion
[ 10763 10752 10751 10750 ] final  -63.28 input  -60.55 | X-H torsion
[ 11005 11000 10999 10996 ] final -125.00 input  -57.11 | X-H torsion

> <Gold.Protein.ActiveResidues>
 VAL166  LYS551  ARG553  GLY616  TRP617  ASP618  TYR619  PRO620  LYS621  CYS622 
 ASP623  PHE694  ASN695  SER759  ASP760  ASP761  ALA762  ILE779  LEU786  VAL792 
 PHE793  MET794  SER795  GLU796  ALA797  LYS798  CYS799  TRP800  GLU811  SER814 

> <Gold.Protein.RotatedAtoms>
  150.9098  134.8514  159.7416 H   0  0  0  0  0  0  0  0  0  0  0  0  # atno 6907 bound_to 6896
  152.4938  134.4377  159.9543 H   0  0  0  0  0  0  0  0  0  0  0  0  # atno 6908 bound_to 6896
  151.4420  133.3601  159.2818 H   0  0  0  0  0  0  0  0  0  0  0  0  # atno 6909 bound_to 6896
  145.7726  139.2850  143.1312 H   0  0  0  0  0  0  0  0  0  0  0  0  # atno 7974 bound_to 7965
  154.9759  140.3096  155.4967 H   0  0  0  0  0  0  0  0  0  0  0  0  # atno 8008 bound_to 7997
  156.2960  140.2275  156.4794 H   0  0  0  0  0  0  0  0  0  0  0  0  # atno 8009 bound_to 7997
  154.7834  140.0444  157.1133 H   0  0  0  0  0  0  0  0  0  0  0  0  # atno 8010 bound_to 7997
  139.4843  144.5463  151.7477 H   0  0  0  0  0  0  0  0  0  0  0  0  # atno 10167 bound_to 10162
  156.6533  130.4961  149.6054 H   0  0  0  0  0  0  0  0  0  0  0  0  # atno 10718 bound_to 10713
  154.3126  135.6212  153.5472 H   0  0  0  0  0  0  0  0  0  0  0  0  # atno 10763 bound_to 10752
  152.9828  135.5705  154.5160 H   0  0  0  0  0  0  0  0  0  0  0  0  # atno 10764 bound_to 10752
  154.4813  135.2863  155.1545 H   0  0  0  0  0  0  0  0  0  0  0  0  # atno 10765 bound_to 10752
  140.9796  134.0691  157.3779 H   0  0  0  0  0  0  0  0  0  0  0  0  # atno 11005 bound_to 11000
  146.0155  140.8396  142.9949 LP  0  0  0  0  0  0  0  0  0  0  0  0  # atno 17320 bound_to 7965
  144.6810  140.2552  143.7326 LP  0  0  0  0  0  0  0  0  0  0  0  0  # atno 17321 bound_to 7965
  140.5011  144.1168  150.5971 LP  0  0  0  0  0  0  0  0  0  0  0  0  # atno 17342 bound_to 10162
  140.4061  143.2679  151.9889 LP  0  0  0  0  0  0  0  0  0  0  0  0  # atno 17343 bound_to 10162
  156.2067  130.6653  151.1226 LP  0  0  0  0  0  0  0  0  0  0  0  0  # atno 17370 bound_to 10713
  157.7134  131.0723  150.6419 LP  0  0  0  0  0  0  0  0  0  0  0  0  # atno 17371 bound_to 10713
  139.8945  135.0136  156.6953 LP  0  0  0  0  0  0  0  0  0  0  0  0  # atno 17394 bound_to 11000
  140.7206  133.9144  155.8144 LP  0  0  0  0  0  0  0  0  0  0  0  0  # atno 17395 bound_to 11000

$$$$
