AV-unprocessed.smi:256|AV-procd|sdf|1962|dock2
  -GOLD-   2262021113D 1   1.00000     0.00000
 Structure written by MMmdl.
 61 64  0  0  0  0  0  0  0  0  1 V2000
  147.0167  134.3661  161.8417 C   0  0  0  0  0  0  0  0  0  0  0  0
  147.8766  135.5337  161.3331 C   0  0  0  0  0  0  0  0  0  0  0  0
  147.8403  135.7571  159.7964 C   0  0  1  0  0  0  0  0  0  0  0  0
  148.3147  137.2009  159.4828 C   0  0  0  0  0  0  0  0  0  0  0  0
  148.2829  137.4774  158.0485 N   0  0  0  0  0  0  0  0  0  0  0  0
  148.4238  138.7647  157.6415 C   0  0  0  0  0  0  0  0  0  0  0  0
  147.3704  139.4241  157.0883 N   0  0  0  0  0  0  0  0  0  0  0  0
  147.5005  140.6932  156.6906 C   0  0  0  0  0  0  0  0  0  0  0  0
  148.5773  141.4790  156.7470 N   0  0  0  0  0  0  0  0  0  0  0  0
  149.6402  140.8215  157.2927 C   0  0  0  0  0  0  0  0  0  0  0  0
  149.6499  139.4780  157.7632 C   0  0  0  0  0  0  0  0  0  0  0  0
  150.9146  139.1548  158.2414 N   0  0  0  0  0  0  0  0  0  0  0  0
  151.6099  140.2454  158.0690 C   0  0  0  0  0  0  0  0  0  0  0  0
  150.9248  141.2938  157.4977 N   0  0  0  0  0  0  0  0  0  0  0  0
  151.4541  142.6124  157.1850 C   0  0  0  0  0  0  0  0  0  0  0  0
  151.6962  143.5007  158.4306 C   0  0  0  0  0  0  0  0  0  0  0  0
  152.4591  144.6216  158.0166 O   0  0  0  0  0  0  0  0  0  0  0  0
  150.3822  144.0091  159.0641 C   0  0  0  0  0  0  0  0  0  0  0  0
  150.6242  144.7178  160.4086 C   0  0  0  0  0  0  0  0  0  0  0  0
  151.3321  143.8594  161.2950 O   0  0  0  0  0  0  0  0  0  0  0  0
  152.6251  143.5152  160.8121 C   0  0  0  0  0  0  0  0  0  0  0  0
  152.5037  142.7299  159.4939 C   0  0  0  0  0  0  0  0  0  0  0  0
  149.0391  136.5054  157.2721 C   0  0  0  0  0  0  0  0  0  0  0  0
  148.5367  135.0936  157.5924 C   0  0  0  0  0  0  0  0  0  0  0  0
  148.6246  134.7652  159.0212 N   0  0  0  0  0  0  0  0  0  0  0  0
  148.1936  133.3779  159.2566 C   0  0  0  0  0  0  0  0  0  0  0  0
  148.6916  132.3363  158.2392 C   0  0  0  0  0  0  0  0  0  0  0  0
  150.1057  132.2460  158.3066 O   0  0  0  0  0  0  0  0  0  0  0  0
  150.6728  131.7091  157.1247 C   0  0  0  0  0  0  0  0  0  0  0  0
  147.2111  134.1810  162.8982 H   0  0  0  0  0  0  0  0  0  0  0  0
  147.2384  133.4464  161.2996 H   0  0  0  0  0  0  0  0  0  0  0  0
  145.9507  134.5709  161.7464 H   0  0  0  0  0  0  0  0  0  0  0  0
  147.5849  136.4494  161.8485 H   0  0  0  0  0  0  0  0  0  0  0  0
  148.8907  135.3091  161.6575 H   0  0  0  0  0  0  0  0  0  0  0  0
  146.7974  135.6822  159.4838 H   0  0  0  0  0  0  0  0  0  0  0  0
  147.6682  137.9245  159.9788 H   0  0  0  0  0  0  0  0  0  0  0  0
  149.3269  137.3539  159.8606 H   0  0  0  0  0  0  0  0  0  0  0  0
  146.6152  141.1430  156.2658 H   0  0  0  0  0  0  0  0  0  0  0  0
  152.6518  140.3135  158.3470 H   0  0  0  0  0  0  0  0  0  0  0  0
  152.3858  142.4805  156.6333 H   0  0  0  0  0  0  0  0  0  0  0  0
  150.7631  143.1028  156.4977 H   0  0  0  0  0  0  0  0  0  0  0  0
  152.2988  144.7707  157.0973 H   0  0  0  0  0  0  0  0  0  0  0  0
  149.8560  144.6818  158.3858 H   0  0  0  0  0  0  0  0  0  0  0  0
  149.7157  143.1624  159.2343 H   0  0  0  0  0  0  0  0  0  0  0  0
  151.1750  145.6491  160.2688 H   0  0  0  0  0  0  0  0  0  0  0  0
  149.6704  144.9830  160.8651 H   0  0  0  0  0  0  0  0  0  0  0  0
  153.2288  144.4146  160.6813 H   0  0  0  0  0  0  0  0  0  0  0  0
  153.1278  142.9056  161.5631 H   0  0  0  0  0  0  0  0  0  0  0  0
  152.0092  141.7806  159.7042 H   0  0  0  0  0  0  0  0  0  0  0  0
  153.4953  142.4792  159.1145 H   0  0  0  0  0  0  0  0  0  0  0  0
  148.9467  136.6879  156.2022 H   0  0  0  0  0  0  0  0  0  0  0  0
  150.0982  136.5937  157.5188 H   0  0  0  0  0  0  0  0  0  0  0  0
  147.5070  134.9844  157.2482 H   0  0  0  0  0  0  0  0  0  0  0  0
  149.1367  134.4001  157.0056 H   0  0  0  0  0  0  0  0  0  0  0  0
  148.5696  133.0337  160.2169 H   0  0  0  0  0  0  0  0  0  0  0  0
  147.1055  133.3332  159.3192 H   0  0  0  0  0  0  0  0  0  0  0  0
  148.2524  131.3659  158.4749 H   0  0  0  0  0  0  0  0  0  0  0  0
  148.3685  132.5846  157.2278 H   0  0  0  0  0  0  0  0  0  0  0  0
  151.7562  131.6543  157.2306 H   0  0  0  0  0  0  0  0  0  0  0  0
  150.4506  132.3377  156.2615 H   0  0  0  0  0  0  0  0  0  0  0  0
  150.3017  130.7020  156.9305 H   0  0  0  0  0  0  0  0  0  0  0  0
  1  2  1  0  0  0  0
  1 30  1  0  0  0  0
  1 31  1  0  0  0  0
  1 32  1  0  0  0  0
  2  3  1  0  0  0  0
  2 33  1  0  0  0  0
  2 34  1  0  0  0  0
  3 25  1  0  0  0  0
  3  4  1  0  0  0  0
  3 35  1  0  0  0  0
  4  5  1  0  0  0  0
  4 36  1  0  0  0  0
  4 37  1  0  0  0  0
  5  6  1  0  0  0  0
  5 23  1  0  0  0  0
  6 11  1  0  0  0  0
  6  7  2  0  0  0  0
  7  8  1  0  0  0  0
  8  9  2  0  0  0  0
  8 38  1  0  0  0  0
  9 10  1  0  0  0  0
 10 14  1  0  0  0  0
 10 11  2  0  0  0  0
 11 12  1  0  0  0  0
 12 13  2  0  0  0  0
 13 14  1  0  0  0  0
 13 39  1  0  0  0  0
 14 15  1  0  0  0  0
 15 16  1  0  0  0  0
 15 40  1  0  0  0  0
 15 41  1  0  0  0  0
 16 22  1  0  0  0  0
 16 17  1  0  0  0  0
 16 18  1  0  0  0  0
 17 42  1  0  0  0  0
 18 19  1  0  0  0  0
 18 43  1  0  0  0  0
 18 44  1  0  0  0  0
 19 20  1  0  0  0  0
 19 45  1  0  0  0  0
 19 46  1  0  0  0  0
 20 21  1  0  0  0  0
 21 22  1  0  0  0  0
 21 47  1  0  0  0  0
 21 48  1  0  0  0  0
 22 49  1  0  0  0  0
 22 50  1  0  0  0  0
 23 24  1  0  0  0  0
 23 51  1  0  0  0  0
 23 52  1  0  0  0  0
 24 25  1  0  0  0  0
 24 53  1  0  0  0  0
 24 54  1  0  0  0  0
 25 26  1  0  0  0  0
 26 27  1  0  0  0  0
 26 55  1  0  0  0  0
 26 56  1  0  0  0  0
 27 28  1  0  0  0  0
 27 57  1  0  0  0  0
 27 58  1  0  0  0  0
 28 29  1  0  0  0  0
 29 59  1  0  0  0  0
 29 60  1  0  0  0  0
 29 61  1  0  0  0  0
M  END
> <s_m_source_file>
AV-unprocessed.smi

> <i_m_source_file_index>
256

> <i_lp_mmshare_version>
43012

> <i_f3d_flags>
0

> <s_epik_input>
W0NIM11PW0NIMl1bQ0gyXU4xW0NIMl1bQ0gyXU4oW0NIMl1bQ0BIXTFbQ0gyXVtDSDNdKWMobltjSF1uMiljKGMyMyluW2NIXW4zW0NIMl1DNChbT0hdKVtDSDJdW0NIMl1PW0NIMl1bQ0gyXTQ=

> <s_epik_cmdline>
J2VwaWtfcHl0aG9uJywgJy1waCcsICc3LjAnLCAnLXRuJywgJzgnLCAnLW1hJywgJzIwMCcsICctbWV0YWxfYmluZGluZycsICctaW1hZScsICc8aW5maWxlLm1hZT4nLCAnLW9tYWUnLCAnPG91dGZpbGUubWFlPic=

> <r_lp_tautomer_probability>
1

> <r_epik_Ionization_Penalty>
0.676279

> <r_epik_Ionization_Penalty_Charging>
0

> <r_epik_Ionization_Penalty_Neutral>
0.676279

> <r_epik_State_Penalty>
0.6855

> <r_epik_Charging_Adjusted_Penalty>
0.6855

> <i_epik_Tot_Q>
0

> <i_epik_Tot_abs_Q>
0

> <r_epik_Metal_State_Penalty>
0.678557

> <b_epik_Metal_Only>
0

> <s_lp_Force_Field>
OPLS_2005

> <r_lp_Energy>
58.0034

> <b_lp_Chiralities_Consistent>
1

> <s_lp_Variant>
AV-unprocessed.smi:256-6

> <Gold.Version>
5.8.1

> <Gold.Id.Protein>
6NUR|6NUR_protein|mol2

> <Gold.PLP.Fitness>
41.6400

> <Gold.PLP.PLP>
-39.7526

> <Gold.PLP.part.hbond>
-2.5050

> <Gold.PLP.part.metal>
0.0000

> <Gold.PLP.part.buried>
-8.2680

> <Gold.PLP.part.nonpolar>
-29.3439

> <Gold.PLP.part.repulsive>
0.2803

> <Gold.PLP.ligand.clash>
0.0000

> <Gold.PLP.ligand.torsion>
0.7750

> <Gold.PLP.Chemscore.Hbond>
1.0000

> <Gold.PLP.Chemscore.CHOScore>
0.0000

> <Gold.PLP.Chemscore.Metal>
0.0000

> <Gold.Chemscore.Hbonds>
donor molecule, donor type, donor heavy atom, donor atom, acceptor molecule, acceptor atom, score
      P1  H  6896  6907       L1    28  1.00

> <Gold.PLP.Chemscore.Internal.Correction>
0.4374

> <Gold.Rescore>
     Score         DG    S(hbond)    S(metal)    S(lipo)     H(rot)  DE(clash)    DE(int)     intcor
     12.78     -13.62       0.98        0.00     104.37       2.87       0.09       0.75       ----

> <Gold.Chemscore.Fitness>
12.7849

> <Gold.Chemscore.DG>
-13.6230

> <Gold.Chemscore.ZeroCoef>
-5.4800

> <Gold.Chemscore.Hbond>
0.9816

> <Gold.Chemscore.Metal>
0.0000

> <Gold.Chemscore.Lipo>
104.3718

> <Gold.Chemscore.Internal_Hbond>
0.0000

> <Gold.Chemscore.DEClash>
0.0868

> <Gold.Chemscore.DEInternal>
0.7513

> <Gold.Chemscore.Rot>
2.8700

> <Gold.Chemscore.Internal.Correction>
   9.000000E+99

> <Gold.Chemscore.Hbonds>
donor molecule, donor type, donor heavy atom, donor atom, acceptor molecule, acceptor atom, score
      P1  H  6896  6907       L1    28  0.90

> <Gold.Chemscore.Hbond.Weighted>
-3.2787

> <Gold.Chemscore.Metal.Weighted>
-0.0000

> <Gold.Chemscore.Lipo.Weighted>
-12.2115

> <Gold.Chemscore.Internal_Hbond.Weighted>
0.0000

> <Gold.Chemscore.DEClash.Weighted>
0.0868

> <Gold.Chemscore.DEInternal.Weighted>
0.7513

> <Gold.Chemscore.Rot.Weighted>
7.3472

> <Gold.Chemscore.Internal.Correction.Weighted>
   9.000000E+99

> <Gold.Protein.RotatedTorsions>
[ 6907 6896 6895 6894 ] final -152.25 input  -60.11 | X-H torsion
[ 7974 7965 7964 7962 ] final -164.37 input  175.53 | X-H torsion
[ 8008 7997 7996 7995 ] final  -31.90 input   59.86 | X-H torsion
[ 10167 10162 10161 10158 ] final  124.92 input  -65.29 | X-H torsion
[ 10718 10713 10712 10709 ] final   17.98 input   66.30 | X-H torsion
[ 10763 10752 10751 10750 ] final  159.48 input  -60.55 | X-H torsion
[ 11005 11000 10999 10996 ] final   97.09 input  -57.11 | X-H torsion

> <Gold.Protein.ActiveResidues>
 VAL166  LYS551  ARG553  GLY616  TRP617  ASP618  TYR619  PRO620  LYS621  CYS622 
 ASP623  PHE694  ASN695  SER759  ASP760  ASP761  ALA762  ILE779  LEU786  VAL792 
 PHE793  MET794  SER795  GLU796  ALA797  LYS798  CYS799  TRP800  GLU811  SER814 

> <Gold.Protein.RotatedAtoms>
  151.2250  133.4481  159.2601 H   0  0  0  0  0  0  0  0  0  0  0  0  # atno 6907 bound_to 6896
  151.0848  134.9880  159.8384 H   0  0  0  0  0  0  0  0  0  0  0  0  # atno 6908 bound_to 6896
  152.5428  134.2188  159.8832 H   0  0  0  0  0  0  0  0  0  0  0  0  # atno 6909 bound_to 6896
  144.7299  140.2970  143.6211 H   0  0  0  0  0  0  0  0  0  0  0  0  # atno 7974 bound_to 7965
  154.4198  140.1752  156.1641 H   0  0  0  0  0  0  0  0  0  0  0  0  # atno 8008 bound_to 7997
  155.9814  140.3377  155.6642 H   0  0  0  0  0  0  0  0  0  0  0  0  # atno 8009 bound_to 7997
  155.6495  140.0689  157.2582 H   0  0  0  0  0  0  0  0  0  0  0  0  # atno 8010 bound_to 7997
  139.5715  144.6941  151.3767 H   0  0  0  0  0  0  0  0  0  0  0  0  # atno 10167 bound_to 10162
  157.0899  130.6423  149.5846 H   0  0  0  0  0  0  0  0  0  0  0  0  # atno 10718 bound_to 10713
  154.2325  135.2778  155.2884 H   0  0  0  0  0  0  0  0  0  0  0  0  # atno 10763 bound_to 10752
  154.5612  135.5646  153.7013 H   0  0  0  0  0  0  0  0  0  0  0  0  # atno 10764 bound_to 10752
  153.0017  135.6298  154.2467 H   0  0  0  0  0  0  0  0  0  0  0  0  # atno 10765 bound_to 10752
  139.8778  134.8984  156.4256 H   0  0  0  0  0  0  0  0  0  0  0  0  # atno 11005 bound_to 11000
  145.7798  139.1887  143.2164 LP  0  0  0  0  0  0  0  0  0  0  0  0  # atno 17320 bound_to 7965
  146.0843  140.7728  142.9626 LP  0  0  0  0  0  0  0  0  0  0  0  0  # atno 17321 bound_to 7965
  140.6999  143.7658  150.7386 LP  0  0  0  0  0  0  0  0  0  0  0  0  # atno 17342 bound_to 10162
  140.1165  143.4651  152.2339 LP  0  0  0  0  0  0  0  0  0  0  0  0  # atno 17343 bound_to 10162
  155.9901  130.4951  150.7242 LP  0  0  0  0  0  0  0  0  0  0  0  0  # atno 17370 bound_to 10713
  157.4730  131.0895  151.0621 LP  0  0  0  0  0  0  0  0  0  0  0  0  # atno 17371 bound_to 10713
  140.9103  133.7716  155.9783 LP  0  0  0  0  0  0  0  0  0  0  0  0  # atno 17394 bound_to 11000
  140.8554  134.2904  157.5258 LP  0  0  0  0  0  0  0  0  0  0  0  0  # atno 17395 bound_to 11000

$$$$
