AV-unprocessed.smi:1400|AV-procd|sdf|5687|dock1
  -GOLD-   22720 5313D 1   1.00000     0.00000
 Structure written by MMmdl.
 33 34  0  0  0  0  0  0  0  0  2 V2000
  152.1674  144.9337  161.4319 C   0  0  0  0  0  0  0  0  0  0  0  0
  152.3361  143.4902  160.9520 C   0  0  0  0  0  0  0  0  0  0  0  0
  152.1892  142.5869  161.7756 O   0  0  0  0  0  0  0  0  0  0  0  0
  152.6344  143.2548  159.6514 N   0  0  0  0  0  0  0  0  0  0  0  0
  152.7295  141.9016  159.0911 C   0  0  0  0  0  0  0  0  0  0  0  0
  151.5379  141.6697  158.1442 C   0  0  0  0  0  0  0  0  0  0  0  0
  151.4792  142.7482  157.0413 C   0  0  0  0  0  0  0  0  0  0  0  0
  150.2467  142.5975  156.2718 N   0  0  0  0  0  0  0  0  0  0  0  0
  149.9145  141.5440  155.5111 C   0  0  0  0  0  0  0  0  0  0  0  0
  150.6876  140.5884  155.4112 O   0  0  0  0  0  0  0  0  0  0  0  0
  148.7068  141.6631  154.9135 N   0  5  0  0  0  0  0  0  0  0  0  0
  148.1388  140.5963  154.3275 C   0  0  0  0  0  0  0  0  0  0  0  0
  147.0590  140.6846  153.5423 N   0  0  0  0  0  0  0  0  0  0  0  0
  146.6332  139.4523  153.0428 C   0  0  0  0  0  0  0  0  0  0  0  0
  147.4015  138.3997  153.4644 C   0  0  0  0  0  0  0  0  0  0  0  0
  148.6896  138.9279  154.5094 S   0  0  0  0  0  0  0  0  0  0  0  0
  151.5804  144.1696  157.6407 C   0  0  0  0  0  0  0  0  0  0  0  0
  152.7698  144.2822  158.6107 C   0  0  0  0  0  0  0  0  0  0  0  0
  151.3811  145.4390  160.8703 H   0  0  0  0  0  0  0  0  0  0  0  0
  153.0986  145.4894  161.3192 H   0  0  0  0  0  0  0  0  0  0  0  0
  151.8906  144.9580  162.4865 H   0  0  0  0  0  0  0  0  0  0  0  0
  153.6681  141.8015  158.5442 H   0  0  0  0  0  0  0  0  0  0  0  0
  152.7487  141.1260  159.8578 H   0  0  0  0  0  0  0  0  0  0  0  0
  151.6068  140.6784  157.6949 H   0  0  0  0  0  0  0  0  0  0  0  0
  150.6137  141.6828  158.7242 H   0  0  0  0  0  0  0  0  0  0  0  0
  152.3341  142.5894  156.3811 H   0  0  0  0  0  0  0  0  0  0  0  0
  149.5838  143.3568  156.3215 H   0  0  0  0  0  0  0  0  0  0  0  0
  145.7714  139.4174  152.3930 H   0  0  0  0  0  0  0  0  0  0  0  0
  147.2891  137.3526  153.2276 H   0  0  0  0  0  0  0  0  0  0  0  0
  151.6815  144.9080  156.8446 H   0  0  0  0  0  0  0  0  0  0  0  0
  150.6593  144.4136  158.1724 H   0  0  0  0  0  0  0  0  0  0  0  0
  152.8334  145.2964  159.0020 H   0  0  0  0  0  0  0  0  0  0  0  0
  153.7041  144.1217  158.0708 H   0  0  0  0  0  0  0  0  0  0  0  0
  1  2  1  0  0  0  0
  1 19  1  0  0  0  0
  1 20  1  0  0  0  0
  1 21  1  0  0  0  0
  2  3  2  0  0  0  0
  2  4  1  0  0  0  0
  4 18  1  0  0  0  0
  4  5  1  0  0  0  0
  5  6  1  0  0  0  0
  5 22  1  0  0  0  0
  5 23  1  0  0  0  0
  6  7  1  0  0  0  0
  6 24  1  0  0  0  0
  6 25  1  0  0  0  0
  7  8  1  0  0  0  0
  7 17  1  0  0  0  0
  7 26  1  0  0  0  0
  8  9  1  0  0  0  0
  8 27  1  0  0  0  0
  9 10  2  0  0  0  0
  9 11  1  0  0  0  0
 11 12  1  0  0  0  0
 12 16  1  0  0  0  0
 12 13  2  0  0  0  0
 13 14  1  0  0  0  0
 14 15  2  0  0  0  0
 14 28  1  0  0  0  0
 15 16  1  0  0  0  0
 15 29  1  0  0  0  0
 17 18  1  0  0  0  0
 17 30  1  0  0  0  0
 17 31  1  0  0  0  0
 18 32  1  0  0  0  0
 18 33  1  0  0  0  0
M  CHG  1  11  -1
M  END
> <s_m_source_file>
AV-unprocessed.smi

> <i_m_source_file_index>
1400

> <i_lp_mmshare_version>
43012

> <i_f3d_flags>
0

> <s_epik_input>
W0NIM11DKD1PKU4xW0NIMl1bQ0gyXVtDSF0oW0NIMl1bQ0gyXTEpW05IXUMoPU8pW05IXWMybltjSF1bY0hdczI=

> <s_epik_cmdline>
J2VwaWtfcHl0aG9uJywgJy1waCcsICc3LjAnLCAnLXRuJywgJzgnLCAnLW1hJywgJzIwMCcsICctbWV0YWxfYmluZGluZycsICctaW1hZScsICc8aW5maWxlLm1hZT4nLCAnLW9tYWUnLCAnPG91dGZpbGUubWFlPic=

> <r_lp_tautomer_probability>
1

> <r_epik_Ionization_Penalty>
6.84544

> <r_epik_Ionization_Penalty_Charging>
5.78648

> <r_epik_Ionization_Penalty_Neutral>
1.05897

> <r_epik_State_Penalty>
5.78644

> <r_epik_Charging_Adjusted_Penalty>
11.5729

> <i_epik_Tot_Q>
-1

> <i_epik_Tot_abs_Q>
1

> <r_epik_Metal_State_Penalty>
1.75808

> <b_epik_Metal_Only>
1

> <s_lp_Force_Field>
OPLS_2005

> <r_lp_Energy>
18.2538

> <b_lp_Chiralities_Consistent>
1

> <s_lp_Variant>
AV-unprocessed.smi:1400-2

> <Gold.Version>
5.8.1

> <Gold.Id.Protein>
6NUR|6NUR_protein|mol2

> <Gold.PLP.Fitness>
49.6882

> <Gold.PLP.PLP>
-36.5945

> <Gold.PLP.part.hbond>
-3.0000

> <Gold.PLP.part.metal>
0.0000

> <Gold.PLP.part.buried>
-0.5959

> <Gold.PLP.part.nonpolar>
-35.2849

> <Gold.PLP.part.repulsive>
0.6104

> <Gold.PLP.ligand.clash>
0.0000

> <Gold.PLP.ligand.torsion>
0.1029

> <Gold.PLP.Chemscore.Hbond>
2.5087

> <Gold.PLP.Chemscore.CHOScore>
1.9164

> <Gold.PLP.Chemscore.Metal>
0.0000

> <Gold.Chemscore.Hbonds>
donor molecule, donor type, donor heavy atom, donor atom, acceptor molecule, acceptor atom, score
      L1  H     8    27       P1  8028  1.00
      P1  H  6933  6945       L1     3  0.19
      P1  H  7989  7998       L1    10  0.66
      L1  C    14    28       P1 10175  1.00
      L1  C    15    29       P1  7948  0.79

> <Gold.PLP.Chemscore.Internal.Correction>
0.0243

> <Gold.Rescore>
     Score         DG    S(hbond)    S(metal)    S(lipo)     H(rot)  DE(clash)    DE(int)     intcor
     16.83     -20.53       2.27        0.00      85.77       1.00       2.13       1.57       ----

> <Gold.Chemscore.Fitness>
16.8267

> <Gold.Chemscore.DG>
-20.5281

> <Gold.Chemscore.ZeroCoef>
-5.4800

> <Gold.Chemscore.Hbond>
2.2673

> <Gold.Chemscore.Metal>
0.0000

> <Gold.Chemscore.Lipo>
85.7715

> <Gold.Chemscore.Internal_Hbond>
0.0000

> <Gold.Chemscore.DEClash>
2.1305

> <Gold.Chemscore.DEInternal>
1.5709

> <Gold.Chemscore.Rot>
1.0000

> <Gold.Chemscore.Internal.Correction>
   9.000000E+99

> <Gold.Chemscore.Hbonds>
donor molecule, donor type, donor heavy atom, donor atom, acceptor molecule, acceptor atom, score
      L1  H     8    27       P1  8028  0.95
      P1  H  6933  6945       L1     3  0.18
      P1  H  7989  7998       L1    10  0.29

> <Gold.Chemscore.Hbond.Weighted>
-7.5728

> <Gold.Chemscore.Metal.Weighted>
-0.0000

> <Gold.Chemscore.Lipo.Weighted>
-10.0353

> <Gold.Chemscore.Internal_Hbond.Weighted>
0.0000

> <Gold.Chemscore.DEClash.Weighted>
2.1305

> <Gold.Chemscore.DEInternal.Weighted>
1.5709

> <Gold.Chemscore.Rot.Weighted>
2.5600

> <Gold.Chemscore.Internal.Correction.Weighted>
   9.000000E+99

> <Gold.Protein.RotatedTorsions>
[ 6907 6896 6895 6894 ] final  129.19 input  -60.11 | X-H torsion
[ 7974 7965 7964 7962 ] final   86.85 input  175.53 | X-H torsion
[ 8008 7997 7996 7995 ] final  -60.71 input   59.86 | X-H torsion
[ 10167 10162 10161 10158 ] final   32.38 input  -65.29 | X-H torsion
[ 10718 10713 10712 10709 ] final  -84.62 input   66.30 | X-H torsion
[ 10763 10752 10751 10750 ] final -171.88 input  -60.55 | X-H torsion
[ 11005 11000 10999 10996 ] final  -75.70 input  -57.11 | X-H torsion

> <Gold.Protein.ActiveResidues>
 VAL166  LYS551  ARG553  GLY616  TRP617  ASP618  TYR619  PRO620  LYS621  CYS622 
 ASP623  PHE694  ASN695  SER759  ASP760  ASP761  ALA762  ILE779  LEU786  VAL792 
 PHE793  MET794  SER795  GLU796  ALA797  LYS798  CYS799  TRP800  GLU811  SER814 

> <Gold.Protein.RotatedAtoms>
  152.3647  133.6341  159.6041 H   0  0  0  0  0  0  0  0  0  0  0  0  # atno 6907 bound_to 6896
  150.7626  133.9367  159.3452 H   0  0  0  0  0  0  0  0  0  0  0  0  # atno 6908 bound_to 6896
  151.7199  135.0897  160.0333 H   0  0  0  0  0  0  0  0  0  0  0  0  # atno 6909 bound_to 6896
  145.5668  139.2309  143.2428 H   0  0  0  0  0  0  0  0  0  0  0  0  # atno 7974 bound_to 7965
  154.4412  140.1033  156.6317 H   0  0  0  0  0  0  0  0  0  0  0  0  # atno 8008 bound_to 7997
  155.5597  140.3487  155.4470 H   0  0  0  0  0  0  0  0  0  0  0  0  # atno 8009 bound_to 7997
  156.0468  140.1295  157.0083 H   0  0  0  0  0  0  0  0  0  0  0  0  # atno 8010 bound_to 7997
  140.4504  144.1057  150.6190 H   0  0  0  0  0  0  0  0  0  0  0  0  # atno 10167 bound_to 10162
  156.0004  130.4704  150.4437 H   0  0  0  0  0  0  0  0  0  0  0  0  # atno 10718 bound_to 10713
  154.6255  135.2880  155.0277 H   0  0  0  0  0  0  0  0  0  0  0  0  # atno 10763 bound_to 10752
  154.1456  135.6511  153.4956 H   0  0  0  0  0  0  0  0  0  0  0  0  # atno 10764 bound_to 10752
  153.0255  135.5343  154.7062 H   0  0  0  0  0  0  0  0  0  0  0  0  # atno 10765 bound_to 10752
  141.1648  133.6956  156.7557 H   0  0  0  0  0  0  0  0  0  0  0  0  # atno 11005 bound_to 11000
  146.1812  140.6494  142.9188 LP  0  0  0  0  0  0  0  0  0  0  0  0  # atno 17320 bound_to 7965
  144.7456  140.5060  143.6838 LP  0  0  0  0  0  0  0  0  0  0  0  0  # atno 17321 bound_to 7965
  140.4214  143.2610  151.9711 LP  0  0  0  0  0  0  0  0  0  0  0  0  # atno 17342 bound_to 10162
  139.4796  144.5827  151.7905 LP  0  0  0  0  0  0  0  0  0  0  0  0  # atno 17343 bound_to 10162
  157.2476  131.0539  151.2399 LP  0  0  0  0  0  0  0  0  0  0  0  0  # atno 17370 bound_to 10713
  157.3560  130.7106  149.6471 LP  0  0  0  0  0  0  0  0  0  0  0  0  # atno 17371 bound_to 10713
  140.2571  134.8496  157.3723 LP  0  0  0  0  0  0  0  0  0  0  0  0  # atno 17394 bound_to 11000
  140.1647  134.4684  155.7871 LP  0  0  0  0  0  0  0  0  0  0  0  0  # atno 17395 bound_to 11000

$$$$
