AV-unprocessed.smi:1563|AV-procd|sdf|6291|dock6
  -GOLD-   22720 6493D 1   1.00000     0.00000
 Structure written by MMmdl.
 44 45  0  0  0  0  0  0  0  0  2 V2000
  144.7969  136.7248  152.9160 C   0  0  0  0  0  0  0  0  0  0  0  0
  145.8119  137.6156  153.6238 C   0  0  0  0  0  0  0  0  0  0  0  0
  146.8633  137.1374  154.0501 O   0  0  0  0  0  0  0  0  0  0  0  0
  145.4821  138.9109  153.7420 N   0  0  0  0  0  0  0  0  0  0  0  0
  146.3109  139.9307  154.3752 C   0  0  2  0  0  0  0  0  0  0  0  0
  145.4497  141.1401  154.7966 C   0  0  0  0  0  0  0  0  0  0  0  0
  146.3158  142.2983  155.3320 C   0  0  0  0  0  0  0  0  0  0  0  0
  147.4707  142.6188  154.3648 C   0  0  0  0  0  0  0  0  0  0  0  0
  148.2445  141.3881  154.1345 N   0  0  0  0  0  0  0  0  0  0  0  0
  149.4512  141.0840  154.6721 C   0  0  0  0  0  0  0  0  0  0  0  0
  150.1015  140.0892  154.3482 O   0  0  0  0  0  0  0  0  0  0  0  0
  149.8453  141.9026  155.6642 N   0  0  0  0  0  0  0  0  0  0  0  0
  150.9891  141.6757  156.5455 C   0  0  0  0  0  0  0  0  0  0  0  0
  150.5802  141.6120  158.0328 C   0  0  0  0  0  0  0  0  0  0  0  0
  151.7515  141.6867  158.9992 C   0  0  0  0  0  0  0  0  0  0  0  0
  151.9335  142.7788  159.8766 C   0  0  0  0  0  0  0  0  0  0  0  0
  153.0157  142.7636  160.7810 C   0  0  0  0  0  0  0  0  0  0  0  0
  153.8919  141.6590  160.7904 C   0  0  0  0  0  0  0  0  0  0  0  0
  153.6680  140.5992  159.8883 C   0  0  0  0  0  0  0  0  0  0  0  0
  152.6223  140.6520  159.0340 N   0  3  0  0  0  0  0  0  0  0  0  0
  147.4438  140.3819  153.4286 C   0  0  0  0  0  0  0  0  0  0  0  0
  144.5958  137.0995  151.9120 H   0  0  0  0  0  0  0  0  0  0  0  0
  143.8590  136.7010  153.4713 H   0  0  0  0  0  0  0  0  0  0  0  0
  145.1695  135.7034  152.8304 H   0  0  0  0  0  0  0  0  0  0  0  0
  144.5968  139.2125  153.3609 H   0  0  0  0  0  0  0  0  0  0  0  0
  146.7588  139.5140  155.2788 H   0  0  0  0  0  0  0  0  0  0  0  0
  144.8801  141.4957  153.9366 H   0  0  0  0  0  0  0  0  0  0  0  0
  144.7185  140.8418  155.5488 H   0  0  0  0  0  0  0  0  0  0  0  0
  145.6993  143.1838  155.4893 H   0  0  0  0  0  0  0  0  0  0  0  0
  146.7236  142.0281  156.3069 H   0  0  0  0  0  0  0  0  0  0  0  0
  147.0700  142.9728  153.4138 H   0  0  0  0  0  0  0  0  0  0  0  0
  148.0710  143.4448  154.7471 H   0  0  0  0  0  0  0  0  0  0  0  0
  149.2601  142.6981  155.8754 H   0  0  0  0  0  0  0  0  0  0  0  0
  151.5098  140.7593  156.2627 H   0  0  0  0  0  0  0  0  0  0  0  0
  151.7041  142.4848  156.3968 H   0  0  0  0  0  0  0  0  0  0  0  0
  149.8837  142.4206  158.2575 H   0  0  0  0  0  0  0  0  0  0  0  0
  150.0350  140.6854  158.2172 H   0  0  0  0  0  0  0  0  0  0  0  0
  151.2449  143.6112  159.8692 H   0  0  0  0  0  0  0  0  0  0  0  0
  153.1657  143.5846  161.4669 H   0  0  0  0  0  0  0  0  0  0  0  0
  154.7202  141.6226  161.4830 H   0  0  0  0  0  0  0  0  0  0  0  0
  154.2843  139.7139  159.8300 H   0  0  0  0  0  0  0  0  0  0  0  0
  148.0361  139.5232  153.1086 H   0  0  0  0  0  0  0  0  0  0  0  0
  147.0317  140.8136  152.5151 H   0  0  0  0  0  0  0  0  0  0  0  0
  152.4721  139.8667  158.4002 H   0  0  0  0  0  0  0  0  0  0  0  0
  1  2  1  0  0  0  0
  1 22  1  0  0  0  0
  1 23  1  0  0  0  0
  1 24  1  0  0  0  0
  2  3  2  0  0  0  0
  2  4  1  0  0  0  0
  4  5  1  0  0  0  0
  4 25  1  0  0  0  0
  5 21  1  0  0  0  0
  5  6  1  0  0  0  0
  5 26  1  0  0  0  0
  6  7  1  0  0  0  0
  6 27  1  0  0  0  0
  6 28  1  0  0  0  0
  7  8  1  0  0  0  0
  7 29  1  0  0  0  0
  7 30  1  0  0  0  0
  8  9  1  0  0  0  0
  8 31  1  0  0  0  0
  8 32  1  0  0  0  0
  9 10  1  0  0  0  0
  9 21  1  0  0  0  0
 10 11  2  0  0  0  0
 10 12  1  0  0  0  0
 12 13  1  0  0  0  0
 12 33  1  0  0  0  0
 13 14  1  0  0  0  0
 13 34  1  0  0  0  0
 13 35  1  0  0  0  0
 14 15  1  0  0  0  0
 14 36  1  0  0  0  0
 14 37  1  0  0  0  0
 15 20  1  0  0  0  0
 15 16  2  0  0  0  0
 16 17  1  0  0  0  0
 16 38  1  0  0  0  0
 17 18  2  0  0  0  0
 17 39  1  0  0  0  0
 18 19  1  0  0  0  0
 18 40  1  0  0  0  0
 19 20  2  0  0  0  0
 19 41  1  0  0  0  0
 20 44  1  0  0  0  0
 21 42  1  0  0  0  0
 21 43  1  0  0  0  0
M  CHG  1  20   1
M  END
> <s_m_source_file>
AV-unprocessed.smi

> <i_m_source_file_index>
1563

> <i_lp_mmshare_version>
43012

> <i_f3d_flags>
0

> <s_epik_input>
W0NIM11DKD1PKVtOSF1bQ0BASF0xW0NIMl1bQ0gyXVtDSDJdTihbQ0gyXTEpQyg9TylbTkhdW0NIMl1bQ0gyXWMyW2NIXVtjSF1bY0hdW2NIXW4y

> <s_epik_cmdline>
J2VwaWtfcHl0aG9uJywgJy1waCcsICc3LjAnLCAnLXRuJywgJzgnLCAnLW1hJywgJzIwMCcsICctbWV0YWxfYmluZGluZycsICctaW1hZScsICc8aW5maWxlLm1hZT4nLCAnLW9tYWUnLCAnPG91dGZpbGUubWFlPic=

> <r_epik_Ionization_Penalty>
1.56048

> <r_epik_Ionization_Penalty_Charging>
1.56043

> <r_epik_Ionization_Penalty_Neutral>
4.90601e-05

> <r_epik_State_Penalty>
1.65539

> <r_epik_Charging_Adjusted_Penalty>
3.21583

> <i_epik_Tot_Q>
1

> <i_epik_Tot_abs_Q>
1

> <r_epik_Metal_State_Penalty>
1.6969

> <b_epik_Metal_Only>
0

> <s_lp_Force_Field>
OPLS_2005

> <r_lp_Energy>
29.9669

> <b_lp_Chiralities_Consistent>
1

> <s_lp_Variant>
AV-unprocessed.smi:1563-3

> <Gold.Version>
5.8.1

> <Gold.Id.Protein>
6NUR|6NUR_protein|mol2

> <Gold.PLP.Fitness>
44.6913

> <Gold.PLP.PLP>
-36.7208

> <Gold.PLP.part.hbond>
-3.0000

> <Gold.PLP.part.metal>
0.0000

> <Gold.PLP.part.buried>
-0.6712

> <Gold.PLP.part.nonpolar>
-33.5017

> <Gold.PLP.part.repulsive>
0.4743

> <Gold.PLP.ligand.clash>
0.0000

> <Gold.PLP.ligand.torsion>
0.4720

> <Gold.PLP.Chemscore.Hbond>
2.9360

> <Gold.PLP.Chemscore.CHOScore>
0.0000

> <Gold.PLP.Chemscore.Metal>
0.0000

> <Gold.Chemscore.Hbonds>
donor molecule, donor type, donor heavy atom, donor atom, acceptor molecule, acceptor atom, score
      L1  H     4    25       P1 10175  0.98
      L1  H    12    33       P1  8028  0.89
      P1  H  7989  7998       L1    11  1.00

> <Gold.PLP.Chemscore.Internal.Correction>
0.1066

> <Gold.Rescore>
     Score         DG    S(hbond)    S(metal)    S(lipo)     H(rot)  DE(clash)    DE(int)     intcor
     18.13     -20.18       2.51        0.00      92.79       1.77       1.57       0.48       ----

> <Gold.Chemscore.Fitness>
18.1303

> <Gold.Chemscore.DG>
-20.1826

> <Gold.Chemscore.ZeroCoef>
-5.4800

> <Gold.Chemscore.Hbond>
2.5051

> <Gold.Chemscore.Metal>
0.0000

> <Gold.Chemscore.Lipo>
92.7913

> <Gold.Chemscore.Internal_Hbond>
0.0000

> <Gold.Chemscore.DEClash>
1.5733

> <Gold.Chemscore.DEInternal>
0.4789

> <Gold.Chemscore.Rot>
1.7661

> <Gold.Chemscore.Internal.Correction>
   9.000000E+99

> <Gold.Chemscore.Hbonds>
donor molecule, donor type, donor heavy atom, donor atom, acceptor molecule, acceptor atom, score
      L1  H     4    25       P1 10175  0.92
      L1  H    12    33       P1  8028  0.81
      P1  H  7989  7998       L1    11  0.33

> <Gold.Chemscore.Hbond.Weighted>
-8.3671

> <Gold.Chemscore.Metal.Weighted>
-0.0000

> <Gold.Chemscore.Lipo.Weighted>
-10.8566

> <Gold.Chemscore.Internal_Hbond.Weighted>
0.0000

> <Gold.Chemscore.DEClash.Weighted>
1.5733

> <Gold.Chemscore.DEInternal.Weighted>
0.4789

> <Gold.Chemscore.Rot.Weighted>
4.5211

> <Gold.Chemscore.Internal.Correction.Weighted>
   9.000000E+99

> <Gold.Protein.RotatedTorsions>
[ 6907 6896 6895 6894 ] final  161.01 input  -60.11 | X-H torsion
[ 7974 7965 7964 7962 ] final   29.62 input  175.53 | X-H torsion
[ 8008 7997 7996 7995 ] final  -55.72 input   59.86 | X-H torsion
[ 10167 10162 10161 10158 ] final -154.07 input  -65.29 | X-H torsion
[ 10718 10713 10712 10709 ] final -136.51 input   66.30 | X-H torsion
[ 10763 10752 10751 10750 ] final  151.44 input  -60.55 | X-H torsion
[ 11005 11000 10999 10996 ] final  -96.63 input  -57.11 | X-H torsion

> <Gold.Protein.ActiveResidues>
 VAL166  LYS551  ARG553  GLY616  TRP617  ASP618  TYR619  PRO620  LYS621  CYS622 
 ASP623  PHE694  ASN695  SER759  ASP760  ASP761  ALA762  ILE779  LEU786  VAL792 
 PHE793  MET794  SER795  GLU796  ALA797  LYS798  CYS799  TRP800  GLU811  SER814 

> <Gold.Protein.RotatedAtoms>
  151.9620  133.3698  159.4038 H   0  0  0  0  0  0  0  0  0  0  0  0  # atno 6907 bound_to 6896
  150.6962  134.4230  159.5223 H   0  0  0  0  0  0  0  0  0  0  0  0  # atno 6908 bound_to 6896
  152.1920  134.8663  160.0567 H   0  0  0  0  0  0  0  0  0  0  0  0  # atno 6909 bound_to 6896
  146.1660  139.6897  142.9000 H   0  0  0  0  0  0  0  0  0  0  0  0  # atno 7974 bound_to 7965
  154.4204  140.1146  156.5521 H   0  0  0  0  0  0  0  0  0  0  0  0  # atno 8008 bound_to 7997
  155.6399  140.3496  155.4692 H   0  0  0  0  0  0  0  0  0  0  0  0  # atno 8009 bound_to 7997
  155.9879  140.1173  157.0655 H   0  0  0  0  0  0  0  0  0  0  0  0  # atno 8010 bound_to 7997
  139.7044  143.9210  152.2442 H   0  0  0  0  0  0  0  0  0  0  0  0  # atno 10167 bound_to 10162
  156.2779  130.7303  151.1291 H   0  0  0  0  0  0  0  0  0  0  0  0  # atno 10718 bound_to 10713
  154.1038  135.2844  155.3246 H   0  0  0  0  0  0  0  0  0  0  0  0  # atno 10763 bound_to 10752
  154.6537  135.5360  153.7936 H   0  0  0  0  0  0  0  0  0  0  0  0  # atno 10764 bound_to 10752
  153.0369  135.6516  154.1200 H   0  0  0  0  0  0  0  0  0  0  0  0  # atno 10765 bound_to 10752
  141.1405  133.8111  157.0597 H   0  0  0  0  0  0  0  0  0  0  0  0  # atno 11005 bound_to 11000
  145.4465  141.0426  143.2828 LP  0  0  0  0  0  0  0  0  0  0  0  0  # atno 17320 bound_to 7965
  144.8094  139.5991  143.7036 LP  0  0  0  0  0  0  0  0  0  0  0  0  # atno 17321 bound_to 7965
  139.9061  144.6883  150.8612 LP  0  0  0  0  0  0  0  0  0  0  0  0  # atno 17342 bound_to 10162
  140.7718  143.3477  151.2077 LP  0  0  0  0  0  0  0  0  0  0  0  0  # atno 17343 bound_to 10162
  157.7305  131.0616  150.5723 LP  0  0  0  0  0  0  0  0  0  0  0  0  # atno 17370 bound_to 10713
  156.5826  130.4308  149.5971 LP  0  0  0  0  0  0  0  0  0  0  0  0  # atno 17371 bound_to 10713
  140.0579  134.9770  157.1253 LP  0  0  0  0  0  0  0  0  0  0  0  0  # atno 17394 bound_to 11000
  140.3892  134.2203  155.7167 LP  0  0  0  0  0  0  0  0  0  0  0  0  # atno 17395 bound_to 11000

$$$$
