AV-unprocessed.smi:1464|AV-procd|sdf|5942|dock7
  -GOLD-   22720 6 23D 1   1.00000     0.00000
 Structure written by MMmdl.
 40 41  0  0  0  0  0  0  0  0  2 V2000
  152.7653  143.3686  162.5702 C   0  0  0  0  0  0  0  0  0  0  0  0
  152.2982  143.3918  161.1038 C   0  0  1  0  0  0  0  0  0  0  0  0
  151.8392  144.8154  160.7245 C   0  0  0  0  0  0  0  0  0  0  0  0
  151.3493  144.8997  159.2725 C   0  0  0  0  0  0  0  0  0  0  0  0
  152.4307  144.4069  158.3001 C   0  0  0  0  0  0  0  0  0  0  0  0
  152.8973  142.9782  158.6427 C   0  0  2  0  0  0  0  0  0  0  0  0
  151.8296  142.0137  158.3963 N   0  0  0  0  0  0  0  0  0  0  0  0
  151.9639  140.6954  158.1822 C   0  0  0  0  0  0  0  0  0  0  0  0
  153.0535  140.1231  158.1790 O   0  0  0  0  0  0  0  0  0  0  0  0
  150.6797  139.8887  157.9192 C   0  0  0  0  0  0  0  0  0  0  0  0
  150.7598  138.9861  156.7574 N   0  0  0  0  0  0  0  0  0  0  0  0
  150.5305  137.5810  157.0833 N   0  5  0  0  0  0  0  0  0  0  0  0
  150.4739  136.6684  156.0773 C   0  0  0  0  0  0  0  0  0  0  0  0
  150.2452  135.4768  156.2707 O   0  0  0  0  0  0  0  0  0  0  0  0
  150.6995  137.1333  154.7187 C   0  0  0  0  0  0  0  0  0  0  0  0
  150.9371  138.4322  154.4498 C   0  0  0  0  0  0  0  0  0  0  0  0
  150.9708  139.4505  155.4924 C   0  0  0  0  0  0  0  0  0  0  0  0
  151.1546  140.6431  155.2498 O   0  0  0  0  0  0  0  0  0  0  0  0
  153.3828  142.8808  160.1127 C   0  0  2  0  0  0  0  0  0  0  0  0
  153.8741  141.4559  160.4424 C   0  0  0  0  0  0  0  0  0  0  0  0
  153.6775  143.9500  162.7062 H   0  0  0  0  0  0  0  0  0  0  0  0
  152.9577  142.3535  162.9164 H   0  0  0  0  0  0  0  0  0  0  0  0
  152.0042  143.7870  163.2293 H   0  0  0  0  0  0  0  0  0  0  0  0
  151.4303  142.7342  161.0323 H   0  0  0  0  0  0  0  0  0  0  0  0
  151.0403  145.1392  161.3923 H   0  0  0  0  0  0  0  0  0  0  0  0
  152.6622  145.5169  160.8683 H   0  0  0  0  0  0  0  0  0  0  0  0
  150.4422  144.3052  159.1544 H   0  0  0  0  0  0  0  0  0  0  0  0
  151.0759  145.9272  159.0321 H   0  0  0  0  0  0  0  0  0  0  0  0
  152.0599  144.4525  157.2754 H   0  0  0  0  0  0  0  0  0  0  0  0
  153.2852  145.0834  158.3417 H   0  0  0  0  0  0  0  0  0  0  0  0
  153.7365  142.7285  157.9909 H   0  0  0  0  0  0  0  0  0  0  0  0
  150.8880  142.3801  158.3912 H   0  0  0  0  0  0  0  0  0  0  0  0
  150.4280  139.3245  158.8187 H   0  0  0  0  0  0  0  0  0  0  0  0
  149.8602  140.5965  157.7829 H   0  0  0  0  0  0  0  0  0  0  0  0
  150.6805  136.4204  153.9074 H   0  0  0  0  0  0  0  0  0  0  0  0
  151.1019  138.7321  153.4256 H   0  0  0  0  0  0  0  0  0  0  0  0
  154.2470  143.5403  160.2045 H   0  0  0  0  0  0  0  0  0  0  0  0
  153.0466  140.7477  160.5040 H   0  0  0  0  0  0  0  0  0  0  0  0
  154.4090  141.4244  161.3910 H   0  0  0  0  0  0  0  0  0  0  0  0
  154.5633  141.0939  159.6790 H   0  0  0  0  0  0  0  0  0  0  0  0
  1  2  1  0  0  0  0
  1 21  1  0  0  0  0
  1 22  1  0  0  0  0
  1 23  1  0  0  0  0
  2 19  1  0  0  0  0
  2  3  1  0  0  0  0
  2 24  1  0  0  0  0
  3  4  1  0  0  0  0
  3 25  1  0  0  0  0
  3 26  1  0  0  0  0
  4  5  1  0  0  0  0
  4 27  1  0  0  0  0
  4 28  1  0  0  0  0
  5  6  1  0  0  0  0
  5 29  1  0  0  0  0
  5 30  1  0  0  0  0
  6  7  1  0  0  0  0
  6 19  1  0  0  0  0
  6 31  1  0  0  0  0
  7  8  1  0  0  0  0
  7 32  1  0  0  0  0
  8  9  2  0  0  0  0
  8 10  1  0  0  0  0
 10 33  1  0  0  0  0
 10 34  1  0  0  0  0
 10 11  1  0  0  0  0
 11 12  1  0  0  0  0
 11 17  1  0  0  0  0
 12 13  1  0  0  0  0
 13 14  2  0  0  0  0
 13 15  1  0  0  0  0
 15 35  1  0  0  0  0
 15 16  2  0  0  0  0
 16 36  1  0  0  0  0
 16 17  1  0  0  0  0
 17 18  2  0  0  0  0
 19 20  1  0  0  0  0
 19 37  1  0  0  0  0
 20 38  1  0  0  0  0
 20 39  1  0  0  0  0
 20 40  1  0  0  0  0
M  CHG  1  12  -1
M  END
> <s_m_source_file>
AV-unprocessed.smi

> <i_m_source_file_index>
1464

> <i_lp_mmshare_version>
43012

> <i_f3d_flags>
0

> <s_epik_input>
W0NIM11bQ0BASF0xW0NIMl1bQ0gyXVtDSDJdW0NASF0oW0NASF0xW0NIM10pW05IXUMoPU8pW0NIMl1uMltuSF1jKD1PKVtjSF1bY0hdYzI9Tw==

> <s_epik_cmdline>
J2VwaWtfcHl0aG9uJywgJy1waCcsICc3LjAnLCAnLXRuJywgJzgnLCAnLW1hJywgJzIwMCcsICctbWV0YWxfYmluZGluZycsICctaW1hZScsICc8aW5maWxlLm1hZT4nLCAnLW9tYWUnLCAnPG91dGZpbGUubWFlPic=

> <r_lp_tautomer_probability>
1

> <r_epik_Ionization_Penalty>
0.101366

> <r_epik_Ionization_Penalty_Charging>
0.101366

> <r_epik_Ionization_Penalty_Neutral>
1.90469e-08

> <r_epik_State_Penalty>
0.035861

> <r_epik_Charging_Adjusted_Penalty>
0.137227

> <i_epik_Tot_Q>
-1

> <i_epik_Tot_abs_Q>
1

> <r_epik_Metal_State_Penalty>
0.035861

> <b_epik_Metal_Only>
0

> <s_lp_Force_Field>
OPLS_2005

> <r_lp_Energy>
23.814

> <b_lp_Chiralities_Consistent>
1

> <s_lp_Variant>
AV-unprocessed.smi:1464-8

> <Gold.Version>
5.8.1

> <Gold.Id.Protein>
6NUR|6NUR_protein|mol2

> <Gold.PLP.Fitness>
49.7332

> <Gold.PLP.PLP>
-44.9474

> <Gold.PLP.part.hbond>
-2.0000

> <Gold.PLP.part.metal>
0.0000

> <Gold.PLP.part.buried>
-4.5182

> <Gold.PLP.part.nonpolar>
-38.0629

> <Gold.PLP.part.repulsive>
0.1413

> <Gold.PLP.ligand.clash>
0.0000

> <Gold.PLP.ligand.torsion>
0.4218

> <Gold.PLP.Chemscore.Hbond>
1.8720

> <Gold.PLP.Chemscore.CHOScore>
0.0000

> <Gold.PLP.Chemscore.Metal>
0.0000

> <Gold.Chemscore.Hbonds>
donor molecule, donor type, donor heavy atom, donor atom, acceptor molecule, acceptor atom, score
      P1  H  7989  7998       L1    18  0.86
      P1  H  7997  8009       L1     9  0.99

> <Gold.PLP.Chemscore.Internal.Correction>
0.0133

> <Gold.Rescore>
     Score         DG    S(hbond)    S(metal)    S(lipo)     H(rot)  DE(clash)    DE(int)     intcor
     20.29     -21.28       1.91        0.00     116.38       1.64       0.36       0.63       ----

> <Gold.Chemscore.Fitness>
20.2900

> <Gold.Chemscore.DG>
-21.2834

> <Gold.Chemscore.ZeroCoef>
-5.4800

> <Gold.Chemscore.Hbond>
1.9148

> <Gold.Chemscore.Metal>
0.0000

> <Gold.Chemscore.Lipo>
116.3758

> <Gold.Chemscore.Internal_Hbond>
0.0000

> <Gold.Chemscore.DEClash>
0.3629

> <Gold.Chemscore.DEInternal>
0.6306

> <Gold.Chemscore.Rot>
1.6438

> <Gold.Chemscore.Internal.Correction>
   9.000000E+99

> <Gold.Chemscore.Hbonds>
donor molecule, donor type, donor heavy atom, donor atom, acceptor molecule, acceptor atom, score
      P1  H  7989  7998       L1    18  0.67
      P1  H  7997  8009       L1     9  0.93

> <Gold.Chemscore.Hbond.Weighted>
-6.3955

> <Gold.Chemscore.Metal.Weighted>
-0.0000

> <Gold.Chemscore.Lipo.Weighted>
-13.6160

> <Gold.Chemscore.Internal_Hbond.Weighted>
0.0000

> <Gold.Chemscore.DEClash.Weighted>
0.3629

> <Gold.Chemscore.DEInternal.Weighted>
0.6306

> <Gold.Chemscore.Rot.Weighted>
4.2080

> <Gold.Chemscore.Internal.Correction.Weighted>
   9.000000E+99

> <Gold.Protein.RotatedTorsions>
[ 6907 6896 6895 6894 ] final -155.90 input  -60.11 | X-H torsion
[ 7974 7965 7964 7962 ] final -166.94 input  175.53 | X-H torsion
[ 8008 7997 7996 7995 ] final  151.70 input   59.86 | X-H torsion
[ 10167 10162 10161 10158 ] final -124.82 input  -65.29 | X-H torsion
[ 10718 10713 10712 10709 ] final  179.32 input   66.30 | X-H torsion
[ 10763 10752 10751 10750 ] final   81.63 input  -60.55 | X-H torsion
[ 11005 11000 10999 10996 ] final -100.64 input  -57.11 | X-H torsion

> <Gold.Protein.ActiveResidues>
 VAL166  LYS551  ARG553  GLY616  TRP617  ASP618  TYR619  PRO620  LYS621  CYS622 
 ASP623  PHE694  ASN695  SER759  ASP760  ASP761  ALA762  ILE779  LEU786  VAL792 
 PHE793  MET794  SER795  GLU796  ALA797  LYS798  CYS799  TRP800  GLU811  SER814 

> <Gold.Protein.RotatedAtoms>
  151.2795  133.4216  159.2625 H   0  0  0  0  0  0  0  0  0  0  0  0  # atno 6907 bound_to 6896
  151.0373  134.9583  159.8153 H   0  0  0  0  0  0  0  0  0  0  0  0  # atno 6908 bound_to 6896
  152.5358  134.2754  159.9040 H   0  0  0  0  0  0  0  0  0  0  0  0  # atno 6909 bound_to 6896
  144.7234  140.2592  143.6267 H   0  0  0  0  0  0  0  0  0  0  0  0  # atno 7974 bound_to 7965
  156.2662  140.2041  156.6217 H   0  0  0  0  0  0  0  0  0  0  0  0  # atno 8008 bound_to 7997
  154.6752  140.0546  157.0232 H   0  0  0  0  0  0  0  0  0  0  0  0  # atno 8009 bound_to 7997
  155.1079  140.3212  155.4532 H   0  0  0  0  0  0  0  0  0  0  0  0  # atno 8010 bound_to 7997
  139.9887  143.5664  152.2350 H   0  0  0  0  0  0  0  0  0  0  0  0  # atno 10167 bound_to 10162
  156.8775  130.9804  151.3066 H   0  0  0  0  0  0  0  0  0  0  0  0  # atno 10718 bound_to 10713
  153.1133  135.4758  154.9072 H   0  0  0  0  0  0  0  0  0  0  0  0  # atno 10763 bound_to 10752
  154.7503  135.3104  154.8573 H   0  0  0  0  0  0  0  0  0  0  0  0  # atno 10764 bound_to 10752
  153.9156  135.6860  153.4803 H   0  0  0  0  0  0  0  0  0  0  0  0  # atno 10765 bound_to 10752
  141.1262  133.8415  157.1129 H   0  0  0  0  0  0  0  0  0  0  0  0  # atno 11005 bound_to 11000
  145.8152  139.2020  143.1970 LP  0  0  0  0  0  0  0  0  0  0  0  0  # atno 17320 bound_to 7965
  146.0561  140.8019  142.9757 LP  0  0  0  0  0  0  0  0  0  0  0  0  # atno 17321 bound_to 7965
  139.6356  144.7649  151.2445 LP  0  0  0  0  0  0  0  0  0  0  0  0  # atno 17342 bound_to 10162
  140.7462  143.6405  150.8340 LP  0  0  0  0  0  0  0  0  0  0  0  0  # atno 17343 bound_to 10162
  157.6160  130.8618  149.9029 LP  0  0  0  0  0  0  0  0  0  0  0  0  # atno 17370 bound_to 10713
  156.0694  130.3687  150.0808 LP  0  0  0  0  0  0  0  0  0  0  0  0  # atno 17371 bound_to 10713
  140.0264  134.9922  157.0694 LP  0  0  0  0  0  0  0  0  0  0  0  0  # atno 17394 bound_to 11000
  140.4356  134.1735  155.7170 LP  0  0  0  0  0  0  0  0  0  0  0  0  # atno 17395 bound_to 11000

$$$$
