AV-unprocessed.smi:248|AV-procd|sdf|1896|dock8
  -GOLD-   2262020563D 1   1.00000     0.00000
 Structure written by MMmdl.
 62 65  0  0  0  0  0  0  0  0  1 V2000
  152.4428  144.7373  158.2226 C   0  0  0  0  0  0  0  0  0  0  0  0
  151.7256  143.9086  159.2989 C   0  0  0  0  0  0  0  0  0  0  0  0
  151.9950  144.4993  160.6936 C   0  0  0  0  0  0  0  0  0  0  0  0
  152.1071  142.4141  159.1729 C   0  0  0  0  0  0  0  0  0  0  0  0
  151.2965  141.6868  158.1846 N   0  0  0  0  0  0  0  0  0  0  0  0
  149.9731  142.2724  157.9393 C   0  0  0  0  0  0  0  0  0  0  0  0
  148.9824  141.2629  157.3529 C   0  0  0  0  0  0  0  0  0  0  0  0
  149.5926  140.5990  156.2115 N   0  0  0  0  0  0  0  0  0  0  0  0
  148.6878  139.9191  155.4711 C   0  0  0  0  0  0  0  0  0  0  0  0
  148.5350  140.2067  154.1520 N   0  0  0  0  0  0  0  0  0  0  0  0
  147.6484  139.5241  153.4214 C   0  0  0  0  0  0  0  0  0  0  0  0
  146.8327  138.5390  153.8044 N   0  0  0  0  0  0  0  0  0  0  0  0
  146.9822  138.2542  155.1300 C   0  0  0  0  0  0  0  0  0  0  0  0
  147.8861  138.8887  156.0267 C   0  0  0  0  0  0  0  0  0  0  0  0
  147.7746  138.3322  157.2933 N   0  0  0  0  0  0  0  0  0  0  0  0
  146.8564  137.4153  157.1531 C   0  0  0  0  0  0  0  0  0  0  0  0
  146.3122  137.3104  155.8912 N   0  0  0  0  0  0  0  0  0  0  0  0
  145.2836  136.3713  155.4619 C   0  0  0  0  0  0  0  0  0  0  0  0
  144.0779  137.0035  154.6954 C   0  0  0  0  0  0  0  0  0  0  0  0
  143.6577  138.3151  155.4170 C   0  0  0  0  0  0  0  0  0  0  0  0
  142.5350  138.9465  154.8331 O   0  0  0  0  0  0  0  0  0  0  0  0
  144.4321  137.3084  153.2167 C   0  0  0  0  0  0  0  0  0  0  0  0
  144.6064  136.0302  152.3752 C   0  0  0  0  0  0  0  0  0  0  0  0
  143.4304  135.2343  152.4509 O   0  0  0  0  0  0  0  0  0  0  0  0
  143.1496  134.7874  153.7714 C   0  0  0  0  0  0  0  0  0  0  0  0
  142.8987  135.9951  154.6934 C   0  0  0  0  0  0  0  0  0  0  0  0
  150.8606  139.9022  156.4684 C   0  0  1  0  0  0  0  0  0  0  0  0
  151.6029  139.6343  155.1397 C   0  0  0  0  0  0  0  0  0  0  0  0
  151.7759  140.6250  157.4879 C   0  0  0  0  0  0  0  0  0  0  0  0
  152.9143  140.1875  157.6627 O   0  0  0  0  0  0  0  0  0  0  0  0
  153.5250  144.6975  158.3484 H   0  0  0  0  0  0  0  0  0  0  0  0
  152.1414  145.7844  158.2647 H   0  0  0  0  0  0  0  0  0  0  0  0
  152.2102  144.3703  157.2226 H   0  0  0  0  0  0  0  0  0  0  0  0
  150.6552  143.9990  159.1103 H   0  0  0  0  0  0  0  0  0  0  0  0
  153.0426  144.3880  160.9750 H   0  0  0  0  0  0  0  0  0  0  0  0
  151.3880  144.0157  161.4586 H   0  0  0  0  0  0  0  0  0  0  0  0
  151.7549  145.5623  160.7219 H   0  0  0  0  0  0  0  0  0  0  0  0
  153.1567  142.3333  158.8856 H   0  0  0  0  0  0  0  0  0  0  0  0
  152.0498  141.9340  160.1513 H   0  0  0  0  0  0  0  0  0  0  0  0
  149.5624  142.6879  158.8602 H   0  0  0  0  0  0  0  0  0  0  0  0
  150.0966  143.1074  157.2482 H   0  0  0  0  0  0  0  0  0  0  0  0
  148.7125  140.5227  158.1084 H   0  0  0  0  0  0  0  0  0  0  0  0
  148.0637  141.7743  157.0598 H   0  0  0  0  0  0  0  0  0  0  0  0
  147.5835  139.8063  152.3808 H   0  0  0  0  0  0  0  0  0  0  0  0
  146.5433  136.7891  157.9759 H   0  0  0  0  0  0  0  0  0  0  0  0
  145.7727  135.5993  154.8697 H   0  0  0  0  0  0  0  0  0  0  0  0
  144.9186  135.8597  156.3538 H   0  0  0  0  0  0  0  0  0  0  0  0
  143.4247  138.1146  156.4634 H   0  0  0  0  0  0  0  0  0  0  0  0
  144.4706  139.0411  155.4062 H   0  0  0  0  0  0  0  0  0  0  0  0
  142.8406  139.6032  154.2262 H   0  0  0  0  0  0  0  0  0  0  0  0
  143.6330  137.8922  152.7585 H   0  0  0  0  0  0  0  0  0  0  0  0
  145.3230  137.9316  153.1473 H   0  0  0  0  0  0  0  0  0  0  0  0
  144.7790  136.2951  151.3322 H   0  0  0  0  0  0  0  0  0  0  0  0
  145.4713  135.4490  152.6944 H   0  0  0  0  0  0  0  0  0  0  0  0
  142.2608  134.1569  153.7410 H   0  0  0  0  0  0  0  0  0  0  0  0
  143.9610  134.1582  154.1379 H   0  0  0  0  0  0  0  0  0  0  0  0
  142.6873  135.6529  155.7070 H   0  0  0  0  0  0  0  0  0  0  0  0
  141.9862  136.4797  154.3460 H   0  0  0  0  0  0  0  0  0  0  0  0
  150.6330  138.9381  156.9261 H   0  0  0  0  0  0  0  0  0  0  0  0
  152.5545  139.1270  155.3017 H   0  0  0  0  0  0  0  0  0  0  0  0
  151.8093  140.5648  154.6094 H   0  0  0  0  0  0  0  0  0  0  0  0
  151.0216  138.9961  154.4739 H   0  0  0  0  0  0  0  0  0  0  0  0
  1  2  1  0  0  0  0
  1 31  1  0  0  0  0
  1 32  1  0  0  0  0
  1 33  1  0  0  0  0
  2  3  1  0  0  0  0
  2  4  1  0  0  0  0
  2 34  1  0  0  0  0
  3 35  1  0  0  0  0
  3 36  1  0  0  0  0
  3 37  1  0  0  0  0
  4  5  1  0  0  0  0
  4 38  1  0  0  0  0
  4 39  1  0  0  0  0
  5 29  1  0  0  0  0
  5  6  1  0  0  0  0
  6  7  1  0  0  0  0
  6 40  1  0  0  0  0
  6 41  1  0  0  0  0
  7  8  1  0  0  0  0
  7 42  1  0  0  0  0
  7 43  1  0  0  0  0
  8  9  1  0  0  0  0
  8 27  1  0  0  0  0
  9 14  1  0  0  0  0
  9 10  2  0  0  0  0
 10 11  1  0  0  0  0
 11 12  2  0  0  0  0
 11 44  1  0  0  0  0
 12 13  1  0  0  0  0
 13 17  1  0  0  0  0
 13 14  2  0  0  0  0
 14 15  1  0  0  0  0
 15 16  2  0  0  0  0
 16 17  1  0  0  0  0
 16 45  1  0  0  0  0
 17 18  1  0  0  0  0
 18 19  1  0  0  0  0
 18 46  1  0  0  0  0
 18 47  1  0  0  0  0
 19 26  1  0  0  0  0
 19 20  1  0  0  0  0
 19 22  1  0  0  0  0
 20 21  1  0  0  0  0
 20 48  1  0  0  0  0
 20 49  1  0  0  0  0
 21 50  1  0  0  0  0
 22 23  1  0  0  0  0
 22 51  1  0  0  0  0
 22 52  1  0  0  0  0
 23 24  1  0  0  0  0
 23 53  1  0  0  0  0
 23 54  1  0  0  0  0
 24 25  1  0  0  0  0
 25 26  1  0  0  0  0
 25 55  1  0  0  0  0
 25 56  1  0  0  0  0
 26 57  1  0  0  0  0
 26 58  1  0  0  0  0
 27 28  1  0  0  0  0
 27 29  1  0  0  0  0
 27 59  1  0  0  0  0
 28 60  1  0  0  0  0
 28 61  1  0  0  0  0
 28 62  1  0  0  0  0
 29 30  2  0  0  0  0
M  END
> <s_m_source_file>
AV-unprocessed.smi

> <i_m_source_file_index>
248

> <i_lp_mmshare_version>
43012

> <i_f3d_flags>
0

> <s_epik_input>
W0NIM11bQ0hdKFtDSDNdKVtDSDJdTjFbQ0gyXVtDSDJdTihbQ0BASF0oW0NIM10pQzE9TyljKG5bY0hdbjIpYyhjMjMpbltjSF1uM1tDSDJdQzQoW0NIMl1bT0hdKVtDSDJdW0NIMl1PW0NIMl1bQ0gyXTQ=

> <s_epik_cmdline>
J2VwaWtfcHl0aG9uJywgJy1waCcsICc3LjAnLCAnLXRuJywgJzgnLCAnLW1hJywgJzIwMCcsICctbWV0YWxfYmluZGluZycsICctaW1hZScsICc8aW5maWxlLm1hZT4nLCAnLW9tYWUnLCAnPG91dGZpbGUubWFlPic=

> <r_lp_tautomer_probability>
1

> <r_epik_Ionization_Penalty>
0.000593973

> <r_epik_Ionization_Penalty_Charging>
0

> <r_epik_Ionization_Penalty_Neutral>
0.000593973

> <r_epik_State_Penalty>
0.000283267

> <r_epik_Charging_Adjusted_Penalty>
0.000283267

> <i_epik_Tot_Q>
0

> <i_epik_Tot_abs_Q>
0

> <r_epik_Metal_State_Penalty>
-0

> <b_epik_Metal_Only>
0

> <s_lp_Force_Field>
OPLS_2005

> <r_lp_Energy>
46.1111

> <b_lp_Chiralities_Consistent>
1

> <s_lp_Variant>
AV-unprocessed.smi:248-1

> <Gold.Version>
5.8.1

> <Gold.Id.Protein>
6NUR|6NUR_protein|mol2

> <Gold.PLP.Fitness>
43.4817

> <Gold.PLP.PLP>
-36.9317

> <Gold.PLP.part.hbond>
-2.0000

> <Gold.PLP.part.metal>
0.0000

> <Gold.PLP.part.buried>
-3.6692

> <Gold.PLP.part.nonpolar>
-31.3980

> <Gold.PLP.part.repulsive>
0.5040

> <Gold.PLP.ligand.clash>
0.0000

> <Gold.PLP.ligand.torsion>
1.2364

> <Gold.PLP.Chemscore.Hbond>
2.0000

> <Gold.PLP.Chemscore.CHOScore>
0.8720

> <Gold.PLP.Chemscore.Metal>
0.0000

> <Gold.Chemscore.Hbonds>
donor molecule, donor type, donor heavy atom, donor atom, acceptor molecule, acceptor atom, score
      L1  H    21    50       P1 10175  0.88
      P1  H  7997  8009       L1    30  0.99
      L1  C    11    44       P1  7957  0.78

> <Gold.PLP.Chemscore.Internal.Correction>
0.4068

> <Gold.Rescore>
     Score         DG    S(hbond)    S(metal)    S(lipo)     H(rot)  DE(clash)    DE(int)     intcor
     12.58     -15.22       1.98        0.00      87.11       2.75       0.02       2.61       ----

> <Gold.Chemscore.Fitness>
12.5836

> <Gold.Chemscore.DG>
-15.2225

> <Gold.Chemscore.ZeroCoef>
-5.4800

> <Gold.Chemscore.Hbond>
1.9751

> <Gold.Chemscore.Metal>
0.0000

> <Gold.Chemscore.Lipo>
87.1072

> <Gold.Chemscore.Internal_Hbond>
0.0000

> <Gold.Chemscore.DEClash>
0.0245

> <Gold.Chemscore.DEInternal>
2.6144

> <Gold.Chemscore.Rot>
2.7523

> <Gold.Chemscore.Internal.Correction>
   9.000000E+99

> <Gold.Chemscore.Hbonds>
donor molecule, donor type, donor heavy atom, donor atom, acceptor molecule, acceptor atom, score
      L1  H    21    50       P1 10175  0.85
      P1  H  7997  8009       L1    30  0.94

> <Gold.Chemscore.Hbond.Weighted>
-6.5969

> <Gold.Chemscore.Metal.Weighted>
-0.0000

> <Gold.Chemscore.Lipo.Weighted>
-10.1915

> <Gold.Chemscore.Internal_Hbond.Weighted>
0.0000

> <Gold.Chemscore.DEClash.Weighted>
0.0245

> <Gold.Chemscore.DEInternal.Weighted>
2.6144

> <Gold.Chemscore.Rot.Weighted>
7.0459

> <Gold.Chemscore.Internal.Correction.Weighted>
   9.000000E+99

> <Gold.Protein.RotatedTorsions>
[ 6907 6896 6895 6894 ] final   73.21 input  -60.11 | X-H torsion
[ 7974 7965 7964 7962 ] final -103.91 input  175.53 | X-H torsion
[ 8008 7997 7996 7995 ] final  164.28 input   59.86 | X-H torsion
[ 10167 10162 10161 10158 ] final   -7.41 input  -65.29 | X-H torsion
[ 10718 10713 10712 10709 ] final   -6.27 input   66.30 | X-H torsion
[ 10763 10752 10751 10750 ] final  -57.18 input  -60.55 | X-H torsion
[ 11005 11000 10999 10996 ] final   47.82 input  -57.11 | X-H torsion

> <Gold.Protein.ActiveResidues>
 VAL166  LYS551  ARG553  GLY616  TRP617  ASP618  TYR619  PRO620  LYS621  CYS622 
 ASP623  PHE694  ASN695  SER759  ASP760  ASP761  ALA762  ILE779  LEU786  VAL792 
 PHE793  MET794  SER795  GLU796  ALA797  LYS798  CYS799  TRP800  GLU811  SER814 

> <Gold.Protein.RotatedAtoms>
  152.4911  134.4455  159.9557 H   0  0  0  0  0  0  0  0  0  0  0  0  # atno 6907 bound_to 6896
  151.4442  133.3629  159.2794 H   0  0  0  0  0  0  0  0  0  0  0  0  # atno 6908 bound_to 6896
  150.9066  134.8505  159.7457 H   0  0  0  0  0  0  0  0  0  0  0  0  # atno 6909 bound_to 6896
  145.2499  140.9234  143.3101 H   0  0  0  0  0  0  0  0  0  0  0  0  # atno 7974 bound_to 7965
  156.1892  140.1701  156.8125 H   0  0  0  0  0  0  0  0  0  0  0  0  # atno 8008 bound_to 7997
  154.5451  140.0729  156.8607 H   0  0  0  0  0  0  0  0  0  0  0  0  # atno 8009 bound_to 7997
  155.3138  140.3369  155.4245 H   0  0  0  0  0  0  0  0  0  0  0  0  # atno 8010 bound_to 7997
  140.7028  143.6084  150.8728 H   0  0  0  0  0  0  0  0  0  0  0  0  # atno 10167 bound_to 10162
  156.7344  130.5190  149.5838 H   0  0  0  0  0  0  0  0  0  0  0  0  # atno 10718 bound_to 10713
  154.2184  135.6382  153.5137 H   0  0  0  0  0  0  0  0  0  0  0  0  # atno 10763 bound_to 10752
  152.9974  135.5490  154.6141 H   0  0  0  0  0  0  0  0  0  0  0  0  # atno 10764 bound_to 10752
  154.5595  135.2908  155.0907 H   0  0  0  0  0  0  0  0  0  0  0  0  # atno 10765 bound_to 10752
  140.1245  134.4786  155.8570 H   0  0  0  0  0  0  0  0  0  0  0  0  # atno 11005 bound_to 11000
  144.9513  139.4080  143.6401 LP  0  0  0  0  0  0  0  0  0  0  0  0  # atno 17320 bound_to 7965
  146.3305  139.8521  142.8871 LP  0  0  0  0  0  0  0  0  0  0  0  0  # atno 17321 bound_to 7965
  139.9808  143.5954  152.2943 LP  0  0  0  0  0  0  0  0  0  0  0  0  # atno 17342 bound_to 10162
  139.6574  144.7662  151.2029 LP  0  0  0  0  0  0  0  0  0  0  0  0  # atno 17343 bound_to 10162
  156.1507  130.6308  151.0591 LP  0  0  0  0  0  0  0  0  0  0  0  0  # atno 17370 bound_to 10713
  157.6845  131.0829  150.7280 LP  0  0  0  0  0  0  0  0  0  0  0  0  # atno 17371 bound_to 10713
  141.2158  133.6773  156.6952 LP  0  0  0  0  0  0  0  0  0  0  0  0  # atno 17394 bound_to 11000
  140.2922  134.8232  157.4026 LP  0  0  0  0  0  0  0  0  0  0  0  0  # atno 17395 bound_to 11000

$$$$
