AV-unprocessed.smi:1386|AV-procd|sdf|5638|dock8
  -GOLD-   22720 5253D 1   1.00000     0.00000
 Structure written by MMmdl.
 35 36  0  0  0  0  0  0  0  0  1 V2000
  151.3118  139.6436  155.7542 C   0  0  0  0  0  0  0  0  0  0  0  0
  150.5104  140.7738  156.4170 C   0  0  2  0  0  0  0  0  0  0  0  0
  149.9627  141.7675  155.3750 C   0  0  0  0  0  0  0  0  0  0  0  0
  148.8112  141.2395  154.6664 N   0  0  0  0  0  0  0  0  0  0  0  0
  147.6804  141.9386  154.2662 C   0  0  0  0  0  0  0  0  0  0  0  0
  146.8667  141.0339  153.6223 C   0  0  0  0  0  0  0  0  0  0  0  0
  147.4724  139.7797  153.6160 N   0  0  0  0  0  0  0  0  0  0  0  0
  148.6185  139.9791  154.2536 C   0  0  0  0  0  0  0  0  0  0  0  0
  151.3519  141.4789  157.3816 N   0  0  0  0  0  0  0  0  0  0  0  0
  151.0047  142.5731  158.0803 C   0  0  0  0  0  0  0  0  0  0  0  0
  149.8816  143.0727  158.0017 O   0  0  0  0  0  0  0  0  0  0  0  0
  151.9919  143.0824  158.8604 N   0  0  0  0  0  0  0  0  0  0  0  0
  153.0968  142.3214  159.4673 C   0  0  0  0  0  0  0  0  0  0  0  0
  152.7381  141.9936  160.9260 C   0  0  0  0  0  0  0  0  0  0  0  0
  152.5466  143.5154  161.9059 S   0  0  0  0  0  0  0  0  0  0  0  0
  151.4225  144.4438  160.8157 C   0  0  0  0  0  0  0  0  0  0  0  0
  151.9413  144.4587  159.3678 C   0  0  0  0  0  0  0  0  0  0  0  0
  150.6955  139.0902  155.0453 H   0  0  0  0  0  0  0  0  0  0  0  0
  151.6778  138.9320  156.4950 H   0  0  0  0  0  0  0  0  0  0  0  0
  152.1741  140.0329  155.2117 H   0  0  0  0  0  0  0  0  0  0  0  0
  149.6588  140.3270  156.9340 H   0  0  0  0  0  0  0  0  0  0  0  0
  149.6835  142.7100  155.8484 H   0  0  0  0  0  0  0  0  0  0  0  0
  150.7320  142.0033  154.6388 H   0  0  0  0  0  0  0  0  0  0  0  0
  147.5535  142.9928  154.4640 H   0  0  0  0  0  0  0  0  0  0  0  0
  145.9000  141.1882  153.1662 H   0  0  0  0  0  0  0  0  0  0  0  0
  149.3390  139.1912  154.4176 H   0  0  0  0  0  0  0  0  0  0  0  0
  152.2901  141.1269  157.5031 H   0  0  0  0  0  0  0  0  0  0  0  0
  153.3360  141.4058  158.9261 H   0  0  0  0  0  0  0  0  0  0  0  0
  154.0144  142.9106  159.4346 H   0  0  0  0  0  0  0  0  0  0  0  0
  151.8115  141.4202  160.9711 H   0  0  0  0  0  0  0  0  0  0  0  0
  153.5162  141.3808  161.3813 H   0  0  0  0  0  0  0  0  0  0  0  0
  150.4305  143.9925  160.8597 H   0  0  0  0  0  0  0  0  0  0  0  0
  151.3277  145.4610  161.1958 H   0  0  0  0  0  0  0  0  0  0  0  0
  152.9327  144.9119  159.3274 H   0  0  0  0  0  0  0  0  0  0  0  0
  151.3068  145.0986  158.7526 H   0  0  0  0  0  0  0  0  0  0  0  0
  1  2  1  0  0  0  0
  1 18  1  0  0  0  0
  1 19  1  0  0  0  0
  1 20  1  0  0  0  0
  2  3  1  0  0  0  0
  2  9  1  0  0  0  0
  2 21  1  0  0  0  0
  3  4  1  0  0  0  0
  3 22  1  0  0  0  0
  3 23  1  0  0  0  0
  4  8  1  0  0  0  0
  4  5  1  0  0  0  0
  5  6  2  0  0  0  0
  5 24  1  0  0  0  0
  6  7  1  0  0  0  0
  6 25  1  0  0  0  0
  7  8  2  0  0  0  0
  8 26  1  0  0  0  0
  9 10  1  0  0  0  0
  9 27  1  0  0  0  0
 10 11  2  0  0  0  0
 10 12  1  0  0  0  0
 12 17  1  0  0  0  0
 12 13  1  0  0  0  0
 13 14  1  0  0  0  0
 13 28  1  0  0  0  0
 13 29  1  0  0  0  0
 14 15  1  0  0  0  0
 14 30  1  0  0  0  0
 14 31  1  0  0  0  0
 15 16  1  0  0  0  0
 16 17  1  0  0  0  0
 16 32  1  0  0  0  0
 16 33  1  0  0  0  0
 17 34  1  0  0  0  0
 17 35  1  0  0  0  0
M  END
> <s_m_source_file>
AV-unprocessed.smi

> <i_m_source_file_index>
1386

> <i_lp_mmshare_version>
43012

> <i_f3d_flags>
0

> <s_epik_input>
W2NIXTFuW2NIXVtjSF1uMVtDSDJdW0NAQEhdKFtDSDNdKVtOSF1DKD1PKU4yW0NIMl1bQ0gyXVNbQ0gyXVtDSDJdMg==

> <s_epik_cmdline>
J2VwaWtfcHl0aG9uJywgJy1waCcsICc3LjAnLCAnLXRuJywgJzgnLCAnLW1hJywgJzIwMCcsICctbWV0YWxfYmluZGluZycsICctaW1hZScsICc8aW5maWxlLm1hZT4nLCAnLW9tYWUnLCAnPG91dGZpbGUubWFlPic=

> <r_lp_tautomer_probability>
1

> <r_epik_Ionization_Penalty>
0.622677

> <r_epik_Ionization_Penalty_Charging>
0.62263

> <r_epik_Ionization_Penalty_Neutral>
4.67019e-05

> <r_epik_State_Penalty>
0.63879

> <r_epik_Charging_Adjusted_Penalty>
1.26142

> <i_epik_Tot_Q>
0

> <i_epik_Tot_abs_Q>
0

> <r_epik_Metal_State_Penalty>
0.307117

> <b_epik_Metal_Only>
0

> <s_lp_Force_Field>
OPLS_2005

> <r_lp_Energy>
25.5009

> <b_lp_Chiralities_Consistent>
1

> <s_lp_Variant>
AV-unprocessed.smi:1386-3

> <Gold.Version>
5.8.1

> <Gold.Id.Protein>
6NUR|6NUR_protein|mol2

> <Gold.PLP.Fitness>
46.6152

> <Gold.PLP.PLP>
-42.0497

> <Gold.PLP.part.hbond>
0.0000

> <Gold.PLP.part.metal>
0.0000

> <Gold.PLP.part.buried>
-3.8880

> <Gold.PLP.part.nonpolar>
-39.8162

> <Gold.PLP.part.repulsive>
1.3775

> <Gold.PLP.ligand.clash>
0.0000

> <Gold.PLP.ligand.torsion>
0.7325

> <Gold.PLP.Chemscore.Hbond>
0.0000

> <Gold.PLP.Chemscore.CHOScore>
1.9980

> <Gold.PLP.Chemscore.Metal>
0.0000

> <Gold.Chemscore.Hbonds>
donor molecule, donor type, donor heavy atom, donor atom, acceptor molecule, acceptor atom, score
      L1  C     5    24       P1  8028  1.00
      L1  C     6    25       P1 10175  1.00

> <Gold.PLP.Chemscore.Internal.Correction>
0.0366

> <Gold.Rescore>
     Score         DG    S(hbond)    S(metal)    S(lipo)     H(rot)  DE(clash)    DE(int)     intcor
     10.24     -12.17       0.00        0.00      91.99       1.59       0.02       1.91       ----

> <Gold.Chemscore.Fitness>
10.2413

> <Gold.Chemscore.DG>
-12.1726

> <Gold.Chemscore.ZeroCoef>
-5.4800

> <Gold.Chemscore.Hbond>
0.0000

> <Gold.Chemscore.Metal>
0.0000

> <Gold.Chemscore.Lipo>
91.9929

> <Gold.Chemscore.Internal_Hbond>
0.0000

> <Gold.Chemscore.DEClash>
0.0195

> <Gold.Chemscore.DEInternal>
1.9117

> <Gold.Chemscore.Rot>
1.5901

> <Gold.Chemscore.Internal.Correction>
   9.000000E+99

> <Gold.Chemscore.Hbond.Weighted>
-0.0000

> <Gold.Chemscore.Metal.Weighted>
-0.0000

> <Gold.Chemscore.Lipo.Weighted>
-10.7632

> <Gold.Chemscore.Internal_Hbond.Weighted>
0.0000

> <Gold.Chemscore.DEClash.Weighted>
0.0195

> <Gold.Chemscore.DEInternal.Weighted>
1.9117

> <Gold.Chemscore.Rot.Weighted>
4.0706

> <Gold.Chemscore.Internal.Correction.Weighted>
   9.000000E+99

> <Gold.Protein.RotatedTorsions>
[ 6907 6896 6895 6894 ] final  -56.19 input  -60.11 | X-H torsion
[ 7974 7965 7964 7962 ] final  128.63 input  175.53 | X-H torsion
[ 8008 7997 7996 7995 ] final -142.20 input   59.86 | X-H torsion
[ 10167 10162 10161 10158 ] final   98.59 input  -65.29 | X-H torsion
[ 10718 10713 10712 10709 ] final   52.30 input   66.30 | X-H torsion
[ 10763 10752 10751 10750 ] final   37.85 input  -60.55 | X-H torsion
[ 11005 11000 10999 10996 ] final  -24.47 input  -57.11 | X-H torsion

> <Gold.Protein.ActiveResidues>
 VAL166  LYS551  ARG553  GLY616  TRP617  ASP618  TYR619  PRO620  LYS621  CYS622 
 ASP623  PHE694  ASN695  SER759  ASP760  ASP761  ALA762  ILE779  LEU786  VAL792 
 PHE793  MET794  SER795  GLU796  ALA797  LYS798  CYS799  TRP800  GLU811  SER814 

> <Gold.Protein.RotatedAtoms>
  150.8188  134.7385  159.6753 H   0  0  0  0  0  0  0  0  0  0  0  0  # atno 6907 bound_to 6896
  152.4305  134.5782  159.9950 H   0  0  0  0  0  0  0  0  0  0  0  0  # atno 6908 bound_to 6896
  151.5972  133.3323  159.3076 H   0  0  0  0  0  0  0  0  0  0  0  0  # atno 6909 bound_to 6896
  145.0375  139.3992  143.5119 H   0  0  0  0  0  0  0  0  0  0  0  0  # atno 7974 bound_to 7965
  155.4902  140.0567  157.2954 H   0  0  0  0  0  0  0  0  0  0  0  0  # atno 8008 bound_to 7997
  154.4626  140.2003  156.0155 H   0  0  0  0  0  0  0  0  0  0  0  0  # atno 8009 bound_to 7997
  156.0917  140.3232  155.7829 H   0  0  0  0  0  0  0  0  0  0  0  0  # atno 8010 bound_to 7997
  139.7694  144.6927  151.0177 H   0  0  0  0  0  0  0  0  0  0  0  0  # atno 10167 bound_to 10162
  157.5062  130.8470  149.8377 H   0  0  0  0  0  0  0  0  0  0  0  0  # atno 10718 bound_to 10713
  153.0022  135.6266  154.2210 H   0  0  0  0  0  0  0  0  0  0  0  0  # atno 10763 bound_to 10752
  154.1953  135.2806  155.3010 H   0  0  0  0  0  0  0  0  0  0  0  0  # atno 10764 bound_to 10752
  154.5727  135.5671  153.7169 H   0  0  0  0  0  0  0  0  0  0  0  0  # atno 10765 bound_to 10752
  140.8848  133.7629  156.0346 H   0  0  0  0  0  0  0  0  0  0  0  0  # atno 11005 bound_to 11000
  146.3506  139.9958  142.8681 LP  0  0  0  0  0  0  0  0  0  0  0  0  # atno 17320 bound_to 7965
  145.1691  140.9711  143.4332 LP  0  0  0  0  0  0  0  0  0  0  0  0  # atno 17321 bound_to 7965
  140.7813  143.4605  151.0284 LP  0  0  0  0  0  0  0  0  0  0  0  0  # atno 17342 bound_to 10162
  139.8289  143.7717  152.3179 LP  0  0  0  0  0  0  0  0  0  0  0  0  # atno 17343 bound_to 10162
  156.0259  130.3779  150.1824 LP  0  0  0  0  0  0  0  0  0  0  0  0  # atno 17370 bound_to 10713
  157.0013  130.9923  151.3390 LP  0  0  0  0  0  0  0  0  0  0  0  0  # atno 17371 bound_to 10713
  140.8418  134.3057  157.5310 LP  0  0  0  0  0  0  0  0  0  0  0  0  # atno 17394 bound_to 11000
  139.8723  134.9420  156.3813 LP  0  0  0  0  0  0  0  0  0  0  0  0  # atno 17395 bound_to 11000

$$$$
