AV-unprocessed.smi:162|AV-procd|sdf|1376|dock2
  -GOLD-   2262019 93D 1   1.00000     0.00000
 Structure written by MMmdl.
 54 57  0  0  0  0  0  0  0  0  1 V2000
  148.8434  136.8240  159.1712 C   0  0  0  0  0  0  0  0  0  0  0  0
  148.3848  138.1553  158.9951 O   0  0  0  0  0  0  0  0  0  0  0  0
  147.8521  138.4193  157.7045 C   0  0  0  0  0  0  0  0  0  0  0  0
  148.9601  138.5557  156.6372 C   0  0  2  0  0  0  0  0  0  0  0  0
  149.7554  139.8617  156.7509 C   0  0  0  0  0  0  0  0  0  0  0  0
  150.1946  140.1846  155.3125 C   0  0  1  0  0  0  0  0  0  0  0  0
  151.6054  140.1486  155.1475 O   0  0  0  0  0  0  0  0  0  0  0  0
  152.1680  138.8648  155.3669 C   0  0  0  0  0  0  0  0  0  0  0  0
  149.5564  139.0778  154.4655 C   0  0  0  0  0  0  0  0  0  0  0  0
  148.4600  138.5547  155.2689 N   0  0  0  0  0  0  0  0  0  0  0  0
  147.9041  137.3902  154.8581 C   0  0  0  0  0  0  0  0  0  0  0  0
  148.4057  136.1976  155.2761 N   0  0  0  0  0  0  0  0  0  0  0  0
  147.8286  135.0557  154.8889 C   0  0  0  0  0  0  0  0  0  0  0  0
  146.7594  134.8829  154.1087 N   0  0  0  0  0  0  0  0  0  0  0  0
  146.2538  136.0784  153.6898 C   0  0  0  0  0  0  0  0  0  0  0  0
  146.7625  137.3668  154.0138 C   0  0  0  0  0  0  0  0  0  0  0  0
  145.9873  138.3504  153.4133 N   0  0  0  0  0  0  0  0  0  0  0  0
  145.0657  137.6809  152.7760 C   0  0  0  0  0  0  0  0  0  0  0  0
  145.1558  136.3105  152.8796 N   0  0  0  0  0  0  0  0  0  0  0  0
  144.2617  135.3294  152.2851 C   0  0  0  0  0  0  0  0  0  0  0  0
  144.9529  134.3210  151.3329 C   0  0  0  0  0  0  0  0  0  0  0  0
  145.8080  135.1031  150.5186 O   0  0  0  0  0  0  0  0  0  0  0  0
  145.8154  133.2821  152.0814 C   0  0  0  0  0  0  0  0  0  0  0  0
  146.4216  132.2427  151.1209 C   0  0  0  0  0  0  0  0  0  0  0  0
  145.3884  131.6087  150.3751 O   0  0  0  0  0  0  0  0  0  0  0  0
  144.6660  132.5152  149.5494 C   0  0  0  0  0  0  0  0  0  0  0  0
  143.9595  133.5716  150.4184 C   0  0  0  0  0  0  0  0  0  0  0  0
  149.6550  137.7191  156.7246 H   0  0  0  0  0  0  0  0  0  0  0  0
  149.7914  141.1506  155.0036 H   0  0  0  0  0  0  0  0  0  0  0  0
  149.1732  136.6885  160.2010 H   0  0  0  0  0  0  0  0  0  0  0  0
  149.6896  136.5978  158.5229 H   0  0  0  0  0  0  0  0  0  0  0  0
  148.0499  136.1015  158.9771 H   0  0  0  0  0  0  0  0  0  0  0  0
  147.1347  137.6418  157.4392 H   0  0  0  0  0  0  0  0  0  0  0  0
  147.2881  139.3508  157.7622 H   0  0  0  0  0  0  0  0  0  0  0  0
  149.1208  140.6674  157.1226 H   0  0  0  0  0  0  0  0  0  0  0  0
  150.5903  139.7551  157.4438 H   0  0  0  0  0  0  0  0  0  0  0  0
  153.2469  138.9102  155.2197 H   0  0  0  0  0  0  0  0  0  0  0  0
  151.7676  138.1233  154.6752 H   0  0  0  0  0  0  0  0  0  0  0  0
  151.9843  138.5252  156.3869 H   0  0  0  0  0  0  0  0  0  0  0  0
  149.1996  139.4588  153.5083 H   0  0  0  0  0  0  0  0  0  0  0  0
  150.2935  138.2993  154.2628 H   0  0  0  0  0  0  0  0  0  0  0  0
  148.2872  134.1511  155.2601 H   0  0  0  0  0  0  0  0  0  0  0  0
  144.2905  138.1723  152.2061 H   0  0  0  0  0  0  0  0  0  0  0  0
  143.7633  134.7965  153.0961 H   0  0  0  0  0  0  0  0  0  0  0  0
  143.4768  135.8697  151.7535 H   0  0  0  0  0  0  0  0  0  0  0  0
  145.7011  134.8289  149.6205 H   0  0  0  0  0  0  0  0  0  0  0  0
  146.6055  133.7758  152.6486 H   0  0  0  0  0  0  0  0  0  0  0  0
  145.2045  132.7465  152.8076 H   0  0  0  0  0  0  0  0  0  0  0  0
  147.1448  132.7029  150.4459 H   0  0  0  0  0  0  0  0  0  0  0  0
  146.9605  131.4831  151.6872 H   0  0  0  0  0  0  0  0  0  0  0  0
  145.3373  132.9821  148.8272 H   0  0  0  0  0  0  0  0  0  0  0  0
  143.9293  131.9533  148.9752 H   0  0  0  0  0  0  0  0  0  0  0  0
  143.2129  133.0583  151.0243 H   0  0  0  0  0  0  0  0  0  0  0  0
  143.4128  134.2737  149.7879 H   0  0  0  0  0  0  0  0  0  0  0  0
  1  2  1  0  0  0  0
  1 30  1  0  0  0  0
  1 31  1  0  0  0  0
  1 32  1  0  0  0  0
  2  3  1  0  0  0  0
  3  4  1  0  0  0  0
  3 33  1  0  0  0  0
  3 34  1  0  0  0  0
  4 28  1  0  0  0  0
  4 10  1  0  0  0  0
  4  5  1  0  0  0  0
  5  6  1  0  0  0  0
  5 35  1  0  0  0  0
  5 36  1  0  0  0  0
  6 29  1  0  0  0  0
  6  7  1  0  0  0  0
  6  9  1  0  0  0  0
  7  8  1  0  0  0  0
  8 37  1  0  0  0  0
  8 38  1  0  0  0  0
  8 39  1  0  0  0  0
  9 10  1  0  0  0  0
  9 40  1  0  0  0  0
  9 41  1  0  0  0  0
 10 11  1  0  0  0  0
 11 16  1  0  0  0  0
 11 12  2  0  0  0  0
 12 13  1  0  0  0  0
 13 14  2  0  0  0  0
 13 42  1  0  0  0  0
 14 15  1  0  0  0  0
 15 19  1  0  0  0  0
 15 16  2  0  0  0  0
 16 17  1  0  0  0  0
 17 18  2  0  0  0  0
 18 19  1  0  0  0  0
 18 43  1  0  0  0  0
 19 20  1  0  0  0  0
 20 21  1  0  0  0  0
 20 44  1  0  0  0  0
 20 45  1  0  0  0  0
 21 27  1  0  0  0  0
 21 22  1  0  0  0  0
 21 23  1  0  0  0  0
 22 46  1  0  0  0  0
 23 24  1  0  0  0  0
 23 47  1  0  0  0  0
 23 48  1  0  0  0  0
 24 25  1  0  0  0  0
 24 49  1  0  0  0  0
 24 50  1  0  0  0  0
 25 26  1  0  0  0  0
 26 27  1  0  0  0  0
 26 51  1  0  0  0  0
 26 52  1  0  0  0  0
 27 53  1  0  0  0  0
 27 54  1  0  0  0  0
M  END
> <s_m_source_file>
AV-unprocessed.smi

> <i_m_source_file_index>
162

> <i_lp_mmshare_version>
43012

> <i_f3d_flags>
0

> <s_epik_input>
W0NIM11PW0NIMl1bQ0BASF0xW0NIMl1bQ0BASF0oT1tDSDNdKVtDSDJdTjFjKG5bY0hdbjIpYyhjMjMpbltjSF1uM1tDSDJdQzQoW09IXSlbQ0gyXVtDSDJdT1tDSDJdW0NIMl00

> <s_epik_cmdline>
J2VwaWtfcHl0aG9uJywgJy1waCcsICc3LjAnLCAnLXRuJywgJzgnLCAnLW1hJywgJzIwMCcsICctbWV0YWxfYmluZGluZycsICctaW1hZScsICc8aW5maWxlLm1hZT4nLCAnLW9tYWUnLCAnPG91dGZpbGUubWFlPic=

> <r_lp_tautomer_probability>
1

> <r_epik_Ionization_Penalty>
0.00660334

> <r_epik_Ionization_Penalty_Charging>
0

> <r_epik_Ionization_Penalty_Neutral>
0.00660334

> <r_epik_State_Penalty>
0.00469459

> <r_epik_Charging_Adjusted_Penalty>
0.00469459

> <i_epik_Tot_Q>
0

> <i_epik_Tot_abs_Q>
0

> <r_epik_Metal_State_Penalty>
-0

> <b_epik_Metal_Only>
0

> <s_lp_Force_Field>
OPLS_2005

> <r_lp_Energy>
45.7705

> <b_lp_Chiralities_Consistent>
1

> <s_lp_Variant>
AV-unprocessed.smi:162-1

> <Gold.Version>
5.8.1

> <Gold.Id.Protein>
6NUR|6NUR_protein|mol2

> <Gold.PLP.Fitness>
39.9801

> <Gold.PLP.PLP>
-30.1453

> <Gold.PLP.part.hbond>
-3.0000

> <Gold.PLP.part.metal>
0.0000

> <Gold.PLP.part.buried>
-1.3626

> <Gold.PLP.part.nonpolar>
-25.9533

> <Gold.PLP.part.repulsive>
0.6388

> <Gold.PLP.ligand.clash>
0.0000

> <Gold.PLP.ligand.torsion>
1.0086

> <Gold.PLP.Chemscore.Hbond>
1.9833

> <Gold.PLP.Chemscore.CHOScore>
1.9143

> <Gold.PLP.Chemscore.Metal>
0.0000

> <Gold.Chemscore.Hbonds>
donor molecule, donor type, donor heavy atom, donor atom, acceptor molecule, acceptor atom, score
      L1  H    22    46       P1  7921  1.00
      P1  H  6934  6947       L1     2  0.01
      P1  H  7989  7998       L1     7  0.83
      L1  C    18    43       P1 10171  1.00
      L1  C    18    43       P1 10175  0.91

> <Gold.PLP.Chemscore.Internal.Correction>
0.1593

> <Gold.Rescore>
     Score         DG    S(hbond)    S(metal)    S(lipo)     H(rot)  DE(clash)    DE(int)     intcor
      9.02     -12.57       1.68        0.00      75.16       2.86       1.10       2.45       ----

> <Gold.Chemscore.Fitness>
9.0217

> <Gold.Chemscore.DG>
-12.5677

> <Gold.Chemscore.ZeroCoef>
-5.4800

> <Gold.Chemscore.Hbond>
1.6847

> <Gold.Chemscore.Metal>
0.0000

> <Gold.Chemscore.Lipo>
75.1561

> <Gold.Chemscore.Internal_Hbond>
0.0000

> <Gold.Chemscore.DEClash>
1.0967

> <Gold.Chemscore.DEInternal>
2.4494

> <Gold.Chemscore.Rot>
2.8642

> <Gold.Chemscore.Internal.Correction>
   9.000000E+99

> <Gold.Chemscore.Hbonds>
donor molecule, donor type, donor heavy atom, donor atom, acceptor molecule, acceptor atom, score
      L1  H    22    46       P1  7921  0.86
      P1  H  6934  6947       L1     2  0.02
      P1  H  7989  7998       L1     7  0.13

> <Gold.Chemscore.Hbond.Weighted>
-5.6269

> <Gold.Chemscore.Metal.Weighted>
-0.0000

> <Gold.Chemscore.Lipo.Weighted>
-8.7933

> <Gold.Chemscore.Internal_Hbond.Weighted>
0.0000

> <Gold.Chemscore.DEClash.Weighted>
1.0967

> <Gold.Chemscore.DEInternal.Weighted>
2.4494

> <Gold.Chemscore.Rot.Weighted>
7.3324

> <Gold.Chemscore.Internal.Correction.Weighted>
   9.000000E+99

> <Gold.Protein.RotatedTorsions>
[ 6907 6896 6895 6894 ] final -138.55 input  -60.11 | X-H torsion
[ 7974 7965 7964 7962 ] final -174.11 input  175.53 | X-H torsion
[ 8008 7997 7996 7995 ] final  -14.02 input   59.86 | X-H torsion
[ 10167 10162 10161 10158 ] final -122.20 input  -65.29 | X-H torsion
[ 10718 10713 10712 10709 ] final -179.64 input   66.30 | X-H torsion
[ 10763 10752 10751 10750 ] final  -85.95 input  -60.55 | X-H torsion
[ 11005 11000 10999 10996 ] final   41.72 input  -57.11 | X-H torsion

> <Gold.Protein.ActiveResidues>
 VAL166  LYS551  ARG553  GLY616  TRP617  ASP618  TYR619  PRO620  LYS621  CYS622 
 ASP623  PHE694  ASN695  SER759  ASP760  ASP761  ALA762  ILE779  LEU786  VAL792 
 PHE793  MET794  SER795  GLU796  ALA797  LYS798  CYS799  TRP800  GLU811  SER814 

> <Gold.Protein.RotatedAtoms>
  151.0364  133.5744  159.2655 H   0  0  0  0  0  0  0  0  0  0  0  0  # atno 6907 bound_to 6896
  151.2807  135.0712  159.9178 H   0  0  0  0  0  0  0  0  0  0  0  0  # atno 6908 bound_to 6896
  152.5355  134.0079  159.7979 H   0  0  0  0  0  0  0  0  0  0  0  0  # atno 6909 bound_to 6896
  144.7133  140.1520  143.6383 H   0  0  0  0  0  0  0  0  0  0  0  0  # atno 7974 bound_to 7965
  154.5244  140.2234  155.8917 H   0  0  0  0  0  0  0  0  0  0  0  0  # atno 8008 bound_to 7997
  156.1697  140.3124  155.8916 H   0  0  0  0  0  0  0  0  0  0  0  0  # atno 8009 bound_to 7997
  155.3583  140.0459  157.3037 H   0  0  0  0  0  0  0  0  0  0  0  0  # atno 8010 bound_to 7997
  140.0168  143.5385  152.2239 H   0  0  0  0  0  0  0  0  0  0  0  0  # atno 10167 bound_to 10162
  156.8621  130.9755  151.3082 H   0  0  0  0  0  0  0  0  0  0  0  0  # atno 10718 bound_to 10713
  154.6169  135.5467  153.7533 H   0  0  0  0  0  0  0  0  0  0  0  0  # atno 10763 bound_to 10752
  153.0220  135.6403  154.1497 H   0  0  0  0  0  0  0  0  0  0  0  0  # atno 10764 bound_to 10752
  154.1433  135.2907  155.3135 H   0  0  0  0  0  0  0  0  0  0  0  0  # atno 10765 bound_to 10752
  140.1807  134.4107  155.8202 H   0  0  0  0  0  0  0  0  0  0  0  0  # atno 11005 bound_to 11000
  145.9107  139.2485  143.1439 LP  0  0  0  0  0  0  0  0  0  0  0  0  # atno 17320 bound_to 7965
  145.9718  140.8754  143.0158 LP  0  0  0  0  0  0  0  0  0  0  0  0  # atno 17321 bound_to 7965
  139.6167  144.7621  151.2831 LP  0  0  0  0  0  0  0  0  0  0  0  0  # atno 17342 bound_to 10162
  140.7359  143.6723  150.8071 LP  0  0  0  0  0  0  0  0  0  0  0  0  # atno 17343 bound_to 10162
  157.6244  130.8680  149.9164 LP  0  0  0  0  0  0  0  0  0  0  0  0  # atno 17370 bound_to 10713
  156.0771  130.3677  150.0656 LP  0  0  0  0  0  0  0  0  0  0  0  0  # atno 17371 bound_to 10713
  141.2223  133.6999  156.7925 LP  0  0  0  0  0  0  0  0  0  0  0  0  # atno 17394 bound_to 11000
  140.2271  134.8714  157.3437 LP  0  0  0  0  0  0  0  0  0  0  0  0  # atno 17395 bound_to 11000

$$$$
