AV-unprocessed.smi:2976|AV-procd|sdf|11365|dock10
  -GOLD-   2272016283D 1   1.00000     0.00000
 Structure written by MMmdl.
 40 41  0  0  0  0  0  0  0  0  1 V2000
  152.1982  145.1941  159.2476 C   0  0  0  0  0  0  0  0  0  0  0  0
  152.4759  143.6925  159.0662 C   0  0  2  0  0  0  0  0  0  0  0  0
  151.2347  142.9385  158.5479 C   0  0  0  0  0  0  0  0  0  0  0  0
  151.5506  141.4606  158.2693 C   0  0  0  0  0  0  0  0  0  0  0  0
  152.1574  140.7703  159.5004 C   0  0  0  0  0  0  0  0  0  0  0  0
  153.3978  141.5276  160.0128 C   0  0  2  0  0  0  0  0  0  0  0  0
  153.9679  140.8236  161.1597 N   0  0  0  0  0  0  0  0  0  0  0  0
  155.2632  140.5093  161.3142 C   0  0  0  0  0  0  0  0  0  0  0  0
  156.1287  140.7934  160.4846 O   0  0  0  0  0  0  0  0  0  0  0  0
  155.6207  139.7760  162.6160 C   0  0  0  0  0  0  0  0  0  0  0  0
  155.4811  140.6089  163.8198 N   0  0  0  0  0  0  0  0  0  0  0  0
  155.0194  141.8888  163.5673 N   0  0  0  0  0  0  0  0  0  0  0  0
  154.8811  142.7176  164.5440 C   0  0  0  0  0  0  0  0  0  0  0  0
  155.1890  142.3570  165.9101 C   0  0  0  0  0  0  0  0  0  0  0  0
  154.9848  143.5128  167.1788 Cl  0  0  0  0  0  0  0  0  0  0  0  0
  155.6343  141.0976  166.1479 C   0  0  0  0  0  0  0  0  0  0  0  0
  156.0237  140.5924  167.7564 Cl  0  0  0  0  0  0  0  0  0  0  0  0
  155.8033  140.1251  165.0591 C   0  0  0  0  0  0  0  0  0  0  0  0
  156.2027  138.9732  165.2340 O   0  0  0  0  0  0  0  0  0  0  0  0
  153.0708  143.0138  160.3289 C   0  0  2  0  0  0  0  0  0  0  0  0
  152.1995  143.1911  161.5943 C   0  0  0  0  0  0  0  0  0  0  0  0
  151.3701  145.3739  159.9330 H   0  0  0  0  0  0  0  0  0  0  0  0
  151.9371  145.6570  158.2956 H   0  0  0  0  0  0  0  0  0  0  0  0
  153.0755  145.7133  159.6341 H   0  0  0  0  0  0  0  0  0  0  0  0
  153.2365  143.6213  158.2869 H   0  0  0  0  0  0  0  0  0  0  0  0
  150.4203  143.0115  159.2693 H   0  0  0  0  0  0  0  0  0  0  0  0
  150.8715  143.4070  157.6326 H   0  0  0  0  0  0  0  0  0  0  0  0
  150.6450  140.9388  157.9586 H   0  0  0  0  0  0  0  0  0  0  0  0
  152.2483  141.3902  157.4338 H   0  0  0  0  0  0  0  0  0  0  0  0
  151.4061  140.6987  160.2874 H   0  0  0  0  0  0  0  0  0  0  0  0
  152.4272  139.7452  159.2429 H   0  0  0  0  0  0  0  0  0  0  0  0
  154.1400  141.5062  159.2118 H   0  0  0  0  0  0  0  0  0  0  0  0
  153.3262  140.5556  161.8917 H   0  0  0  0  0  0  0  0  0  0  0  0
  154.9814  138.8949  162.6955 H   0  0  0  0  0  0  0  0  0  0  0  0
  156.6391  139.3902  162.5409 H   0  0  0  0  0  0  0  0  0  0  0  0
  154.5244  143.7364  164.3920 H   0  0  0  0  0  0  0  0  0  0  0  0
  154.0166  143.5153  160.5392 H   0  0  0  0  0  0  0  0  0  0  0  0
  151.2122  142.7453  161.4790 H   0  0  0  0  0  0  0  0  0  0  0  0
  152.0587  144.2436  161.8378 H   0  0  0  0  0  0  0  0  0  0  0  0
  152.6645  142.7352  162.4682 H   0  0  0  0  0  0  0  0  0  0  0  0
  1  2  1  0  0  0  0
  1 22  1  0  0  0  0
  1 23  1  0  0  0  0
  1 24  1  0  0  0  0
  2 20  1  0  0  0  0
  2  3  1  0  0  0  0
  2 25  1  0  0  0  0
  3  4  1  0  0  0  0
  3 26  1  0  0  0  0
  3 27  1  0  0  0  0
  4  5  1  0  0  0  0
  4 28  1  0  0  0  0
  4 29  1  0  0  0  0
  5  6  1  0  0  0  0
  5 30  1  0  0  0  0
  5 31  1  0  0  0  0
  6  7  1  0  0  0  0
  6 20  1  0  0  0  0
  6 32  1  0  0  0  0
  7  8  1  0  0  0  0
  7 33  1  0  0  0  0
  8  9  2  0  0  0  0
  8 10  1  0  0  0  0
 10 11  1  0  0  0  0
 10 34  1  0  0  0  0
 10 35  1  0  0  0  0
 11 18  1  0  0  0  0
 11 12  1  0  0  0  0
 12 13  2  0  0  0  0
 13 14  1  0  0  0  0
 13 36  1  0  0  0  0
 14 15  1  0  0  0  0
 14 16  2  0  0  0  0
 16 17  1  0  0  0  0
 16 18  1  0  0  0  0
 18 19  2  0  0  0  0
 20 21  1  0  0  0  0
 20 37  1  0  0  0  0
 21 38  1  0  0  0  0
 21 39  1  0  0  0  0
 21 40  1  0  0  0  0
M  END
> <s_m_source_file>
AV-unprocessed.smi

> <i_m_source_file_index>
2976

> <i_lp_mmshare_version>
43012

> <i_f3d_flags>
0

> <s_epik_input>
W0NIM11bQ0BASF0xW0NIMl1bQ0gyXVtDSDJdW0NASF0oW0NASF0xW0NIM10pW05IXUMoPU8pW0NIMl1uMm5bY0hdYyhDbCljKENsKWMyPU8=

> <s_epik_cmdline>
J2VwaWtfcHl0aG9uJywgJy1waCcsICc3LjAnLCAnLXRuJywgJzgnLCAnLW1hJywgJzIwMCcsICctbWV0YWxfYmluZGluZycsICctaW1hZScsICc8aW5maWxlLm1hZT4nLCAnLW9tYWUnLCAnPG91dGZpbGUubWFlPic=

> <r_lp_tautomer_probability>
1

> <r_epik_Ionization_Penalty>
1.90777e-08

> <r_epik_Ionization_Penalty_Charging>
3.07942e-11

> <r_epik_Ionization_Penalty_Neutral>
1.90469e-08

> <r_epik_State_Penalty>
-0

> <r_epik_Charging_Adjusted_Penalty>
3.07942e-11

> <i_epik_Tot_Q>
0

> <i_epik_Tot_abs_Q>
0

> <r_epik_Metal_State_Penalty>
-0

> <b_epik_Metal_Only>
0

> <s_lp_Force_Field>
OPLS_2005

> <r_lp_Energy>
28.3124

> <b_lp_Chiralities_Consistent>
1

> <s_lp_Variant>
AV-unprocessed.smi:2976-7

> <Gold.Version>
5.8.1

> <Gold.Id.Protein>
6NUR|6NUR_protein|mol2

> <Gold.PLP.Fitness>
49.0203

> <Gold.PLP.PLP>
-49.4803

> <Gold.PLP.part.hbond>
-2.0000

> <Gold.PLP.part.metal>
0.0000

> <Gold.PLP.part.buried>
-3.7044

> <Gold.PLP.part.nonpolar>
-42.2604

> <Gold.PLP.part.repulsive>
0.0411

> <Gold.PLP.ligand.clash>
0.0000

> <Gold.PLP.ligand.torsion>
0.2368

> <Gold.PLP.Chemscore.Hbond>
0.0000

> <Gold.PLP.Chemscore.CHOScore>
0.0000

> <Gold.PLP.Chemscore.Metal>
0.0000

> <Gold.PLP.Chemscore.Internal.Correction>
0.0135

> <Gold.Rescore>
     Score         DG    S(hbond)    S(metal)    S(lipo)     H(rot)  DE(clash)    DE(int)     intcor
     13.83     -15.91       0.00        0.00     121.65       1.49       0.29       1.79       ----

> <Gold.Chemscore.Fitness>
13.8302

> <Gold.Chemscore.DG>
-15.9079

> <Gold.Chemscore.ZeroCoef>
-5.4800

> <Gold.Chemscore.Hbond>
0.0000

> <Gold.Chemscore.Metal>
0.0000

> <Gold.Chemscore.Lipo>
121.6545

> <Gold.Chemscore.Internal_Hbond>
0.0000

> <Gold.Chemscore.DEClash>
0.2865

> <Gold.Chemscore.DEInternal>
1.7913

> <Gold.Chemscore.Rot>
1.4866

> <Gold.Chemscore.Internal.Correction>
   9.000000E+99

> <Gold.Chemscore.Hbond.Weighted>
-0.0000

> <Gold.Chemscore.Metal.Weighted>
-0.0000

> <Gold.Chemscore.Lipo.Weighted>
-14.2336

> <Gold.Chemscore.Internal_Hbond.Weighted>
0.0000

> <Gold.Chemscore.DEClash.Weighted>
0.2865

> <Gold.Chemscore.DEInternal.Weighted>
1.7913

> <Gold.Chemscore.Rot.Weighted>
3.8057

> <Gold.Chemscore.Internal.Correction.Weighted>
   9.000000E+99

> <Gold.Protein.RotatedTorsions>
[ 6907 6896 6895 6894 ] final  172.44 input  -60.11 | X-H torsion
[ 7974 7965 7964 7962 ] final   44.73 input  175.53 | X-H torsion
[ 8008 7997 7996 7995 ] final  -16.47 input   59.86 | X-H torsion
[ 10167 10162 10161 10158 ] final  165.22 input  -65.29 | X-H torsion
[ 10718 10713 10712 10709 ] final   -8.59 input   66.30 | X-H torsion
[ 10763 10752 10751 10750 ] final  -85.34 input  -60.55 | X-H torsion
[ 11005 11000 10999 10996 ] final   31.16 input  -57.11 | X-H torsion

> <Gold.Protein.ActiveResidues>
 VAL166  LYS551  ARG553  GLY616  TRP617  ASP618  TYR619  PRO620  LYS621  CYS622 
 ASP623  PHE694  ASN695  SER759  ASP760  ASP761  ALA762  ILE779  LEU786  VAL792 
 PHE793  MET794  SER795  GLU796  ALA797  LYS798  CYS799  TRP800  GLU811  SER814 

> <Gold.Protein.RotatedAtoms>
  151.7843  133.3353  159.3480 H   0  0  0  0  0  0  0  0  0  0  0  0  # atno 6907 bound_to 6896
  150.7415  134.5902  159.5993 H   0  0  0  0  0  0  0  0  0  0  0  0  # atno 6908 bound_to 6896
  152.3255  134.7328  160.0354 H   0  0  0  0  0  0  0  0  0  0  0  0  # atno 6909 bound_to 6896
  146.0542  139.5042  142.9699 H   0  0  0  0  0  0  0  0  0  0  0  0  # atno 7974 bound_to 7965
  154.5050  140.2168  155.9268 H   0  0  0  0  0  0  0  0  0  0  0  0  # atno 8008 bound_to 7997
  156.1483  140.3166  155.8572 H   0  0  0  0  0  0  0  0  0  0  0  0  # atno 8009 bound_to 7997
  155.3989  140.0483  157.3028 H   0  0  0  0  0  0  0  0  0  0  0  0  # atno 8010 bound_to 7997
  139.4902  144.4155  151.9249 H   0  0  0  0  0  0  0  0  0  0  0  0  # atno 10167 bound_to 10162
  156.7004  130.5092  149.5918 H   0  0  0  0  0  0  0  0  0  0  0  0  # atno 10718 bound_to 10713
  154.6099  135.5488  153.7463 H   0  0  0  0  0  0  0  0  0  0  0  0  # atno 10763 bound_to 10752
  153.0191  135.6387  154.1593 H   0  0  0  0  0  0  0  0  0  0  0  0  # atno 10764 bound_to 10752
  154.1530  135.2901  155.3110 H   0  0  0  0  0  0  0  0  0  0  0  0  # atno 10765 bound_to 10752
  140.2868  134.2910  155.7786 H   0  0  0  0  0  0  0  0  0  0  0  0  # atno 11005 bound_to 11000
  145.6672  141.0226  143.1677 LP  0  0  0  0  0  0  0  0  0  0  0  0  # atno 17320 bound_to 7965
  144.7139  139.8268  143.7405 LP  0  0  0  0  0  0  0  0  0  0  0  0  # atno 17321 bound_to 7965
  140.3597  144.2988  150.5935 LP  0  0  0  0  0  0  0  0  0  0  0  0  # atno 17342 bound_to 10162
  140.5413  143.2223  151.8080 LP  0  0  0  0  0  0  0  0  0  0  0  0  # atno 17343 bound_to 10162
  156.1733  130.6451  151.0863 LP  0  0  0  0  0  0  0  0  0  0  0  0  # atno 17370 bound_to 10713
  157.6975  131.0788  150.6924 LP  0  0  0  0  0  0  0  0  0  0  0  0  # atno 17371 bound_to 10713
  141.2153  133.7560  156.9564 LP  0  0  0  0  0  0  0  0  0  0  0  0  # atno 17394 bound_to 11000
  140.1232  134.9403  157.2233 LP  0  0  0  0  0  0  0  0  0  0  0  0  # atno 17395 bound_to 11000

$$$$
