AV-unprocessed.smi:3032|AV-procd|sdf|11568|dock10
  -GOLD-   2272016533D 1   1.00000     0.00000
 Structure written by MMmdl.
 37 38  0  0  0  0  0  0  0  0  1 V2000
  152.0284  140.8961  157.2786 C   0  0  0  0  0  0  0  0  0  0  0  0
  151.1690  139.9535  156.4241 C   0  0  1  0  0  0  0  0  0  0  0  0
  150.1432  140.7367  155.5842 C   0  0  0  0  0  0  0  0  0  0  0  0
  149.2777  139.7982  154.7301 C   0  0  0  0  0  0  0  0  0  0  0  0
  150.1443  138.9057  153.8231 C   0  0  0  0  0  0  0  0  0  0  0  0
  151.2398  138.1254  154.5867 C   0  0  2  0  0  0  0  0  0  0  0  0
  150.6901  136.8937  155.3311 C   0  0  0  0  0  0  0  0  0  0  0  0
  150.9710  136.6885  156.5117 O   0  0  0  0  0  0  0  0  0  0  0  0
  149.9026  136.0718  154.6192 N   0  0  0  0  0  0  0  0  0  0  0  0
  149.2996  134.8434  155.1232 C   0  0  0  0  0  0  0  0  0  0  0  0
  149.7088  133.6262  154.2781 C   0  0  0  0  0  0  0  0  0  0  0  0
  148.5593  133.0385  153.5272 C   0  0  0  0  0  0  0  0  0  0  0  0
  148.0947  131.7941  153.6931 N   0  0  0  0  0  0  0  0  0  0  0  0
  147.0254  131.6761  152.8189 N   0  0  0  0  0  0  0  0  0  0  0  0
  146.9462  132.8626  152.2142 C   0  0  0  0  0  0  0  0  0  0  0  0
  147.8698  133.7431  152.6170 N   0  0  0  0  0  0  0  0  0  0  0  0
  152.0462  139.0672  155.5127 C   0  0  0  0  0  0  0  0  0  0  0  0
  148.0111  134.6951  152.3121 H   0  0  0  0  0  0  0  0  0  0  0  0
  152.6068  141.5800  156.6566 H   0  0  0  0  0  0  0  0  0  0  0  0
  152.7290  140.3349  157.8975 H   0  0  0  0  0  0  0  0  0  0  0  0
  151.4085  141.4958  157.9455 H   0  0  0  0  0  0  0  0  0  0  0  0
  150.6211  139.3118  157.1140 H   0  0  0  0  0  0  0  0  0  0  0  0
  149.5015  141.3302  156.2364 H   0  0  0  0  0  0  0  0  0  0  0  0
  150.6612  141.4437  154.9347 H   0  0  0  0  0  0  0  0  0  0  0  0
  148.6499  139.1860  155.3771 H   0  0  0  0  0  0  0  0  0  0  0  0
  148.5934  140.3861  154.1180 H   0  0  0  0  0  0  0  0  0  0  0  0
  149.5055  138.2164  153.2694 H   0  0  0  0  0  0  0  0  0  0  0  0
  150.6235  139.5334  153.0705 H   0  0  0  0  0  0  0  0  0  0  0  0
  151.9361  137.7469  153.8363 H   0  0  0  0  0  0  0  0  0  0  0  0
  149.7153  136.3114  153.6564 H   0  0  0  0  0  0  0  0  0  0  0  0
  149.5707  134.6931  156.1697 H   0  0  0  0  0  0  0  0  0  0  0  0
  148.2165  134.9644  155.0979 H   0  0  0  0  0  0  0  0  0  0  0  0
  150.4878  133.9075  153.5682 H   0  0  0  0  0  0  0  0  0  0  0  0
  150.1355  132.8499  154.9145 H   0  0  0  0  0  0  0  0  0  0  0  0
  146.2012  133.0921  151.4667 H   0  0  0  0  0  0  0  0  0  0  0  0
  152.6733  139.7089  154.8924 H   0  0  0  0  0  0  0  0  0  0  0  0
  152.7369  138.4834  156.1233 H   0  0  0  0  0  0  0  0  0  0  0  0
  1  2  1  0  0  0  0
  1 19  1  0  0  0  0
  1 20  1  0  0  0  0
  1 21  1  0  0  0  0
  2 17  1  0  0  0  0
  2  3  1  0  0  0  0
  2 22  1  0  0  0  0
  3  4  1  0  0  0  0
  3 23  1  0  0  0  0
  3 24  1  0  0  0  0
  4  5  1  0  0  0  0
  4 25  1  0  0  0  0
  4 26  1  0  0  0  0
  5  6  1  0  0  0  0
  5 27  1  0  0  0  0
  5 28  1  0  0  0  0
  6  7  1  0  0  0  0
  6 17  1  0  0  0  0
  6 29  1  0  0  0  0
  7  8  2  0  0  0  0
  7  9  1  0  0  0  0
  9 10  1  0  0  0  0
  9 30  1  0  0  0  0
 10 11  1  0  0  0  0
 10 31  1  0  0  0  0
 10 32  1  0  0  0  0
 11 12  1  0  0  0  0
 11 33  1  0  0  0  0
 11 34  1  0  0  0  0
 12 16  1  0  0  0  0
 12 13  2  0  0  0  0
 13 14  1  0  0  0  0
 14 15  2  0  0  0  0
 15 16  1  0  0  0  0
 15 35  1  0  0  0  0
 16 18  1  0  0  0  0
 17 36  1  0  0  0  0
 17 37  1  0  0  0  0
M  END
> <s_m_source_file>
AV-unprocessed.smi

> <i_m_source_file_index>
3032

> <i_lp_mmshare_version>
43012

> <i_f3d_flags>
0

> <s_epik_input>
W0NIM11bQ0BASF0xW0NIMl1bQ0gyXVtDSDJdW0NASF0oW0NIMl0xKUMoPU8pW05IXVtDSDJdW0NIMl1jMm5uW2NIXVtuSF0y

> <s_epik_cmdline>
J2VwaWtfcHl0aG9uJywgJy1waCcsICc3LjAnLCAnLXRuJywgJzgnLCAnLW1hJywgJzIwMCcsICctbWV0YWxfYmluZGluZycsICctaW1hZScsICc8aW5maWxlLm1hZT4nLCAnLW9tYWUnLCAnPG91dGZpbGUubWFlPic=

> <r_lp_tautomer_probability>
0.0517155

> <r_epik_Ionization_Penalty>
0.00149837

> <r_epik_Ionization_Penalty_Charging>
0

> <r_epik_Ionization_Penalty_Neutral>
0.00149837

> <r_epik_State_Penalty>
2.1109

> <r_epik_Charging_Adjusted_Penalty>
2.1109

> <i_epik_Tot_Q>
0

> <i_epik_Tot_abs_Q>
0

> <r_epik_Metal_State_Penalty>
2.23635

> <b_epik_Metal_Only>
0

> <s_lp_Force_Field>
OPLS_2005

> <r_lp_Energy>
9.23597

> <b_lp_Chiralities_Consistent>
1

> <s_lp_Variant>
AV-unprocessed.smi:3032-12

> <Gold.Version>
5.8.1

> <Gold.Id.Protein>
6NUR|6NUR_protein|mol2

> <Gold.PLP.Fitness>
34.0260

> <Gold.PLP.PLP>
-28.9697

> <Gold.PLP.part.hbond>
-2.0000

> <Gold.PLP.part.metal>
0.0000

> <Gold.PLP.part.buried>
-2.7525

> <Gold.PLP.part.nonpolar>
-24.0284

> <Gold.PLP.part.repulsive>
0.2317

> <Gold.PLP.ligand.clash>
0.0000

> <Gold.PLP.ligand.torsion>
0.4964

> <Gold.PLP.Chemscore.Hbond>
2.0000

> <Gold.PLP.Chemscore.CHOScore>
0.0000

> <Gold.PLP.Chemscore.Metal>
0.0000

> <Gold.Chemscore.Hbonds>
donor molecule, donor type, donor heavy atom, donor atom, acceptor molecule, acceptor atom, score
      L1  H     9    30       P1  7948  1.00
      L1  H    16    18       P1  7948  1.00

> <Gold.PLP.Chemscore.Internal.Correction>
0.0491

> <Gold.Rescore>
     Score         DG    S(hbond)    S(metal)    S(lipo)     H(rot)  DE(clash)    DE(int)     intcor
     11.31     -11.76       1.69        0.00      54.81       2.25       0.00       0.45       ----

> <Gold.Chemscore.Fitness>
11.3112

> <Gold.Chemscore.DG>
-11.7621

> <Gold.Chemscore.ZeroCoef>
-5.4800

> <Gold.Chemscore.Hbond>
1.6856

> <Gold.Chemscore.Metal>
0.0000

> <Gold.Chemscore.Lipo>
54.8071

> <Gold.Chemscore.Internal_Hbond>
0.0000

> <Gold.Chemscore.DEClash>
0.0021

> <Gold.Chemscore.DEInternal>
0.4487

> <Gold.Chemscore.Rot>
2.2501

> <Gold.Chemscore.Internal.Correction>
   9.000000E+99

> <Gold.Chemscore.Hbonds>
donor molecule, donor type, donor heavy atom, donor atom, acceptor molecule, acceptor atom, score
      L1  H     9    30       P1  7948  0.39
      L1  H    16    18       P1  7948  0.44

> <Gold.Chemscore.Hbond.Weighted>
-5.6300

> <Gold.Chemscore.Metal.Weighted>
-0.0000

> <Gold.Chemscore.Lipo.Weighted>
-6.4124

> <Gold.Chemscore.Internal_Hbond.Weighted>
0.0000

> <Gold.Chemscore.DEClash.Weighted>
0.0021

> <Gold.Chemscore.DEInternal.Weighted>
0.4487

> <Gold.Chemscore.Rot.Weighted>
5.7603

> <Gold.Chemscore.Internal.Correction.Weighted>
   9.000000E+99

> <Gold.Protein.RotatedTorsions>
[ 6907 6896 6895 6894 ] final -125.37 input  -60.11 | X-H torsion
[ 7974 7965 7964 7962 ] final  130.77 input  175.53 | X-H torsion
[ 8008 7997 7996 7995 ] final  123.61 input   59.86 | X-H torsion
[ 10167 10162 10161 10158 ] final  114.08 input  -65.29 | X-H torsion
[ 10718 10713 10712 10709 ] final -178.64 input   66.30 | X-H torsion
[ 10763 10752 10751 10750 ] final   69.34 input  -60.55 | X-H torsion
[ 11005 11000 10999 10996 ] final   14.21 input  -57.11 | X-H torsion

> <Gold.Protein.ActiveResidues>
 VAL166  LYS551  ARG553  GLY616  TRP617  ASP618  TYR619  PRO620  LYS621  CYS622 
 ASP623  PHE694  ASN695  SER759  ASP760  ASP761  ALA762  ILE779  LEU786  VAL792 
 PHE793  MET794  SER795  GLU796  ALA797  LYS798  CYS799  TRP800  GLU811  SER814 

> <Gold.Protein.RotatedAtoms>
  150.8861  133.7306  159.2917 H   0  0  0  0  0  0  0  0  0  0  0  0  # atno 6907 bound_to 6896
  151.4871  135.1054  159.9803 H   0  0  0  0  0  0  0  0  0  0  0  0  # atno 6908 bound_to 6896
  152.4791  133.8163  159.7085 H   0  0  0  0  0  0  0  0  0  0  0  0  # atno 6909 bound_to 6896
  145.0143  139.4190  143.5229 H   0  0  0  0  0  0  0  0  0  0  0  0  # atno 7974 bound_to 7965
  156.2772  140.2759  156.1655 H   0  0  0  0  0  0  0  0  0  0  0  0  # atno 8008 bound_to 7997
  155.0709  140.0387  157.2626 H   0  0  0  0  0  0  0  0  0  0  0  0  # atno 8009 bound_to 7997
  154.7041  140.2655  155.6697 H   0  0  0  0  0  0  0  0  0  0  0  0  # atno 8010 bound_to 7997
  139.6414  144.7124  151.2229 H   0  0  0  0  0  0  0  0  0  0  0  0  # atno 10167 bound_to 10162
  156.8473  130.9707  151.3095 H   0  0  0  0  0  0  0  0  0  0  0  0  # atno 10718 bound_to 10713
  153.0282  135.5214  154.7273 H   0  0  0  0  0  0  0  0  0  0  0  0  # atno 10763 bound_to 10752
  154.6311  135.2900  155.0217 H   0  0  0  0  0  0  0  0  0  0  0  0  # atno 10764 bound_to 10752
  154.1169  135.6613  153.4948 H   0  0  0  0  0  0  0  0  0  0  0  0  # atno 10765 bound_to 10752
  140.4721  134.1021  155.7734 H   0  0  0  0  0  0  0  0  0  0  0  0  # atno 11005 bound_to 11000
  146.3475  139.9605  142.8718 LP  0  0  0  0  0  0  0  0  0  0  0  0  # atno 17320 bound_to 7965
  145.1980  140.9842  143.4172 LP  0  0  0  0  0  0  0  0  0  0  0  0  # atno 17321 bound_to 7965
  140.7493  143.6305  150.8428 LP  0  0  0  0  0  0  0  0  0  0  0  0  # atno 17342 bound_to 10162
  139.9942  143.5813  152.2899 LP  0  0  0  0  0  0  0  0  0  0  0  0  # atno 17343 bound_to 10162
  157.6323  130.8739  149.9296 LP  0  0  0  0  0  0  0  0  0  0  0  0  # atno 17370 bound_to 10713
  156.0848  130.3669  150.0510 LP  0  0  0  0  0  0  0  0  0  0  0  0  # atno 17371 bound_to 10713
  141.1572  133.8860  157.1945 LP  0  0  0  0  0  0  0  0  0  0  0  0  # atno 17394 bound_to 11000
  139.9879  135.0075  156.9906 LP  0  0  0  0  0  0  0  0  0  0  0  0  # atno 17395 bound_to 11000

$$$$
