AV-unprocessed.smi:2617|AV-procd|sdf|10217|dock1
  -GOLD-   2272014223D 1   1.00000     0.00000
 Structure written by MMmdl.
 35 35  0  0  0  0  0  0  0  0  1 V2000
  154.3055  141.5943  160.3918 C   0  0  0  0  0  0  0  0  0  0  0  0
  153.5823  142.5627  159.4509 C   0  0  0  0  0  0  0  0  0  0  0  0
  152.0658  142.3108  159.4052 C   0  0  0  0  0  0  0  0  0  0  0  0
  151.6362  141.7147  158.1558 N   0  0  0  0  0  0  0  0  0  0  0  0
  150.6119  142.2355  157.3602 C   0  0  0  0  0  0  0  0  0  0  0  0
  149.9538  143.3741  157.8008 N   0  0  0  0  0  0  0  0  0  0  0  0
  150.2281  141.6431  156.1930 C   0  0  0  0  0  0  0  0  0  0  0  0
  149.2119  142.1742  155.4049 N   0  0  0  0  0  0  0  0  0  0  0  0
  148.7211  141.6305  154.1468 C   0  0  0  0  0  0  0  0  0  0  0  0
  147.1946  141.7314  154.0596 C   0  0  0  0  0  0  0  0  0  0  0  0
  146.8183  143.0985  154.0962 O   0  0  0  0  0  0  0  0  0  0  0  0
  145.4138  143.2743  154.1497 C   0  0  0  0  0  0  0  0  0  0  0  0
  150.9090  140.4285  155.7210 C   0  0  0  0  0  0  0  0  0  0  0  0
  150.6874  139.8367  154.6651 O   0  0  0  0  0  0  0  0  0  0  0  0
  151.8980  139.9414  156.5726 N   0  0  0  0  0  0  0  0  0  0  0  0
  152.2858  140.5163  157.7773 C   0  0  0  0  0  0  0  0  0  0  0  0
  153.1618  139.9739  158.4519 O   0  0  0  0  0  0  0  0  0  0  0  0
  152.3744  139.0975  156.2897 H   0  0  0  0  0  0  0  0  0  0  0  0
  155.3773  141.7928  160.4048 H   0  0  0  0  0  0  0  0  0  0  0  0
  154.1620  140.5601  160.0779 H   0  0  0  0  0  0  0  0  0  0  0  0
  153.9365  141.6902  161.4133 H   0  0  0  0  0  0  0  0  0  0  0  0
  153.7791  143.5861  159.7717 H   0  0  0  0  0  0  0  0  0  0  0  0
  154.0005  142.4685  158.4481 H   0  0  0  0  0  0  0  0  0  0  0  0
  151.7471  141.6409  160.2033 H   0  0  0  0  0  0  0  0  0  0  0  0
  151.4920  143.2264  159.5598 H   0  0  0  0  0  0  0  0  0  0  0  0
  150.2027  143.8199  158.6719 H   0  0  0  0  0  0  0  0  0  0  0  0
  149.3620  143.9096  157.1825 H   0  0  0  0  0  0  0  0  0  0  0  0
  148.4839  142.6360  155.9302 H   0  0  0  0  0  0  0  0  0  0  0  0
  149.1780  142.1952  153.3339 H   0  0  0  0  0  0  0  0  0  0  0  0
  149.0220  140.5900  154.0205 H   0  0  0  0  0  0  0  0  0  0  0  0
  146.8303  141.2525  153.1492 H   0  0  0  0  0  0  0  0  0  0  0  0
  146.7456  141.2094  154.9058 H   0  0  0  0  0  0  0  0  0  0  0  0
  145.1787  144.3381  154.1781 H   0  0  0  0  0  0  0  0  0  0  0  0
  144.9921  142.8117  155.0429 H   0  0  0  0  0  0  0  0  0  0  0  0
  144.9295  142.8461  153.2711 H   0  0  0  0  0  0  0  0  0  0  0  0
  1  2  1  0  0  0  0
  1 19  1  0  0  0  0
  1 20  1  0  0  0  0
  1 21  1  0  0  0  0
  2  3  1  0  0  0  0
  2 22  1  0  0  0  0
  2 23  1  0  0  0  0
  3  4  1  0  0  0  0
  3 24  1  0  0  0  0
  3 25  1  0  0  0  0
  4 16  1  0  0  0  0
  4  5  1  0  0  0  0
  5  6  1  0  0  0  0
  5  7  2  0  0  0  0
  6 26  1  0  0  0  0
  6 27  1  0  0  0  0
  7  8  1  0  0  0  0
  7 13  1  0  0  0  0
  8  9  1  0  0  0  0
  8 28  1  0  0  0  0
  9 10  1  0  0  0  0
  9 29  1  0  0  0  0
  9 30  1  0  0  0  0
 10 11  1  0  0  0  0
 10 31  1  0  0  0  0
 10 32  1  0  0  0  0
 11 12  1  0  0  0  0
 12 33  1  0  0  0  0
 12 34  1  0  0  0  0
 12 35  1  0  0  0  0
 13 14  2  0  0  0  0
 13 15  1  0  0  0  0
 15 18  1  0  0  0  0
 15 16  1  0  0  0  0
 16 17  2  0  0  0  0
M  END
> <s_m_source_file>
AV-unprocessed.smi

> <i_m_source_file_index>
2617

> <i_lp_mmshare_version>
43012

> <i_f3d_flags>
0

> <s_epik_input>
W0NIM11bQ0gyXVtDSDJdbjFjKFtOSDJdKWMoYyg9TylbbkhdYzE9TylbTkhdW0NIMl1bQ0gyXU9bQ0gzXQ==

> <s_epik_cmdline>
J2VwaWtfcHl0aG9uJywgJy1waCcsICc3LjAnLCAnLXRuJywgJzgnLCAnLW1hJywgJzIwMCcsICctbWV0YWxfYmluZGluZycsICctaW1hZScsICc8aW5maWxlLm1hZT4nLCAnLW9tYWUnLCAnPG91dGZpbGUubWFlPic=

> <r_lp_tautomer_probability>
1

> <r_epik_Ionization_Penalty>
1.06398e-05

> <r_epik_Ionization_Penalty_Charging>
2.62604e-06

> <r_epik_Ionization_Penalty_Neutral>
8.01376e-06

> <r_epik_State_Penalty>
-0

> <r_epik_Charging_Adjusted_Penalty>
2.62604e-06

> <i_epik_Tot_Q>
0

> <i_epik_Tot_abs_Q>
0

> <r_epik_Metal_State_Penalty>
-0

> <b_epik_Metal_Only>
0

> <s_epik_Chemistry_Notes>
This compound has an imine and may undergo hydrolysis.

> <s_lp_Force_Field>
OPLS_2005

> <r_lp_Energy>
15.6594

> <b_lp_Chiralities_Consistent>
1

> <s_lp_Variant>
AV-unprocessed.smi:2617-1

> <Gold.Version>
5.8.1

> <Gold.Id.Protein>
6NUR|6NUR_protein|mol2

> <Gold.PLP.Fitness>
44.0296

> <Gold.PLP.PLP>
-35.5751

> <Gold.PLP.part.hbond>
-5.1121

> <Gold.PLP.part.metal>
0.0000

> <Gold.PLP.part.buried>
-2.7841

> <Gold.PLP.part.nonpolar>
-28.7440

> <Gold.PLP.part.repulsive>
1.6316

> <Gold.PLP.ligand.clash>
1.3886

> <Gold.PLP.ligand.torsion>
0.5233

> <Gold.PLP.Chemscore.Hbond>
3.1409

> <Gold.PLP.Chemscore.CHOScore>
0.0000

> <Gold.PLP.Chemscore.Metal>
0.0000

> <Gold.Chemscore.Hbonds>
donor molecule, donor type, donor heavy atom, donor atom, acceptor molecule, acceptor atom, score
      L1  H     6    27       P1  8028  1.00
      L1  H     8    28       P1  8028  0.07
      P1  H  7989  7998       L1    14  1.00
      P1  H  7997  8009       L1    17  0.95

> <Gold.PLP.Chemscore.Internal.Correction>
1.4670

> <Gold.Rescore>
     Score         DG    S(hbond)    S(metal)    S(lipo)     H(rot)  DE(clash)    DE(int)     intcor
      6.13     -11.10       1.29        0.00      58.87       2.17       0.39       4.58       ----

> <Gold.Chemscore.Fitness>
6.1314

> <Gold.Chemscore.DG>
-11.1042

> <Gold.Chemscore.ZeroCoef>
-5.4800

> <Gold.Chemscore.Hbond>
1.2872

> <Gold.Chemscore.Metal>
0.0000

> <Gold.Chemscore.Lipo>
58.8703

> <Gold.Chemscore.Internal_Hbond>
0.0000

> <Gold.Chemscore.DEClash>
0.3948

> <Gold.Chemscore.DEInternal>
4.5781

> <Gold.Chemscore.Rot>
2.1730

> <Gold.Chemscore.Internal.Correction>
   9.000000E+99

> <Gold.Chemscore.Hbonds>
donor molecule, donor type, donor heavy atom, donor atom, acceptor molecule, acceptor atom, score
      L1  H     6    27       P1  8028  0.44
      L1  H     8    28       P1  8028  0.09
      P1  H  7989  7998       L1    14  0.30
      P1  H  7997  8009       L1    17  0.20
      P1  H  8022  8030       L1    11  0.02

> <Gold.Chemscore.Hbond.Weighted>
-4.2991

> <Gold.Chemscore.Metal.Weighted>
-0.0000

> <Gold.Chemscore.Lipo.Weighted>
-6.8878

> <Gold.Chemscore.Internal_Hbond.Weighted>
0.0000

> <Gold.Chemscore.DEClash.Weighted>
0.3948

> <Gold.Chemscore.DEInternal.Weighted>
4.5781

> <Gold.Chemscore.Rot.Weighted>
5.5628

> <Gold.Chemscore.Internal.Correction.Weighted>
   9.000000E+99

> <Gold.Protein.RotatedTorsions>
[ 6907 6896 6895 6894 ] final    9.40 input  -60.11 | X-H torsion
[ 7974 7965 7964 7962 ] final  -61.26 input  175.53 | X-H torsion
[ 8008 7997 7996 7995 ] final  147.05 input   59.86 | X-H torsion
[ 10167 10162 10161 10158 ] final -112.32 input  -65.29 | X-H torsion
[ 10718 10713 10712 10709 ] final  153.86 input   66.30 | X-H torsion
[ 10763 10752 10751 10750 ] final   30.94 input  -60.55 | X-H torsion
[ 11005 11000 10999 10996 ] final   51.39 input  -57.11 | X-H torsion

> <Gold.Protein.ActiveResidues>
 VAL166  LYS551  ARG553  GLY616  TRP617  ASP618  TYR619  PRO620  LYS621  CYS622 
 ASP623  PHE694  ASN695  SER759  ASP760  ASP761  ALA762  ILE779  LEU786  VAL792 
 PHE793  MET794  SER795  GLU796  ALA797  LYS798  CYS799  TRP800  GLU811  SER814 

> <Gold.Protein.RotatedAtoms>
  151.7215  135.0893  160.0284 H   0  0  0  0  0  0  0  0  0  0  0  0  # atno 6907 bound_to 6896
  152.3599  133.6279  159.6015 H   0  0  0  0  0  0  0  0  0  0  0  0  # atno 6908 bound_to 6896
  150.7597  133.9357  159.3482 H   0  0  0  0  0  0  0  0  0  0  0  0  # atno 6909 bound_to 6896
  145.8056  140.8629  143.0208 H   0  0  0  0  0  0  0  0  0  0  0  0  # atno 7974 bound_to 7965
  156.2837  140.2166  156.5475 H   0  0  0  0  0  0  0  0  0  0  0  0  # atno 8008 bound_to 7997
  154.7319  140.0495  157.0756 H   0  0  0  0  0  0  0  0  0  0  0  0  # atno 8009 bound_to 7997
  155.0343  140.3138  155.4750 H   0  0  0  0  0  0  0  0  0  0  0  0  # atno 8010 bound_to 7997
  140.1240  143.4418  152.1672 H   0  0  0  0  0  0  0  0  0  0  0  0  # atno 10167 bound_to 10162
  157.2392  131.0755  151.1803 H   0  0  0  0  0  0  0  0  0  0  0  0  # atno 10718 bound_to 10713
  153.0343  135.6451  154.1122 H   0  0  0  0  0  0  0  0  0  0  0  0  # atno 10763 bound_to 10752
  154.0839  135.2871  155.3286 H   0  0  0  0  0  0  0  0  0  0  0  0  # atno 10764 bound_to 10752
  154.6511  135.5425  153.7967 H   0  0  0  0  0  0  0  0  0  0  0  0  # atno 10765 bound_to 10752
  140.0937  134.5175  155.8828 H   0  0  0  0  0  0  0  0  0  0  0  0  # atno 11005 bound_to 11000
  144.6763  140.0322  143.7482 LP  0  0  0  0  0  0  0  0  0  0  0  0  # atno 17320 bound_to 7965
  145.9831  139.2957  143.1030 LP  0  0  0  0  0  0  0  0  0  0  0  0  # atno 17321 bound_to 7965
  139.5554  144.7368  151.4311 LP  0  0  0  0  0  0  0  0  0  0  0  0  # atno 17342 bound_to 10162
  140.6855  143.7983  150.7181 LP  0  0  0  0  0  0  0  0  0  0  0  0  # atno 17343 bound_to 10162
  157.3397  130.7027  149.6374 LP  0  0  0  0  0  0  0  0  0  0  0  0  # atno 17370 bound_to 10713
  155.9671  130.4283  150.4784 LP  0  0  0  0  0  0  0  0  0  0  0  0  # atno 17371 bound_to 10713
  141.2085  133.6675  156.6379 LP  0  0  0  0  0  0  0  0  0  0  0  0  # atno 17394 bound_to 11000
  140.3316  134.7923  157.4331 LP  0  0  0  0  0  0  0  0  0  0  0  0  # atno 17395 bound_to 11000

$$$$
