AV-unprocessed.smi:778|AV-procd|sdf|3703|dock4
  -GOLD-   22720 1123D 1   1.00000     0.00000
 Structure written by MMmdl.
 40 41  0  0  0  0  0  0  0  0  1 V2000
  146.5949  142.2922  153.4107 N   0  0  0  0  0  0  0  0  0  0  0  0
  147.4830  141.6495  153.7804 C   0  0  0  0  0  0  0  0  0  0  0  0
  148.6012  140.8405  154.2458 C   0  0  0  0  0  0  0  0  0  0  0  0
  149.5390  141.3738  155.1561 C   0  0  0  0  0  0  0  0  0  0  0  0
  150.5868  140.6516  155.6081 N   0  0  0  0  0  0  0  0  0  0  0  0
  150.6911  139.4015  155.1499 C   0  0  0  0  0  0  0  0  0  0  0  0
  152.0656  138.4151  155.7197 S   0  0  0  0  0  0  0  0  0  0  0  0
  151.9966  138.6260  157.5258 C   0  0  0  0  0  0  0  0  0  0  0  0
  153.0418  139.6345  158.0095 C   0  0  0  0  0  0  0  0  0  0  0  0
  152.6019  140.9389  157.6626 O   0  0  0  0  0  0  0  0  0  0  0  0
  151.3837  141.3530  158.2701 C   0  0  0  0  0  0  0  0  0  0  0  0
  150.7588  142.6054  157.6148 C   0  0  0  0  0  0  0  0  0  0  0  0
  151.6891  143.8206  157.4814 C   0  0  0  0  0  0  0  0  0  0  0  0
  152.2670  144.3388  158.8083 C   0  0  0  0  0  0  0  0  0  0  0  0
  153.3746  143.4332  159.3666 C   0  0  0  0  0  0  0  0  0  0  0  0
  152.8954  142.2473  160.2233 C   0  0  0  0  0  0  0  0  0  0  0  0
  151.6037  141.5274  159.7845 C   0  0  0  0  0  0  0  0  0  0  0  0
  149.8734  138.7894  154.2904 N   0  0  0  0  0  0  0  0  0  0  0  0
  148.8217  139.5023  153.8316 C   0  0  0  0  0  0  0  0  0  0  0  0
  147.9767  138.8455  152.9351 N   0  0  0  0  0  0  0  0  0  0  0  0
  149.4523  142.3849  155.5272 H   0  0  0  0  0  0  0  0  0  0  0  0
  151.0000  138.9688  157.8052 H   0  0  0  0  0  0  0  0  0  0  0  0
  152.1595  137.6629  158.0108 H   0  0  0  0  0  0  0  0  0  0  0  0
  153.1741  139.5334  159.0866 H   0  0  0  0  0  0  0  0  0  0  0  0
  154.0036  139.4300  157.5372 H   0  0  0  0  0  0  0  0  0  0  0  0
  150.6600  140.5433  158.1607 H   0  0  0  0  0  0  0  0  0  0  0  0
  150.3862  142.3480  156.6236 H   0  0  0  0  0  0  0  0  0  0  0  0
  149.8723  142.8977  158.1786 H   0  0  0  0  0  0  0  0  0  0  0  0
  152.4988  143.5917  156.7874 H   0  0  0  0  0  0  0  0  0  0  0  0
  151.1234  144.6272  157.0140 H   0  0  0  0  0  0  0  0  0  0  0  0
  152.7019  145.3203  158.6169 H   0  0  0  0  0  0  0  0  0  0  0  0
  151.4806  144.4995  159.5466 H   0  0  0  0  0  0  0  0  0  0  0  0
  153.9910  143.0673  158.5445 H   0  0  0  0  0  0  0  0  0  0  0  0
  154.0480  144.0351  159.9778 H   0  0  0  0  0  0  0  0  0  0  0  0
  153.7066  141.5198  160.2686 H   0  0  0  0  0  0  0  0  0  0  0  0
  152.7562  142.5870  161.2501 H   0  0  0  0  0  0  0  0  0  0  0  0
  150.7425  142.0429  160.2110 H   0  0  0  0  0  0  0  0  0  0  0  0
  151.6026  140.5421  160.2522 H   0  0  0  0  0  0  0  0  0  0  0  0
  147.1661  139.3007  152.5409 H   0  0  0  0  0  0  0  0  0  0  0  0
  148.1436  137.8875  152.6622 H   0  0  0  0  0  0  0  0  0  0  0  0
  1  2  3  0  0  0  0
  2  3  1  0  0  0  0
  3 19  1  0  0  0  0
  3  4  2  0  0  0  0
  4  5  1  0  0  0  0
  4 21  1  0  0  0  0
  5  6  2  0  0  0  0
  6  7  1  0  0  0  0
  6 18  1  0  0  0  0
  7  8  1  0  0  0  0
  8  9  1  0  0  0  0
  8 22  1  0  0  0  0
  8 23  1  0  0  0  0
  9 10  1  0  0  0  0
  9 24  1  0  0  0  0
  9 25  1  0  0  0  0
 10 11  1  0  0  0  0
 11 17  1  0  0  0  0
 11 12  1  0  0  0  0
 11 26  1  0  0  0  0
 12 13  1  0  0  0  0
 12 27  1  0  0  0  0
 12 28  1  0  0  0  0
 13 14  1  0  0  0  0
 13 29  1  0  0  0  0
 13 30  1  0  0  0  0
 14 15  1  0  0  0  0
 14 31  1  0  0  0  0
 14 32  1  0  0  0  0
 15 16  1  0  0  0  0
 15 33  1  0  0  0  0
 15 34  1  0  0  0  0
 16 17  1  0  0  0  0
 16 35  1  0  0  0  0
 16 36  1  0  0  0  0
 17 37  1  0  0  0  0
 17 38  1  0  0  0  0
 18 19  2  0  0  0  0
 19 20  1  0  0  0  0
 20 39  1  0  0  0  0
 20 40  1  0  0  0  0
M  END
> <s_m_source_file>
AV-unprocessed.smi

> <i_m_source_file_index>
778

> <i_lp_mmshare_version>
43012

> <i_f3d_flags>
0

> <s_epik_input>
TiNDYzFbY0hdbmMobmMxW05IMl0pU1tDSDJdW0NIMl1PW0NIXTJbQ0gyXVtDSDJdW0NIMl1bQ0gyXVtDSDJdW0NIMl0y

> <s_epik_cmdline>
J2VwaWtfcHl0aG9uJywgJy1waCcsICc3LjAnLCAnLXRuJywgJzgnLCAnLW1hJywgJzIwMCcsICctbWV0YWxfYmluZGluZycsICctaW1hZScsICc8aW5maWxlLm1hZT4nLCAnLW9tYWUnLCAnPG91dGZpbGUubWFlPic=

> <r_lp_tautomer_probability>
1

> <r_epik_Ionization_Penalty>
5.1519e-05

> <r_epik_Ionization_Penalty_Charging>
0

> <r_epik_Ionization_Penalty_Neutral>
5.1519e-05

> <r_epik_State_Penalty>
-0

> <r_epik_Charging_Adjusted_Penalty>
0

> <i_epik_Tot_Q>
0

> <i_epik_Tot_abs_Q>
0

> <r_epik_Metal_State_Penalty>
-0

> <b_epik_Metal_Only>
0

> <s_lp_Force_Field>
OPLS_2005

> <r_lp_Energy>
14.4265

> <b_lp_Chiralities_Consistent>
1

> <s_lp_Variant>
AV-unprocessed.smi:778-1

> <Gold.Version>
5.8.1

> <Gold.Id.Protein>
6NUR|6NUR_protein|mol2

> <Gold.PLP.Fitness>
39.8473

> <Gold.PLP.PLP>
-34.8555

> <Gold.PLP.part.hbond>
-3.0000

> <Gold.PLP.part.metal>
0.0000

> <Gold.PLP.part.buried>
3.5707

> <Gold.PLP.part.nonpolar>
-34.9538

> <Gold.PLP.part.repulsive>
0.4886

> <Gold.PLP.ligand.clash>
0.0000

> <Gold.PLP.ligand.torsion>
0.5104

> <Gold.PLP.Chemscore.Hbond>
1.0000

> <Gold.PLP.Chemscore.CHOScore>
1.0000

> <Gold.PLP.Chemscore.Metal>
0.0000

> <Gold.Chemscore.Hbonds>
donor molecule, donor type, donor heavy atom, donor atom, acceptor molecule, acceptor atom, score
      L1  H    20    40       P1  7948  1.00
      L1  C     4    21       P1  8028  1.00

> <Gold.PLP.Chemscore.Internal.Correction>
0.0125

> <Gold.Rescore>
     Score         DG    S(hbond)    S(metal)    S(lipo)     H(rot)  DE(clash)    DE(int)     intcor
     10.67     -15.00       0.96        0.00     103.39       2.26       2.74       1.59       ----

> <Gold.Chemscore.Fitness>
10.6746

> <Gold.Chemscore.DG>
-15.0030

> <Gold.Chemscore.ZeroCoef>
-5.4800

> <Gold.Chemscore.Hbond>
0.9588

> <Gold.Chemscore.Metal>
0.0000

> <Gold.Chemscore.Lipo>
103.3898

> <Gold.Chemscore.Internal_Hbond>
0.0000

> <Gold.Chemscore.DEClash>
2.7384

> <Gold.Chemscore.DEInternal>
1.5900

> <Gold.Chemscore.Rot>
2.2562

> <Gold.Chemscore.Internal.Correction>
   9.000000E+99

> <Gold.Chemscore.Hbonds>
donor molecule, donor type, donor heavy atom, donor atom, acceptor molecule, acceptor atom, score
      L1  H    20    40       P1  7948  0.97

> <Gold.Chemscore.Hbond.Weighted>
-3.2023

> <Gold.Chemscore.Metal.Weighted>
-0.0000

> <Gold.Chemscore.Lipo.Weighted>
-12.0966

> <Gold.Chemscore.Internal_Hbond.Weighted>
0.0000

> <Gold.Chemscore.DEClash.Weighted>
2.7384

> <Gold.Chemscore.DEInternal.Weighted>
1.5900

> <Gold.Chemscore.Rot.Weighted>
5.7759

> <Gold.Chemscore.Internal.Correction.Weighted>
   9.000000E+99

> <Gold.Protein.RotatedTorsions>
[ 6907 6896 6895 6894 ] final  -55.61 input  -60.11 | X-H torsion
[ 7974 7965 7964 7962 ] final   28.81 input  175.53 | X-H torsion
[ 8008 7997 7996 7995 ] final -122.12 input   59.86 | X-H torsion
[ 10167 10162 10161 10158 ] final -123.97 input  -65.29 | X-H torsion
[ 10718 10713 10712 10709 ] final   10.56 input   66.30 | X-H torsion
[ 10763 10752 10751 10750 ] final -124.99 input  -60.55 | X-H torsion
[ 11005 11000 10999 10996 ] final  -58.27 input  -57.11 | X-H torsion

> <Gold.Protein.ActiveResidues>
 VAL166  LYS551  ARG553  GLY616  TRP617  ASP618  TYR619  PRO620  LYS621  CYS622 
 ASP623  PHE694  ASN695  SER759  ASP760  ASP761  ALA762  ILE779  LEU786  VAL792 
 PHE793  MET794  SER795  GLU796  ALA797  LYS798  CYS799  TRP800  GLU811  SER814 

> <Gold.Protein.RotatedAtoms>
  150.8237  134.7457  159.6793 H   0  0  0  0  0  0  0  0  0  0  0  0  # atno 6907 bound_to 6896
  152.4350  134.5701  159.9928 H   0  0  0  0  0  0  0  0  0  0  0  0  # atno 6908 bound_to 6896
  151.5879  133.3332  159.3057 H   0  0  0  0  0  0  0  0  0  0  0  0  # atno 6909 bound_to 6896
  146.1707  139.7005  142.8969 H   0  0  0  0  0  0  0  0  0  0  0  0  # atno 7974 bound_to 7965
  155.1590  140.0405  157.2838 H   0  0  0  0  0  0  0  0  0  0  0  0  # atno 8008 bound_to 7997
  154.6350  140.2533  155.7362 H   0  0  0  0  0  0  0  0  0  0  0  0  # atno 8009 bound_to 7997
  156.2504  140.2867  156.0718 H   0  0  0  0  0  0  0  0  0  0  0  0  # atno 8010 bound_to 7997
  139.9977  143.5573  152.2316 H   0  0  0  0  0  0  0  0  0  0  0  0  # atno 10167 bound_to 10162
  156.9828  130.6012  149.5678 H   0  0  0  0  0  0  0  0  0  0  0  0  # atno 10718 bound_to 10713
  154.8730  135.4045  154.3196 H   0  0  0  0  0  0  0  0  0  0  0  0  # atno 10763 bound_to 10752
  153.4026  135.7018  153.6420 H   0  0  0  0  0  0  0  0  0  0  0  0  # atno 10764 bound_to 10752
  153.5157  135.3698  155.2579 H   0  0  0  0  0  0  0  0  0  0  0  0  # atno 10765 bound_to 10752
  141.1200  133.6612  156.4895 H   0  0  0  0  0  0  0  0  0  0  0  0  # atno 11005 bound_to 11000
  145.4347  141.0418  143.2891 LP  0  0  0  0  0  0  0  0  0  0  0  0  # atno 17320 bound_to 7965
  144.8159  139.5877  143.7008 LP  0  0  0  0  0  0  0  0  0  0  0  0  # atno 17321 bound_to 7965
  139.6294  144.7642  151.2569 LP  0  0  0  0  0  0  0  0  0  0  0  0  # atno 17342 bound_to 10162
  140.7430  143.6507  150.8251 LP  0  0  0  0  0  0  0  0  0  0  0  0  # atno 17343 bound_to 10162
  156.0237  130.5332  150.8349 LP  0  0  0  0  0  0  0  0  0  0  0  0  # atno 17370 bound_to 10713
  157.5514  131.0944  150.9690 LP  0  0  0  0  0  0  0  0  0  0  0  0  # atno 17371 bound_to 10713
  140.4535  134.6907  157.5051 LP  0  0  0  0  0  0  0  0  0  0  0  0  # atno 17394 bound_to 11000
  140.0150  134.6632  155.9323 LP  0  0  0  0  0  0  0  0  0  0  0  0  # atno 17395 bound_to 11000

$$$$
