AV-unprocessed.smi:3228|AV-procd|sdf|12322|dock2
  -GOLD-   2272018173D 1   1.00000     0.00000
 Structure written by MMmdl.
 31 32  0  0  0  0  0  0  0  0  1 V2000
  144.5438  136.9257  152.2865 O   0  0  0  0  0  0  0  0  0  0  0  0
  145.7360  136.6631  152.1252 C   0  0  0  0  0  0  0  0  0  0  0  0
  146.7219  137.5463  152.3389 N   0  0  0  0  0  0  0  0  0  0  0  0
  146.5302  138.9247  152.7786 C   0  0  0  0  0  0  0  0  0  0  0  0
  147.8656  139.6148  153.1217 C   0  0  1  0  0  0  0  0  0  0  0  0
  147.7226  141.0978  153.5024 C   0  0  0  0  0  0  0  0  0  0  0  0
  148.8533  141.4057  154.4973 C   0  0  0  0  0  0  0  0  0  0  0  0
  149.5829  140.0810  154.7453 C   0  0  0  0  0  0  0  0  0  0  0  0
  148.5879  138.9990  154.3244 C   0  0  2  0  0  0  0  0  0  0  0  0
  149.2489  137.7946  153.9948 O   0  0  0  0  0  0  0  0  0  0  0  0
  146.2237  135.4774  151.7197 N   0  0  0  0  0  0  0  0  0  0  0  0
  145.5031  134.3059  151.3669 C   0  0  0  0  0  0  0  0  0  0  0  0
  144.1838  134.2685  151.1460 N   0  0  0  0  0  0  0  0  0  0  0  0
  143.7446  132.9858  150.8082 C   0  0  0  0  0  0  0  0  0  0  0  0
  144.7497  132.0514  150.7784 C   0  0  0  0  0  0  0  0  0  0  0  0
  146.2973  132.7498  151.1747 S   0  0  0  0  0  0  0  0  0  0  0  0
  147.6733  137.2462  152.1844 H   0  0  0  0  0  0  0  0  0  0  0  0
  146.0237  139.4662  151.9794 H   0  0  0  0  0  0  0  0  0  0  0  0
  145.8581  138.9496  153.6378 H   0  0  0  0  0  0  0  0  0  0  0  0
  148.5331  139.5551  152.2596 H   0  0  0  0  0  0  0  0  0  0  0  0
  147.7656  141.7412  152.6230 H   0  0  0  0  0  0  0  0  0  0  0  0
  146.7614  141.2764  153.9866 H   0  0  0  0  0  0  0  0  0  0  0  0
  149.5360  142.1639  154.1125 H   0  0  0  0  0  0  0  0  0  0  0  0
  148.4334  141.7874  155.4285 H   0  0  0  0  0  0  0  0  0  0  0  0
  150.4696  140.0389  154.1105 H   0  0  0  0  0  0  0  0  0  0  0  0
  149.9126  139.9690  155.7787 H   0  0  0  0  0  0  0  0  0  0  0  0
  147.8808  138.8152  155.1347 H   0  0  0  0  0  0  0  0  0  0  0  0
  148.9272  137.4931  153.1590 H   0  0  0  0  0  0  0  0  0  0  0  0
  147.2276  135.4077  151.6422 H   0  0  0  0  0  0  0  0  0  0  0  0
  142.6960  132.8271  150.6038 H   0  0  0  0  0  0  0  0  0  0  0  0
  144.6737  130.9992  150.5475 H   0  0  0  0  0  0  0  0  0  0  0  0
  1  2  2  0  0  0  0
  2  3  1  0  0  0  0
  2 11  1  0  0  0  0
  3  4  1  0  0  0  0
  3 17  1  0  0  0  0
  4  5  1  0  0  0  0
  4 18  1  0  0  0  0
  4 19  1  0  0  0  0
  5  9  1  0  0  0  0
  5  6  1  0  0  0  0
  5 20  1  0  0  0  0
  6  7  1  0  0  0  0
  6 21  1  0  0  0  0
  6 22  1  0  0  0  0
  7  8  1  0  0  0  0
  7 23  1  0  0  0  0
  7 24  1  0  0  0  0
  8  9  1  0  0  0  0
  8 25  1  0  0  0  0
  8 26  1  0  0  0  0
  9 10  1  0  0  0  0
  9 27  1  0  0  0  0
 10 28  1  0  0  0  0
 11 12  1  0  0  0  0
 11 29  1  0  0  0  0
 12 16  1  0  0  0  0
 12 13  2  0  0  0  0
 13 14  1  0  0  0  0
 14 15  2  0  0  0  0
 14 30  1  0  0  0  0
 15 16  1  0  0  0  0
 15 31  1  0  0  0  0
M  END
> <s_m_source_file>
AV-unprocessed.smi

> <i_m_source_file_index>
3228

> <i_lp_mmshare_version>
43012

> <i_f3d_flags>
0

> <s_epik_input>
czFbY0hdW2NIXW5jMVtOSF1DKD1PKVtOSF1bQ0gyXVtDQEBIXTJbQ0gyXVtDSDJdW0NIMl1bQ0BIXTJbT0hd

> <s_epik_cmdline>
J2VwaWtfcHl0aG9uJywgJy1waCcsICc3LjAnLCAnLXRuJywgJzgnLCAnLW1hJywgJzIwMCcsICctbWV0YWxfYmluZGluZycsICctaW1hZScsICc8aW5maWxlLm1hZT4nLCAnLW9tYWUnLCAnPG91dGZpbGUubWFlPic=

> <r_lp_tautomer_probability>
0.999

> <r_epik_Ionization_Penalty>
0.000399498

> <r_epik_Ionization_Penalty_Charging>
0

> <r_epik_Ionization_Penalty_Neutral>
0.000399498

> <r_epik_State_Penalty>
0.000177984

> <r_epik_Charging_Adjusted_Penalty>
0.000177984

> <i_epik_Tot_Q>
0

> <i_epik_Tot_abs_Q>
0

> <r_epik_Metal_State_Penalty>
0.0060793

> <b_epik_Metal_Only>
0

> <s_lp_Force_Field>
OPLS_2005

> <r_lp_Energy>
21.0821

> <b_lp_Chiralities_Consistent>
1

> <s_lp_Variant>
AV-unprocessed.smi:3228-4

> <Gold.Version>
5.8.1

> <Gold.Id.Protein>
6NUR|6NUR_protein|mol2

> <Gold.PLP.Fitness>
40.0727

> <Gold.PLP.PLP>
-28.3012

> <Gold.PLP.part.hbond>
-3.0000

> <Gold.PLP.part.metal>
0.0000

> <Gold.PLP.part.buried>
-1.6325

> <Gold.PLP.part.nonpolar>
-25.0729

> <Gold.PLP.part.repulsive>
1.0861

> <Gold.PLP.ligand.clash>
0.0000

> <Gold.PLP.ligand.torsion>
0.0789

> <Gold.PLP.Chemscore.Hbond>
2.9760

> <Gold.PLP.Chemscore.CHOScore>
1.0000

> <Gold.PLP.Chemscore.Metal>
0.0000

> <Gold.Chemscore.Hbonds>
donor molecule, donor type, donor heavy atom, donor atom, acceptor molecule, acceptor atom, score
      L1  H     3    17       P1  7948  1.00
      L1  H    10    28       P1  7948  0.96
      L1  H    11    29       P1  7948  1.00
      L1  C    14    30       P1 10186  0.95

> <Gold.PLP.Chemscore.Internal.Correction>
0.0012

> <Gold.Rescore>
     Score         DG    S(hbond)    S(metal)    S(lipo)     H(rot)  DE(clash)    DE(int)     intcor
     14.79     -18.18       2.90        0.00      66.90       1.88       1.45       1.94       ----

> <Gold.Chemscore.Fitness>
14.7860

> <Gold.Chemscore.DG>
-18.1756

> <Gold.Chemscore.ZeroCoef>
-5.4800

> <Gold.Chemscore.Hbond>
2.8976

> <Gold.Chemscore.Metal>
0.0000

> <Gold.Chemscore.Lipo>
66.8964

> <Gold.Chemscore.Internal_Hbond>
0.0000

> <Gold.Chemscore.DEClash>
1.4522

> <Gold.Chemscore.DEInternal>
1.9374

> <Gold.Chemscore.Rot>
1.8786

> <Gold.Chemscore.Internal.Correction>
   9.000000E+99

> <Gold.Chemscore.Hbonds>
donor molecule, donor type, donor heavy atom, donor atom, acceptor molecule, acceptor atom, score
      L1  H     3    17       P1  7948  0.99
      L1  H    10    28       P1  7948  0.92
      L1  H    11    29       P1  7948  0.92

> <Gold.Chemscore.Hbond.Weighted>
-9.6779

> <Gold.Chemscore.Metal.Weighted>
-0.0000

> <Gold.Chemscore.Lipo.Weighted>
-7.8269

> <Gold.Chemscore.Internal_Hbond.Weighted>
0.0000

> <Gold.Chemscore.DEClash.Weighted>
1.4522

> <Gold.Chemscore.DEInternal.Weighted>
1.9374

> <Gold.Chemscore.Rot.Weighted>
4.8091

> <Gold.Chemscore.Internal.Correction.Weighted>
   9.000000E+99

> <Gold.Protein.RotatedTorsions>
[ 6907 6896 6895 6894 ] final   20.01 input  -60.11 | X-H torsion
[ 7974 7965 7964 7962 ] final   32.40 input  175.53 | X-H torsion
[ 8008 7997 7996 7995 ] final   -3.26 input   59.86 | X-H torsion
[ 10167 10162 10161 10158 ] final  167.92 input  -65.29 | X-H torsion
[ 10718 10713 10712 10709 ] final   24.93 input   66.30 | X-H torsion
[ 10763 10752 10751 10750 ] final   -5.42 input  -60.55 | X-H torsion
[ 11005 11000 10999 10996 ] final  166.12 input  -57.11 | X-H torsion

> <Gold.Protein.ActiveResidues>
 VAL166  LYS551  ARG553  GLY616  TRP617  ASP618  TYR619  PRO620  LYS621  CYS622 
 ASP623  PHE694  ASN695  SER759  ASP760  ASP761  ALA762  ILE779  LEU786  VAL792 
 PHE793  MET794  SER795  GLU796  ALA797  LYS798  CYS799  TRP800  GLU811  SER814 

> <Gold.Protein.RotatedAtoms>
  151.8897  135.0421  160.0496 H   0  0  0  0  0  0  0  0  0  0  0  0  # atno 6907 bound_to 6896
  152.2446  133.5159  159.5298 H   0  0  0  0  0  0  0  0  0  0  0  0  # atno 6908 bound_to 6896
  150.7064  134.0960  159.3991 H   0  0  0  0  0  0  0  0  0  0  0  0  # atno 6909 bound_to 6896
  146.1489  139.6531  142.9112 H   0  0  0  0  0  0  0  0  0  0  0  0  # atno 7974 bound_to 7965
  154.6268  140.2513  155.7482 H   0  0  0  0  0  0  0  0  0  0  0  0  # atno 8008 bound_to 7997
  156.2457  140.2915  156.0521 H   0  0  0  0  0  0  0  0  0  0  0  0  # atno 8009 bound_to 7997
  155.1809  140.0389  157.2872 H   0  0  0  0  0  0  0  0  0  0  0  0  # atno 8010 bound_to 7997
  139.4956  144.3870  151.9559 H   0  0  0  0  0  0  0  0  0  0  0  0  # atno 10167 bound_to 10162
  157.1865  130.6826  149.6133 H   0  0  0  0  0  0  0  0  0  0  0  0  # atno 10718 bound_to 10713
  153.3984  135.7004  153.6444 H   0  0  0  0  0  0  0  0  0  0  0  0  # atno 10763 bound_to 10752
  153.4988  135.3657  155.2529 H   0  0  0  0  0  0  0  0  0  0  0  0  # atno 10764 bound_to 10752
  154.8708  135.4107  154.3314 H   0  0  0  0  0  0  0  0  0  0  0  0  # atno 10765 bound_to 10752
  140.2632  134.7886  157.3608 H   0  0  0  0  0  0  0  0  0  0  0  0  # atno 11005 bound_to 11000
  145.4872  141.0438  143.2613 LP  0  0  0  0  0  0  0  0  0  0  0  0  # atno 17320 bound_to 7965
  144.7879  139.6388  143.7126 LP  0  0  0  0  0  0  0  0  0  0  0  0  # atno 17321 bound_to 7965
  140.3307  144.3319  150.5988 LP  0  0  0  0  0  0  0  0  0  0  0  0  # atno 17342 bound_to 10162
  140.5647  143.2187  151.7704 LP  0  0  0  0  0  0  0  0  0  0  0  0  # atno 17343 bound_to 10162
  155.9717  130.4629  150.6162 LP  0  0  0  0  0  0  0  0  0  0  0  0  # atno 17370 bound_to 10713
  157.3902  131.0794  151.1400 LP  0  0  0  0  0  0  0  0  0  0  0  0  # atno 17371 bound_to 10713
  140.1445  134.4929  155.8007 LP  0  0  0  0  0  0  0  0  0  0  0  0  # atno 17394 bound_to 11000
  141.2187  133.6838  156.7268 LP  0  0  0  0  0  0  0  0  0  0  0  0  # atno 17395 bound_to 11000

$$$$
