AV-unprocessed.smi:159|AV-procd|sdf|1342|dock1
  -GOLD-   2262019 43D 1   1.00000     0.00000
 Structure written by MMmdl.
 28 29  0  0  0  0  0  0  0  0  1 V2000
  146.4196  139.6945  153.0734 N   0  0  0  0  0  0  0  0  0  0  0  0
  147.5066  140.0792  153.7571 C   0  0  0  0  0  0  0  0  0  0  0  0
  147.5388  141.3667  154.4136 C   0  0  0  0  0  0  0  0  0  0  0  0
  148.6715  141.6840  155.0785 C   0  0  0  0  0  0  0  0  0  0  0  0
  149.7640  140.8293  155.1292 N   0  0  0  0  0  0  0  0  0  0  0  0
  151.0174  141.2093  155.8856 C   0  0  2  0  0  0  0  0  0  0  0  0
  151.2535  140.2424  157.0516 C   0  0  0  0  0  0  0  0  0  0  0  0
  150.8161  141.0700  158.2417 C   0  0  0  0  0  0  0  0  0  0  0  0
  151.1949  142.4825  157.8016 C   0  0  2  0  0  0  0  0  0  0  0  0
  150.4281  143.5817  158.5512 C   0  0  0  0  0  0  0  0  0  0  0  0
  149.0414  143.4436  158.3270 O   0  0  0  0  0  0  0  0  0  0  0  0
  150.8512  142.4904  156.4197 O   0  0  0  0  0  0  0  0  0  0  0  0
  149.6938  139.5653  154.4947 C   0  0  0  0  0  0  0  0  0  0  0  0
  150.6213  138.7583  154.5458 O   0  0  0  0  0  0  0  0  0  0  0  0
  148.5400  139.2624  153.8225 N   0  0  0  0  0  0  0  0  0  0  0  0
  151.8376  141.2335  155.1662 H   0  0  0  0  0  0  0  0  0  0  0  0
  152.2737  142.6117  157.9084 H   0  0  0  0  0  0  0  0  0  0  0  0
  146.3988  138.7934  152.6184 H   0  0  0  0  0  0  0  0  0  0  0  0
  145.6193  140.3082  153.0191 H   0  0  0  0  0  0  0  0  0  0  0  0
  146.7150  142.0657  154.3933 H   0  0  0  0  0  0  0  0  0  0  0  0
  148.7084  142.6392  155.5815 H   0  0  0  0  0  0  0  0  0  0  0  0
  150.7020  139.3083  156.9363 H   0  0  0  0  0  0  0  0  0  0  0  0
  152.3196  140.0192  157.1091 H   0  0  0  0  0  0  0  0  0  0  0  0
  149.7372  140.9864  158.3792 H   0  0  0  0  0  0  0  0  0  0  0  0
  151.3021  140.7698  159.1702 H   0  0  0  0  0  0  0  0  0  0  0  0
  150.6457  143.5606  159.6194 H   0  0  0  0  0  0  0  0  0  0  0  0
  150.7224  144.5636  158.1794 H   0  0  0  0  0  0  0  0  0  0  0  0
  148.6562  144.3056  158.2848 H   0  0  0  0  0  0  0  0  0  0  0  0
  1  2  1  0  0  0  0
  1 18  1  0  0  0  0
  1 19  1  0  0  0  0
  2 15  2  0  0  0  0
  2  3  1  0  0  0  0
  3  4  2  0  0  0  0
  3 20  1  0  0  0  0
  4  5  1  0  0  0  0
  4 21  1  0  0  0  0
  5  6  1  0  0  0  0
  5 13  1  0  0  0  0
  6 16  1  0  0  0  0
  6 12  1  0  0  0  0
  6  7  1  0  0  0  0
  7  8  1  0  0  0  0
  7 22  1  0  0  0  0
  7 23  1  0  0  0  0
  8  9  1  0  0  0  0
  8 24  1  0  0  0  0
  8 25  1  0  0  0  0
  9 17  1  0  0  0  0
  9 10  1  0  0  0  0
  9 12  1  0  0  0  0
 10 11  1  0  0  0  0
 10 26  1  0  0  0  0
 10 27  1  0  0  0  0
 11 28  1  0  0  0  0
 13 14  2  0  0  0  0
 13 15  1  0  0  0  0
M  END
> <s_m_source_file>
AV-unprocessed.smi

> <i_m_source_file_index>
159

> <i_lp_mmshare_version>
43012

> <i_f3d_flags>
0

> <s_epik_input>
W05IMl1jMVtjSF1bY0hdbihjKD1PKW4xKVtDQEhdMltDSDJdW0NIMl1bQ0BIXShPMilbQ0gyXVtPSF0=

> <s_epik_cmdline>
J2VwaWtfcHl0aG9uJywgJy1waCcsICc3LjAnLCAnLXRuJywgJzgnLCAnLW1hJywgJzIwMCcsICctbWV0YWxfYmluZGluZycsICctaW1hZScsICc8aW5maWxlLm1hZT4nLCAnLW9tYWUnLCAnPG91dGZpbGUubWFlPic=

> <r_lp_tautomer_probability>
0.99996

> <r_epik_Ionization_Penalty>
0.00126102

> <r_epik_Ionization_Penalty_Charging>
4.46248e-08

> <r_epik_Ionization_Penalty_Neutral>
0.00126097

> <r_epik_State_Penalty>
1.15523e-05

> <r_epik_Charging_Adjusted_Penalty>
1.1597e-05

> <i_epik_Tot_Q>
0

> <i_epik_Tot_abs_Q>
0

> <r_epik_Metal_State_Penalty>
-0

> <b_epik_Metal_Only>
0

> <s_epik_Chemistry_Notes>
This compound contains an acetal/aminal-like group ( X-CH(R)-Y where X, Y are N, S, or O) that may be acid/base labile, releasing an aldehyde.

> <s_lp_Force_Field>
OPLS_2005

> <r_lp_Energy>
25.8801

> <b_lp_Chiralities_Consistent>
1

> <s_lp_Variant>
AV-unprocessed.smi:159-4

> <Gold.Version>
5.8.1

> <Gold.Id.Protein>
6NUR|6NUR_protein|mol2

> <Gold.PLP.Fitness>
34.0056

> <Gold.PLP.PLP>
-25.3395

> <Gold.PLP.part.hbond>
-3.0000

> <Gold.PLP.part.metal>
0.0000

> <Gold.PLP.part.buried>
-3.1844

> <Gold.PLP.part.nonpolar>
-20.1232

> <Gold.PLP.part.repulsive>
1.7207

> <Gold.PLP.ligand.clash>
0.0000

> <Gold.PLP.ligand.torsion>
0.0174

> <Gold.PLP.Chemscore.Hbond>
1.8960

> <Gold.PLP.Chemscore.CHOScore>
1.0000

> <Gold.PLP.Chemscore.Metal>
0.0000

> <Gold.Chemscore.Hbonds>
donor molecule, donor type, donor heavy atom, donor atom, acceptor molecule, acceptor atom, score
      L1  H     1    19       P1 10175  0.91
      L1  H    11    28       P1  8029  0.91
      L1  C     4    21       P1  8028  1.00

> <Gold.PLP.Chemscore.Internal.Correction>
0.0130

> <Gold.Rescore>
     Score         DG    S(hbond)    S(metal)    S(lipo)     H(rot)  DE(clash)    DE(int)     intcor
      7.35      -8.84       1.17        0.00      41.01       2.09       0.37       1.12       ----

> <Gold.Chemscore.Fitness>
7.3484

> <Gold.Chemscore.DG>
-8.8359

> <Gold.Chemscore.ZeroCoef>
-5.4800

> <Gold.Chemscore.Hbond>
1.1729

> <Gold.Chemscore.Metal>
0.0000

> <Gold.Chemscore.Lipo>
41.0081

> <Gold.Chemscore.Internal_Hbond>
0.0000

> <Gold.Chemscore.DEClash>
0.3658

> <Gold.Chemscore.DEInternal>
1.1217

> <Gold.Chemscore.Rot>
2.0935

> <Gold.Chemscore.Internal.Correction>
   9.000000E+99

> <Gold.Chemscore.Hbonds>
donor molecule, donor type, donor heavy atom, donor atom, acceptor molecule, acceptor atom, score
      L1  H     1    19       P1 10175  0.81
      L1  H    11    28       P1  8029  0.29

> <Gold.Chemscore.Hbond.Weighted>
-3.9173

> <Gold.Chemscore.Metal.Weighted>
-0.0000

> <Gold.Chemscore.Lipo.Weighted>
-4.7979

> <Gold.Chemscore.Internal_Hbond.Weighted>
0.0000

> <Gold.Chemscore.DEClash.Weighted>
0.3658

> <Gold.Chemscore.DEInternal.Weighted>
1.1217

> <Gold.Chemscore.Rot.Weighted>
5.3594

> <Gold.Chemscore.Internal.Correction.Weighted>
   9.000000E+99

> <Gold.Protein.RotatedTorsions>
[ 6907 6896 6895 6894 ] final  127.95 input  -60.11 | X-H torsion
[ 7974 7965 7964 7962 ] final  -93.90 input  175.53 | X-H torsion
[ 8008 7997 7996 7995 ] final  134.90 input   59.86 | X-H torsion
[ 10167 10162 10161 10158 ] final   -8.05 input  -65.29 | X-H torsion
[ 10718 10713 10712 10709 ] final    1.51 input   66.30 | X-H torsion
[ 10763 10752 10751 10750 ] final  156.92 input  -60.55 | X-H torsion
[ 11005 11000 10999 10996 ] final -150.65 input  -57.11 | X-H torsion

> <Gold.Protein.ActiveResidues>
 VAL166  LYS551  ARG553  GLY616  TRP617  ASP618  TYR619  PRO620  LYS621  CYS622 
 ASP623  PHE694  ASN695  SER759  ASP760  ASP761  ALA762  ILE779  LEU786  VAL792 
 PHE793  MET794  SER795  GLU796  ALA797  LYS798  CYS799  TRP800  GLU811  SER814 

> <Gold.Protein.RotatedAtoms>
  152.3765  133.6488  159.6127 H   0  0  0  0  0  0  0  0  0  0  0  0  # atno 6907 bound_to 6896
  150.7708  133.9184  159.3399 H   0  0  0  0  0  0  0  0  0  0  0  0  # atno 6908 bound_to 6896
  151.6998  135.0933  160.0300 H   0  0  0  0  0  0  0  0  0  0  0  0  # atno 6909 bound_to 6896
  145.3804  140.9517  143.2397 H   0  0  0  0  0  0  0  0  0  0  0  0  # atno 7974 bound_to 7965
  156.3001  140.2484  156.3494 H   0  0  0  0  0  0  0  0  0  0  0  0  # atno 8008 bound_to 7997
  154.8980  140.0407  157.1896 H   0  0  0  0  0  0  0  0  0  0  0  0  # atno 8009 bound_to 7997
  154.8529  140.2909  155.5591 H   0  0  0  0  0  0  0  0  0  0  0  0  # atno 8010 bound_to 7997
  140.7047  143.6012  150.8796 H   0  0  0  0  0  0  0  0  0  0  0  0  # atno 10167 bound_to 10162
  156.8493  130.5548  149.5671 H   0  0  0  0  0  0  0  0  0  0  0  0  # atno 10718 bound_to 10713
  154.1921  135.2794  155.3019 H   0  0  0  0  0  0  0  0  0  0  0  0  # atno 10763 bound_to 10752
  154.5921  135.5556  153.7292 H   0  0  0  0  0  0  0  0  0  0  0  0  # atno 10764 bound_to 10752
  153.0110  135.6371  154.2059 H   0  0  0  0  0  0  0  0  0  0  0  0  # atno 10765 bound_to 10752
  140.7379  134.3547  157.5153 H   0  0  0  0  0  0  0  0  0  0  0  0  # atno 11005 bound_to 11000
  144.8512  139.5319  143.6855 LP  0  0  0  0  0  0  0  0  0  0  0  0  # atno 17320 bound_to 7965
  146.2845  139.6966  142.9205 LP  0  0  0  0  0  0  0  0  0  0  0  0  # atno 17321 bound_to 7965
  139.9736  143.6029  152.2965 LP  0  0  0  0  0  0  0  0  0  0  0  0  # atno 17342 bound_to 10162
  139.6624  144.7662  151.1937 LP  0  0  0  0  0  0  0  0  0  0  0  0  # atno 17343 bound_to 10162
  156.0837  130.5841  150.9609 LP  0  0  0  0  0  0  0  0  0  0  0  0  # atno 17370 bound_to 10713
  157.6312  131.0921  150.8437 LP  0  0  0  0  0  0  0  0  0  0  0  0  # atno 17371 bound_to 10713
  139.8812  134.9061  156.2916 LP  0  0  0  0  0  0  0  0  0  0  0  0  # atno 17394 bound_to 11000
  140.9863  133.7236  156.0746 LP  0  0  0  0  0  0  0  0  0  0  0  0  # atno 17395 bound_to 11000

$$$$
