AV-unprocessed.smi:2226|AV-procd|sdf|9020|dock6
  -GOLD-   2272012223D 1   1.00000     0.00000
 Structure written by MMmdl.
 39 41  0  0  0  0  0  0  0  0  3 V2000
  147.6322  133.0353  153.0199 C   0  0  0  0  0  0  0  0  0  0  0  0
  148.2631  134.1776  153.7231 N   0  3  2  0  0  0  0  0  0  0  0  0
  149.5522  133.8663  154.3847 C   0  0  1  0  0  0  0  0  0  0  0  0
  150.2956  135.1873  154.6890 C   0  0  0  0  0  0  0  0  0  0  0  0
  149.4540  136.2142  155.4709 C   0  0  0  0  0  0  0  0  0  0  0  0
  147.9933  136.2808  154.9835 C   0  0  0  0  0  0  0  0  0  0  0  0
  147.3723  134.9016  154.6608 C   0  0  2  0  0  0  0  0  0  0  0  0
  147.0168  134.0305  155.8922 C   0  0  0  0  0  0  0  0  0  0  0  0
  148.2039  133.3037  156.5704 C   0  0  2  0  0  0  0  0  0  0  0  0
  148.6671  134.0296  157.7506 N   0  0  0  0  0  0  0  0  0  0  0  0
  147.9059  134.5372  158.7310 C   0  0  0  0  0  0  0  0  0  0  0  0
  146.6790  134.4252  158.6796 O   0  0  0  0  0  0  0  0  0  0  0  0
  148.6179  135.1338  159.7125 N   0  5  0  0  0  0  0  0  0  0  0  0
  148.0228  135.4411  160.8762 C   0  0  0  0  0  0  0  0  0  0  0  0
  147.0308  134.7665  161.4598 N   0  0  0  0  0  0  0  0  0  0  0  0
  146.7422  135.4538  162.6288 C   0  0  0  0  0  0  0  0  0  0  0  0
  147.5792  136.5338  162.6986 C   0  0  0  0  0  0  0  0  0  0  0  0
  148.3895  136.5385  161.5972 O   0  0  0  0  0  0  0  0  0  0  0  0
  149.3545  132.9253  155.5991 C   0  0  0  0  0  0  0  0  0  0  0  0
  147.3423  132.2378  153.7038 H   0  0  0  0  0  0  0  0  0  0  0  0
  148.3193  132.6159  152.2845 H   0  0  0  0  0  0  0  0  0  0  0  0
  146.7398  133.3636  152.4865 H   0  0  0  0  0  0  0  0  0  0  0  0
  150.1721  133.3307  153.6643 H   0  0  0  0  0  0  0  0  0  0  0  0
  151.2273  134.9871  155.2192 H   0  0  0  0  0  0  0  0  0  0  0  0
  150.5851  135.6399  153.7396 H   0  0  0  0  0  0  0  0  0  0  0  0
  149.4900  135.9996  156.5334 H   0  0  0  0  0  0  0  0  0  0  0  0
  149.9109  137.2002  155.3815 H   0  0  0  0  0  0  0  0  0  0  0  0
  147.3805  136.8146  155.7107 H   0  0  0  0  0  0  0  0  0  0  0  0
  147.9685  136.8840  154.0749 H   0  0  0  0  0  0  0  0  0  0  0  0
  146.4383  135.1071  154.1359 H   0  0  0  0  0  0  0  0  0  0  0  0
  146.4567  134.6180  156.6211 H   0  0  0  0  0  0  0  0  0  0  0  0
  146.3139  133.2658  155.5602 H   0  0  0  0  0  0  0  0  0  0  0  0
  147.7984  132.3690  156.9628 H   0  0  0  0  0  0  0  0  0  0  0  0
  149.6646  134.1560  157.8402 H   0  0  0  0  0  0  0  0  0  0  0  0
  145.9722  135.1237  163.3103 H   0  0  0  0  0  0  0  0  0  0  0  0
  147.7181  137.3345  163.4093 H   0  0  0  0  0  0  0  0  0  0  0  0
  149.1342  131.9307  155.2099 H   0  0  0  0  0  0  0  0  0  0  0  0
  150.2979  132.8041  156.1322 H   0  0  0  0  0  0  0  0  0  0  0  0
  148.4855  134.8390  152.9929 H   0  0  0  0  0  0  0  0  0  0  0  0
  1  2  1  0  0  0  0
  1 20  1  0  0  0  0
  1 21  1  0  0  0  0
  1 22  1  0  0  0  0
  2  7  1  0  0  0  0
  2  3  1  0  0  0  0
  2 39  1  0  0  0  0
  3 19  1  0  0  0  0
  3  4  1  0  0  0  0
  3 23  1  0  0  0  0
  4  5  1  0  0  0  0
  4 24  1  0  0  0  0
  4 25  1  0  0  0  0
  5  6  1  0  0  0  0
  5 26  1  0  0  0  0
  5 27  1  0  0  0  0
  6  7  1  0  0  0  0
  6 28  1  0  0  0  0
  6 29  1  0  0  0  0
  7  8  1  0  0  0  0
  7 30  1  0  0  0  0
  8  9  1  0  0  0  0
  8 31  1  0  0  0  0
  8 32  1  0  0  0  0
  9 10  1  0  0  0  0
  9 19  1  0  0  0  0
  9 33  1  0  0  0  0
 10 34  1  0  0  0  0
 10 11  1  0  0  0  0
 11 13  1  0  0  0  0
 11 12  2  0  0  0  0
 13 14  1  0  0  0  0
 14 18  1  0  0  0  0
 14 15  2  0  0  0  0
 15 16  1  0  0  0  0
 16 35  1  0  0  0  0
 16 17  2  0  0  0  0
 17 36  1  0  0  0  0
 17 18  1  0  0  0  0
 19 37  1  0  0  0  0
 19 38  1  0  0  0  0
M  CHG  1   2   1
M  CHG  1  13  -1
M  END
> <s_m_source_file>
AV-unprocessed.smi

> <i_m_source_file_index>
2226

> <i_lp_mmshare_version>
43012

> <i_f3d_flags>
0

> <s_epik_input>
W0NIMl0xW0NIMl1bQ0gyXVtDQEhdKE4oW0NIM10pW0NIXTEyKVtDSDJdW0NASF0oW0NIMl0yKVtOSF1DKD1PKVtOSF1jM25bY0hdW2NIXW8z

> <s_epik_cmdline>
J2VwaWtfcHl0aG9uJywgJy1waCcsICc3LjAnLCAnLXRuJywgJzgnLCAnLW1hJywgJzIwMCcsICctbWV0YWxfYmluZGluZycsICctaW1hZScsICc8aW5maWxlLm1hZT4nLCAnLW9tYWUnLCAnPG91dGZpbGUubWFlPic=

> <r_lp_tautomer_probability>
0.107061

> <r_epik_Ionization_Penalty>
10.5612

> <r_epik_Ionization_Penalty_Charging>
7.48913

> <r_epik_Ionization_Penalty_Neutral>
3.07202

> <r_epik_State_Penalty>
5.6431

> <r_epik_Charging_Adjusted_Penalty>
13.1322

> <i_epik_Tot_Q>
0

> <i_epik_Tot_abs_Q>
2

> <r_epik_Metal_State_Penalty>
1.58163

> <b_epik_Metal_Only>
1

> <s_lp_Force_Field>
OPLS_2005

> <r_lp_Energy>
26.6809

> <b_lp_Chiralities_Consistent>
1

> <s_lp_Variant>
AV-unprocessed.smi:2226-20

> <Gold.Version>
5.8.1

> <Gold.Id.Protein>
6NUR|6NUR_protein|mol2

> <Gold.PLP.Fitness>
40.3512

> <Gold.PLP.PLP>
-25.9726

> <Gold.PLP.part.hbond>
-3.0000

> <Gold.PLP.part.metal>
0.0000

> <Gold.PLP.part.buried>
-3.7559

> <Gold.PLP.part.nonpolar>
-19.6054

> <Gold.PLP.part.repulsive>
0.0913

> <Gold.PLP.ligand.clash>
0.0000

> <Gold.PLP.ligand.torsion>
0.3366

> <Gold.PLP.Chemscore.Hbond>
5.0000

> <Gold.PLP.Chemscore.CHOScore>
0.0000

> <Gold.PLP.Chemscore.Metal>
0.0000

> <Gold.Chemscore.Hbonds>
donor molecule, donor type, donor heavy atom, donor atom, acceptor molecule, acceptor atom, score
      L1  H     2    39       P1  7948  2.00
      P1  H  6896  6907       L1    13  1.53
      P1  H  6931  6943       L1    18  0.70

> <Gold.PLP.Chemscore.Internal.Correction>
0.0517

> <Gold.Rescore>
     Score         DG    S(hbond)    S(metal)    S(lipo)     H(rot)  DE(clash)    DE(int)     intcor
     12.45     -15.45       1.95        0.00      51.33       1.00       0.03       2.97       ----

> <Gold.Chemscore.Fitness>
12.4528

> <Gold.Chemscore.DG>
-15.4522

> <Gold.Chemscore.ZeroCoef>
-5.4800

> <Gold.Chemscore.Hbond>
1.9542

> <Gold.Chemscore.Metal>
0.0000

> <Gold.Chemscore.Lipo>
51.3252

> <Gold.Chemscore.Internal_Hbond>
0.0000

> <Gold.Chemscore.DEClash>
0.0303

> <Gold.Chemscore.DEInternal>
2.9691

> <Gold.Chemscore.Rot>
1.0000

> <Gold.Chemscore.Internal.Correction>
   9.000000E+99

> <Gold.Chemscore.Hbonds>
donor molecule, donor type, donor heavy atom, donor atom, acceptor molecule, acceptor atom, score
      L1  H     2    39       P1  7948  0.55
      P1  H  6896  6907       L1    13  0.54
      P1  H  6931  6943       L1    18  0.07

> <Gold.Chemscore.Hbond.Weighted>
-6.5272

> <Gold.Chemscore.Metal.Weighted>
-0.0000

> <Gold.Chemscore.Lipo.Weighted>
-6.0051

> <Gold.Chemscore.Internal_Hbond.Weighted>
0.0000

> <Gold.Chemscore.DEClash.Weighted>
0.0303

> <Gold.Chemscore.DEInternal.Weighted>
2.9691

> <Gold.Chemscore.Rot.Weighted>
2.5600

> <Gold.Chemscore.Internal.Correction.Weighted>
   9.000000E+99

> <Gold.Protein.RotatedTorsions>
[ 6907 6896 6895 6894 ] final  -70.18 input  -60.11 | X-H torsion
[ 7974 7965 7964 7962 ] final   37.30 input  175.53 | X-H torsion
[ 8008 7997 7996 7995 ] final  -76.20 input   59.86 | X-H torsion
[ 10167 10162 10161 10158 ] final   19.14 input  -65.29 | X-H torsion
[ 10718 10713 10712 10709 ] final  -39.05 input   66.30 | X-H torsion
[ 10763 10752 10751 10750 ] final  107.54 input  -60.55 | X-H torsion
[ 11005 11000 10999 10996 ] final   -3.34 input  -57.11 | X-H torsion

> <Gold.Protein.ActiveResidues>
 VAL166  LYS551  ARG553  GLY616  TRP617  ASP618  TYR619  PRO620  LYS621  CYS622 
 ASP623  PHE694  ASN695  SER759  ASP760  ASP761  ALA762  ILE779  LEU786  VAL792 
 PHE793  MET794  SER795  GLU796  ALA797  LYS798  CYS799  TRP800  GLU811  SER814 

> <Gold.Protein.RotatedAtoms>
  150.7270  134.5490  159.5784 H   0  0  0  0  0  0  0  0  0  0  0  0  # atno 6907 bound_to 6896
  152.2982  134.7639  160.0372 H   0  0  0  0  0  0  0  0  0  0  0  0  # atno 6908 bound_to 6896
  151.8229  133.3361  159.3626 H   0  0  0  0  0  0  0  0  0  0  0  0  # atno 6909 bound_to 6896
  146.1148  139.5911  142.9329 H   0  0  0  0  0  0  0  0  0  0  0  0  # atno 7974 bound_to 7965
  154.5484  140.0731  156.8628 H   0  0  0  0  0  0  0  0  0  0  0  0  # atno 8008 bound_to 7997
  155.3041  140.3386  155.4228 H   0  0  0  0  0  0  0  0  0  0  0  0  # atno 8009 bound_to 7997
  156.1939  140.1696  156.8023 H   0  0  0  0  0  0  0  0  0  0  0  0  # atno 8010 bound_to 7997
  140.5601  143.9352  150.6637 H   0  0  0  0  0  0  0  0  0  0  0  0  # atno 10167 bound_to 10162
  156.2968  130.4235  149.8183 H   0  0  0  0  0  0  0  0  0  0  0  0  # atno 10718 bound_to 10713
  153.4081  135.3841  155.2032 H   0  0  0  0  0  0  0  0  0  0  0  0  # atno 10763 bound_to 10752
  154.8735  135.3787  154.4534 H   0  0  0  0  0  0  0  0  0  0  0  0  # atno 10764 bound_to 10752
  153.5040  135.7088  153.5879 H   0  0  0  0  0  0  0  0  0  0  0  0  # atno 10765 bound_to 10752
  140.6683  133.9259  155.8478 H   0  0  0  0  0  0  0  0  0  0  0  0  # atno 11005 bound_to 11000
  145.5590  141.0406  143.2237 LP  0  0  0  0  0  0  0  0  0  0  0  0  # atno 17320 bound_to 7965
  144.7543  139.7114  143.7260 LP  0  0  0  0  0  0  0  0  0  0  0  0  # atno 17321 bound_to 7965
  140.2801  143.3396  152.1159 LP  0  0  0  0  0  0  0  0  0  0  0  0  # atno 17342 bound_to 10162
  139.5066  144.6817  151.5991 LP  0  0  0  0  0  0  0  0  0  0  0  0  # atno 17343 bound_to 10162
  156.5576  130.8369  151.3319 LP  0  0  0  0  0  0  0  0  0  0  0  0  # atno 17370 bound_to 10713
  157.7357  130.9767  150.2098 LP  0  0  0  0  0  0  0  0  0  0  0  0  # atno 17371 bound_to 10713
  141.0412  134.0619  157.3900 LP  0  0  0  0  0  0  0  0  0  0  0  0  # atno 17394 bound_to 11000
  139.8990  135.0157  156.7174 LP  0  0  0  0  0  0  0  0  0  0  0  0  # atno 17395 bound_to 11000

$$$$
