AV-unprocessed.smi:1518|AV-procd|sdf|6124|dock1
  -GOLD-   22720 6263D 1   1.00000     0.00000
 Structure written by MMmdl.
 45 47  0  0  0  0  0  0  0  0  1 V2000
  153.9298  141.3768  160.3741 C   0  0  0  0  0  0  0  0  0  0  0  0
  153.6484  140.5175  159.1424 C   0  0  0  0  0  0  0  0  0  0  0  0
  154.4058  139.5802  158.8926 O   0  0  0  0  0  0  0  0  0  0  0  0
  152.4663  140.8658  158.3025 C   0  0  0  0  0  0  0  0  0  0  0  0
  151.6926  141.9997  158.6376 C   0  0  0  0  0  0  0  0  0  0  0  0
  150.5711  142.3517  157.8654 C   0  0  0  0  0  0  0  0  0  0  0  0
  150.2127  141.5746  156.7496 C   0  0  0  0  0  0  0  0  0  0  0  0
  150.9682  140.4414  156.3908 C   0  0  0  0  0  0  0  0  0  0  0  0
  150.5445  139.7396  155.2828 O   0  0  0  0  0  0  0  0  0  0  0  0
  151.4494  138.8327  154.6651 C   0  0  0  0  0  0  0  0  0  0  0  0
  151.2253  137.4163  155.2181 C   0  0  2  0  0  0  0  0  0  0  0  0
  151.5781  136.4710  154.2282 O   0  0  0  0  0  0  0  0  0  0  0  0
  149.7959  137.1835  155.7504 C   0  0  0  0  0  0  0  0  0  0  0  0
  149.6584  135.9209  156.4634 N   0  0  0  0  0  0  0  0  0  0  0  0
  149.6301  135.7165  157.8045 C   0  0  0  0  0  0  0  0  0  0  0  0
  149.7392  136.8604  158.7730 C   0  0  0  0  0  0  0  0  0  0  0  0
  150.9010  136.8236  159.5771 O   0  0  0  0  0  0  0  0  0  0  0  0
  149.4859  134.4465  158.1907 N   0  0  0  0  0  0  0  0  0  0  0  0
  149.4157  133.7668  156.9907 C   0  0  0  0  0  0  0  0  0  0  0  0
  149.2611  132.3875  156.7238 C   0  0  0  0  0  0  0  0  0  0  0  0
  149.2127  131.9186  155.3946 C   0  0  0  0  0  0  0  0  0  0  0  0
  149.3176  132.8201  154.3157 C   0  0  0  0  0  0  0  0  0  0  0  0
  149.4713  134.1983  154.5597 C   0  0  0  0  0  0  0  0  0  0  0  0
  149.5193  134.6612  155.8885 C   0  0  0  0  0  0  0  0  0  0  0  0
  152.0980  140.0928  157.1743 C   0  0  0  0  0  0  0  0  0  0  0  0
  153.1108  141.2980  161.0890 H   0  0  0  0  0  0  0  0  0  0  0  0
  154.0526  142.4226  160.0920 H   0  0  0  0  0  0  0  0  0  0  0  0
  154.8452  141.0489  160.8673 H   0  0  0  0  0  0  0  0  0  0  0  0
  151.9494  142.6110  159.4910 H   0  0  0  0  0  0  0  0  0  0  0  0
  149.9848  143.2193  158.1293 H   0  0  0  0  0  0  0  0  0  0  0  0
  149.3497  141.8518  156.1624 H   0  0  0  0  0  0  0  0  0  0  0  0
  151.3342  138.8408  153.5798 H   0  0  0  0  0  0  0  0  0  0  0  0
  152.4721  139.1368  154.8937 H   0  0  0  0  0  0  0  0  0  0  0  0
  151.9320  137.2676  156.0347 H   0  0  0  0  0  0  0  0  0  0  0  0
  151.2203  136.7562  153.4012 H   0  0  0  0  0  0  0  0  0  0  0  0
  149.5027  137.9978  156.4134 H   0  0  0  0  0  0  0  0  0  0  0  0
  149.0768  137.1913  154.9306 H   0  0  0  0  0  0  0  0  0  0  0  0
  149.7364  137.8027  158.2261 H   0  0  0  0  0  0  0  0  0  0  0  0
  148.8643  136.8574  159.4234 H   0  0  0  0  0  0  0  0  0  0  0  0
  151.4485  137.5589  159.3488 H   0  0  0  0  0  0  0  0  0  0  0  0
  149.1792  131.6894  157.5437 H   0  0  0  0  0  0  0  0  0  0  0  0
  149.0946  130.8623  155.2022 H   0  0  0  0  0  0  0  0  0  0  0  0
  149.2800  132.4528  153.3005 H   0  0  0  0  0  0  0  0  0  0  0  0
  149.5532  134.8908  153.7353 H   0  0  0  0  0  0  0  0  0  0  0  0
  152.6866  139.2286  156.9108 H   0  0  0  0  0  0  0  0  0  0  0  0
  1  2  1  0  0  0  0
  1 26  1  0  0  0  0
  1 27  1  0  0  0  0
  1 28  1  0  0  0  0
  2  3  2  0  0  0  0
  2  4  1  0  0  0  0
  4 25  1  0  0  0  0
  4  5  2  0  0  0  0
  5  6  1  0  0  0  0
  5 29  1  0  0  0  0
  6  7  2  0  0  0  0
  6 30  1  0  0  0  0
  7  8  1  0  0  0  0
  7 31  1  0  0  0  0
  8  9  1  0  0  0  0
  8 25  2  0  0  0  0
  9 10  1  0  0  0  0
 10 11  1  0  0  0  0
 10 32  1  0  0  0  0
 10 33  1  0  0  0  0
 11 12  1  0  0  0  0
 11 13  1  0  0  0  0
 11 34  1  0  0  0  0
 12 35  1  0  0  0  0
 13 14  1  0  0  0  0
 13 36  1  0  0  0  0
 13 37  1  0  0  0  0
 14 24  1  0  0  0  0
 14 15  1  0  0  0  0
 15 16  1  0  0  0  0
 15 18  2  0  0  0  0
 16 17  1  0  0  0  0
 16 38  1  0  0  0  0
 16 39  1  0  0  0  0
 17 40  1  0  0  0  0
 18 19  1  0  0  0  0
 19 24  2  0  0  0  0
 19 20  1  0  0  0  0
 20 21  2  0  0  0  0
 20 41  1  0  0  0  0
 21 22  1  0  0  0  0
 21 42  1  0  0  0  0
 22 23  2  0  0  0  0
 22 43  1  0  0  0  0
 23 24  1  0  0  0  0
 23 44  1  0  0  0  0
 25 45  1  0  0  0  0
M  END
> <s_m_source_file>
AV-unprocessed.smi

> <i_m_source_file_index>
1518

> <i_lp_mmshare_version>
43012

> <i_f3d_flags>
0

> <s_epik_input>
W0NIM11DKD1PKWMxW2NIXVtjSF1bY0hdYyhbY0hdMSlPW0NIMl1bQ0BIXShbT0hdKVtDSDJdbihjKG4yKVtDSDJdW09IXSljKGMyMylbY0hdW2NIXVtjSF1bY0hdMw==

> <s_epik_cmdline>
J2VwaWtfcHl0aG9uJywgJy1waCcsICc3LjAnLCAnLXRuJywgJzgnLCAnLW1hJywgJzIwMCcsICctbWV0YWxfYmluZGluZycsICctaW1hZScsICc8aW5maWxlLm1hZT4nLCAnLW9tYWUnLCAnPG91dGZpbGUubWFlPic=

> <r_lp_tautomer_probability>
0.99995

> <r_epik_Ionization_Penalty>
0.0583159

> <r_epik_Ionization_Penalty_Charging>
0

> <r_epik_Ionization_Penalty_Neutral>
0.0583159

> <r_epik_State_Penalty>
0.0503525

> <r_epik_Charging_Adjusted_Penalty>
0.0503525

> <i_epik_Tot_Q>
0

> <i_epik_Tot_abs_Q>
0

> <r_epik_Metal_State_Penalty>
5.25517e-05

> <b_epik_Metal_Only>
0

> <s_lp_Force_Field>
OPLS_2005

> <r_lp_Energy>
22.7276

> <b_lp_Chiralities_Consistent>
1

> <s_lp_Variant>
AV-unprocessed.smi:1518-1

> <Gold.Version>
5.8.1

> <Gold.Id.Protein>
6NUR|6NUR_protein|mol2

> <Gold.PLP.Fitness>
53.1410

> <Gold.PLP.PLP>
-41.2349

> <Gold.PLP.part.hbond>
-5.2366

> <Gold.PLP.part.metal>
0.0000

> <Gold.PLP.part.buried>
-6.0540

> <Gold.PLP.part.nonpolar>
-31.7627

> <Gold.PLP.part.repulsive>
0.0469

> <Gold.PLP.ligand.clash>
0.0000

> <Gold.PLP.ligand.torsion>
1.1783

> <Gold.PLP.Chemscore.Hbond>
4.5600

> <Gold.PLP.Chemscore.CHOScore>
0.0000

> <Gold.PLP.Chemscore.Metal>
0.0000

> <Gold.Chemscore.Hbonds>
donor molecule, donor type, donor heavy atom, donor atom, acceptor molecule, acceptor atom, score
      L1  H    12    35       P1  7949  0.65
      P1  H  6896  6907       L1    18  0.85
      P1  H  6896  6908       L1    17  1.00
      P1  H  7997  8009       L1     3  1.00
      P1  H 10752 10765       L1    12  1.00

> <Gold.PLP.Chemscore.Internal.Correction>
0.5828

> <Gold.Rescore>
     Score         DG    S(hbond)    S(metal)    S(lipo)     H(rot)  DE(clash)    DE(int)     intcor
     21.12     -22.38       4.13        0.00      97.48       3.25       0.16       1.10       ----

> <Gold.Chemscore.Fitness>
21.1213

> <Gold.Chemscore.DG>
-22.3800

> <Gold.Chemscore.ZeroCoef>
-5.4800

> <Gold.Chemscore.Hbond>
4.1349

> <Gold.Chemscore.Metal>
0.0000

> <Gold.Chemscore.Lipo>
97.4775

> <Gold.Chemscore.Internal_Hbond>
0.0000

> <Gold.Chemscore.DEClash>
0.1625

> <Gold.Chemscore.DEInternal>
1.0962

> <Gold.Chemscore.Rot>
3.2482

> <Gold.Chemscore.Internal.Correction>
   9.000000E+99

> <Gold.Chemscore.Hbonds>
donor molecule, donor type, donor heavy atom, donor atom, acceptor molecule, acceptor atom, score
      L1  H    12    35       P1  7949  0.34
      P1  H  6896  6907       L1    18  0.64
      P1  H  6896  6908       L1    17  0.89
      P1  H  7997  8009       L1     3  0.35
      P1  H 10752 10765       L1    12  0.93

> <Gold.Chemscore.Hbond.Weighted>
-13.8106

> <Gold.Chemscore.Metal.Weighted>
-0.0000

> <Gold.Chemscore.Lipo.Weighted>
-11.4049

> <Gold.Chemscore.Internal_Hbond.Weighted>
0.0000

> <Gold.Chemscore.DEClash.Weighted>
0.1625

> <Gold.Chemscore.DEInternal.Weighted>
1.0962

> <Gold.Chemscore.Rot.Weighted>
8.3155

> <Gold.Chemscore.Internal.Correction.Weighted>
   9.000000E+99

> <Gold.Protein.RotatedTorsions>
[ 6907 6896 6895 6894 ] final -120.54 input  -60.11 | X-H torsion
[ 7974 7965 7964 7962 ] final -162.55 input  175.53 | X-H torsion
[ 8008 7997 7996 7995 ] final  125.83 input   59.86 | X-H torsion
[ 10167 10162 10161 10158 ] final -153.41 input  -65.29 | X-H torsion
[ 10718 10713 10712 10709 ] final    7.00 input   66.30 | X-H torsion
[ 10763 10752 10751 10750 ] final  157.91 input  -60.55 | X-H torsion
[ 11005 11000 10999 10996 ] final  130.48 input  -57.11 | X-H torsion

> <Gold.Protein.ActiveResidues>
 VAL166  LYS551  ARG553  GLY616  TRP617  ASP618  TYR619  PRO620  LYS621  CYS622 
 ASP623  PHE694  ASN695  SER759  ASP760  ASP761  ALA762  ILE779  LEU786  VAL792 
 PHE793  MET794  SER795  GLU796  ALA797  LYS798  CYS799  TRP800  GLU811  SER814 

> <Gold.Protein.RotatedAtoms>
  150.8402  133.7948  159.3063 H   0  0  0  0  0  0  0  0  0  0  0  0  # atno 6907 bound_to 6896
  151.5652  135.1062  159.9991 H   0  0  0  0  0  0  0  0  0  0  0  0  # atno 6908 bound_to 6896
  152.4467  133.7508  159.6749 H   0  0  0  0  0  0  0  0  0  0  0  0  # atno 6909 bound_to 6896
  144.7354  140.3236  143.6166 H   0  0  0  0  0  0  0  0  0  0  0  0  # atno 7974 bound_to 7965
  156.2846  140.2707  156.2013 H   0  0  0  0  0  0  0  0  0  0  0  0  # atno 8008 bound_to 7997
  155.0358  140.0386  157.2509 H   0  0  0  0  0  0  0  0  0  0  0  0  # atno 8009 bound_to 7997
  154.7316  140.2707  155.6457 H   0  0  0  0  0  0  0  0  0  0  0  0  # atno 8010 bound_to 7997
  139.7099  143.9125  152.2464 H   0  0  0  0  0  0  0  0  0  0  0  0  # atno 10167 bound_to 10162
  156.9304  130.5824  149.5649 H   0  0  0  0  0  0  0  0  0  0  0  0  # atno 10718 bound_to 10713
  154.2077  135.2787  155.2969 H   0  0  0  0  0  0  0  0  0  0  0  0  # atno 10763 bound_to 10752
  154.5803  135.5591  153.7182 H   0  0  0  0  0  0  0  0  0  0  0  0  # atno 10764 bound_to 10752
  153.0072  135.6343  154.2216 H   0  0  0  0  0  0  0  0  0  0  0  0  # atno 10765 bound_to 10752
  139.9675  134.9587  156.9300 H   0  0  0  0  0  0  0  0  0  0  0  0  # atno 11005 bound_to 11000
  145.7543  139.1804  143.2303 LP  0  0  0  0  0  0  0  0  0  0  0  0  # atno 17320 bound_to 7965
  146.1036  140.7514  142.9537 LP  0  0  0  0  0  0  0  0  0  0  0  0  # atno 17321 bound_to 7965
  139.8991  144.6922  150.8685 LP  0  0  0  0  0  0  0  0  0  0  0  0  # atno 17342 bound_to 10162
  140.7731  143.3527  151.1982 LP  0  0  0  0  0  0  0  0  0  0  0  0  # atno 17343 bound_to 10162
  156.0450  130.5527  150.8859 LP  0  0  0  0  0  0  0  0  0  0  0  0  # atno 17370 bound_to 10713
  157.5850  131.0945  150.9210 LP  0  0  0  0  0  0  0  0  0  0  0  0  # atno 17371 bound_to 10713
  140.5365  134.0762  155.7330 LP  0  0  0  0  0  0  0  0  0  0  0  0  # atno 17394 bound_to 11000
  141.1354  133.9230  157.2444 LP  0  0  0  0  0  0  0  0  0  0  0  0  # atno 17395 bound_to 11000

$$$$
