AV-unprocessed.smi:686|AV-procd|sdf|3350|dock1
  -GOLD-   22720 0323D 1   1.00000     0.00000
 Structure written by MMmdl.
 40 41  0  0  0  0  0  0  0  0  3 V2000
  149.9969  132.4948  155.4487 C   0  0  0  0  0  0  0  0  0  0  0  0
  149.2340  133.5224  154.5901 C   0  0  1  0  0  0  0  0  0  0  0  0
  148.7457  132.9542  153.2559 C   0  0  0  0  0  0  0  0  0  0  0  0
  147.7062  133.9006  152.7925 N   0  3  1  0  0  0  0  0  0  0  0  0
  146.7560  133.3698  151.7737 C   0  0  0  0  0  0  0  0  0  0  0  0
  145.7713  134.4519  151.2918 C   0  0  0  0  0  0  0  0  0  0  0  0
  145.9686  132.1663  152.3249 C   0  0  0  0  0  0  0  0  0  0  0  0
  147.0764  134.4859  154.0041 C   0  0  0  0  0  0  0  0  0  0  0  0
  147.9400  134.0754  155.2087 C   0  0  2  0  0  0  0  0  0  0  0  0
  148.2036  135.2032  156.0889 N   0  5  0  0  0  0  0  0  0  0  0  0
  148.3710  134.9427  157.6801 S   0  0  0  0  0  0  0  0  0  0  0  0
  147.7199  133.6965  158.1156 O   0  0  0  0  0  0  0  0  0  0  0  0
  149.7480  135.1746  158.1461 O   0  0  0  0  0  0  0  0  0  0  0  0
  147.3564  136.3218  158.3639 C   0  0  0  0  0  0  0  0  0  0  0  0
  147.4177  136.3117  159.8656 C   0  0  0  0  0  0  0  0  0  0  0  0
  147.7612  135.2349  160.7296 C   0  0  0  0  0  0  0  0  0  0  0  0
  147.6567  135.7799  161.9765 C   0  0  0  0  0  0  0  0  0  0  0  0
  147.2906  137.0840  161.8959 O   0  0  0  0  0  0  0  0  0  0  0  0
  147.1434  137.4154  160.5441 N   0  0  0  0  0  0  0  0  0  0  0  0
  149.3870  131.6231  155.6930 H   0  0  0  0  0  0  0  0  0  0  0  0
  150.3468  132.9308  156.3860 H   0  0  0  0  0  0  0  0  0  0  0  0
  150.8773  132.1333  154.9173 H   0  0  0  0  0  0  0  0  0  0  0  0
  149.9064  134.3533  154.3669 H   0  0  0  0  0  0  0  0  0  0  0  0
  149.5590  132.8739  152.5335 H   0  0  0  0  0  0  0  0  0  0  0  0
  148.3179  131.9555  153.3832 H   0  0  0  0  0  0  0  0  0  0  0  0
  147.3364  133.0353  150.9124 H   0  0  0  0  0  0  0  0  0  0  0  0
  145.0531  134.0373  150.5841 H   0  0  0  0  0  0  0  0  0  0  0  0
  146.2794  135.2692  150.7798 H   0  0  0  0  0  0  0  0  0  0  0  0
  145.2076  134.8751  152.1238 H   0  0  0  0  0  0  0  0  0  0  0  0
  145.2616  131.7904  151.5848 H   0  0  0  0  0  0  0  0  0  0  0  0
  145.4002  132.4394  153.2148 H   0  0  0  0  0  0  0  0  0  0  0  0
  146.6210  131.3344  152.5892 H   0  0  0  0  0  0  0  0  0  0  0  0
  147.0191  135.5682  153.8756 H   0  0  0  0  0  0  0  0  0  0  0  0
  146.0586  134.1198  154.1474 H   0  0  0  0  0  0  0  0  0  0  0  0
  147.4294  133.2554  155.7160 H   0  0  0  0  0  0  0  0  0  0  0  0
  147.7423  137.2599  157.9661 H   0  0  0  0  0  0  0  0  0  0  0  0
  146.3337  136.2039  158.0051 H   0  0  0  0  0  0  0  0  0  0  0  0
  148.0330  134.2218  160.4730 H   0  0  0  0  0  0  0  0  0  0  0  0
  147.8051  135.3886  162.9719 H   0  0  0  0  0  0  0  0  0  0  0  0
  148.2102  134.6607  152.3588 H   0  0  0  0  0  0  0  0  0  0  0  0
  1  2  1  0  0  0  0
  1 20  1  0  0  0  0
  1 21  1  0  0  0  0
  1 22  1  0  0  0  0
  2  9  1  0  0  0  0
  2  3  1  0  0  0  0
  2 23  1  0  0  0  0
  3  4  1  0  0  0  0
  3 24  1  0  0  0  0
  3 25  1  0  0  0  0
  4  5  1  0  0  0  0
  4  8  1  0  0  0  0
  4 40  1  0  0  0  0
  5  6  1  0  0  0  0
  5  7  1  0  0  0  0
  5 26  1  0  0  0  0
  6 27  1  0  0  0  0
  6 28  1  0  0  0  0
  6 29  1  0  0  0  0
  7 30  1  0  0  0  0
  7 31  1  0  0  0  0
  7 32  1  0  0  0  0
  8  9  1  0  0  0  0
  8 33  1  0  0  0  0
  8 34  1  0  0  0  0
  9 10  1  0  0  0  0
  9 35  1  0  0  0  0
 10 11  1  0  0  0  0
 11 12  2  0  0  0  0
 11 13  2  0  0  0  0
 11 14  1  0  0  0  0
 14 15  1  0  0  0  0
 14 36  1  0  0  0  0
 14 37  1  0  0  0  0
 15 19  2  0  0  0  0
 15 16  1  0  0  0  0
 16 17  2  0  0  0  0
 16 38  1  0  0  0  0
 17 18  1  0  0  0  0
 17 39  1  0  0  0  0
 18 19  1  0  0  0  0
M  CHG  1   4   1
M  CHG  1  10  -1
M  END
> <s_m_source_file>
AV-unprocessed.smi

> <i_m_source_file_index>
686

> <i_lp_mmshare_version>
43012

> <i_f3d_flags>
0

> <s_epik_input>
W0NIM11bQ0BASF0xW0NIMl1OKFtDSF0oW0NIM10pW0NIM10pW0NIMl1bQ0BIXTFbTkhdUyg9TykoPU8pW0NIMl1jMltjSF1bY0hdb24y

> <s_epik_cmdline>
J2VwaWtfcHl0aG9uJywgJy1waCcsICc3LjAnLCAnLXRuJywgJzgnLCAnLW1hJywgJzIwMCcsICctbWV0YWxfYmluZGluZycsICctaW1hZScsICc8aW5maWxlLm1hZT4nLCAnLW9tYWUnLCAnPG91dGZpbGUubWFlPic=

> <r_epik_Ionization_Penalty>
3.62478

> <r_epik_Ionization_Penalty_Charging>
3.62478

> <r_epik_Ionization_Penalty_Neutral>
2.03645e-10

> <r_epik_State_Penalty>
3.6247

> <r_epik_Charging_Adjusted_Penalty>
7.24949

> <i_epik_Tot_Q>
0

> <i_epik_Tot_abs_Q>
2

> <r_epik_Metal_State_Penalty>
0.530836

> <b_epik_Metal_Only>
1

> <s_lp_Force_Field>
OPLS_2005

> <r_lp_Energy>
18.1903

> <b_lp_Chiralities_Consistent>
1

> <s_lp_Variant>
AV-unprocessed.smi:686-14

> <Gold.Version>
5.8.1

> <Gold.Id.Protein>
6NUR|6NUR_protein|mol2

> <Gold.PLP.Fitness>
39.2652

> <Gold.PLP.PLP>
-28.9003

> <Gold.PLP.part.hbond>
-5.8704

> <Gold.PLP.part.metal>
0.0000

> <Gold.PLP.part.buried>
-3.4447

> <Gold.PLP.part.nonpolar>
-19.5438

> <Gold.PLP.part.repulsive>
0.0311

> <Gold.PLP.ligand.clash>
0.0000

> <Gold.PLP.ligand.torsion>
1.2564

> <Gold.PLP.Chemscore.Hbond>
3.9480

> <Gold.PLP.Chemscore.CHOScore>
0.0000

> <Gold.PLP.Chemscore.Metal>
0.0000

> <Gold.Chemscore.Hbonds>
donor molecule, donor type, donor heavy atom, donor atom, acceptor molecule, acceptor atom, score
      L1  H     4    40       P1  7948  2.00
      P1  H  6896  6908       L1    13  1.00
      P1  H  6931  6943       L1    18  0.31
      P1  H  6934  6947       L1    19  0.55

> <Gold.PLP.Chemscore.Internal.Correction>
1.0337

> <Gold.Rescore>
     Score         DG    S(hbond)    S(metal)    S(lipo)     H(rot)  DE(clash)    DE(int)     intcor
     16.37     -17.68       2.93        0.00      55.83       1.61       0.00       1.30       ----

> <Gold.Chemscore.Fitness>
16.3739

> <Gold.Chemscore.DG>
-17.6785

> <Gold.Chemscore.ZeroCoef>
-5.4800

> <Gold.Chemscore.Hbond>
2.9344

> <Gold.Chemscore.Metal>
0.0000

> <Gold.Chemscore.Lipo>
55.8263

> <Gold.Chemscore.Internal_Hbond>
0.0000

> <Gold.Chemscore.DEClash>
0.0009

> <Gold.Chemscore.DEInternal>
1.3036

> <Gold.Chemscore.Rot>
1.6149

> <Gold.Chemscore.Internal.Correction>
   9.000000E+99

> <Gold.Chemscore.Hbonds>
donor molecule, donor type, donor heavy atom, donor atom, acceptor molecule, acceptor atom, score
      L1  H     4    40       P1  7948  0.26
      P1  H  6896  6908       L1    13  0.97
      P1  H  6931  6943       L1    18  0.01
      P1  H  6934  6947       L1    19  0.03

> <Gold.Chemscore.Hbond.Weighted>
-9.8009

> <Gold.Chemscore.Metal.Weighted>
-0.0000

> <Gold.Chemscore.Lipo.Weighted>
-6.5317

> <Gold.Chemscore.Internal_Hbond.Weighted>
0.0000

> <Gold.Chemscore.DEClash.Weighted>
0.0009

> <Gold.Chemscore.DEInternal.Weighted>
1.3036

> <Gold.Chemscore.Rot.Weighted>
4.1341

> <Gold.Chemscore.Internal.Correction.Weighted>
   9.000000E+99

> <Gold.Protein.RotatedTorsions>
[ 6907 6896 6895 6894 ] final  155.34 input  -60.11 | X-H torsion
[ 7974 7965 7964 7962 ] final -176.11 input  175.53 | X-H torsion
[ 8008 7997 7996 7995 ] final  -23.95 input   59.86 | X-H torsion
[ 10167 10162 10161 10158 ] final  -99.29 input  -65.29 | X-H torsion
[ 10718 10713 10712 10709 ] final -136.39 input   66.30 | X-H torsion
[ 10763 10752 10751 10750 ] final   65.92 input  -60.55 | X-H torsion
[ 11005 11000 10999 10996 ] final   98.59 input  -57.11 | X-H torsion

> <Gold.Protein.ActiveResidues>
 VAL166  LYS551  ARG553  GLY616  TRP617  ASP618  TYR619  PRO620  LYS621  CYS622 
 ASP623  PHE694  ASN695  SER759  ASP760  ASP761  ALA762  ILE779  LEU786  VAL792 
 PHE793  MET794  SER795  GLU796  ALA797  LYS798  CYS799  TRP800  GLU811  SER814 

> <Gold.Protein.RotatedAtoms>
  152.0455  133.3996  159.4354 H   0  0  0  0  0  0  0  0  0  0  0  0  # atno 6907 bound_to 6896
  150.6873  134.3367  159.4859 H   0  0  0  0  0  0  0  0  0  0  0  0  # atno 6908 bound_to 6896
  152.1170  134.9233  160.0615 H   0  0  0  0  0  0  0  0  0  0  0  0  # atno 6909 bound_to 6896
  144.7127  140.1219  143.6404 H   0  0  0  0  0  0  0  0  0  0  0  0  # atno 7974 bound_to 7965
  154.4556  140.1967  156.0388 H   0  0  0  0  0  0  0  0  0  0  0  0  # atno 8008 bound_to 7997
  156.0740  140.3280  155.7582 H   0  0  0  0  0  0  0  0  0  0  0  0  # atno 8009 bound_to 7997
  155.5218  140.0570  157.2896 H   0  0  0  0  0  0  0  0  0  0  0  0  # atno 8010 bound_to 7997
  140.2640  143.3388  152.0598 H   0  0  0  0  0  0  0  0  0  0  0  0  # atno 10167 bound_to 10162
  156.2765  130.7296  151.1280 H   0  0  0  0  0  0  0  0  0  0  0  0  # atno 10718 bound_to 10713
  153.0117  135.5339  154.6743 H   0  0  0  0  0  0  0  0  0  0  0  0  # atno 10763 bound_to 10752
  154.5919  135.2859  155.0628 H   0  0  0  0  0  0  0  0  0  0  0  0  # atno 10764 bound_to 10752
  154.1718  135.6531  153.5064 H   0  0  0  0  0  0  0  0  0  0  0  0  # atno 10765 bound_to 10752
  139.8772  134.9056  156.4479 H   0  0  0  0  0  0  0  0  0  0  0  0  # atno 11005 bound_to 11000
  145.9363  139.2639  143.1295 LP  0  0  0  0  0  0  0  0  0  0  0  0  # atno 17320 bound_to 7965
  145.9470  140.8937  143.0278 LP  0  0  0  0  0  0  0  0  0  0  0  0  # atno 17321 bound_to 7965
  139.5008  144.6700  151.6265 LP  0  0  0  0  0  0  0  0  0  0  0  0  # atno 17342 bound_to 10162
  140.5943  143.9724  150.6344 LP  0  0  0  0  0  0  0  0  0  0  0  0  # atno 17343 bound_to 10162
  157.7301  131.0619  150.5743 LP  0  0  0  0  0  0  0  0  0  0  0  0  # atno 17370 bound_to 10713
  156.5845  130.4313  149.5963 LP  0  0  0  0  0  0  0  0  0  0  0  0  # atno 17371 bound_to 10713
  140.8953  133.7819  155.9618 LP  0  0  0  0  0  0  0  0  0  0  0  0  # atno 17394 bound_to 11000
  140.8710  134.2726  157.5191 LP  0  0  0  0  0  0  0  0  0  0  0  0  # atno 17395 bound_to 11000

$$$$
