AV-unprocessed.smi:3165|AV-procd|sdf|12086|dock5
  -GOLD-   2272017513D 1   1.00000     0.00000
 Structure written by MMmdl.
 38 39  0  0  0  0  0  0  0  0  2 V2000
  147.0540  141.8805  155.2913 C   0  0  0  0  0  0  0  0  0  0  0  0
  148.3885  141.1572  155.5602 C   0  0  1  0  0  0  0  0  0  0  0  0
  148.8875  140.3717  154.3288 C   0  0  0  0  0  0  0  0  0  0  0  0
  150.0192  139.5097  154.6199 N   0  0  0  0  0  0  0  0  0  0  0  0
  150.1113  138.1395  154.4904 C   0  0  0  0  0  0  0  0  0  0  0  0
  151.3721  137.7796  154.8716 C   0  0  0  0  0  0  0  0  0  0  0  0
  151.9875  139.0156  155.2153 C   0  0  0  0  0  0  0  0  0  0  0  0
  151.1766  140.0498  155.0591 N   0  0  0  0  0  0  0  0  0  0  0  0
  149.4387  142.1085  155.9877 N   0  3  0  0  0  0  0  0  0  0  0  0
  150.0343  141.8474  157.3155 C   0  0  0  0  0  0  0  0  0  0  0  0
  150.5253  143.1508  157.9610 C   0  0  2  0  0  0  0  0  0  0  0  0
  151.9727  143.4847  157.5510 C   0  0  0  0  0  0  0  0  0  0  0  0
  152.4668  144.7376  158.2836 C   0  0  0  0  0  0  0  0  0  0  0  0
  152.2650  144.5677  159.7930 C   0  0  0  0  0  0  0  0  0  0  0  0
  150.8115  144.1720  160.0961 C   0  0  0  0  0  0  0  0  0  0  0  0
  150.4701  142.9901  159.3775 O   0  0  0  0  0  0  0  0  0  0  0  0
  146.2733  141.1795  154.9953 H   0  0  0  0  0  0  0  0  0  0  0  0
  147.1566  142.6167  154.4934 H   0  0  0  0  0  0  0  0  0  0  0  0
  146.6867  142.3981  156.1770 H   0  0  0  0  0  0  0  0  0  0  0  0
  148.2382  140.4440  156.3721 H   0  0  0  0  0  0  0  0  0  0  0  0
  148.0829  139.7562  153.9233 H   0  0  0  0  0  0  0  0  0  0  0  0
  149.1831  141.0592  153.5348 H   0  0  0  0  0  0  0  0  0  0  0  0
  149.2820  137.5405  154.1440 H   0  0  0  0  0  0  0  0  0  0  0  0
  151.7921  136.7853  154.8984 H   0  0  0  0  0  0  0  0  0  0  0  0
  152.9929  139.1910  155.5689 H   0  0  0  0  0  0  0  0  0  0  0  0
  150.1869  142.0596  155.3109 H   0  0  0  0  0  0  0  0  0  0  0  0
  149.3108  141.3603  157.9691 H   0  0  0  0  0  0  0  0  0  0  0  0
  150.8732  141.1609  157.1944 H   0  0  0  0  0  0  0  0  0  0  0  0
  149.8663  143.9680  157.6613 H   0  0  0  0  0  0  0  0  0  0  0  0
  152.6263  142.6439  157.7875 H   0  0  0  0  0  0  0  0  0  0  0  0
  152.0363  143.6360  156.4730 H   0  0  0  0  0  0  0  0  0  0  0  0
  153.5177  144.9213  158.0584 H   0  0  0  0  0  0  0  0  0  0  0  0
  151.9134  145.6102  157.9345 H   0  0  0  0  0  0  0  0  0  0  0  0
  152.9377  143.7959  160.1690 H   0  0  0  0  0  0  0  0  0  0  0  0
  152.5236  145.4894  160.3150 H   0  0  0  0  0  0  0  0  0  0  0  0
  150.6902  143.9830  161.1628 H   0  0  0  0  0  0  0  0  0  0  0  0
  150.1254  144.9798  159.8364 H   0  0  0  0  0  0  0  0  0  0  0  0
  149.0595  143.0448  155.9757 H   0  0  0  0  0  0  0  0  0  0  0  0
  1  2  1  0  0  0  0
  1 17  1  0  0  0  0
  1 18  1  0  0  0  0
  1 19  1  0  0  0  0
  2  3  1  0  0  0  0
  2  9  1  0  0  0  0
  2 20  1  0  0  0  0
  3  4  1  0  0  0  0
  3 21  1  0  0  0  0
  3 22  1  0  0  0  0
  4  8  1  0  0  0  0
  4  5  1  0  0  0  0
  5  6  2  0  0  0  0
  5 23  1  0  0  0  0
  6  7  1  0  0  0  0
  6 24  1  0  0  0  0
  7  8  2  0  0  0  0
  7 25  1  0  0  0  0
  9 10  1  0  0  0  0
  9 26  1  0  0  0  0
  9 38  1  0  0  0  0
 10 11  1  0  0  0  0
 10 27  1  0  0  0  0
 10 28  1  0  0  0  0
 11 16  1  0  0  0  0
 11 12  1  0  0  0  0
 11 29  1  0  0  0  0
 12 13  1  0  0  0  0
 12 30  1  0  0  0  0
 12 31  1  0  0  0  0
 13 14  1  0  0  0  0
 13 32  1  0  0  0  0
 13 33  1  0  0  0  0
 14 15  1  0  0  0  0
 14 34  1  0  0  0  0
 14 35  1  0  0  0  0
 15 16  1  0  0  0  0
 15 36  1  0  0  0  0
 15 37  1  0  0  0  0
M  CHG  1   9   1
M  END
> <s_m_source_file>
AV-unprocessed.smi

> <i_m_source_file_index>
3165

> <i_lp_mmshare_version>
43012

> <i_f3d_flags>
0

> <s_epik_input>
bjFbY0hdW2NIXVtjSF1uMVtDSDJdW0NAQEhdKFtDSDNdKVtOSF1bQ0gyXVtDQEBIXTJbQ0gyXVtDSDJdW0NIMl1bQ0gyXU8y

> <s_epik_cmdline>
J2VwaWtfcHl0aG9uJywgJy1waCcsICc3LjAnLCAnLXRuJywgJzgnLCAnLW1hJywgJzIwMCcsICctbWV0YWxfYmluZGluZycsICctaW1hZScsICc8aW5maWxlLm1hZT4nLCAnLW9tYWUnLCAnPG91dGZpbGUubWFlPic=

> <r_lp_tautomer_probability>
1

> <r_epik_Ionization_Penalty>
0.00849196

> <r_epik_Ionization_Penalty_Charging>
0.00848754

> <r_epik_Ionization_Penalty_Neutral>
4.42049e-06

> <r_epik_State_Penalty>
0.00639836

> <r_epik_Charging_Adjusted_Penalty>
0.0148859

> <i_epik_Tot_Q>
1

> <i_epik_Tot_abs_Q>
1

> <r_epik_Metal_State_Penalty>
0.00639878

> <b_epik_Metal_Only>
0

> <s_lp_Force_Field>
OPLS_2005

> <r_lp_Energy>
12.7684

> <b_lp_Chiralities_Consistent>
1

> <s_lp_Variant>
AV-unprocessed.smi:3165-2

> <Gold.Version>
5.8.1

> <Gold.Id.Protein>
6NUR|6NUR_protein|mol2

> <Gold.PLP.Fitness>
46.5413

> <Gold.PLP.PLP>
-37.3313

> <Gold.PLP.part.hbond>
-2.9276

> <Gold.PLP.part.metal>
0.0000

> <Gold.PLP.part.buried>
-3.1562

> <Gold.PLP.part.nonpolar>
-32.0052

> <Gold.PLP.part.repulsive>
0.2217

> <Gold.PLP.ligand.clash>
0.0000

> <Gold.PLP.ligand.torsion>
1.2797

> <Gold.PLP.Chemscore.Hbond>
2.9000

> <Gold.PLP.Chemscore.CHOScore>
0.9970

> <Gold.PLP.Chemscore.Metal>
0.0000

> <Gold.Chemscore.Hbonds>
donor molecule, donor type, donor heavy atom, donor atom, acceptor molecule, acceptor atom, score
      L1  H     9    38       P1  8028  2.00
      P1  H  7989  7998       L1     8  0.85
      L1  C     5    23       P1  7948  0.74

> <Gold.PLP.Chemscore.Internal.Correction>
0.0785

> <Gold.Rescore>
     Score         DG    S(hbond)    S(metal)    S(lipo)     H(rot)  DE(clash)    DE(int)     intcor
     15.81     -17.33       1.26        0.00     101.21       1.64       0.18       1.35       ----

> <Gold.Chemscore.Fitness>
15.8065

> <Gold.Chemscore.DG>
-17.3331

> <Gold.Chemscore.ZeroCoef>
-5.4800

> <Gold.Chemscore.Hbond>
1.2637

> <Gold.Chemscore.Metal>
0.0000

> <Gold.Chemscore.Lipo>
101.2136

> <Gold.Chemscore.Internal_Hbond>
0.0000

> <Gold.Chemscore.DEClash>
0.1807

> <Gold.Chemscore.DEInternal>
1.3459

> <Gold.Chemscore.Rot>
1.6444

> <Gold.Chemscore.Internal.Correction>
   9.000000E+99

> <Gold.Chemscore.Hbonds>
donor molecule, donor type, donor heavy atom, donor atom, acceptor molecule, acceptor atom, score
      L1  H     9    38       P1  8028  1.00
      P1  H  7989  7998       L1     8  0.09

> <Gold.Chemscore.Hbond.Weighted>
-4.2208

> <Gold.Chemscore.Metal.Weighted>
-0.0000

> <Gold.Chemscore.Lipo.Weighted>
-11.8420

> <Gold.Chemscore.Internal_Hbond.Weighted>
0.0000

> <Gold.Chemscore.DEClash.Weighted>
0.1807

> <Gold.Chemscore.DEInternal.Weighted>
1.3459

> <Gold.Chemscore.Rot.Weighted>
4.2097

> <Gold.Chemscore.Internal.Correction.Weighted>
   9.000000E+99

> <Gold.Protein.RotatedTorsions>
[ 6907 6896 6895 6894 ] final  145.45 input  -60.11 | X-H torsion
[ 7974 7965 7964 7962 ] final  -39.86 input  175.53 | X-H torsion
[ 8008 7997 7996 7995 ] final -174.15 input   59.86 | X-H torsion
[ 10167 10162 10161 10158 ] final -158.96 input  -65.29 | X-H torsion
[ 10718 10713 10712 10709 ] final   -5.30 input   66.30 | X-H torsion
[ 10763 10752 10751 10750 ] final -162.66 input  -60.55 | X-H torsion
[ 11005 11000 10999 10996 ] final   71.98 input  -57.11 | X-H torsion

> <Gold.Protein.ActiveResidues>
 VAL166  LYS551  ARG553  GLY616  TRP617  ASP618  TYR619  PRO620  LYS621  CYS622 
 ASP623  PHE694  ASN695  SER759  ASP760  ASP761  ALA762  ILE779  LEU786  VAL792 
 PHE793  MET794  SER795  GLU796  ALA797  LYS798  CYS799  TRP800  GLU811  SER814 

> <Gold.Protein.RotatedAtoms>
  152.1807  133.4705  159.4956 H   0  0  0  0  0  0  0  0  0  0  0  0  # atno 6907 bound_to 6896
  150.6934  134.1837  159.4267 H   0  0  0  0  0  0  0  0  0  0  0  0  # atno 6908 bound_to 6896
  151.9748  135.0058  160.0605 H   0  0  0  0  0  0  0  0  0  0  0  0  # atno 6909 bound_to 6896
  146.0357  140.6674  142.9111 H   0  0  0  0  0  0  0  0  0  0  0  0  # atno 7974 bound_to 7965
  155.9665  140.1154  157.0850 H   0  0  0  0  0  0  0  0  0  0  0  0  # atno 8008 bound_to 7997
  154.4145  140.1171  156.5316 H   0  0  0  0  0  0  0  0  0  0  0  0  # atno 8009 bound_to 7997
  155.6653  140.3473  155.4800 H   0  0  0  0  0  0  0  0  0  0  0  0  # atno 8010 bound_to 7997
  139.6652  143.9842  152.2250 H   0  0  0  0  0  0  0  0  0  0  0  0  # atno 10167 bound_to 10162
  156.7486  130.5232  149.5808 H   0  0  0  0  0  0  0  0  0  0  0  0  # atno 10718 bound_to 10713
  154.7194  135.3022  154.9072 H   0  0  0  0  0  0  0  0  0  0  0  0  # atno 10763 bound_to 10752
  153.9949  135.6714  153.4760 H   0  0  0  0  0  0  0  0  0  0  0  0  # atno 10764 bound_to 10752
  153.0821  135.5003  154.8439 H   0  0  0  0  0  0  0  0  0  0  0  0  # atno 10765 bound_to 10752
  139.9515  134.7219  156.0852 H   0  0  0  0  0  0  0  0  0  0  0  0  # atno 11005 bound_to 11000
  144.7051  140.3817  143.7125 LP  0  0  0  0  0  0  0  0  0  0  0  0  # atno 17320 bound_to 7965
  145.6967  139.1651  143.2616 LP  0  0  0  0  0  0  0  0  0  0  0  0  # atno 17321 bound_to 7965
  139.9591  144.6569  150.8096 LP  0  0  0  0  0  0  0  0  0  0  0  0  # atno 17342 bound_to 10162
  140.7596  143.3133  151.2793 LP  0  0  0  0  0  0  0  0  0  0  0  0  # atno 17343 bound_to 10162
  156.1416  130.6248  151.0475 LP  0  0  0  0  0  0  0  0  0  0  0  0  # atno 17370 bound_to 10713
  157.6787  131.0844  150.7427 LP  0  0  0  0  0  0  0  0  0  0  0  0  # atno 17371 bound_to 10713
  141.1178  133.6622  156.3139 LP  0  0  0  0  0  0  0  0  0  0  0  0  # atno 17394 bound_to 11000
  140.5708  134.5842  157.5457 LP  0  0  0  0  0  0  0  0  0  0  0  0  # atno 17395 bound_to 11000

$$$$
