AV-unprocessed.smi:229|AV-procd|sdf|1747|dock8
  -GOLD-   2262020263D 1   1.00000     0.00000
 Structure written by MMmdl.
 58 62  0  0  0  0  0  0  0  0  1 V2000
  154.2018  140.8097  161.4002 C   0  0  0  0  0  0  0  0  0  0  0  0
  153.8100  140.1480  160.0723 C   0  0  0  0  0  0  0  0  0  0  0  0
  152.6327  140.8356  159.3615 C   0  0  2  0  0  0  0  0  0  0  0  0
  152.3964  140.3005  157.9371 C   0  0  0  0  0  0  0  0  0  0  0  0
  151.3506  141.0750  157.2814 N   0  0  0  0  0  0  0  0  0  0  0  0
  150.8247  140.5042  156.1681 C   0  0  0  0  0  0  0  0  0  0  0  0
  151.4783  139.4812  155.5543 N   0  0  0  0  0  0  0  0  0  0  0  0
  150.9625  138.9075  154.4631 C   0  0  0  0  0  0  0  0  0  0  0  0
  149.8267  139.1973  153.8259 N   0  0  0  0  0  0  0  0  0  0  0  0
  149.1699  140.2275  154.4309 C   0  0  0  0  0  0  0  0  0  0  0  0
  149.5940  140.9316  155.5936 C   0  0  0  0  0  0  0  0  0  0  0  0
  148.6729  141.9256  155.9056 N   0  0  0  0  0  0  0  0  0  0  0  0
  147.7520  141.8072  154.9887 C   0  0  0  0  0  0  0  0  0  0  0  0
  147.9698  140.8112  154.0647 N   0  0  0  0  0  0  0  0  0  0  0  0
  147.1097  140.4626  152.9476 C   0  0  0  0  0  0  0  0  0  0  0  0
  146.8609  138.9446  152.8499 C   0  0  2  0  0  0  0  0  0  0  0  0
  145.8854  138.6594  151.8651 O   0  0  0  0  0  0  0  0  0  0  0  0
  146.4709  138.3152  154.2031 C   0  0  2  0  0  0  0  0  0  0  0  0
  146.2641  136.7978  154.2168 C   0  0  0  0  0  0  0  0  0  0  0  0
  145.3699  136.6335  155.4255 C   0  0  0  0  0  0  0  0  0  0  0  0
  144.4714  137.8630  155.3166 C   0  0  0  0  0  0  0  0  0  0  0  0
  145.2775  138.8848  154.7363 O   0  0  0  0  0  0  0  0  0  0  0  0
  151.6400  142.5051  157.2522 C   0  0  0  0  0  0  0  0  0  0  0  0
  151.9226  143.0363  158.6762 C   0  0  1  0  0  0  0  0  0  0  0  0
  152.4358  144.4720  158.6325 C   0  0  0  0  0  0  0  0  0  0  0  0
  151.1769  145.2986  158.8454 C   0  0  0  0  0  0  0  0  0  0  0  0
  150.4916  144.5547  159.8351 O   0  0  0  0  0  0  0  0  0  0  0  0
  150.6458  143.1711  159.5393 C   0  0  0  0  0  0  0  0  0  0  0  0
  152.9318  142.2314  159.2935 O   0  0  0  0  0  0  0  0  0  0  0  0
  155.0782  140.3236  161.8289 H   0  0  0  0  0  0  0  0  0  0  0  0
  153.3994  140.7434  162.1348 H   0  0  0  0  0  0  0  0  0  0  0  0
  154.4431  141.8635  161.2589 H   0  0  0  0  0  0  0  0  0  0  0  0
  154.6775  140.1650  159.4115 H   0  0  0  0  0  0  0  0  0  0  0  0
  153.5783  139.0955  160.2403 H   0  0  0  0  0  0  0  0  0  0  0  0
  151.7330  140.6828  159.9581 H   0  0  0  0  0  0  0  0  0  0  0  0
  153.3122  140.3765  157.3493 H   0  0  0  0  0  0  0  0  0  0  0  0
  152.1354  139.2443  157.9779 H   0  0  0  0  0  0  0  0  0  0  0  0
  151.5425  138.1007  154.0402 H   0  0  0  0  0  0  0  0  0  0  0  0
  146.8815  142.4464  154.9614 H   0  0  0  0  0  0  0  0  0  0  0  0
  146.1640  140.9918  153.0689 H   0  0  0  0  0  0  0  0  0  0  0  0
  147.5604  140.8386  152.0283 H   0  0  0  0  0  0  0  0  0  0  0  0
  147.7824  138.4664  152.5160 H   0  0  0  0  0  0  0  0  0  0  0  0
  145.0949  139.1301  152.0802 H   0  0  0  0  0  0  0  0  0  0  0  0
  147.2558  138.5477  154.9248 H   0  0  0  0  0  0  0  0  0  0  0  0
  145.7379  136.4528  153.3261 H   0  0  0  0  0  0  0  0  0  0  0  0
  147.1991  136.2425  154.2968 H   0  0  0  0  0  0  0  0  0  0  0  0
  144.8124  135.6965  155.4250 H   0  0  0  0  0  0  0  0  0  0  0  0
  145.9625  136.6800  156.3403 H   0  0  0  0  0  0  0  0  0  0  0  0
  143.6343  137.6621  154.6467 H   0  0  0  0  0  0  0  0  0  0  0  0
  144.0671  138.1722  156.2806 H   0  0  0  0  0  0  0  0  0  0  0  0
  152.5108  142.6689  156.6155 H   0  0  0  0  0  0  0  0  0  0  0  0
  150.8086  143.0527  156.8055 H   0  0  0  0  0  0  0  0  0  0  0  0
  153.1213  144.6517  159.4623 H   0  0  0  0  0  0  0  0  0  0  0  0
  152.9609  144.7241  157.7107 H   0  0  0  0  0  0  0  0  0  0  0  0
  151.3885  146.3147  159.1790 H   0  0  0  0  0  0  0  0  0  0  0  0
  150.5771  145.3473  157.9353 H   0  0  0  0  0  0  0  0  0  0  0  0
  149.7632  142.8161  159.0056 H   0  0  0  0  0  0  0  0  0  0  0  0
  150.7073  142.6213  160.4780 H   0  0  0  0  0  0  0  0  0  0  0  0
  1  2  1  0  0  0  0
  1 30  1  0  0  0  0
  1 31  1  0  0  0  0
  1 32  1  0  0  0  0
  2  3  1  0  0  0  0
  2 33  1  0  0  0  0
  2 34  1  0  0  0  0
  3 29  1  0  0  0  0
  3  4  1  0  0  0  0
  3 35  1  0  0  0  0
  4  5  1  0  0  0  0
  4 36  1  0  0  0  0
  4 37  1  0  0  0  0
  5  6  1  0  0  0  0
  5 23  1  0  0  0  0
  6 11  1  0  0  0  0
  6  7  2  0  0  0  0
  7  8  1  0  0  0  0
  8  9  2  0  0  0  0
  8 38  1  0  0  0  0
  9 10  1  0  0  0  0
 10 14  1  0  0  0  0
 10 11  2  0  0  0  0
 11 12  1  0  0  0  0
 12 13  2  0  0  0  0
 13 14  1  0  0  0  0
 13 39  1  0  0  0  0
 14 15  1  0  0  0  0
 15 16  1  0  0  0  0
 15 40  1  0  0  0  0
 15 41  1  0  0  0  0
 16 17  1  0  0  0  0
 16 18  1  0  0  0  0
 16 42  1  0  0  0  0
 17 43  1  0  0  0  0
 18 22  1  0  0  0  0
 18 19  1  0  0  0  0
 18 44  1  0  0  0  0
 19 20  1  0  0  0  0
 19 45  1  0  0  0  0
 19 46  1  0  0  0  0
 20 21  1  0  0  0  0
 20 47  1  0  0  0  0
 20 48  1  0  0  0  0
 21 22  1  0  0  0  0
 21 49  1  0  0  0  0
 21 50  1  0  0  0  0
 23 24  1  0  0  0  0
 23 51  1  0  0  0  0
 23 52  1  0  0  0  0
 24 28  1  0  0  0  0
 24 25  1  0  0  0  0
 24 29  1  0  0  0  0
 25 26  1  0  0  0  0
 25 53  1  0  0  0  0
 25 54  1  0  0  0  0
 26 27  1  0  0  0  0
 26 55  1  0  0  0  0
 26 56  1  0  0  0  0
 27 28  1  0  0  0  0
 28 57  1  0  0  0  0
 28 58  1  0  0  0  0
M  END
> <s_m_source_file>
AV-unprocessed.smi

> <i_m_source_file_index>
229

> <i_lp_mmshare_version>
43012

> <i_f3d_flags>
0

> <s_epik_input>
W0NIMl0xT1tDSDJdW0NIMl1bQ0BdMTJbQ0gyXU4oW0NIMl1bQ0BIXShPMilbQ0gyXVtDSDNdKWMobltjSF1uMyljKGMzNCluW2NIXW40W0NIMl1bQ0BIXShbT0hdKVtDQEBIXTVbQ0gyXVtDSDJdW0NIMl1PNQ==

> <s_epik_cmdline>
J2VwaWtfcHl0aG9uJywgJy1waCcsICc3LjAnLCAnLXRuJywgJzgnLCAnLW1hJywgJzIwMCcsICctbWV0YWxfYmluZGluZycsICctaW1hZScsICc8aW5maWxlLm1hZT4nLCAnLW9tYWUnLCAnPG91dGZpbGUubWFlPic=

> <r_lp_tautomer_probability>
1

> <r_epik_Ionization_Penalty>
0.00318402

> <r_epik_Ionization_Penalty_Charging>
0

> <r_epik_Ionization_Penalty_Neutral>
0.00318402

> <r_epik_State_Penalty>
0.00215642

> <r_epik_Charging_Adjusted_Penalty>
0.00215642

> <i_epik_Tot_Q>
0

> <i_epik_Tot_abs_Q>
0

> <r_epik_Metal_State_Penalty>
-0

> <b_epik_Metal_Only>
0

> <s_lp_Force_Field>
OPLS_2005

> <r_lp_Energy>
57.781

> <b_lp_Chiralities_Consistent>
1

> <s_lp_Variant>
AV-unprocessed.smi:229-1

> <Gold.Version>
5.8.1

> <Gold.Id.Protein>
6NUR|6NUR_protein|mol2

> <Gold.PLP.Fitness>
45.3695

> <Gold.PLP.PLP>
-42.9278

> <Gold.PLP.part.hbond>
-2.0000

> <Gold.PLP.part.metal>
0.0000

> <Gold.PLP.part.buried>
-6.4118

> <Gold.PLP.part.nonpolar>
-39.0794

> <Gold.PLP.part.repulsive>
4.7021

> <Gold.PLP.ligand.clash>
0.0000

> <Gold.PLP.ligand.torsion>
0.4560

> <Gold.PLP.Chemscore.Hbond>
1.0000

> <Gold.PLP.Chemscore.CHOScore>
0.0000

> <Gold.PLP.Chemscore.Metal>
0.0000

> <Gold.Chemscore.Hbonds>
donor molecule, donor type, donor heavy atom, donor atom, acceptor molecule, acceptor atom, score
      L1  H    17    43       P1 10175  1.00

> <Gold.PLP.Chemscore.Internal.Correction>
0.3538

> <Gold.Rescore>
     Score         DG    S(hbond)    S(metal)    S(lipo)     H(rot)  DE(clash)    DE(int)     intcor
     12.76     -14.74       1.00        0.00     104.40       2.46       1.46       0.51       ----

> <Gold.Chemscore.Fitness>
12.7608

> <Gold.Chemscore.DG>
-14.7374

> <Gold.Chemscore.ZeroCoef>
-5.4800

> <Gold.Chemscore.Hbond>
0.9995

> <Gold.Chemscore.Metal>
0.0000

> <Gold.Chemscore.Lipo>
104.3980

> <Gold.Chemscore.Internal_Hbond>
0.0000

> <Gold.Chemscore.DEClash>
1.4637

> <Gold.Chemscore.DEInternal>
0.5130

> <Gold.Chemscore.Rot>
2.4591

> <Gold.Chemscore.Internal.Correction>
   9.000000E+99

> <Gold.Chemscore.Hbonds>
donor molecule, donor type, donor heavy atom, donor atom, acceptor molecule, acceptor atom, score
      L1  H    17    43       P1 10175  0.98

> <Gold.Chemscore.Hbond.Weighted>
-3.3382

> <Gold.Chemscore.Metal.Weighted>
-0.0000

> <Gold.Chemscore.Lipo.Weighted>
-12.2146

> <Gold.Chemscore.Internal_Hbond.Weighted>
0.0000

> <Gold.Chemscore.DEClash.Weighted>
1.4637

> <Gold.Chemscore.DEInternal.Weighted>
0.5130

> <Gold.Chemscore.Rot.Weighted>
6.2953

> <Gold.Chemscore.Internal.Correction.Weighted>
   9.000000E+99

> <Gold.Protein.RotatedTorsions>
[ 6907 6896 6895 6894 ] final    6.87 input  -60.11 | X-H torsion
[ 7974 7965 7964 7962 ] final  150.76 input  175.53 | X-H torsion
[ 8008 7997 7996 7995 ] final -178.79 input   59.86 | X-H torsion
[ 10167 10162 10161 10158 ] final   68.56 input  -65.29 | X-H torsion
[ 10718 10713 10712 10709 ] final -119.23 input   66.30 | X-H torsion
[ 10763 10752 10751 10750 ] final   86.96 input  -60.55 | X-H torsion
[ 11005 11000 10999 10996 ] final   69.84 input  -57.11 | X-H torsion

> <Gold.Protein.ActiveResidues>
 VAL166  LYS551  ARG553  GLY616  TRP617  ASP618  TYR619  PRO620  LYS621  CYS622 
 ASP623  PHE694  ASN695  SER759  ASP760  ASP761  ALA762  ILE779  LEU786  VAL792 
 PHE793  MET794  SER795  GLU796  ALA797  LYS798  CYS799  TRP800  GLU811  SER814 

> <Gold.Protein.RotatedAtoms>
  151.6808  135.0962  160.0215 H   0  0  0  0  0  0  0  0  0  0  0  0  # atno 6907 bound_to 6896
  152.3837  133.6577  159.6190 H   0  0  0  0  0  0  0  0  0  0  0  0  # atno 6908 bound_to 6896
  150.7767  133.8988  159.3376 H   0  0  0  0  0  0  0  0  0  0  0  0  # atno 6909 bound_to 6896
  144.8340  139.6450  143.6046 H   0  0  0  0  0  0  0  0  0  0  0  0  # atno 7974 bound_to 7965
  156.0229  140.1265  157.0339 H   0  0  0  0  0  0  0  0  0  0  0  0  # atno 8008 bound_to 7997
  154.4319  140.1065  156.6059 H   0  0  0  0  0  0  0  0  0  0  0  0  # atno 8009 bound_to 7997
  155.5918  140.3469  155.4571 H   0  0  0  0  0  0  0  0  0  0  0  0  # atno 8010 bound_to 7997
  140.0773  144.5101  150.7186 H   0  0  0  0  0  0  0  0  0  0  0  0  # atno 10167 bound_to 10162
  156.1165  130.6290  150.9391 H   0  0  0  0  0  0  0  0  0  0  0  0  # atno 10718 bound_to 10713
  153.1622  135.4561  154.9787 H   0  0  0  0  0  0  0  0  0  0  0  0  # atno 10763 bound_to 10752
  154.7906  135.3219  154.7789 H   0  0  0  0  0  0  0  0  0  0  0  0  # atno 10764 bound_to 10752
  153.8277  135.6941  153.4873 H   0  0  0  0  0  0  0  0  0  0  0  0  # atno 10765 bound_to 10752
  139.9631  134.7027  156.0603 H   0  0  0  0  0  0  0  0  0  0  0  0  # atno 11005 bound_to 11000
  146.2641  139.6478  142.9342 LP  0  0  0  0  0  0  0  0  0  0  0  0  # atno 17320 bound_to 7965
  145.4833  141.0438  143.2633 LP  0  0  0  0  0  0  0  0  0  0  0  0  # atno 17321 bound_to 7965
  140.7095  143.2494  151.4623 LP  0  0  0  0  0  0  0  0  0  0  0  0  # atno 17342 bound_to 10162
  139.5800  144.1731  152.1956 LP  0  0  0  0  0  0  0  0  0  0  0  0  # atno 17343 bound_to 10162
  157.6349  131.0917  150.8369 LP  0  0  0  0  0  0  0  0  0  0  0  0  # atno 17370 bound_to 10713
  156.8471  130.5068  149.5315 LP  0  0  0  0  0  0  0  0  0  0  0  0  # atno 17371 bound_to 10713
  141.1309  133.6586  156.3463 LP  0  0  0  0  0  0  0  0  0  0  0  0  # atno 17394 bound_to 11000
  140.5456  134.6078  157.5393 LP  0  0  0  0  0  0  0  0  0  0  0  0  # atno 17395 bound_to 11000

$$$$
