AV-unprocessed.smi:92|AV-procd|sdf|843|dock6
  -GOLD-   2262017283D 1   1.00000     0.00000
 Structure written by MMmdl.
 61 64  0  0  0  0  0  0  0  0  2 V2000
  146.7156  128.9128  151.6396 C   0  0  0  0  0  0  0  0  0  0  0  0
  146.4352  130.3180  152.1903 C   0  0  0  0  0  0  0  0  0  0  0  0
  146.7884  131.3902  151.2215 N   0  3  2  0  0  0  0  0  0  0  0  0
  147.1111  132.6879  151.8618 C   0  0  0  0  0  0  0  0  0  0  0  0
  145.8457  133.3713  152.3972 C   0  0  0  0  0  0  0  0  0  0  0  0
  144.7993  133.6007  151.2810 C   0  0  2  0  0  0  0  0  0  0  0  0
  143.6048  134.2959  151.7897 N   0  0  0  0  0  0  0  0  0  0  0  0
  142.3757  133.5643  152.0703 C   0  0  0  0  0  0  0  0  0  0  0  0
  143.7597  135.4351  152.5039 C   0  0  0  0  0  0  0  0  0  0  0  0
  142.8973  135.6520  153.5284 N   0  0  0  0  0  0  0  0  0  0  0  0
  142.9974  136.7626  154.2646 C   0  0  0  0  0  0  0  0  0  0  0  0
  143.8694  137.7657  154.1465 N   0  0  0  0  0  0  0  0  0  0  0  0
  144.7451  137.5459  153.1242 C   0  0  0  0  0  0  0  0  0  0  0  0
  144.7688  136.4103  152.2660 C   0  0  0  0  0  0  0  0  0  0  0  0
  145.8137  136.5274  151.3582 N   0  0  0  0  0  0  0  0  0  0  0  0
  146.3784  137.6630  151.6646 C   0  0  0  0  0  0  0  0  0  0  0  0
  145.7778  138.3587  152.6894 N   0  0  0  0  0  0  0  0  0  0  0  0
  146.2048  139.6107  153.2422 C   0  0  0  0  0  0  0  0  0  0  0  0
  147.3153  140.4275  152.5750 C   0  0  0  0  0  0  0  0  0  0  0  0
  147.8508  140.8574  153.9584 C   0  0  0  0  0  0  0  0  0  0  0  0
  149.3724  140.7360  154.1350 C   0  0  0  0  0  0  0  0  0  0  0  0
  149.9300  139.8238  153.2104 O   0  0  0  0  0  0  0  0  0  0  0  0
  147.4438  142.2588  154.4653 C   0  0  0  0  0  0  0  0  0  0  0  0
  147.7816  143.2975  153.5687 O   0  0  0  0  0  0  0  0  0  0  0  0
  147.0465  139.6644  154.5218 C   0  0  0  0  0  0  0  0  0  0  0  0
  144.5046  132.2638  150.5372 C   0  0  1  0  0  0  0  0  0  0  0  0
  143.6247  132.4365  149.2850 C   0  0  0  0  0  0  0  0  0  0  0  0
  145.8224  131.5717  150.1067 C   0  0  0  0  0  0  0  0  0  0  0  0
  146.5379  128.1591  152.4071 H   0  0  0  0  0  0  0  0  0  0  0  0
  147.7524  128.8154  151.3163 H   0  0  0  0  0  0  0  0  0  0  0  0
  146.0734  128.6680  150.7941 H   0  0  0  0  0  0  0  0  0  0  0  0
  145.3957  130.4006  152.5068 H   0  0  0  0  0  0  0  0  0  0  0  0
  147.0369  130.4452  153.0912 H   0  0  0  0  0  0  0  0  0  0  0  0
  147.8385  132.5447  152.6619 H   0  0  0  0  0  0  0  0  0  0  0  0
  147.5918  133.3324  151.1246 H   0  0  0  0  0  0  0  0  0  0  0  0
  145.4315  132.7601  153.1991 H   0  0  0  0  0  0  0  0  0  0  0  0
  146.1159  134.3264  152.8491 H   0  0  0  0  0  0  0  0  0  0  0  0
  145.2577  134.2781  150.5592 H   0  0  0  0  0  0  0  0  0  0  0  0
  142.2138  133.4290  153.1394 H   0  0  0  0  0  0  0  0  0  0  0  0
  142.3911  132.5800  151.6020 H   0  0  0  0  0  0  0  0  0  0  0  0
  141.5215  134.1098  151.6685 H   0  0  0  0  0  0  0  0  0  0  0  0
  142.2730  136.8641  155.0594 H   0  0  0  0  0  0  0  0  0  0  0  0
  147.2485  138.0303  151.1400 H   0  0  0  0  0  0  0  0  0  0  0  0
  145.3000  140.2100  153.3506 H   0  0  0  0  0  0  0  0  0  0  0  0
  148.0187  139.7986  152.0264 H   0  0  0  0  0  0  0  0  0  0  0  0
  146.9568  141.2454  151.9492 H   0  0  0  0  0  0  0  0  0  0  0  0
  149.8622  141.7033  154.0177 H   0  0  0  0  0  0  0  0  0  0  0  0
  149.6211  140.3845  155.1370 H   0  0  0  0  0  0  0  0  0  0  0  0
  149.4979  139.9374  152.3777 H   0  0  0  0  0  0  0  0  0  0  0  0
  146.3686  142.3091  154.6404 H   0  0  0  0  0  0  0  0  0  0  0  0
  147.9252  142.4838  155.4173 H   0  0  0  0  0  0  0  0  0  0  0  0
  148.0660  142.9110  152.7546 H   0  0  0  0  0  0  0  0  0  0  0  0
  146.4758  139.8810  155.4254 H   0  0  0  0  0  0  0  0  0  0  0  0
  147.6554  138.7686  154.6552 H   0  0  0  0  0  0  0  0  0  0  0  0
  143.9798  131.5939  151.2176 H   0  0  0  0  0  0  0  0  0  0  0  0
  144.0609  133.1534  148.5887 H   0  0  0  0  0  0  0  0  0  0  0  0
  142.6206  132.7758  149.5283 H   0  0  0  0  0  0  0  0  0  0  0  0
  143.5100  131.4904  148.7552 H   0  0  0  0  0  0  0  0  0  0  0  0
  146.3121  132.1768  149.3422 H   0  0  0  0  0  0  0  0  0  0  0  0
  145.6129  130.6137  149.6322 H   0  0  0  0  0  0  0  0  0  0  0  0
  147.6511  131.0808  150.7965 H   0  0  0  0  0  0  0  0  0  0  0  0
  1  2  1  0  0  0  0
  1 29  1  0  0  0  0
  1 30  1  0  0  0  0
  1 31  1  0  0  0  0
  2  3  1  0  0  0  0
  2 32  1  0  0  0  0
  2 33  1  0  0  0  0
  3 28  1  0  0  0  0
  3  4  1  0  0  0  0
  3 61  1  0  0  0  0
  4  5  1  0  0  0  0
  4 34  1  0  0  0  0
  4 35  1  0  0  0  0
  5  6  1  0  0  0  0
  5 36  1  0  0  0  0
  5 37  1  0  0  0  0
  6  7  1  0  0  0  0
  6 26  1  0  0  0  0
  6 38  1  0  0  0  0
  7  8  1  0  0  0  0
  7  9  1  0  0  0  0
  8 39  1  0  0  0  0
  8 40  1  0  0  0  0
  8 41  1  0  0  0  0
  9 14  1  0  0  0  0
  9 10  2  0  0  0  0
 10 11  1  0  0  0  0
 11 12  2  0  0  0  0
 11 42  1  0  0  0  0
 12 13  1  0  0  0  0
 13 17  1  0  0  0  0
 13 14  2  0  0  0  0
 14 15  1  0  0  0  0
 15 16  2  0  0  0  0
 16 17  1  0  0  0  0
 16 43  1  0  0  0  0
 17 18  1  0  0  0  0
 18 25  1  0  0  0  0
 18 19  1  0  0  0  0
 18 44  1  0  0  0  0
 19 20  1  0  0  0  0
 19 45  1  0  0  0  0
 19 46  1  0  0  0  0
 20 21  1  0  0  0  0
 20 23  1  0  0  0  0
 20 25  1  0  0  0  0
 21 22  1  0  0  0  0
 21 47  1  0  0  0  0
 21 48  1  0  0  0  0
 22 49  1  0  0  0  0
 23 24  1  0  0  0  0
 23 50  1  0  0  0  0
 23 51  1  0  0  0  0
 24 52  1  0  0  0  0
 25 53  1  0  0  0  0
 25 54  1  0  0  0  0
 26 27  1  0  0  0  0
 26 28  1  0  0  0  0
 26 55  1  0  0  0  0
 27 56  1  0  0  0  0
 27 57  1  0  0  0  0
 27 58  1  0  0  0  0
 28 59  1  0  0  0  0
 28 60  1  0  0  0  0
M  CHG  1   3   1
M  END
> <s_m_source_file>
AV-unprocessed.smi

> <i_m_source_file_index>
92

> <i_lp_mmshare_version>
43012

> <i_f3d_flags>
0

> <s_epik_input>
W0NIM11bQ0gyXU4xW0NIMl1bQ0gyXVtDQEhdKFtDQEBIXShbQ0gzXSlbQ0gyXTEpTihbQ0gzXSljKG5bY0hdbjIpYyhjMjMpbltjSF1uM1tDSF0oW0NIMl00KVtDSDJdQzQoW0NIMl1bT0hdKVtDSDJdW09IXQ==

> <s_epik_cmdline>
J2VwaWtfcHl0aG9uJywgJy1waCcsICc3LjAnLCAnLXRuJywgJzgnLCAnLW1hJywgJzIwMCcsICctbWV0YWxfYmluZGluZycsICctaW1hZScsICc8aW5maWxlLm1hZT4nLCAnLW9tYWUnLCAnPG91dGZpbGUubWFlPic=

> <r_lp_tautomer_probability>
1

> <r_epik_Ionization_Penalty>
0.00235514

> <r_epik_Ionization_Penalty_Charging>
0.00137877

> <r_epik_Ionization_Penalty_Neutral>
0.000976366

> <r_epik_State_Penalty>
-0

> <r_epik_Charging_Adjusted_Penalty>
0.00137877

> <i_epik_Tot_Q>
1

> <i_epik_Tot_abs_Q>
1

> <r_epik_Metal_State_Penalty>
-0

> <b_epik_Metal_Only>
0

> <s_lp_Force_Field>
OPLS_2005

> <r_lp_Energy>
56.5643

> <b_lp_Chiralities_Consistent>
1

> <s_lp_Variant>
AV-unprocessed.smi:92-3

> <Gold.Version>
5.8.1

> <Gold.Id.Protein>
6NUR|6NUR_protein|mol2

> <Gold.PLP.Fitness>
48.6658

> <Gold.PLP.PLP>
-40.9721

> <Gold.PLP.part.hbond>
-5.5608

> <Gold.PLP.part.metal>
0.0000

> <Gold.PLP.part.buried>
6.8496

> <Gold.PLP.part.nonpolar>
-43.3430

> <Gold.PLP.part.repulsive>
1.1556

> <Gold.PLP.ligand.clash>
0.0000

> <Gold.PLP.ligand.torsion>
1.8245

> <Gold.PLP.Chemscore.Hbond>
2.8243

> <Gold.PLP.Chemscore.CHOScore>
0.5388

> <Gold.PLP.Chemscore.Metal>
0.0000

> <Gold.Chemscore.Hbonds>
donor molecule, donor type, donor heavy atom, donor atom, acceptor molecule, acceptor atom, score
      L1  H     3    61       P1 10747  0.78
      L1  H    22    49       P1  7957  0.23
      P1  H  7989  7998       L1    22  0.14
      P1  H  8022  8030       L1    24  0.54
      L1  C    16    43       P1  7948  0.40

> <Gold.PLP.Chemscore.Internal.Correction>
1.2535

> <Gold.Rescore>
     Score         DG    S(hbond)    S(metal)    S(lipo)     H(rot)  DE(clash)    DE(int)     intcor
     10.98     -18.40       2.23        0.00     117.18       3.22       4.90       2.52       ----

> <Gold.Chemscore.Fitness>
10.9817

> <Gold.Chemscore.DG>
-18.4017

> <Gold.Chemscore.ZeroCoef>
-5.4800

> <Gold.Chemscore.Hbond>
2.2335

> <Gold.Chemscore.Metal>
0.0000

> <Gold.Chemscore.Lipo>
117.1806

> <Gold.Chemscore.Internal_Hbond>
0.0000

> <Gold.Chemscore.DEClash>
4.9019

> <Gold.Chemscore.DEInternal>
2.5181

> <Gold.Chemscore.Rot>
3.2219

> <Gold.Chemscore.Internal.Correction>
   9.000000E+99

> <Gold.Chemscore.Hbonds>
donor molecule, donor type, donor heavy atom, donor atom, acceptor molecule, acceptor atom, score
      L1  H     3    61       P1 10747  0.77
      L1  H    22    49       P1  7957  0.23
      P1  H  8022  8030       L1    24  0.21

> <Gold.Chemscore.Hbond.Weighted>
-7.4598

> <Gold.Chemscore.Metal.Weighted>
-0.0000

> <Gold.Chemscore.Lipo.Weighted>
-13.7101

> <Gold.Chemscore.Internal_Hbond.Weighted>
0.0000

> <Gold.Chemscore.DEClash.Weighted>
4.9019

> <Gold.Chemscore.DEInternal.Weighted>
2.5181

> <Gold.Chemscore.Rot.Weighted>
8.2482

> <Gold.Chemscore.Internal.Correction.Weighted>
   9.000000E+99

> <Gold.Protein.RotatedTorsions>
[ 6907 6896 6895 6894 ] final   96.82 input  -60.11 | X-H torsion
[ 7974 7965 7964 7962 ] final    6.12 input  175.53 | X-H torsion
[ 8008 7997 7996 7995 ] final   20.60 input   59.86 | X-H torsion
[ 10167 10162 10161 10158 ] final  -11.82 input  -65.29 | X-H torsion
[ 10718 10713 10712 10709 ] final -177.53 input   66.30 | X-H torsion
[ 10763 10752 10751 10750 ] final -170.49 input  -60.55 | X-H torsion
[ 11005 11000 10999 10996 ] final  -90.40 input  -57.11 | X-H torsion

> <Gold.Protein.ActiveResidues>
 VAL166  LYS551  ARG553  GLY616  TRP617  ASP618  TYR619  PRO620  LYS621  CYS622 
 ASP623  PHE694  ASN695  SER759  ASP760  ASP761  ALA762  ILE779  LEU786  VAL792 
 PHE793  MET794  SER795  GLU796  ALA797  LYS798  CYS799  TRP800  GLU811  SER814 

> <Gold.Protein.RotatedAtoms>
  152.5431  134.0828  159.8242 H   0  0  0  0  0  0  0  0  0  0  0  0  # atno 6907 bound_to 6896
  151.0927  133.5296  159.2621 H   0  0  0  0  0  0  0  0  0  0  0  0  # atno 6908 bound_to 6896
  151.2081  135.0479  159.8954 H   0  0  0  0  0  0  0  0  0  0  0  0  # atno 6909 bound_to 6896
  146.2437  140.0282  142.8392 H   0  0  0  0  0  0  0  0  0  0  0  0  # atno 7974 bound_to 7965
  154.9380  140.3049  155.5134 H   0  0  0  0  0  0  0  0  0  0  0  0  # atno 8008 bound_to 7997
  156.2998  140.2341  156.4384 H   0  0  0  0  0  0  0  0  0  0  0  0  # atno 8009 bound_to 7997
  154.8173  140.0425  157.1374 H   0  0  0  0  0  0  0  0  0  0  0  0  # atno 8010 bound_to 7997
  140.7147  143.5598  150.9208 H   0  0  0  0  0  0  0  0  0  0  0  0  # atno 10167 bound_to 10162
  156.8309  130.9653  151.3106 H   0  0  0  0  0  0  0  0  0  0  0  0  # atno 10718 bound_to 10713
  154.6409  135.2898  155.0104 H   0  0  0  0  0  0  0  0  0  0  0  0  # atno 10763 bound_to 10752
  154.1231  135.6545  153.4911 H   0  0  0  0  0  0  0  0  0  0  0  0  # atno 10764 bound_to 10752
  153.0326  135.5292  154.7275 H   0  0  0  0  0  0  0  0  0  0  0  0  # atno 10765 bound_to 10752
  141.1566  133.7690  156.9732 H   0  0  0  0  0  0  0  0  0  0  0  0  # atno 11005 bound_to 11000
  145.1179  140.9445  143.4618 LP  0  0  0  0  0  0  0  0  0  0  0  0  # atno 17320 bound_to 7965
  145.0510  139.3181  143.5928 LP  0  0  0  0  0  0  0  0  0  0  0  0  # atno 17321 bound_to 7965
  139.9323  143.6478  152.3073 LP  0  0  0  0  0  0  0  0  0  0  0  0  # atno 17342 bound_to 10162
  139.6933  144.7644  151.1399 LP  0  0  0  0  0  0  0  0  0  0  0  0  # atno 17343 bound_to 10162
  157.6407  130.8803  149.9443 LP  0  0  0  0  0  0  0  0  0  0  0  0  # atno 17370 bound_to 10713
  156.0935  130.3661  150.0351 LP  0  0  0  0  0  0  0  0  0  0  0  0  # atno 17371 bound_to 10713
  140.1115  134.9474  157.2072 LP  0  0  0  0  0  0  0  0  0  0  0  0  # atno 17394 bound_to 11000
  140.3188  134.2940  155.7250 LP  0  0  0  0  0  0  0  0  0  0  0  0  # atno 17395 bound_to 11000

$$$$
