AV-unprocessed.smi:836|AV-procd|sdf|3890|dock2
  -GOLD-   22720 1343D 1   1.00000     0.00000
 Structure written by MMmdl.
 38 39  0  0  0  0  0  0  0  0  1 V2000
  153.3984  142.3806  160.8175 C   0  0  0  0  0  0  0  0  0  0  0  0
  152.2587  142.4080  159.7893 C   0  0  2  0  0  0  0  0  0  0  0  0
  152.1383  141.0641  159.0457 C   0  0  0  0  0  0  0  0  0  0  0  0
  150.9994  141.0871  158.0138 C   0  0  0  0  0  0  0  0  0  0  0  0
  151.1696  142.2461  157.0117 C   0  0  1  0  0  0  0  0  0  0  0  0
  150.0381  142.3011  156.0923 N   0  0  0  0  0  0  0  0  0  0  0  0
  149.7782  141.4126  155.1201 C   0  0  0  0  0  0  0  0  0  0  0  0
  150.4731  140.4204  154.9025 O   0  0  0  0  0  0  0  0  0  0  0  0
  148.5381  141.6800  154.2650 C   0  0  0  0  0  0  0  0  0  0  0  0
  147.6388  140.5393  154.2651 N   0  0  0  0  0  0  0  0  0  0  0  0
  147.1818  139.8079  153.1899 C   0  0  0  0  0  0  0  0  0  0  0  0
  146.3509  138.8422  153.6805 C   0  0  0  0  0  0  0  0  0  0  0  0
  146.3576  139.0607  155.0890 C   0  0  0  0  0  0  0  0  0  0  0  0
  145.6162  138.3005  156.1567 C   0  0  0  0  0  0  0  0  0  0  0  0
  145.8665  138.8248  157.3565 F   0  0  0  0  0  0  0  0  0  0  0  0
  144.3042  138.3573  155.9288 F   0  0  0  0  0  0  0  0  0  0  0  0
  146.0032  137.0250  156.1567 F   0  0  0  0  0  0  0  0  0  0  0  0
  147.1340  140.0803  155.4307 N   0  0  0  0  0  0  0  0  0  0  0  0
  151.2951  143.5904  157.7514 C   0  0  0  0  0  0  0  0  0  0  0  0
  152.4334  143.5622  158.7841 C   0  0  0  0  0  0  0  0  0  0  0  0
  154.3622  142.2100  160.3369 H   0  0  0  0  0  0  0  0  0  0  0  0
  153.2471  141.5879  161.5507 H   0  0  0  0  0  0  0  0  0  0  0  0
  153.4592  143.3239  161.3608 H   0  0  0  0  0  0  0  0  0  0  0  0
  151.3289  142.5750  160.3350 H   0  0  0  0  0  0  0  0  0  0  0  0
  153.0781  140.8358  158.5413 H   0  0  0  0  0  0  0  0  0  0  0  0
  151.9674  140.2568  159.7586 H   0  0  0  0  0  0  0  0  0  0  0  0
  150.9683  140.1337  157.4853 H   0  0  0  0  0  0  0  0  0  0  0  0
  150.0445  141.1840  158.5324 H   0  0  0  0  0  0  0  0  0  0  0  0
  152.0862  142.0878  156.4397 H   0  0  0  0  0  0  0  0  0  0  0  0
  149.4089  143.0848  156.1924 H   0  0  0  0  0  0  0  0  0  0  0  0
  148.0001  142.5486  154.6473 H   0  0  0  0  0  0  0  0  0  0  0  0
  148.8367  141.9122  153.2414 H   0  0  0  0  0  0  0  0  0  0  0  0
  147.4807  140.0353  152.1772 H   0  0  0  0  0  0  0  0  0  0  0  0
  145.8156  138.0918  153.1176 H   0  0  0  0  0  0  0  0  0  0  0  0
  151.4691  144.3950  157.0360 H   0  0  0  0  0  0  0  0  0  0  0  0
  150.3566  143.8240  158.2564 H   0  0  0  0  0  0  0  0  0  0  0  0
  152.4690  144.5153  159.3129 H   0  0  0  0  0  0  0  0  0  0  0  0
  153.3891  143.4607  158.2680 H   0  0  0  0  0  0  0  0  0  0  0  0
  1  2  1  0  0  0  0
  1 21  1  0  0  0  0
  1 22  1  0  0  0  0
  1 23  1  0  0  0  0
  2 20  1  0  0  0  0
  2  3  1  0  0  0  0
  2 24  1  0  0  0  0
  3  4  1  0  0  0  0
  3 25  1  0  0  0  0
  3 26  1  0  0  0  0
  4  5  1  0  0  0  0
  4 27  1  0  0  0  0
  4 28  1  0  0  0  0
  5  6  1  0  0  0  0
  5 19  1  0  0  0  0
  5 29  1  0  0  0  0
  6  7  1  0  0  0  0
  6 30  1  0  0  0  0
  7  8  2  0  0  0  0
  7  9  1  0  0  0  0
  9 10  1  0  0  0  0
  9 31  1  0  0  0  0
  9 32  1  0  0  0  0
 10 18  1  0  0  0  0
 10 11  1  0  0  0  0
 11 12  2  0  0  0  0
 11 33  1  0  0  0  0
 12 13  1  0  0  0  0
 12 34  1  0  0  0  0
 13 14  1  0  0  0  0
 13 18  2  0  0  0  0
 14 15  1  0  0  0  0
 14 16  1  0  0  0  0
 14 17  1  0  0  0  0
 19 20  1  0  0  0  0
 19 35  1  0  0  0  0
 19 36  1  0  0  0  0
 20 37  1  0  0  0  0
 20 38  1  0  0  0  0
M  END
> <s_m_source_file>
AV-unprocessed.smi

> <i_m_source_file_index>
836

> <i_lp_mmshare_version>
43012

> <i_f3d_flags>
0

> <s_epik_input>
W0NIM11bQ0BASF0xW0NIMl1bQ0gyXVtDQEhdKFtDSDJdW0NIMl0xKVtOSF1DKD1PKVtDSDJdbjJbY0hdW2NIXWMobjIpQyhGKShGKUY=

> <s_epik_cmdline>
J2VwaWtfcHl0aG9uJywgJy1waCcsICc3LjAnLCAnLXRuJywgJzgnLCAnLW1hJywgJzIwMCcsICctbWV0YWxfYmluZGluZycsICctaW1hZScsICc8aW5maWxlLm1hZT4nLCAnLW9tYWUnLCAnPG91dGZpbGUubWFlPic=

> <r_lp_tautomer_probability>
1

> <r_epik_Ionization_Penalty>
8.28749e-08

> <r_epik_Ionization_Penalty_Charging>
0

> <r_epik_Ionization_Penalty_Neutral>
8.28749e-08

> <r_epik_State_Penalty>
-0

> <r_epik_Charging_Adjusted_Penalty>
0

> <i_epik_Tot_Q>
0

> <i_epik_Tot_abs_Q>
0

> <r_epik_Metal_State_Penalty>
-0

> <b_epik_Metal_Only>
0

> <s_lp_Force_Field>
OPLS_2005

> <r_lp_Energy>
10.955

> <b_lp_Chiralities_Consistent>
1

> <s_lp_Variant>
AV-unprocessed.smi:836-1

> <Gold.Version>
5.8.1

> <Gold.Id.Protein>
6NUR|6NUR_protein|mol2

> <Gold.PLP.Fitness>
42.9006

> <Gold.PLP.PLP>
-34.2141

> <Gold.PLP.part.hbond>
-2.0000

> <Gold.PLP.part.metal>
0.0000

> <Gold.PLP.part.buried>
-3.3046

> <Gold.PLP.part.nonpolar>
-29.1227

> <Gold.PLP.part.repulsive>
0.2092

> <Gold.PLP.ligand.clash>
0.0000

> <Gold.PLP.ligand.torsion>
0.1542

> <Gold.PLP.Chemscore.Hbond>
1.9920

> <Gold.PLP.Chemscore.CHOScore>
1.0000

> <Gold.PLP.Chemscore.Metal>
0.0000

> <Gold.Chemscore.Hbonds>
donor molecule, donor type, donor heavy atom, donor atom, acceptor molecule, acceptor atom, score
      L1  H     6    30       P1  8028  0.99
      P1  H  7989  7998       L1     8  1.00
      L1  C    11    33       P1  7957  1.00

> <Gold.PLP.Chemscore.Internal.Correction>
0.0190

> <Gold.Rescore>
     Score         DG    S(hbond)    S(metal)    S(lipo)     H(rot)  DE(clash)    DE(int)     intcor
     17.41     -17.64       1.67        0.00      89.95       1.54       0.08       0.15       ----

> <Gold.Chemscore.Fitness>
17.4138

> <Gold.Chemscore.DG>
-17.6379

> <Gold.Chemscore.ZeroCoef>
-5.4800

> <Gold.Chemscore.Hbond>
1.6713

> <Gold.Chemscore.Metal>
0.0000

> <Gold.Chemscore.Lipo>
89.9455

> <Gold.Chemscore.Internal_Hbond>
0.0000

> <Gold.Chemscore.DEClash>
0.0757

> <Gold.Chemscore.DEInternal>
0.1484

> <Gold.Chemscore.Rot>
1.5422

> <Gold.Chemscore.Internal.Correction>
   9.000000E+99

> <Gold.Chemscore.Hbonds>
donor molecule, donor type, donor heavy atom, donor atom, acceptor molecule, acceptor atom, score
      L1  H     6    30       P1  8028  0.93
      P1  H  7989  7998       L1     8  0.53

> <Gold.Chemscore.Hbond.Weighted>
-5.5822

> <Gold.Chemscore.Metal.Weighted>
-0.0000

> <Gold.Chemscore.Lipo.Weighted>
-10.5236

> <Gold.Chemscore.Internal_Hbond.Weighted>
0.0000

> <Gold.Chemscore.DEClash.Weighted>
0.0757

> <Gold.Chemscore.DEInternal.Weighted>
0.1484

> <Gold.Chemscore.Rot.Weighted>
3.9479

> <Gold.Chemscore.Internal.Correction.Weighted>
   9.000000E+99

> <Gold.Protein.RotatedTorsions>
[ 6907 6896 6895 6894 ] final -139.56 input  -60.11 | X-H torsion
[ 7974 7965 7964 7962 ] final  101.00 input  175.53 | X-H torsion
[ 8008 7997 7996 7995 ] final   -8.93 input   59.86 | X-H torsion
[ 10167 10162 10161 10158 ] final   18.37 input  -65.29 | X-H torsion
[ 10718 10713 10712 10709 ] final -123.91 input   66.30 | X-H torsion
[ 10763 10752 10751 10750 ] final  157.04 input  -60.55 | X-H torsion
[ 11005 11000 10999 10996 ] final -114.16 input  -57.11 | X-H torsion

> <Gold.Protein.ActiveResidues>
 VAL166  LYS551  ARG553  GLY616  TRP617  ASP618  TYR619  PRO620  LYS621  CYS622 
 ASP623  PHE694  ASN695  SER759  ASP760  ASP761  ALA762  ILE779  LEU786  VAL792 
 PHE793  MET794  SER795  GLU796  ALA797  LYS798  CYS799  TRP800  GLU811  SER814 

> <Gold.Protein.RotatedAtoms>
  151.0493  133.5638  159.2643 H   0  0  0  0  0  0  0  0  0  0  0  0  # atno 6907 bound_to 6896
  151.2654  135.0667  159.9124 H   0  0  0  0  0  0  0  0  0  0  0  0  # atno 6908 bound_to 6896
  152.5379  134.0232  159.8045 H   0  0  0  0  0  0  0  0  0  0  0  0  # atno 6909 bound_to 6896
  145.3781  139.2385  143.3418 H   0  0  0  0  0  0  0  0  0  0  0  0  # atno 7974 bound_to 7965
  154.5694  140.2368  155.8214 H   0  0  0  0  0  0  0  0  0  0  0  0  # atno 8008 bound_to 7997
  156.2095  140.3030  155.9658 H   0  0  0  0  0  0  0  0  0  0  0  0  # atno 8009 bound_to 7997
  155.2740  140.0419  157.3000 H   0  0  0  0  0  0  0  0  0  0  0  0  # atno 8010 bound_to 7997
  140.5658  143.9253  150.6676 H   0  0  0  0  0  0  0  0  0  0  0  0  # atno 10167 bound_to 10162
  156.1543  130.6556  150.9958 H   0  0  0  0  0  0  0  0  0  0  0  0  # atno 10718 bound_to 10713
  154.1939  135.2793  155.3013 H   0  0  0  0  0  0  0  0  0  0  0  0  # atno 10763 bound_to 10752
  154.5907  135.5560  153.7279 H   0  0  0  0  0  0  0  0  0  0  0  0  # atno 10764 bound_to 10752
  153.0105  135.6367  154.2078 H   0  0  0  0  0  0  0  0  0  0  0  0  # atno 10765 bound_to 10752
  141.0569  133.9598  157.2737 H   0  0  0  0  0  0  0  0  0  0  0  0  # atno 11005 bound_to 11000
  146.2855  140.4444  142.8760 LP  0  0  0  0  0  0  0  0  0  0  0  0  # atno 17320 bound_to 7965
  144.8527  140.7025  143.6158 LP  0  0  0  0  0  0  0  0  0  0  0  0  # atno 17321 bound_to 7965
  140.2715  143.3452  152.1233 LP  0  0  0  0  0  0  0  0  0  0  0  0  # atno 17342 bound_to 10162
  139.5092  144.6864  151.5877 LP  0  0  0  0  0  0  0  0  0  0  0  0  # atno 17343 bound_to 10162
  157.6682  131.0867  150.7677 LP  0  0  0  0  0  0  0  0  0  0  0  0  # atno 17370 bound_to 10713
  156.7743  130.4839  149.5412 LP  0  0  0  0  0  0  0  0  0  0  0  0  # atno 17371 bound_to 10713
  139.9398  135.0192  156.8672 LP  0  0  0  0  0  0  0  0  0  0  0  0  # atno 17394 bound_to 11000
  140.5946  134.0230  155.7513 LP  0  0  0  0  0  0  0  0  0  0  0  0  # atno 17395 bound_to 11000

$$$$
