AV-unprocessed.smi:224|AV-procd|sdf|1713|dock10
  -GOLD-   2262020183D 1   1.00000     0.00000
 Structure written by MMmdl.
 56 59  0  0  0  0  0  0  0  0  2 V2000
  144.1579  132.4461  150.4386 C   0  0  0  0  0  0  0  0  0  0  0  0
  145.6514  132.4814  150.7875 C   0  0  2  0  0  0  0  0  0  0  0  0
  146.3698  132.0266  149.6583 O   0  0  0  0  0  0  0  0  0  0  0  0
  145.9751  131.5851  152.0000 C   0  0  0  0  0  0  0  0  0  0  0  0
  147.4001  131.6639  152.4168 N   0  3  1  0  0  0  0  0  0  0  0  0
  147.8220  133.0157  152.8741 C   0  0  0  0  0  0  0  0  0  0  0  0
  149.3371  133.0552  153.1428 C   0  0  0  0  0  0  0  0  0  0  0  0
  149.7392  131.9902  154.0597 N   0  0  0  0  0  0  0  0  0  0  0  0
  149.7854  132.2395  155.3968 C   0  0  0  0  0  0  0  0  0  0  0  0
  150.5440  131.4469  156.2007 N   0  0  0  0  0  0  0  0  0  0  0  0
  150.6137  131.6789  157.5142 C   0  0  0  0  0  0  0  0  0  0  0  0
  150.0111  132.6328  158.2244 N   0  0  0  0  0  0  0  0  0  0  0  0
  149.2393  133.4278  157.4303 C   0  0  0  0  0  0  0  0  0  0  0  0
  149.0699  133.3024  156.0215 C   0  0  0  0  0  0  0  0  0  0  0  0
  148.1938  134.2816  155.5667 N   0  0  0  0  0  0  0  0  0  0  0  0
  147.8748  134.9524  156.6395 C   0  0  0  0  0  0  0  0  0  0  0  0
  148.4609  134.5096  157.8032 N   0  0  0  0  0  0  0  0  0  0  0  0
  148.2755  135.0654  159.1349 C   0  0  0  0  0  0  0  0  0  0  0  0
  148.7921  136.5160  159.2743 C   0  0  2  0  0  0  0  0  0  0  0  0
  148.5114  136.9808  160.5838 O   0  0  0  0  0  0  0  0  0  0  0  0
  148.1886  137.4947  158.2712 C   0  0  0  0  0  0  0  0  0  0  0  0
  149.3172  138.4916  158.0497 C   0  0  0  0  0  0  0  0  0  0  0  0
  150.4643  137.6595  158.0315 O   0  0  0  0  0  0  0  0  0  0  0  0
  150.3078  136.6502  159.0237 C   0  0  0  0  0  0  0  0  0  0  0  0
  149.3334  130.6509  153.6365 C   0  0  0  0  0  0  0  0  0  0  0  0
  147.8169  130.5734  153.3490 C   0  0  1  0  0  0  0  0  0  0  0  0
  146.9802  130.5228  154.6459 C   0  0  0  0  0  0  0  0  0  0  0  0
  143.5530  132.8087  151.2700 H   0  0  0  0  0  0  0  0  0  0  0  0
  143.8271  131.4338  150.2031 H   0  0  0  0  0  0  0  0  0  0  0  0
  143.9404  133.0758  149.5753 H   0  0  0  0  0  0  0  0  0  0  0  0
  145.9310  133.5166  150.9794 H   0  0  0  0  0  0  0  0  0  0  0  0
  147.2766  131.9107  149.8963 H   0  0  0  0  0  0  0  0  0  0  0  0
  145.3399  131.8510  152.8464 H   0  0  0  0  0  0  0  0  0  0  0  0
  145.7249  130.5545  151.7420 H   0  0  0  0  0  0  0  0  0  0  0  0
  147.5825  133.7655  152.1217 H   0  0  0  0  0  0  0  0  0  0  0  0
  147.2679  133.2923  153.7715 H   0  0  0  0  0  0  0  0  0  0  0  0
  149.8756  132.9110  152.2054 H   0  0  0  0  0  0  0  0  0  0  0  0
  149.6410  134.0354  153.5125 H   0  0  0  0  0  0  0  0  0  0  0  0
  151.2423  131.0041  158.0765 H   0  0  0  0  0  0  0  0  0  0  0  0
  147.1990  135.7950  156.6122 H   0  0  0  0  0  0  0  0  0  0  0  0
  147.2136  135.0189  159.3803 H   0  0  0  0  0  0  0  0  0  0  0  0
  148.7816  134.4158  159.8501 H   0  0  0  0  0  0  0  0  0  0  0  0
  147.9003  136.3838  160.9881 H   0  0  0  0  0  0  0  0  0  0  0  0
  147.9836  136.9887  157.3274 H   0  0  0  0  0  0  0  0  0  0  0  0
  147.2605  137.9583  158.6084 H   0  0  0  0  0  0  0  0  0  0  0  0
  149.2112  139.0525  157.1210 H   0  0  0  0  0  0  0  0  0  0  0  0
  149.3866  139.1993  158.8773 H   0  0  0  0  0  0  0  0  0  0  0  0
  150.8509  136.9366  159.9260 H   0  0  0  0  0  0  0  0  0  0  0  0
  150.7513  135.7233  158.6584 H   0  0  0  0  0  0  0  0  0  0  0  0
  149.8859  130.4148  152.7265 H   0  0  0  0  0  0  0  0  0  0  0  0
  149.6092  129.8836  154.3575 H   0  0  0  0  0  0  0  0  0  0  0  0
  147.6474  129.6294  152.8293 H   0  0  0  0  0  0  0  0  0  0  0  0
  147.3355  129.7275  155.3018 H   0  0  0  0  0  0  0  0  0  0  0  0
  145.9291  130.3199  154.4420 H   0  0  0  0  0  0  0  0  0  0  0  0
  147.0325  131.4534  155.2093 H   0  0  0  0  0  0  0  0  0  0  0  0
  147.9300  131.4886  151.5754 H   0  0  0  0  0  0  0  0  0  0  0  0
  1  2  1  0  0  0  0
  1 28  1  0  0  0  0
  1 29  1  0  0  0  0
  1 30  1  0  0  0  0
  2  3  1  0  0  0  0
  2  4  1  0  0  0  0
  2 31  1  0  0  0  0
  3 32  1  0  0  0  0
  4  5  1  0  0  0  0
  4 33  1  0  0  0  0
  4 34  1  0  0  0  0
  5 26  1  0  0  0  0
  5  6  1  0  0  0  0
  5 56  1  0  0  0  0
  6  7  1  0  0  0  0
  6 35  1  0  0  0  0
  6 36  1  0  0  0  0
  7  8  1  0  0  0  0
  7 37  1  0  0  0  0
  7 38  1  0  0  0  0
  8  9  1  0  0  0  0
  8 25  1  0  0  0  0
  9 14  1  0  0  0  0
  9 10  2  0  0  0  0
 10 11  1  0  0  0  0
 11 12  2  0  0  0  0
 11 39  1  0  0  0  0
 12 13  1  0  0  0  0
 13 17  1  0  0  0  0
 13 14  2  0  0  0  0
 14 15  1  0  0  0  0
 15 16  2  0  0  0  0
 16 17  1  0  0  0  0
 16 40  1  0  0  0  0
 17 18  1  0  0  0  0
 18 19  1  0  0  0  0
 18 41  1  0  0  0  0
 18 42  1  0  0  0  0
 19 24  1  0  0  0  0
 19 20  1  0  0  0  0
 19 21  1  0  0  0  0
 20 43  1  0  0  0  0
 21 22  1  0  0  0  0
 21 44  1  0  0  0  0
 21 45  1  0  0  0  0
 22 23  1  0  0  0  0
 22 46  1  0  0  0  0
 22 47  1  0  0  0  0
 23 24  1  0  0  0  0
 24 48  1  0  0  0  0
 24 49  1  0  0  0  0
 25 26  1  0  0  0  0
 25 50  1  0  0  0  0
 25 51  1  0  0  0  0
 26 27  1  0  0  0  0
 26 52  1  0  0  0  0
 27 53  1  0  0  0  0
 27 54  1  0  0  0  0
 27 55  1  0  0  0  0
M  CHG  1   5   1
M  END
> <s_m_source_file>
AV-unprocessed.smi

> <i_m_source_file_index>
224

> <i_lp_mmshare_version>
43012

> <i_f3d_flags>
0

> <s_epik_input>
W0NIM11bQ0BIXShbT0hdKVtDSDJdTjFbQ0gyXVtDSDJdTihbQ0gyXVtDQEhdMVtDSDNdKWMobltjSF1uMiljKGMyMyluW2NIXW4zW0NIMl1bQ0BAXTQoW09IXSlbQ0gyXVtDSDJdT1tDSDJdNA==

> <s_epik_cmdline>
J2VwaWtfcHl0aG9uJywgJy1waCcsICc3LjAnLCAnLXRuJywgJzgnLCAnLW1hJywgJzIwMCcsICctbWV0YWxfYmluZGluZycsICctaW1hZScsICc8aW5maWxlLm1hZT4nLCAnLW9tYWUnLCAnPG91dGZpbGUubWFlPic=

> <r_lp_tautomer_probability>
1

> <r_epik_Ionization_Penalty>
0.00516958

> <r_epik_Ionization_Penalty_Charging>
0.00509693

> <r_epik_Ionization_Penalty_Neutral>
7.26542e-05

> <r_epik_State_Penalty>
-0

> <r_epik_Charging_Adjusted_Penalty>
0.00509693

> <i_epik_Tot_Q>
1

> <i_epik_Tot_abs_Q>
1

> <r_epik_Metal_State_Penalty>
-0

> <b_epik_Metal_Only>
0

> <s_lp_Force_Field>
OPLS_2005

> <r_lp_Energy>
51.1284

> <b_lp_Chiralities_Consistent>
1

> <s_lp_Variant>
AV-unprocessed.smi:224-7

> <Gold.Version>
5.8.1

> <Gold.Id.Protein>
6NUR|6NUR_protein|mol2

> <Gold.PLP.Fitness>
48.2053

> <Gold.PLP.PLP>
-35.5561

> <Gold.PLP.part.hbond>
-5.0000

> <Gold.PLP.part.metal>
0.0000

> <Gold.PLP.part.buried>
-5.9981

> <Gold.PLP.part.nonpolar>
-24.2540

> <Gold.PLP.part.repulsive>
0.0356

> <Gold.PLP.ligand.clash>
0.0000

> <Gold.PLP.ligand.torsion>
0.6948

> <Gold.PLP.Chemscore.Hbond>
4.5520

> <Gold.PLP.Chemscore.CHOScore>
0.0000

> <Gold.PLP.Chemscore.Metal>
0.0000

> <Gold.Chemscore.Hbonds>
donor molecule, donor type, donor heavy atom, donor atom, acceptor molecule, acceptor atom, score
      L1  H     3    32       P1 10747  1.00
      L1  H     5    56       P1 10747  1.00
      P1  H  6896  6909       L1    12  1.00
      P1  H  6931  6943       L1    20  0.85

> <Gold.PLP.Chemscore.Internal.Correction>
0.3827

> <Gold.Rescore>
     Score         DG    S(hbond)    S(metal)    S(lipo)     H(rot)  DE(clash)    DE(int)     intcor
     16.88     -19.39       4.01        0.00      70.71       3.02       0.09       2.42       ----

> <Gold.Chemscore.Fitness>
16.8813

> <Gold.Chemscore.DG>
-19.3923

> <Gold.Chemscore.ZeroCoef>
-5.4800

> <Gold.Chemscore.Hbond>
4.0055

> <Gold.Chemscore.Metal>
0.0000

> <Gold.Chemscore.Lipo>
70.7095

> <Gold.Chemscore.Internal_Hbond>
0.0000

> <Gold.Chemscore.DEClash>
0.0888

> <Gold.Chemscore.DEInternal>
2.4223

> <Gold.Chemscore.Rot>
3.0231

> <Gold.Chemscore.Internal.Correction>
   9.000000E+99

> <Gold.Chemscore.Hbonds>
donor molecule, donor type, donor heavy atom, donor atom, acceptor molecule, acceptor atom, score
      L1  H     3    32       P1 10747  0.93
      L1  H     5    56       P1 10747  1.00
      P1  H  6896  6909       L1    12  0.71
      P1  H  6931  6943       L1    20  0.54

> <Gold.Chemscore.Hbond.Weighted>
-13.3784

> <Gold.Chemscore.Metal.Weighted>
-0.0000

> <Gold.Chemscore.Lipo.Weighted>
-8.2730

> <Gold.Chemscore.Internal_Hbond.Weighted>
0.0000

> <Gold.Chemscore.DEClash.Weighted>
0.0888

> <Gold.Chemscore.DEInternal.Weighted>
2.4223

> <Gold.Chemscore.Rot.Weighted>
7.7391

> <Gold.Chemscore.Internal.Correction.Weighted>
   9.000000E+99

> <Gold.Protein.RotatedTorsions>
[ 6907 6896 6895 6894 ] final  -15.19 input  -60.11 | X-H torsion
[ 7974 7965 7964 7962 ] final  104.20 input  175.53 | X-H torsion
[ 8008 7997 7996 7995 ] final  131.77 input   59.86 | X-H torsion
[ 10167 10162 10161 10158 ] final  122.96 input  -65.29 | X-H torsion
[ 10718 10713 10712 10709 ] final -123.89 input   66.30 | X-H torsion
[ 10763 10752 10751 10750 ] final   74.93 input  -60.55 | X-H torsion
[ 11005 11000 10999 10996 ] final -114.48 input  -57.11 | X-H torsion

> <Gold.Protein.ActiveResidues>
 VAL166  LYS551  ARG553  GLY616  TRP617  ASP618  TYR619  PRO620  LYS621  CYS622 
 ASP623  PHE694  ASN695  SER759  ASP760  ASP761  ALA762  ILE779  LEU786  VAL792 
 PHE793  MET794  SER795  GLU796  ALA797  LYS798  CYS799  TRP800  GLU811  SER814 

> <Gold.Protein.RotatedAtoms>
  151.3278  135.0834  159.9327 H   0  0  0  0  0  0  0  0  0  0  0  0  # atno 6907 bound_to 6896
  152.5242  133.9574  159.7711 H   0  0  0  0  0  0  0  0  0  0  0  0  # atno 6908 bound_to 6896
  150.9907  133.6100  159.2739 H   0  0  0  0  0  0  0  0  0  0  0  0  # atno 6909 bound_to 6896
  145.3359  139.2474  143.3635 H   0  0  0  0  0  0  0  0  0  0  0  0  # atno 7974 bound_to 7965
  156.2974  140.2563  156.2980 H   0  0  0  0  0  0  0  0  0  0  0  0  # atno 8008 bound_to 7997
  154.9445  140.0395  157.2132 H   0  0  0  0  0  0  0  0  0  0  0  0  # atno 8009 bound_to 7997
  154.8094  140.2842  155.5868 H   0  0  0  0  0  0  0  0  0  0  0  0  # atno 8010 bound_to 7997
  139.5828  144.6993  151.3486 H   0  0  0  0  0  0  0  0  0  0  0  0  # atno 10167 bound_to 10162
  156.1541  130.6555  150.9956 H   0  0  0  0  0  0  0  0  0  0  0  0  # atno 10718 bound_to 10713
  153.0620  135.5007  154.8114 H   0  0  0  0  0  0  0  0  0  0  0  0  # atno 10763 bound_to 10752
  154.6897  135.2982  154.9500 H   0  0  0  0  0  0  0  0  0  0  0  0  # atno 10764 bound_to 10752
  154.0259  135.6736  153.4829 H   0  0  0  0  0  0  0  0  0  0  0  0  # atno 10765 bound_to 10752
  141.0549  133.9628  157.2771 H   0  0  0  0  0  0  0  0  0  0  0  0  # atno 11005 bound_to 11000
  146.3027  140.3947  142.8698 LP  0  0  0  0  0  0  0  0  0  0  0  0  # atno 17320 bound_to 7965
  144.8827  140.7422  143.5976 LP  0  0  0  0  0  0  0  0  0  0  0  0  # atno 17321 bound_to 7965
  140.7104  143.7406  150.7556 LP  0  0  0  0  0  0  0  0  0  0  0  0  # atno 17342 bound_to 10162
  140.0943  143.4848  152.2461 LP  0  0  0  0  0  0  0  0  0  0  0  0  # atno 17343 bound_to 10162
  157.6680  131.0867  150.7680 LP  0  0  0  0  0  0  0  0  0  0  0  0  # atno 17370 bound_to 10713
  156.7747  130.4840  149.5412 LP  0  0  0  0  0  0  0  0  0  0  0  0  # atno 17371 bound_to 10713
  139.9381  135.0194  156.8622 LP  0  0  0  0  0  0  0  0  0  0  0  0  # atno 17394 bound_to 11000
  140.5983  134.0196  155.7527 LP  0  0  0  0  0  0  0  0  0  0  0  0  # atno 17395 bound_to 11000

$$$$
