AV-unprocessed.smi:34|AV-procd|sdf|223|dock2
  -GOLD-   2262015543D 1   1.00000     0.00000
 Structure written by MMmdl.
 55 59  0  0  0  0  0  0  0  0  1 V2000
  154.6926  139.8592  159.2110 O   0  0  0  0  0  0  0  0  0  0  0  0
  154.5775  140.3086  160.3516 C   0  0  0  0  0  0  0  0  0  0  0  0
  153.7431  141.4599  160.6487 N   0  0  0  0  0  0  0  0  0  0  0  0
  152.9463  142.1568  159.8047 C   0  0  0  0  0  0  0  0  0  0  0  0
  152.9920  143.5115  159.7095 N   0  0  0  0  0  0  0  0  0  0  0  0
  152.1810  144.1534  158.8645 C   0  0  0  0  0  0  0  0  0  0  0  0
  151.2660  143.6430  158.0384 N   0  0  0  0  0  0  0  0  0  0  0  0
  151.2122  142.2826  158.1242 C   0  0  0  0  0  0  0  0  0  0  0  0
  152.0154  141.4748  158.9780 C   0  0  0  0  0  0  0  0  0  0  0  0
  151.6906  140.1365  158.8032 N   0  0  0  0  0  0  0  0  0  0  0  0
  150.7492  140.1562  157.8991 C   0  0  0  0  0  0  0  0  0  0  0  0
  150.3941  141.4047  157.4375 N   0  0  0  0  0  0  0  0  0  0  0  0
  149.3413  141.7175  156.4147 C   0  0  2  0  0  0  0  0  0  0  0  0
  148.1601  141.0352  156.7222 O   0  0  0  0  0  0  0  0  0  0  0  0
  147.8401  140.1218  155.6762 C   0  0  1  0  0  0  0  0  0  0  0  0
  146.3267  139.8878  155.5945 C   0  0  0  0  0  0  0  0  0  0  0  0
  146.0612  138.8468  154.6679 O   0  0  0  0  0  0  0  0  0  0  0  0
  144.8294  138.3058  154.5954 C   0  0  0  0  0  0  0  0  0  0  0  0
  143.9156  138.5830  155.3750 O   0  0  0  0  0  0  0  0  0  0  0  0
  144.6850  137.3377  153.4700 C   0  0  0  0  0  0  0  0  0  0  0  0
  143.5403  136.5087  153.4123 C   0  0  0  0  0  0  0  0  0  0  0  0
  143.3761  135.5841  152.3626 C   0  0  0  0  0  0  0  0  0  0  0  0
  144.3553  135.4759  151.3582 C   0  0  0  0  0  0  0  0  0  0  0  0
  145.4988  136.2944  151.4043 C   0  0  0  0  0  0  0  0  0  0  0  0
  145.6641  137.2209  152.4525 C   0  0  0  0  0  0  0  0  0  0  0  0
  148.4717  140.7419  154.4293 C   0  0  1  0  0  0  0  0  0  0  0  0
  147.7070  141.7257  153.9500 F   0  0  0  0  0  0  0  0  0  0  0  0
  149.7576  141.3292  154.9803 C   0  0  2  0  0  0  0  0  0  0  0  0
  150.8154  140.3889  154.9079 O   0  0  0  0  0  0  0  0  0  0  0  0
  155.3589  139.7458  161.5032 C   0  0  0  0  0  0  0  0  0  0  0  0
  155.1990  140.2892  162.7978 C   0  0  0  0  0  0  0  0  0  0  0  0
  155.9386  139.7786  163.8822 C   0  0  0  0  0  0  0  0  0  0  0  0
  156.8504  138.7257  163.6802 C   0  0  0  0  0  0  0  0  0  0  0  0
  157.0249  138.1860  162.3920 C   0  0  0  0  0  0  0  0  0  0  0  0
  156.2855  138.6954  161.3066 C   0  0  0  0  0  0  0  0  0  0  0  0
  153.7485  141.7716  161.6088 H   0  0  0  0  0  0  0  0  0  0  0  0
  152.2782  145.2290  158.8489 H   0  0  0  0  0  0  0  0  0  0  0  0
  150.2783  139.2508  157.5444 H   0  0  0  0  0  0  0  0  0  0  0  0
  149.1636  142.7880  156.5257 H   0  0  0  0  0  0  0  0  0  0  0  0
  148.3377  139.1754  155.8895 H   0  0  0  0  0  0  0  0  0  0  0  0
  145.9429  139.5957  156.5727 H   0  0  0  0  0  0  0  0  0  0  0  0
  145.8133  140.8056  155.3045 H   0  0  0  0  0  0  0  0  0  0  0  0
  142.7747  136.5744  154.1719 H   0  0  0  0  0  0  0  0  0  0  0  0
  142.4973  134.9574  152.3287 H   0  0  0  0  0  0  0  0  0  0  0  0
  144.2291  134.7664  150.5538 H   0  0  0  0  0  0  0  0  0  0  0  0
  146.2518  136.2125  150.6343 H   0  0  0  0  0  0  0  0  0  0  0  0
  146.5540  137.8330  152.4583 H   0  0  0  0  0  0  0  0  0  0  0  0
  148.6238  140.0270  153.6196 H   0  0  0  0  0  0  0  0  0  0  0  0
  150.0634  142.2232  154.4357 H   0  0  0  0  0  0  0  0  0  0  0  0
  151.1895  140.2922  155.7705 H   0  0  0  0  0  0  0  0  0  0  0  0
  154.5044  141.0988  162.9696 H   0  0  0  0  0  0  0  0  0  0  0  0
  155.8065  140.1964  164.8694 H   0  0  0  0  0  0  0  0  0  0  0  0
  157.4178  138.3352  164.5120 H   0  0  0  0  0  0  0  0  0  0  0  0
  157.7290  137.3821  162.2350 H   0  0  0  0  0  0  0  0  0  0  0  0
  156.4425  138.2725  160.3249 H   0  0  0  0  0  0  0  0  0  0  0  0
  1  2  2  0  0  0  0
  2  3  1  0  0  0  0
  2 30  1  0  0  0  0
  3  4  1  0  0  0  0
  3 36  1  0  0  0  0
  4  9  1  0  0  0  0
  4  5  2  0  0  0  0
  5  6  1  0  0  0  0
  6  7  2  0  0  0  0
  6 37  1  0  0  0  0
  7  8  1  0  0  0  0
  8 12  1  0  0  0  0
  8  9  2  0  0  0  0
  9 10  1  0  0  0  0
 10 11  2  0  0  0  0
 11 12  1  0  0  0  0
 11 38  1  0  0  0  0
 12 13  1  0  0  0  0
 13 28  1  0  0  0  0
 13 14  1  0  0  0  0
 13 39  1  0  0  0  0
 14 15  1  0  0  0  0
 15 16  1  0  0  0  0
 15 26  1  0  0  0  0
 15 40  1  0  0  0  0
 16 17  1  0  0  0  0
 16 41  1  0  0  0  0
 16 42  1  0  0  0  0
 17 18  1  0  0  0  0
 18 19  2  0  0  0  0
 18 20  1  0  0  0  0
 20 25  1  0  0  0  0
 20 21  2  0  0  0  0
 21 22  1  0  0  0  0
 21 43  1  0  0  0  0
 22 23  2  0  0  0  0
 22 44  1  0  0  0  0
 23 24  1  0  0  0  0
 23 45  1  0  0  0  0
 24 25  2  0  0  0  0
 24 46  1  0  0  0  0
 25 47  1  0  0  0  0
 26 27  1  0  0  0  0
 26 28  1  0  0  0  0
 26 48  1  0  0  0  0
 28 29  1  0  0  0  0
 28 49  1  0  0  0  0
 29 50  1  0  0  0  0
 30 35  1  0  0  0  0
 30 31  2  0  0  0  0
 31 32  1  0  0  0  0
 31 51  1  0  0  0  0
 32 33  2  0  0  0  0
 32 52  1  0  0  0  0
 33 34  1  0  0  0  0
 33 53  1  0  0  0  0
 34 35  2  0  0  0  0
 34 54  1  0  0  0  0
 35 55  1  0  0  0  0
M  END
> <s_m_source_file>
AV-unprocessed.smi

> <i_m_source_file_index>
34

> <i_lp_mmshare_version>
43012

> <i_f3d_flags>
0

> <s_epik_input>
W2NIXTFbY0hdW2NIXVtjSF1bY0hdYzFDKD1PKVtOSF1jKG5bY0hdbjIpYyhjMjMpbltjSF1uM1tDQEBIXTRPW0NASF0oW0NAQEhdKEYpW0NASF00W09IXSlbQ0gyXU9DKD1PKWM1W2NIXVtjSF1bY0hdW2NIXVtjSF01

> <s_epik_cmdline>
J2VwaWtfcHl0aG9uJywgJy1waCcsICc3LjAnLCAnLXRuJywgJzgnLCAnLW1hJywgJzIwMCcsICctbWV0YWxfYmluZGluZycsICctaW1hZScsICc8aW5maWxlLm1hZT4nLCAnLW9tYWUnLCAnPG91dGZpbGUubWFlPic=

> <r_lp_tautomer_probability>
1

> <r_epik_Ionization_Penalty>
0.00257489

> <r_epik_Ionization_Penalty_Charging>
0

> <r_epik_Ionization_Penalty_Neutral>
0.00257489

> <r_epik_State_Penalty>
0.00519398

> <r_epik_Charging_Adjusted_Penalty>
0.00519398

> <i_epik_Tot_Q>
0

> <i_epik_Tot_abs_Q>
0

> <r_epik_Metal_State_Penalty>
0.335891

> <b_epik_Metal_Only>
0

> <s_epik_Chemistry_Notes>
This compound has an ester and may undergo hydrolysis at high or low pH. This compound contains an acetal/aminal-like group ( X-CH(R)-Y where X, Y are N, S, or O) that may be acid/base labile, releasing an aldehyde.

> <s_lp_Force_Field>
OPLS_2005

> <r_lp_Energy>
53.1328

> <b_lp_Chiralities_Consistent>
1

> <s_lp_Variant>
AV-unprocessed.smi:34-9

> <Gold.Version>
5.8.1

> <Gold.Id.Protein>
6NUR|6NUR_protein|mol2

> <Gold.PLP.Fitness>
54.9231

> <Gold.PLP.PLP>
-50.3082

> <Gold.PLP.part.hbond>
-2.0000

> <Gold.PLP.part.metal>
0.0000

> <Gold.PLP.part.buried>
-7.1638

> <Gold.PLP.part.nonpolar>
-40.8512

> <Gold.PLP.part.repulsive>
0.3767

> <Gold.PLP.ligand.clash>
0.0000

> <Gold.PLP.ligand.torsion>
0.8833

> <Gold.PLP.Chemscore.Hbond>
2.0000

> <Gold.PLP.Chemscore.CHOScore>
0.0000

> <Gold.PLP.Chemscore.Metal>
0.0000

> <Gold.Chemscore.Hbonds>
donor molecule, donor type, donor heavy atom, donor atom, acceptor molecule, acceptor atom, score
      P1  H  7989  7998       L1    29  1.00
      P1  H  7997  8010       L1     1  1.00

> <Gold.PLP.Chemscore.Internal.Correction>
0.3814

> <Gold.Rescore>
     Score         DG    S(hbond)    S(metal)    S(lipo)     H(rot)  DE(clash)    DE(int)     intcor
     11.89     -13.94       1.84        0.00      79.35       2.72       0.14       1.92       ----

> <Gold.Chemscore.Fitness>
11.8857

> <Gold.Chemscore.DG>
-13.9435

> <Gold.Chemscore.ZeroCoef>
-5.4800

> <Gold.Chemscore.Hbond>
1.8404

> <Gold.Chemscore.Metal>
0.0000

> <Gold.Chemscore.Lipo>
79.3478

> <Gold.Chemscore.Internal_Hbond>
0.0000

> <Gold.Chemscore.DEClash>
0.1424

> <Gold.Chemscore.DEInternal>
1.9154

> <Gold.Chemscore.Rot>
2.7215

> <Gold.Chemscore.Internal.Correction>
   9.000000E+99

> <Gold.Chemscore.Hbonds>
donor molecule, donor type, donor heavy atom, donor atom, acceptor molecule, acceptor atom, score
      P1  H  7989  7998       L1    29  0.34
      P1  H  7997  8010       L1     1  0.98

> <Gold.Chemscore.Hbond.Weighted>
-6.1469

> <Gold.Chemscore.Metal.Weighted>
-0.0000

> <Gold.Chemscore.Lipo.Weighted>
-9.2837

> <Gold.Chemscore.Internal_Hbond.Weighted>
0.0000

> <Gold.Chemscore.DEClash.Weighted>
0.1424

> <Gold.Chemscore.DEInternal.Weighted>
1.9154

> <Gold.Chemscore.Rot.Weighted>
6.9670

> <Gold.Chemscore.Internal.Correction.Weighted>
   9.000000E+99

> <Gold.Protein.RotatedTorsions>
[ 6907 6896 6895 6894 ] final    8.68 input  -60.11 | X-H torsion
[ 7974 7965 7964 7962 ] final -157.15 input  175.53 | X-H torsion
[ 8008 7997 7996 7995 ] final   -4.09 input   59.86 | X-H torsion
[ 10167 10162 10161 10158 ] final   43.84 input  -65.29 | X-H torsion
[ 10718 10713 10712 10709 ] final  164.46 input   66.30 | X-H torsion
[ 10763 10752 10751 10750 ] final  -81.53 input  -60.55 | X-H torsion
[ 11005 11000 10999 10996 ] final   -5.97 input  -57.11 | X-H torsion

> <Gold.Protein.ActiveResidues>
 VAL166  LYS551  ARG553  GLY616  TRP617  ASP618  TYR619  PRO620  LYS621  CYS622 
 ASP623  PHE694  ASN695  SER759  ASP760  ASP761  ALA762  ILE779  LEU786  VAL792 
 PHE793  MET794  SER795  GLU796  ALA797  LYS798  CYS799  TRP800  GLU811  SER814 

> <Gold.Protein.RotatedAtoms>
  151.7099  135.0914  160.0265 H   0  0  0  0  0  0  0  0  0  0  0  0  # atno 6907 bound_to 6896
  152.3668  133.6363  159.6065 H   0  0  0  0  0  0  0  0  0  0  0  0  # atno 6908 bound_to 6896
  150.7644  133.9251  159.3451 H   0  0  0  0  0  0  0  0  0  0  0  0  # atno 6909 bound_to 6896
  144.7561  140.4009  143.6011 H   0  0  0  0  0  0  0  0  0  0  0  0  # atno 7974 bound_to 7965
  154.6179  140.2492  155.7586 H   0  0  0  0  0  0  0  0  0  0  0  0  # atno 8008 bound_to 7997
  156.2410  140.2933  156.0392 H   0  0  0  0  0  0  0  0  0  0  0  0  # atno 8009 bound_to 7997
  155.1944  140.0392  157.2896 H   0  0  0  0  0  0  0  0  0  0  0  0  # atno 8010 bound_to 7997
  140.3403  144.2478  150.6156 H   0  0  0  0  0  0  0  0  0  0  0  0  # atno 10167 bound_to 10162
  157.0941  131.0425  151.2525 H   0  0  0  0  0  0  0  0  0  0  0  0  # atno 10718 bound_to 10713
  154.5647  135.5623  153.7040 H   0  0  0  0  0  0  0  0  0  0  0  0  # atno 10763 bound_to 10752
  153.0029  135.6282  154.2196 H   0  0  0  0  0  0  0  0  0  0  0  0  # atno 10764 bound_to 10752
  154.2135  135.2872  155.2930 H   0  0  0  0  0  0  0  0  0  0  0  0  # atno 10765 bound_to 10752
  140.6970  133.9022  155.8657 H   0  0  0  0  0  0  0  0  0  0  0  0  # atno 11005 bound_to 11000
  145.6776  139.1611  143.2719 LP  0  0  0  0  0  0  0  0  0  0  0  0  # atno 17320 bound_to 7965
  146.1572  140.6841  142.9294 LP  0  0  0  0  0  0  0  0  0  0  0  0  # atno 17321 bound_to 7965
  140.5315  143.2242  151.8231 LP  0  0  0  0  0  0  0  0  0  0  0  0  # atno 17342 bound_to 10162
  139.4841  144.4714  151.9420 LP  0  0  0  0  0  0  0  0  0  0  0  0  # atno 17343 bound_to 10162
  157.4696  130.7701  149.7311 LP  0  0  0  0  0  0  0  0  0  0  0  0  # atno 17370 bound_to 10713
  155.9890  130.3955  150.3091 LP  0  0  0  0  0  0  0  0  0  0  0  0  # atno 17371 bound_to 10713
  141.0195  134.0909  157.4136 LP  0  0  0  0  0  0  0  0  0  0  0  0  # atno 17394 bound_to 11000
  139.8907  135.0114  156.6752 LP  0  0  0  0  0  0  0  0  0  0  0  0  # atno 17395 bound_to 11000

$$$$
