AV-unprocessed.smi:1047|AV-procd|sdf|4565|dock4
  -GOLD-   22720 3 13D 1   1.00000     0.00000
 Structure written by MMmdl.
 57 59  0  0  0  0  0  0  0  0  3 V2000
  146.4471  132.5361  154.0994 C   0  0  0  0  0  0  0  0  0  0  0  0
  145.7434  132.1283  152.7974 C   0  0  0  0  0  0  0  0  0  0  0  0
  144.4502  132.8367  152.6021 N   0  3  2  0  0  0  0  0  0  0  0  0
  143.7677  132.4828  151.3336 C   0  0  0  0  0  0  0  0  0  0  0  0
  144.4044  133.2127  150.1377 C   0  0  0  0  0  0  0  0  0  0  0  0
  144.3726  134.6161  150.3694 O   0  0  0  0  0  0  0  0  0  0  0  0
  145.1228  135.0005  151.5176 C   0  0  1  0  0  0  0  0  0  0  0  0
  145.0666  136.5317  151.6305 C   0  0  0  0  0  0  0  0  0  0  0  0
  146.1854  137.1664  150.9047 N   0  3  0  0  0  0  0  0  0  0  0  0
  146.2453  138.6336  151.0563 C   0  0  0  0  0  0  0  0  0  0  0  0
  146.8351  139.0326  152.4223 C   0  0  1  0  0  0  0  0  0  0  0  0
  148.0351  138.3103  152.6203 O   0  0  0  0  0  0  0  0  0  0  0  0
  147.1246  140.5442  152.5529 C   0  0  0  0  0  0  0  0  0  0  0  0
  147.1589  141.0142  153.9286 N   0  0  0  0  0  0  0  0  0  0  0  0
  146.1432  141.5580  154.6271 C   0  0  0  0  0  0  0  0  0  0  0  0
  146.3900  141.9150  155.8838 N   0  0  0  0  0  0  0  0  0  0  0  0
  147.7241  141.5708  156.0150 C   0  0  0  0  0  0  0  0  0  0  0  0
  148.5976  141.6910  157.1177 C   0  0  0  0  0  0  0  0  0  0  0  0
  149.9423  141.2669  157.0268 C   0  0  0  0  0  0  0  0  0  0  0  0
  150.8468  141.4159  158.2374 C   0  0  0  0  0  0  0  0  0  0  0  0
  150.4325  140.7130  155.8171 C   0  0  0  0  0  0  0  0  0  0  0  0
  151.8745  140.2528  155.6957 C   0  0  0  0  0  0  0  0  0  0  0  0
  149.5737  140.5865  154.7054 C   0  0  0  0  0  0  0  0  0  0  0  0
  148.2365  141.0096  154.8088 C   0  0  0  0  0  0  0  0  0  0  0  0
  144.5143  134.3130  152.7610 C   0  0  0  0  0  0  0  0  0  0  0  0
  147.3354  131.9251  154.2606 H   0  0  0  0  0  0  0  0  0  0  0  0
  145.7933  132.3981  154.9611 H   0  0  0  0  0  0  0  0  0  0  0  0
  146.7716  133.5759  154.0842 H   0  0  0  0  0  0  0  0  0  0  0  0
  146.4053  132.2778  151.9446 H   0  0  0  0  0  0  0  0  0  0  0  0
  145.5533  131.0554  152.8502 H   0  0  0  0  0  0  0  0  0  0  0  0
  143.7733  131.4033  151.1782 H   0  0  0  0  0  0  0  0  0  0  0  0
  142.7194  132.7735  151.4154 H   0  0  0  0  0  0  0  0  0  0  0  0
  145.4292  132.8792  149.9676 H   0  0  0  0  0  0  0  0  0  0  0  0
  143.8463  132.9948  149.2270 H   0  0  0  0  0  0  0  0  0  0  0  0
  146.1632  134.6960  151.3942 H   0  0  0  0  0  0  0  0  0  0  0  0
  144.1178  136.9043  151.2412 H   0  0  0  0  0  0  0  0  0  0  0  0
  145.1216  136.8282  152.6788 H   0  0  0  0  0  0  0  0  0  0  0  0
  147.0562  136.7730  151.2313 H   0  0  0  0  0  0  0  0  0  0  0  0
  146.8343  139.0584  150.2420 H   0  0  0  0  0  0  0  0  0  0  0  0
  145.2341  139.0309  150.9620 H   0  0  0  0  0  0  0  0  0  0  0  0
  146.1403  138.7491  153.2139 H   0  0  0  0  0  0  0  0  0  0  0  0
  148.7613  138.8486  152.3423 H   0  0  0  0  0  0  0  0  0  0  0  0
  148.0838  140.7772  152.0892 H   0  0  0  0  0  0  0  0  0  0  0  0
  146.3769  141.1224  152.0080 H   0  0  0  0  0  0  0  0  0  0  0  0
  145.1645  141.6935  154.1901 H   0  0  0  0  0  0  0  0  0  0  0  0
  148.2243  142.1143  158.0387 H   0  0  0  0  0  0  0  0  0  0  0  0
  151.6998  142.0523  158.0009 H   0  0  0  0  0  0  0  0  0  0  0  0
  151.2185  140.4427  158.5588 H   0  0  0  0  0  0  0  0  0  0  0  0
  150.3174  141.8660  159.0778 H   0  0  0  0  0  0  0  0  0  0  0  0
  152.0798  139.8435  154.7061 H   0  0  0  0  0  0  0  0  0  0  0  0
  152.0923  139.4770  156.4302 H   0  0  0  0  0  0  0  0  0  0  0  0
  152.5562  141.0874  155.8604 H   0  0  0  0  0  0  0  0  0  0  0  0
  149.9368  140.1690  153.7783 H   0  0  0  0  0  0  0  0  0  0  0  0
  143.4965  134.6760  152.9106 H   0  0  0  0  0  0  0  0  0  0  0  0
  145.0642  134.5857  153.6608 H   0  0  0  0  0  0  0  0  0  0  0  0
  146.0868  136.9604  149.9201 H   0  0  0  0  0  0  0  0  0  0  0  0
  143.8512  132.4931  153.3398 H   0  0  0  0  0  0  0  0  0  0  0  0
  1  2  1  0  0  0  0
  1 26  1  0  0  0  0
  1 27  1  0  0  0  0
  1 28  1  0  0  0  0
  2  3  1  0  0  0  0
  2 29  1  0  0  0  0
  2 30  1  0  0  0  0
  3 25  1  0  0  0  0
  3  4  1  0  0  0  0
  3 57  1  0  0  0  0
  4  5  1  0  0  0  0
  4 31  1  0  0  0  0
  4 32  1  0  0  0  0
  5  6  1  0  0  0  0
  5 33  1  0  0  0  0
  5 34  1  0  0  0  0
  6  7  1  0  0  0  0
  7  8  1  0  0  0  0
  7 25  1  0  0  0  0
  7 35  1  0  0  0  0
  8  9  1  0  0  0  0
  8 36  1  0  0  0  0
  8 37  1  0  0  0  0
  9 10  1  0  0  0  0
  9 38  1  0  0  0  0
  9 56  1  0  0  0  0
 10 11  1  0  0  0  0
 10 39  1  0  0  0  0
 10 40  1  0  0  0  0
 11 12  1  0  0  0  0
 11 13  1  0  0  0  0
 11 41  1  0  0  0  0
 12 42  1  0  0  0  0
 13 14  1  0  0  0  0
 13 43  1  0  0  0  0
 13 44  1  0  0  0  0
 14 24  1  0  0  0  0
 14 15  1  0  0  0  0
 15 16  2  0  0  0  0
 15 45  1  0  0  0  0
 16 17  1  0  0  0  0
 17 24  2  0  0  0  0
 17 18  1  0  0  0  0
 18 19  2  0  0  0  0
 18 46  1  0  0  0  0
 19 20  1  0  0  0  0
 19 21  1  0  0  0  0
 20 47  1  0  0  0  0
 20 48  1  0  0  0  0
 20 49  1  0  0  0  0
 21 22  1  0  0  0  0
 21 23  2  0  0  0  0
 22 50  1  0  0  0  0
 22 51  1  0  0  0  0
 22 52  1  0  0  0  0
 23 24  1  0  0  0  0
 23 53  1  0  0  0  0
 25 54  1  0  0  0  0
 25 55  1  0  0  0  0
M  CHG  1   3   1
M  CHG  1   9   1
M  END
> <s_m_source_file>
AV-unprocessed.smi

> <i_m_source_file_index>
1047

> <i_lp_mmshare_version>
43012

> <i_f3d_flags>
0

> <s_epik_input>
W0NIM11bQ0gyXU4xW0NIMl1bQ0gyXU9bQ0BIXShbQ0gyXTEpW0NIMl1bTkhdW0NIMl1bQ0BIXShbT0hdKVtDSDJdbihbY0hdbjIpYyhjMjMpW2NIXWMoW0NIM10pYyhbY0hdMylbQ0gzXQ==

> <s_epik_cmdline>
J2VwaWtfcHl0aG9uJywgJy1waCcsICc3LjAnLCAnLXRuJywgJzgnLCAnLW1hJywgJzIwMCcsICctbWV0YWxfYmluZGluZycsICctaW1hZScsICc8aW5maWxlLm1hZT4nLCAnLW9tYWUnLCAnPG91dGZpbGUubWFlPic=

> <r_epik_Ionization_Penalty>
0.528991

> <r_epik_Ionization_Penalty_Charging>
0.438567

> <r_epik_Ionization_Penalty_Neutral>
0.0904237

> <r_epik_State_Penalty>
0.533036

> <r_epik_Charging_Adjusted_Penalty>
0.971603

> <i_epik_Tot_Q>
2

> <i_epik_Tot_abs_Q>
2

> <r_epik_Metal_State_Penalty>
0.448985

> <b_epik_Metal_Only>
0

> <s_lp_Force_Field>
OPLS_2005

> <r_lp_Energy>
30.0062

> <b_lp_Chiralities_Consistent>
1

> <s_lp_Variant>
AV-unprocessed.smi:1047-6

> <Gold.Version>
5.8.1

> <Gold.Id.Protein>
6NUR|6NUR_protein|mol2

> <Gold.PLP.Fitness>
57.3890

> <Gold.PLP.PLP>
-41.7632

> <Gold.PLP.part.hbond>
-4.5004

> <Gold.PLP.part.metal>
0.0000

> <Gold.PLP.part.buried>
0.3324

> <Gold.PLP.part.nonpolar>
-39.0286

> <Gold.PLP.part.repulsive>
0.4535

> <Gold.PLP.ligand.clash>
0.0000

> <Gold.PLP.ligand.torsion>
1.1214

> <Gold.PLP.Chemscore.Hbond>
4.9000

> <Gold.PLP.Chemscore.CHOScore>
0.9838

> <Gold.PLP.Chemscore.Metal>
0.0000

> <Gold.Chemscore.Hbonds>
donor molecule, donor type, donor heavy atom, donor atom, acceptor molecule, acceptor atom, score
      L1  H     3    57       P1 10957  1.90
      L1  H     9    38       P1  7948  2.00
      L1  H    12    42       P1  7957  1.00
      L1  C    15    45       P1 10175  0.96

> <Gold.PLP.Chemscore.Internal.Correction>
0.2172

> <Gold.Rescore>
     Score         DG    S(hbond)    S(metal)    S(lipo)     H(rot)  DE(clash)    DE(int)     intcor
     16.89     -19.66       2.66        0.00     104.39       2.70       1.67       1.10       ----

> <Gold.Chemscore.Fitness>
16.8857

> <Gold.Chemscore.DG>
-19.6583

> <Gold.Chemscore.ZeroCoef>
-5.4800

> <Gold.Chemscore.Hbond>
2.6564

> <Gold.Chemscore.Metal>
0.0000

> <Gold.Chemscore.Lipo>
104.3932

> <Gold.Chemscore.Internal_Hbond>
0.0000

> <Gold.Chemscore.DEClash>
1.6681

> <Gold.Chemscore.DEInternal>
1.1045

> <Gold.Chemscore.Rot>
2.6985

> <Gold.Chemscore.Internal.Correction>
   9.000000E+99

> <Gold.Chemscore.Hbonds>
donor molecule, donor type, donor heavy atom, donor atom, acceptor molecule, acceptor atom, score
      L1  H     3    57       P1 10957  0.21
      L1  H     9    38       P1  7948  0.93
      L1  H    12    42       P1  7957  0.93

> <Gold.Chemscore.Hbond.Weighted>
-8.8724

> <Gold.Chemscore.Metal.Weighted>
-0.0000

> <Gold.Chemscore.Lipo.Weighted>
-12.2140

> <Gold.Chemscore.Internal_Hbond.Weighted>
0.0000

> <Gold.Chemscore.DEClash.Weighted>
1.6681

> <Gold.Chemscore.DEInternal.Weighted>
1.1045

> <Gold.Chemscore.Rot.Weighted>
6.9081

> <Gold.Chemscore.Internal.Correction.Weighted>
   9.000000E+99

> <Gold.Protein.RotatedTorsions>
[ 6907 6896 6895 6894 ] final  -69.89 input  -60.11 | X-H torsion
[ 7974 7965 7964 7962 ] final   51.72 input  175.53 | X-H torsion
[ 8008 7997 7996 7995 ] final -156.33 input   59.86 | X-H torsion
[ 10167 10162 10161 10158 ] final    6.38 input  -65.29 | X-H torsion
[ 10718 10713 10712 10709 ] final  -71.34 input   66.30 | X-H torsion
[ 10763 10752 10751 10750 ] final  116.81 input  -60.55 | X-H torsion
[ 11005 11000 10999 10996 ] final  124.66 input  -57.11 | X-H torsion

> <Gold.Protein.ActiveResidues>
 VAL166  LYS551  ARG553  GLY616  TRP617  ASP618  TYR619  PRO620  LYS621  CYS622 
 ASP623  PHE694  ASN695  SER759  ASP760  ASP761  ALA762  ILE779  LEU786  VAL792 
 PHE793  MET794  SER795  GLU796  ALA797  LYS798  CYS799  TRP800  GLU811  SER814 

> <Gold.Protein.RotatedAtoms>
  150.7284  134.5532  159.5804 H   0  0  0  0  0  0  0  0  0  0  0  0  # atno 6907 bound_to 6896
  152.3014  134.7603  160.0366 H   0  0  0  0  0  0  0  0  0  0  0  0  # atno 6908 bound_to 6896
  151.8182  133.3355  159.3613 H   0  0  0  0  0  0  0  0  0  0  0  0  # atno 6909 bound_to 6896
  145.9885  139.4314  143.0088 H   0  0  0  0  0  0  0  0  0  0  0  0  # atno 7974 bound_to 7965
  155.7155  140.0783  157.2353 H   0  0  0  0  0  0  0  0  0  0  0  0  # atno 8008 bound_to 7997
  154.4052  140.1622  156.2398 H   0  0  0  0  0  0  0  0  0  0  0  0  # atno 8009 bound_to 7997
  155.9244  140.3395  155.6201 H   0  0  0  0  0  0  0  0  0  0  0  0  # atno 8010 bound_to 7997
  140.6431  143.7728  150.7457 H   0  0  0  0  0  0  0  0  0  0  0  0  # atno 10167 bound_to 10162
  156.0367  130.4349  150.2430 H   0  0  0  0  0  0  0  0  0  0  0  0  # atno 10718 bound_to 10713
  153.5429  135.3555  155.2726 H   0  0  0  0  0  0  0  0  0  0  0  0  # atno 10763 bound_to 10752
  154.8715  135.4095  154.3024 H   0  0  0  0  0  0  0  0  0  0  0  0  # atno 10764 bound_to 10752
  153.3734  135.7065  153.6688 H   0  0  0  0  0  0  0  0  0  0  0  0  # atno 10765 bound_to 10752
  139.9369  134.9639  156.8443 H   0  0  0  0  0  0  0  0  0  0  0  0  # atno 11005 bound_to 11000
  145.7665  140.9914  143.1172 LP  0  0  0  0  0  0  0  0  0  0  0  0  # atno 17320 bound_to 7965
  144.6882  139.9394  143.7474 LP  0  0  0  0  0  0  0  0  0  0  0  0  # atno 17321 bound_to 7965
  140.1363  143.4481  152.2222 LP  0  0  0  0  0  0  0  0  0  0  0  0  # atno 17342 bound_to 10162
  139.5640  144.7424  151.4074 LP  0  0  0  0  0  0  0  0  0  0  0  0  # atno 17343 bound_to 10162
  157.0529  131.0068  151.3248 LP  0  0  0  0  0  0  0  0  0  0  0  0  # atno 17370 bound_to 10713
  157.5127  130.7949  149.7723 LP  0  0  0  0  0  0  0  0  0  0  0  0  # atno 17371 bound_to 10713
  140.6052  134.0135  155.7553 LP  0  0  0  0  0  0  0  0  0  0  0  0  # atno 17394 bound_to 11000
  141.0987  133.9802  157.3116 LP  0  0  0  0  0  0  0  0  0  0  0  0  # atno 17395 bound_to 11000

$$$$
