AV-unprocessed.smi:1421|AV-procd|sdf|5790|dock1
  -GOLD-   22720 5433D 1   1.00000     0.00000
 Structure written by MMmdl.
 45 46  0  0  0  0  0  0  0  0  1 V2000
  145.9122  135.7173  161.9092 C   0  0  0  0  0  0  0  0  0  0  0  0
  146.0113  137.2194  160.8551 S   0  0  0  0  0  0  0  0  0  0  0  0
  144.8220  137.2591  159.9908 O   0  0  0  0  0  0  0  0  0  0  0  0
  146.3491  138.3753  161.6991 O   0  0  0  0  0  0  0  0  0  0  0  0
  147.3848  136.8845  159.8637 N   0  0  0  0  0  0  0  0  0  0  0  0
  147.8672  137.9206  158.9487 C   0  0  0  0  0  0  0  0  0  0  0  0
  149.1283  137.4528  158.1983 C   0  0  0  0  0  0  0  0  0  0  0  0
  150.4253  137.8578  158.9048 C   0  0  0  0  0  0  0  0  0  0  0  0
  151.0502  137.0379  159.5777 O   0  0  0  0  0  0  0  0  0  0  0  0
  150.8243  139.1272  158.7284 N   0  0  0  0  0  0  0  0  0  0  0  0
  152.0525  139.7171  159.2536 C   0  0  0  0  0  0  0  0  0  0  0  0
  152.1385  141.2146  158.9868 C   0  0  0  0  0  0  0  0  0  0  0  0
  152.7043  142.0616  159.9640 C   0  0  0  0  0  0  0  0  0  0  0  0
  152.7706  143.4455  159.7205 C   0  0  0  0  0  0  0  0  0  0  0  0
  152.2651  143.9326  158.5017 C   0  0  0  0  0  0  0  0  0  0  0  0
  151.7229  143.1373  157.5566 N   0  0  0  0  0  0  0  0  0  0  0  0
  151.6566  141.8031  157.7874 C   0  0  0  0  0  0  0  0  0  0  0  0
  151.1083  140.9997  156.7738 N   0  0  0  0  0  0  0  0  0  0  0  0
  150.2952  141.6937  155.7823 C   0  0  0  0  0  0  0  0  0  0  0  0
  149.6217  140.6695  154.8535 C   0  0  0  0  0  0  0  0  0  0  0  0
  150.6183  139.8477  154.2525 O   0  0  0  0  0  0  0  0  0  0  0  0
  151.3670  139.1166  155.2202 C   0  0  0  0  0  0  0  0  0  0  0  0
  152.0772  140.0907  156.1770 C   0  0  0  0  0  0  0  0  0  0  0  0
  145.0692  135.8103  162.5936 H   0  0  0  0  0  0  0  0  0  0  0  0
  146.8327  135.6110  162.4824 H   0  0  0  0  0  0  0  0  0  0  0  0
  145.7720  134.8385  161.2803 H   0  0  0  0  0  0  0  0  0  0  0  0
  148.1517  136.5127  160.4239 H   0  0  0  0  0  0  0  0  0  0  0  0
  147.0707  138.1894  158.2531 H   0  0  0  0  0  0  0  0  0  0  0  0
  148.0901  138.8121  159.5358 H   0  0  0  0  0  0  0  0  0  0  0  0
  149.1205  136.3667  158.1014 H   0  0  0  0  0  0  0  0  0  0  0  0
  149.1354  137.8551  157.1852 H   0  0  0  0  0  0  0  0  0  0  0  0
  150.2427  139.7275  158.1621 H   0  0  0  0  0  0  0  0  0  0  0  0
  152.0779  139.5330  160.3280 H   0  0  0  0  0  0  0  0  0  0  0  0
  152.9434  139.2351  158.8491 H   0  0  0  0  0  0  0  0  0  0  0  0
  153.0812  141.6592  160.8928 H   0  0  0  0  0  0  0  0  0  0  0  0
  153.1968  144.1170  160.4511 H   0  0  0  0  0  0  0  0  0  0  0  0
  152.2974  144.9889  158.2788 H   0  0  0  0  0  0  0  0  0  0  0  0
  149.5400  142.2996  156.2840 H   0  0  0  0  0  0  0  0  0  0  0  0
  150.9190  142.3691  155.1949 H   0  0  0  0  0  0  0  0  0  0  0  0
  148.9082  140.0536  155.4038 H   0  0  0  0  0  0  0  0  0  0  0  0
  149.0636  141.1820  154.0700 H   0  0  0  0  0  0  0  0  0  0  0  0
  150.7078  138.4424  155.7683 H   0  0  0  0  0  0  0  0  0  0  0  0
  152.0998  138.4944  154.7064 H   0  0  0  0  0  0  0  0  0  0  0  0
  152.8267  140.6679  155.6340 H   0  0  0  0  0  0  0  0  0  0  0  0
  152.6005  139.5348  156.9558 H   0  0  0  0  0  0  0  0  0  0  0  0
  1  2  1  0  0  0  0
  1 24  1  0  0  0  0
  1 25  1  0  0  0  0
  1 26  1  0  0  0  0
  2  3  2  0  0  0  0
  2  4  2  0  0  0  0
  2  5  1  0  0  0  0
  5  6  1  0  0  0  0
  5 27  1  0  0  0  0
  6  7  1  0  0  0  0
  6 28  1  0  0  0  0
  6 29  1  0  0  0  0
  7  8  1  0  0  0  0
  7 30  1  0  0  0  0
  7 31  1  0  0  0  0
  8  9  2  0  0  0  0
  8 10  1  0  0  0  0
 10 11  1  0  0  0  0
 10 32  1  0  0  0  0
 11 12  1  0  0  0  0
 11 33  1  0  0  0  0
 11 34  1  0  0  0  0
 12 17  1  0  0  0  0
 12 13  2  0  0  0  0
 13 14  1  0  0  0  0
 13 35  1  0  0  0  0
 14 15  2  0  0  0  0
 14 36  1  0  0  0  0
 15 16  1  0  0  0  0
 15 37  1  0  0  0  0
 16 17  2  0  0  0  0
 17 18  1  0  0  0  0
 18 23  1  0  0  0  0
 18 19  1  0  0  0  0
 19 20  1  0  0  0  0
 19 38  1  0  0  0  0
 19 39  1  0  0  0  0
 20 21  1  0  0  0  0
 20 40  1  0  0  0  0
 20 41  1  0  0  0  0
 21 22  1  0  0  0  0
 22 23  1  0  0  0  0
 22 42  1  0  0  0  0
 22 43  1  0  0  0  0
 23 44  1  0  0  0  0
 23 45  1  0  0  0  0
M  END
> <s_m_source_file>
AV-unprocessed.smi

> <i_m_source_file_index>
1421

> <i_lp_mmshare_version>
43012

> <i_f3d_flags>
0

> <s_epik_input>
W0NIM11TKD1PKSg9TylbTkhdW0NIMl1bQ0gyXUMoPU8pW05IXVtDSDJdYzFbY0hdW2NIXVtjSF1uYzFOMltDSDJdW0NIMl1PW0NIMl1bQ0gyXTI=

> <s_epik_cmdline>
J2VwaWtfcHl0aG9uJywgJy1waCcsICc3LjAnLCAnLXRuJywgJzgnLCAnLW1hJywgJzIwMCcsICctbWV0YWxfYmluZGluZycsICctaW1hZScsICc8aW5maWxlLm1hZT4nLCAnLW9tYWUnLCAnPG91dGZpbGUubWFlPic=

> <r_lp_tautomer_probability>
1

> <r_epik_Ionization_Penalty>
0.00479902

> <r_epik_Ionization_Penalty_Charging>
0

> <r_epik_Ionization_Penalty_Neutral>
0.00479902

> <r_epik_State_Penalty>
0.00346804

> <r_epik_Charging_Adjusted_Penalty>
0.00346804

> <i_epik_Tot_Q>
0

> <i_epik_Tot_abs_Q>
0

> <r_epik_Metal_State_Penalty>
0.0135183

> <b_epik_Metal_Only>
0

> <s_lp_Force_Field>
OPLS_2005

> <r_lp_Energy>
16.2215

> <b_lp_Chiralities_Consistent>
1

> <s_lp_Variant>
AV-unprocessed.smi:1421-1

> <Gold.Version>
5.8.1

> <Gold.Id.Protein>
6NUR|6NUR_protein|mol2

> <Gold.PLP.Fitness>
52.1935

> <Gold.PLP.PLP>
-43.7540

> <Gold.PLP.part.hbond>
-4.0000

> <Gold.PLP.part.metal>
0.0000

> <Gold.PLP.part.buried>
-5.9334

> <Gold.PLP.part.nonpolar>
-33.8803

> <Gold.PLP.part.repulsive>
0.3552

> <Gold.PLP.ligand.clash>
0.0000

> <Gold.PLP.ligand.torsion>
1.1735

> <Gold.PLP.Chemscore.Hbond>
3.4821

> <Gold.PLP.Chemscore.CHOScore>
0.0000

> <Gold.PLP.Chemscore.Metal>
0.0000

> <Gold.Chemscore.Hbonds>
donor molecule, donor type, donor heavy atom, donor atom, acceptor molecule, acceptor atom, score
      P1  H  6896  6908       L1     9  1.00
      P1  H  6934  6947       L1     4  0.20
      P1  H  7989  7998       L1    21  1.00

> <Gold.PLP.Chemscore.Internal.Correction>
0.3401

> <Gold.Rescore>
     Score         DG    S(hbond)    S(metal)    S(lipo)     H(rot)  DE(clash)    DE(int)     intcor
     13.70     -18.18       2.78        0.00      92.76       2.90       0.33       4.15       ----

> <Gold.Chemscore.Fitness>
13.6999

> <Gold.Chemscore.DG>
-18.1779

> <Gold.Chemscore.ZeroCoef>
-5.4800

> <Gold.Chemscore.Hbond>
2.7764

> <Gold.Chemscore.Metal>
0.0000

> <Gold.Chemscore.Lipo>
92.7583

> <Gold.Chemscore.Internal_Hbond>
0.0000

> <Gold.Chemscore.DEClash>
0.3324

> <Gold.Chemscore.DEInternal>
4.1457

> <Gold.Chemscore.Rot>
2.9015

> <Gold.Chemscore.Internal.Correction>
   9.000000E+99

> <Gold.Chemscore.Hbonds>
donor molecule, donor type, donor heavy atom, donor atom, acceptor molecule, acceptor atom, score
      P1  H  6896  6908       L1     9  0.99
      P1  H  6934  6947       L1     4  0.09
      P1  H  7989  7998       L1    21  0.38

> <Gold.Chemscore.Hbond.Weighted>
-9.2730

> <Gold.Chemscore.Metal.Weighted>
-0.0000

> <Gold.Chemscore.Lipo.Weighted>
-10.8527

> <Gold.Chemscore.Internal_Hbond.Weighted>
0.0000

> <Gold.Chemscore.DEClash.Weighted>
0.3324

> <Gold.Chemscore.DEInternal.Weighted>
4.1457

> <Gold.Chemscore.Rot.Weighted>
7.4278

> <Gold.Chemscore.Internal.Correction.Weighted>
   9.000000E+99

> <Gold.Protein.RotatedTorsions>
[ 6907 6896 6895 6894 ] final -127.68 input  -60.11 | X-H torsion
[ 7974 7965 7964 7962 ] final  170.19 input  175.53 | X-H torsion
[ 8008 7997 7996 7995 ] final   84.84 input   59.86 | X-H torsion
[ 10167 10162 10161 10158 ] final -148.25 input  -65.29 | X-H torsion
[ 10718 10713 10712 10709 ] final    2.65 input   66.30 | X-H torsion
[ 10763 10752 10751 10750 ] final  121.40 input  -60.55 | X-H torsion
[ 11005 11000 10999 10996 ] final -169.78 input  -57.11 | X-H torsion

> <Gold.Protein.ActiveResidues>
 VAL166  LYS551  ARG553  GLY616  TRP617  ASP618  TYR619  PRO620  LYS621  CYS622 
 ASP623  PHE694  ASN695  SER759  ASP760  ASP761  ALA762  ILE779  LEU786  VAL792 
 PHE793  MET794  SER795  GLU796  ALA797  LYS798  CYS799  TRP800  GLU811  SER814 

> <Gold.Protein.RotatedAtoms>
  150.9098  133.7011  159.2857 H   0  0  0  0  0  0  0  0  0  0  0  0  # atno 6907 bound_to 6896
  151.4502  135.1028  159.9705 H   0  0  0  0  0  0  0  0  0  0  0  0  # atno 6908 bound_to 6896
  152.4924  133.8486  159.7245 H   0  0  0  0  0  0  0  0  0  0  0  0  # atno 6909 bound_to 6896
  144.7331  139.9165  143.6418 H   0  0  0  0  0  0  0  0  0  0  0  0  # atno 7974 bound_to 7965
  155.9422  140.3407  155.6337 H   0  0  0  0  0  0  0  0  0  0  0  0  # atno 8008 bound_to 7997
  155.7025  140.0762  157.2423 H   0  0  0  0  0  0  0  0  0  0  0  0  # atno 8009 bound_to 7997
  154.4105  140.1637  156.2194 H   0  0  0  0  0  0  0  0  0  0  0  0  # atno 8010 bound_to 7997
  139.7548  143.8464  152.2594 H   0  0  0  0  0  0  0  0  0  0  0  0  # atno 10167 bound_to 10162
  156.8661  130.5603  149.5660 H   0  0  0  0  0  0  0  0  0  0  0  0  # atno 10718 bound_to 10713
  153.6134  135.3426  155.2986 H   0  0  0  0  0  0  0  0  0  0  0  0  # atno 10763 bound_to 10752
  154.8614  135.4256  154.2285 H   0  0  0  0  0  0  0  0  0  0  0  0  # atno 10764 bound_to 10752
  153.3141  135.7033  153.7162 H   0  0  0  0  0  0  0  0  0  0  0  0  # atno 10765 bound_to 10752
  140.5268  134.5655  157.5064 H   0  0  0  0  0  0  0  0  0  0  0  0  # atno 11005 bound_to 11000
  146.0962  139.3954  143.0375 LP  0  0  0  0  0  0  0  0  0  0  0  0  # atno 17320 bound_to 7965
  145.7643  140.9923  143.1183 LP  0  0  0  0  0  0  0  0  0  0  0  0  # atno 17321 bound_to 7965
  139.8453  144.7190  150.9281 LP  0  0  0  0  0  0  0  0  0  0  0  0  # atno 17342 bound_to 10162
  140.7801  143.3947  151.1250 LP  0  0  0  0  0  0  0  0  0  0  0  0  # atno 17343 bound_to 10162
  156.0751  130.5775  150.9458 LP  0  0  0  0  0  0  0  0  0  0  0  0  # atno 17370 bound_to 10713
  157.6222  131.0928  150.8600 LP  0  0  0  0  0  0  0  0  0  0  0  0  # atno 17371 bound_to 10713
  139.9575  134.7509  156.0308 LP  0  0  0  0  0  0  0  0  0  0  0  0  # atno 17394 bound_to 11000
  141.1303  133.6588  156.3447 LP  0  0  0  0  0  0  0  0  0  0  0  0  # atno 17395 bound_to 11000

$$$$
