AV-unprocessed.smi:3274|AV-procd|sdf|12529|dock7
  -GOLD-   2272018443D 1   1.00000     0.00000
 Structure written by MMmdl.
 43 44  0  0  0  0  0  0  0  0  2 V2000
  153.0530  140.4761  159.0197 C   0  0  0  0  0  0  0  0  0  0  0  0
  152.7193  141.7647  159.7536 C   0  0  0  0  0  0  0  0  0  0  0  0
  152.8552  141.8506  161.0918 C   0  0  0  0  0  0  0  0  0  0  0  0
  152.5961  143.1031  161.9112 C   0  0  0  0  0  0  0  0  0  0  0  0
  151.9764  144.2457  161.0896 C   0  0  0  0  0  0  0  0  0  0  0  0
  152.5520  144.2898  159.6638 C   0  0  2  0  0  0  0  0  0  0  0  0
  152.1275  145.5599  158.9066 C   0  0  0  0  0  0  0  0  0  0  0  0
  152.2663  142.9619  158.9068 C   0  0  2  0  0  0  0  0  0  0  0  0
  150.7888  142.8247  158.4556 C   0  0  0  0  0  0  0  0  0  0  0  0
  150.6402  142.8326  156.9849 N   0  3  0  0  0  0  0  0  0  0  0  0
  150.4027  141.5117  156.3630 C   0  0  1  0  0  0  0  0  0  0  0  0
  149.6647  141.7065  155.0276 C   0  0  0  0  0  0  0  0  0  0  0  0
  151.7322  140.7389  156.2025 C   0  0  0  0  0  0  0  0  0  0  0  0
  151.5550  139.4203  155.6223 N   0  0  0  0  0  0  0  0  0  0  0  0
  151.9506  138.2218  156.0546 C   0  0  0  0  0  0  0  0  0  0  0  0
  151.6084  137.2239  155.2520 N   0  0  0  0  0  0  0  0  0  0  0  0
  150.9646  137.9276  154.2736 C   0  0  0  0  0  0  0  0  0  0  0  0
  150.9049  139.2482  154.4477 N   0  0  0  0  0  0  0  0  0  0  0  0
  153.6993  140.6778  158.1654 H   0  0  0  0  0  0  0  0  0  0  0  0
  152.1545  139.9720  158.6682 H   0  0  0  0  0  0  0  0  0  0  0  0
  153.5780  139.7787  159.6735 H   0  0  0  0  0  0  0  0  0  0  0  0
  153.1989  140.9917  161.6499 H   0  0  0  0  0  0  0  0  0  0  0  0
  151.9542  142.8579  162.7577 H   0  0  0  0  0  0  0  0  0  0  0  0
  153.5523  143.4257  162.3245 H   0  0  0  0  0  0  0  0  0  0  0  0
  150.8941  144.1217  161.0466 H   0  0  0  0  0  0  0  0  0  0  0  0
  152.1495  145.1928  161.6021 H   0  0  0  0  0  0  0  0  0  0  0  0
  153.6365  144.3608  159.7656 H   0  0  0  0  0  0  0  0  0  0  0  0
  151.0442  145.6749  158.8739 H   0  0  0  0  0  0  0  0  0  0  0  0
  152.5006  145.5526  157.8823 H   0  0  0  0  0  0  0  0  0  0  0  0
  152.5279  146.4495  159.3936 H   0  0  0  0  0  0  0  0  0  0  0  0
  152.8896  142.9771  158.0112 H   0  0  0  0  0  0  0  0  0  0  0  0
  150.3641  141.9097  158.8670 H   0  0  0  0  0  0  0  0  0  0  0  0
  150.1864  143.6495  158.8334 H   0  0  0  0  0  0  0  0  0  0  0  0
  149.8528  143.4268  156.7676 H   0  0  0  0  0  0  0  0  0  0  0  0
  149.7395  140.9440  157.0177 H   0  0  0  0  0  0  0  0  0  0  0  0
  149.3735  140.7529  154.5864 H   0  0  0  0  0  0  0  0  0  0  0  0
  150.2876  142.2319  154.3028 H   0  0  0  0  0  0  0  0  0  0  0  0
  148.7519  142.2872  155.1649 H   0  0  0  0  0  0  0  0  0  0  0  0
  152.4219  141.3063  155.5751 H   0  0  0  0  0  0  0  0  0  0  0  0
  152.2273  140.6102  157.1649 H   0  0  0  0  0  0  0  0  0  0  0  0
  152.4972  138.0758  156.9748 H   0  0  0  0  0  0  0  0  0  0  0  0
  150.5268  137.4531  153.4078 H   0  0  0  0  0  0  0  0  0  0  0  0
  151.4678  143.2378  156.5711 H   0  0  0  0  0  0  0  0  0  0  0  0
  1  2  1  0  0  0  0
  1 19  1  0  0  0  0
  1 20  1  0  0  0  0
  1 21  1  0  0  0  0
  2  8  1  0  0  0  0
  2  3  2  0  0  0  0
  3  4  1  0  0  0  0
  3 22  1  0  0  0  0
  4  5  1  0  0  0  0
  4 23  1  0  0  0  0
  4 24  1  0  0  0  0
  5  6  1  0  0  0  0
  5 25  1  0  0  0  0
  5 26  1  0  0  0  0
  6  7  1  0  0  0  0
  6  8  1  0  0  0  0
  6 27  1  0  0  0  0
  7 28  1  0  0  0  0
  7 29  1  0  0  0  0
  7 30  1  0  0  0  0
  8  9  1  0  0  0  0
  8 31  1  0  0  0  0
  9 10  1  0  0  0  0
  9 32  1  0  0  0  0
  9 33  1  0  0  0  0
 10 11  1  0  0  0  0
 10 34  1  0  0  0  0
 10 43  1  0  0  0  0
 11 12  1  0  0  0  0
 11 13  1  0  0  0  0
 11 35  1  0  0  0  0
 12 36  1  0  0  0  0
 12 37  1  0  0  0  0
 12 38  1  0  0  0  0
 13 14  1  0  0  0  0
 13 39  1  0  0  0  0
 13 40  1  0  0  0  0
 14 18  1  0  0  0  0
 14 15  1  0  0  0  0
 15 16  2  0  0  0  0
 15 41  1  0  0  0  0
 16 17  1  0  0  0  0
 17 18  2  0  0  0  0
 17 42  1  0  0  0  0
M  CHG  1  10   1
M  END
> <s_m_source_file>
AV-unprocessed.smi

> <i_m_source_file_index>
3274

> <i_lp_mmshare_version>
43012

> <i_f3d_flags>
0

> <s_epik_input>
W0NIM11DMT1bQ0hdW0NIMl1bQ0gyXVtDQEBIXShbQ0gzXSlbQ0BIXTFbQ0gyXVtOSF1bQ0BIXShbQ0gzXSlbQ0gyXW4yW2NIXW5bY0hdbjI=

> <s_epik_cmdline>
J2VwaWtfcHl0aG9uJywgJy1waCcsICc3LjAnLCAnLXRuJywgJzgnLCAnLW1hJywgJzIwMCcsICctbWV0YWxfYmluZGluZycsICctaW1hZScsICc8aW5maWxlLm1hZT4nLCAnLW9tYWUnLCAnPG91dGZpbGUubWFlPic=

> <r_lp_tautomer_probability>
1

> <r_epik_Ionization_Penalty>
0.0017527

> <r_epik_Ionization_Penalty_Charging>
0.00175191

> <r_epik_Ionization_Penalty_Neutral>
7.94565e-07

> <r_epik_State_Penalty>
0.00118605

> <r_epik_Charging_Adjusted_Penalty>
0.00293796

> <i_epik_Tot_Q>
1

> <i_epik_Tot_abs_Q>
1

> <r_epik_Metal_State_Penalty>
-0

> <b_epik_Metal_Only>
0

> <s_lp_Force_Field>
OPLS_2005

> <r_lp_Energy>
19.123

> <b_lp_Chiralities_Consistent>
1

> <s_lp_Variant>
AV-unprocessed.smi:3274-8

> <Gold.Version>
5.8.1

> <Gold.Id.Protein>
6NUR|6NUR_protein|mol2

> <Gold.PLP.Fitness>
58.8023

> <Gold.PLP.PLP>
-46.3429

> <Gold.PLP.part.hbond>
-3.0000

> <Gold.PLP.part.metal>
0.0000

> <Gold.PLP.part.buried>
-3.7235

> <Gold.PLP.part.nonpolar>
-38.9895

> <Gold.PLP.part.repulsive>
0.2179

> <Gold.PLP.ligand.clash>
0.0000

> <Gold.PLP.ligand.torsion>
1.3287

> <Gold.PLP.Chemscore.Hbond>
3.8960

> <Gold.PLP.Chemscore.CHOScore>
1.1232

> <Gold.PLP.Chemscore.Metal>
0.0000

> <Gold.Chemscore.Hbonds>
donor molecule, donor type, donor heavy atom, donor atom, acceptor molecule, acceptor atom, score
      L1  H    10    34       P1  8028  2.00
      P1  H  7989  7998       L1    18  0.90
      P1  H 10752 10764       L1    16  0.54
      L1  C    17    42       P1  7948  0.61
      L1  C    17    42       P1  7949  0.54

> <Gold.PLP.Chemscore.Internal.Correction>
0.0590

> <Gold.Rescore>
     Score         DG    S(hbond)    S(metal)    S(lipo)     H(rot)  DE(clash)    DE(int)     intcor
     16.19     -19.33       1.73        0.00     120.73       2.36       0.51       2.63       ----

> <Gold.Chemscore.Fitness>
16.1934

> <Gold.Chemscore.DG>
-19.3292

> <Gold.Chemscore.ZeroCoef>
-5.4800

> <Gold.Chemscore.Hbond>
1.7272

> <Gold.Chemscore.Metal>
0.0000

> <Gold.Chemscore.Lipo>
120.7322

> <Gold.Chemscore.Internal_Hbond>
0.0000

> <Gold.Chemscore.DEClash>
0.5061

> <Gold.Chemscore.DEInternal>
2.6297

> <Gold.Chemscore.Rot>
2.3615

> <Gold.Chemscore.Internal.Correction>
   9.000000E+99

> <Gold.Chemscore.Hbonds>
donor molecule, donor type, donor heavy atom, donor atom, acceptor molecule, acceptor atom, score
      L1  H    10    34       P1  8028  0.96
      P1  H  7989  7998       L1    18  0.17
      P1  H 10752 10764       L1    16  0.51

> <Gold.Chemscore.Hbond.Weighted>
-5.7689

> <Gold.Chemscore.Metal.Weighted>
-0.0000

> <Gold.Chemscore.Lipo.Weighted>
-14.1257

> <Gold.Chemscore.Internal_Hbond.Weighted>
0.0000

> <Gold.Chemscore.DEClash.Weighted>
0.5061

> <Gold.Chemscore.DEInternal.Weighted>
2.6297

> <Gold.Chemscore.Rot.Weighted>
6.0454

> <Gold.Chemscore.Internal.Correction.Weighted>
   9.000000E+99

> <Gold.Protein.RotatedTorsions>
[ 6907 6896 6895 6894 ] final    2.45 input  -60.11 | X-H torsion
[ 7974 7965 7964 7962 ] final  -87.38 input  175.53 | X-H torsion
[ 8008 7997 7996 7995 ] final -116.83 input   59.86 | X-H torsion
[ 10167 10162 10161 10158 ] final  101.42 input  -65.29 | X-H torsion
[ 10718 10713 10712 10709 ] final  -38.95 input   66.30 | X-H torsion
[ 10763 10752 10751 10750 ] final  -47.35 input  -60.55 | X-H torsion
[ 11005 11000 10999 10996 ] final -144.51 input  -57.11 | X-H torsion

> <Gold.Protein.ActiveResidues>
 VAL166  LYS551  ARG553  GLY616  TRP617  ASP618  TYR619  PRO620  LYS621  CYS622 
 ASP623  PHE694  ASN695  SER759  ASP760  ASP761  ALA762  ILE779  LEU786  VAL792 
 PHE793  MET794  SER795  GLU796  ALA797  LYS798  CYS799  TRP800  GLU811  SER814 

> <Gold.Protein.RotatedAtoms>
  151.6090  135.1041  160.0076 H   0  0  0  0  0  0  0  0  0  0  0  0  # atno 6907 bound_to 6896
  152.4218  133.7125  159.6497 H   0  0  0  0  0  0  0  0  0  0  0  0  # atno 6908 bound_to 6896
  150.8106  133.8356  159.3206 H   0  0  0  0  0  0  0  0  0  0  0  0  # atno 6909 bound_to 6896
  145.4673  140.9560  143.1936 H   0  0  0  0  0  0  0  0  0  0  0  0  # atno 7974 bound_to 7965
  155.0741  140.0393  157.2618 H   0  0  0  0  0  0  0  0  0  0  0  0  # atno 8008 bound_to 7997
  154.6959  140.2663  155.6742 H   0  0  0  0  0  0  0  0  0  0  0  0  # atno 8009 bound_to 7997
  156.2744  140.2750  156.1553 H   0  0  0  0  0  0  0  0  0  0  0  0  # atno 8010 bound_to 7997
  139.7439  144.7003  151.0533 H   0  0  0  0  0  0  0  0  0  0  0  0  # atno 10167 bound_to 10162
  156.2979  130.4236  149.8172 H   0  0  0  0  0  0  0  0  0  0  0  0  # atno 10718 bound_to 10713
  154.0600  135.6619  153.4810 H   0  0  0  0  0  0  0  0  0  0  0  0  # atno 10763 bound_to 10752
  153.0430  135.5132  154.7668 H   0  0  0  0  0  0  0  0  0  0  0  0  # atno 10764 bound_to 10752
  154.6702  135.3028  154.9719 H   0  0  0  0  0  0  0  0  0  0  0  0  # atno 10765 bound_to 10752
  140.8016  134.2850  157.4976 H   0  0  0  0  0  0  0  0  0  0  0  0  # atno 11005 bound_to 11000
  144.7966  139.6222  143.7090 LP  0  0  0  0  0  0  0  0  0  0  0  0  # atno 17320 bound_to 7965
  146.2417  139.6014  142.9487 LP  0  0  0  0  0  0  0  0  0  0  0  0  # atno 17321 bound_to 7965
  140.7789  143.4890  150.9917 LP  0  0  0  0  0  0  0  0  0  0  0  0  # atno 17342 bound_to 10162
  139.8579  143.7353  152.3175 LP  0  0  0  0  0  0  0  0  0  0  0  0  # atno 17343 bound_to 10162
  156.5561  130.8363  151.3314 LP  0  0  0  0  0  0  0  0  0  0  0  0  # atno 17370 bound_to 10713
  157.7360  130.9772  150.2114 LP  0  0  0  0  0  0  0  0  0  0  0  0  # atno 17371 bound_to 10713
  139.8721  134.9433  156.3849 LP  0  0  0  0  0  0  0  0  0  0  0  0  # atno 17394 bound_to 11000
  140.9288  133.7593  155.9999 LP  0  0  0  0  0  0  0  0  0  0  0  0  # atno 17395 bound_to 11000

$$$$
