AV-unprocessed.smi:3275|AV-procd|sdf|12530|dock2
  -GOLD-   2272018443D 1   1.00000     0.00000
 Structure written by MMmdl.
 35 36  0  0  0  0  0  0  0  0  2 V2000
  149.4797  141.0986  153.6800 O   0  0  0  0  0  0  0  0  0  0  0  0
  149.6581  140.7812  155.0436 C   0  0  0  0  0  0  0  0  0  0  0  0
  150.9743  140.0200  155.2308 C   0  0  0  0  0  0  0  0  0  0  0  0
  151.0044  139.4970  156.5533 O   0  0  0  0  0  0  0  0  0  0  0  0
  152.0204  139.9825  157.4303 C   0  0  2  0  0  0  0  0  0  0  0  0
  152.6411  138.8806  158.3137 C   0  0  0  0  0  0  0  0  0  0  0  0
  153.7788  139.4720  159.1624 C   0  0  0  0  0  0  0  0  0  0  0  0
  153.2902  140.6865  159.9721 C   0  0  0  0  0  0  0  0  0  0  0  0
  152.6723  141.6800  159.0976 N   0  0  0  0  0  0  0  0  0  0  0  0
  152.4071  142.8977  159.7417 C   0  0  0  0  0  0  0  0  0  0  0  0
  152.4749  143.0113  161.1514 C   0  0  0  0  0  0  0  0  0  0  0  0
  152.2000  144.2521  161.7610 C   0  0  0  0  0  0  0  0  0  0  0  0
  151.8782  145.3191  160.9987 N   0  3  0  0  0  0  0  0  0  0  0  0
  151.8049  145.2589  159.6515 C   0  0  0  0  0  0  0  0  0  0  0  0
  152.0682  144.0451  158.9838 C   0  0  0  0  0  0  0  0  0  0  0  0
  151.9665  143.9858  157.2592 Cl  0  0  0  0  0  0  0  0  0  0  0  0
  151.5638  141.1826  158.2867 C   0  0  0  0  0  0  0  0  0  0  0  0
  149.6037  140.3128  153.1697 H   0  0  0  0  0  0  0  0  0  0  0  0
  149.6600  141.7012  155.6287 H   0  0  0  0  0  0  0  0  0  0  0  0
  148.8152  140.1782  155.3824 H   0  0  0  0  0  0  0  0  0  0  0  0
  151.0337  139.2176  154.4957 H   0  0  0  0  0  0  0  0  0  0  0  0
  151.8114  140.6957  155.0577 H   0  0  0  0  0  0  0  0  0  0  0  0
  152.8071  140.3424  156.7653 H   0  0  0  0  0  0  0  0  0  0  0  0
  151.8942  138.4516  158.9812 H   0  0  0  0  0  0  0  0  0  0  0  0
  153.0178  138.0660  157.6945 H   0  0  0  0  0  0  0  0  0  0  0  0
  154.1794  138.7121  159.8336 H   0  0  0  0  0  0  0  0  0  0  0  0
  154.6001  139.7744  158.5114 H   0  0  0  0  0  0  0  0  0  0  0  0
  152.5676  140.3644  160.7234 H   0  0  0  0  0  0  0  0  0  0  0  0
  154.1290  141.1344  160.5068 H   0  0  0  0  0  0  0  0  0  0  0  0
  152.7366  142.1599  161.7628 H   0  0  0  0  0  0  0  0  0  0  0  0
  152.2288  144.4219  162.8274 H   0  0  0  0  0  0  0  0  0  0  0  0
  151.5384  146.1779  159.1503 H   0  0  0  0  0  0  0  0  0  0  0  0
  151.1933  141.9806  157.6418 H   0  0  0  0  0  0  0  0  0  0  0  0
  150.7470  140.8928  158.9474 H   0  0  0  0  0  0  0  0  0  0  0  0
  151.6826  146.2083  161.4595 H   0  0  0  0  0  0  0  0  0  0  0  0
  1  2  1  0  0  0  0
  1 18  1  0  0  0  0
  2  3  1  0  0  0  0
  2 19  1  0  0  0  0
  2 20  1  0  0  0  0
  3  4  1  0  0  0  0
  3 21  1  0  0  0  0
  3 22  1  0  0  0  0
  4  5  1  0  0  0  0
  5 17  1  0  0  0  0
  5  6  1  0  0  0  0
  5 23  1  0  0  0  0
  6  7  1  0  0  0  0
  6 24  1  0  0  0  0
  6 25  1  0  0  0  0
  7  8  1  0  0  0  0
  7 26  1  0  0  0  0
  7 27  1  0  0  0  0
  8  9  1  0  0  0  0
  8 28  1  0  0  0  0
  8 29  1  0  0  0  0
  9 10  1  0  0  0  0
  9 17  1  0  0  0  0
 10 15  1  0  0  0  0
 10 11  2  0  0  0  0
 11 12  1  0  0  0  0
 11 30  1  0  0  0  0
 12 13  2  0  0  0  0
 12 31  1  0  0  0  0
 13 14  1  0  0  0  0
 13 35  1  0  0  0  0
 14 15  2  0  0  0  0
 14 32  1  0  0  0  0
 15 16  1  0  0  0  0
 17 33  1  0  0  0  0
 17 34  1  0  0  0  0
M  CHG  1  13   1
M  END
> <s_m_source_file>
AV-unprocessed.smi

> <i_m_source_file_index>
3275

> <i_lp_mmshare_version>
43012

> <i_f3d_flags>
0

> <s_epik_input>
W09IXVtDSDJdW0NIMl1PW0NAQEhdMVtDSDJdW0NIMl1bQ0gyXU4oW0NIMl0xKWMyW2NIXVtjSF1uW2NIXWMyQ2w=

> <s_epik_cmdline>
J2VwaWtfcHl0aG9uJywgJy1waCcsICc3LjAnLCAnLXRuJywgJzgnLCAnLW1hJywgJzIwMCcsICctbWV0YWxfYmluZGluZycsICctaW1hZScsICc8aW5maWxlLm1hZT4nLCAnLW9tYWUnLCAnPG91dGZpbGUubWFlPic=

> <r_lp_tautomer_probability>
1

> <r_epik_Ionization_Penalty>
0.0778579

> <r_epik_Ionization_Penalty_Charging>
0.0778578

> <r_epik_Ionization_Penalty_Neutral>
8.80348e-08

> <r_epik_State_Penalty>
0.0687871

> <r_epik_Charging_Adjusted_Penalty>
0.146645

> <i_epik_Tot_Q>
1

> <i_epik_Tot_abs_Q>
1

> <r_epik_Metal_State_Penalty>
2.85646

> <b_epik_Metal_Only>
0

> <s_lp_Force_Field>
OPLS_2005

> <r_lp_Energy>
28.015

> <b_lp_Chiralities_Consistent>
1

> <s_lp_Variant>
AV-unprocessed.smi:3275-1

> <Gold.Version>
5.8.1

> <Gold.Id.Protein>
6NUR|6NUR_protein|mol2

> <Gold.PLP.Fitness>
44.0810

> <Gold.PLP.PLP>
-41.8680

> <Gold.PLP.part.hbond>
-4.0000

> <Gold.PLP.part.metal>
0.0000

> <Gold.PLP.part.buried>
-1.8919

> <Gold.PLP.part.nonpolar>
-34.9236

> <Gold.PLP.part.repulsive>
0.1097

> <Gold.PLP.ligand.clash>
0.6751

> <Gold.PLP.ligand.torsion>
1.0501

> <Gold.PLP.Chemscore.Hbond>
1.5840

> <Gold.PLP.Chemscore.CHOScore>
0.0000

> <Gold.PLP.Chemscore.Metal>
0.0000

> <Gold.Chemscore.Hbonds>
donor molecule, donor type, donor heavy atom, donor atom, acceptor molecule, acceptor atom, score
      L1  H     1    18       P1  7957  0.61
      P1  H  8011  8017       L1     1  0.98

> <Gold.PLP.Chemscore.Internal.Correction>
0.2364

> <Gold.Rescore>
     Score         DG    S(hbond)    S(metal)    S(lipo)     H(rot)  DE(clash)    DE(int)     intcor
     15.02     -18.36       1.39        0.00     117.22       2.14       1.15       2.19       ----

> <Gold.Chemscore.Fitness>
15.0220

> <Gold.Chemscore.DG>
-18.3634

> <Gold.Chemscore.ZeroCoef>
-5.4800

> <Gold.Chemscore.Hbond>
1.3913

> <Gold.Chemscore.Metal>
0.0000

> <Gold.Chemscore.Lipo>
117.2202

> <Gold.Chemscore.Internal_Hbond>
0.0000

> <Gold.Chemscore.DEClash>
1.1517

> <Gold.Chemscore.DEInternal>
2.1898

> <Gold.Chemscore.Rot>
2.1400

> <Gold.Chemscore.Internal.Correction>
   9.000000E+99

> <Gold.Chemscore.Hbonds>
donor molecule, donor type, donor heavy atom, donor atom, acceptor molecule, acceptor atom, score
      L1  H     1    18       P1  7957  0.56
      P1  H  8011  8017       L1     1  0.24

> <Gold.Chemscore.Hbond.Weighted>
-4.6469

> <Gold.Chemscore.Metal.Weighted>
-0.0000

> <Gold.Chemscore.Lipo.Weighted>
-13.7148

> <Gold.Chemscore.Internal_Hbond.Weighted>
0.0000

> <Gold.Chemscore.DEClash.Weighted>
1.1517

> <Gold.Chemscore.DEInternal.Weighted>
2.1898

> <Gold.Chemscore.Rot.Weighted>
5.4783

> <Gold.Chemscore.Internal.Correction.Weighted>
   9.000000E+99

> <Gold.Protein.RotatedTorsions>
[ 6907 6896 6895 6894 ] final  155.76 input  -60.11 | X-H torsion
[ 7974 7965 7964 7962 ] final   60.36 input  175.53 | X-H torsion
[ 8008 7997 7996 7995 ] final   64.27 input   59.86 | X-H torsion
[ 10167 10162 10161 10158 ] final  151.66 input  -65.29 | X-H torsion
[ 10718 10713 10712 10709 ] final  123.56 input   66.30 | X-H torsion
[ 10763 10752 10751 10750 ] final -164.23 input  -60.55 | X-H torsion
[ 11005 11000 10999 10996 ] final   10.41 input  -57.11 | X-H torsion

> <Gold.Protein.ActiveResidues>
 VAL166  LYS551  ARG553  GLY616  TRP617  ASP618  TYR619  PRO620  LYS621  CYS622 
 ASP623  PHE694  ASN695  SER759  ASP760  ASP761  ALA762  ILE779  LEU786  VAL792 
 PHE793  MET794  SER795  GLU796  ALA797  LYS798  CYS799  TRP800  GLU811  SER814 

> <Gold.Protein.RotatedAtoms>
  152.0395  133.3971  159.4330 H   0  0  0  0  0  0  0  0  0  0  0  0  # atno 6907 bound_to 6896
  150.6876  134.3430  159.4885 H   0  0  0  0  0  0  0  0  0  0  0  0  # atno 6908 bound_to 6896
  152.1227  134.9193  160.0613 H   0  0  0  0  0  0  0  0  0  0  0  0  # atno 6909 bound_to 6896
  145.8969  139.3552  143.0616 H   0  0  0  0  0  0  0  0  0  0  0  0  # atno 7974 bound_to 7965
  155.6434  140.3497  155.4723 H   0  0  0  0  0  0  0  0  0  0  0  0  # atno 8008 bound_to 7997
  155.9907  140.1193  157.0664 H   0  0  0  0  0  0  0  0  0  0  0  0  # atno 8009 bound_to 7997
  154.4218  140.1120  156.5548 H   0  0  0  0  0  0  0  0  0  0  0  0  # atno 8010 bound_to 7997
  139.4839  144.5423  151.7544 H   0  0  0  0  0  0  0  0  0  0  0  0  # atno 10167 bound_to 10162
  157.5655  131.1087  150.8462 H   0  0  0  0  0  0  0  0  0  0  0  0  # atno 10718 bound_to 10713
  154.7048  135.2995  154.9286 H   0  0  0  0  0  0  0  0  0  0  0  0  # atno 10763 bound_to 10752
  154.0207  135.6683  153.4776 H   0  0  0  0  0  0  0  0  0  0  0  0  # atno 10764 bound_to 10752
  153.0709  135.5061  154.8213 H   0  0  0  0  0  0  0  0  0  0  0  0  # atno 10765 bound_to 10752
  140.5148  134.0617  155.7828 H   0  0  0  0  0  0  0  0  0  0  0  0  # atno 11005 bound_to 11000
  145.8840  140.9345  143.0587 LP  0  0  0  0  0  0  0  0  0  0  0  0  # atno 17320 bound_to 7965
  144.6733  140.0817  143.7469 LP  0  0  0  0  0  0  0  0  0  0  0  0  # atno 17321 bound_to 7965
  140.4964  144.1234  150.5961 LP  0  0  0  0  0  0  0  0  0  0  0  0  # atno 17342 bound_to 10162
  140.4112  143.2656  151.9830 LP  0  0  0  0  0  0  0  0  0  0  0  0  # atno 17343 bound_to 10162
  156.8948  130.5225  149.5285 LP  0  0  0  0  0  0  0  0  0  0  0  0  # atno 17370 bound_to 10713
  156.0704  130.5738  150.9371 LP  0  0  0  0  0  0  0  0  0  0  0  0  # atno 17371 bound_to 10713
  141.1366  133.9210  157.2419 LP  0  0  0  0  0  0  0  0  0  0  0  0  # atno 17394 bound_to 11000
  139.9639  135.0147  156.9334 LP  0  0  0  0  0  0  0  0  0  0  0  0  # atno 17395 bound_to 11000

$$$$
