AV-unprocessed.smi:3267|AV-procd|sdf|12505|dock8
  -GOLD-   2272018413D 1   1.00000     0.00000
 Structure written by MMmdl.
 38 39  0  0  0  0  0  0  0  0  1 V2000
  147.1771  140.2432  155.3888 C   0  0  0  0  0  0  0  0  0  0  0  0
  147.8133  141.3453  154.5261 C   0  0  1  0  0  0  0  0  0  0  0  0
  146.7740  142.2289  153.7950 C   0  0  0  0  0  0  0  0  0  0  0  0
  145.8974  142.9668  154.6902 N   0  0  0  0  0  0  0  0  0  0  0  0
  144.7978  143.7365  154.3721 C   0  0  0  0  0  0  0  0  0  0  0  0
  144.2964  144.2331  155.5409 C   0  0  0  0  0  0  0  0  0  0  0  0
  145.1712  143.7094  156.5332 C   0  0  0  0  0  0  0  0  0  0  0  0
  146.1290  142.9538  156.0213 N   0  0  0  0  0  0  0  0  0  0  0  0
  148.7055  142.1518  155.3561 N   0  0  0  0  0  0  0  0  0  0  0  0
  149.6841  141.6742  156.1372 C   0  0  0  0  0  0  0  0  0  0  0  0
  149.9461  140.4776  156.2620 O   0  0  0  0  0  0  0  0  0  0  0  0
  150.3421  142.6593  156.7632 N   0  0  0  0  0  0  0  0  0  0  0  0
  151.4421  142.4686  157.7010 C   0  0  0  0  0  0  0  0  0  0  0  0
  151.2199  143.2678  158.9955 C   0  0  2  0  0  0  0  0  0  0  0  0
  151.2993  144.7827  158.8078 C   0  0  0  0  0  0  0  0  0  0  0  0
  151.7473  145.2969  160.1688 C   0  0  0  0  0  0  0  0  0  0  0  0
  152.1616  144.0348  160.9296 C   0  0  0  0  0  0  0  0  0  0  0  0
  152.2555  143.0265  159.9350 O   0  0  0  0  0  0  0  0  0  0  0  0
  146.4980  139.6278  154.7985 H   0  0  0  0  0  0  0  0  0  0  0  0
  146.6113  140.6581  156.2236 H   0  0  0  0  0  0  0  0  0  0  0  0
  147.9401  139.5844  155.8047 H   0  0  0  0  0  0  0  0  0  0  0  0
  148.4186  140.8489  153.7653 H   0  0  0  0  0  0  0  0  0  0  0  0
  147.2660  142.9345  153.1238 H   0  0  0  0  0  0  0  0  0  0  0  0
  146.1483  141.5997  153.1608 H   0  0  0  0  0  0  0  0  0  0  0  0
  144.4660  143.8623  153.3519 H   0  0  0  0  0  0  0  0  0  0  0  0
  143.4369  144.8744  155.6680 H   0  0  0  0  0  0  0  0  0  0  0  0
  145.1395  143.8551  157.6029 H   0  0  0  0  0  0  0  0  0  0  0  0
  148.5760  143.1522  155.3194 H   0  0  0  0  0  0  0  0  0  0  0  0
  150.0524  143.6105  156.5891 H   0  0  0  0  0  0  0  0  0  0  0  0
  151.5919  141.4096  157.9189 H   0  0  0  0  0  0  0  0  0  0  0  0
  152.3530  142.8144  157.2118 H   0  0  0  0  0  0  0  0  0  0  0  0
  150.2615  143.0033  159.4467 H   0  0  0  0  0  0  0  0  0  0  0  0
  152.0528  145.0329  158.0597 H   0  0  0  0  0  0  0  0  0  0  0  0
  150.3506  145.2114  158.4836 H   0  0  0  0  0  0  0  0  0  0  0  0
  152.5841  145.9876  160.0599 H   0  0  0  0  0  0  0  0  0  0  0  0
  150.9456  145.8204  160.6907 H   0  0  0  0  0  0  0  0  0  0  0  0
  153.1056  144.1557  161.4614 H   0  0  0  0  0  0  0  0  0  0  0  0
  151.3957  143.7532  161.6535 H   0  0  0  0  0  0  0  0  0  0  0  0
  1  2  1  0  0  0  0
  1 19  1  0  0  0  0
  1 20  1  0  0  0  0
  1 21  1  0  0  0  0
  2  3  1  0  0  0  0
  2  9  1  0  0  0  0
  2 22  1  0  0  0  0
  3  4  1  0  0  0  0
  3 23  1  0  0  0  0
  3 24  1  0  0  0  0
  4  8  1  0  0  0  0
  4  5  1  0  0  0  0
  5  6  2  0  0  0  0
  5 25  1  0  0  0  0
  6  7  1  0  0  0  0
  6 26  1  0  0  0  0
  7  8  2  0  0  0  0
  7 27  1  0  0  0  0
  9 10  1  0  0  0  0
  9 28  1  0  0  0  0
 10 11  2  0  0  0  0
 10 12  1  0  0  0  0
 12 13  1  0  0  0  0
 12 29  1  0  0  0  0
 13 14  1  0  0  0  0
 13 30  1  0  0  0  0
 13 31  1  0  0  0  0
 14 18  1  0  0  0  0
 14 15  1  0  0  0  0
 14 32  1  0  0  0  0
 15 16  1  0  0  0  0
 15 33  1  0  0  0  0
 15 34  1  0  0  0  0
 16 17  1  0  0  0  0
 16 35  1  0  0  0  0
 16 36  1  0  0  0  0
 17 18  1  0  0  0  0
 17 37  1  0  0  0  0
 17 38  1  0  0  0  0
M  END
> <s_m_source_file>
AV-unprocessed.smi

> <i_m_source_file_index>
3267

> <i_lp_mmshare_version>
43012

> <i_f3d_flags>
0

> <s_epik_input>
bjFbY0hdW2NIXVtjSF1uMVtDSDJdW0NAQEhdKFtDSDNdKVtOSF1DKD1PKVtOSF1bQ0gyXVtDQEBIXTJbQ0gyXVtDSDJdW0NIMl1PMg==

> <s_epik_cmdline>
J2VwaWtfcHl0aG9uJywgJy1waCcsICc3LjAnLCAnLXRuJywgJzgnLCAnLW1hJywgJzIwMCcsICctbWV0YWxfYmluZGluZycsICctaW1hZScsICc8aW5maWxlLm1hZT4nLCAnLW9tYWUnLCAnPG91dGZpbGUubWFlPic=

> <r_lp_tautomer_probability>
1

> <r_epik_Ionization_Penalty>
6.24796e-05

> <r_epik_Ionization_Penalty_Charging>
0

> <r_epik_Ionization_Penalty_Neutral>
6.24796e-05

> <r_epik_State_Penalty>
-0

> <r_epik_Charging_Adjusted_Penalty>
0

> <i_epik_Tot_Q>
0

> <i_epik_Tot_abs_Q>
0

> <r_epik_Metal_State_Penalty>
-0

> <b_epik_Metal_Only>
0

> <s_lp_Force_Field>
OPLS_2005

> <r_lp_Energy>
14.7816

> <b_lp_Chiralities_Consistent>
1

> <s_lp_Variant>
AV-unprocessed.smi:3267-2

> <Gold.Version>
5.8.1

> <Gold.Id.Protein>
6NUR|6NUR_protein|mol2

> <Gold.PLP.Fitness>
44.8767

> <Gold.PLP.PLP>
-36.2957

> <Gold.PLP.part.hbond>
-2.0000

> <Gold.PLP.part.metal>
0.0000

> <Gold.PLP.part.buried>
-7.2768

> <Gold.PLP.part.nonpolar>
-28.0505

> <Gold.PLP.part.repulsive>
0.3936

> <Gold.PLP.ligand.clash>
0.0000

> <Gold.PLP.ligand.torsion>
0.1503

> <Gold.PLP.Chemscore.Hbond>
1.9440

> <Gold.PLP.Chemscore.CHOScore>
0.9992

> <Gold.PLP.Chemscore.Metal>
0.0000

> <Gold.Chemscore.Hbonds>
donor molecule, donor type, donor heavy atom, donor atom, acceptor molecule, acceptor atom, score
      L1  H     9    28       P1  8028  1.00
      L1  H    12    29       P1  8028  0.94
      L1  C     5    25       P1 10174  0.89

> <Gold.PLP.Chemscore.Internal.Correction>
0.0518

> <Gold.Rescore>
     Score         DG    S(hbond)    S(metal)    S(lipo)     H(rot)  DE(clash)    DE(int)     intcor
     15.89     -17.22       1.95        0.00      85.65       1.87       0.06       1.27       ----

> <Gold.Chemscore.Fitness>
15.8870

> <Gold.Chemscore.DG>
-17.2189

> <Gold.Chemscore.ZeroCoef>
-5.4800

> <Gold.Chemscore.Hbond>
1.9494

> <Gold.Chemscore.Metal>
0.0000

> <Gold.Chemscore.Lipo>
85.6495

> <Gold.Chemscore.Internal_Hbond>
0.0000

> <Gold.Chemscore.DEClash>
0.0625

> <Gold.Chemscore.DEInternal>
1.2694

> <Gold.Chemscore.Rot>
1.8724

> <Gold.Chemscore.Internal.Correction>
   9.000000E+99

> <Gold.Chemscore.Hbonds>
donor molecule, donor type, donor heavy atom, donor atom, acceptor molecule, acceptor atom, score
      L1  H     9    28       P1  8028  0.98
      L1  H    12    29       P1  8028  0.91

> <Gold.Chemscore.Hbond.Weighted>
-6.5112

> <Gold.Chemscore.Metal.Weighted>
-0.0000

> <Gold.Chemscore.Lipo.Weighted>
-10.0210

> <Gold.Chemscore.Internal_Hbond.Weighted>
0.0000

> <Gold.Chemscore.DEClash.Weighted>
0.0625

> <Gold.Chemscore.DEInternal.Weighted>
1.2694

> <Gold.Chemscore.Rot.Weighted>
4.7933

> <Gold.Chemscore.Internal.Correction.Weighted>
   9.000000E+99

> <Gold.Protein.RotatedTorsions>
[ 6907 6896 6895 6894 ] final   -6.48 input  -60.11 | X-H torsion
[ 7974 7965 7964 7962 ] final -162.79 input  175.53 | X-H torsion
[ 8008 7997 7996 7995 ] final   21.61 input   59.86 | X-H torsion
[ 10167 10162 10161 10158 ] final -154.56 input  -65.29 | X-H torsion
[ 10718 10713 10712 10709 ] final  157.89 input   66.30 | X-H torsion
[ 10763 10752 10751 10750 ] final -151.49 input  -60.55 | X-H torsion
[ 11005 11000 10999 10996 ] final   41.49 input  -57.11 | X-H torsion

> <Gold.Protein.ActiveResidues>
 VAL166  LYS551  ARG553  GLY616  TRP617  ASP618  TYR619  PRO620  LYS621  CYS622 
 ASP623  PHE694  ASN695  SER759  ASP760  ASP761  ALA762  ILE779  LEU786  VAL792 
 PHE793  MET794  SER795  GLU796  ALA797  LYS798  CYS799  TRP800  GLU811  SER814 

> <Gold.Protein.RotatedAtoms>
  151.4648  135.1041  159.9734 H   0  0  0  0  0  0  0  0  0  0  0  0  # atno 6907 bound_to 6896
  152.4839  133.8319  159.7118 H   0  0  0  0  0  0  0  0  0  0  0  0  # atno 6908 bound_to 6896
  150.8932  133.7155  159.2926 H   0  0  0  0  0  0  0  0  0  0  0  0  # atno 6909 bound_to 6896
  144.7346  140.3202  143.6172 H   0  0  0  0  0  0  0  0  0  0  0  0  # atno 7974 bound_to 7965
  154.9532  140.3068  155.5065 H   0  0  0  0  0  0  0  0  0  0  0  0  # atno 8008 bound_to 7997
  156.2985  140.2315  156.4550 H   0  0  0  0  0  0  0  0  0  0  0  0  # atno 8009 bound_to 7997
  154.8035  140.0432  157.1278 H   0  0  0  0  0  0  0  0  0  0  0  0  # atno 8010 bound_to 7997
  139.7003  143.9274  152.2425 H   0  0  0  0  0  0  0  0  0  0  0  0  # atno 10167 bound_to 10162
  157.1853  131.0642  151.2109 H   0  0  0  0  0  0  0  0  0  0  0  0  # atno 10718 bound_to 10713
  154.8054  135.3259  154.7443 H   0  0  0  0  0  0  0  0  0  0  0  0  # atno 10763 bound_to 10752
  153.8103  135.6896  153.4846 H   0  0  0  0  0  0  0  0  0  0  0  0  # atno 10764 bound_to 10752
  153.1797  135.4591  154.9956 H   0  0  0  0  0  0  0  0  0  0  0  0  # atno 10765 bound_to 10752
  140.1829  134.4081  155.8190 H   0  0  0  0  0  0  0  0  0  0  0  0  # atno 11005 bound_to 11000
  145.7576  139.1814  143.2285 LP  0  0  0  0  0  0  0  0  0  0  0  0  # atno 17320 bound_to 7965
  146.1012  140.7542  142.9548 LP  0  0  0  0  0  0  0  0  0  0  0  0  # atno 17321 bound_to 7965
  139.9114  144.6854  150.8558 LP  0  0  0  0  0  0  0  0  0  0  0  0  # atno 17342 bound_to 10162
  140.7708  143.3440  151.2149 LP  0  0  0  0  0  0  0  0  0  0  0  0  # atno 17343 bound_to 10162
  157.3913  130.7283  149.6699 LP  0  0  0  0  0  0  0  0  0  0  0  0  # atno 17370 bound_to 10713
  155.9719  130.4145  150.4138 LP  0  0  0  0  0  0  0  0  0  0  0  0  # atno 17371 bound_to 10713
  141.2224  133.7009  156.7962 LP  0  0  0  0  0  0  0  0  0  0  0  0  # atno 17394 bound_to 11000
  140.2247  134.8731  157.3414 LP  0  0  0  0  0  0  0  0  0  0  0  0  # atno 17395 bound_to 11000

$$$$
