AV-unprocessed.smi:1914|AV-procd|sdf|7757|dock7
  -GOLD-   22720 9493D 1   1.00000     0.00000
 Structure written by MMmdl.
 44 45  0  0  0  0  0  0  0  0  2 V2000
  145.6573  135.7489  151.1039 C   0  0  0  0  0  0  0  0  0  0  0  0
  145.1999  134.7128  152.1464 C   0  0  1  0  0  0  0  0  0  0  0  0
  145.0956  133.2898  151.5674 C   0  0  0  0  0  0  0  0  0  0  0  0
  146.4850  132.6755  151.3478 C   0  0  0  0  0  0  0  0  0  0  0  0
  147.3263  132.7394  152.6321 C   0  0  0  0  0  0  0  0  0  0  0  0
  147.4330  134.1330  153.1364 N   0  3  2  0  0  0  0  0  0  0  0  0
  148.3605  134.2380  154.2906 C   0  0  0  0  0  0  0  0  0  0  0  0
  147.7663  133.6483  155.5854 C   0  0  0  0  0  0  0  0  0  0  0  0
  148.3649  134.2552  156.7679 N   0  0  0  0  0  0  0  0  0  0  0  0
  147.7087  135.0237  157.6504 C   0  0  0  0  0  0  0  0  0  0  0  0
  146.5198  135.3217  157.5288 O   0  0  0  0  0  0  0  0  0  0  0  0
  148.5272  135.5405  158.8411 C   0  0  0  0  0  0  0  0  0  0  0  0
  147.9308  135.1874  160.1401 N   0  0  0  0  0  0  0  0  0  0  0  0
  147.7938  133.8162  160.4347 C   0  0  0  0  0  0  0  0  0  0  0  0
  147.2657  133.3885  161.5923 C   0  0  0  0  0  0  0  0  0  0  0  0
  146.8306  134.3764  162.5511 C   0  0  0  0  0  0  0  0  0  0  0  0
  146.9607  135.6905  162.2812 C   0  0  0  0  0  0  0  0  0  0  0  0
  147.5410  136.1627  161.0187 C   0  0  0  0  0  0  0  0  0  0  0  0
  147.6715  137.3612  160.7665 O   0  0  0  0  0  0  0  0  0  0  0  0
  146.0913  134.7195  153.4057 C   0  0  0  0  0  0  0  0  0  0  0  0
  146.6690  135.5523  150.7490 H   0  0  0  0  0  0  0  0  0  0  0  0
  145.6461  136.7556  151.5225 H   0  0  0  0  0  0  0  0  0  0  0  0
  144.9965  135.7496  150.2364 H   0  0  0  0  0  0  0  0  0  0  0  0
  144.1969  135.0111  152.4546 H   0  0  0  0  0  0  0  0  0  0  0  0
  144.5349  132.6613  152.2608 H   0  0  0  0  0  0  0  0  0  0  0  0
  144.5302  133.2943  150.6348 H   0  0  0  0  0  0  0  0  0  0  0  0
  146.3837  131.6397  151.0228 H   0  0  0  0  0  0  0  0  0  0  0  0
  147.0016  133.1982  150.5422 H   0  0  0  0  0  0  0  0  0  0  0  0
  146.8868  132.1051  153.4037 H   0  0  0  0  0  0  0  0  0  0  0  0
  148.3206  132.3428  152.4241 H   0  0  0  0  0  0  0  0  0  0  0  0
  149.3089  133.7617  154.0369 H   0  0  0  0  0  0  0  0  0  0  0  0
  148.5858  135.2895  154.4760 H   0  0  0  0  0  0  0  0  0  0  0  0
  146.6917  133.8305  155.6183 H   0  0  0  0  0  0  0  0  0  0  0  0
  147.9003  132.5675  155.6364 H   0  0  0  0  0  0  0  0  0  0  0  0
  149.3426  134.0659  156.9370 H   0  0  0  0  0  0  0  0  0  0  0  0
  149.5472  135.1548  158.7842 H   0  0  0  0  0  0  0  0  0  0  0  0
  148.6237  136.6223  158.7412 H   0  0  0  0  0  0  0  0  0  0  0  0
  148.1495  133.1421  159.6692 H   0  0  0  0  0  0  0  0  0  0  0  0
  147.1721  132.3333  161.8031 H   0  0  0  0  0  0  0  0  0  0  0  0
  146.4003  134.0605  163.4899 H   0  0  0  0  0  0  0  0  0  0  0  0
  146.6303  136.4148  163.0111 H   0  0  0  0  0  0  0  0  0  0  0  0
  146.1814  135.7408  153.7735 H   0  0  0  0  0  0  0  0  0  0  0  0
  145.6086  134.1486  154.2009 H   0  0  0  0  0  0  0  0  0  0  0  0
  147.8457  134.6713  152.3882 H   0  0  0  0  0  0  0  0  0  0  0  0
  1  2  1  0  0  0  0
  1 21  1  0  0  0  0
  1 22  1  0  0  0  0
  1 23  1  0  0  0  0
  2 20  1  0  0  0  0
  2  3  1  0  0  0  0
  2 24  1  0  0  0  0
  3  4  1  0  0  0  0
  3 25  1  0  0  0  0
  3 26  1  0  0  0  0
  4  5  1  0  0  0  0
  4 27  1  0  0  0  0
  4 28  1  0  0  0  0
  5  6  1  0  0  0  0
  5 29  1  0  0  0  0
  5 30  1  0  0  0  0
  6  7  1  0  0  0  0
  6 20  1  0  0  0  0
  6 44  1  0  0  0  0
  7  8  1  0  0  0  0
  7 31  1  0  0  0  0
  7 32  1  0  0  0  0
  8  9  1  0  0  0  0
  8 33  1  0  0  0  0
  8 34  1  0  0  0  0
  9 10  1  0  0  0  0
  9 35  1  0  0  0  0
 10 11  2  0  0  0  0
 10 12  1  0  0  0  0
 12 13  1  0  0  0  0
 12 36  1  0  0  0  0
 12 37  1  0  0  0  0
 13 18  1  0  0  0  0
 13 14  1  0  0  0  0
 14 15  2  0  0  0  0
 14 38  1  0  0  0  0
 15 16  1  0  0  0  0
 15 39  1  0  0  0  0
 16 17  2  0  0  0  0
 16 40  1  0  0  0  0
 17 18  1  0  0  0  0
 17 41  1  0  0  0  0
 18 19  2  0  0  0  0
 20 42  1  0  0  0  0
 20 43  1  0  0  0  0
M  CHG  1   6   1
M  END
> <s_m_source_file>
AV-unprocessed.smi

> <i_m_source_file_index>
1914

> <i_lp_mmshare_version>
43012

> <i_f3d_flags>
0

> <s_epik_input>
W0NIM11bQ0BASF0xW0NIMl1bQ0gyXVtDSDJdTihbQ0gyXTEpW0NIMl1bQ0gyXVtOSF1DKD1PKVtDSDJdbjJbY0hdW2NIXVtjSF1bY0hdYzI9Tw==

> <s_epik_cmdline>
J2VwaWtfcHl0aG9uJywgJy1waCcsICc3LjAnLCAnLXRuJywgJzgnLCAnLW1hJywgJzIwMCcsICctbWV0YWxfYmluZGluZycsICctaW1hZScsICc8aW5maWxlLm1hZT4nLCAnLW9tYWUnLCAnPG91dGZpbGUubWFlPic=

> <r_lp_tautomer_probability>
1

> <r_epik_Ionization_Penalty>
0.00192477

> <r_epik_Ionization_Penalty_Charging>
0.00192469

> <r_epik_Ionization_Penalty_Neutral>
8.16761e-08

> <r_epik_State_Penalty>
0.00131115

> <r_epik_Charging_Adjusted_Penalty>
0.00323584

> <i_epik_Tot_Q>
1

> <i_epik_Tot_abs_Q>
1

> <r_epik_Metal_State_Penalty>
-0

> <b_epik_Metal_Only>
0

> <s_lp_Force_Field>
OPLS_2005

> <r_lp_Energy>
26.9479

> <b_lp_Chiralities_Consistent>
1

> <s_lp_Variant>
AV-unprocessed.smi:1914-2

> <Gold.Version>
5.8.1

> <Gold.Id.Protein>
6NUR|6NUR_protein|mol2

> <Gold.PLP.Fitness>
44.3738

> <Gold.PLP.PLP>
-33.5322

> <Gold.PLP.part.hbond>
-3.0000

> <Gold.PLP.part.metal>
0.0000

> <Gold.PLP.part.buried>
-2.9099

> <Gold.PLP.part.nonpolar>
-27.3415

> <Gold.PLP.part.repulsive>
0.0290

> <Gold.PLP.ligand.clash>
0.0000

> <Gold.PLP.ligand.torsion>
0.2328

> <Gold.PLP.Chemscore.Hbond>
3.7600

> <Gold.PLP.Chemscore.CHOScore>
0.0000

> <Gold.PLP.Chemscore.Metal>
0.0000

> <Gold.Chemscore.Hbonds>
donor molecule, donor type, donor heavy atom, donor atom, acceptor molecule, acceptor atom, score
      L1  H     6    44       P1  7948  1.95
      P1  H  6931  6943       L1    19  0.74
      P1  H  6934  6947       L1    19  0.91

> <Gold.PLP.Chemscore.Internal.Correction>
0.0271

> <Gold.Rescore>
     Score         DG    S(hbond)    S(metal)    S(lipo)     H(rot)  DE(clash)    DE(int)     intcor
     17.87     -18.18       2.73        0.00      71.20       1.86       0.01       0.30       ----

> <Gold.Chemscore.Fitness>
17.8711

> <Gold.Chemscore.DG>
-18.1824

> <Gold.Chemscore.ZeroCoef>
-5.4800

> <Gold.Chemscore.Hbond>
2.7336

> <Gold.Chemscore.Metal>
0.0000

> <Gold.Chemscore.Lipo>
71.1989

> <Gold.Chemscore.Internal_Hbond>
0.0000

> <Gold.Chemscore.DEClash>
0.0082

> <Gold.Chemscore.DEInternal>
0.3031

> <Gold.Chemscore.Rot>
1.8586

> <Gold.Chemscore.Internal.Correction>
   9.000000E+99

> <Gold.Chemscore.Hbonds>
donor molecule, donor type, donor heavy atom, donor atom, acceptor molecule, acceptor atom, score
      L1  H     6    44       P1  7948  0.60
      P1  H  6931  6943       L1    19  0.64
      P1  H  6934  6947       L1    19  0.88

> <Gold.Chemscore.Hbond.Weighted>
-9.1303

> <Gold.Chemscore.Metal.Weighted>
-0.0000

> <Gold.Chemscore.Lipo.Weighted>
-8.3303

> <Gold.Chemscore.Internal_Hbond.Weighted>
0.0000

> <Gold.Chemscore.DEClash.Weighted>
0.0082

> <Gold.Chemscore.DEInternal.Weighted>
0.3031

> <Gold.Chemscore.Rot.Weighted>
4.7581

> <Gold.Chemscore.Internal.Correction.Weighted>
   9.000000E+99

> <Gold.Protein.RotatedTorsions>
[ 6907 6896 6895 6894 ] final    2.59 input  -60.11 | X-H torsion
[ 7974 7965 7964 7962 ] final  158.86 input  175.53 | X-H torsion
[ 8008 7997 7996 7995 ] final  104.69 input   59.86 | X-H torsion
[ 10167 10162 10161 10158 ] final -148.04 input  -65.29 | X-H torsion
[ 10718 10713 10712 10709 ] final   -0.30 input   66.30 | X-H torsion
[ 10763 10752 10751 10750 ] final -139.90 input  -60.55 | X-H torsion
[ 11005 11000 10999 10996 ] final  -69.67 input  -57.11 | X-H torsion

> <Gold.Protein.ActiveResidues>
 VAL166  LYS551  ARG553  GLY616  TRP617  ASP618  TYR619  PRO620  LYS621  CYS622 
 ASP623  PHE694  ASN695  SER759  ASP760  ASP761  ALA762  ILE779  LEU786  VAL792 
 PHE793  MET794  SER795  GLU796  ALA797  LYS798  CYS799  TRP800  GLU811  SER814 

> <Gold.Protein.RotatedAtoms>
  151.6114  135.1040  160.0081 H   0  0  0  0  0  0  0  0  0  0  0  0  # atno 6907 bound_to 6896
  152.4206  133.7106  159.6487 H   0  0  0  0  0  0  0  0  0  0  0  0  # atno 6908 bound_to 6896
  150.8094  133.8376  159.3211 H   0  0  0  0  0  0  0  0  0  0  0  0  # atno 6909 bound_to 6896
  144.7822  139.7537  143.6255 H   0  0  0  0  0  0  0  0  0  0  0  0  # atno 7974 bound_to 7965
  156.1595  140.3143  155.8782 H   0  0  0  0  0  0  0  0  0  0  0  0  # atno 8008 bound_to 7997
  155.3812  140.0488  157.3060 H   0  0  0  0  0  0  0  0  0  0  0  0  # atno 8009 bound_to 7997
  154.5132  140.2172  155.9126 H   0  0  0  0  0  0  0  0  0  0  0  0  # atno 8010 bound_to 7997
  139.7567  143.8437  152.2598 H   0  0  0  0  0  0  0  0  0  0  0  0  # atno 10167 bound_to 10162
  156.8225  130.5461  149.5695 H   0  0  0  0  0  0  0  0  0  0  0  0  # atno 10718 bound_to 10713
  154.8595  135.3569  154.5621 H   0  0  0  0  0  0  0  0  0  0  0  0  # atno 10763 bound_to 10752
  153.6236  135.7005  153.5306 H   0  0  0  0  0  0  0  0  0  0  0  0  # atno 10764 bound_to 10752
  153.3108  135.4179  155.1294 H   0  0  0  0  0  0  0  0  0  0  0  0  # atno 10765 bound_to 10752
  141.1559  133.6770  156.6634 H   0  0  0  0  0  0  0  0  0  0  0  0  # atno 11005 bound_to 11000
  146.2036  139.5346  142.9727 LP  0  0  0  0  0  0  0  0  0  0  0  0  # atno 17320 bound_to 7965
  145.6019  141.0354  143.2013 LP  0  0  0  0  0  0  0  0  0  0  0  0  # atno 17321 bound_to 7965
  139.8431  144.7200  150.9306 LP  0  0  0  0  0  0  0  0  0  0  0  0  # atno 17342 bound_to 10162
  140.7803  143.3965  151.1221 LP  0  0  0  0  0  0  0  0  0  0  0  0  # atno 17343 bound_to 10162
  156.0980  130.5947  150.9847 LP  0  0  0  0  0  0  0  0  0  0  0  0  # atno 17370 bound_to 10713
  157.6449  131.0905  150.8174 LP  0  0  0  0  0  0  0  0  0  0  0  0  # atno 17371 bound_to 10713
  140.3230  134.7992  157.4267 LP  0  0  0  0  0  0  0  0  0  0  0  0  # atno 17394 bound_to 11000
  140.1081  134.5382  155.8291 LP  0  0  0  0  0  0  0  0  0  0  0  0  # atno 17395 bound_to 11000

$$$$
