AV-unprocessed.smi:2330|AV-procd|sdf|9312|dock6
  -GOLD-   2272012533D 1   1.00000     0.00000
 Structure written by MMmdl.
 42 43  0  0  0  0  0  0  0  0  1 V2000
  144.4376  143.1568  155.9092 C   0  0  0  0  0  0  0  0  0  0  0  0
  145.5035  142.0775  155.6727 C   0  0  2  0  0  0  0  0  0  0  0  0
  146.2454  141.7257  156.9764 C   0  0  0  0  0  0  0  0  0  0  0  0
  147.3246  140.6517  156.7467 C   0  0  0  0  0  0  0  0  0  0  0  0
  148.3241  141.0561  155.6461 C   0  0  2  0  0  0  0  0  0  0  0  0
  149.1691  142.1542  156.1126 N   0  0  0  0  0  0  0  0  0  0  0  0
  150.2298  142.0300  156.9220 C   0  0  0  0  0  0  0  0  0  0  0  0
  150.6174  140.9610  157.3938 O   0  0  0  0  0  0  0  0  0  0  0  0
  150.8252  143.2109  157.1402 N   0  0  0  0  0  0  0  0  0  0  0  0
  152.0200  143.4203  157.9526 C   0  0  0  0  0  0  0  0  0  0  0  0
  151.7037  144.1099  159.2971 C   0  0  2  0  0  0  0  0  0  0  0  0
  151.9330  145.6314  159.3078 C   0  0  0  0  0  0  0  0  0  0  0  0
  152.4132  143.4429  160.4342 C   0  0  0  0  0  0  0  0  0  0  0  0
  152.3608  143.8732  161.6990 N   0  0  0  0  0  0  0  0  0  0  0  0
  153.1093  143.0760  162.5682 C   0  0  0  0  0  0  0  0  0  0  0  0
  153.7352  142.0264  161.9458 C   0  0  0  0  0  0  0  0  0  0  0  0
  153.4062  142.0019  160.2352 S   0  0  0  0  0  0  0  0  0  0  0  0
  147.5801  141.4295  154.3462 C   0  0  0  0  0  0  0  0  0  0  0  0
  146.5033  142.5036  154.5807 C   0  0  0  0  0  0  0  0  0  0  0  0
  144.8859  144.0864  156.2613 H   0  0  0  0  0  0  0  0  0  0  0  0
  143.7108  142.8340  156.6551 H   0  0  0  0  0  0  0  0  0  0  0  0
  143.8913  143.3774  154.9917 H   0  0  0  0  0  0  0  0  0  0  0  0
  144.9902  141.1793  155.3257 H   0  0  0  0  0  0  0  0  0  0  0  0
  146.7042  142.6233  157.3933 H   0  0  0  0  0  0  0  0  0  0  0  0
  145.5350  141.3714  157.7242 H   0  0  0  0  0  0  0  0  0  0  0  0
  147.8522  140.4468  157.6791 H   0  0  0  0  0  0  0  0  0  0  0  0
  146.8399  139.7168  156.4627 H   0  0  0  0  0  0  0  0  0  0  0  0
  148.9673  140.1973  155.4458 H   0  0  0  0  0  0  0  0  0  0  0  0
  148.9346  143.0772  155.7773 H   0  0  0  0  0  0  0  0  0  0  0  0
  150.4268  144.0290  156.7029 H   0  0  0  0  0  0  0  0  0  0  0  0
  152.4550  142.4383  158.1417 H   0  0  0  0  0  0  0  0  0  0  0  0
  152.7752  143.9843  157.4021 H   0  0  0  0  0  0  0  0  0  0  0  0
  150.6386  143.9610  159.4799 H   0  0  0  0  0  0  0  0  0  0  0  0
  151.6642  146.0595  160.2742 H   0  0  0  0  0  0  0  0  0  0  0  0
  151.3298  146.1358  158.5533 H   0  0  0  0  0  0  0  0  0  0  0  0
  152.9784  145.8745  159.1151 H   0  0  0  0  0  0  0  0  0  0  0  0
  153.1417  143.3289  163.6178 H   0  0  0  0  0  0  0  0  0  0  0  0
  154.3669  141.2699  162.3873 H   0  0  0  0  0  0  0  0  0  0  0  0
  148.2840  141.7674  153.5848 H   0  0  0  0  0  0  0  0  0  0  0  0
  147.1057  140.5358  153.9391 H   0  0  0  0  0  0  0  0  0  0  0  0
  145.9737  142.6952  153.6469 H   0  0  0  0  0  0  0  0  0  0  0  0
  146.9791  143.4444  154.8607 H   0  0  0  0  0  0  0  0  0  0  0  0
  1  2  1  0  0  0  0
  1 20  1  0  0  0  0
  1 21  1  0  0  0  0
  1 22  1  0  0  0  0
  2 19  1  0  0  0  0
  2  3  1  0  0  0  0
  2 23  1  0  0  0  0
  3  4  1  0  0  0  0
  3 24  1  0  0  0  0
  3 25  1  0  0  0  0
  4  5  1  0  0  0  0
  4 26  1  0  0  0  0
  4 27  1  0  0  0  0
  5  6  1  0  0  0  0
  5 18  1  0  0  0  0
  5 28  1  0  0  0  0
  6  7  1  0  0  0  0
  6 29  1  0  0  0  0
  7  8  2  0  0  0  0
  7  9  1  0  0  0  0
  9 10  1  0  0  0  0
  9 30  1  0  0  0  0
 10 11  1  0  0  0  0
 10 31  1  0  0  0  0
 10 32  1  0  0  0  0
 11 12  1  0  0  0  0
 11 13  1  0  0  0  0
 11 33  1  0  0  0  0
 12 34  1  0  0  0  0
 12 35  1  0  0  0  0
 12 36  1  0  0  0  0
 13 17  1  0  0  0  0
 13 14  2  0  0  0  0
 14 15  1  0  0  0  0
 15 16  2  0  0  0  0
 15 37  1  0  0  0  0
 16 17  1  0  0  0  0
 16 38  1  0  0  0  0
 18 19  1  0  0  0  0
 18 39  1  0  0  0  0
 18 40  1  0  0  0  0
 19 41  1  0  0  0  0
 19 42  1  0  0  0  0
M  END
> <s_m_source_file>
AV-unprocessed.smi

> <i_m_source_file_index>
2330

> <i_lp_mmshare_version>
43012

> <i_f3d_flags>
0

> <s_epik_input>
W0NIM11bQ0BASF0xW0NIMl1bQ0gyXVtDQEhdKFtDSDJdW0NIMl0xKVtOSF1DKD1PKVtOSF1bQ0gyXVtDQEhdKFtDSDNdKWMybltjSF1bY0hdczI=

> <s_epik_cmdline>
J2VwaWtfcHl0aG9uJywgJy1waCcsICc3LjAnLCAnLXRuJywgJzgnLCAnLW1hJywgJzIwMCcsICctbWV0YWxfYmluZGluZycsICctaW1hZScsICc8aW5maWxlLm1hZT4nLCAnLW9tYWUnLCAnPG91dGZpbGUubWFlPic=

> <r_lp_tautomer_probability>
1

> <r_epik_Ionization_Penalty>
0.000331107

> <r_epik_Ionization_Penalty_Charging>
0

> <r_epik_Ionization_Penalty_Neutral>
0.000331107

> <r_epik_State_Penalty>
-0

> <r_epik_Charging_Adjusted_Penalty>
0

> <i_epik_Tot_Q>
0

> <i_epik_Tot_abs_Q>
0

> <r_epik_Metal_State_Penalty>
-0

> <b_epik_Metal_Only>
0

> <s_lp_Force_Field>
OPLS_2005

> <r_lp_Energy>
-1.48662

> <b_lp_Chiralities_Consistent>
1

> <s_lp_Variant>
AV-unprocessed.smi:2330-3

> <Gold.Version>
5.8.1

> <Gold.Id.Protein>
6NUR|6NUR_protein|mol2

> <Gold.PLP.Fitness>
50.3884

> <Gold.PLP.PLP>
-46.9662

> <Gold.PLP.part.hbond>
-1.9936

> <Gold.PLP.part.metal>
0.0000

> <Gold.PLP.part.buried>
-5.8763

> <Gold.PLP.part.nonpolar>
-39.2337

> <Gold.PLP.part.repulsive>
0.3343

> <Gold.PLP.ligand.clash>
0.0000

> <Gold.PLP.ligand.torsion>
1.0948

> <Gold.PLP.Chemscore.Hbond>
1.8320

> <Gold.PLP.Chemscore.CHOScore>
0.0000

> <Gold.PLP.Chemscore.Metal>
0.0000

> <Gold.Chemscore.Hbonds>
donor molecule, donor type, donor heavy atom, donor atom, acceptor molecule, acceptor atom, score
      L1  H     6    29       P1  8028  1.00
      L1  H     9    30       P1  8028  0.93

> <Gold.PLP.Chemscore.Internal.Correction>
0.1158

> <Gold.Rescore>
     Score         DG    S(hbond)    S(metal)    S(lipo)     H(rot)  DE(clash)    DE(int)     intcor
     20.24     -21.16       1.90        0.00     111.51       1.45       0.03       0.89       ----

> <Gold.Chemscore.Fitness>
20.2449

> <Gold.Chemscore.DG>
-21.1645

> <Gold.Chemscore.ZeroCoef>
-5.4800

> <Gold.Chemscore.Hbond>
1.9039

> <Gold.Chemscore.Metal>
0.0000

> <Gold.Chemscore.Lipo>
111.5081

> <Gold.Chemscore.Internal_Hbond>
0.0000

> <Gold.Chemscore.DEClash>
0.0343

> <Gold.Chemscore.DEInternal>
0.8852

> <Gold.Chemscore.Rot>
1.4536

> <Gold.Chemscore.Internal.Correction>
   9.000000E+99

> <Gold.Chemscore.Hbonds>
donor molecule, donor type, donor heavy atom, donor atom, acceptor molecule, acceptor atom, score
      L1  H     6    29       P1  8028  0.99
      L1  H     9    30       P1  8028  0.88

> <Gold.Chemscore.Hbond.Weighted>
-6.3592

> <Gold.Chemscore.Metal.Weighted>
-0.0000

> <Gold.Chemscore.Lipo.Weighted>
-13.0465

> <Gold.Chemscore.Internal_Hbond.Weighted>
0.0000

> <Gold.Chemscore.DEClash.Weighted>
0.0343

> <Gold.Chemscore.DEInternal.Weighted>
0.8852

> <Gold.Chemscore.Rot.Weighted>
3.7212

> <Gold.Chemscore.Internal.Correction.Weighted>
   9.000000E+99

> <Gold.Protein.RotatedTorsions>
[ 6907 6896 6895 6894 ] final  109.35 input  -60.11 | X-H torsion
[ 7974 7965 7964 7962 ] final   20.23 input  175.53 | X-H torsion
[ 8008 7997 7996 7995 ] final  -49.48 input   59.86 | X-H torsion
[ 10167 10162 10161 10158 ] final  165.84 input  -65.29 | X-H torsion
[ 10718 10713 10712 10709 ] final   59.90 input   66.30 | X-H torsion
[ 10763 10752 10751 10750 ] final -137.89 input  -60.55 | X-H torsion
[ 11005 11000 10999 10996 ] final   32.54 input  -57.11 | X-H torsion

> <Gold.Protein.ActiveResidues>
 VAL166  LYS551  ARG553  GLY616  TRP617  ASP618  TYR619  PRO620  LYS621  CYS622 
 ASP623  PHE694  ASN695  SER759  ASP760  ASP761  ALA762  ILE779  LEU786  VAL792 
 PHE793  MET794  SER795  GLU796  ALA797  LYS798  CYS799  TRP800  GLU811  SER814 

> <Gold.Protein.RotatedAtoms>
  152.5071  133.8956  159.7415 H   0  0  0  0  0  0  0  0  0  0  0  0  # atno 6907 bound_to 6896
  150.9384  133.6676  159.2802 H   0  0  0  0  0  0  0  0  0  0  0  0  # atno 6908 bound_to 6896
  151.3996  135.0974  159.9604 H   0  0  0  0  0  0  0  0  0  0  0  0  # atno 6909 bound_to 6896
  146.2119  139.8200  142.8682 H   0  0  0  0  0  0  0  0  0  0  0  0  # atno 7974 bound_to 7965
  154.4045  140.1296  156.4509 H   0  0  0  0  0  0  0  0  0  0  0  0  # atno 8008 bound_to 7997
  155.7367  140.3490  155.5065 H   0  0  0  0  0  0  0  0  0  0  0  0  # atno 8009 bound_to 7997
  155.9077  140.1030  157.1293 H   0  0  0  0  0  0  0  0  0  0  0  0  # atno 8010 bound_to 7997
  139.4913  144.4090  151.9321 H   0  0  0  0  0  0  0  0  0  0  0  0  # atno 10167 bound_to 10162
  157.5711  130.8908  149.9269 H   0  0  0  0  0  0  0  0  0  0  0  0  # atno 10718 bound_to 10713
  154.8651  135.3628  154.5296 H   0  0  0  0  0  0  0  0  0  0  0  0  # atno 10763 bound_to 10752
  153.5923  135.7015  153.5423 H   0  0  0  0  0  0  0  0  0  0  0  0  # atno 10764 bound_to 10752
  153.3363  135.4110  155.1498 H   0  0  0  0  0  0  0  0  0  0  0  0  # atno 10765 bound_to 10752
  140.2725  134.3066  155.7824 H   0  0  0  0  0  0  0  0  0  0  0  0  # atno 11005 bound_to 11000
  145.3107  141.0219  143.3556 LP  0  0  0  0  0  0  0  0  0  0  0  0  # atno 17320 bound_to 7965
  144.8938  139.4739  143.6665 LP  0  0  0  0  0  0  0  0  0  0  0  0  # atno 17321 bound_to 7965
  140.3531  144.3064  150.5946 LP  0  0  0  0  0  0  0  0  0  0  0  0  # atno 17342 bound_to 10162
  140.5468  143.2213  151.7994 LP  0  0  0  0  0  0  0  0  0  0  0  0  # atno 17343 bound_to 10162
  156.0757  130.3679  150.0683 LP  0  0  0  0  0  0  0  0  0  0  0  0  # atno 17370 bound_to 10713
  156.8836  130.9565  151.3596 LP  0  0  0  0  0  0  0  0  0  0  0  0  # atno 17371 bound_to 10713
  141.2175  133.7475  156.9356 LP  0  0  0  0  0  0  0  0  0  0  0  0  # atno 17394 bound_to 11000
  140.1360  134.9325  157.2402 LP  0  0  0  0  0  0  0  0  0  0  0  0  # atno 17395 bound_to 11000

$$$$
