AV-unprocessed.smi:2751|AV-procd|sdf|10601|dock7
  -GOLD-   2272015 53D 1   1.00000     0.00000
 Structure written by MMmdl.
 34 35  0  0  0  0  0  0  0  0  1 V2000
  150.5307  140.4697  155.1683 O   0  0  0  0  0  0  0  0  0  0  0  0
  149.8097  141.4726  155.1811 C   0  0  0  0  0  0  0  0  0  0  0  0
  150.0538  142.5001  156.0084 N   0  0  0  0  0  0  0  0  0  0  0  0
  151.1570  142.5785  156.9598 C   0  0  0  0  0  0  0  0  0  0  0  0
  150.6580  142.8750  158.3845 C   0  0  0  0  0  0  0  0  0  0  0  0
  151.8040  143.0925  159.3853 C   0  0  2  0  0  0  0  0  0  0  0  0
  152.6050  141.7993  159.6341 C   0  0  0  0  0  0  0  0  0  0  0  0
  153.6886  142.0299  160.6938 C   0  0  0  0  0  0  0  0  0  0  0  0
  153.0588  142.6313  161.9543 C   0  0  0  0  0  0  0  0  0  0  0  0
  152.2330  143.8768  161.5954 C   0  0  0  0  0  0  0  0  0  0  0  0
  151.2499  143.5421  160.6206 O   0  0  0  0  0  0  0  0  0  0  0  0
  148.6913  141.7422  154.4047 N   0  0  0  0  0  0  0  0  0  0  0  0
  148.0514  140.7727  153.8251 C   0  0  0  0  0  0  0  0  0  0  0  0
  148.2429  139.3938  153.7922 N   0  0  0  0  0  0  0  0  0  0  0  0
  147.2633  138.8454  153.0126 C   0  0  0  0  0  0  0  0  0  0  0  0
  146.4869  139.8313  152.5731 C   0  0  0  0  0  0  0  0  0  0  0  0
  146.9439  141.0215  153.0541 O   0  0  0  0  0  0  0  0  0  0  0  0
  149.4283  143.2923  155.9713 H   0  0  0  0  0  0  0  0  0  0  0  0
  151.7366  141.6540  156.9404 H   0  0  0  0  0  0  0  0  0  0  0  0
  151.8289  143.3703  156.6279 H   0  0  0  0  0  0  0  0  0  0  0  0
  150.0098  143.7523  158.3736 H   0  0  0  0  0  0  0  0  0  0  0  0
  150.0417  142.0433  158.7283 H   0  0  0  0  0  0  0  0  0  0  0  0
  152.4726  143.8601  158.9911 H   0  0  0  0  0  0  0  0  0  0  0  0
  151.9326  141.0079  159.9680 H   0  0  0  0  0  0  0  0  0  0  0  0
  153.0610  141.4512  158.7069 H   0  0  0  0  0  0  0  0  0  0  0  0
  154.1958  141.0944  160.9303 H   0  0  0  0  0  0  0  0  0  0  0  0
  154.4470  142.7089  160.3019 H   0  0  0  0  0  0  0  0  0  0  0  0
  152.4136  141.8917  162.4300 H   0  0  0  0  0  0  0  0  0  0  0  0
  153.8325  142.8856  162.6792 H   0  0  0  0  0  0  0  0  0  0  0  0
  151.7314  144.2624  162.4832 H   0  0  0  0  0  0  0  0  0  0  0  0
  152.8752  144.6755  161.2208 H   0  0  0  0  0  0  0  0  0  0  0  0
  148.9640  138.8524  154.2471 H   0  0  0  0  0  0  0  0  0  0  0  0
  147.2260  137.7781  152.8511 H   0  0  0  0  0  0  0  0  0  0  0  0
  145.6122  139.8493  151.9398 H   0  0  0  0  0  0  0  0  0  0  0  0
  1  2  2  0  0  0  0
  2 12  1  0  0  0  0
  2  3  1  0  0  0  0
  3  4  1  0  0  0  0
  3 18  1  0  0  0  0
  4  5  1  0  0  0  0
  4 19  1  0  0  0  0
  4 20  1  0  0  0  0
  5  6  1  0  0  0  0
  5 21  1  0  0  0  0
  5 22  1  0  0  0  0
  6 11  1  0  0  0  0
  6  7  1  0  0  0  0
  6 23  1  0  0  0  0
  7  8  1  0  0  0  0
  7 24  1  0  0  0  0
  7 25  1  0  0  0  0
  8  9  1  0  0  0  0
  8 26  1  0  0  0  0
  8 27  1  0  0  0  0
  9 10  1  0  0  0  0
  9 28  1  0  0  0  0
  9 29  1  0  0  0  0
 10 11  1  0  0  0  0
 10 30  1  0  0  0  0
 10 31  1  0  0  0  0
 12 13  2  0  0  0  0
 13 17  1  0  0  0  0
 13 14  1  0  0  0  0
 14 32  1  0  0  0  0
 14 15  1  0  0  0  0
 15 33  1  0  0  0  0
 15 16  2  0  0  0  0
 16 34  1  0  0  0  0
 16 17  1  0  0  0  0
M  END
> <s_m_source_file>
AV-unprocessed.smi

> <i_m_source_file_index>
2751

> <i_lp_mmshare_version>
43012

> <i_f3d_flags>
0

> <s_epik_input>
bzFbY0hdW2NIXW5jMVtOSF1DKD1PKVtOSF1bQ0gyXVtDSDJdW0NAQEhdMltDSDJdW0NIMl1bQ0gyXVtDSDJdTzI=

> <s_epik_cmdline>
J2VwaWtfcHl0aG9uJywgJy1waCcsICc3LjAnLCAnLXRuJywgJzgnLCAnLW1hJywgJzIwMCcsICctbWV0YWxfYmluZGluZycsICctaW1hZScsICc8aW5maWxlLm1hZT4nLCAnLW9tYWUnLCAnPG91dGZpbGUubWFlPic=

> <r_lp_tautomer_probability>
0.107061

> <r_epik_Ionization_Penalty>
1.421

> <r_epik_Ionization_Penalty_Charging>
1.42064

> <r_epik_Ionization_Penalty_Neutral>
0.0003614

> <r_epik_State_Penalty>
2.61489

> <r_epik_Charging_Adjusted_Penalty>
4.03553

> <i_epik_Tot_Q>
0

> <i_epik_Tot_abs_Q>
0

> <r_epik_Metal_State_Penalty>
3.57288

> <b_epik_Metal_Only>
0

> <s_lp_Force_Field>
OPLS_2005

> <r_lp_Energy>
32.5826

> <b_lp_Chiralities_Consistent>
1

> <s_lp_Variant>
AV-unprocessed.smi:2751-7

> <Gold.Version>
5.8.1

> <Gold.Id.Protein>
6NUR|6NUR_protein|mol2

> <Gold.PLP.Fitness>
47.4137

> <Gold.PLP.PLP>
-35.7928

> <Gold.PLP.part.hbond>
-4.6576

> <Gold.PLP.part.metal>
0.0000

> <Gold.PLP.part.buried>
-0.7668

> <Gold.PLP.part.nonpolar>
-31.0388

> <Gold.PLP.part.repulsive>
0.7141

> <Gold.PLP.ligand.clash>
0.0000

> <Gold.PLP.ligand.torsion>
0.1428

> <Gold.PLP.Chemscore.Hbond>
2.0096

> <Gold.PLP.Chemscore.CHOScore>
1.9537

> <Gold.PLP.Chemscore.Metal>
0.0000

> <Gold.Chemscore.Hbonds>
donor molecule, donor type, donor heavy atom, donor atom, acceptor molecule, acceptor atom, score
      L1  H     3    18       P1  8028  1.00
      P1  H  7989  7998       L1     1  0.94
      L1  C    15    33       P1  7948  0.99
      L1  C    16    34       P1 10175  0.96

> <Gold.PLP.Chemscore.Internal.Correction>
0.0166

> <Gold.Rescore>
     Score         DG    S(hbond)    S(metal)    S(lipo)     H(rot)  DE(clash)    DE(int)     intcor
     15.52     -16.28       1.40        0.00      88.07       1.63       0.48       0.28       ----

> <Gold.Chemscore.Fitness>
15.5250

> <Gold.Chemscore.DG>
-16.2819

> <Gold.Chemscore.ZeroCoef>
-5.4800

> <Gold.Chemscore.Hbond>
1.4006

> <Gold.Chemscore.Metal>
0.0000

> <Gold.Chemscore.Lipo>
88.0673

> <Gold.Chemscore.Internal_Hbond>
0.0000

> <Gold.Chemscore.DEClash>
0.4804

> <Gold.Chemscore.DEInternal>
0.2766

> <Gold.Chemscore.Rot>
1.6328

> <Gold.Chemscore.Internal.Correction>
   9.000000E+99

> <Gold.Chemscore.Hbonds>
donor molecule, donor type, donor heavy atom, donor atom, acceptor molecule, acceptor atom, score
      L1  H     3    18       P1  8028  0.96
      P1  H  7989  7998       L1     1  0.19

> <Gold.Chemscore.Hbond.Weighted>
-4.6780

> <Gold.Chemscore.Metal.Weighted>
-0.0000

> <Gold.Chemscore.Lipo.Weighted>
-10.3039

> <Gold.Chemscore.Internal_Hbond.Weighted>
0.0000

> <Gold.Chemscore.DEClash.Weighted>
0.4804

> <Gold.Chemscore.DEInternal.Weighted>
0.2766

> <Gold.Chemscore.Rot.Weighted>
4.1799

> <Gold.Chemscore.Internal.Correction.Weighted>
   9.000000E+99

> <Gold.Protein.RotatedTorsions>
[ 6907 6896 6895 6894 ] final  -56.45 input  -60.11 | X-H torsion
[ 7974 7965 7964 7962 ] final  -39.64 input  175.53 | X-H torsion
[ 8008 7997 7996 7995 ] final -134.52 input   59.86 | X-H torsion
[ 10167 10162 10161 10158 ] final   15.07 input  -65.29 | X-H torsion
[ 10718 10713 10712 10709 ] final -169.43 input   66.30 | X-H torsion
[ 10763 10752 10751 10750 ] final  109.73 input  -60.55 | X-H torsion
[ 11005 11000 10999 10996 ] final  -47.67 input  -57.11 | X-H torsion

> <Gold.Protein.ActiveResidues>
 VAL166  LYS551  ARG553  GLY616  TRP617  ASP618  TYR619  PRO620  LYS621  CYS622 
 ASP623  PHE694  ASN695  SER759  ASP760  ASP761  ALA762  ILE779  LEU786  VAL792 
 PHE793  MET794  SER795  GLU796  ALA797  LYS798  CYS799  TRP800  GLU811  SER814 

> <Gold.Protein.RotatedAtoms>
  150.8166  134.7352  159.6735 H   0  0  0  0  0  0  0  0  0  0  0  0  # atno 6907 bound_to 6896
  152.4285  134.5820  159.9960 H   0  0  0  0  0  0  0  0  0  0  0  0  # atno 6908 bound_to 6896
  151.6015  133.3318  159.3084 H   0  0  0  0  0  0  0  0  0  0  0  0  # atno 6909 bound_to 6896
  146.0378  140.6649  142.9102 H   0  0  0  0  0  0  0  0  0  0  0  0  # atno 7974 bound_to 7965
  155.3634  140.0484  157.3046 H   0  0  0  0  0  0  0  0  0  0  0  0  # atno 8008 bound_to 7997
  154.5166  140.2210  155.9017 H   0  0  0  0  0  0  0  0  0  0  0  0  # atno 8009 bound_to 7997
  156.1644  140.3109  155.8868 H   0  0  0  0  0  0  0  0  0  0  0  0  # atno 8010 bound_to 7997
  140.5892  143.8828  150.6858 H   0  0  0  0  0  0  0  0  0  0  0  0  # atno 10167 bound_to 10162
  156.7115  130.9235  151.3089 H   0  0  0  0  0  0  0  0  0  0  0  0  # atno 10718 bound_to 10713
  153.4389  135.3770  155.2216 H   0  0  0  0  0  0  0  0  0  0  0  0  # atno 10763 bound_to 10752
  154.8753  135.3858  154.4177 H   0  0  0  0  0  0  0  0  0  0  0  0  # atno 10764 bound_to 10752
  153.4719  135.7087  153.6051 H   0  0  0  0  0  0  0  0  0  0  0  0  # atno 10765 bound_to 10752
  141.0655  133.6695  156.3331 H   0  0  0  0  0  0  0  0  0  0  0  0  # atno 11005 bound_to 11000
  144.7060  140.3852  143.7118 LP  0  0  0  0  0  0  0  0  0  0  0  0  # atno 17320 bound_to 7965
  145.6935  139.1644  143.2633 LP  0  0  0  0  0  0  0  0  0  0  0  0  # atno 17321 bound_to 7965
  140.2347  143.3709  152.1537 LP  0  0  0  0  0  0  0  0  0  0  0  0  # atno 17342 bound_to 10162
  139.5217  144.7049  151.5383 LP  0  0  0  0  0  0  0  0  0  0  0  0  # atno 17343 bound_to 10162
  157.6934  130.9257  150.0577 LP  0  0  0  0  0  0  0  0  0  0  0  0  # atno 17370 bound_to 10713
  156.1658  130.3645  149.9234 LP  0  0  0  0  0  0  0  0  0  0  0  0  # atno 17371 bound_to 10713
  140.5783  134.5771  157.5473 LP  0  0  0  0  0  0  0  0  0  0  0  0  # atno 17394 bound_to 11000
  139.9472  134.7681  156.0534 LP  0  0  0  0  0  0  0  0  0  0  0  0  # atno 17395 bound_to 11000

$$$$
