AV-unprocessed.smi:2325|AV-procd|sdf|9296|dock6
  -GOLD-   2272012513D 1   1.00000     0.00000
 Structure written by MMmdl.
 40 41  0  0  0  0  0  0  0  0  1 V2000
  152.1536  144.0841  159.4034 C   0  0  0  0  0  0  0  0  0  0  0  0
  152.6697  142.7843  159.7870 N   0  0  0  0  0  0  0  0  0  0  0  0
  153.4160  142.6331  160.9063 N   0  0  0  0  0  0  0  0  0  0  0  0
  153.6895  141.3282  160.9027 C   0  0  0  0  0  0  0  0  0  0  0  0
  153.1753  140.6114  159.8598 N   0  0  0  0  0  0  0  0  0  0  0  0
  152.5523  141.5869  159.2059 C   0  0  0  0  0  0  0  0  0  0  0  0
  151.8161  141.4491  157.9988 N   0  0  0  0  0  0  0  0  0  0  0  0
  150.5479  141.8232  157.7611 C   0  0  0  0  0  0  0  0  0  0  0  0
  149.8076  142.3796  158.5722 O   0  0  0  0  0  0  0  0  0  0  0  0
  150.1770  141.5087  156.5123 N   0  0  0  0  0  0  0  0  0  0  0  0
  148.8533  141.7494  155.9412 C   0  0  1  0  0  0  0  0  0  0  0  0
  148.8104  141.3901  154.4692 C   0  0  0  0  0  0  0  0  0  0  0  0
  147.3214  141.1248  154.2187 C   0  0  0  0  0  0  0  0  0  0  0  0
  146.5700  142.4020  153.8056 C   0  0  0  0  0  0  0  0  0  0  0  0
  147.0946  139.9990  153.1983 C   0  0  0  0  0  0  0  0  0  0  0  0
  146.7936  140.7082  155.4770 O   0  0  0  0  0  0  0  0  0  0  0  0
  147.7413  140.8555  156.5338 C   0  0  0  0  0  0  0  0  0  0  0  0
  148.2023  139.4313  156.9085 C   0  0  0  0  0  0  0  0  0  0  0  0
  147.0224  141.5228  157.7170 C   0  0  0  0  0  0  0  0  0  0  0  0
  151.0705  144.0305  159.2902 H   0  0  0  0  0  0  0  0  0  0  0  0
  152.5966  144.3878  158.4548 H   0  0  0  0  0  0  0  0  0  0  0  0
  152.3920  144.8313  160.1616 H   0  0  0  0  0  0  0  0  0  0  0  0
  154.2834  140.8747  161.6825 H   0  0  0  0  0  0  0  0  0  0  0  0
  152.3084  141.0083  157.2362 H   0  0  0  0  0  0  0  0  0  0  0  0
  150.8515  141.0536  155.9149 H   0  0  0  0  0  0  0  0  0  0  0  0
  148.5832  142.8027  156.0403 H   0  0  0  0  0  0  0  0  0  0  0  0
  149.2209  142.1721  153.8294 H   0  0  0  0  0  0  0  0  0  0  0  0
  149.3908  140.4834  154.2902 H   0  0  0  0  0  0  0  0  0  0  0  0
  146.9381  142.7861  152.8537 H   0  0  0  0  0  0  0  0  0  0  0  0
  146.6843  143.1920  154.5482 H   0  0  0  0  0  0  0  0  0  0  0  0
  145.5022  142.2111  153.6948 H   0  0  0  0  0  0  0  0  0  0  0  0
  147.5074  140.2612  152.2237 H   0  0  0  0  0  0  0  0  0  0  0  0
  146.0316  139.7955  153.0661 H   0  0  0  0  0  0  0  0  0  0  0  0
  147.5671  139.0711  153.5222 H   0  0  0  0  0  0  0  0  0  0  0  0
  148.8993  139.4417  157.7468 H   0  0  0  0  0  0  0  0  0  0  0  0
  148.6931  138.9339  156.0719 H   0  0  0  0  0  0  0  0  0  0  0  0
  147.3535  138.8126  157.2012 H   0  0  0  0  0  0  0  0  0  0  0  0
  147.6949  141.6590  158.5638 H   0  0  0  0  0  0  0  0  0  0  0  0
  146.1812  140.9187  158.0578 H   0  0  0  0  0  0  0  0  0  0  0  0
  146.6317  142.5026  157.4411 H   0  0  0  0  0  0  0  0  0  0  0  0
  1  2  1  0  0  0  0
  1 20  1  0  0  0  0
  1 21  1  0  0  0  0
  1 22  1  0  0  0  0
  2  6  1  0  0  0  0
  2  3  1  0  0  0  0
  3  4  2  0  0  0  0
  4  5  1  0  0  0  0
  4 23  1  0  0  0  0
  5  6  2  0  0  0  0
  6  7  1  0  0  0  0
  7  8  1  0  0  0  0
  7 24  1  0  0  0  0
  8  9  2  0  0  0  0
  8 10  1  0  0  0  0
 10 11  1  0  0  0  0
 10 25  1  0  0  0  0
 11 17  1  0  0  0  0
 11 12  1  0  0  0  0
 11 26  1  0  0  0  0
 12 13  1  0  0  0  0
 12 27  1  0  0  0  0
 12 28  1  0  0  0  0
 13 14  1  0  0  0  0
 13 15  1  0  0  0  0
 13 16  1  0  0  0  0
 14 29  1  0  0  0  0
 14 30  1  0  0  0  0
 14 31  1  0  0  0  0
 15 32  1  0  0  0  0
 15 33  1  0  0  0  0
 15 34  1  0  0  0  0
 16 17  1  0  0  0  0
 17 18  1  0  0  0  0
 17 19  1  0  0  0  0
 18 35  1  0  0  0  0
 18 36  1  0  0  0  0
 18 37  1  0  0  0  0
 19 38  1  0  0  0  0
 19 39  1  0  0  0  0
 19 40  1  0  0  0  0
M  END
> <s_m_source_file>
AV-unprocessed.smi

> <i_m_source_file_index>
2325

> <i_lp_mmshare_version>
43012

> <i_f3d_flags>
0

> <s_epik_input>
W0NIM11uMW5bY0hdbmMxW05IXUMoPU8pW05IXVtDQEBIXShDKE8yKShbQ0gzXSlbQ0gzXSlbQ0gyXUMyKFtDSDNdKVtDSDNd

> <s_epik_cmdline>
J2VwaWtfcHl0aG9uJywgJy1waCcsICc3LjAnLCAnLXRuJywgJzgnLCAnLW1hJywgJzIwMCcsICctbWV0YWxfYmluZGluZycsICctaW1hZScsICc8aW5maWxlLm1hZT4nLCAnLW9tYWUnLCAnPG91dGZpbGUubWFlPic=

> <r_lp_tautomer_probability>
1

> <r_epik_Ionization_Penalty>
1.97832e-05

> <r_epik_Ionization_Penalty_Charging>
0

> <r_epik_Ionization_Penalty_Neutral>
1.97832e-05

> <r_epik_State_Penalty>
-0

> <r_epik_Charging_Adjusted_Penalty>
0

> <i_epik_Tot_Q>
0

> <i_epik_Tot_abs_Q>
0

> <r_epik_Metal_State_Penalty>
-0

> <b_epik_Metal_Only>
0

> <s_lp_Force_Field>
OPLS_2005

> <r_lp_Energy>
17.1515

> <b_lp_Chiralities_Consistent>
1

> <s_lp_Variant>
AV-unprocessed.smi:2325-2

> <Gold.Version>
5.8.1

> <Gold.Id.Protein>
6NUR|6NUR_protein|mol2

> <Gold.PLP.Fitness>
31.2378

> <Gold.PLP.PLP>
-32.3334

> <Gold.PLP.part.hbond>
-0.0794

> <Gold.PLP.part.metal>
0.0000

> <Gold.PLP.part.buried>
-4.0726

> <Gold.PLP.part.nonpolar>
-27.5888

> <Gold.PLP.part.repulsive>
0.2883

> <Gold.PLP.ligand.clash>
0.0000

> <Gold.PLP.ligand.torsion>
0.5534

> <Gold.PLP.Chemscore.Hbond>
0.0000

> <Gold.PLP.Chemscore.CHOScore>
0.0000

> <Gold.PLP.Chemscore.Metal>
0.0000

> <Gold.PLP.Chemscore.Internal.Correction>
0.0112

> <Gold.Rescore>
     Score         DG    S(hbond)    S(metal)    S(lipo)     H(rot)  DE(clash)    DE(int)     intcor
      8.29      -8.96       0.00        0.00      51.66       1.00       0.01       0.67       ----

> <Gold.Chemscore.Fitness>
8.2877

> <Gold.Chemscore.DG>
-8.9642

> <Gold.Chemscore.ZeroCoef>
-5.4800

> <Gold.Chemscore.Hbond>
0.0000

> <Gold.Chemscore.Metal>
0.0000

> <Gold.Chemscore.Lipo>
51.6601

> <Gold.Chemscore.Internal_Hbond>
0.0000

> <Gold.Chemscore.DEClash>
0.0086

> <Gold.Chemscore.DEInternal>
0.6679

> <Gold.Chemscore.Rot>
1.0000

> <Gold.Chemscore.Internal.Correction>
   9.000000E+99

> <Gold.Chemscore.Hbond.Weighted>
-0.0000

> <Gold.Chemscore.Metal.Weighted>
-0.0000

> <Gold.Chemscore.Lipo.Weighted>
-6.0442

> <Gold.Chemscore.Internal_Hbond.Weighted>
0.0000

> <Gold.Chemscore.DEClash.Weighted>
0.0086

> <Gold.Chemscore.DEInternal.Weighted>
0.6679

> <Gold.Chemscore.Rot.Weighted>
2.5600

> <Gold.Chemscore.Internal.Correction.Weighted>
   9.000000E+99

> <Gold.Protein.RotatedTorsions>
[ 6907 6896 6895 6894 ] final   72.58 input  -60.11 | X-H torsion
[ 7974 7965 7964 7962 ] final   57.65 input  175.53 | X-H torsion
[ 8008 7997 7996 7995 ] final  143.70 input   59.86 | X-H torsion
[ 10167 10162 10161 10158 ] final   15.86 input  -65.29 | X-H torsion
[ 10718 10713 10712 10709 ] final   -8.19 input   66.30 | X-H torsion
[ 10763 10752 10751 10750 ] final -177.79 input  -60.55 | X-H torsion
[ 11005 11000 10999 10996 ] final   15.45 input  -57.11 | X-H torsion

> <Gold.Protein.ActiveResidues>
 VAL166  LYS551  ARG553  GLY616  TRP617  ASP618  TYR619  PRO620  LYS621  CYS622 
 ASP623  PHE694  ASN695  SER759  ASP760  ASP761  ALA762  ILE779  LEU786  VAL792 
 PHE793  MET794  SER795  GLU796  ALA797  LYS798  CYS799  TRP800  GLU811  SER814 

> <Gold.Protein.RotatedAtoms>
  152.4876  134.4550  159.9586 H   0  0  0  0  0  0  0  0  0  0  0  0  # atno 6907 bound_to 6896
  151.4543  133.3603  159.2807 H   0  0  0  0  0  0  0  0  0  0  0  0  # atno 6908 bound_to 6896
  150.9000  134.8436  159.7413 H   0  0  0  0  0  0  0  0  0  0  0  0  # atno 6909 bound_to 6896
  145.9267  139.3773  143.0446 H   0  0  0  0  0  0  0  0  0  0  0  0  # atno 7974 bound_to 7965
  156.2924  140.2255  156.4933 H   0  0  0  0  0  0  0  0  0  0  0  0  # atno 8008 bound_to 7997
  154.7753  140.0464  157.1105 H   0  0  0  0  0  0  0  0  0  0  0  0  # atno 8009 bound_to 7997
  154.9825  140.3080  155.4944 H   0  0  0  0  0  0  0  0  0  0  0  0  # atno 8010 bound_to 7997
  140.5838  143.8930  150.6812 H   0  0  0  0  0  0  0  0  0  0  0  0  # atno 10167 bound_to 10162
  156.7062  130.5108  149.5904 H   0  0  0  0  0  0  0  0  0  0  0  0  # atno 10718 bound_to 10713
  154.5557  135.2816  155.0967 H   0  0  0  0  0  0  0  0  0  0  0  0  # atno 10763 bound_to 10752
  154.2395  135.6359  153.5206 H   0  0  0  0  0  0  0  0  0  0  0  0  # atno 10764 bound_to 10752
  153.0015  135.5556  154.6136 H   0  0  0  0  0  0  0  0  0  0  0  0  # atno 10765 bound_to 10752
  140.4582  134.1154  155.7712 H   0  0  0  0  0  0  0  0  0  0  0  0  # atno 11005 bound_to 11000
  145.8480  140.9545  143.0765 LP  0  0  0  0  0  0  0  0  0  0  0  0  # atno 17320 bound_to 7965
  144.6759  140.0369  143.7481 LP  0  0  0  0  0  0  0  0  0  0  0  0  # atno 17321 bound_to 7965
  140.2436  143.3645  152.1466 LP  0  0  0  0  0  0  0  0  0  0  0  0  # atno 17342 bound_to 10162
  139.5185  144.7007  151.5502 LP  0  0  0  0  0  0  0  0  0  0  0  0  # atno 17343 bound_to 10162
  156.1693  130.6426  151.0818 LP  0  0  0  0  0  0  0  0  0  0  0  0  # atno 17370 bound_to 10713
  157.6954  131.0796  150.6985 LP  0  0  0  0  0  0  0  0  0  0  0  0  # atno 17371 bound_to 10713
  141.1633  133.8751  157.1786 LP  0  0  0  0  0  0  0  0  0  0  0  0  # atno 17394 bound_to 11000
  139.9962  135.0046  157.0088 LP  0  0  0  0  0  0  0  0  0  0  0  0  # atno 17395 bound_to 11000

$$$$
