AV-unprocessed.smi:1965|AV-procd|sdf|7934|dock6
  -GOLD-   2272010103D 1   1.00000     0.00000
 Structure written by MMmdl.
 37 39  0  0  0  0  0  0  0  0  2 V2000
  144.5328  136.2914  151.6234 O   0  0  0  0  0  0  0  0  0  0  0  0
  145.7414  136.1537  151.8033 C   0  0  0  0  0  0  0  0  0  0  0  0
  146.3451  134.9639  151.5965 N   0  0  0  0  0  0  0  0  0  0  0  0
  145.8337  133.7039  151.1685 C   0  0  0  0  0  0  0  0  0  0  0  0
  146.5711  132.6163  150.9091 N   0  0  0  0  0  0  0  0  0  0  0  0
  145.7883  131.5284  150.5144 C   0  0  0  0  0  0  0  0  0  0  0  0
  144.4445  131.8042  150.4805 C   0  0  0  0  0  0  0  0  0  0  0  0
  144.1084  133.4505  150.9441 S   0  0  0  0  0  0  0  0  0  0  0  0
  146.5310  137.1592  152.2141 N   0  0  0  0  0  0  0  0  0  0  0  0
  146.0922  138.5188  152.5105 C   0  0  2  0  0  0  0  0  0  0  0  0
  146.9894  139.5899  151.8650 C   0  0  0  0  0  0  0  0  0  0  0  0
  147.0878  140.7225  152.9059 C   0  0  0  0  0  0  0  0  0  0  0  0
  146.1955  140.3182  154.0090 N   0  3  2  0  0  0  0  0  0  0  0  0
  146.4764  140.8865  155.3454 C   0  0  0  0  0  0  0  0  0  0  0  0
  145.3923  140.4155  156.3356 C   0  0  0  0  0  0  0  0  0  0  0  0
  145.2470  138.8801  156.3367 C   0  0  0  0  0  0  0  0  0  0  0  0
  145.0515  138.3381  154.9074 C   0  0  0  0  0  0  0  0  0  0  0  0
  146.1864  138.8476  154.0024 C   0  0  1  0  0  0  0  0  0  0  0  0
  147.3424  134.9716  151.7552 H   0  0  0  0  0  0  0  0  0  0  0  0
  146.2709  130.5920  150.2763 H   0  0  0  0  0  0  0  0  0  0  0  0
  143.6353  131.1413  150.2123 H   0  0  0  0  0  0  0  0  0  0  0  0
  147.5140  136.9595  152.3353 H   0  0  0  0  0  0  0  0  0  0  0  0
  145.0679  138.6762  152.1657 H   0  0  0  0  0  0  0  0  0  0  0  0
  147.9857  139.1998  151.6505 H   0  0  0  0  0  0  0  0  0  0  0  0
  146.5656  139.9394  150.9230 H   0  0  0  0  0  0  0  0  0  0  0  0
  148.1140  140.8104  153.2660 H   0  0  0  0  0  0  0  0  0  0  0  0
  146.7870  141.6887  152.4999 H   0  0  0  0  0  0  0  0  0  0  0  0
  147.4655  140.5727  155.6828 H   0  0  0  0  0  0  0  0  0  0  0  0
  146.4849  141.9753  155.2863 H   0  0  0  0  0  0  0  0  0  0  0  0
  145.6246  140.7693  157.3404 H   0  0  0  0  0  0  0  0  0  0  0  0
  144.4365  140.8659  156.0644 H   0  0  0  0  0  0  0  0  0  0  0  0
  146.1403  138.4325  156.7743 H   0  0  0  0  0  0  0  0  0  0  0  0
  144.4103  138.5819  156.9692 H   0  0  0  0  0  0  0  0  0  0  0  0
  145.0376  137.2481  154.9242 H   0  0  0  0  0  0  0  0  0  0  0  0
  144.0850  138.6585  154.5163 H   0  0  0  0  0  0  0  0  0  0  0  0
  147.1454  138.4924  154.3876 H   0  0  0  0  0  0  0  0  0  0  0  0
  145.2647  140.6094  153.7469 H   0  0  0  0  0  0  0  0  0  0  0  0
  1  2  2  0  0  0  0
  2  3  1  0  0  0  0
  2  9  1  0  0  0  0
  3  4  1  0  0  0  0
  3 19  1  0  0  0  0
  4  8  1  0  0  0  0
  4  5  2  0  0  0  0
  5  6  1  0  0  0  0
  6  7  2  0  0  0  0
  6 20  1  0  0  0  0
  7  8  1  0  0  0  0
  7 21  1  0  0  0  0
  9 10  1  0  0  0  0
  9 22  1  0  0  0  0
 10 18  1  0  0  0  0
 10 11  1  0  0  0  0
 10 23  1  0  0  0  0
 11 12  1  0  0  0  0
 11 24  1  0  0  0  0
 11 25  1  0  0  0  0
 12 13  1  0  0  0  0
 12 26  1  0  0  0  0
 12 27  1  0  0  0  0
 13 18  1  0  0  0  0
 13 14  1  0  0  0  0
 13 37  1  0  0  0  0
 14 15  1  0  0  0  0
 14 28  1  0  0  0  0
 14 29  1  0  0  0  0
 15 16  1  0  0  0  0
 15 30  1  0  0  0  0
 15 31  1  0  0  0  0
 16 17  1  0  0  0  0
 16 32  1  0  0  0  0
 16 33  1  0  0  0  0
 17 18  1  0  0  0  0
 17 34  1  0  0  0  0
 17 35  1  0  0  0  0
 18 36  1  0  0  0  0
M  CHG  1  13   1
M  END
> <s_m_source_file>
AV-unprocessed.smi

> <i_m_source_file_index>
1965

> <i_lp_mmshare_version>
43012

> <i_f3d_flags>
0

> <s_epik_input>
czFbY0hdW2NIXW5jMVtOSF1DKD1PKVtOSF1bQ0BIXShbQ0gyXVtDSDJdMilbQ0BASF0oTjIzKVtDSDJdW0NIMl1bQ0gyXVtDSDJdMw==

> <s_epik_cmdline>
J2VwaWtfcHl0aG9uJywgJy1waCcsICc3LjAnLCAnLXRuJywgJzgnLCAnLW1hJywgJzIwMCcsICctbWV0YWxfYmluZGluZycsICctaW1hZScsICc8aW5maWxlLm1hZT4nLCAnLW9tYWUnLCAnPG91dGZpbGUubWFlPic=

> <r_lp_tautomer_probability>
1

> <r_epik_Ionization_Penalty>
0.00125962

> <r_epik_Ionization_Penalty_Charging>
0.00107044

> <r_epik_Ionization_Penalty_Neutral>
0.000189176

> <r_epik_State_Penalty>
-0

> <r_epik_Charging_Adjusted_Penalty>
0.00107044

> <i_epik_Tot_Q>
1

> <i_epik_Tot_abs_Q>
1

> <r_epik_Metal_State_Penalty>
0.0179285

> <b_epik_Metal_Only>
0

> <s_lp_Force_Field>
OPLS_2005

> <r_lp_Energy>
35.2759

> <b_lp_Chiralities_Consistent>
1

> <s_lp_Variant>
AV-unprocessed.smi:1965-3

> <Gold.Version>
5.8.1

> <Gold.Id.Protein>
6NUR|6NUR_protein|mol2

> <Gold.PLP.Fitness>
36.0753

> <Gold.PLP.PLP>
-23.6278

> <Gold.PLP.part.hbond>
-3.0000

> <Gold.PLP.part.metal>
0.0000

> <Gold.PLP.part.buried>
0.3993

> <Gold.PLP.part.nonpolar>
-22.1604

> <Gold.PLP.part.repulsive>
1.8424

> <Gold.PLP.ligand.clash>
0.0000

> <Gold.PLP.ligand.torsion>
0.1148

> <Gold.PLP.Chemscore.Hbond>
3.8640

> <Gold.PLP.Chemscore.CHOScore>
0.3586

> <Gold.PLP.Chemscore.Metal>
0.0000

> <Gold.Chemscore.Hbonds>
donor molecule, donor type, donor heavy atom, donor atom, acceptor molecule, acceptor atom, score
      L1  H     3    19       P1  7948  0.86
      L1  H     9    22       P1  7948  1.00
      L1  H    13    37       P1 10175  2.00
      L1  C     6    20       P1 10747  0.36

> <Gold.PLP.Chemscore.Internal.Correction>
0.0094

> <Gold.Rescore>
     Score         DG    S(hbond)    S(metal)    S(lipo)     H(rot)  DE(clash)    DE(int)     intcor
     15.58     -18.87       2.60        0.00      62.11       1.00       1.97       1.32       ----

> <Gold.Chemscore.Fitness>
15.5783

> <Gold.Chemscore.DG>
-18.8733

> <Gold.Chemscore.ZeroCoef>
-5.4800

> <Gold.Chemscore.Hbond>
2.6008

> <Gold.Chemscore.Metal>
0.0000

> <Gold.Chemscore.Lipo>
62.1089

> <Gold.Chemscore.Internal_Hbond>
0.0000

> <Gold.Chemscore.DEClash>
1.9739

> <Gold.Chemscore.DEInternal>
1.3211

> <Gold.Chemscore.Rot>
1.0000

> <Gold.Chemscore.Internal.Correction>
   9.000000E+99

> <Gold.Chemscore.Hbonds>
donor molecule, donor type, donor heavy atom, donor atom, acceptor molecule, acceptor atom, score
      L1  H     3    19       P1  7948  0.70
      L1  H     9    22       P1  7948  0.95
      L1  H    13    37       P1 10175  0.86

> <Gold.Chemscore.Hbond.Weighted>
-8.6866

> <Gold.Chemscore.Metal.Weighted>
-0.0000

> <Gold.Chemscore.Lipo.Weighted>
-7.2667

> <Gold.Chemscore.Internal_Hbond.Weighted>
0.0000

> <Gold.Chemscore.DEClash.Weighted>
1.9739

> <Gold.Chemscore.DEInternal.Weighted>
1.3211

> <Gold.Chemscore.Rot.Weighted>
2.5600

> <Gold.Chemscore.Internal.Correction.Weighted>
   9.000000E+99

> <Gold.Protein.RotatedTorsions>
[ 6907 6896 6895 6894 ] final -109.79 input  -60.11 | X-H torsion
[ 7974 7965 7964 7962 ] final  178.84 input  175.53 | X-H torsion
[ 8008 7997 7996 7995 ] final  -17.22 input   59.86 | X-H torsion
[ 10167 10162 10161 10158 ] final   51.77 input  -65.29 | X-H torsion
[ 10718 10713 10712 10709 ] final  -18.28 input   66.30 | X-H torsion
[ 10763 10752 10751 10750 ] final -145.52 input  -60.55 | X-H torsion
[ 11005 11000 10999 10996 ] final    1.16 input  -57.11 | X-H torsion

> <Gold.Protein.ActiveResidues>
 VAL166  LYS551  ARG553  GLY616  TRP617  ASP618  TYR619  PRO620  LYS621  CYS622 
 ASP623  PHE694  ASN695  SER759  ASP760  ASP761  ALA762  ILE779  LEU786  VAL792 
 PHE793  MET794  SER795  GLU796  ALA797  LYS798  CYS799  TRP800  GLU811  SER814 

> <Gold.Protein.RotatedAtoms>
  150.7584  133.9477  159.3475 H   0  0  0  0  0  0  0  0  0  0  0  0  # atno 6907 bound_to 6896
  151.7392  135.0856  160.0322 H   0  0  0  0  0  0  0  0  0  0  0  0  # atno 6908 bound_to 6896
  152.3540  133.6176  159.6001 H   0  0  0  0  0  0  0  0  0  0  0  0  # atno 6909 bound_to 6896
  144.7152  140.0458  143.6436 H   0  0  0  0  0  0  0  0  0  0  0  0  # atno 7974 bound_to 7965
  154.4994  140.2148  155.9378 H   0  0  0  0  0  0  0  0  0  0  0  0  # atno 8008 bound_to 7997
  156.1414  140.3179  155.8468 H   0  0  0  0  0  0  0  0  0  0  0  0  # atno 8009 bound_to 7997
  155.4113  140.0491  157.3022 H   0  0  0  0  0  0  0  0  0  0  0  0  # atno 8010 bound_to 7997
  140.2584  144.3401  150.6326 H   0  0  0  0  0  0  0  0  0  0  0  0  # atno 10167 bound_to 10162
  156.5617  130.4727  149.6403 H   0  0  0  0  0  0  0  0  0  0  0  0  # atno 10718 bound_to 10713
  154.8379  135.3411  154.6518 H   0  0  0  0  0  0  0  0  0  0  0  0  # atno 10763 bound_to 10752
  153.7131  135.6963  153.5037 H   0  0  0  0  0  0  0  0  0  0  0  0  # atno 10764 bound_to 10752
  153.2437  135.4376  155.0678 H   0  0  0  0  0  0  0  0  0  0  0  0  # atno 10765 bound_to 10752
  140.6185  133.9683  155.8213 H   0  0  0  0  0  0  0  0  0  0  0  0  # atno 11005 bound_to 11000
  145.9986  139.3072  143.0941 LP  0  0  0  0  0  0  0  0  0  0  0  0  # atno 17320 bound_to 7965
  145.8820  140.9357  143.0596 LP  0  0  0  0  0  0  0  0  0  0  0  0  # atno 17321 bound_to 7965
  140.5985  143.2167  151.7117 LP  0  0  0  0  0  0  0  0  0  0  0  0  # atno 17342 bound_to 10162
  139.5024  144.3829  152.0357 LP  0  0  0  0  0  0  0  0  0  0  0  0  # atno 17343 bound_to 10162
  156.2793  130.7061  151.1881 LP  0  0  0  0  0  0  0  0  0  0  0  0  # atno 17370 bound_to 10713
  157.7367  131.0559  150.5398 LP  0  0  0  0  0  0  0  0  0  0  0  0  # atno 17371 bound_to 10713
  141.0759  134.0136  157.3459 LP  0  0  0  0  0  0  0  0  0  0  0  0  # atno 17394 bound_to 11000
  139.9163  135.0197  156.7892 LP  0  0  0  0  0  0  0  0  0  0  0  0  # atno 17395 bound_to 11000

$$$$
