AV-unprocessed.smi:2454|AV-procd|sdf|9695|dock1
  -GOLD-   2272013333D 1   1.00000     0.00000
 Structure written by MMmdl.
 42 43  0  0  0  0  0  0  0  0  1 V2000
  149.9301  141.8618  157.5946 C   0  0  0  0  0  0  0  0  0  0  0  0
  151.0633  141.2791  158.2139 O   0  0  0  0  0  0  0  0  0  0  0  0
  151.2522  139.9218  157.8406 C   0  0  0  0  0  0  0  0  0  0  0  0
  151.2711  139.7150  156.3360 C   0  0  0  0  0  0  0  0  0  0  0  0
  150.4541  138.7341  155.7347 C   0  0  0  0  0  0  0  0  0  0  0  0
  150.5304  138.5929  154.3305 C   0  0  0  0  0  0  0  0  0  0  0  0
  149.6765  137.5971  153.7714 N   0  0  0  0  0  0  0  0  0  0  0  0
  149.3416  136.3650  154.2110 C   0  0  0  0  0  0  0  0  0  0  0  0
  149.7968  135.9187  155.2628 O   0  0  0  0  0  0  0  0  0  0  0  0
  148.4973  135.6707  153.4310 N   0  0  0  0  0  0  0  0  0  0  0  0
  147.9679  134.3369  153.7042 C   0  0  2  0  0  0  0  0  0  0  0  0
  148.4523  133.3471  152.6280 C   0  0  0  0  0  0  0  0  0  0  0  0
  147.8013  133.6166  151.2608 C   0  0  0  0  0  0  0  0  0  0  0  0
  146.2679  133.6188  151.3627 C   0  0  0  0  0  0  0  0  0  0  0  0
  145.7647  134.6336  152.4113 C   0  0  1  0  0  0  0  0  0  0  0  0
  144.2253  134.6497  152.5073 C   0  0  0  0  0  0  0  0  0  0  0  0
  143.7529  133.4321  152.7774 F   0  0  0  0  0  0  0  0  0  0  0  0
  143.8366  135.4862  153.4698 F   0  0  0  0  0  0  0  0  0  0  0  0
  143.7005  135.0696  151.3560 F   0  0  0  0  0  0  0  0  0  0  0  0
  146.4262  134.3548  153.7807 C   0  0  0  0  0  0  0  0  0  0  0  0
  151.3660  139.3930  153.6197 N   0  0  0  0  0  0  0  0  0  0  0  0
  152.0969  140.2897  154.2856 C   0  0  0  0  0  0  0  0  0  0  0  0
  152.0968  140.4937  155.6027 N   0  0  0  0  0  0  0  0  0  0  0  0
  149.8339  142.9005  157.9102 H   0  0  0  0  0  0  0  0  0  0  0  0
  149.0150  141.3388  157.8750 H   0  0  0  0  0  0  0  0  0  0  0  0
  150.0233  141.8478  156.5080 H   0  0  0  0  0  0  0  0  0  0  0  0
  152.1955  139.5554  158.2484 H   0  0  0  0  0  0  0  0  0  0  0  0
  150.4541  139.3093  158.2633 H   0  0  0  0  0  0  0  0  0  0  0  0
  149.7974  138.1163  156.3303 H   0  0  0  0  0  0  0  0  0  0  0  0
  149.2854  137.8403  152.8729 H   0  0  0  0  0  0  0  0  0  0  0  0
  148.1769  136.1172  152.5829 H   0  0  0  0  0  0  0  0  0  0  0  0
  148.3620  134.0037  154.6659 H   0  0  0  0  0  0  0  0  0  0  0  0
  149.5387  133.3868  152.5390 H   0  0  0  0  0  0  0  0  0  0  0  0
  148.2112  132.3310  152.9426 H   0  0  0  0  0  0  0  0  0  0  0  0
  148.1439  134.5752  150.8689 H   0  0  0  0  0  0  0  0  0  0  0  0
  148.1229  132.8608  150.5437 H   0  0  0  0  0  0  0  0  0  0  0  0
  145.8428  133.8478  150.3852 H   0  0  0  0  0  0  0  0  0  0  0  0
  145.9214  132.6176  151.6218 H   0  0  0  0  0  0  0  0  0  0  0  0
  146.0756  135.6273  152.0848 H   0  0  0  0  0  0  0  0  0  0  0  0
  146.0817  133.3903  154.1559 H   0  0  0  0  0  0  0  0  0  0  0  0
  146.1002  135.0932  154.5142 H   0  0  0  0  0  0  0  0  0  0  0  0
  152.7541  140.9126  153.6970 H   0  0  0  0  0  0  0  0  0  0  0  0
  1  2  1  0  0  0  0
  1 24  1  0  0  0  0
  1 25  1  0  0  0  0
  1 26  1  0  0  0  0
  2  3  1  0  0  0  0
  3  4  1  0  0  0  0
  3 27  1  0  0  0  0
  3 28  1  0  0  0  0
  4 23  1  0  0  0  0
  4  5  2  0  0  0  0
  5  6  1  0  0  0  0
  5 29  1  0  0  0  0
  6  7  1  0  0  0  0
  6 21  2  0  0  0  0
  7  8  1  0  0  0  0
  7 30  1  0  0  0  0
  8  9  2  0  0  0  0
  8 10  1  0  0  0  0
 10 11  1  0  0  0  0
 10 31  1  0  0  0  0
 11 20  1  0  0  0  0
 11 12  1  0  0  0  0
 11 32  1  0  0  0  0
 12 13  1  0  0  0  0
 12 33  1  0  0  0  0
 12 34  1  0  0  0  0
 13 14  1  0  0  0  0
 13 35  1  0  0  0  0
 13 36  1  0  0  0  0
 14 15  1  0  0  0  0
 14 37  1  0  0  0  0
 14 38  1  0  0  0  0
 15 16  1  0  0  0  0
 15 20  1  0  0  0  0
 15 39  1  0  0  0  0
 16 17  1  0  0  0  0
 16 18  1  0  0  0  0
 16 19  1  0  0  0  0
 20 40  1  0  0  0  0
 20 41  1  0  0  0  0
 21 22  1  0  0  0  0
 22 23  2  0  0  0  0
 22 42  1  0  0  0  0
M  END
> <s_m_source_file>
AV-unprocessed.smi

> <i_m_source_file_index>
2454

> <i_lp_mmshare_version>
43012

> <i_f3d_flags>
0

> <s_epik_input>
W0NIM11PW0NIMl1jMVtjSF1jKG5bY0hdbjEpW05IXUMoPU8pW05IXVtDQEBIXTJbQ0gyXVtDSDJdW0NIMl1bQ0BASF0oQyhGKShGKUYpW0NIMl0y

> <s_epik_cmdline>
J2VwaWtfcHl0aG9uJywgJy1waCcsICc3LjAnLCAnLXRuJywgJzgnLCAnLW1hJywgJzIwMCcsICctbWV0YWxfYmluZGluZycsICctaW1hZScsICc8aW5maWxlLm1hZT4nLCAnLW9tYWUnLCAnPG91dGZpbGUubWFlPic=

> <r_lp_tautomer_probability>
1

> <r_epik_Ionization_Penalty>
3.01554e-05

> <r_epik_Ionization_Penalty_Charging>
0

> <r_epik_Ionization_Penalty_Neutral>
3.01554e-05

> <r_epik_State_Penalty>
-0

> <r_epik_Charging_Adjusted_Penalty>
0

> <i_epik_Tot_Q>
0

> <i_epik_Tot_abs_Q>
0

> <r_epik_Metal_State_Penalty>
-0

> <b_epik_Metal_Only>
0

> <s_lp_Force_Field>
OPLS_2005

> <r_lp_Energy>
13.8487

> <b_lp_Chiralities_Consistent>
1

> <s_lp_Variant>
AV-unprocessed.smi:2454-1

> <Gold.Version>
5.8.1

> <Gold.Id.Protein>
6NUR|6NUR_protein|mol2

> <Gold.PLP.Fitness>
42.4467

> <Gold.PLP.PLP>
-33.2021

> <Gold.PLP.part.hbond>
-4.4911

> <Gold.PLP.part.metal>
0.0000

> <Gold.PLP.part.buried>
-5.6564

> <Gold.PLP.part.nonpolar>
-24.6183

> <Gold.PLP.part.repulsive>
0.2017

> <Gold.PLP.ligand.clash>
0.0000

> <Gold.PLP.ligand.torsion>
0.4515

> <Gold.PLP.Chemscore.Hbond>
3.3664

> <Gold.PLP.Chemscore.CHOScore>
0.0000

> <Gold.PLP.Chemscore.Metal>
0.0000

> <Gold.Chemscore.Hbonds>
donor molecule, donor type, donor heavy atom, donor atom, acceptor molecule, acceptor atom, score
      L1  H     7    30       P1  7948  0.19
      P1  H  7997  8010       L1    23  0.14

> <Gold.PLP.Chemscore.Internal.Correction>
0.0484

> <Gold.Rescore>
     Score         DG    S(hbond)    S(metal)    S(lipo)     H(rot)  DE(clash)    DE(int)     intcor
     12.37     -14.52       2.38        0.00      44.32       1.60       0.23       1.92       ----

> <Gold.Chemscore.Fitness>
12.3684

> <Gold.Chemscore.DG>
-14.5204

> <Gold.Chemscore.ZeroCoef>
-5.4800

> <Gold.Chemscore.Hbond>
2.3831

> <Gold.Chemscore.Metal>
0.0000

> <Gold.Chemscore.Lipo>
44.3247

> <Gold.Chemscore.Internal_Hbond>
0.0000

> <Gold.Chemscore.DEClash>
0.2329

> <Gold.Chemscore.DEInternal>
1.9191

> <Gold.Chemscore.Rot>
1.6035

> <Gold.Chemscore.Internal.Correction>
   9.000000E+99

> <Gold.Chemscore.Hbonds>
donor molecule, donor type, donor heavy atom, donor atom, acceptor molecule, acceptor atom, score
      L1  H     7    30       P1  7948  0.20
      P1  H  7997  8010       L1    23  0.07

> <Gold.Chemscore.Hbond.Weighted>
-7.9594

> <Gold.Chemscore.Metal.Weighted>
-0.0000

> <Gold.Chemscore.Lipo.Weighted>
-5.1860

> <Gold.Chemscore.Internal_Hbond.Weighted>
0.0000

> <Gold.Chemscore.DEClash.Weighted>
0.2329

> <Gold.Chemscore.DEInternal.Weighted>
1.9191

> <Gold.Chemscore.Rot.Weighted>
4.1050

> <Gold.Chemscore.Internal.Correction.Weighted>
   9.000000E+99

> <Gold.Protein.RotatedTorsions>
[ 6907 6896 6895 6894 ] final -175.12 input  -60.11 | X-H torsion
[ 7974 7965 7964 7962 ] final  -47.10 input  175.53 | X-H torsion
[ 8008 7997 7996 7995 ] final   78.35 input   59.86 | X-H torsion
[ 10167 10162 10161 10158 ] final -141.52 input  -65.29 | X-H torsion
[ 10718 10713 10712 10709 ] final -119.18 input   66.30 | X-H torsion
[ 10763 10752 10751 10750 ] final  161.76 input  -60.55 | X-H torsion
[ 11005 11000 10999 10996 ] final  136.53 input  -57.11 | X-H torsion

> <Gold.Protein.ActiveResidues>
 VAL166  LYS551  ARG553  GLY616  TRP617  ASP618  TYR619  PRO620  LYS621  CYS622 
 ASP623  PHE694  ASN695  SER759  ASP760  ASP761  ALA762  ILE779  LEU786  VAL792 
 PHE793  MET794  SER795  GLU796  ALA797  LYS798  CYS799  TRP800  GLU811  SER814 

> <Gold.Protein.RotatedAtoms>
  151.5835  133.3375  159.3012 H   0  0  0  0  0  0  0  0  0  0  0  0  # atno 6907 bound_to 6896
  150.8300  134.7552  159.6857 H   0  0  0  0  0  0  0  0  0  0  0  0  # atno 6908 bound_to 6896
  152.4385  134.5645  159.9955 H   0  0  0  0  0  0  0  0  0  0  0  0  # atno 6909 bound_to 6896
  145.9651  140.7440  142.9438 H   0  0  0  0  0  0  0  0  0  0  0  0  # atno 7974 bound_to 7965
  155.8545  140.3456  155.5715 H   0  0  0  0  0  0  0  0  0  0  0  0  # atno 8008 bound_to 7997
  155.8001  140.0884  157.1981 H   0  0  0  0  0  0  0  0  0  0  0  0  # atno 8009 bound_to 7997
  154.4009  140.1467  156.3252 H   0  0  0  0  0  0  0  0  0  0  0  0  # atno 8010 bound_to 7997
  139.8177  143.7616  152.2665 H   0  0  0  0  0  0  0  0  0  0  0  0  # atno 10167 bound_to 10162
  156.1161  130.6287  150.9384 H   0  0  0  0  0  0  0  0  0  0  0  0  # atno 10718 bound_to 10713
  154.2679  135.2766  155.2750 H   0  0  0  0  0  0  0  0  0  0  0  0  # atno 10763 bound_to 10752
  154.5327  135.5725  153.6776 H   0  0  0  0  0  0  0  0  0  0  0  0  # atno 10764 bound_to 10752
  152.9950  135.6231  154.2832 H   0  0  0  0  0  0  0  0  0  0  0  0  # atno 10765 bound_to 10752
  140.0053  134.9462  157.0160 H   0  0  0  0  0  0  0  0  0  0  0  0  # atno 11005 bound_to 11000
  144.6823  140.2655  143.7313 LP  0  0  0  0  0  0  0  0  0  0  0  0  # atno 17320 bound_to 7965
  145.7986  139.1955  143.2061 LP  0  0  0  0  0  0  0  0  0  0  0  0  # atno 17321 bound_to 7965
  139.7785  144.7453  151.0122 LP  0  0  0  0  0  0  0  0  0  0  0  0  # atno 17342 bound_to 10162
  140.7815  143.4568  151.0334 LP  0  0  0  0  0  0  0  0  0  0  0  0  # atno 17343 bound_to 10162
  157.6344  131.0917  150.8377 LP  0  0  0  0  0  0  0  0  0  0  0  0  # atno 17370 bound_to 10713
  156.8480  130.5070  149.5314 LP  0  0  0  0  0  0  0  0  0  0  0  0  # atno 17371 bound_to 10713
  140.4653  134.1442  155.7196 LP  0  0  0  0  0  0  0  0  0  0  0  0  # atno 17394 bound_to 11000
  141.1672  133.8680  157.1680 LP  0  0  0  0  0  0  0  0  0  0  0  0  # atno 17395 bound_to 11000

$$$$
