AV-unprocessed.smi:3181|AV-procd|sdf|12139|dock10
  -GOLD-   2272017583D 1   1.00000     0.00000
 Structure written by MMmdl.
 42 43  0  0  0  0  0  0  0  0  2 V2000
  151.5474  141.3333  157.9925 C   0  0  0  0  0  0  0  0  0  0  0  0
  151.1054  142.4314  157.0093 C   0  0  2  0  0  0  0  0  0  0  0  0
  151.6823  143.8176  157.3592 C   0  0  0  0  0  0  0  0  0  0  0  0
  151.4533  144.1911  158.7428 N   0  0  0  0  0  0  0  0  0  0  0  0
  150.3287  144.5328  159.3740 C   0  0  0  0  0  0  0  0  0  0  0  0
  150.5009  144.8169  160.6571 N   0  0  0  0  0  0  0  0  0  0  0  0
  151.8478  144.6104  160.7586 C   0  0  0  0  0  0  0  0  0  0  0  0
  152.4664  144.2328  159.6395 N   0  0  0  0  0  0  0  0  0  0  0  0
  149.6274  142.5110  156.9730 N   0  3  0  0  0  0  0  0  0  0  0  0
  148.9146  141.2710  156.5827 C   0  0  2  0  0  0  0  0  0  0  0  0
  149.0508  141.0251  155.0710 C   0  0  0  0  0  0  0  0  0  0  0  0
  148.2337  142.0324  154.2467 C   0  0  0  0  0  0  0  0  0  0  0  0
  146.7454  142.0461  154.6502 C   0  0  2  0  0  0  0  0  0  0  0  0
  145.9820  143.0655  153.7860 C   0  0  0  0  0  0  0  0  0  0  0  0
  146.5928  142.3085  156.1717 C   0  0  1  0  0  0  0  0  0  0  0  0
  145.1277  142.2754  156.6420 C   0  0  0  0  0  0  0  0  0  0  0  0
  147.4258  141.2943  156.9863 C   0  0  0  0  0  0  0  0  0  0  0  0
  152.6293  141.1999  157.9844 H   0  0  0  0  0  0  0  0  0  0  0  0
  151.1055  140.3700  157.7376 H   0  0  0  0  0  0  0  0  0  0  0  0
  151.2499  141.5737  159.0138 H   0  0  0  0  0  0  0  0  0  0  0  0
  151.4756  142.1625  156.0187 H   0  0  0  0  0  0  0  0  0  0  0  0
  152.7588  143.8313  157.1829 H   0  0  0  0  0  0  0  0  0  0  0  0
  151.2514  144.5837  156.7119 H   0  0  0  0  0  0  0  0  0  0  0  0
  149.3662  144.5776  158.8853 H   0  0  0  0  0  0  0  0  0  0  0  0
  152.3884  144.7432  161.6843 H   0  0  0  0  0  0  0  0  0  0  0  0
  149.2907  142.8132  157.8761 H   0  0  0  0  0  0  0  0  0  0  0  0
  149.4059  140.4422  157.0948 H   0  0  0  0  0  0  0  0  0  0  0  0
  150.1000  141.0609  154.7738 H   0  0  0  0  0  0  0  0  0  0  0  0
  148.7054  140.0165  154.8400 H   0  0  0  0  0  0  0  0  0  0  0  0
  148.6563  143.0313  154.3645 H   0  0  0  0  0  0  0  0  0  0  0  0
  148.3279  141.7870  153.1882 H   0  0  0  0  0  0  0  0  0  0  0  0
  146.3345  141.0588  154.4327 H   0  0  0  0  0  0  0  0  0  0  0  0
  146.2950  144.0865  154.0064 H   0  0  0  0  0  0  0  0  0  0  0  0
  144.9053  143.0031  153.9412 H   0  0  0  0  0  0  0  0  0  0  0  0
  146.1582  142.8877  152.7248 H   0  0  0  0  0  0  0  0  0  0  0  0
  146.9770  143.3072  156.3836 H   0  0  0  0  0  0  0  0  0  0  0  0
  144.6508  141.3277  156.3903 H   0  0  0  0  0  0  0  0  0  0  0  0
  144.5401  143.0767  156.1945 H   0  0  0  0  0  0  0  0  0  0  0  0
  145.0609  142.4029  157.7228 H   0  0  0  0  0  0  0  0  0  0  0  0
  147.0108  140.2965  156.8349 H   0  0  0  0  0  0  0  0  0  0  0  0
  147.3237  141.4918  158.0534 H   0  0  0  0  0  0  0  0  0  0  0  0
  149.3855  143.2193  156.2947 H   0  0  0  0  0  0  0  0  0  0  0  0
  1  2  1  0  0  0  0
  1 18  1  0  0  0  0
  1 19  1  0  0  0  0
  1 20  1  0  0  0  0
  2  3  1  0  0  0  0
  2  9  1  0  0  0  0
  2 21  1  0  0  0  0
  3  4  1  0  0  0  0
  3 22  1  0  0  0  0
  3 23  1  0  0  0  0
  4  8  1  0  0  0  0
  4  5  1  0  0  0  0
  5  6  2  0  0  0  0
  5 24  1  0  0  0  0
  6  7  1  0  0  0  0
  7  8  2  0  0  0  0
  7 25  1  0  0  0  0
  9 10  1  0  0  0  0
  9 26  1  0  0  0  0
  9 42  1  0  0  0  0
 10 17  1  0  0  0  0
 10 11  1  0  0  0  0
 10 27  1  0  0  0  0
 11 12  1  0  0  0  0
 11 28  1  0  0  0  0
 11 29  1  0  0  0  0
 12 13  1  0  0  0  0
 12 30  1  0  0  0  0
 12 31  1  0  0  0  0
 13 14  1  0  0  0  0
 13 15  1  0  0  0  0
 13 32  1  0  0  0  0
 14 33  1  0  0  0  0
 14 34  1  0  0  0  0
 14 35  1  0  0  0  0
 15 16  1  0  0  0  0
 15 17  1  0  0  0  0
 15 36  1  0  0  0  0
 16 37  1  0  0  0  0
 16 38  1  0  0  0  0
 16 39  1  0  0  0  0
 17 40  1  0  0  0  0
 17 41  1  0  0  0  0
M  CHG  1   9   1
M  END
> <s_m_source_file>
AV-unprocessed.smi

> <i_m_source_file_index>
3181

> <i_lp_mmshare_version>
43012

> <i_f3d_flags>
0

> <s_epik_input>
bjFbY0hdbltjSF1uMVtDSDJdW0NAQEhdKFtDSDNdKVtOSF1bQ0BASF0yW0NIMl1bQ0gyXVtDQEBIXShbQ0gzXSlbQ0BASF0oW0NIM10pW0NIMl0y

> <s_epik_cmdline>
J2VwaWtfcHl0aG9uJywgJy1waCcsICc3LjAnLCAnLXRuJywgJzgnLCAnLW1hJywgJzIwMCcsICctbWV0YWxfYmluZGluZycsICctaW1hZScsICc8aW5maWxlLm1hZT4nLCAnLW9tYWUnLCAnPG91dGZpbGUubWFlPic=

> <r_lp_tautomer_probability>
1

> <r_epik_Ionization_Penalty>
0.000617007

> <r_epik_Ionization_Penalty_Charging>
0.000616215

> <r_epik_Ionization_Penalty_Neutral>
7.92544e-07

> <r_epik_State_Penalty>
0.000388807

> <r_epik_Charging_Adjusted_Penalty>
0.00100502

> <i_epik_Tot_Q>
1

> <i_epik_Tot_abs_Q>
1

> <r_epik_Metal_State_Penalty>
-0

> <b_epik_Metal_Only>
0

> <s_lp_Force_Field>
OPLS_2005

> <r_lp_Energy>
23.3583

> <b_lp_Chiralities_Consistent>
1

> <s_lp_Variant>
AV-unprocessed.smi:3181-5

> <Gold.Version>
5.8.1

> <Gold.Id.Protein>
6NUR|6NUR_protein|mol2

> <Gold.PLP.Fitness>
43.1015

> <Gold.PLP.PLP>
-34.6706

> <Gold.PLP.part.hbond>
-1.0000

> <Gold.PLP.part.metal>
0.0000

> <Gold.PLP.part.buried>
-5.3078

> <Gold.PLP.part.nonpolar>
-29.3762

> <Gold.PLP.part.repulsive>
0.2268

> <Gold.PLP.ligand.clash>
0.0000

> <Gold.PLP.ligand.torsion>
0.2909

> <Gold.PLP.Chemscore.Hbond>
2.0000

> <Gold.PLP.Chemscore.CHOScore>
1.0000

> <Gold.PLP.Chemscore.Metal>
0.0000

> <Gold.Chemscore.Hbonds>
donor molecule, donor type, donor heavy atom, donor atom, acceptor molecule, acceptor atom, score
      L1  H     9    42       P1  8028  2.00
      L1  C     5    24       P1  8029  0.90

> <Gold.PLP.Chemscore.Internal.Correction>
0.0128

> <Gold.Rescore>
     Score         DG    S(hbond)    S(metal)    S(lipo)     H(rot)  DE(clash)    DE(int)     intcor
     10.75     -11.05       0.98        0.00      65.89       2.11       0.04       0.26       ----

> <Gold.Chemscore.Fitness>
10.7480

> <Gold.Chemscore.DG>
-11.0494

> <Gold.Chemscore.ZeroCoef>
-5.4800

> <Gold.Chemscore.Hbond>
0.9761

> <Gold.Chemscore.Metal>
0.0000

> <Gold.Chemscore.Lipo>
65.8937

> <Gold.Chemscore.Internal_Hbond>
0.0000

> <Gold.Chemscore.DEClash>
0.0441

> <Gold.Chemscore.DEInternal>
0.2574

> <Gold.Chemscore.Rot>
2.1095

> <Gold.Chemscore.Internal.Correction>
   9.000000E+99

> <Gold.Chemscore.Hbonds>
donor molecule, donor type, donor heavy atom, donor atom, acceptor molecule, acceptor atom, score
      L1  H     9    42       P1  8028  0.99

> <Gold.Chemscore.Hbond.Weighted>
-3.2602

> <Gold.Chemscore.Metal.Weighted>
-0.0000

> <Gold.Chemscore.Lipo.Weighted>
-7.7096

> <Gold.Chemscore.Internal_Hbond.Weighted>
0.0000

> <Gold.Chemscore.DEClash.Weighted>
0.0441

> <Gold.Chemscore.DEInternal.Weighted>
0.2574

> <Gold.Chemscore.Rot.Weighted>
5.4003

> <Gold.Chemscore.Internal.Correction.Weighted>
   9.000000E+99

> <Gold.Protein.RotatedTorsions>
[ 6907 6896 6895 6894 ] final   15.92 input  -60.11 | X-H torsion
[ 7974 7965 7964 7962 ] final -118.20 input  175.53 | X-H torsion
[ 8008 7997 7996 7995 ] final  147.28 input   59.86 | X-H torsion
[ 10167 10162 10161 10158 ] final   87.13 input  -65.29 | X-H torsion
[ 10718 10713 10712 10709 ] final   17.98 input   66.30 | X-H torsion
[ 10763 10752 10751 10750 ] final  171.83 input  -60.55 | X-H torsion
[ 11005 11000 10999 10996 ] final   48.02 input  -57.11 | X-H torsion

> <Gold.Protein.ActiveResidues>
 VAL166  LYS551  ARG553  GLY616  TRP617  ASP618  TYR619  PRO620  LYS621  CYS622 
 ASP623  PHE694  ASN695  SER759  ASP760  ASP761  ALA762  ILE779  LEU786  VAL792 
 PHE793  MET794  SER795  GLU796  ALA797  LYS798  CYS799  TRP800  GLU811  SER814 

> <Gold.Protein.RotatedAtoms>
  151.8257  135.0637  160.0430 H   0  0  0  0  0  0  0  0  0  0  0  0  # atno 6907 bound_to 6896
  152.2918  133.5564  159.5571 H   0  0  0  0  0  0  0  0  0  0  0  0  # atno 6908 bound_to 6896
  150.7233  134.0334  159.3783 H   0  0  0  0  0  0  0  0  0  0  0  0  # atno 6909 bound_to 6896
  145.0765  140.8396  143.4064 H   0  0  0  0  0  0  0  0  0  0  0  0  # atno 7974 bound_to 7965
  156.2830  140.2160  156.5512 H   0  0  0  0  0  0  0  0  0  0  0  0  # atno 8008 bound_to 7997
  154.7290  140.0497  157.0731 H   0  0  0  0  0  0  0  0  0  0  0  0  # atno 8009 bound_to 7997
  155.0379  140.3142  155.4738 H   0  0  0  0  0  0  0  0  0  0  0  0  # atno 8010 bound_to 7997
  139.8805  144.6443  150.8848 H   0  0  0  0  0  0  0  0  0  0  0  0  # atno 10167 bound_to 10162
  157.0899  130.6423  149.5846 H   0  0  0  0  0  0  0  0  0  0  0  0  # atno 10718 bound_to 10713
  154.4175  135.2757  155.1997 H   0  0  0  0  0  0  0  0  0  0  0  0  # atno 10763 bound_to 10752
  154.3956  135.6056  153.5871 H   0  0  0  0  0  0  0  0  0  0  0  0  # atno 10764 bound_to 10752
  152.9832  135.5914  154.4466 H   0  0  0  0  0  0  0  0  0  0  0  0  # atno 10765 bound_to 10752
  140.1227  134.4808  155.8584 H   0  0  0  0  0  0  0  0  0  0  0  0  # atno 11005 bound_to 11000
  145.1229  139.2681  143.5579 LP  0  0  0  0  0  0  0  0  0  0  0  0  # atno 17320 bound_to 7965
  146.3530  140.0858  142.8615 LP  0  0  0  0  0  0  0  0  0  0  0  0  # atno 17321 bound_to 7965
  140.7745  143.3590  151.1866 LP  0  0  0  0  0  0  0  0  0  0  0  0  # atno 17342 bound_to 10162
  139.7200  143.9238  152.2982 LP  0  0  0  0  0  0  0  0  0  0  0  0  # atno 17343 bound_to 10162
  155.9901  130.4950  150.7241 LP  0  0  0  0  0  0  0  0  0  0  0  0  # atno 17370 bound_to 10713
  157.4730  131.0895  151.0622 LP  0  0  0  0  0  0  0  0  0  0  0  0  # atno 17371 bound_to 10713
  141.2155  133.6766  156.6920 LP  0  0  0  0  0  0  0  0  0  0  0  0  # atno 17394 bound_to 11000
  140.2943  134.8215  157.4044 LP  0  0  0  0  0  0  0  0  0  0  0  0  # atno 17395 bound_to 11000

$$$$
