AV-unprocessed.smi:266|AV-procd|sdf|2031|dock7
  -GOLD-   2262021243D 1   1.00000     0.00000
 Structure written by MMmdl.
 52 55  0  0  0  0  0  0  0  0  1 V2000
  145.5940  131.6545  151.2606 C   0  0  0  0  0  0  0  0  0  0  0  0
  144.3341  132.3805  150.7641 C   0  0  2  0  0  0  0  0  0  0  0  0
  143.9297  131.7628  149.5451 O   0  0  0  0  0  0  0  0  0  0  0  0
  143.2853  132.7295  148.7345 C   0  0  0  0  0  0  0  0  0  0  0  0
  144.1472  133.9634  148.9518 C   0  0  0  0  0  0  0  0  0  0  0  0
  144.4766  133.8955  150.4414 C   0  0  1  0  0  0  0  0  0  0  0  0
  143.4512  134.5812  151.1413 O   0  0  0  0  0  0  0  0  0  0  0  0
  145.8302  134.5590  150.8100 C   0  0  0  0  0  0  0  0  0  0  0  0
  146.1016  134.5502  152.2397 N   0  0  0  0  0  0  0  0  0  0  0  0
  145.5072  135.3381  153.1980 C   0  0  0  0  0  0  0  0  0  0  0  0
  145.9398  135.1529  154.4143 N   0  0  0  0  0  0  0  0  0  0  0  0
  146.9068  134.1610  154.2913 C   0  0  0  0  0  0  0  0  0  0  0  0
  147.7806  133.4971  155.2031 C   0  0  0  0  0  0  0  0  0  0  0  0
  147.8713  133.7984  156.5277 N   0  0  0  0  0  0  0  0  0  0  0  0
  149.1630  133.6181  157.1858 C   0  0  0  0  0  0  0  0  0  0  0  0
  146.9840  134.8311  157.0664 C   0  0  0  0  0  0  0  0  0  0  0  0
  146.7393  134.7089  158.5865 C   0  0  2  0  0  0  0  0  0  0  0  0
  145.4991  135.5108  159.0274 C   0  0  0  0  0  0  0  0  0  0  0  0
  145.4699  135.5724  160.5572 C   0  0  0  0  0  0  0  0  0  0  0  0
  147.2225  135.6707  161.0735 S   0  0  0  0  0  0  0  0  0  0  0  0
  147.5763  137.0725  161.3434 O   0  0  0  0  0  0  0  0  0  0  0  0
  147.4916  134.6168  162.0634 O   0  0  0  0  0  0  0  0  0  0  0  0
  147.9221  135.1848  159.4514 C   0  0  0  0  0  0  0  0  0  0  0  0
  148.5833  132.5244  154.6923 N   0  0  0  0  0  0  0  0  0  0  0  0
  148.5599  132.2360  153.3886 C   0  0  0  0  0  0  0  0  0  0  0  0
  147.8216  132.7896  152.4267 N   0  0  0  0  0  0  0  0  0  0  0  0
  147.0004  133.7548  152.9288 C   0  0  0  0  0  0  0  0  0  0  0  0
  145.9545  132.0777  152.1983 H   0  0  0  0  0  0  0  0  0  0  0  0
  146.4007  131.7052  150.5290 H   0  0  0  0  0  0  0  0  0  0  0  0
  145.3838  130.5996  151.4389 H   0  0  0  0  0  0  0  0  0  0  0  0
  143.5369  132.2201  151.4925 H   0  0  0  0  0  0  0  0  0  0  0  0
  143.2458  132.4192  147.6902 H   0  0  0  0  0  0  0  0  0  0  0  0
  142.2661  132.8919  149.0886 H   0  0  0  0  0  0  0  0  0  0  0  0
  145.0577  133.8585  148.3608 H   0  0  0  0  0  0  0  0  0  0  0  0
  143.6583  134.8904  148.6474 H   0  0  0  0  0  0  0  0  0  0  0  0
  142.6248  134.3906  150.7248 H   0  0  0  0  0  0  0  0  0  0  0  0
  146.6551  134.0579  150.3017 H   0  0  0  0  0  0  0  0  0  0  0  0
  145.8492  135.5974  150.4792 H   0  0  0  0  0  0  0  0  0  0  0  0
  144.7448  136.0668  152.9637 H   0  0  0  0  0  0  0  0  0  0  0  0
  149.5712  132.6284  156.9776 H   0  0  0  0  0  0  0  0  0  0  0  0
  149.0601  133.7117  158.2670 H   0  0  0  0  0  0  0  0  0  0  0  0
  149.8800  134.3674  156.8484 H   0  0  0  0  0  0  0  0  0  0  0  0
  147.3306  135.8319  156.8203 H   0  0  0  0  0  0  0  0  0  0  0  0
  146.0283  134.7331  156.5506 H   0  0  0  0  0  0  0  0  0  0  0  0
  146.5429  133.6646  158.8331 H   0  0  0  0  0  0  0  0  0  0  0  0
  145.5716  136.5265  158.6360 H   0  0  0  0  0  0  0  0  0  0  0  0
  144.5786  135.0815  158.6307 H   0  0  0  0  0  0  0  0  0  0  0  0
  144.9123  136.4261  160.9429 H   0  0  0  0  0  0  0  0  0  0  0  0
  145.0456  134.6585  160.9733 H   0  0  0  0  0  0  0  0  0  0  0  0
  148.6830  134.4171  159.5920 H   0  0  0  0  0  0  0  0  0  0  0  0
  148.3959  136.0672  159.0206 H   0  0  0  0  0  0  0  0  0  0  0  0
  149.2346  131.4552  153.0699 H   0  0  0  0  0  0  0  0  0  0  0  0
  1  2  1  0  0  0  0
  1 28  1  0  0  0  0
  1 29  1  0  0  0  0
  1 30  1  0  0  0  0
  2  6  1  0  0  0  0
  2  3  1  0  0  0  0
  2 31  1  0  0  0  0
  3  4  1  0  0  0  0
  4  5  1  0  0  0  0
  4 32  1  0  0  0  0
  4 33  1  0  0  0  0
  5  6  1  0  0  0  0
  5 34  1  0  0  0  0
  5 35  1  0  0  0  0
  6  7  1  0  0  0  0
  6  8  1  0  0  0  0
  7 36  1  0  0  0  0
  8  9  1  0  0  0  0
  8 37  1  0  0  0  0
  8 38  1  0  0  0  0
  9 27  1  0  0  0  0
  9 10  1  0  0  0  0
 10 11  2  0  0  0  0
 10 39  1  0  0  0  0
 11 12  1  0  0  0  0
 12 27  2  0  0  0  0
 12 13  1  0  0  0  0
 13 14  1  0  0  0  0
 13 24  2  0  0  0  0
 14 15  1  0  0  0  0
 14 16  1  0  0  0  0
 15 40  1  0  0  0  0
 15 41  1  0  0  0  0
 15 42  1  0  0  0  0
 16 17  1  0  0  0  0
 16 43  1  0  0  0  0
 16 44  1  0  0  0  0
 17 23  1  0  0  0  0
 17 18  1  0  0  0  0
 17 45  1  0  0  0  0
 18 19  1  0  0  0  0
 18 46  1  0  0  0  0
 18 47  1  0  0  0  0
 19 20  1  0  0  0  0
 19 48  1  0  0  0  0
 19 49  1  0  0  0  0
 20 21  2  0  0  0  0
 20 22  2  0  0  0  0
 20 23  1  0  0  0  0
 23 50  1  0  0  0  0
 23 51  1  0  0  0  0
 24 25  1  0  0  0  0
 25 26  2  0  0  0  0
 25 52  1  0  0  0  0
 26 27  1  0  0  0  0
M  END
> <s_m_source_file>
AV-unprocessed.smi

> <i_m_source_file_index>
266

> <i_lp_mmshare_version>
43012

> <i_f3d_flags>
0

> <s_epik_input>
W0NIMl0xW0NIMl1PW0NAQEhdKFtDSDNdKVtDQEBdMShbT0hdKVtDSDJdbihbY0hdbjIpYyhjMjMpbltjSF1uYzNOKFtDSDNdKVtDSDJdW0NAQEhdKFtDSDJdNClbQ0gyXVtDSDJdUzQoPU8pPU8=

> <s_epik_cmdline>
J2VwaWtfcHl0aG9uJywgJy1waCcsICc3LjAnLCAnLXRuJywgJzgnLCAnLW1hJywgJzIwMCcsICctbWV0YWxfYmluZGluZycsICctaW1hZScsICc8aW5maWxlLm1hZT4nLCAnLW9tYWUnLCAnPG91dGZpbGUubWFlPic=

> <r_lp_tautomer_probability>
1

> <r_epik_Ionization_Penalty>
0.00155497

> <r_epik_Ionization_Penalty_Charging>
0

> <r_epik_Ionization_Penalty_Neutral>
0.00155497

> <r_epik_State_Penalty>
-0

> <r_epik_Charging_Adjusted_Penalty>
0

> <i_epik_Tot_Q>
0

> <i_epik_Tot_abs_Q>
0

> <r_epik_Metal_State_Penalty>
-0

> <b_epik_Metal_Only>
0

> <s_lp_Force_Field>
OPLS_2005

> <r_lp_Energy>
29.5809

> <b_lp_Chiralities_Consistent>
1

> <s_lp_Variant>
AV-unprocessed.smi:266-1

> <Gold.Version>
5.8.1

> <Gold.Id.Protein>
6NUR|6NUR_protein|mol2

> <Gold.PLP.Fitness>
39.2920

> <Gold.PLP.PLP>
-28.7742

> <Gold.PLP.part.hbond>
-4.0000

> <Gold.PLP.part.metal>
0.0000

> <Gold.PLP.part.buried>
0.5960

> <Gold.PLP.part.nonpolar>
-26.1605

> <Gold.PLP.part.repulsive>
0.7917

> <Gold.PLP.ligand.clash>
0.0000

> <Gold.PLP.ligand.torsion>
0.7004

> <Gold.PLP.Chemscore.Hbond>
3.6480

> <Gold.PLP.Chemscore.CHOScore>
0.1227

> <Gold.PLP.Chemscore.Metal>
0.0000

> <Gold.Chemscore.Hbonds>
donor molecule, donor type, donor heavy atom, donor atom, acceptor molecule, acceptor atom, score
      L1  H     7    36       P1 10186  1.00
      P1  H  6931  6943       L1    21  0.99
      P1  H  6934  6947       L1    21  0.90
      P1  H 10785 10796       L1     3  0.77
      L1  C    25    52       P1 10747  0.16

> <Gold.PLP.Chemscore.Internal.Correction>
0.6063

> <Gold.Rescore>
     Score         DG    S(hbond)    S(metal)    S(lipo)     H(rot)  DE(clash)    DE(int)     intcor
      8.85     -15.57       2.46        0.00      69.56       2.45       1.98       4.74       ----

> <Gold.Chemscore.Fitness>
8.8476

> <Gold.Chemscore.DG>
-15.5662

> <Gold.Chemscore.ZeroCoef>
-5.4800

> <Gold.Chemscore.Hbond>
2.4588

> <Gold.Chemscore.Metal>
0.0000

> <Gold.Chemscore.Lipo>
69.5583

> <Gold.Chemscore.Internal_Hbond>
0.0000

> <Gold.Chemscore.DEClash>
1.9786

> <Gold.Chemscore.DEInternal>
4.7399

> <Gold.Chemscore.Rot>
2.4471

> <Gold.Chemscore.Internal.Correction>
   9.000000E+99

> <Gold.Chemscore.Hbonds>
donor molecule, donor type, donor heavy atom, donor atom, acceptor molecule, acceptor atom, score
      L1  H     7    36       P1 10186  0.34
      P1  H  6931  6943       L1    21  0.93
      P1  H  6934  6947       L1    21  0.82
      P1  H 10785 10796       L1     3  0.19

> <Gold.Chemscore.Hbond.Weighted>
-8.2124

> <Gold.Chemscore.Metal.Weighted>
-0.0000

> <Gold.Chemscore.Lipo.Weighted>
-8.1383

> <Gold.Chemscore.Internal_Hbond.Weighted>
0.0000

> <Gold.Chemscore.DEClash.Weighted>
1.9786

> <Gold.Chemscore.DEInternal.Weighted>
4.7399

> <Gold.Chemscore.Rot.Weighted>
6.2645

> <Gold.Chemscore.Internal.Correction.Weighted>
   9.000000E+99

> <Gold.Protein.RotatedTorsions>
[ 6907 6896 6895 6894 ] final  163.89 input  -60.11 | X-H torsion
[ 7974 7965 7964 7962 ] final    6.38 input  175.53 | X-H torsion
[ 8008 7997 7996 7995 ] final  150.88 input   59.86 | X-H torsion
[ 10167 10162 10161 10158 ] final  -39.53 input  -65.29 | X-H torsion
[ 10718 10713 10712 10709 ] final   16.82 input   66.30 | X-H torsion
[ 10763 10752 10751 10750 ] final -144.58 input  -60.55 | X-H torsion
[ 11005 11000 10999 10996 ] final -153.59 input  -57.11 | X-H torsion

> <Gold.Protein.ActiveResidues>
 VAL166  LYS551  ARG553  GLY616  TRP617  ASP618  TYR619  PRO620  LYS621  CYS622 
 ASP623  PHE694  ASN695  SER759  ASP760  ASP761  ALA762  ILE779  LEU786  VAL792 
 PHE793  MET794  SER795  GLU796  ALA797  LYS798  CYS799  TRP800  GLU811  SER814 

> <Gold.Protein.RotatedAtoms>
  151.9182  133.3579  159.3887 H   0  0  0  0  0  0  0  0  0  0  0  0  # atno 6907 bound_to 6896
  150.7043  134.4662  159.5413 H   0  0  0  0  0  0  0  0  0  0  0  0  # atno 6908 bound_to 6896
  152.2281  134.8349  160.0528 H   0  0  0  0  0  0  0  0  0  0  0  0  # atno 6909 bound_to 6896
  146.2435  140.0242  142.8395 H   0  0  0  0  0  0  0  0  0  0  0  0  # atno 7974 bound_to 7965
  156.2697  140.2063  156.6087 H   0  0  0  0  0  0  0  0  0  0  0  0  # atno 8008 bound_to 7997
  154.6849  140.0536  157.0328 H   0  0  0  0  0  0  0  0  0  0  0  0  # atno 8009 bound_to 7997
  155.0948  140.3200  155.4566 H   0  0  0  0  0  0  0  0  0  0  0  0  # atno 8010 bound_to 7997
  140.7061  143.3209  151.2795 H   0  0  0  0  0  0  0  0  0  0  0  0  # atno 10167 bound_to 10162
  157.0732  130.6357  149.5810 H   0  0  0  0  0  0  0  0  0  0  0  0  # atno 10718 bound_to 10713
  154.8422  135.3436  154.6368 H   0  0  0  0  0  0  0  0  0  0  0  0  # atno 10763 bound_to 10752
  153.6978  135.6971  153.5076 H   0  0  0  0  0  0  0  0  0  0  0  0  # atno 10764 bound_to 10752
  153.2546  135.4342  155.0787 H   0  0  0  0  0  0  0  0  0  0  0  0  # atno 10765 bound_to 10752
  140.7065  134.3880  157.5203 H   0  0  0  0  0  0  0  0  0  0  0  0  # atno 11005 bound_to 11000
  145.1213  140.9464  143.4598 LP  0  0  0  0  0  0  0  0  0  0  0  0  # atno 17320 bound_to 7965
  145.0478  139.3206  143.5944 LP  0  0  0  0  0  0  0  0  0  0  0  0  # atno 17321 bound_to 7965
  139.6662  144.0101  152.2724 LP  0  0  0  0  0  0  0  0  0  0  0  0  # atno 17342 bound_to 10162
  139.9684  144.6510  150.8012 LP  0  0  0  0  0  0  0  0  0  0  0  0  # atno 17343 bound_to 10162
  155.9944  130.5008  150.7419 LP  0  0  0  0  0  0  0  0  0  0  0  0  # atno 17370 bound_to 10713
  157.4861  131.0907  151.0481 LP  0  0  0  0  0  0  0  0  0  0  0  0  # atno 17371 bound_to 10713
  139.8883  134.8860  156.2483 LP  0  0  0  0  0  0  0  0  0  0  0  0  # atno 17394 bound_to 11000
  141.0120  133.7090  156.1127 LP  0  0  0  0  0  0  0  0  0  0  0  0  # atno 17395 bound_to 11000

$$$$
