AV-unprocessed.smi:43|AV-procd|sdf|392|dock1
  -GOLD-   2262016243D 1   1.00000     0.00000
 Structure written by MMmdl.
 25 26  0  0  0  0  0  0  0  0  2 V2000
  153.3778  140.2964  160.1942 C   0  0  0  0  0  0  0  0  0  0  0  0
  152.7513  139.0783  159.7141 N   0  0  0  0  0  0  0  0  0  0  0  0
  152.8699  137.9337  160.4327 N   0  0  0  0  0  0  0  0  0  0  0  0
  152.2576  137.0003  159.7639 N   0  0  0  0  0  0  0  0  0  0  0  0
  151.7207  137.4934  158.5916 N   0  0  0  0  0  0  0  0  0  0  0  0
  152.0422  138.7817  158.6105 C   0  0  0  0  0  0  0  0  0  0  0  0
  151.7073  139.7162  157.6228 N   0  0  0  0  0  0  0  0  0  0  0  0
  151.7570  141.1732  157.6947 C   0  0  0  0  0  0  0  0  0  0  0  0
  150.6643  141.6913  156.7691 C   0  0  1  0  0  0  0  0  0  0  0  0
  150.8772  143.0301  156.3732 O   0  0  0  0  0  0  0  0  0  0  0  0
  150.7511  140.7162  155.6117 C   0  0  0  0  0  0  0  0  0  0  0  0
  151.1379  139.3985  156.3057 C   0  0  1  0  0  0  0  0  0  0  0  0
  152.1060  138.5667  155.4509 C   0  0  0  0  0  0  0  0  0  0  0  0
  153.2138  139.0833  155.1886 O   0  0  0  0  0  0  0  0  0  0  0  0
  151.7263  137.4340  155.0776 O   0  5  0  0  0  0  0  0  0  0  0  0
  149.6921  141.6029  157.2561 H   0  0  0  0  0  0  0  0  0  0  0  0
  150.2329  138.8151  156.4811 H   0  0  0  0  0  0  0  0  0  0  0  0
  153.9010  140.7929  159.3773 H   0  0  0  0  0  0  0  0  0  0  0  0
  154.1027  140.0672  160.9762 H   0  0  0  0  0  0  0  0  0  0  0  0
  152.6217  140.9644  160.6061 H   0  0  0  0  0  0  0  0  0  0  0  0
  151.5936  141.5359  158.7088 H   0  0  0  0  0  0  0  0  0  0  0  0
  152.7426  141.5063  157.3654 H   0  0  0  0  0  0  0  0  0  0  0  0
  150.0379  143.4590  156.3065 H   0  0  0  0  0  0  0  0  0  0  0  0
  149.8142  140.6390  155.0595 H   0  0  0  0  0  0  0  0  0  0  0  0
  151.5249  141.0377  154.9112 H   0  0  0  0  0  0  0  0  0  0  0  0
  1  2  1  0  0  0  0
  1 18  1  0  0  0  0
  1 19  1  0  0  0  0
  1 20  1  0  0  0  0
  2  6  1  0  0  0  0
  2  3  1  0  0  0  0
  3  4  2  0  0  0  0
  4  5  1  0  0  0  0
  5  6  2  0  0  0  0
  6  7  1  0  0  0  0
  7 12  1  0  0  0  0
  7  8  1  0  0  0  0
  8  9  1  0  0  0  0
  8 21  1  0  0  0  0
  8 22  1  0  0  0  0
  9 16  1  0  0  0  0
  9 10  1  0  0  0  0
  9 11  1  0  0  0  0
 10 23  1  0  0  0  0
 11 12  1  0  0  0  0
 11 24  1  0  0  0  0
 11 25  1  0  0  0  0
 12 17  1  0  0  0  0
 12 13  1  0  0  0  0
 13 14  2  0  0  0  0
 13 15  1  0  0  0  0
M  CHG  1  15  -1
M  END
> <s_m_source_file>
AV-unprocessed.smi

> <i_m_source_file_index>
43

> <i_lp_mmshare_version>
43012

> <i_f3d_flags>
0

> <s_epik_input>
W0NIM11uMW5ubmMxTjJbQ0gyXVtDQEhdKFtPSF0pW0NIMl1bQ0BIXTJDKD1PKVtPSF0=

> <s_epik_cmdline>
J2VwaWtfcHl0aG9uJywgJy1waCcsICc3LjAnLCAnLXRuJywgJzgnLCAnLW1hJywgJzIwMCcsICctbWV0YWxfYmluZGluZycsICctaW1hZScsICc8aW5maWxlLm1hZT4nLCAnLW9tYWUnLCAnPG91dGZpbGUubWFlPic=

> <r_lp_tautomer_probability>
1

> <r_epik_Ionization_Penalty>
0.000193127

> <r_epik_Ionization_Penalty_Charging>
0.000192933

> <r_epik_Ionization_Penalty_Neutral>
1.93728e-07

> <r_epik_State_Penalty>
-0

> <r_epik_Charging_Adjusted_Penalty>
0.000192933

> <i_epik_Tot_Q>
-1

> <i_epik_Tot_abs_Q>
1

> <r_epik_Metal_State_Penalty>
-0

> <b_epik_Metal_Only>
0

> <s_lp_Force_Field>
OPLS_2005

> <r_lp_Energy>
21.006

> <b_lp_Chiralities_Consistent>
1

> <s_lp_Variant>
AV-unprocessed.smi:43-2

> <Gold.Version>
5.8.1

> <Gold.Id.Protein>
6NUR|6NUR_protein|mol2

> <Gold.PLP.Fitness>
41.0961

> <Gold.PLP.PLP>
-24.0364

> <Gold.PLP.part.hbond>
-4.0000

> <Gold.PLP.part.metal>
0.0000

> <Gold.PLP.part.buried>
-4.1358

> <Gold.PLP.part.nonpolar>
-15.9689

> <Gold.PLP.part.repulsive>
0.0889

> <Gold.PLP.ligand.clash>
0.0000

> <Gold.PLP.ligand.torsion>
0.0783

> <Gold.PLP.Chemscore.Hbond>
5.7360

> <Gold.PLP.Chemscore.CHOScore>
0.0000

> <Gold.PLP.Chemscore.Metal>
0.0000

> <Gold.Chemscore.Hbonds>
donor molecule, donor type, donor heavy atom, donor atom, acceptor molecule, acceptor atom, score
      L1  H    10    23       P1  8028  1.00
      P1  H  6896  6908       L1     4  1.00
      P1  H  7997  8010       L1    14  2.00
      P1  H 10752 10763       L1    15  0.89

> <Gold.PLP.Chemscore.Internal.Correction>
0.0083

> <Gold.Rescore>
     Score         DG    S(hbond)    S(metal)    S(lipo)     H(rot)  DE(clash)    DE(int)     intcor
     17.19     -17.34       3.68        0.00      33.33       1.69       0.05       0.10       ----

> <Gold.Chemscore.Fitness>
17.1909

> <Gold.Chemscore.DG>
-17.3366

> <Gold.Chemscore.ZeroCoef>
-5.4800

> <Gold.Chemscore.Hbond>
3.6767

> <Gold.Chemscore.Metal>
0.0000

> <Gold.Chemscore.Lipo>
33.3311

> <Gold.Chemscore.Internal_Hbond>
0.0000

> <Gold.Chemscore.DEClash>
0.0476

> <Gold.Chemscore.DEInternal>
0.0981

> <Gold.Chemscore.Rot>
1.6887

> <Gold.Chemscore.Internal.Correction>
   9.000000E+99

> <Gold.Chemscore.Hbonds>
donor molecule, donor type, donor heavy atom, donor atom, acceptor molecule, acceptor atom, score
      L1  H    10    23       P1  8028  0.97
      P1  H  6896  6908       L1     4  0.88
      P1  H  7997  8010       L1    14  1.00
      P1  H 10752 10763       L1    15  0.42

> <Gold.Chemscore.Hbond.Weighted>
-12.2800

> <Gold.Chemscore.Metal.Weighted>
-0.0000

> <Gold.Chemscore.Lipo.Weighted>
-3.8997

> <Gold.Chemscore.Internal_Hbond.Weighted>
0.0000

> <Gold.Chemscore.DEClash.Weighted>
0.0476

> <Gold.Chemscore.DEInternal.Weighted>
0.0981

> <Gold.Chemscore.Rot.Weighted>
4.3232

> <Gold.Chemscore.Internal.Correction.Weighted>
   9.000000E+99

> <Gold.Protein.RotatedTorsions>
[ 6907 6896 6895 6894 ] final  -94.62 input  -60.11 | X-H torsion
[ 7974 7965 7964 7962 ] final  -83.77 input  175.53 | X-H torsion
[ 8008 7997 7996 7995 ] final   95.53 input   59.86 | X-H torsion
[ 10167 10162 10161 10158 ] final  -49.57 input  -65.29 | X-H torsion
[ 10718 10713 10712 10709 ] final  177.21 input   66.30 | X-H torsion
[ 10763 10752 10751 10750 ] final   56.84 input  -60.55 | X-H torsion
[ 11005 11000 10999 10996 ] final  -20.91 input  -57.11 | X-H torsion

> <Gold.Protein.ActiveResidues>
 VAL166  LYS551  ARG553  GLY616  TRP617  ASP618  TYR619  PRO620  LYS621  CYS622 
 ASP623  PHE694  ASN695  SER759  ASP760  ASP761  ALA762  ILE779  LEU786  VAL792 
 PHE793  MET794  SER795  GLU796  ALA797  LYS798  CYS799  TRP800  GLU811  SER814 

> <Gold.Protein.RotatedAtoms>
  150.6946  134.1783  159.4238 H   0  0  0  0  0  0  0  0  0  0  0  0  # atno 6907 bound_to 6896
  151.9759  135.0051  160.0564 H   0  0  0  0  0  0  0  0  0  0  0  0  # atno 6908 bound_to 6896
  152.1799  133.4665  159.4990 H   0  0  0  0  0  0  0  0  0  0  0  0  # atno 6909 bound_to 6896
  145.5155  140.9536  143.1684 H   0  0  0  0  0  0  0  0  0  0  0  0  # atno 7974 bound_to 7965
  156.0699  140.3285  155.7563 H   0  0  0  0  0  0  0  0  0  0  0  0  # atno 8008 bound_to 7997
  155.5322  140.0594  157.2904 H   0  0  0  0  0  0  0  0  0  0  0  0  # atno 8009 bound_to 7997
  154.4525  140.1925  156.0495 H   0  0  0  0  0  0  0  0  0  0  0  0  # atno 8010 bound_to 7997
  140.6679  143.2692  151.4233 H   0  0  0  0  0  0  0  0  0  0  0  0  # atno 10167 bound_to 10162
  156.9087  130.9902  151.3024 H   0  0  0  0  0  0  0  0  0  0  0  0  # atno 10718 bound_to 10713
  152.9839  135.5662  154.5294 H   0  0  0  0  0  0  0  0  0  0  0  0  # atno 10763 bound_to 10752
  154.4769  135.2787  155.1603 H   0  0  0  0  0  0  0  0  0  0  0  0  # atno 10764 bound_to 10752
  154.3128  135.6285  153.5526 H   0  0  0  0  0  0  0  0  0  0  0  0  # atno 10765 bound_to 10752
  140.8510  133.7857  155.9966 H   0  0  0  0  0  0  0  0  0  0  0  0  # atno 11005 bound_to 11000
  144.7704  139.6748  143.7197 LP  0  0  0  0  0  0  0  0  0  0  0  0  # atno 17320 bound_to 7965
  146.2139  139.5515  142.9663 LP  0  0  0  0  0  0  0  0  0  0  0  0  # atno 17321 bound_to 7965
  139.5935  144.1448  152.2116 LP  0  0  0  0  0  0  0  0  0  0  0  0  # atno 17342 bound_to 10162
  140.0810  144.5701  150.7122 LP  0  0  0  0  0  0  0  0  0  0  0  0  # atno 17343 bound_to 10162
  157.5981  130.8492  149.8760 LP  0  0  0  0  0  0  0  0  0  0  0  0  # atno 17370 bound_to 10713
  156.0546  130.3711  150.1120 LP  0  0  0  0  0  0  0  0  0  0  0  0  # atno 17371 bound_to 10713
  140.8790  134.2634  157.5153 LP  0  0  0  0  0  0  0  0  0  0  0  0  # atno 17394 bound_to 11000
  139.8704  134.9605  156.4368 LP  0  0  0  0  0  0  0  0  0  0  0  0  # atno 17395 bound_to 11000

$$$$
