AV-unprocessed.smi:2565|AV-procd|sdf|10071|dock10
  -GOLD-   2272014103D 1   1.00000     0.00000
 Structure written by MMmdl.
 24 25  0  0  0  0  0  0  0  0  1 V2000
  150.0284  137.1003  154.9528 C   0  0  0  0  0  0  0  0  0  0  0  0
  150.9928  138.1814  154.9144 N   0  0  0  0  0  0  0  0  0  0  0  0
  152.3292  138.1079  154.8262 C   0  0  0  0  0  0  0  0  0  0  0  0
  152.9595  139.2814  154.8229 N   0  0  0  0  0  0  0  0  0  0  0  0
  151.9490  140.2178  154.9173 N   0  0  0  0  0  0  0  0  0  0  0  0
  150.8075  139.5169  154.9591 C   0  0  0  0  0  0  0  0  0  0  0  0
  149.4454  140.1351  155.0809 C   0  0  1  0  0  0  0  0  0  0  0  0
  149.5092  141.6702  155.2005 C   0  0  0  0  0  0  0  0  0  0  0  0
  148.1598  142.2321  155.2338 N   0  0  0  0  0  0  0  0  0  0  0  0
  147.3798  141.8041  154.0733 C   0  0  0  0  0  0  0  0  0  0  0  0
  147.3752  140.2684  153.9658 C   0  0  0  0  0  0  0  0  0  0  0  0
  148.7145  139.7888  153.9067 O   0  0  0  0  0  0  0  0  0  0  0  0
  150.5427  136.1409  155.0167 H   0  0  0  0  0  0  0  0  0  0  0  0
  149.4207  137.1171  154.0479 H   0  0  0  0  0  0  0  0  0  0  0  0
  149.3813  137.2126  155.8230 H   0  0  0  0  0  0  0  0  0  0  0  0
  152.8586  137.1681  154.7661 H   0  0  0  0  0  0  0  0  0  0  0  0
  148.9383  139.7094  155.9483 H   0  0  0  0  0  0  0  0  0  0  0  0
  150.0545  141.9549  156.1007 H   0  0  0  0  0  0  0  0  0  0  0  0
  150.0605  142.0837  154.3551 H   0  0  0  0  0  0  0  0  0  0  0  0
  148.2140  143.2455  155.2513 H   0  0  0  0  0  0  0  0  0  0  0  0
  146.3584  142.1771  154.1506 H   0  0  0  0  0  0  0  0  0  0  0  0
  147.8020  142.2332  153.1638 H   0  0  0  0  0  0  0  0  0  0  0  0
  146.8497  139.8192  154.8101 H   0  0  0  0  0  0  0  0  0  0  0  0
  146.8490  139.9581  153.0631 H   0  0  0  0  0  0  0  0  0  0  0  0
  1  2  1  0  0  0  0
  1 13  1  0  0  0  0
  1 14  1  0  0  0  0
  1 15  1  0  0  0  0
  2  6  1  0  0  0  0
  2  3  1  0  0  0  0
  3  4  2  0  0  0  0
  3 16  1  0  0  0  0
  4  5  1  0  0  0  0
  5  6  2  0  0  0  0
  6  7  1  0  0  0  0
  7 12  1  0  0  0  0
  7  8  1  0  0  0  0
  7 17  1  0  0  0  0
  8  9  1  0  0  0  0
  8 18  1  0  0  0  0
  8 19  1  0  0  0  0
  9 10  1  0  0  0  0
  9 20  1  0  0  0  0
 10 11  1  0  0  0  0
 10 21  1  0  0  0  0
 10 22  1  0  0  0  0
 11 12  1  0  0  0  0
 11 23  1  0  0  0  0
 11 24  1  0  0  0  0
M  END
> <s_m_source_file>
AV-unprocessed.smi

> <i_m_source_file_index>
2565

> <i_lp_mmshare_version>
43012

> <i_f3d_flags>
0

> <s_epik_input>
W0NIM11uMVtjSF1ubmMxW0NAQEhdMltDSDJdW05IXVtDSDJdW0NIMl1PMg==

> <s_epik_cmdline>
J2VwaWtfcHl0aG9uJywgJy1waCcsICc3LjAnLCAnLXRuJywgJzgnLCAnLW1hJywgJzIwMCcsICctbWV0YWxfYmluZGluZycsICctaW1hZScsICc8aW5maWxlLm1hZT4nLCAnLW9tYWUnLCAnPG91dGZpbGUubWFlPic=

> <r_lp_tautomer_probability>
1

> <r_epik_Ionization_Penalty>
0.980774

> <r_epik_Ionization_Penalty_Charging>
0

> <r_epik_Ionization_Penalty_Neutral>
0.980774

> <r_epik_State_Penalty>
1.0271

> <r_epik_Charging_Adjusted_Penalty>
1.0271

> <i_epik_Tot_Q>
0

> <i_epik_Tot_abs_Q>
0

> <r_epik_Metal_State_Penalty>
1.02688

> <b_epik_Metal_Only>
0

> <s_lp_Force_Field>
OPLS_2005

> <r_lp_Energy>
14.243

> <b_lp_Chiralities_Consistent>
1

> <s_lp_Variant>
AV-unprocessed.smi:2565-4

> <Gold.Version>
5.8.1

> <Gold.Id.Protein>
6NUR|6NUR_protein|mol2

> <Gold.PLP.Fitness>
30.2538

> <Gold.PLP.PLP>
-22.3272

> <Gold.PLP.part.hbond>
-3.4539

> <Gold.PLP.part.metal>
0.0000

> <Gold.PLP.part.buried>
-3.4723

> <Gold.PLP.part.nonpolar>
-17.5765

> <Gold.PLP.part.repulsive>
1.5350

> <Gold.PLP.ligand.clash>
0.0000

> <Gold.PLP.ligand.torsion>
0.0174

> <Gold.PLP.Chemscore.Hbond>
2.6528

> <Gold.PLP.Chemscore.CHOScore>
0.0000

> <Gold.PLP.Chemscore.Metal>
0.0000

> <Gold.Chemscore.Hbonds>
donor molecule, donor type, donor heavy atom, donor atom, acceptor molecule, acceptor atom, score
      L1  H     9    20       P1  8028  1.00
      P1  H  7989  7998       L1     5  0.64
      P1  H  7997  8009       L1     4  0.96

> <Gold.PLP.Chemscore.Internal.Correction>
0.0030

> <Gold.Rescore>
     Score         DG    S(hbond)    S(metal)    S(lipo)     H(rot)  DE(clash)    DE(int)     intcor
     13.45     -14.02       2.36        0.00      27.60       1.00       0.03       0.54       ----

> <Gold.Chemscore.Fitness>
13.4469

> <Gold.Chemscore.DG>
-14.0201

> <Gold.Chemscore.ZeroCoef>
-5.4800

> <Gold.Chemscore.Hbond>
2.3566

> <Gold.Chemscore.Metal>
0.0000

> <Gold.Chemscore.Lipo>
27.5994

> <Gold.Chemscore.Internal_Hbond>
0.0000

> <Gold.Chemscore.DEClash>
0.0323

> <Gold.Chemscore.DEInternal>
0.5409

> <Gold.Chemscore.Rot>
1.0000

> <Gold.Chemscore.Internal.Correction>
   9.000000E+99

> <Gold.Chemscore.Hbonds>
donor molecule, donor type, donor heavy atom, donor atom, acceptor molecule, acceptor atom, score
      L1  H     9    20       P1  8028  0.93
      P1  H  7989  7998       L1     5  0.07
      P1  H  7997  8009       L1     4  0.32

> <Gold.Chemscore.Hbond.Weighted>
-7.8710

> <Gold.Chemscore.Metal.Weighted>
-0.0000

> <Gold.Chemscore.Lipo.Weighted>
-3.2291

> <Gold.Chemscore.Internal_Hbond.Weighted>
0.0000

> <Gold.Chemscore.DEClash.Weighted>
0.0323

> <Gold.Chemscore.DEInternal.Weighted>
0.5409

> <Gold.Chemscore.Rot.Weighted>
2.5600

> <Gold.Chemscore.Internal.Correction.Weighted>
   9.000000E+99

> <Gold.Protein.RotatedTorsions>
[ 6907 6896 6895 6894 ] final  123.54 input  -60.11 | X-H torsion
[ 7974 7965 7964 7962 ] final  -45.93 input  175.53 | X-H torsion
[ 8008 7997 7996 7995 ] final -134.91 input   59.86 | X-H torsion
[ 10167 10162 10161 10158 ] final -169.69 input  -65.29 | X-H torsion
[ 10718 10713 10712 10709 ] final -118.69 input   66.30 | X-H torsion
[ 10763 10752 10751 10750 ] final    1.77 input  -60.55 | X-H torsion
[ 11005 11000 10999 10996 ] final  141.89 input  -57.11 | X-H torsion

> <Gold.Protein.ActiveResidues>
 VAL166  LYS551  ARG553  GLY616  TRP617  ASP618  TYR619  PRO620  LYS621  CYS622 
 ASP623  PHE694  ASN695  SER759  ASP760  ASP761  ALA762  ILE779  LEU786  VAL792 
 PHE793  MET794  SER795  GLU796  ALA797  LYS798  CYS799  TRP800  GLU811  SER814 

> <Gold.Protein.RotatedAtoms>
  152.4153  133.7029  159.6433 H   0  0  0  0  0  0  0  0  0  0  0  0  # atno 6907 bound_to 6896
  150.8031  133.8550  159.3225 H   0  0  0  0  0  0  0  0  0  0  0  0  # atno 6908 bound_to 6896
  151.6282  135.1027  160.0167 H   0  0  0  0  0  0  0  0  0  0  0  0  # atno 6909 bound_to 6896
  145.9771  140.7323  142.9382 H   0  0  0  0  0  0  0  0  0  0  0  0  # atno 7974 bound_to 7965
  155.3698  140.0487  157.3045 H   0  0  0  0  0  0  0  0  0  0  0  0  # atno 8008 bound_to 7997
  154.5135  140.2200  155.9073 H   0  0  0  0  0  0  0  0  0  0  0  0  # atno 8009 bound_to 7997
  156.1610  140.3116  155.8813 H   0  0  0  0  0  0  0  0  0  0  0  0  # atno 8010 bound_to 7997
  139.5907  144.1219  152.1631 H   0  0  0  0  0  0  0  0  0  0  0  0  # atno 10167 bound_to 10162
  156.1125  130.6260  150.9323 H   0  0  0  0  0  0  0  0  0  0  0  0  # atno 10718 bound_to 10713
  153.3039  135.6958  153.7177 H   0  0  0  0  0  0  0  0  0  0  0  0  # atno 10763 bound_to 10752
  153.6081  135.3449  155.2970 H   0  0  0  0  0  0  0  0  0  0  0  0  # atno 10764 bound_to 10752
  154.8558  135.4357  154.2158 H   0  0  0  0  0  0  0  0  0  0  0  0  # atno 10765 bound_to 10752
  140.0435  134.9292  157.0887 H   0  0  0  0  0  0  0  0  0  0  0  0  # atno 11005 bound_to 11000
  144.6851  140.2846  143.7287 LP  0  0  0  0  0  0  0  0  0  0  0  0  # atno 17320 bound_to 7965
  145.7823  139.1896  143.2150 LP  0  0  0  0  0  0  0  0  0  0  0  0  # atno 17321 bound_to 7965
  140.0793  144.5714  150.7134 LP  0  0  0  0  0  0  0  0  0  0  0  0  # atno 17342 bound_to 10162
  140.7170  143.2554  151.4400 LP  0  0  0  0  0  0  0  0  0  0  0  0  # atno 17343 bound_to 10162
  157.6307  131.0921  150.8446 LP  0  0  0  0  0  0  0  0  0  0  0  0  # atno 17370 bound_to 10713
  156.8555  130.5095  149.5308 LP  0  0  0  0  0  0  0  0  0  0  0  0  # atno 17371 bound_to 10713
  140.4030  134.2062  155.7163 LP  0  0  0  0  0  0  0  0  0  0  0  0  # atno 17394 bound_to 11000
  141.1895  133.8237  157.0953 LP  0  0  0  0  0  0  0  0  0  0  0  0  # atno 17395 bound_to 11000

$$$$
