AV-unprocessed.smi:1|AV-procd|sdf|7|dock1
  -GOLD-   2262015 93D 1   1.00000     0.00000
 Structure written by MMmdl.
 57 62  0  0  0  0  0  0  0  0  1 V2000
  151.0146  142.1764  156.5428 O   0  0  0  0  0  0  0  0  0  0  0  0
  151.6392  141.8178  157.5418 C   0  0  0  0  0  0  0  0  0  0  0  0
  152.1615  140.4704  157.6842 N   0  0  0  0  0  0  0  0  0  0  0  0
  152.1425  139.4676  156.7755 C   0  0  0  0  0  0  0  0  0  0  0  0
  152.7071  139.5885  155.5447 N   0  0  0  0  0  0  0  0  0  0  0  0
  152.6661  138.5685  154.6824 C   0  0  0  0  0  0  0  0  0  0  0  0
  152.1205  137.3620  154.8457 N   0  0  0  0  0  0  0  0  0  0  0  0
  151.5595  137.2296  156.0819 C   0  0  0  0  0  0  0  0  0  0  0  0
  151.5314  138.2274  157.0951 C   0  0  0  0  0  0  0  0  0  0  0  0
  150.8788  137.7371  158.2195 N   0  0  0  0  0  0  0  0  0  0  0  0
  150.5432  136.5198  157.8849 C   0  0  0  0  0  0  0  0  0  0  0  0
  150.9106  136.1354  156.6147 N   0  0  0  0  0  0  0  0  0  0  0  0
  150.6699  134.8220  155.9522 C   0  0  2  0  0  0  0  0  0  0  0  0
  149.9844  135.0322  154.7597 O   0  0  0  0  0  0  0  0  0  0  0  0
  149.0464  133.9801  154.5232 C   0  0  2  0  0  0  0  0  0  0  0  0
  147.6533  134.6076  154.3834 C   0  0  0  0  0  0  0  0  0  0  0  0
  146.9449  133.9404  153.3502 O   0  0  0  0  0  0  0  0  0  0  0  0
  146.0526  134.6069  152.5891 C   0  0  0  0  0  0  0  0  0  0  0  0
  145.7644  135.7946  152.7511 O   0  0  0  0  0  0  0  0  0  0  0  0
  145.4475  133.7533  151.5266 C   0  0  0  0  0  0  0  0  0  0  0  0
  145.6626  132.3556  151.5543 C   0  0  0  0  0  0  0  0  0  0  0  0
  145.1034  131.5239  150.5646 C   0  0  0  0  0  0  0  0  0  0  0  0
  144.3213  132.0797  149.5355 C   0  0  0  0  0  0  0  0  0  0  0  0
  144.0991  133.4686  149.4971 C   0  0  0  0  0  0  0  0  0  0  0  0
  144.6577  134.3019  150.4858 C   0  0  0  0  0  0  0  0  0  0  0  0
  149.1383  133.0514  155.7409 C   0  0  1  0  0  0  0  0  0  0  0  0
  149.9980  131.9579  155.4673 O   0  0  0  0  0  0  0  0  0  0  0  0
  150.9485  131.6874  156.8152 S   0  0  0  0  0  0  0  0  0  0  0  0
  150.3845  130.5501  157.5578 O   0  0  0  0  0  0  0  0  0  0  0  0
  152.3591  131.7454  156.4029 O   0  0  0  0  0  0  0  0  0  0  0  0
  150.5875  133.0882  157.6523 O   0  0  0  0  0  0  0  0  0  0  0  0
  149.7979  133.9155  156.8166 C   0  0  1  0  0  0  0  0  0  0  0  0
  151.8232  142.7229  158.7248 C   0  0  0  0  0  0  0  0  0  0  0  0
  151.5226  144.0994  158.6154 C   0  0  0  0  0  0  0  0  0  0  0  0
  151.7078  144.9591  159.7156 C   0  0  0  0  0  0  0  0  0  0  0  0
  152.2035  144.4516  160.9313 C   0  0  0  0  0  0  0  0  0  0  0  0
  152.5161  143.0839  161.0456 C   0  0  0  0  0  0  0  0  0  0  0  0
  152.3304  142.2229  159.9465 C   0  0  0  0  0  0  0  0  0  0  0  0
  152.5961  140.2572  158.5703 H   0  0  0  0  0  0  0  0  0  0  0  0
  153.1370  138.7436  153.7260 H   0  0  0  0  0  0  0  0  0  0  0  0
  150.0112  135.8648  158.5596 H   0  0  0  0  0  0  0  0  0  0  0  0
  151.6586  134.4119  155.7417 H   0  0  0  0  0  0  0  0  0  0  0  0
  149.3056  133.4442  153.6092 H   0  0  0  0  0  0  0  0  0  0  0  0
  147.0944  134.5011  155.3134 H   0  0  0  0  0  0  0  0  0  0  0  0
  147.7499  135.6756  154.1872 H   0  0  0  0  0  0  0  0  0  0  0  0
  146.2599  131.9061  152.3345 H   0  0  0  0  0  0  0  0  0  0  0  0
  145.2759  130.4582  150.5954 H   0  0  0  0  0  0  0  0  0  0  0  0
  143.8923  131.4417  148.7770 H   0  0  0  0  0  0  0  0  0  0  0  0
  143.4992  133.8967  148.7077 H   0  0  0  0  0  0  0  0  0  0  0  0
  144.4663  135.3633  150.4271 H   0  0  0  0  0  0  0  0  0  0  0  0
  148.1699  132.6623  156.0579 H   0  0  0  0  0  0  0  0  0  0  0  0
  149.0598  134.4960  157.3715 H   0  0  0  0  0  0  0  0  0  0  0  0
  151.1424  144.5044  157.6884 H   0  0  0  0  0  0  0  0  0  0  0  0
  151.4712  146.0090  159.6253 H   0  0  0  0  0  0  0  0  0  0  0  0
  152.3471  145.1115  161.7742 H   0  0  0  0  0  0  0  0  0  0  0  0
  152.9022  142.6950  161.9762 H   0  0  0  0  0  0  0  0  0  0  0  0
  152.5864  141.1785  160.0526 H   0  0  0  0  0  0  0  0  0  0  0  0
  1  2  2  0  0  0  0
  2  3  1  0  0  0  0
  2 33  1  0  0  0  0
  3  4  1  0  0  0  0
  3 39  1  0  0  0  0
  4  9  1  0  0  0  0
  4  5  2  0  0  0  0
  5  6  1  0  0  0  0
  6  7  2  0  0  0  0
  6 40  1  0  0  0  0
  7  8  1  0  0  0  0
  8 12  1  0  0  0  0
  8  9  2  0  0  0  0
  9 10  1  0  0  0  0
 10 11  2  0  0  0  0
 11 12  1  0  0  0  0
 11 41  1  0  0  0  0
 12 13  1  0  0  0  0
 13 32  1  0  0  0  0
 13 14  1  0  0  0  0
 13 42  1  0  0  0  0
 14 15  1  0  0  0  0
 15 16  1  0  0  0  0
 15 26  1  0  0  0  0
 15 43  1  0  0  0  0
 16 17  1  0  0  0  0
 16 44  1  0  0  0  0
 16 45  1  0  0  0  0
 17 18  1  0  0  0  0
 18 19  2  0  0  0  0
 18 20  1  0  0  0  0
 20 25  1  0  0  0  0
 20 21  2  0  0  0  0
 21 22  1  0  0  0  0
 21 46  1  0  0  0  0
 22 23  2  0  0  0  0
 22 47  1  0  0  0  0
 23 24  1  0  0  0  0
 23 48  1  0  0  0  0
 24 25  2  0  0  0  0
 24 49  1  0  0  0  0
 25 50  1  0  0  0  0
 26 32  1  0  0  0  0
 26 27  1  0  0  0  0
 26 51  1  0  0  0  0
 27 28  1  0  0  0  0
 28 29  2  0  0  0  0
 28 30  2  0  0  0  0
 28 31  1  0  0  0  0
 31 32  1  0  0  0  0
 32 52  1  0  0  0  0
 33 38  1  0  0  0  0
 33 34  2  0  0  0  0
 34 35  1  0  0  0  0
 34 53  1  0  0  0  0
 35 36  2  0  0  0  0
 35 54  1  0  0  0  0
 36 37  1  0  0  0  0
 36 55  1  0  0  0  0
 37 38  2  0  0  0  0
 37 56  1  0  0  0  0
 38 57  1  0  0  0  0
M  END
> <s_m_source_file>
AV-unprocessed.smi

> <i_m_source_file_index>
1

> <i_lp_mmshare_version>
43012

> <i_f3d_flags>
0

> <s_epik_input>
W2NIXTFbY0hdW2NIXVtjSF1bY0hdYzFDKD1PKVtOSF1jKG5bY0hdbjIpYyhjMjMpbltjSF1uM1tDQEBIXShbQ0BIXShbQ0BIXTQ1KU9TKE81KSg9Tyk9TylPW0NASF00W0NIMl1PQyg9TyljNltjSF1bY0hdW2NIXVtjSF1bY0hdNg==

> <s_epik_cmdline>
J2VwaWtfcHl0aG9uJywgJy1waCcsICc3LjAnLCAnLXRuJywgJzgnLCAnLW1hJywgJzIwMCcsICctbWV0YWxfYmluZGluZycsICctaW1hZScsICc8aW5maWxlLm1hZT4nLCAnLW9tYWUnLCAnPG91dGZpbGUubWFlPic=

> <r_lp_tautomer_probability>
1

> <r_epik_Ionization_Penalty>
0.00195722

> <r_epik_Ionization_Penalty_Charging>
0

> <r_epik_Ionization_Penalty_Neutral>
0.00195722

> <r_epik_State_Penalty>
0.00633741

> <r_epik_Charging_Adjusted_Penalty>
0.00633741

> <i_epik_Tot_Q>
0

> <i_epik_Tot_abs_Q>
0

> <r_epik_Metal_State_Penalty>
0.341185

> <b_epik_Metal_Only>
0

> <s_epik_Chemistry_Notes>
This compound has an ester and may undergo hydrolysis at high or low pH. This compound contains an acetal/aminal-like group ( X-CH(R)-Y where X, Y are N, S, or O) that may be acid/base labile, releasing an aldehyde.

> <s_lp_Force_Field>
OPLS_2005

> <r_lp_Energy>
42.4074

> <b_lp_Chiralities_Consistent>
1

> <s_lp_Variant>
AV-unprocessed.smi:1-7

> <Gold.Version>
5.8.1

> <Gold.Id.Protein>
6NUR|6NUR_protein|mol2

> <Gold.PLP.Fitness>
62.4389

> <Gold.PLP.PLP>
-59.3809

> <Gold.PLP.part.hbond>
-3.1514

> <Gold.PLP.part.metal>
0.0000

> <Gold.PLP.part.buried>
-7.2822

> <Gold.PLP.part.nonpolar>
-49.5624

> <Gold.PLP.part.repulsive>
0.6637

> <Gold.PLP.ligand.clash>
0.0000

> <Gold.PLP.ligand.torsion>
1.4819

> <Gold.PLP.Chemscore.Hbond>
1.8000

> <Gold.PLP.Chemscore.CHOScore>
0.0000

> <Gold.PLP.Chemscore.Metal>
0.0000

> <Gold.Chemscore.Hbonds>
donor molecule, donor type, donor heavy atom, donor atom, acceptor molecule, acceptor atom, score
      P1  H  7997  8008       L1     5  1.00
      P1  H 10752 10764       L1     7  0.80

> <Gold.PLP.Chemscore.Internal.Correction>
0.6219

> <Gold.Rescore>
     Score         DG    S(hbond)    S(metal)    S(lipo)     H(rot)  DE(clash)    DE(int)     intcor
     17.14     -20.12       1.11        0.00     139.98       2.13       1.55       1.43       ----

> <Gold.Chemscore.Fitness>
17.1389

> <Gold.Chemscore.DG>
-20.1184

> <Gold.Chemscore.ZeroCoef>
-5.4800

> <Gold.Chemscore.Hbond>
1.1142

> <Gold.Chemscore.Metal>
0.0000

> <Gold.Chemscore.Lipo>
139.9845

> <Gold.Chemscore.Internal_Hbond>
0.0000

> <Gold.Chemscore.DEClash>
1.5508

> <Gold.Chemscore.DEInternal>
1.4286

> <Gold.Chemscore.Rot>
2.1333

> <Gold.Chemscore.Internal.Correction>
   9.000000E+99

> <Gold.Chemscore.Hbonds>
donor molecule, donor type, donor heavy atom, donor atom, acceptor molecule, acceptor atom, score
      P1  H  7997  8008       L1     5  0.42
      P1  H 10752 10764       L1     7  0.55

> <Gold.Chemscore.Hbond.Weighted>
-3.7216

> <Gold.Chemscore.Metal.Weighted>
-0.0000

> <Gold.Chemscore.Lipo.Weighted>
-16.3782

> <Gold.Chemscore.Internal_Hbond.Weighted>
0.0000

> <Gold.Chemscore.DEClash.Weighted>
1.5508

> <Gold.Chemscore.DEInternal.Weighted>
1.4286

> <Gold.Chemscore.Rot.Weighted>
5.4614

> <Gold.Chemscore.Internal.Correction.Weighted>
   9.000000E+99

> <Gold.Protein.RotatedTorsions>
[ 6907 6896 6895 6894 ] final -148.04 input  -60.11 | X-H torsion
[ 7974 7965 7964 7962 ] final -155.71 input  175.53 | X-H torsion
[ 8008 7997 7996 7995 ] final  -14.46 input   59.86 | X-H torsion
[ 10167 10162 10161 10158 ] final -144.54 input  -65.29 | X-H torsion
[ 10718 10713 10712 10709 ] final -131.27 input   66.30 | X-H torsion
[ 10763 10752 10751 10750 ] final  -74.51 input  -60.55 | X-H torsion
[ 11005 11000 10999 10996 ] final -156.42 input  -57.11 | X-H torsion

> <Gold.Protein.ActiveResidues>
 VAL166  LYS551  ARG553  GLY616  TRP617  ASP618  TYR619  PRO620  LYS621  CYS622 
 ASP623  PHE694  ASN695  SER759  ASP760  ASP761  ALA762  ILE779  LEU786  VAL792 
 PHE793  MET794  SER795  GLU796  ALA797  LYS798  CYS799  TRP800  GLU811  SER814 

> <Gold.Protein.RotatedAtoms>
  151.1642  133.4825  159.2593 H   0  0  0  0  0  0  0  0  0  0  0  0  # atno 6907 bound_to 6896
  151.1422  135.0185  159.8641 H   0  0  0  0  0  0  0  0  0  0  0  0  # atno 6908 bound_to 6896
  152.5462  134.1535  159.8581 H   0  0  0  0  0  0  0  0  0  0  0  0  # atno 6909 bound_to 6896
  144.7627  140.4211  143.5964 H   0  0  0  0  0  0  0  0  0  0  0  0  # atno 7974 bound_to 7965
  154.5208  140.2222  155.8979 H   0  0  0  0  0  0  0  0  0  0  0  0  # atno 8008 bound_to 7997
  156.1660  140.3132  155.8854 H   0  0  0  0  0  0  0  0  0  0  0  0  # atno 8009 bound_to 7997
  155.3655  140.0463  157.3036 H   0  0  0  0  0  0  0  0  0  0  0  0  # atno 8010 bound_to 7997
  139.7890  143.7993  152.2648 H   0  0  0  0  0  0  0  0  0  0  0  0  # atno 10167 bound_to 10162
  156.2228  130.6989  151.0774 H   0  0  0  0  0  0  0  0  0  0  0  0  # atno 10718 bound_to 10713
  154.4740  135.5862  153.6342 H   0  0  0  0  0  0  0  0  0  0  0  0  # atno 10763 bound_to 10752
  152.9838  135.6074  154.3330 H   0  0  0  0  0  0  0  0  0  0  0  0  # atno 10764 bound_to 10752
  154.3215  135.2843  155.2496 H   0  0  0  0  0  0  0  0  0  0  0  0  # atno 10765 bound_to 10752
  140.6757  134.4199  157.5229 H   0  0  0  0  0  0  0  0  0  0  0  0  # atno 11005 bound_to 11000
  145.6567  139.1574  143.2831 LP  0  0  0  0  0  0  0  0  0  0  0  0  # atno 17320 bound_to 7965
  146.1706  140.6651  142.9235 LP  0  0  0  0  0  0  0  0  0  0  0  0  # atno 17321 bound_to 7965
  139.8079  144.7348  150.9737 LP  0  0  0  0  0  0  0  0  0  0  0  0  # atno 17342 bound_to 10162
  140.7820  143.4280  151.0739 LP  0  0  0  0  0  0  0  0  0  0  0  0  # atno 17343 bound_to 10162
  157.7096  131.0740  150.6549 LP  0  0  0  0  0  0  0  0  0  0  0  0  # atno 17370 bound_to 10713
  156.6613  130.4513  149.5687 LP  0  0  0  0  0  0  0  0  0  0  0  0  # atno 17371 bound_to 10713
  139.8967  134.8653  156.2075 LP  0  0  0  0  0  0  0  0  0  0  0  0  # atno 17394 bound_to 11000
  141.0357  133.6964  156.1508 LP  0  0  0  0  0  0  0  0  0  0  0  0  # atno 17395 bound_to 11000

$$$$
