AV-unprocessed.smi:1572|AV-procd|sdf|6329|dock10
  -GOLD-   22720 6543D 1   1.00000     0.00000
 Structure written by MMmdl.
 42 43  0  0  0  0  0  0  0  0  1 V2000
  152.2994  142.3558  159.2263 C   0  0  0  0  0  0  0  0  0  0  0  0
  151.9386  141.5797  158.0501 N   0  0  0  0  0  0  0  0  0  0  0  0
  151.3145  140.3109  158.4128 C   0  0  0  0  0  0  0  0  0  0  0  0
  150.9493  139.4855  157.1651 C   0  0  0  0  0  0  0  0  0  0  0  0
  150.0334  140.2158  156.2736 N   0  0  0  0  0  0  0  0  0  0  0  0
  149.5355  139.4305  155.1090 C   0  0  0  0  0  0  0  0  0  0  0  0
  148.5963  140.2447  154.1863 C   0  0  0  0  0  0  0  0  0  0  0  0
  150.7109  138.9282  154.2321 C   0  0  0  0  0  0  0  0  0  0  0  0
  148.7485  138.1661  155.5639 C   0  0  0  0  0  0  0  0  0  0  0  0
  148.1294  137.4535  154.4461 N   0  0  0  0  0  0  0  0  0  0  0  0
  146.8641  137.0120  154.4032 C   0  0  0  0  0  0  0  0  0  0  0  0
  146.0673  137.1361  155.3336 O   0  0  0  0  0  0  0  0  0  0  0  0
  146.5928  136.4346  153.2195 N   0  0  0  0  0  0  0  0  0  0  0  0
  145.3728  135.8540  152.7827 C   0  0  0  0  0  0  0  0  0  0  0  0
  144.3464  135.5730  153.6012 N   0  0  0  0  0  0  0  0  0  0  0  0
  143.2764  135.0092  152.9185 N   0  0  0  0  0  0  0  0  0  0  0  0
  143.5372  134.8877  151.6138 C   0  0  0  0  0  0  0  0  0  0  0  0
  145.1160  135.4493  151.0912 S   0  0  0  0  0  0  0  0  0  0  0  0
  150.6639  141.5005  155.9267 C   0  0  0  0  0  0  0  0  0  0  0  0
  151.0284  142.3168  157.1796 C   0  0  0  0  0  0  0  0  0  0  0  0
  152.9971  141.8018  159.8553 H   0  0  0  0  0  0  0  0  0  0  0  0
  151.4201  142.5977  159.8248 H   0  0  0  0  0  0  0  0  0  0  0  0
  152.7824  143.2902  158.9387 H   0  0  0  0  0  0  0  0  0  0  0  0
  151.9941  139.7329  159.0401 H   0  0  0  0  0  0  0  0  0  0  0  0
  150.4176  140.4906  159.0080 H   0  0  0  0  0  0  0  0  0  0  0  0
  151.8632  139.2157  156.6357 H   0  0  0  0  0  0  0  0  0  0  0  0
  150.4970  138.5569  157.5084 H   0  0  0  0  0  0  0  0  0  0  0  0
  148.2612  139.6422  153.3412 H   0  0  0  0  0  0  0  0  0  0  0  0
  149.0875  141.1232  153.7687 H   0  0  0  0  0  0  0  0  0  0  0  0
  147.6992  140.5818  154.7051 H   0  0  0  0  0  0  0  0  0  0  0  0
  150.3747  138.2024  153.4904 H   0  0  0  0  0  0  0  0  0  0  0  0
  151.4843  138.4455  154.8307 H   0  0  0  0  0  0  0  0  0  0  0  0
  151.1843  139.7356  153.6736 H   0  0  0  0  0  0  0  0  0  0  0  0
  149.3996  137.4653  156.0854 H   0  0  0  0  0  0  0  0  0  0  0  0
  147.9982  138.4386  156.3084 H   0  0  0  0  0  0  0  0  0  0  0  0
  148.7069  137.3156  153.6298 H   0  0  0  0  0  0  0  0  0  0  0  0
  147.3466  136.4130  152.5491 H   0  0  0  0  0  0  0  0  0  0  0  0
  142.7943  134.4640  150.9544 H   0  0  0  0  0  0  0  0  0  0  0  0
  151.5648  141.3354  155.3354 H   0  0  0  0  0  0  0  0  0  0  0  0
  149.9963  142.1107  155.3217 H   0  0  0  0  0  0  0  0  0  0  0  0
  150.1194  142.5795  157.7231 H   0  0  0  0  0  0  0  0  0  0  0  0
  151.4916  143.2557  156.8743 H   0  0  0  0  0  0  0  0  0  0  0  0
  1  2  1  0  0  0  0
  1 21  1  0  0  0  0
  1 22  1  0  0  0  0
  1 23  1  0  0  0  0
  2 20  1  0  0  0  0
  2  3  1  0  0  0  0
  3  4  1  0  0  0  0
  3 24  1  0  0  0  0
  3 25  1  0  0  0  0
  4  5  1  0  0  0  0
  4 26  1  0  0  0  0
  4 27  1  0  0  0  0
  5  6  1  0  0  0  0
  5 19  1  0  0  0  0
  6  7  1  0  0  0  0
  6  8  1  0  0  0  0
  6  9  1  0  0  0  0
  7 28  1  0  0  0  0
  7 29  1  0  0  0  0
  7 30  1  0  0  0  0
  8 31  1  0  0  0  0
  8 32  1  0  0  0  0
  8 33  1  0  0  0  0
  9 10  1  0  0  0  0
  9 34  1  0  0  0  0
  9 35  1  0  0  0  0
 10 11  1  0  0  0  0
 10 36  1  0  0  0  0
 11 12  2  0  0  0  0
 11 13  1  0  0  0  0
 13 14  1  0  0  0  0
 13 37  1  0  0  0  0
 14 18  1  0  0  0  0
 14 15  2  0  0  0  0
 15 16  1  0  0  0  0
 16 17  2  0  0  0  0
 17 18  1  0  0  0  0
 17 38  1  0  0  0  0
 19 20  1  0  0  0  0
 19 39  1  0  0  0  0
 19 40  1  0  0  0  0
 20 41  1  0  0  0  0
 20 42  1  0  0  0  0
M  END
> <s_m_source_file>
AV-unprocessed.smi

> <i_m_source_file_index>
1572

> <i_lp_mmshare_version>
43012

> <i_f3d_flags>
0

> <s_epik_input>
W0NIM11OMVtDSDJdW0NIMl1OKFtDSDJdW0NIMl0xKUMoW0NIM10pKFtDSDNdKVtDSDJdW05IXUMoPU8pW05IXWMybm5bY0hdczI=

> <s_epik_cmdline>
J2VwaWtfcHl0aG9uJywgJy1waCcsICc3LjAnLCAnLXRuJywgJzgnLCAnLW1hJywgJzIwMCcsICctbWV0YWxfYmluZGluZycsICctaW1hZScsICc8aW5maWxlLm1hZT4nLCAnLW9tYWUnLCAnPG91dGZpbGUubWFlPic=

> <r_lp_tautomer_probability>
1

> <r_epik_Ionization_Penalty>
3.01909

> <r_epik_Ionization_Penalty_Charging>
0

> <r_epik_Ionization_Penalty_Neutral>
3.01909

> <r_epik_State_Penalty>
2.1369

> <r_epik_Charging_Adjusted_Penalty>
2.1369

> <i_epik_Tot_Q>
0

> <i_epik_Tot_abs_Q>
0

> <r_epik_Metal_State_Penalty>
2.47072

> <b_epik_Metal_Only>
0

> <s_lp_Force_Field>
OPLS_2005

> <r_lp_Energy>
48.823

> <b_lp_Chiralities_Consistent>
1

> <s_lp_Variant>
AV-unprocessed.smi:1572-3

> <Gold.Version>
5.8.1

> <Gold.Id.Protein>
6NUR|6NUR_protein|mol2

> <Gold.PLP.Fitness>
35.2095

> <Gold.PLP.PLP>
-26.9737

> <Gold.PLP.part.hbond>
-2.0000

> <Gold.PLP.part.metal>
0.0000

> <Gold.PLP.part.buried>
-3.3328

> <Gold.PLP.part.nonpolar>
-21.4166

> <Gold.PLP.part.repulsive>
0.2144

> <Gold.PLP.ligand.clash>
0.0000

> <Gold.PLP.ligand.torsion>
0.1900

> <Gold.PLP.Chemscore.Hbond>
1.8564

> <Gold.PLP.Chemscore.CHOScore>
1.0000

> <Gold.PLP.Chemscore.Metal>
0.0000

> <Gold.Chemscore.Hbonds>
donor molecule, donor type, donor heavy atom, donor atom, acceptor molecule, acceptor atom, score
      L1  H    10    36       P1  7948  0.81
      L1  H    13    37       P1  7948  1.00
      L1  C    17    38       P1 10186  0.93

> <Gold.PLP.Chemscore.Internal.Correction>
0.0464

> <Gold.Rescore>
     Score         DG    S(hbond)    S(metal)    S(lipo)     H(rot)  DE(clash)    DE(int)     intcor
     14.11     -15.57       1.92        0.00      67.70       1.66       0.04       1.41       ----

> <Gold.Chemscore.Fitness>
14.1139

> <Gold.Chemscore.DG>
-15.5696

> <Gold.Chemscore.ZeroCoef>
-5.4800

> <Gold.Chemscore.Hbond>
1.9208

> <Gold.Chemscore.Metal>
0.0000

> <Gold.Chemscore.Lipo>
67.7020

> <Gold.Chemscore.Internal_Hbond>
0.0000

> <Gold.Chemscore.DEClash>
0.0425

> <Gold.Chemscore.DEInternal>
1.4132

> <Gold.Chemscore.Rot>
1.6590

> <Gold.Chemscore.Internal.Correction>
   9.000000E+99

> <Gold.Chemscore.Hbonds>
donor molecule, donor type, donor heavy atom, donor atom, acceptor molecule, acceptor atom, score
      L1  H    10    36       P1  7948  0.77
      L1  H    13    37       P1  7948  1.00

> <Gold.Chemscore.Hbond.Weighted>
-6.4154

> <Gold.Chemscore.Metal.Weighted>
-0.0000

> <Gold.Chemscore.Lipo.Weighted>
-7.9211

> <Gold.Chemscore.Internal_Hbond.Weighted>
0.0000

> <Gold.Chemscore.DEClash.Weighted>
0.0425

> <Gold.Chemscore.DEInternal.Weighted>
1.4132

> <Gold.Chemscore.Rot.Weighted>
4.2469

> <Gold.Chemscore.Internal.Correction.Weighted>
   9.000000E+99

> <Gold.Protein.RotatedTorsions>
[ 6907 6896 6895 6894 ] final   18.10 input  -60.11 | X-H torsion
[ 7974 7965 7964 7962 ] final -134.81 input  175.53 | X-H torsion
[ 8008 7997 7996 7995 ] final -129.29 input   59.86 | X-H torsion
[ 10167 10162 10161 10158 ] final   25.39 input  -65.29 | X-H torsion
[ 10718 10713 10712 10709 ] final  -27.51 input   66.30 | X-H torsion
[ 10763 10752 10751 10750 ] final  -25.51 input  -60.55 | X-H torsion
[ 11005 11000 10999 10996 ] final  106.12 input  -57.11 | X-H torsion

> <Gold.Protein.ActiveResidues>
 VAL166  LYS551  ARG553  GLY616  TRP617  ASP618  TYR619  PRO620  LYS621  CYS622 
 ASP623  PHE694  ASN695  SER759  ASP760  ASP761  ALA762  ILE779  LEU786  VAL792 
 PHE793  MET794  SER795  GLU796  ALA797  LYS798  CYS799  TRP800  GLU811  SER814 

> <Gold.Protein.RotatedAtoms>
  151.8600  135.0527  160.0468 H   0  0  0  0  0  0  0  0  0  0  0  0  # atno 6907 bound_to 6896
  152.2670  133.5344  159.5424 H   0  0  0  0  0  0  0  0  0  0  0  0  # atno 6908 bound_to 6896
  150.7137  134.0666  159.3892 H   0  0  0  0  0  0  0  0  0  0  0  0  # atno 6909 bound_to 6896
  144.9069  140.6845  143.5049 H   0  0  0  0  0  0  0  0  0  0  0  0  # atno 7974 bound_to 7965
  155.2768  140.0442  157.3012 H   0  0  0  0  0  0  0  0  0  0  0  0  # atno 8008 bound_to 7997
  154.5621  140.2349  155.8288 H   0  0  0  0  0  0  0  0  0  0  0  0  # atno 8009 bound_to 7997
  156.2055  140.3013  155.9626 H   0  0  0  0  0  0  0  0  0  0  0  0  # atno 8010 bound_to 7997
  140.5110  144.0160  150.6372 H   0  0  0  0  0  0  0  0  0  0  0  0  # atno 10167 bound_to 10162
  156.4372  130.4457  149.7077 H   0  0  0  0  0  0  0  0  0  0  0  0  # atno 10718 bound_to 10713
  153.7011  135.6956  153.5063 H   0  0  0  0  0  0  0  0  0  0  0  0  # atno 10763 bound_to 10752
  153.2342  135.4327  155.0627 H   0  0  0  0  0  0  0  0  0  0  0  0  # atno 10764 bound_to 10752
  154.8344  135.3491  154.6550 H   0  0  0  0  0  0  0  0  0  0  0  0  # atno 10765 bound_to 10752
  139.8810  134.9358  156.5618 H   0  0  0  0  0  0  0  0  0  0  0  0  # atno 11005 bound_to 11000
  145.3520  139.1704  143.4430 LP  0  0  0  0  0  0  0  0  0  0  0  0  # atno 17320 bound_to 7965
  146.3138  140.3572  142.8661 LP  0  0  0  0  0  0  0  0  0  0  0  0  # atno 17321 bound_to 7965
  140.3483  143.2978  152.0514 LP  0  0  0  0  0  0  0  0  0  0  0  0  # atno 17342 bound_to 10162
  139.4896  144.6392  151.6911 LP  0  0  0  0  0  0  0  0  0  0  0  0  # atno 17343 bound_to 10162
  156.3957  130.7649  151.2653 LP  0  0  0  0  0  0  0  0  0  0  0  0  # atno 17370 bound_to 10713
  157.7507  131.0255  150.3921 LP  0  0  0  0  0  0  0  0  0  0  0  0  # atno 17371 bound_to 10713
  140.8164  133.8388  155.8856 LP  0  0  0  0  0  0  0  0  0  0  0  0  # atno 17394 bound_to 11000
  140.9459  134.1841  157.4764 LP  0  0  0  0  0  0  0  0  0  0  0  0  # atno 17395 bound_to 11000

$$$$
