AV-unprocessed.smi:1955|AV-procd|sdf|7899|dock3
  -GOLD-   2272010 53D 1   1.00000     0.00000
 Structure written by MMmdl.
 34 35  0  0  0  0  0  0  0  0  1 V2000
  150.1508  140.8375  157.4946 O   0  0  0  0  0  0  0  0  0  0  0  0
  149.8808  141.9710  157.0959 C   0  0  0  0  0  0  0  0  0  0  0  0
  150.2765  143.1163  157.6790 N   0  0  0  0  0  0  0  0  0  0  0  0
  151.0705  143.2799  158.8453 C   0  0  0  0  0  0  0  0  0  0  0  0
  151.1174  144.5965  159.3570 C   0  0  0  0  0  0  0  0  0  0  0  0
  151.8774  144.8642  160.5121 C   0  0  0  0  0  0  0  0  0  0  0  0
  152.5740  143.8076  161.1250 C   0  0  0  0  0  0  0  0  0  0  0  0
  152.4752  142.5269  160.5507 C   0  0  0  0  0  0  0  0  0  0  0  0
  151.7460  142.2677  159.4450 N   0  0  0  0  0  0  0  0  0  0  0  0
  149.1356  142.2148  156.0078 N   0  0  0  0  0  0  0  0  0  0  0  0
  148.5464  141.2027  155.1292 C   0  0  1  0  0  0  0  0  0  0  0  0
  147.8145  141.8848  153.9514 C   0  0  0  0  0  0  0  0  0  0  0  0
  146.7368  141.0090  153.2922 C   0  0  0  0  0  0  0  0  0  0  0  0
  147.2626  139.7254  152.6327 C   0  0  0  0  0  0  0  0  0  0  0  0
  147.8597  138.7194  153.6313 C   0  0  0  0  0  0  0  0  0  0  0  0
  149.2151  139.0700  154.0371 N   0  0  0  0  0  0  0  0  0  0  0  0
  149.6050  140.1681  154.7025 C   0  0  0  0  0  0  0  0  0  0  0  0
  150.7943  140.3503  154.9624 O   0  0  0  0  0  0  0  0  0  0  0  0
  149.9696  143.9717  157.2402 H   0  0  0  0  0  0  0  0  0  0  0  0
  150.5771  145.3971  158.8728 H   0  0  0  0  0  0  0  0  0  0  0  0
  151.9248  145.8634  160.9194 H   0  0  0  0  0  0  0  0  0  0  0  0
  153.1686  143.9739  162.0110 H   0  0  0  0  0  0  0  0  0  0  0  0
  152.9950  141.6884  160.9900 H   0  0  0  0  0  0  0  0  0  0  0  0
  148.9721  143.1773  155.7505 H   0  0  0  0  0  0  0  0  0  0  0  0
  147.8106  140.6567  155.7229 H   0  0  0  0  0  0  0  0  0  0  0  0
  147.3209  142.7912  154.3045 H   0  0  0  0  0  0  0  0  0  0  0  0
  148.5361  142.2164  153.2035 H   0  0  0  0  0  0  0  0  0  0  0  0
  145.9755  140.7532  154.0302 H   0  0  0  0  0  0  0  0  0  0  0  0
  146.2259  141.6035  152.5342 H   0  0  0  0  0  0  0  0  0  0  0  0
  146.4273  139.2446  152.1224 H   0  0  0  0  0  0  0  0  0  0  0  0
  147.9884  139.9660  151.8545 H   0  0  0  0  0  0  0  0  0  0  0  0
  147.2179  138.6030  154.5058 H   0  0  0  0  0  0  0  0  0  0  0  0
  147.9137  137.7382  153.1593 H   0  0  0  0  0  0  0  0  0  0  0  0
  149.9379  138.4145  153.7775 H   0  0  0  0  0  0  0  0  0  0  0  0
  1  2  2  0  0  0  0
  2  3  1  0  0  0  0
  2 10  1  0  0  0  0
  3  4  1  0  0  0  0
  3 19  1  0  0  0  0
  4  9  1  0  0  0  0
  4  5  2  0  0  0  0
  5  6  1  0  0  0  0
  5 20  1  0  0  0  0
  6  7  2  0  0  0  0
  6 21  1  0  0  0  0
  7  8  1  0  0  0  0
  7 22  1  0  0  0  0
  8  9  2  0  0  0  0
  8 23  1  0  0  0  0
 10 11  1  0  0  0  0
 10 24  1  0  0  0  0
 11 17  1  0  0  0  0
 11 12  1  0  0  0  0
 11 25  1  0  0  0  0
 12 13  1  0  0  0  0
 12 26  1  0  0  0  0
 12 27  1  0  0  0  0
 13 14  1  0  0  0  0
 13 28  1  0  0  0  0
 13 29  1  0  0  0  0
 14 15  1  0  0  0  0
 14 30  1  0  0  0  0
 14 31  1  0  0  0  0
 15 16  1  0  0  0  0
 15 32  1  0  0  0  0
 15 33  1  0  0  0  0
 16 17  1  0  0  0  0
 16 34  1  0  0  0  0
 17 18  2  0  0  0  0
M  END
> <s_m_source_file>
AV-unprocessed.smi

> <i_m_source_file_index>
1955

> <i_lp_mmshare_version>
43012

> <i_f3d_flags>
0

> <s_epik_input>
bjFbY0hdW2NIXVtjSF1bY0hdYzFbTkhdQyg9TylbTkhdW0NAQEhdMltDSDJdW0NIMl1bQ0gyXVtDSDJdW05IXUMyPU8=

> <s_epik_cmdline>
J2VwaWtfcHl0aG9uJywgJy1waCcsICc3LjAnLCAnLXRuJywgJzgnLCAnLW1hJywgJzIwMCcsICctbWV0YWxfYmluZGluZycsICctaW1hZScsICc8aW5maWxlLm1hZT4nLCAnLW9tYWUnLCAnPG91dGZpbGUubWFlPic=

> <r_lp_tautomer_probability>
1

> <r_epik_Ionization_Penalty>
4.19487e-05

> <r_epik_Ionization_Penalty_Charging>
0

> <r_epik_Ionization_Penalty_Neutral>
4.19487e-05

> <r_epik_State_Penalty>
-0

> <r_epik_Charging_Adjusted_Penalty>
0

> <i_epik_Tot_Q>
0

> <i_epik_Tot_abs_Q>
0

> <r_epik_Metal_State_Penalty>
-0

> <b_epik_Metal_Only>
0

> <s_lp_Force_Field>
OPLS_2005

> <r_lp_Energy>
12.4575

> <b_lp_Chiralities_Consistent>
1

> <s_lp_Variant>
AV-unprocessed.smi:1955-2

> <Gold.Version>
5.8.1

> <Gold.Id.Protein>
6NUR|6NUR_protein|mol2

> <Gold.PLP.Fitness>
43.3067

> <Gold.PLP.PLP>
-34.7484

> <Gold.PLP.part.hbond>
-3.9079

> <Gold.PLP.part.metal>
0.0000

> <Gold.PLP.part.buried>
-2.2271

> <Gold.PLP.part.nonpolar>
-28.9264

> <Gold.PLP.part.repulsive>
0.2749

> <Gold.PLP.ligand.clash>
0.0000

> <Gold.PLP.ligand.torsion>
0.0783

> <Gold.PLP.Chemscore.Hbond>
2.8960

> <Gold.PLP.Chemscore.CHOScore>
0.0000

> <Gold.PLP.Chemscore.Metal>
0.0000

> <Gold.Chemscore.Hbonds>
donor molecule, donor type, donor heavy atom, donor atom, acceptor molecule, acceptor atom, score
      L1  H     3    19       P1  8028  0.89
      L1  H    10    24       P1  8028  1.00
      P1  H  7989  7998       L1    18  1.00

> <Gold.PLP.Chemscore.Internal.Correction>
0.0269

> <Gold.Rescore>
     Score         DG    S(hbond)    S(metal)    S(lipo)     H(rot)  DE(clash)    DE(int)     intcor
     15.79     -21.68       2.87        0.00      78.36       1.00       0.43       5.45       ----

> <Gold.Chemscore.Fitness>
15.7915

> <Gold.Chemscore.DG>
-21.6772

> <Gold.Chemscore.ZeroCoef>
-5.4800

> <Gold.Chemscore.Hbond>
2.8711

> <Gold.Chemscore.Metal>
0.0000

> <Gold.Chemscore.Lipo>
78.3565

> <Gold.Chemscore.Internal_Hbond>
0.0000

> <Gold.Chemscore.DEClash>
0.4311

> <Gold.Chemscore.DEInternal>
5.4545

> <Gold.Chemscore.Rot>
1.0000

> <Gold.Chemscore.Internal.Correction>
   9.000000E+99

> <Gold.Chemscore.Hbonds>
donor molecule, donor type, donor heavy atom, donor atom, acceptor molecule, acceptor atom, score
      L1  H     3    19       P1  8028  0.67
      L1  H    10    24       P1  8028  0.94
      P1  H  7989  7998       L1    18  0.69

> <Gold.Chemscore.Hbond.Weighted>
-9.5895

> <Gold.Chemscore.Metal.Weighted>
-0.0000

> <Gold.Chemscore.Lipo.Weighted>
-9.1677

> <Gold.Chemscore.Internal_Hbond.Weighted>
0.0000

> <Gold.Chemscore.DEClash.Weighted>
0.4311

> <Gold.Chemscore.DEInternal.Weighted>
5.4545

> <Gold.Chemscore.Rot.Weighted>
2.5600

> <Gold.Chemscore.Internal.Correction.Weighted>
   9.000000E+99

> <Gold.Protein.RotatedTorsions>
[ 6907 6896 6895 6894 ] final  -29.08 input  -60.11 | X-H torsion
[ 7974 7965 7964 7962 ] final -148.19 input  175.53 | X-H torsion
[ 8008 7997 7996 7995 ] final  -61.13 input   59.86 | X-H torsion
[ 10167 10162 10161 10158 ] final   53.55 input  -65.29 | X-H torsion
[ 10718 10713 10712 10709 ] final  -31.34 input   66.30 | X-H torsion
[ 10763 10752 10751 10750 ] final  121.06 input  -60.55 | X-H torsion
[ 11005 11000 10999 10996 ] final  -53.75 input  -57.11 | X-H torsion

> <Gold.Protein.ActiveResidues>
 VAL166  LYS551  ARG553  GLY616  TRP617  ASP618  TYR619  PRO620  LYS621  CYS622 
 ASP623  PHE694  ASN695  SER759  ASP760  ASP761  ALA762  ILE779  LEU786  VAL792 
 PHE793  MET794  SER795  GLU796  ALA797  LYS798  CYS799  TRP800  GLU811  SER814 

> <Gold.Protein.RotatedAtoms>
  151.1241  135.0095  159.8552 H   0  0  0  0  0  0  0  0  0  0  0  0  # atno 6907 bound_to 6896
  152.5449  134.1687  159.8598 H   0  0  0  0  0  0  0  0  0  0  0  0  # atno 6908 bound_to 6896
  151.1748  133.4717  159.2627 H   0  0  0  0  0  0  0  0  0  0  0  0  # atno 6909 bound_to 6896
  144.8045  140.5228  143.5684 H   0  0  0  0  0  0  0  0  0  0  0  0  # atno 7974 bound_to 7965
  154.4432  140.1024  156.6383 H   0  0  0  0  0  0  0  0  0  0  0  0  # atno 8008 bound_to 7997
  155.5530  140.3486  155.4454 H   0  0  0  0  0  0  0  0  0  0  0  0  # atno 8009 bound_to 7997
  156.0515  140.1305  157.0034 H   0  0  0  0  0  0  0  0  0  0  0  0  # atno 8010 bound_to 7997
  140.2396  144.3598  150.6385 H   0  0  0  0  0  0  0  0  0  0  0  0  # atno 10167 bound_to 10162
  156.3885  130.4368  149.7413 H   0  0  0  0  0  0  0  0  0  0  0  0  # atno 10718 bound_to 10713
  153.6082  135.3435  155.2969 H   0  0  0  0  0  0  0  0  0  0  0  0  # atno 10763 bound_to 10752
  154.8623  135.4244  154.2338 H   0  0  0  0  0  0  0  0  0  0  0  0  # atno 10764 bound_to 10752
  153.3183  135.7036  153.7125 H   0  0  0  0  0  0  0  0  0  0  0  0  # atno 10765 bound_to 10752
  141.0991  133.6620  156.4218 H   0  0  0  0  0  0  0  0  0  0  0  0  # atno 11005 bound_to 11000
  145.5472  139.1476  143.3414 LP  0  0  0  0  0  0  0  0  0  0  0  0  # atno 17320 bound_to 7965
  146.2333  140.5611  142.8966 LP  0  0  0  0  0  0  0  0  0  0  0  0  # atno 17321 bound_to 7965
  140.6124  143.2170  151.6860 LP  0  0  0  0  0  0  0  0  0  0  0  0  # atno 17342 bound_to 10162
  139.5082  144.3620  152.0553 LP  0  0  0  0  0  0  0  0  0  0  0  0  # atno 17343 bound_to 10162
  156.4475  130.7891  151.2912 LP  0  0  0  0  0  0  0  0  0  0  0  0  # atno 17370 bound_to 10713
  157.7497  131.0105  150.3311 LP  0  0  0  0  0  0  0  0  0  0  0  0  # atno 17371 bound_to 10713
  140.5066  134.6435  157.5268 LP  0  0  0  0  0  0  0  0  0  0  0  0  # atno 17394 bound_to 11000
  139.9837  134.7096  155.9812 LP  0  0  0  0  0  0  0  0  0  0  0  0  # atno 17395 bound_to 11000

$$$$
