AV-unprocessed.smi:2683|AV-procd|sdf|10376|dock6
  -GOLD-   2272014403D 1   1.00000     0.00000
 Structure written by MMmdl.
 37 38  0  0  0  0  0  0  0  0  2 V2000
  149.0231  141.3377  156.4643 C   0  0  0  0  0  0  0  0  0  0  0  0
  150.3651  142.0398  156.2165 C   0  0  2  0  0  0  0  0  0  0  0  0
  151.5198  141.0166  156.1908 C   0  0  0  0  0  0  0  0  0  0  0  0
  151.1639  139.7800  155.5190 N   0  0  0  0  0  0  0  0  0  0  0  0
  151.3019  138.4858  155.9750 C   0  0  0  0  0  0  0  0  0  0  0  0
  150.8217  137.6593  154.9999 C   0  0  0  0  0  0  0  0  0  0  0  0
  150.4101  138.5522  153.9711 C   0  0  0  0  0  0  0  0  0  0  0  0
  150.6149  139.8213  154.2856 N   0  0  0  0  0  0  0  0  0  0  0  0
  150.5813  143.0654  157.2622 N   0  3  0  0  0  0  0  0  0  0  0  0
  151.8786  143.7696  157.1897 C   0  0  0  0  0  0  0  0  0  0  0  0
  152.5236  143.8873  158.5793 C   0  0  0  0  0  0  0  0  0  0  0  0
  152.7908  142.5425  159.2657 C   0  0  0  0  0  0  0  0  0  0  0  0
  152.8619  142.8512  160.7671 C   0  0  0  0  0  0  0  0  0  0  0  0
  152.2378  144.2422  160.9547 C   0  0  0  0  0  0  0  0  0  0  0  0
  151.6512  144.6270  159.5947 C   0  0  0  0  0  0  0  0  0  0  0  0
  148.8195  140.5964  155.6911 H   0  0  0  0  0  0  0  0  0  0  0  0
  148.1985  142.0516  156.4582 H   0  0  0  0  0  0  0  0  0  0  0  0
  149.0134  140.8249  157.4270 H   0  0  0  0  0  0  0  0  0  0  0  0
  150.3007  142.5258  155.2412 H   0  0  0  0  0  0  0  0  0  0  0  0
  152.4012  141.4429  155.7084 H   0  0  0  0  0  0  0  0  0  0  0  0
  151.8180  140.7660  157.2097 H   0  0  0  0  0  0  0  0  0  0  0  0
  151.7236  138.2631  156.9444 H   0  0  0  0  0  0  0  0  0  0  0  0
  150.7739  136.5804  155.0171 H   0  0  0  0  0  0  0  0  0  0  0  0
  149.9707  138.3176  153.0128 H   0  0  0  0  0  0  0  0  0  0  0  0
  149.8539  143.7606  157.1763 H   0  0  0  0  0  0  0  0  0  0  0  0
  152.5486  143.2245  156.5251 H   0  0  0  0  0  0  0  0  0  0  0  0
  151.7328  144.7579  156.7514 H   0  0  0  0  0  0  0  0  0  0  0  0
  153.4673  144.4292  158.4923 H   0  0  0  0  0  0  0  0  0  0  0  0
  151.9620  141.8578  159.0797 H   0  0  0  0  0  0  0  0  0  0  0  0
  153.6995  142.0633  158.8995 H   0  0  0  0  0  0  0  0  0  0  0  0
  152.3290  142.0938  161.3431 H   0  0  0  0  0  0  0  0  0  0  0  0
  153.8963  142.8538  161.1131 H   0  0  0  0  0  0  0  0  0  0  0  0
  151.4832  144.2552  161.7416 H   0  0  0  0  0  0  0  0  0  0  0  0
  153.0145  144.9547  161.2352 H   0  0  0  0  0  0  0  0  0  0  0  0
  151.6433  145.7055  159.4349 H   0  0  0  0  0  0  0  0  0  0  0  0
  150.6206  144.2744  159.5298 H   0  0  0  0  0  0  0  0  0  0  0  0
  150.4966  142.6237  158.1670 H   0  0  0  0  0  0  0  0  0  0  0  0
  1  2  1  0  0  0  0
  1 16  1  0  0  0  0
  1 17  1  0  0  0  0
  1 18  1  0  0  0  0
  2  3  1  0  0  0  0
  2  9  1  0  0  0  0
  2 19  1  0  0  0  0
  3  4  1  0  0  0  0
  3 20  1  0  0  0  0
  3 21  1  0  0  0  0
  4  8  1  0  0  0  0
  4  5  1  0  0  0  0
  5  6  2  0  0  0  0
  5 22  1  0  0  0  0
  6  7  1  0  0  0  0
  6 23  1  0  0  0  0
  7  8  2  0  0  0  0
  7 24  1  0  0  0  0
  9 10  1  0  0  0  0
  9 25  1  0  0  0  0
  9 37  1  0  0  0  0
 10 11  1  0  0  0  0
 10 26  1  0  0  0  0
 10 27  1  0  0  0  0
 11 15  1  0  0  0  0
 11 12  1  0  0  0  0
 11 28  1  0  0  0  0
 12 13  1  0  0  0  0
 12 29  1  0  0  0  0
 12 30  1  0  0  0  0
 13 14  1  0  0  0  0
 13 31  1  0  0  0  0
 13 32  1  0  0  0  0
 14 15  1  0  0  0  0
 14 33  1  0  0  0  0
 14 34  1  0  0  0  0
 15 35  1  0  0  0  0
 15 36  1  0  0  0  0
M  CHG  1   9   1
M  END
> <s_m_source_file>
AV-unprocessed.smi

> <i_m_source_file_index>
2683

> <i_lp_mmshare_version>
43012

> <i_f3d_flags>
0

> <s_epik_input>
bjFbY0hdW2NIXVtjSF1uMVtDSDJdW0NAQEhdKFtDSDNdKVtOSF1bQ0gyXVtDSF0yW0NIMl1bQ0gyXVtDSDJdW0NIMl0y

> <s_epik_cmdline>
J2VwaWtfcHl0aG9uJywgJy1waCcsICc3LjAnLCAnLXRuJywgJzgnLCAnLW1hJywgJzIwMCcsICctbWV0YWxfYmluZGluZycsICctaW1hZScsICc8aW5maWxlLm1hZT4nLCAnLW9tYWUnLCAnPG91dGZpbGUubWFlPic=

> <r_lp_tautomer_probability>
1

> <r_epik_Ionization_Penalty>
0.00170049

> <r_epik_Ionization_Penalty_Charging>
0.00169627

> <r_epik_Ionization_Penalty_Neutral>
4.21324e-06

> <r_epik_State_Penalty>
0.00114589

> <r_epik_Charging_Adjusted_Penalty>
0.00284216

> <i_epik_Tot_Q>
1

> <i_epik_Tot_abs_Q>
1

> <r_epik_Metal_State_Penalty>
-0

> <b_epik_Metal_Only>
0

> <s_lp_Force_Field>
OPLS_2005

> <r_lp_Energy>
26.6693

> <b_lp_Chiralities_Consistent>
1

> <s_lp_Variant>
AV-unprocessed.smi:2683-1

> <Gold.Version>
5.8.1

> <Gold.Id.Protein>
6NUR|6NUR_protein|mol2

> <Gold.PLP.Fitness>
49.9709

> <Gold.PLP.PLP>
-38.1280

> <Gold.PLP.part.hbond>
-2.0000

> <Gold.PLP.part.metal>
0.0000

> <Gold.PLP.part.buried>
-4.0954

> <Gold.PLP.part.nonpolar>
-32.3032

> <Gold.PLP.part.repulsive>
0.1364

> <Gold.PLP.ligand.clash>
0.0000

> <Gold.PLP.ligand.torsion>
0.5894

> <Gold.PLP.Chemscore.Hbond>
2.5040

> <Gold.PLP.Chemscore.CHOScore>
1.8252

> <Gold.PLP.Chemscore.Metal>
0.0000

> <Gold.Chemscore.Hbonds>
donor molecule, donor type, donor heavy atom, donor atom, acceptor molecule, acceptor atom, score
      L1  H     9    25       P1  8028  1.50
      P1  H  7989  7998       L1     8  1.00
      L1  C     7    24       P1  7948  0.97
      L1  C     7    24       P1  7957  0.88

> <Gold.PLP.Chemscore.Internal.Correction>
0.0339

> <Gold.Rescore>
     Score         DG    S(hbond)    S(metal)    S(lipo)     H(rot)  DE(clash)    DE(int)     intcor
     20.10     -20.72       1.90        0.00     110.05       1.55       0.05       0.56       ----

> <Gold.Chemscore.Fitness>
20.1036

> <Gold.Chemscore.DG>
-20.7198

> <Gold.Chemscore.ZeroCoef>
-5.4800

> <Gold.Chemscore.Hbond>
1.8990

> <Gold.Chemscore.Metal>
0.0000

> <Gold.Chemscore.Lipo>
110.0508

> <Gold.Chemscore.Internal_Hbond>
0.0000

> <Gold.Chemscore.DEClash>
0.0544

> <Gold.Chemscore.DEInternal>
0.5618

> <Gold.Chemscore.Rot>
1.5543

> <Gold.Chemscore.Internal.Correction>
   9.000000E+99

> <Gold.Chemscore.Hbonds>
donor molecule, donor type, donor heavy atom, donor atom, acceptor molecule, acceptor atom, score
      L1  H     9    25       P1  8028  0.64
      P1  H  7989  7998       L1     8  0.35

> <Gold.Chemscore.Hbond.Weighted>
-6.3428

> <Gold.Chemscore.Metal.Weighted>
-0.0000

> <Gold.Chemscore.Lipo.Weighted>
-12.8759

> <Gold.Chemscore.Internal_Hbond.Weighted>
0.0000

> <Gold.Chemscore.DEClash.Weighted>
0.0544

> <Gold.Chemscore.DEInternal.Weighted>
0.5618

> <Gold.Chemscore.Rot.Weighted>
3.9789

> <Gold.Chemscore.Internal.Correction.Weighted>
   9.000000E+99

> <Gold.Protein.RotatedTorsions>
[ 6907 6896 6895 6894 ] final -151.83 input  -60.11 | X-H torsion
[ 7974 7965 7964 7962 ] final   -8.39 input  175.53 | X-H torsion
[ 8008 7997 7996 7995 ] final -168.51 input   59.86 | X-H torsion
[ 10167 10162 10161 10158 ] final   -5.29 input  -65.29 | X-H torsion
[ 10718 10713 10712 10709 ] final  171.54 input   66.30 | X-H torsion
[ 10763 10752 10751 10750 ] final  -19.48 input  -60.55 | X-H torsion
[ 11005 11000 10999 10996 ] final  142.29 input  -57.11 | X-H torsion

> <Gold.Protein.ActiveResidues>
 VAL166  LYS551  ARG553  GLY616  TRP617  ASP618  TYR619  PRO620  LYS621  CYS622 
 ASP623  PHE694  ASN695  SER759  ASP760  ASP761  ALA762  ILE779  LEU786  VAL792 
 PHE793  MET794  SER795  GLU796  ALA797  LYS798  CYS799  TRP800  GLU811  SER814 

> <Gold.Protein.RotatedAtoms>
  151.2188  133.4514  159.2599 H   0  0  0  0  0  0  0  0  0  0  0  0  # atno 6907 bound_to 6896
  151.0905  134.9913  159.8410 H   0  0  0  0  0  0  0  0  0  0  0  0  # atno 6908 bound_to 6896
  152.5434  134.2122  159.8807 H   0  0  0  0  0  0  0  0  0  0  0  0  # atno 6909 bound_to 6896
  146.2282  140.2461  142.8345 H   0  0  0  0  0  0  0  0  0  0  0  0  # atno 7974 bound_to 7965
  155.8923  140.1027  157.1409 H   0  0  0  0  0  0  0  0  0  0  0  0  # atno 8008 bound_to 7997
  154.4016  140.1308  156.4395 H   0  0  0  0  0  0  0  0  0  0  0  0  # atno 8009 bound_to 7997
  155.7519  140.3465  155.5157 H   0  0  0  0  0  0  0  0  0  0  0  0  # atno 8010 bound_to 7997
  140.6958  143.6325  150.8510 H   0  0  0  0  0  0  0  0  0  0  0  0  # atno 10167 bound_to 10162
  156.9921  131.0151  151.2854 H   0  0  0  0  0  0  0  0  0  0  0  0  # atno 10718 bound_to 10713
  153.6054  135.6998  153.5367 H   0  0  0  0  0  0  0  0  0  0  0  0  # atno 10763 bound_to 10752
  153.3061  135.4114  155.1295 H   0  0  0  0  0  0  0  0  0  0  0  0  # atno 10764 bound_to 10752
  154.8574  135.3660  154.5591 H   0  0  0  0  0  0  0  0  0  0  0  0  # atno 10765 bound_to 10752
  140.0466  134.9277  157.0941 H   0  0  0  0  0  0  0  0  0  0  0  0  # atno 11005 bound_to 11000
  144.9447  140.8116  143.5608 LP  0  0  0  0  0  0  0  0  0  0  0  0  # atno 17320 bound_to 7965
  145.2416  139.2070  143.4990 LP  0  0  0  0  0  0  0  0  0  0  0  0  # atno 17321 bound_to 7965
  140.0043  143.5711  152.2864 LP  0  0  0  0  0  0  0  0  0  0  0  0  # atno 17342 bound_to 10162
  139.6411  144.7654  151.2336 LP  0  0  0  0  0  0  0  0  0  0  0  0  # atno 17343 bound_to 10162
  157.5451  130.8145  149.8076 LP  0  0  0  0  0  0  0  0  0  0  0  0  # atno 17370 bound_to 10713
  156.0203  130.3798  150.1982 LP  0  0  0  0  0  0  0  0  0  0  0  0  # atno 17371 bound_to 10713
  140.3984  134.2109  155.7164 LP  0  0  0  0  0  0  0  0  0  0  0  0  # atno 17394 bound_to 11000
  141.1910  133.8205  157.0897 LP  0  0  0  0  0  0  0  0  0  0  0  0  # atno 17395 bound_to 11000

$$$$
