AV-unprocessed.smi:512|AV-procd|sdf|2771|dock7
  -GOLD-   2262023243D 1   1.00000     0.00000
 Structure written by MMmdl.
 47 49  0  0  0  0  0  0  0  0  2 V2000
  151.2972  145.3157  158.6743 C   0  0  0  0  0  0  0  0  0  0  0  0
  152.6922  144.7844  158.3372 C   0  0  0  0  0  0  0  0  0  0  0  0
  152.7988  143.4491  158.8003 O   0  0  0  0  0  0  0  0  0  0  0  0
  152.4588  143.3154  160.1700 C   0  0  0  0  0  0  0  0  0  0  0  0
  152.2798  141.8221  160.4885 C   0  0  0  0  0  0  0  0  0  0  0  0
  152.5320  140.9713  159.3284 N   0  0  0  0  0  0  0  0  0  0  0  0
  153.4516  139.9738  159.1759 C   0  0  0  0  0  0  0  0  0  0  0  0
  154.3724  139.6050  160.1664 N   0  0  0  0  0  0  0  0  0  0  0  0
  154.9109  138.2531  160.3139 C   0  0  0  0  0  0  0  0  0  0  0  0
  154.7777  137.7574  161.7673 C   0  0  0  0  0  0  0  0  0  0  0  0
  155.5421  138.6341  162.6533 N   0  0  0  0  0  0  0  0  0  0  0  0
  155.4124  138.1757  164.0287 C   0  0  0  0  0  0  0  0  0  0  0  0
  155.0089  139.9900  162.5340 C   0  0  0  0  0  0  0  0  0  0  0  0
  155.1418  140.4596  161.0718 C   0  0  0  0  0  0  0  0  0  0  0  0
  153.3793  139.3397  158.0026 N   0  0  0  0  0  0  0  0  0  0  0  0
  152.3491  139.9918  157.3469 C   0  0  0  0  0  0  0  0  0  0  0  0
  151.8168  140.9711  158.1242 C   0  0  0  0  0  0  0  0  0  0  0  0
  150.6771  141.8196  157.7067 C   0  0  0  0  0  0  0  0  0  0  0  0
  150.2130  142.6765  158.4558 O   0  0  0  0  0  0  0  0  0  0  0  0
  150.2445  141.5206  156.4409 N   0  5  0  0  0  0  0  0  0  0  0  0
  150.7606  140.5429  155.6181 C   0  0  0  0  0  0  0  0  0  0  0  0
  150.3124  140.3398  154.4889 O   0  0  0  0  0  0  0  0  0  0  0  0
  151.8018  139.7670  156.0544 N   0  0  0  0  0  0  0  0  0  0  0  0
  152.3660  138.7143  155.2048 C   0  0  0  0  0  0  0  0  0  0  0  0
  151.1799  146.3451  158.3352 H   0  0  0  0  0  0  0  0  0  0  0  0
  151.1199  145.2943  159.7498 H   0  0  0  0  0  0  0  0  0  0  0  0
  150.5243  144.7149  158.1945 H   0  0  0  0  0  0  0  0  0  0  0  0
  152.8538  144.8238  157.2590 H   0  0  0  0  0  0  0  0  0  0  0  0
  153.4526  145.4083  158.8094 H   0  0  0  0  0  0  0  0  0  0  0  0
  153.2427  143.7496  160.7908 H   0  0  0  0  0  0  0  0  0  0  0  0
  151.5461  143.8722  160.3824 H   0  0  0  0  0  0  0  0  0  0  0  0
  152.9248  141.5216  161.3109 H   0  0  0  0  0  0  0  0  0  0  0  0
  151.2693  141.6329  160.8498 H   0  0  0  0  0  0  0  0  0  0  0  0
  154.3748  137.5682  159.6565 H   0  0  0  0  0  0  0  0  0  0  0  0
  155.9538  138.2346  159.9940 H   0  0  0  0  0  0  0  0  0  0  0  0
  153.7278  137.7317  162.0645 H   0  0  0  0  0  0  0  0  0  0  0  0
  155.1608  136.7394  161.8452 H   0  0  0  0  0  0  0  0  0  0  0  0
  155.9774  138.8223  164.7007 H   0  0  0  0  0  0  0  0  0  0  0  0
  155.8050  137.1636  164.1326 H   0  0  0  0  0  0  0  0  0  0  0  0
  154.3704  138.1733  164.3521 H   0  0  0  0  0  0  0  0  0  0  0  0
  153.9670  140.0224  162.8565 H   0  0  0  0  0  0  0  0  0  0  0  0
  155.5701  140.6590  163.1873 H   0  0  0  0  0  0  0  0  0  0  0  0
  156.1902  140.4424  160.7706 H   0  0  0  0  0  0  0  0  0  0  0  0
  154.8356  141.4969  160.9848 H   0  0  0  0  0  0  0  0  0  0  0  0
  151.5944  137.9994  154.9168 H   0  0  0  0  0  0  0  0  0  0  0  0
  153.1572  138.1522  155.7002 H   0  0  0  0  0  0  0  0  0  0  0  0
  152.7895  139.1450  154.2968 H   0  0  0  0  0  0  0  0  0  0  0  0
  1  2  1  0  0  0  0
  1 25  1  0  0  0  0
  1 26  1  0  0  0  0
  1 27  1  0  0  0  0
  2  3  1  0  0  0  0
  2 28  1  0  0  0  0
  2 29  1  0  0  0  0
  3  4  1  0  0  0  0
  4  5  1  0  0  0  0
  4 30  1  0  0  0  0
  4 31  1  0  0  0  0
  5  6  1  0  0  0  0
  5 32  1  0  0  0  0
  5 33  1  0  0  0  0
  6 17  1  0  0  0  0
  6  7  1  0  0  0  0
  7  8  1  0  0  0  0
  7 15  2  0  0  0  0
  8 14  1  0  0  0  0
  8  9  1  0  0  0  0
  9 10  1  0  0  0  0
  9 34  1  0  0  0  0
  9 35  1  0  0  0  0
 10 11  1  0  0  0  0
 10 36  1  0  0  0  0
 10 37  1  0  0  0  0
 11 12  1  0  0  0  0
 11 13  1  0  0  0  0
 12 38  1  0  0  0  0
 12 39  1  0  0  0  0
 12 40  1  0  0  0  0
 13 14  1  0  0  0  0
 13 41  1  0  0  0  0
 13 42  1  0  0  0  0
 14 43  1  0  0  0  0
 14 44  1  0  0  0  0
 15 16  1  0  0  0  0
 16 23  1  0  0  0  0
 16 17  2  0  0  0  0
 17 18  1  0  0  0  0
 18 19  2  0  0  0  0
 18 20  1  0  0  0  0
 20 21  1  0  0  0  0
 21 22  2  0  0  0  0
 21 23  1  0  0  0  0
 23 24  1  0  0  0  0
 24 45  1  0  0  0  0
 24 46  1  0  0  0  0
 24 47  1  0  0  0  0
M  CHG  1  20  -1
M  END
> <s_m_source_file>
AV-unprocessed.smi

> <i_m_source_file_index>
512

> <i_lp_mmshare_version>
43012

> <i_f3d_flags>
0

> <s_epik_input>
W0NIM11uMWMoPU8pW25IXWMoPU8pYyhjMTIpbihbQ0gyXVtDSDJdT1tDSDJdW0NIM10pYyhuMilOM1tDSDJdW0NIMl1OKFtDSDNdKVtDSDJdW0NIMl0z

> <s_epik_cmdline>
J2VwaWtfcHl0aG9uJywgJy1waCcsICc3LjAnLCAnLXRuJywgJzgnLCAnLW1hJywgJzIwMCcsICctbWV0YWxfYmluZGluZycsICctaW1hZScsICc8aW5maWxlLm1hZT4nLCAnLW9tYWUnLCAnPG91dGZpbGUubWFlPic=

> <r_epik_Ionization_Penalty>
7.67022

> <r_epik_Ionization_Penalty_Charging>
0.0776929

> <r_epik_Ionization_Penalty_Neutral>
7.59253

> <r_epik_State_Penalty>
7.66971

> <r_epik_Charging_Adjusted_Penalty>
7.7474

> <i_epik_Tot_Q>
-1

> <i_epik_Tot_abs_Q>
1

> <r_epik_Metal_State_Penalty>
3.61867

> <b_epik_Metal_Only>
1

> <s_lp_Force_Field>
OPLS_2005

> <r_lp_Energy>
53.7442

> <b_lp_Chiralities_Consistent>
1

> <s_lp_Variant>
AV-unprocessed.smi:512-4

> <Gold.Version>
5.8.1

> <Gold.Id.Protein>
6NUR|6NUR_protein|mol2

> <Gold.PLP.Fitness>
48.2102

> <Gold.PLP.PLP>
-44.5185

> <Gold.PLP.part.hbond>
-2.0000

> <Gold.PLP.part.metal>
0.0000

> <Gold.PLP.part.buried>
-3.1786

> <Gold.PLP.part.nonpolar>
-38.5551

> <Gold.PLP.part.repulsive>
0.2833

> <Gold.PLP.ligand.clash>
0.0031

> <Gold.PLP.ligand.torsion>
0.9060

> <Gold.PLP.Chemscore.Hbond>
1.8056

> <Gold.PLP.Chemscore.CHOScore>
0.0000

> <Gold.PLP.Chemscore.Metal>
0.0000

> <Gold.Chemscore.Hbonds>
donor molecule, donor type, donor heavy atom, donor atom, acceptor molecule, acceptor atom, score
      P1  H  7989  7998       L1    22  1.00
      P1  H  7997  8010       L1    15  0.75

> <Gold.PLP.Chemscore.Internal.Correction>
0.0900

> <Gold.Rescore>
     Score         DG    S(hbond)    S(metal)    S(lipo)     H(rot)  DE(clash)    DE(int)     intcor
     11.69     -15.94       1.00        0.00      96.07       1.61       2.07       2.18       ----

> <Gold.Chemscore.Fitness>
11.6861

> <Gold.Chemscore.DG>
-15.9422

> <Gold.Chemscore.ZeroCoef>
-5.4800

> <Gold.Chemscore.Hbond>
0.9981

> <Gold.Chemscore.Metal>
0.0000

> <Gold.Chemscore.Lipo>
96.0748

> <Gold.Chemscore.Internal_Hbond>
0.0000

> <Gold.Chemscore.DEClash>
2.0719

> <Gold.Chemscore.DEInternal>
2.1843

> <Gold.Chemscore.Rot>
1.6064

> <Gold.Chemscore.Internal.Correction>
   9.000000E+99

> <Gold.Chemscore.Hbonds>
donor molecule, donor type, donor heavy atom, donor atom, acceptor molecule, acceptor atom, score
      P1  H  7989  7998       L1    22  0.33
      P1  H  7997  8010       L1    15  0.07

> <Gold.Chemscore.Hbond.Weighted>
-3.3338

> <Gold.Chemscore.Metal.Weighted>
-0.0000

> <Gold.Chemscore.Lipo.Weighted>
-11.2408

> <Gold.Chemscore.Internal_Hbond.Weighted>
0.0000

> <Gold.Chemscore.DEClash.Weighted>
2.0719

> <Gold.Chemscore.DEInternal.Weighted>
2.1843

> <Gold.Chemscore.Rot.Weighted>
4.1123

> <Gold.Chemscore.Internal.Correction.Weighted>
   9.000000E+99

> <Gold.Protein.RotatedTorsions>
[ 6907 6896 6895 6894 ] final   58.22 input  -60.11 | X-H torsion
[ 7974 7965 7964 7962 ] final  173.29 input  175.53 | X-H torsion
[ 8008 7997 7996 7995 ] final    8.78 input   59.86 | X-H torsion
[ 10167 10162 10161 10158 ] final  163.64 input  -65.29 | X-H torsion
[ 10718 10713 10712 10709 ] final -143.39 input   66.30 | X-H torsion
[ 10763 10752 10751 10750 ] final -155.99 input  -60.55 | X-H torsion
[ 11005 11000 10999 10996 ] final  -34.77 input  -57.11 | X-H torsion

> <Gold.Protein.ActiveResidues>
 VAL166  LYS551  ARG553  GLY616  TRP617  ASP618  TYR619  PRO620  LYS621  CYS622 
 ASP623  PHE694  ASN695  SER759  ASP760  ASP761  ALA762  ILE779  LEU786  VAL792 
 PHE793  MET794  SER795  GLU796  ALA797  LYS798  CYS799  TRP800  GLU811  SER814 

> <Gold.Protein.RotatedAtoms>
  152.3804  134.6599  160.0144 H   0  0  0  0  0  0  0  0  0  0  0  0  # atno 6907 bound_to 6896
  151.6865  133.3306  159.3240 H   0  0  0  0  0  0  0  0  0  0  0  0  # atno 6908 bound_to 6896
  150.7742  134.6672  159.6416 H   0  0  0  0  0  0  0  0  0  0  0  0  # atno 6909 bound_to 6896
  144.7247  139.9626  143.6435 H   0  0  0  0  0  0  0  0  0  0  0  0  # atno 7974 bound_to 7965
  154.7713  140.2802  155.6136 H   0  0  0  0  0  0  0  0  0  0  0  0  # atno 8008 bound_to 7997
  156.2934  140.2641  156.2444 H   0  0  0  0  0  0  0  0  0  0  0  0  # atno 8009 bound_to 7997
  154.9897  140.0374  157.2303 H   0  0  0  0  0  0  0  0  0  0  0  0  # atno 8010 bound_to 7997
  139.4877  144.4317  151.9063 H   0  0  0  0  0  0  0  0  0  0  0  0  # atno 10167 bound_to 10162
  156.3574  130.7720  151.1882 H   0  0  0  0  0  0  0  0  0  0  0  0  # atno 10718 bound_to 10713
  154.7746  135.3155  154.8118 H   0  0  0  0  0  0  0  0  0  0  0  0  # atno 10763 bound_to 10752
  153.8845  135.6831  153.4769 H   0  0  0  0  0  0  0  0  0  0  0  0  # atno 10764 bound_to 10752
  153.1367  135.4756  154.9369 H   0  0  0  0  0  0  0  0  0  0  0  0  # atno 10765 bound_to 10752
  140.9743  133.7092  156.1576 H   0  0  0  0  0  0  0  0  0  0  0  0  # atno 11005 bound_to 11000
  146.0626  139.3618  143.0572 LP  0  0  0  0  0  0  0  0  0  0  0  0  # atno 17320 bound_to 7965
  145.8073  140.9742  143.0967 LP  0  0  0  0  0  0  0  0  0  0  0  0  # atno 17321 bound_to 7965
  140.3765  144.2790  150.5913 LP  0  0  0  0  0  0  0  0  0  0  0  0  # atno 17342 bound_to 10162
  140.5272  143.2251  151.8296 LP  0  0  0  0  0  0  0  0  0  0  0  0  # atno 17343 bound_to 10162
  157.7469  131.0410  150.4625 LP  0  0  0  0  0  0  0  0  0  0  0  0  # atno 17370 bound_to 10713
  156.4830  130.4078  149.6450 LP  0  0  0  0  0  0  0  0  0  0  0  0  # atno 17371 bound_to 10713
  140.7282  134.4283  157.5568 LP  0  0  0  0  0  0  0  0  0  0  0  0  # atno 17394 bound_to 11000
  139.8924  134.8755  156.2272 LP  0  0  0  0  0  0  0  0  0  0  0  0  # atno 17395 bound_to 11000

$$$$
