AV-unprocessed.smi:379|AV-procd|sdf|2458|dock2
  -GOLD-   2262022393D 1   1.00000     0.00000
 Structure written by MMmdl.
 39 40  0  0  0  0  0  0  0  0  1 V2000
  147.0552  140.1250  152.9878 C   0  0  0  0  0  0  0  0  0  0  0  0
  146.5610  140.5239  154.3863 C   0  0  0  0  0  0  0  0  0  0  0  0
  147.1573  141.8466  154.9076 C   0  0  2  0  0  0  0  0  0  0  0  0
  146.8813  143.0098  153.9452 C   0  0  0  0  0  0  0  0  0  0  0  0
  148.6007  141.7187  155.1018 N   0  0  0  0  0  0  0  0  0  0  0  0
  149.2309  141.5745  156.2779 C   0  0  0  0  0  0  0  0  0  0  0  0
  148.6478  141.5537  157.3628 O   0  0  0  0  0  0  0  0  0  0  0  0
  150.7581  141.4318  156.1994 C   0  0  0  0  0  0  0  0  0  0  0  0
  151.3818  141.0747  157.4926 N   0  0  0  0  0  0  0  0  0  0  0  0
  151.4491  139.7041  157.8518 C   0  0  0  0  0  0  0  0  0  0  0  0
  150.9955  138.8307  157.1097 O   0  0  0  0  0  0  0  0  0  0  0  0
  152.0843  139.4208  159.1365 C   0  0  0  0  0  0  0  0  0  0  0  0
  152.2065  138.0520  159.5148 C   0  0  0  0  0  0  0  0  0  0  0  0
  152.3035  136.9339  159.7979 N   0  0  0  0  0  0  0  0  0  0  0  0
  152.5387  140.4188  159.9219 C   0  0  0  0  0  0  0  0  0  0  0  0
  152.4169  141.7473  159.5776 N   0  0  0  0  0  0  0  0  0  0  0  0
  153.0469  142.7816  160.3490 C   0  0  0  0  0  0  0  0  0  0  0  0
  152.7059  142.9156  161.8171 C   0  0  0  0  0  0  0  0  0  0  0  0
  152.2407  143.9680  160.8406 C   0  0  0  0  0  0  0  0  0  0  0  0
  151.8681  142.1098  158.3279 C   0  0  0  0  0  0  0  0  0  0  0  0
  151.8187  143.2898  157.9722 O   0  0  0  0  0  0  0  0  0  0  0  0
  146.6440  139.1593  152.6931 H   0  0  0  0  0  0  0  0  0  0  0  0
  148.1421  140.0443  152.9639 H   0  0  0  0  0  0  0  0  0  0  0  0
  146.7565  140.8520  152.2323 H   0  0  0  0  0  0  0  0  0  0  0  0
  145.4722  140.5869  154.3784 H   0  0  0  0  0  0  0  0  0  0  0  0
  146.8113  139.7222  155.0816 H   0  0  0  0  0  0  0  0  0  0  0  0
  146.6699  142.0881  155.8537 H   0  0  0  0  0  0  0  0  0  0  0  0
  145.8104  143.1489  153.7948 H   0  0  0  0  0  0  0  0  0  0  0  0
  147.3347  142.8358  152.9687 H   0  0  0  0  0  0  0  0  0  0  0  0
  147.2813  143.9457  154.3367 H   0  0  0  0  0  0  0  0  0  0  0  0
  149.1682  141.7270  154.2668 H   0  0  0  0  0  0  0  0  0  0  0  0
  151.0051  140.6855  155.4422 H   0  0  0  0  0  0  0  0  0  0  0  0
  151.1654  142.3599  155.7962 H   0  0  0  0  0  0  0  0  0  0  0  0
  153.0103  140.1698  160.8617 H   0  0  0  0  0  0  0  0  0  0  0  0
  154.0819  142.9910  160.0841 H   0  0  0  0  0  0  0  0  0  0  0  0
  151.9486  142.2529  162.2316 H   0  0  0  0  0  0  0  0  0  0  0  0
  153.5140  143.1807  162.4957 H   0  0  0  0  0  0  0  0  0  0  0  0
  152.7386  144.9351  160.8666 H   0  0  0  0  0  0  0  0  0  0  0  0
  151.1768  143.9982  160.6128 H   0  0  0  0  0  0  0  0  0  0  0  0
  1  2  1  0  0  0  0
  1 22  1  0  0  0  0
  1 23  1  0  0  0  0
  1 24  1  0  0  0  0
  2  3  1  0  0  0  0
  2 25  1  0  0  0  0
  2 26  1  0  0  0  0
  3  4  1  0  0  0  0
  3  5  1  0  0  0  0
  3 27  1  0  0  0  0
  4 28  1  0  0  0  0
  4 29  1  0  0  0  0
  4 30  1  0  0  0  0
  5  6  1  0  0  0  0
  5 31  1  0  0  0  0
  6  7  2  0  0  0  0
  6  8  1  0  0  0  0
  8  9  1  0  0  0  0
  8 32  1  0  0  0  0
  8 33  1  0  0  0  0
  9 20  1  0  0  0  0
  9 10  1  0  0  0  0
 10 11  2  0  0  0  0
 10 12  1  0  0  0  0
 12 13  1  0  0  0  0
 12 15  2  0  0  0  0
 13 14  3  0  0  0  0
 15 16  1  0  0  0  0
 15 34  1  0  0  0  0
 16 17  1  0  0  0  0
 16 20  1  0  0  0  0
 17 19  1  0  0  0  0
 17 18  1  0  0  0  0
 17 35  1  0  0  0  0
 18 19  1  0  0  0  0
 18 36  1  0  0  0  0
 18 37  1  0  0  0  0
 19 38  1  0  0  0  0
 19 39  1  0  0  0  0
 20 21  2  0  0  0  0
M  END
> <s_m_source_file>
AV-unprocessed.smi

> <i_m_source_file_index>
379

> <i_lp_mmshare_version>
43012

> <i_f3d_flags>
0

> <s_epik_input>
W0NIM11bQ0gyXVtDQEhdKFtDSDNdKVtOSF1DKD1PKVtDSDJdbjFjKD1PKWMoQyNOKVtjSF1uKGMxPU8pW0NIXTJbQ0gyXVtDSDJdMg==

> <s_epik_cmdline>
J2VwaWtfcHl0aG9uJywgJy1waCcsICc3LjAnLCAnLXRuJywgJzgnLCAnLW1hJywgJzIwMCcsICctbWV0YWxfYmluZGluZycsICctaW1hZScsICc8aW5maWxlLm1hZT4nLCAnLW9tYWUnLCAnPG91dGZpbGUubWFlPic=

> <r_lp_tautomer_probability>
1

> <r_epik_Ionization_Penalty>
1.93863e-08

> <r_epik_Ionization_Penalty_Charging>
8.45512e-11

> <r_epik_Ionization_Penalty_Neutral>
1.93017e-08

> <r_epik_State_Penalty>
-0

> <r_epik_Charging_Adjusted_Penalty>
8.45512e-11

> <i_epik_Tot_Q>
0

> <i_epik_Tot_abs_Q>
0

> <r_epik_Metal_State_Penalty>
-0

> <b_epik_Metal_Only>
0

> <s_lp_Force_Field>
OPLS_2005

> <r_lp_Energy>
29.5524

> <b_lp_Chiralities_Consistent>
1

> <s_lp_Variant>
AV-unprocessed.smi:379-1

> <Gold.Version>
5.8.1

> <Gold.Id.Protein>
6NUR|6NUR_protein|mol2

> <Gold.PLP.Fitness>
42.7875

> <Gold.PLP.PLP>
-41.0150

> <Gold.PLP.part.hbond>
-1.6912

> <Gold.PLP.part.metal>
0.0000

> <Gold.PLP.part.buried>
-5.0625

> <Gold.PLP.part.nonpolar>
-34.5742

> <Gold.PLP.part.repulsive>
0.2792

> <Gold.PLP.ligand.clash>
0.0000

> <Gold.PLP.ligand.torsion>
0.7303

> <Gold.PLP.Chemscore.Hbond>
1.0000

> <Gold.PLP.Chemscore.CHOScore>
0.0000

> <Gold.PLP.Chemscore.Metal>
0.0000

> <Gold.Chemscore.Hbonds>
donor molecule, donor type, donor heavy atom, donor atom, acceptor molecule, acceptor atom, score
      P1  H  6896  6907       L1    14  1.00

> <Gold.PLP.Chemscore.Internal.Correction>
0.2331

> <Gold.Rescore>
     Score         DG    S(hbond)    S(metal)    S(lipo)     H(rot)  DE(clash)    DE(int)     intcor
     12.02     -12.93       0.98        0.00      78.88       1.98       0.04       0.87       ----

> <Gold.Chemscore.Fitness>
12.0172

> <Gold.Chemscore.DG>
-12.9271

> <Gold.Chemscore.ZeroCoef>
-5.4800

> <Gold.Chemscore.Hbond>
0.9822

> <Gold.Chemscore.Metal>
0.0000

> <Gold.Chemscore.Lipo>
78.8790

> <Gold.Chemscore.Internal_Hbond>
0.0000

> <Gold.Chemscore.DEClash>
0.0402

> <Gold.Chemscore.DEInternal>
0.8696

> <Gold.Chemscore.Rot>
1.9774

> <Gold.Chemscore.Internal.Correction>
   9.000000E+99

> <Gold.Chemscore.Hbonds>
donor molecule, donor type, donor heavy atom, donor atom, acceptor molecule, acceptor atom, score
      P1  H  6896  6907       L1    14  1.00

> <Gold.Chemscore.Hbond.Weighted>
-3.2805

> <Gold.Chemscore.Metal.Weighted>
-0.0000

> <Gold.Chemscore.Lipo.Weighted>
-9.2288

> <Gold.Chemscore.Internal_Hbond.Weighted>
0.0000

> <Gold.Chemscore.DEClash.Weighted>
0.0402

> <Gold.Chemscore.DEInternal.Weighted>
0.8696

> <Gold.Chemscore.Rot.Weighted>
5.0623

> <Gold.Chemscore.Internal.Correction.Weighted>
   9.000000E+99

> <Gold.Protein.RotatedTorsions>
[ 6907 6896 6895 6894 ] final   19.12 input  -60.11 | X-H torsion
[ 7974 7965 7964 7962 ] final  112.33 input  175.53 | X-H torsion
[ 8008 7997 7996 7995 ] final   65.29 input   59.86 | X-H torsion
[ 10167 10162 10161 10158 ] final  -89.99 input  -65.29 | X-H torsion
[ 10718 10713 10712 10709 ] final  -83.46 input   66.30 | X-H torsion
[ 10763 10752 10751 10750 ] final  -86.48 input  -60.55 | X-H torsion
[ 11005 11000 10999 10996 ] final   -6.66 input  -57.11 | X-H torsion

> <Gold.Protein.ActiveResidues>
 VAL166  LYS551  ARG553  GLY616  TRP617  ASP618  TYR619  PRO620  LYS621  CYS622 
 ASP623  PHE694  ASN695  SER759  ASP760  ASP761  ALA762  ILE779  LEU786  VAL792 
 PHE793  MET794  SER795  GLU796  ALA797  LYS798  CYS799  TRP800  GLU811  SER814 

> <Gold.Protein.RotatedAtoms>
  151.8760  135.0472  160.0483 H   0  0  0  0  0  0  0  0  0  0  0  0  # atno 6907 bound_to 6896
  152.2551  133.5244  159.5356 H   0  0  0  0  0  0  0  0  0  0  0  0  # atno 6908 bound_to 6896
  150.7097  134.0823  159.3945 H   0  0  0  0  0  0  0  0  0  0  0  0  # atno 6909 bound_to 6896
  145.2309  139.2820  143.4168 H   0  0  0  0  0  0  0  0  0  0  0  0  # atno 7974 bound_to 7965
  155.6594  140.3497  155.4777 H   0  0  0  0  0  0  0  0  0  0  0  0  # atno 8008 bound_to 7997
  155.9781  140.1169  157.0774 H   0  0  0  0  0  0  0  0  0  0  0  0  # atno 8009 bound_to 7997
  154.4184  140.1143  156.5384 H   0  0  0  0  0  0  0  0  0  0  0  0  # atno 8010 bound_to 7997
  140.3593  143.2850  151.9633 H   0  0  0  0  0  0  0  0  0  0  0  0  # atno 10167 bound_to 10162
  156.0018  130.4666  150.4261 H   0  0  0  0  0  0  0  0  0  0  0  0  # atno 10718 bound_to 10713
  154.6230  135.5447  153.7596 H   0  0  0  0  0  0  0  0  0  0  0  0  # atno 10763 bound_to 10752
  153.0247  135.6417  154.1413 H   0  0  0  0  0  0  0  0  0  0  0  0  # atno 10764 bound_to 10752
  154.1347  135.2912  155.3156 H   0  0  0  0  0  0  0  0  0  0  0  0  # atno 10765 bound_to 10752
  140.7044  133.8962  155.8706 H   0  0  0  0  0  0  0  0  0  0  0  0  # atno 11005 bound_to 11000
  146.3353  140.2644  142.8603 LP  0  0  0  0  0  0  0  0  0  0  0  0  # atno 17320 bound_to 7965
  144.9677  140.8338  143.5474 LP  0  0  0  0  0  0  0  0  0  0  0  0  # atno 17321 bound_to 7965
  139.4816  144.6006  151.7611 LP  0  0  0  0  0  0  0  0  0  0  0  0  # atno 17342 bound_to 10162
  140.5142  144.0978  150.6003 LP  0  0  0  0  0  0  0  0  0  0  0  0  # atno 17343 bound_to 10162
  157.2313  131.0505  151.2490 LP  0  0  0  0  0  0  0  0  0  0  0  0  # atno 17370 bound_to 10713
  157.3708  130.7180  149.6563 LP  0  0  0  0  0  0  0  0  0  0  0  0  # atno 17371 bound_to 10713
  141.0137  134.0985  157.4195 LP  0  0  0  0  0  0  0  0  0  0  0  0  # atno 17394 bound_to 11000
  139.8888  135.0100  156.6642 LP  0  0  0  0  0  0  0  0  0  0  0  0  # atno 17395 bound_to 11000

$$$$
