AV-unprocessed.smi:2775|AV-procd|sdf|10692|dock2
  -GOLD-   2272015133D 1   1.00000     0.00000
 Structure written by MMmdl.
 42 45  0  0  0  0  0  0  0  0  1 V2000
  152.7132  139.4565  155.8719 C   0  0  0  0  0  0  0  0  0  0  0  0
  151.3437  139.8573  155.3565 C   0  0  0  0  0  0  0  0  0  0  0  0
  150.9878  141.1417  155.5786 N   0  0  0  0  0  0  0  0  0  0  0  0
  149.7764  141.5492  155.1469 C   0  0  0  0  0  0  0  0  0  0  0  0
  148.8704  140.7075  154.4741 C   0  0  0  0  0  0  0  0  0  0  0  0
  149.2481  139.3670  154.2251 C   0  0  0  0  0  0  0  0  0  0  0  0
  148.4067  138.4289  153.5694 N   0  0  0  0  0  0  0  0  0  0  0  0
  147.0612  138.3848  153.5357 C   0  0  0  0  0  0  0  0  0  0  0  0
  146.3168  139.1338  154.1649 O   0  0  0  0  0  0  0  0  0  0  0  0
  146.5722  137.4597  152.6919 N   0  0  0  0  0  0  0  0  0  0  0  0
  145.1620  137.1574  152.4223 C   0  0  2  0  0  0  0  0  0  0  0  0
  144.3313  136.8113  153.6869 C   0  0  2  0  0  0  0  0  0  0  0  0
  144.8288  137.0162  155.0987 C   0  0  0  0  0  0  0  0  0  0  0  0
  145.2995  135.6162  155.5010 C   0  0  0  0  0  0  0  0  0  0  0  0
  145.5390  134.9461  154.2657 O   0  0  0  0  0  0  0  0  0  0  0  0
  144.5126  135.3343  153.3578 C   0  0  2  0  0  0  0  0  0  0  0  0
  144.9806  135.7064  151.9447 C   0  0  0  0  0  0  0  0  0  0  0  0
  146.0780  134.9030  151.2270 C   0  0  0  0  0  0  0  0  0  0  0  0
  144.9729  134.1970  150.4367 C   0  0  0  0  0  0  0  0  0  0  0  0
  144.0631  135.3877  150.7542 C   0  0  0  0  0  0  0  0  0  0  0  0
  150.5098  138.9290  154.6900 C   0  0  0  0  0  0  0  0  0  0  0  0
  151.0263  137.2943  154.4375 Cl  0  0  0  0  0  0  0  0  0  0  0  0
  153.3315  139.0821  155.0555 H   0  0  0  0  0  0  0  0  0  0  0  0
  152.6203  138.6720  156.6234 H   0  0  0  0  0  0  0  0  0  0  0  0
  153.2335  140.3004  156.3273 H   0  0  0  0  0  0  0  0  0  0  0  0
  149.5179  142.5778  155.3497 H   0  0  0  0  0  0  0  0  0  0  0  0
  147.9098  141.0977  154.1747 H   0  0  0  0  0  0  0  0  0  0  0  0
  148.8791  137.7961  152.9402 H   0  0  0  0  0  0  0  0  0  0  0  0
  147.2440  136.9599  152.1272 H   0  0  0  0  0  0  0  0  0  0  0  0
  144.6675  137.8736  151.7639 H   0  0  0  0  0  0  0  0  0  0  0  0
  143.2911  137.1096  153.5483 H   0  0  0  0  0  0  0  0  0  0  0  0
  145.6454  137.7334  155.1546 H   0  0  0  0  0  0  0  0  0  0  0  0
  144.0426  137.3728  155.7646 H   0  0  0  0  0  0  0  0  0  0  0  0
  146.1917  135.6352  156.1272 H   0  0  0  0  0  0  0  0  0  0  0  0
  144.5128  135.0893  156.0428 H   0  0  0  0  0  0  0  0  0  0  0  0
  143.5996  134.7417  153.4316 H   0  0  0  0  0  0  0  0  0  0  0  0
  146.7125  135.5233  150.5918 H   0  0  0  0  0  0  0  0  0  0  0  0
  146.6682  134.2504  151.8707 H   0  0  0  0  0  0  0  0  0  0  0  0
  145.1876  134.0544  149.3773 H   0  0  0  0  0  0  0  0  0  0  0  0
  144.6402  133.2729  150.9123 H   0  0  0  0  0  0  0  0  0  0  0  0
  143.0392  135.1216  151.0184 H   0  0  0  0  0  0  0  0  0  0  0  0
  144.0918  136.1556  149.9794 H   0  0  0  0  0  0  0  0  0  0  0  0
  1  2  1  0  0  0  0
  1 23  1  0  0  0  0
  1 24  1  0  0  0  0
  1 25  1  0  0  0  0
  2 21  1  0  0  0  0
  2  3  2  0  0  0  0
  3  4  1  0  0  0  0
  4  5  2  0  0  0  0
  4 26  1  0  0  0  0
  5  6  1  0  0  0  0
  5 27  1  0  0  0  0
  6  7  1  0  0  0  0
  6 21  2  0  0  0  0
  7  8  1  0  0  0  0
  7 28  1  0  0  0  0
  8  9  2  0  0  0  0
  8 10  1  0  0  0  0
 10 11  1  0  0  0  0
 10 29  1  0  0  0  0
 11 17  1  0  0  0  0
 11 12  1  0  0  0  0
 11 30  1  0  0  0  0
 12 16  1  0  0  0  0
 12 13  1  0  0  0  0
 12 31  1  0  0  0  0
 13 14  1  0  0  0  0
 13 32  1  0  0  0  0
 13 33  1  0  0  0  0
 14 15  1  0  0  0  0
 14 34  1  0  0  0  0
 14 35  1  0  0  0  0
 15 16  1  0  0  0  0
 16 17  1  0  0  0  0
 16 36  1  0  0  0  0
 17 20  1  0  0  0  0
 17 18  1  0  0  0  0
 18 19  1  0  0  0  0
 18 37  1  0  0  0  0
 18 38  1  0  0  0  0
 19 20  1  0  0  0  0
 19 39  1  0  0  0  0
 19 40  1  0  0  0  0
 20 41  1  0  0  0  0
 20 42  1  0  0  0  0
 21 22  1  0  0  0  0
M  END
> <s_m_source_file>
AV-unprocessed.smi

> <i_m_source_file_index>
2775

> <i_lp_mmshare_version>
43012

> <i_f3d_flags>
0

> <s_epik_input>
W0NIM11jMW5bY0hdW2NIXWMoYzFDbClbTkhdQyg9TylbTkhdW0NAQEhdMltDQEhdKFtDSDJdW0NIMl1PMylbQ0BASF0zQzI0W0NIMl1bQ0gyXVtDSDJdNA==

> <s_epik_cmdline>
J2VwaWtfcHl0aG9uJywgJy1waCcsICc3LjAnLCAnLXRuJywgJzgnLCAnLW1hJywgJzIwMCcsICctbWV0YWxfYmluZGluZycsICctaW1hZScsICc8aW5maWxlLm1hZT4nLCAnLW9tYWUnLCAnPG91dGZpbGUubWFlPic=

> <r_epik_Ionization_Penalty>
0.01026

> <r_epik_Ionization_Penalty_Charging>
0

> <r_epik_Ionization_Penalty_Neutral>
0.01026

> <r_epik_State_Penalty>
0.00780685

> <r_epik_Charging_Adjusted_Penalty>
0.00780685

> <i_epik_Tot_Q>
0

> <i_epik_Tot_abs_Q>
0

> <r_epik_Metal_State_Penalty>
0.00767411

> <b_epik_Metal_Only>
0

> <s_lp_Force_Field>
OPLS_2005

> <r_lp_Energy>
58.5604

> <b_lp_Chiralities_Consistent>
1

> <s_lp_Variant>
AV-unprocessed.smi:2775-5

> <Gold.Version>
5.8.1

> <Gold.Id.Protein>
6NUR|6NUR_protein|mol2

> <Gold.PLP.Fitness>
39.2228

> <Gold.PLP.PLP>
-30.7540

> <Gold.PLP.part.hbond>
-3.6319

> <Gold.PLP.part.metal>
0.0000

> <Gold.PLP.part.buried>
3.4862

> <Gold.PLP.part.nonpolar>
-29.8758

> <Gold.PLP.part.repulsive>
0.3102

> <Gold.PLP.ligand.clash>
0.0000

> <Gold.PLP.ligand.torsion>
0.3704

> <Gold.PLP.Chemscore.Hbond>
2.0000

> <Gold.PLP.Chemscore.CHOScore>
1.0000

> <Gold.PLP.Chemscore.Metal>
0.0000

> <Gold.Chemscore.Hbonds>
donor molecule, donor type, donor heavy atom, donor atom, acceptor molecule, acceptor atom, score
      L1  H     7    28       P1  7948  1.00
      L1  H    10    29       P1  7948  1.00
      L1  C     4    26       P1  8028  1.00

> <Gold.PLP.Chemscore.Internal.Correction>
0.2097

> <Gold.Rescore>
     Score         DG    S(hbond)    S(metal)    S(lipo)     H(rot)  DE(clash)    DE(int)     intcor
     15.36     -19.38       1.96        0.00      84.65       1.00       0.84       3.18       ----

> <Gold.Chemscore.Fitness>
15.3636

> <Gold.Chemscore.DG>
-19.3839

> <Gold.Chemscore.ZeroCoef>
-5.4800

> <Gold.Chemscore.Hbond>
1.9640

> <Gold.Chemscore.Metal>
0.0000

> <Gold.Chemscore.Lipo>
84.6503

> <Gold.Chemscore.Internal_Hbond>
0.0000

> <Gold.Chemscore.DEClash>
0.8364

> <Gold.Chemscore.DEInternal>
3.1839

> <Gold.Chemscore.Rot>
1.0000

> <Gold.Chemscore.Internal.Correction>
   9.000000E+99

> <Gold.Chemscore.Hbonds>
donor molecule, donor type, donor heavy atom, donor atom, acceptor molecule, acceptor atom, score
      L1  H     7    28       P1  7948  0.98
      L1  H    10    29       P1  7948  0.96

> <Gold.Chemscore.Hbond.Weighted>
-6.5598

> <Gold.Chemscore.Metal.Weighted>
-0.0000

> <Gold.Chemscore.Lipo.Weighted>
-9.9041

> <Gold.Chemscore.Internal_Hbond.Weighted>
0.0000

> <Gold.Chemscore.DEClash.Weighted>
0.8364

> <Gold.Chemscore.DEInternal.Weighted>
3.1839

> <Gold.Chemscore.Rot.Weighted>
2.5600

> <Gold.Chemscore.Internal.Correction.Weighted>
   9.000000E+99

> <Gold.Protein.RotatedTorsions>
[ 6907 6896 6895 6894 ] final  -25.43 input  -60.11 | X-H torsion
[ 7974 7965 7964 7962 ] final  174.91 input  175.53 | X-H torsion
[ 8008 7997 7996 7995 ] final  128.00 input   59.86 | X-H torsion
[ 10167 10162 10161 10158 ] final   35.85 input  -65.29 | X-H torsion
[ 10718 10713 10712 10709 ] final  143.69 input   66.30 | X-H torsion
[ 10763 10752 10751 10750 ] final -137.63 input  -60.55 | X-H torsion
[ 11005 11000 10999 10996 ] final   69.04 input  -57.11 | X-H torsion

> <Gold.Protein.ActiveResidues>
 VAL166  LYS551  ARG553  GLY616  TRP617  ASP618  TYR619  PRO620  LYS621  CYS622 
 ASP623  PHE694  ASN695  SER759  ASP760  ASP761  ALA762  ILE779  LEU786  VAL792 
 PHE793  MET794  SER795  GLU796  ALA797  LYS798  CYS799  TRP800  GLU811  SER814 

> <Gold.Protein.RotatedAtoms>
  151.1754  135.0337  159.8769 H   0  0  0  0  0  0  0  0  0  0  0  0  # atno 6907 bound_to 6896
  152.5447  134.1124  159.8374 H   0  0  0  0  0  0  0  0  0  0  0  0  # atno 6908 bound_to 6896
  151.1234  133.5041  159.2633 H   0  0  0  0  0  0  0  0  0  0  0  0  # atno 6909 bound_to 6896
  144.7212  139.9867  143.6439 H   0  0  0  0  0  0  0  0  0  0  0  0  # atno 7974 bound_to 7965
  156.2905  140.2655  156.2365 H   0  0  0  0  0  0  0  0  0  0  0  0  # atno 8008 bound_to 7997
  155.0020  140.0387  157.2382 H   0  0  0  0  0  0  0  0  0  0  0  0  # atno 8009 bound_to 7997
  154.7593  140.2758  155.6232 H   0  0  0  0  0  0  0  0  0  0  0  0  # atno 8010 bound_to 7997
  140.4183  144.1496  150.6145 H   0  0  0  0  0  0  0  0  0  0  0  0  # atno 10167 bound_to 10162
  157.3660  131.0972  151.0872 H   0  0  0  0  0  0  0  0  0  0  0  0  # atno 10718 bound_to 10713
  154.8657  135.3636  154.5255 H   0  0  0  0  0  0  0  0  0  0  0  0  # atno 10763 bound_to 10752
  153.5883  135.7016  153.5439 H   0  0  0  0  0  0  0  0  0  0  0  0  # atno 10764 bound_to 10752
  153.3396  135.4101  155.1523 H   0  0  0  0  0  0  0  0  0  0  0  0  # atno 10765 bound_to 10752
  139.9677  134.6953  156.0512 H   0  0  0  0  0  0  0  0  0  0  0  0  # atno 11005 bound_to 11000
  146.0444  139.3452  143.0677 LP  0  0  0  0  0  0  0  0  0  0  0  0  # atno 17320 bound_to 7965
  145.8294  140.9638  143.0857 LP  0  0  0  0  0  0  0  0  0  0  0  0  # atno 17321 bound_to 7965
  140.4562  143.2467  151.9282 LP  0  0  0  0  0  0  0  0  0  0  0  0  # atno 17342 bound_to 10162
  139.4782  144.5513  151.8381 LP  0  0  0  0  0  0  0  0  0  0  0  0  # atno 17343 bound_to 10162
  157.1994  130.6388  149.5733 LP  0  0  0  0  0  0  0  0  0  0  0  0  # atno 17370 bound_to 10713
  155.9746  130.4696  150.6400 LP  0  0  0  0  0  0  0  0  0  0  0  0  # atno 17371 bound_to 10713
  141.1356  133.6576  156.3586 LP  0  0  0  0  0  0  0  0  0  0  0  0  # atno 17394 bound_to 11000
  140.5361  134.6165  157.5365 LP  0  0  0  0  0  0  0  0  0  0  0  0  # atno 17395 bound_to 11000

$$$$
