AV-unprocessed.smi:270|AV-procd|sdf|2046|dock1
  -GOLD-   2262021273D 1   1.00000     0.00000
 Structure written by MMmdl.
 54 57  0  0  0  0  0  0  0  0  1 V2000
  143.5664  133.4656  149.9072 C   0  0  0  0  0  0  0  0  0  0  0  0
  144.3786  133.4171  151.2131 C   0  0  1  0  0  0  0  0  0  0  0  0
  145.2451  132.2837  151.2077 O   0  0  0  0  0  0  0  0  0  0  0  0
  146.5973  132.7100  151.2642 C   0  0  0  0  0  0  0  0  0  0  0  0
  146.5356  134.0093  152.0548 C   0  0  0  0  0  0  0  0  0  0  0  0
  145.2583  134.6534  151.5358 C   0  0  1  0  0  0  0  0  0  0  0  0
  145.5769  135.3726  150.3549 O   0  0  0  0  0  0  0  0  0  0  0  0
  144.6376  135.6352  152.5587 C   0  0  0  0  0  0  0  0  0  0  0  0
  145.5658  136.6543  153.0223 N   0  0  0  0  0  0  0  0  0  0  0  0
  145.6109  137.9707  152.6235 C   0  0  0  0  0  0  0  0  0  0  0  0
  146.5462  138.6888  153.1816 N   0  0  0  0  0  0  0  0  0  0  0  0
  147.1914  137.8052  154.0394 C   0  0  0  0  0  0  0  0  0  0  0  0
  148.2889  137.9322  154.9401 C   0  0  0  0  0  0  0  0  0  0  0  0
  149.0073  139.1448  155.1521 N   0  0  0  0  0  0  0  0  0  0  0  0
  150.4497  139.0659  154.9719 C   0  0  0  0  0  0  0  0  0  0  0  0
  150.5806  139.8972  156.2518 C   0  0  0  0  0  0  0  0  0  0  0  0
  150.8638  141.2685  156.0193 O   0  0  0  0  0  0  0  0  0  0  0  0
  150.6213  142.0782  157.1591 C   0  0  0  0  0  0  0  0  0  0  0  0
  151.7105  141.8059  158.2029 C   0  0  0  0  0  0  0  0  0  0  0  0
  151.8569  140.6503  158.6038 O   0  0  0  0  0  0  0  0  0  0  0  0
  152.4795  142.8305  158.6405 N   0  0  0  0  0  0  0  0  0  0  0  0
  152.2902  144.2182  158.2085 C   0  0  0  0  0  0  0  0  0  0  0  0
  153.5547  142.5989  159.6085 C   0  0  0  0  0  0  0  0  0  0  0  0
  149.0950  139.6502  156.5174 C   0  0  0  0  0  0  0  0  0  0  0  0
  148.6110  136.8204  155.6546 N   0  0  0  0  0  0  0  0  0  0  0  0
  147.9479  135.6728  155.4853 C   0  0  0  0  0  0  0  0  0  0  0  0
  146.9267  135.4135  154.6686 N   0  0  0  0  0  0  0  0  0  0  0  0
  146.5758  136.5230  153.9594 C   0  0  0  0  0  0  0  0  0  0  0  0
  142.9054  134.3319  149.8820 H   0  0  0  0  0  0  0  0  0  0  0  0
  142.9465  132.5747  149.8061 H   0  0  0  0  0  0  0  0  0  0  0  0
  144.2153  133.5119  149.0323 H   0  0  0  0  0  0  0  0  0  0  0  0
  143.6879  133.2457  152.0391 H   0  0  0  0  0  0  0  0  0  0  0  0
  147.2348  131.9596  151.7321 H   0  0  0  0  0  0  0  0  0  0  0  0
  146.9622  132.8886  150.2517 H   0  0  0  0  0  0  0  0  0  0  0  0
  146.4387  133.7754  153.1160 H   0  0  0  0  0  0  0  0  0  0  0  0
  147.4239  134.6301  151.9307 H   0  0  0  0  0  0  0  0  0  0  0  0
  145.6993  134.7552  149.6501 H   0  0  0  0  0  0  0  0  0  0  0  0
  143.7767  136.1410  152.1197 H   0  0  0  0  0  0  0  0  0  0  0  0
  144.2601  135.0912  153.4256 H   0  0  0  0  0  0  0  0  0  0  0  0
  144.9289  138.3840  151.8947 H   0  0  0  0  0  0  0  0  0  0  0  0
  150.8482  138.0560  155.0793 H   0  0  0  0  0  0  0  0  0  0  0  0
  150.7978  139.5601  154.0646 H   0  0  0  0  0  0  0  0  0  0  0  0
  151.2200  139.4419  157.0098 H   0  0  0  0  0  0  0  0  0  0  0  0
  150.6489  143.1312  156.8733 H   0  0  0  0  0  0  0  0  0  0  0  0
  149.6343  141.8902  157.5832 H   0  0  0  0  0  0  0  0  0  0  0  0
  152.5408  144.3297  157.1531 H   0  0  0  0  0  0  0  0  0  0  0  0
  152.9152  144.9156  158.7667 H   0  0  0  0  0  0  0  0  0  0  0  0
  151.2590  144.5407  158.3542 H   0  0  0  0  0  0  0  0  0  0  0  0
  153.1394  142.4723  160.6086 H   0  0  0  0  0  0  0  0  0  0  0  0
  154.2670  143.4235  159.6435 H   0  0  0  0  0  0  0  0  0  0  0  0
  154.1267  141.7027  159.3624 H   0  0  0  0  0  0  0  0  0  0  0  0
  148.5098  140.5549  156.6840 H   0  0  0  0  0  0  0  0  0  0  0  0
  148.9308  138.8969  157.2893 H   0  0  0  0  0  0  0  0  0  0  0  0
  148.2842  134.8450  156.0920 H   0  0  0  0  0  0  0  0  0  0  0  0
  1  2  1  0  0  0  0
  1 29  1  0  0  0  0
  1 30  1  0  0  0  0
  1 31  1  0  0  0  0
  2  6  1  0  0  0  0
  2  3  1  0  0  0  0
  2 32  1  0  0  0  0
  3  4  1  0  0  0  0
  4  5  1  0  0  0  0
  4 33  1  0  0  0  0
  4 34  1  0  0  0  0
  5  6  1  0  0  0  0
  5 35  1  0  0  0  0
  5 36  1  0  0  0  0
  6  7  1  0  0  0  0
  6  8  1  0  0  0  0
  7 37  1  0  0  0  0
  8  9  1  0  0  0  0
  8 38  1  0  0  0  0
  8 39  1  0  0  0  0
  9 28  1  0  0  0  0
  9 10  1  0  0  0  0
 10 11  2  0  0  0  0
 10 40  1  0  0  0  0
 11 12  1  0  0  0  0
 12 28  2  0  0  0  0
 12 13  1  0  0  0  0
 13 14  1  0  0  0  0
 13 25  2  0  0  0  0
 14 24  1  0  0  0  0
 14 15  1  0  0  0  0
 15 16  1  0  0  0  0
 15 41  1  0  0  0  0
 15 42  1  0  0  0  0
 16 17  1  0  0  0  0
 16 24  1  0  0  0  0
 16 43  1  0  0  0  0
 17 18  1  0  0  0  0
 18 19  1  0  0  0  0
 18 44  1  0  0  0  0
 18 45  1  0  0  0  0
 19 20  2  0  0  0  0
 19 21  1  0  0  0  0
 21 22  1  0  0  0  0
 21 23  1  0  0  0  0
 22 46  1  0  0  0  0
 22 47  1  0  0  0  0
 22 48  1  0  0  0  0
 23 49  1  0  0  0  0
 23 50  1  0  0  0  0
 23 51  1  0  0  0  0
 24 52  1  0  0  0  0
 24 53  1  0  0  0  0
 25 26  1  0  0  0  0
 26 27  2  0  0  0  0
 26 54  1  0  0  0  0
 27 28  1  0  0  0  0
M  END
> <s_m_source_file>
AV-unprocessed.smi

> <i_m_source_file_index>
270

> <i_lp_mmshare_version>
43012

> <i_f3d_flags>
0

> <s_epik_input>
W0NIMl0xW0NIMl1PW0NAQEhdKFtDSDNdKVtDQEBdMShbT0hdKVtDSDJdbihbY0hdbjIpYyhjMjMpbltjSF1uYzNONFtDSDJdW0NIXShbQ0gyXTQpT1tDSDJdQyg9TylOKFtDSDNdKVtDSDNd

> <s_epik_cmdline>
J2VwaWtfcHl0aG9uJywgJy1waCcsICc3LjAnLCAnLXRuJywgJzgnLCAnLW1hJywgJzIwMCcsICctbWV0YWxfYmluZGluZycsICctaW1hZScsICc8aW5maWxlLm1hZT4nLCAnLW9tYWUnLCAnPG91dGZpbGUubWFlPic=

> <r_lp_tautomer_probability>
1

> <r_epik_Ionization_Penalty>
0.00375854

> <r_epik_Ionization_Penalty_Charging>
0

> <r_epik_Ionization_Penalty_Neutral>
0.00375854

> <r_epik_State_Penalty>
-0

> <r_epik_Charging_Adjusted_Penalty>
0

> <i_epik_Tot_Q>
0

> <i_epik_Tot_abs_Q>
0

> <r_epik_Metal_State_Penalty>
-0

> <b_epik_Metal_Only>
0

> <s_lp_Force_Field>
OPLS_2005

> <r_lp_Energy>
55.1289

> <b_lp_Chiralities_Consistent>
1

> <s_lp_Variant>
AV-unprocessed.smi:270-2

> <Gold.Version>
5.8.1

> <Gold.Id.Protein>
6NUR|6NUR_protein|mol2

> <Gold.PLP.Fitness>
41.1806

> <Gold.PLP.PLP>
-34.0267

> <Gold.PLP.part.hbond>
-1.0000

> <Gold.PLP.part.metal>
0.0000

> <Gold.PLP.part.buried>
-1.3819

> <Gold.PLP.part.nonpolar>
-32.8716

> <Gold.PLP.part.repulsive>
0.6120

> <Gold.PLP.ligand.clash>
0.0000

> <Gold.PLP.ligand.torsion>
0.4418

> <Gold.PLP.Chemscore.Hbond>
0.7360

> <Gold.PLP.Chemscore.CHOScore>
1.7459

> <Gold.PLP.Chemscore.Metal>
0.0000

> <Gold.Chemscore.Hbonds>
donor molecule, donor type, donor heavy atom, donor atom, acceptor molecule, acceptor atom, score
      L1  H     7    37       P1  7921  0.70
      L1  C    10    40       P1 10171  1.00
      L1  C    10    40       P1 10175  0.80

> <Gold.PLP.Chemscore.Internal.Correction>
0.5918

> <Gold.Rescore>
     Score         DG    S(hbond)    S(metal)    S(lipo)     H(rot)  DE(clash)    DE(int)     intcor
      7.05     -10.98       0.93        0.00      88.76       3.12       2.02       1.91       ----

> <Gold.Chemscore.Fitness>
7.0508

> <Gold.Chemscore.DG>
-10.9789

> <Gold.Chemscore.ZeroCoef>
-5.4800

> <Gold.Chemscore.Hbond>
0.9312

> <Gold.Chemscore.Metal>
0.0000

> <Gold.Chemscore.Lipo>
88.7567

> <Gold.Chemscore.Internal_Hbond>
0.0000

> <Gold.Chemscore.DEClash>
2.0188

> <Gold.Chemscore.DEInternal>
1.9093

> <Gold.Chemscore.Rot>
3.1234

> <Gold.Chemscore.Internal.Correction>
   9.000000E+99

> <Gold.Chemscore.Hbonds>
donor molecule, donor type, donor heavy atom, donor atom, acceptor molecule, acceptor atom, score
      L1  H     7    37       P1  7921  0.61

> <Gold.Chemscore.Hbond.Weighted>
-3.1103

> <Gold.Chemscore.Metal.Weighted>
-0.0000

> <Gold.Chemscore.Lipo.Weighted>
-10.3845

> <Gold.Chemscore.Internal_Hbond.Weighted>
0.0000

> <Gold.Chemscore.DEClash.Weighted>
2.0188

> <Gold.Chemscore.DEInternal.Weighted>
1.9093

> <Gold.Chemscore.Rot.Weighted>
7.9959

> <Gold.Chemscore.Internal.Correction.Weighted>
   9.000000E+99

> <Gold.Protein.RotatedTorsions>
[ 6907 6896 6895 6894 ] final  -58.39 input  -60.11 | X-H torsion
[ 7974 7965 7964 7962 ] final   16.58 input  175.53 | X-H torsion
[ 8008 7997 7996 7995 ] final   68.97 input   59.86 | X-H torsion
[ 10167 10162 10161 10158 ] final -149.16 input  -65.29 | X-H torsion
[ 10718 10713 10712 10709 ] final   -2.81 input   66.30 | X-H torsion
[ 10763 10752 10751 10750 ] final  -62.25 input  -60.55 | X-H torsion
[ 11005 11000 10999 10996 ] final -100.96 input  -57.11 | X-H torsion

> <Gold.Protein.ActiveResidues>
 VAL166  LYS551  ARG553  GLY616  TRP617  ASP618  TYR619  PRO620  LYS621  CYS622 
 ASP623  PHE694  ASN695  SER759  ASP760  ASP761  ALA762  ILE779  LEU786  VAL792 
 PHE793  MET794  SER795  GLU796  ALA797  LYS798  CYS799  TRP800  GLU811  SER814 

> <Gold.Protein.RotatedAtoms>
  150.8010  134.7104  159.6600 H   0  0  0  0  0  0  0  0  0  0  0  0  # atno 6907 bound_to 6896
  152.4127  134.6092  160.0031 H   0  0  0  0  0  0  0  0  0  0  0  0  # atno 6908 bound_to 6896
  151.6331  133.3294  159.3149 H   0  0  0  0  0  0  0  0  0  0  0  0  # atno 6909 bound_to 6896
  146.2245  139.8727  142.8584 H   0  0  0  0  0  0  0  0  0  0  0  0  # atno 7974 bound_to 7965
  155.7164  140.3494  155.4996 H   0  0  0  0  0  0  0  0  0  0  0  0  # atno 8008 bound_to 7997
  155.9309  140.1084  157.1155 H   0  0  0  0  0  0  0  0  0  0  0  0  # atno 8009 bound_to 7997
  154.4085  140.1231  156.4788 H   0  0  0  0  0  0  0  0  0  0  0  0  # atno 8010 bound_to 7997
  139.7467  143.8580  152.2576 H   0  0  0  0  0  0  0  0  0  0  0  0  # atno 10167 bound_to 10162
  156.7853  130.5344  149.5744 H   0  0  0  0  0  0  0  0  0  0  0  0  # atno 10718 bound_to 10713
  154.2969  135.6242  153.5408 H   0  0  0  0  0  0  0  0  0  0  0  0  # atno 10763 bound_to 10752
  152.9845  135.5669  154.5327 H   0  0  0  0  0  0  0  0  0  0  0  0  # atno 10764 bound_to 10752
  154.4949  135.2869  155.1443 H   0  0  0  0  0  0  0  0  0  0  0  0  # atno 10765 bound_to 10752
  141.1250  133.8440  157.1170 H   0  0  0  0  0  0  0  0  0  0  0  0  # atno 11005 bound_to 11000
  145.2592  141.0071  143.3836 LP  0  0  0  0  0  0  0  0  0  0  0  0  # atno 17320 bound_to 7965
  144.9312  139.4296  143.6494 LP  0  0  0  0  0  0  0  0  0  0  0  0  # atno 17321 bound_to 7965
  139.8546  144.7147  150.9172 LP  0  0  0  0  0  0  0  0  0  0  0  0  # atno 17342 bound_to 10162
  140.7793  143.3869  151.1377 LP  0  0  0  0  0  0  0  0  0  0  0  0  # atno 17343 bound_to 10162
  156.1192  130.6098  151.0168 LP  0  0  0  0  0  0  0  0  0  0  0  0  # atno 17370 bound_to 10713
  157.6627  131.0878  150.7801 LP  0  0  0  0  0  0  0  0  0  0  0  0  # atno 17371 bound_to 10713
  140.0240  134.9932  157.0649 LP  0  0  0  0  0  0  0  0  0  0  0  0  # atno 17394 bound_to 11000
  140.4392  134.1698  155.7173 LP  0  0  0  0  0  0  0  0  0  0  0  0  # atno 17395 bound_to 11000

$$$$
