AV-unprocessed.smi:2232|AV-procd|sdf|9039|dock9
  -GOLD-   2272012243D 1   1.00000     0.00000
 Structure written by MMmdl.
 43 44  0  0  0  0  0  0  0  0  2 V2000
  151.8067  145.2530  159.1914 C   0  0  0  0  0  0  0  0  0  0  0  0
  152.1142  143.7761  159.0595 C   0  0  0  0  0  0  0  0  0  0  0  0
  153.1010  143.1699  159.8602 C   0  0  0  0  0  0  0  0  0  0  0  0
  153.3426  141.7927  159.6888 C   0  0  0  0  0  0  0  0  0  0  0  0
  154.3869  141.0752  160.5177 C   0  0  0  0  0  0  0  0  0  0  0  0
  152.6748  141.0335  158.7941 N   0  0  0  0  0  0  0  0  0  0  0  0
  151.7234  141.6071  158.0163 C   0  0  0  0  0  0  0  0  0  0  0  0
  150.9701  140.8981  157.0432 N   0  0  0  0  0  0  0  0  0  0  0  0
  151.3962  139.9403  156.2012 C   0  0  0  0  0  0  0  0  0  0  0  0
  152.5412  139.4893  156.1529 O   0  0  0  0  0  0  0  0  0  0  0  0
  150.4088  139.5224  155.3954 N   0  0  0  0  0  0  0  0  0  0  0  0
  150.5548  138.4962  154.3694 C   0  0  0  0  0  0  0  0  0  0  0  0
  151.0009  137.1510  154.9751 C   0  0  0  0  0  0  0  0  0  0  0  0
  149.9446  136.1121  154.8915 N   0  3  0  0  0  0  0  0  0  0  0  0
  150.4409  134.7721  155.2869 C   0  0  0  0  0  0  0  0  0  0  0  0
  149.3287  133.7197  155.1435 C   0  0  0  0  0  0  0  0  0  0  0  0
  148.2064  134.1025  155.9280 O   0  0  0  0  0  0  0  0  0  0  0  0
  147.6617  135.3457  155.5044 C   0  0  0  0  0  0  0  0  0  0  0  0
  148.7180  136.4536  155.6550 C   0  0  0  0  0  0  0  0  0  0  0  0
  151.4179  142.9823  158.1260 C   0  0  0  0  0  0  0  0  0  0  0  0
  152.2357  145.6654  160.1052 H   0  0  0  0  0  0  0  0  0  0  0  0
  150.7290  145.4170  159.2184 H   0  0  0  0  0  0  0  0  0  0  0  0
  152.2175  145.8000  158.3424 H   0  0  0  0  0  0  0  0  0  0  0  0
  153.6578  143.7446  160.5860 H   0  0  0  0  0  0  0  0  0  0  0  0
  154.9023  141.7638  161.1878 H   0  0  0  0  0  0  0  0  0  0  0  0
  155.1307  140.6091  159.8710 H   0  0  0  0  0  0  0  0  0  0  0  0
  153.9204  140.2967  161.1222 H   0  0  0  0  0  0  0  0  0  0  0  0
  149.9983  141.1610  156.9727 H   0  0  0  0  0  0  0  0  0  0  0  0
  149.4955  139.9401  155.5012 H   0  0  0  0  0  0  0  0  0  0  0  0
  149.6132  138.3999  153.8285 H   0  0  0  0  0  0  0  0  0  0  0  0
  151.2942  138.8416  153.6462 H   0  0  0  0  0  0  0  0  0  0  0  0
  151.8810  136.8099  154.4278 H   0  0  0  0  0  0  0  0  0  0  0  0
  151.3123  137.2685  156.0142 H   0  0  0  0  0  0  0  0  0  0  0  0
  151.2913  134.4920  154.6641 H   0  0  0  0  0  0  0  0  0  0  0  0
  150.7946  134.8026  156.3188 H   0  0  0  0  0  0  0  0  0  0  0  0
  149.0358  133.6009  154.0991 H   0  0  0  0  0  0  0  0  0  0  0  0
  149.6846  132.7481  155.4868 H   0  0  0  0  0  0  0  0  0  0  0  0
  147.3170  135.2732  154.4716 H   0  0  0  0  0  0  0  0  0  0  0  0
  146.7884  135.5746  156.1156 H   0  0  0  0  0  0  0  0  0  0  0  0
  148.9675  136.5863  156.7091 H   0  0  0  0  0  0  0  0  0  0  0  0
  148.2989  137.3965  155.3061 H   0  0  0  0  0  0  0  0  0  0  0  0
  150.6580  143.4276  157.5001 H   0  0  0  0  0  0  0  0  0  0  0  0
  149.6809  136.0417  153.9191 H   0  0  0  0  0  0  0  0  0  0  0  0
  1  2  1  0  0  0  0
  1 21  1  0  0  0  0
  1 22  1  0  0  0  0
  1 23  1  0  0  0  0
  2 20  1  0  0  0  0
  2  3  2  0  0  0  0
  3  4  1  0  0  0  0
  3 24  1  0  0  0  0
  4  5  1  0  0  0  0
  4  6  2  0  0  0  0
  5 25  1  0  0  0  0
  5 26  1  0  0  0  0
  5 27  1  0  0  0  0
  6  7  1  0  0  0  0
  7  8  1  0  0  0  0
  7 20  2  0  0  0  0
  8  9  1  0  0  0  0
  8 28  1  0  0  0  0
  9 10  2  0  0  0  0
  9 11  1  0  0  0  0
 11 12  1  0  0  0  0
 11 29  1  0  0  0  0
 12 13  1  0  0  0  0
 12 30  1  0  0  0  0
 12 31  1  0  0  0  0
 13 14  1  0  0  0  0
 13 32  1  0  0  0  0
 13 33  1  0  0  0  0
 14 19  1  0  0  0  0
 14 15  1  0  0  0  0
 14 43  1  0  0  0  0
 15 16  1  0  0  0  0
 15 34  1  0  0  0  0
 15 35  1  0  0  0  0
 16 17  1  0  0  0  0
 16 36  1  0  0  0  0
 16 37  1  0  0  0  0
 17 18  1  0  0  0  0
 18 19  1  0  0  0  0
 18 38  1  0  0  0  0
 18 39  1  0  0  0  0
 19 40  1  0  0  0  0
 19 41  1  0  0  0  0
 20 42  1  0  0  0  0
M  CHG  1  14   1
M  END
> <s_m_source_file>
AV-unprocessed.smi

> <i_m_source_file_index>
2232

> <i_lp_mmshare_version>
43012

> <i_f3d_flags>
0

> <s_epik_input>
W0NIM11jMVtjSF1jKFtDSDNdKW5jKFtjSF0xKVtOSF1DKD1PKVtOSF1bQ0gyXVtDSDJdTjJbQ0gyXVtDSDJdT1tDSDJdW0NIMl0y

> <s_epik_cmdline>
J2VwaWtfcHl0aG9uJywgJy1waCcsICc3LjAnLCAnLXRuJywgJzgnLCAnLW1hJywgJzIwMCcsICctbWV0YWxfYmluZGluZycsICctaW1hZScsICc8aW5maWxlLm1hZT4nLCAnLW9tYWUnLCAnPG91dGZpbGUubWFlPic=

> <r_epik_Ionization_Penalty>
0.602717

> <r_epik_Ionization_Penalty_Charging>
0.602531

> <r_epik_Ionization_Penalty_Neutral>
0.000186219

> <r_epik_State_Penalty>
0.617039

> <r_epik_Charging_Adjusted_Penalty>
1.21957

> <i_epik_Tot_Q>
1

> <i_epik_Tot_abs_Q>
1

> <r_epik_Metal_State_Penalty>
0.617067

> <b_epik_Metal_Only>
0

> <s_lp_Force_Field>
OPLS_2005

> <r_lp_Energy>
15.6528

> <b_lp_Chiralities_Consistent>
1

> <s_lp_Variant>
AV-unprocessed.smi:2232-2

> <Gold.Version>
5.8.1

> <Gold.Id.Protein>
6NUR|6NUR_protein|mol2

> <Gold.PLP.Fitness>
49.0229

> <Gold.PLP.PLP>
-41.3682

> <Gold.PLP.part.hbond>
-2.0621

> <Gold.PLP.part.metal>
0.0000

> <Gold.PLP.part.buried>
-6.7209

> <Gold.PLP.part.nonpolar>
-33.8442

> <Gold.PLP.part.repulsive>
0.2736

> <Gold.PLP.ligand.clash>
0.0000

> <Gold.PLP.ligand.torsion>
0.6823

> <Gold.PLP.Chemscore.Hbond>
3.0000

> <Gold.PLP.Chemscore.CHOScore>
0.0000

> <Gold.PLP.Chemscore.Metal>
0.0000

> <Gold.Chemscore.Hbonds>
donor molecule, donor type, donor heavy atom, donor atom, acceptor molecule, acceptor atom, score
      L1  H    14    43       P1  7948  1.37
      P1  H  7997  8008       L1    10  1.00

> <Gold.PLP.Chemscore.Internal.Correction>
0.0193

> <Gold.Rescore>
     Score         DG    S(hbond)    S(metal)    S(lipo)     H(rot)  DE(clash)    DE(int)     intcor
     17.91     -19.33       1.95        0.00      95.42       1.49       0.01       1.41       ----

> <Gold.Chemscore.Fitness>
17.9100

> <Gold.Chemscore.DG>
-19.3325

> <Gold.Chemscore.ZeroCoef>
-5.4800

> <Gold.Chemscore.Hbond>
1.9493

> <Gold.Chemscore.Metal>
0.0000

> <Gold.Chemscore.Lipo>
95.4183

> <Gold.Chemscore.Internal_Hbond>
0.0000

> <Gold.Chemscore.DEClash>
0.0121

> <Gold.Chemscore.DEInternal>
1.4104

> <Gold.Chemscore.Rot>
1.4930

> <Gold.Chemscore.Internal.Correction>
   9.000000E+99

> <Gold.Chemscore.Hbonds>
donor molecule, donor type, donor heavy atom, donor atom, acceptor molecule, acceptor atom, score
      L1  H    14    43       P1  7948  0.27
      P1  H  7997  8008       L1    10  1.00

> <Gold.Chemscore.Hbond.Weighted>
-6.5105

> <Gold.Chemscore.Metal.Weighted>
-0.0000

> <Gold.Chemscore.Lipo.Weighted>
-11.1639

> <Gold.Chemscore.Internal_Hbond.Weighted>
0.0000

> <Gold.Chemscore.DEClash.Weighted>
0.0121

> <Gold.Chemscore.DEInternal.Weighted>
1.4104

> <Gold.Chemscore.Rot.Weighted>
3.8220

> <Gold.Chemscore.Internal.Correction.Weighted>
   9.000000E+99

> <Gold.Protein.RotatedTorsions>
[ 6907 6896 6895 6894 ] final -125.78 input  -60.11 | X-H torsion
[ 7974 7965 7964 7962 ] final  129.23 input  175.53 | X-H torsion
[ 8008 7997 7996 7995 ] final  -48.99 input   59.86 | X-H torsion
[ 10167 10162 10161 10158 ] final   27.86 input  -65.29 | X-H torsion
[ 10718 10713 10712 10709 ] final  -84.04 input   66.30 | X-H torsion
[ 10763 10752 10751 10750 ] final   87.02 input  -60.55 | X-H torsion
[ 11005 11000 10999 10996 ] final  109.80 input  -57.11 | X-H torsion

> <Gold.Protein.ActiveResidues>
 VAL166  LYS551  ARG553  GLY616  TRP617  ASP618  TYR619  PRO620  LYS621  CYS622 
 ASP623  PHE694  ASN695  SER759  ASP760  ASP761  ALA762  ILE779  LEU786  VAL792 
 PHE793  MET794  SER795  GLU796  ALA797  LYS798  CYS799  TRP800  GLU811  SER814 

> <Gold.Protein.RotatedAtoms>
  150.8902  133.7253  159.2906 H   0  0  0  0  0  0  0  0  0  0  0  0  # atno 6907 bound_to 6896
  151.4806  135.1050  159.9786 H   0  0  0  0  0  0  0  0  0  0  0  0  # atno 6908 bound_to 6896
  152.4815  133.8219  159.7113 H   0  0  0  0  0  0  0  0  0  0  0  0  # atno 6909 bound_to 6896
  145.0309  139.4047  143.5150 H   0  0  0  0  0  0  0  0  0  0  0  0  # atno 7974 bound_to 7965
  154.4037  140.1308  156.4430 H   0  0  0  0  0  0  0  0  0  0  0  0  # atno 8008 bound_to 7997
  155.7440  140.3489  155.5098 H   0  0  0  0  0  0  0  0  0  0  0  0  # atno 8009 bound_to 7997
  155.9012  140.1019  157.1339 H   0  0  0  0  0  0  0  0  0  0  0  0  # atno 8010 bound_to 7997
  140.4902  144.0479  150.6294 H   0  0  0  0  0  0  0  0  0  0  0  0  # atno 10167 bound_to 10162
  156.0011  130.4685  150.4349 H   0  0  0  0  0  0  0  0  0  0  0  0  # atno 10718 bound_to 10713
  153.1627  135.4559  154.9794 H   0  0  0  0  0  0  0  0  0  0  0  0  # atno 10763 bound_to 10752
  154.7909  135.3220  154.7781 H   0  0  0  0  0  0  0  0  0  0  0  0  # atno 10764 bound_to 10752
  153.8269  135.6942  153.4874 H   0  0  0  0  0  0  0  0  0  0  0  0  # atno 10765 bound_to 10752
  139.8869  134.9468  156.6182 H   0  0  0  0  0  0  0  0  0  0  0  0  # atno 11005 bound_to 11000
  146.3498  139.9859  142.8691 LP  0  0  0  0  0  0  0  0  0  0  0  0  # atno 17320 bound_to 7965
  145.1771  140.9749  143.4288 LP  0  0  0  0  0  0  0  0  0  0  0  0  # atno 17321 bound_to 7965
  140.3746  143.2836  152.0240 LP  0  0  0  0  0  0  0  0  0  0  0  0  # atno 17342 bound_to 10162
  139.4850  144.6203  151.7267 LP  0  0  0  0  0  0  0  0  0  0  0  0  # atno 17343 bound_to 10162
  157.2395  131.0522  151.2445 LP  0  0  0  0  0  0  0  0  0  0  0  0  # atno 17370 bound_to 10713
  157.3634  130.7143  149.6517 LP  0  0  0  0  0  0  0  0  0  0  0  0  # atno 17371 bound_to 10713
  140.7760  133.8699  155.8529 LP  0  0  0  0  0  0  0  0  0  0  0  0  # atno 17394 bound_to 11000
  140.9802  134.1416  157.4501 LP  0  0  0  0  0  0  0  0  0  0  0  0  # atno 17395 bound_to 11000

$$$$
