AV-unprocessed.smi:2204|AV-procd|sdf|8940|dock3
  -GOLD-   2272012153D 1   1.00000     0.00000
 Structure written by MMmdl.
 39 40  0  0  0  0  0  0  0  0  1 V2000
  153.7760  141.3589  161.4102 C   0  0  0  0  0  0  0  0  0  0  0  0
  153.0402  142.4341  160.6668 C   0  0  0  0  0  0  0  0  0  0  0  0
  152.6091  143.7014  161.1489 C   0  0  0  0  0  0  0  0  0  0  0  0
  151.9891  144.2779  160.0764 C   0  0  0  0  0  0  0  0  0  0  0  0
  151.3183  145.6061  159.9504 C   0  0  0  0  0  0  0  0  0  0  0  0
  152.0708  143.3737  159.0321 N   0  0  0  0  0  0  0  0  0  0  0  0
  151.5425  143.4831  157.6799 C   0  0  0  0  0  0  0  0  0  0  0  0
  151.0543  142.1247  157.1734 C   0  0  0  0  0  0  0  0  0  0  0  0
  151.8072  141.1515  157.1913 O   0  0  0  0  0  0  0  0  0  0  0  0
  149.7971  142.0845  156.7062 N   0  0  0  0  0  0  0  0  0  0  0  0
  149.1680  140.9501  156.0379 C   0  0  1  0  0  0  0  0  0  0  0  0
  148.1598  140.2761  156.9814 C   0  0  0  0  0  0  0  0  0  0  0  0
  148.5082  141.4336  154.7325 C   0  0  1  0  0  0  0  0  0  0  0  0
  147.9797  140.3146  153.8290 C   0  0  0  0  0  0  0  0  0  0  0  0
  146.8392  140.9693  153.0639 C   0  0  0  0  0  0  0  0  0  0  0  0
  146.6236  142.3045  153.7806 C   0  0  0  0  0  0  0  0  0  0  0  0
  147.3334  142.1813  155.0041 O   0  0  0  0  0  0  0  0  0  0  0  0
  152.7188  142.2456  159.3977 N   0  0  0  0  0  0  0  0  0  0  0  0
  153.7460  141.5336  162.4858 H   0  0  0  0  0  0  0  0  0  0  0  0
  154.8230  141.3224  161.1085 H   0  0  0  0  0  0  0  0  0  0  0  0
  153.3390  140.3777  161.2222 H   0  0  0  0  0  0  0  0  0  0  0  0
  152.7321  144.1220  162.1359 H   0  0  0  0  0  0  0  0  0  0  0  0
  151.3780  146.1626  160.8857 H   0  0  0  0  0  0  0  0  0  0  0  0
  150.2642  145.4875  159.6985 H   0  0  0  0  0  0  0  0  0  0  0  0
  151.7887  146.2075  159.1723 H   0  0  0  0  0  0  0  0  0  0  0  0
  150.7260  144.2059  157.6731 H   0  0  0  0  0  0  0  0  0  0  0  0
  152.3164  143.8689  157.0143 H   0  0  0  0  0  0  0  0  0  0  0  0
  149.2593  142.9388  156.7451 H   0  0  0  0  0  0  0  0  0  0  0  0
  149.9372  140.2214  155.7747 H   0  0  0  0  0  0  0  0  0  0  0  0
  147.6904  139.4159  156.5034 H   0  0  0  0  0  0  0  0  0  0  0  0
  147.3681  140.9659  157.2760 H   0  0  0  0  0  0  0  0  0  0  0  0
  148.6473  139.9196  157.8893 H   0  0  0  0  0  0  0  0  0  0  0  0
  149.2010  142.0611  154.1677 H   0  0  0  0  0  0  0  0  0  0  0  0
  148.7505  139.9082  153.1730 H   0  0  0  0  0  0  0  0  0  0  0  0
  147.5884  139.4931  154.4311 H   0  0  0  0  0  0  0  0  0  0  0  0
  147.0909  141.1264  152.0145 H   0  0  0  0  0  0  0  0  0  0  0  0
  145.9448  140.3464  153.1051 H   0  0  0  0  0  0  0  0  0  0  0  0
  147.0508  143.1242  153.2011 H   0  0  0  0  0  0  0  0  0  0  0  0
  145.5698  142.5234  153.9538 H   0  0  0  0  0  0  0  0  0  0  0  0
  1  2  1  0  0  0  0
  1 19  1  0  0  0  0
  1 20  1  0  0  0  0
  1 21  1  0  0  0  0
  2 18  2  0  0  0  0
  2  3  1  0  0  0  0
  3  4  2  0  0  0  0
  3 22  1  0  0  0  0
  4  5  1  0  0  0  0
  4  6  1  0  0  0  0
  5 23  1  0  0  0  0
  5 24  1  0  0  0  0
  5 25  1  0  0  0  0
  6  7  1  0  0  0  0
  6 18  1  0  0  0  0
  7  8  1  0  0  0  0
  7 26  1  0  0  0  0
  7 27  1  0  0  0  0
  8  9  2  0  0  0  0
  8 10  1  0  0  0  0
 10 11  1  0  0  0  0
 10 28  1  0  0  0  0
 11 12  1  0  0  0  0
 11 13  1  0  0  0  0
 11 29  1  0  0  0  0
 12 30  1  0  0  0  0
 12 31  1  0  0  0  0
 12 32  1  0  0  0  0
 13 17  1  0  0  0  0
 13 14  1  0  0  0  0
 13 33  1  0  0  0  0
 14 15  1  0  0  0  0
 14 34  1  0  0  0  0
 14 35  1  0  0  0  0
 15 16  1  0  0  0  0
 15 36  1  0  0  0  0
 15 37  1  0  0  0  0
 16 17  1  0  0  0  0
 16 38  1  0  0  0  0
 16 39  1  0  0  0  0
M  END
> <s_m_source_file>
AV-unprocessed.smi

> <i_m_source_file_index>
2204

> <i_lp_mmshare_version>
43012

> <i_f3d_flags>
0

> <s_epik_input>
W0NIM11jMVtjSF1jKFtDSDNdKW4objEpW0NIMl1DKD1PKVtOSF1bQ0BIXShbQ0gzXSlbQ0BASF0yW0NIMl1bQ0gyXVtDSDJdTzI=

> <s_epik_cmdline>
J2VwaWtfcHl0aG9uJywgJy1waCcsICc3LjAnLCAnLXRuJywgJzgnLCAnLW1hJywgJzIwMCcsICctbWV0YWxfYmluZGluZycsICctaW1hZScsICc8aW5maWxlLm1hZT4nLCAnLW9tYWUnLCAnPG91dGZpbGUubWFlPic=

> <r_lp_tautomer_probability>
1

> <r_epik_Ionization_Penalty>
0.000433354

> <r_epik_Ionization_Penalty_Charging>
0

> <r_epik_Ionization_Penalty_Neutral>
0.000433354

> <r_epik_State_Penalty>
-0

> <r_epik_Charging_Adjusted_Penalty>
0

> <i_epik_Tot_Q>
0

> <i_epik_Tot_abs_Q>
0

> <r_epik_Metal_State_Penalty>
-0

> <b_epik_Metal_Only>
0

> <s_lp_Force_Field>
OPLS_2005

> <r_lp_Energy>
15.4652

> <b_lp_Chiralities_Consistent>
1

> <s_lp_Variant>
AV-unprocessed.smi:2204-4

> <Gold.Version>
5.8.1

> <Gold.Id.Protein>
6NUR|6NUR_protein|mol2

> <Gold.PLP.Fitness>
41.4258

> <Gold.PLP.PLP>
-40.5620

> <Gold.PLP.part.hbond>
-1.0000

> <Gold.PLP.part.metal>
0.0000

> <Gold.PLP.part.buried>
-4.6593

> <Gold.PLP.part.nonpolar>
-34.8549

> <Gold.PLP.part.repulsive>
0.9210

> <Gold.PLP.ligand.clash>
0.0000

> <Gold.PLP.ligand.torsion>
0.6176

> <Gold.PLP.Chemscore.Hbond>
0.6880

> <Gold.PLP.Chemscore.CHOScore>
0.0000

> <Gold.PLP.Chemscore.Metal>
0.0000

> <Gold.Chemscore.Hbonds>
donor molecule, donor type, donor heavy atom, donor atom, acceptor molecule, acceptor atom, score
      L1  H    10    28       P1  8028  0.66

> <Gold.PLP.Chemscore.Internal.Correction>
0.0350

> <Gold.Rescore>
     Score         DG    S(hbond)    S(metal)    S(lipo)     H(rot)  DE(clash)    DE(int)     intcor
     13.71     -15.95       0.64        0.00     103.94       1.50       0.13       2.11       ----

> <Gold.Chemscore.Fitness>
13.7051

> <Gold.Chemscore.DG>
-15.9477

> <Gold.Chemscore.ZeroCoef>
-5.4800

> <Gold.Chemscore.Hbond>
0.6433

> <Gold.Chemscore.Metal>
0.0000

> <Gold.Chemscore.Lipo>
103.9353

> <Gold.Chemscore.Internal_Hbond>
0.0000

> <Gold.Chemscore.DEClash>
0.1323

> <Gold.Chemscore.DEInternal>
2.1104

> <Gold.Chemscore.Rot>
1.5005

> <Gold.Chemscore.Internal.Correction>
   9.000000E+99

> <Gold.Chemscore.Hbonds>
donor molecule, donor type, donor heavy atom, donor atom, acceptor molecule, acceptor atom, score
      L1  H    10    28       P1  8028  0.65

> <Gold.Chemscore.Hbond.Weighted>
-2.1485

> <Gold.Chemscore.Metal.Weighted>
-0.0000

> <Gold.Chemscore.Lipo.Weighted>
-12.1604

> <Gold.Chemscore.Internal_Hbond.Weighted>
0.0000

> <Gold.Chemscore.DEClash.Weighted>
0.1323

> <Gold.Chemscore.DEInternal.Weighted>
2.1104

> <Gold.Chemscore.Rot.Weighted>
3.8412

> <Gold.Chemscore.Internal.Correction.Weighted>
   9.000000E+99

> <Gold.Protein.RotatedTorsions>
[ 6907 6896 6895 6894 ] final   52.71 input  -60.11 | X-H torsion
[ 7974 7965 7964 7962 ] final  -67.29 input  175.53 | X-H torsion
[ 8008 7997 7996 7995 ] final  -42.15 input   59.86 | X-H torsion
[ 10167 10162 10161 10158 ] final  -59.50 input  -65.29 | X-H torsion
[ 10718 10713 10712 10709 ] final  -86.02 input   66.30 | X-H torsion
[ 10763 10752 10751 10750 ] final   68.13 input  -60.55 | X-H torsion
[ 11005 11000 10999 10996 ] final  121.42 input  -57.11 | X-H torsion

> <Gold.Protein.ActiveResidues>
 VAL166  LYS551  ARG553  GLY616  TRP617  ASP618  TYR619  PRO620  LYS621  CYS622 
 ASP623  PHE694  ASN695  SER759  ASP760  ASP761  ALA762  ILE779  LEU786  VAL792 
 PHE793  MET794  SER795  GLU796  ALA797  LYS798  CYS799  TRP800  GLU811  SER814 

> <Gold.Protein.RotatedAtoms>
  152.3261  134.7318  160.0301 H   0  0  0  0  0  0  0  0  0  0  0  0  # atno 6907 bound_to 6896
  151.7751  133.3339  159.3463 H   0  0  0  0  0  0  0  0  0  0  0  0  # atno 6908 bound_to 6896
  150.7397  134.5914  159.6034 H   0  0  0  0  0  0  0  0  0  0  0  0  # atno 6909 bound_to 6896
  145.7310  140.8997  143.0580 H   0  0  0  0  0  0  0  0  0  0  0  0  # atno 7974 bound_to 7965
  154.4000  140.1481  156.3308 H   0  0  0  0  0  0  0  0  0  0  0  0  # atno 8008 bound_to 7997
  155.8445  140.3460  155.5632 H   0  0  0  0  0  0  0  0  0  0  0  0  # atno 8009 bound_to 7997
  155.8051  140.0876  157.1926 H   0  0  0  0  0  0  0  0  0  0  0  0  # atno 8010 bound_to 7997
  140.6131  143.2393  151.5662 H   0  0  0  0  0  0  0  0  0  0  0  0  # atno 10167 bound_to 10162
  155.9992  130.4750  150.4650 H   0  0  0  0  0  0  0  0  0  0  0  0  # atno 10718 bound_to 10713
  153.0220  135.5258  154.7087 H   0  0  0  0  0  0  0  0  0  0  0  0  # atno 10763 bound_to 10752
  154.6176  135.2885  155.0365 H   0  0  0  0  0  0  0  0  0  0  0  0  # atno 10764 bound_to 10752
  154.1364  135.6585  153.4985 H   0  0  0  0  0  0  0  0  0  0  0  0  # atno 10765 bound_to 10752
  139.9225  134.9639  156.7956 H   0  0  0  0  0  0  0  0  0  0  0  0  # atno 11005 bound_to 11000
  144.6893  139.9331  143.7472 LP  0  0  0  0  0  0  0  0  0  0  0  0  # atno 17320 bound_to 7965
  146.0537  139.3536  143.0624 LP  0  0  0  0  0  0  0  0  0  0  0  0  # atno 17321 bound_to 7965
  139.5377  144.2735  152.1286 LP  0  0  0  0  0  0  0  0  0  0  0  0  # atno 17342 bound_to 10162
  140.1938  144.4725  150.6465 LP  0  0  0  0  0  0  0  0  0  0  0  0  # atno 17343 bound_to 10162
  157.2671  131.0579  151.2283 LP  0  0  0  0  0  0  0  0  0  0  0  0  # atno 17370 bound_to 10713
  157.3377  130.7017  149.6362 LP  0  0  0  0  0  0  0  0  0  0  0  0  # atno 17371 bound_to 10713
  140.6432  133.9799  155.7718 LP  0  0  0  0  0  0  0  0  0  0  0  0  # atno 17394 bound_to 11000
  141.0758  134.0138  157.3460 LP  0  0  0  0  0  0  0  0  0  0  0  0  # atno 17395 bound_to 11000

$$$$
