AV-unprocessed.smi:3283|AV-procd|sdf|12568|dock8
  -GOLD-   2272018483D 1   1.00000     0.00000
 Structure written by MMmdl.
 44 45  0  0  0  0  0  0  0  0  2 V2000
  152.2853  145.2033  156.9338 C   0  0  0  0  0  0  0  0  0  0  0  0
  152.1816  144.7504  158.3805 C   0  0  0  0  0  0  0  0  0  0  0  0
  152.0664  145.6418  159.3844 C   0  0  0  0  0  0  0  0  0  0  0  0
  151.9994  145.2801  160.8566 C   0  0  0  0  0  0  0  0  0  0  0  0
  151.8472  143.7698  161.0943 C   0  0  0  0  0  0  0  0  0  0  0  0
  152.6885  142.9544  160.0962 C   0  0  1  0  0  0  0  0  0  0  0  0
  152.7477  141.4675  160.4853 C   0  0  0  0  0  0  0  0  0  0  0  0
  152.2596  143.2405  158.6241 C   0  0  1  0  0  0  0  0  0  0  0  0
  150.9337  142.5611  158.1933 C   0  0  0  0  0  0  0  0  0  0  0  0
  150.7515  142.5678  156.7278 N   0  3  0  0  0  0  0  0  0  0  0  0
  150.4833  141.2401  156.1428 C   0  0  0  0  0  0  0  0  0  0  0  0
  151.7540  140.3779  156.1353 C   0  0  0  0  0  0  0  0  0  0  0  0
  151.5477  138.9765  155.6466 C   0  0  0  0  0  0  0  0  0  0  0  0
  150.7957  138.4801  154.6167 C   0  0  0  0  0  0  0  0  0  0  0  0
  151.0149  137.0760  154.6704 C   0  0  0  0  0  0  0  0  0  0  0  0
  151.8326  136.7279  155.6480 N   0  0  0  0  0  0  0  0  0  0  0  0
  152.1610  137.8918  156.2471 N   0  0  0  0  0  0  0  0  0  0  0  0
  153.0611  137.8742  157.3843 C   0  0  0  0  0  0  0  0  0  0  0  0
  153.2072  144.8312  156.4865 H   0  0  0  0  0  0  0  0  0  0  0  0
  152.2952  146.2913  156.8595 H   0  0  0  0  0  0  0  0  0  0  0  0
  151.4461  144.8403  156.3423 H   0  0  0  0  0  0  0  0  0  0  0  0
  152.0431  146.6986  159.1611 H   0  0  0  0  0  0  0  0  0  0  0  0
  152.9176  145.6366  161.3244 H   0  0  0  0  0  0  0  0  0  0  0  0
  151.1765  145.8188  161.3269 H   0  0  0  0  0  0  0  0  0  0  0  0
  152.1392  143.5382  162.1193 H   0  0  0  0  0  0  0  0  0  0  0  0
  150.7970  143.4899  161.0110 H   0  0  0  0  0  0  0  0  0  0  0  0
  153.7140  143.3171  160.1899 H   0  0  0  0  0  0  0  0  0  0  0  0
  151.7528  141.0272  160.5555 H   0  0  0  0  0  0  0  0  0  0  0  0
  153.2221  141.3421  161.4591 H   0  0  0  0  0  0  0  0  0  0  0  0
  153.3295  140.8920  159.7650 H   0  0  0  0  0  0  0  0  0  0  0  0
  153.0554  142.8691  157.9765 H   0  0  0  0  0  0  0  0  0  0  0  0
  150.8869  141.5385  158.5677 H   0  0  0  0  0  0  0  0  0  0  0  0
  150.0761  143.0806  158.6190 H   0  0  0  0  0  0  0  0  0  0  0  0
  149.9834  143.1839  156.5022 H   0  0  0  0  0  0  0  0  0  0  0  0
  149.7018  140.7464  156.7220 H   0  0  0  0  0  0  0  0  0  0  0  0
  150.1070  141.3658  155.1267 H   0  0  0  0  0  0  0  0  0  0  0  0
  152.5103  140.8608  155.5154 H   0  0  0  0  0  0  0  0  0  0  0  0
  152.1666  140.3421  157.1444 H   0  0  0  0  0  0  0  0  0  0  0  0
  150.1781  139.0337  153.9253 H   0  0  0  0  0  0  0  0  0  0  0  0
  150.6069  136.3052  154.0333 H   0  0  0  0  0  0  0  0  0  0  0  0
  152.5318  138.2136  158.2749 H   0  0  0  0  0  0  0  0  0  0  0  0
  153.9058  138.5371  157.1957 H   0  0  0  0  0  0  0  0  0  0  0  0
  153.4394  136.8665  157.5613 H   0  0  0  0  0  0  0  0  0  0  0  0
  151.5938  142.9349  156.3081 H   0  0  0  0  0  0  0  0  0  0  0  0
  1  2  1  0  0  0  0
  1 19  1  0  0  0  0
  1 20  1  0  0  0  0
  1 21  1  0  0  0  0
  2  8  1  0  0  0  0
  2  3  2  0  0  0  0
  3  4  1  0  0  0  0
  3 22  1  0  0  0  0
  4  5  1  0  0  0  0
  4 23  1  0  0  0  0
  4 24  1  0  0  0  0
  5  6  1  0  0  0  0
  5 25  1  0  0  0  0
  5 26  1  0  0  0  0
  6  7  1  0  0  0  0
  6  8  1  0  0  0  0
  6 27  1  0  0  0  0
  7 28  1  0  0  0  0
  7 29  1  0  0  0  0
  7 30  1  0  0  0  0
  8  9  1  0  0  0  0
  8 31  1  0  0  0  0
  9 10  1  0  0  0  0
  9 32  1  0  0  0  0
  9 33  1  0  0  0  0
 10 11  1  0  0  0  0
 10 34  1  0  0  0  0
 10 44  1  0  0  0  0
 11 12  1  0  0  0  0
 11 35  1  0  0  0  0
 11 36  1  0  0  0  0
 12 13  1  0  0  0  0
 12 37  1  0  0  0  0
 12 38  1  0  0  0  0
 13 17  1  0  0  0  0
 13 14  2  0  0  0  0
 14 15  1  0  0  0  0
 14 39  1  0  0  0  0
 15 16  2  0  0  0  0
 15 40  1  0  0  0  0
 16 17  1  0  0  0  0
 17 18  1  0  0  0  0
 18 41  1  0  0  0  0
 18 42  1  0  0  0  0
 18 43  1  0  0  0  0
M  CHG  1  10   1
M  END
> <s_m_source_file>
AV-unprocessed.smi

> <i_m_source_file_index>
3283

> <i_lp_mmshare_version>
43012

> <i_f3d_flags>
0

> <s_epik_input>
W0NIM11DMT1bQ0hdW0NIMl1bQ0gyXVtDQEBIXShbQ0gzXSlbQ0BIXTFbQ0gyXVtOSF1bQ0gyXVtDSDJdYzJbY0hdW2NIXW5uMltDSDNd

> <s_epik_cmdline>
J2VwaWtfcHl0aG9uJywgJy1waCcsICc3LjAnLCAnLXRuJywgJzgnLCAnLW1hJywgJzIwMCcsICctbWV0YWxfYmluZGluZycsICctaW1hZScsICc8aW5maWxlLm1hZT4nLCAnLW9tYWUnLCAnPG91dGZpbGUubWFlPic=

> <r_lp_tautomer_probability>
1

> <r_epik_Ionization_Penalty>
0.000866911

> <r_epik_Ionization_Penalty_Charging>
0.000836385

> <r_epik_Ionization_Penalty_Neutral>
3.05258e-05

> <r_epik_State_Penalty>
-0

> <r_epik_Charging_Adjusted_Penalty>
0.000836385

> <i_epik_Tot_Q>
1

> <i_epik_Tot_abs_Q>
1

> <r_epik_Metal_State_Penalty>
-0

> <b_epik_Metal_Only>
0

> <s_lp_Force_Field>
OPLS_2005

> <r_lp_Energy>
14.2558

> <b_lp_Chiralities_Consistent>
1

> <s_lp_Variant>
AV-unprocessed.smi:3283-1

> <Gold.Version>
5.8.1

> <Gold.Id.Protein>
6NUR|6NUR_protein|mol2

> <Gold.PLP.Fitness>
54.9098

> <Gold.PLP.PLP>
-44.6630

> <Gold.PLP.part.hbond>
-2.0000

> <Gold.PLP.part.metal>
0.0000

> <Gold.PLP.part.buried>
-4.0200

> <Gold.PLP.part.nonpolar>
-38.7148

> <Gold.PLP.part.repulsive>
0.1244

> <Gold.PLP.ligand.clash>
0.0000

> <Gold.PLP.ligand.torsion>
0.7615

> <Gold.PLP.Chemscore.Hbond>
3.0000

> <Gold.PLP.Chemscore.CHOScore>
0.8899

> <Gold.PLP.Chemscore.Metal>
0.0000

> <Gold.Chemscore.Hbonds>
donor molecule, donor type, donor heavy atom, donor atom, acceptor molecule, acceptor atom, score
      L1  H    10    34       P1  8028  1.82
      P1  H 10752 10764       L1    16  0.72
      L1  C    15    40       P1  7948  0.28
      L1  C    15    40       P1  7949  0.42

> <Gold.PLP.Chemscore.Internal.Correction>
0.0999

> <Gold.Rescore>
     Score         DG    S(hbond)    S(metal)    S(lipo)     H(rot)  DE(clash)    DE(int)     intcor
     21.11     -25.51       1.84        0.00     151.11       1.48       2.83       1.57       ----

> <Gold.Chemscore.Fitness>
21.1054

> <Gold.Chemscore.DG>
-25.5066

> <Gold.Chemscore.ZeroCoef>
-5.4800

> <Gold.Chemscore.Hbond>
1.8406

> <Gold.Chemscore.Metal>
0.0000

> <Gold.Chemscore.Lipo>
151.1090

> <Gold.Chemscore.Internal_Hbond>
0.0000

> <Gold.Chemscore.DEClash>
2.8309

> <Gold.Chemscore.DEInternal>
1.5703

> <Gold.Chemscore.Rot>
1.4847

> <Gold.Chemscore.Internal.Correction>
   9.000000E+99

> <Gold.Chemscore.Hbonds>
donor molecule, donor type, donor heavy atom, donor atom, acceptor molecule, acceptor atom, score
      L1  H    10    34       P1  8028  0.88
      P1  H 10752 10764       L1    16  0.09

> <Gold.Chemscore.Hbond.Weighted>
-6.1476

> <Gold.Chemscore.Metal.Weighted>
-0.0000

> <Gold.Chemscore.Lipo.Weighted>
-17.6798

> <Gold.Chemscore.Internal_Hbond.Weighted>
0.0000

> <Gold.Chemscore.DEClash.Weighted>
2.8309

> <Gold.Chemscore.DEInternal.Weighted>
1.5703

> <Gold.Chemscore.Rot.Weighted>
3.8008

> <Gold.Chemscore.Internal.Correction.Weighted>
   9.000000E+99

> <Gold.Protein.RotatedTorsions>
[ 6907 6896 6895 6894 ] final  128.95 input  -60.11 | X-H torsion
[ 7974 7965 7964 7962 ] final -179.02 input  175.53 | X-H torsion
[ 8008 7997 7996 7995 ] final   -7.14 input   59.86 | X-H torsion
[ 10167 10162 10161 10158 ] final  -76.36 input  -65.29 | X-H torsion
[ 10718 10713 10712 10709 ] final  -71.62 input   66.30 | X-H torsion
[ 10763 10752 10751 10750 ] final  -63.55 input  -60.55 | X-H torsion
[ 11005 11000 10999 10996 ] final -134.92 input  -57.11 | X-H torsion

> <Gold.Protein.ActiveResidues>
 VAL166  LYS551  ARG553  GLY616  TRP617  ASP618  TYR619  PRO620  LYS621  CYS622 
 ASP623  PHE694  ASN695  SER759  ASP760  ASP761  ALA762  ILE779  LEU786  VAL792 
 PHE793  MET794  SER795  GLU796  ALA797  LYS798  CYS799  TRP800  GLU811  SER814 

> <Gold.Protein.RotatedAtoms>
  152.3671  133.6370  159.6058 H   0  0  0  0  0  0  0  0  0  0  0  0  # atno 6907 bound_to 6896
  150.7641  133.9331  159.3442 H   0  0  0  0  0  0  0  0  0  0  0  0  # atno 6908 bound_to 6896
  151.7160  135.0905  160.0327 H   0  0  0  0  0  0  0  0  0  0  0  0  # atno 6909 bound_to 6896
  144.7134  140.0781  143.6427 H   0  0  0  0  0  0  0  0  0  0  0  0  # atno 7974 bound_to 7965
  154.5868  140.2415  155.7976 H   0  0  0  0  0  0  0  0  0  0  0  0  # atno 8008 bound_to 7997
  156.2219  140.2995  155.9927 H   0  0  0  0  0  0  0  0  0  0  0  0  # atno 8009 bound_to 7997
  155.2444  140.0408  157.2969 H   0  0  0  0  0  0  0  0  0  0  0  0  # atno 8010 bound_to 7997
  140.4864  143.2390  151.7977 H   0  0  0  0  0  0  0  0  0  0  0  0  # atno 10167 bound_to 10162
  156.0355  130.4355  150.2471 H   0  0  0  0  0  0  0  0  0  0  0  0  # atno 10718 bound_to 10713
  154.3167  135.6204  153.5490 H   0  0  0  0  0  0  0  0  0  0  0  0  # atno 10763 bound_to 10752
  152.9824  135.5714  154.5115 H   0  0  0  0  0  0  0  0  0  0  0  0  # atno 10764 bound_to 10752
  154.4776  135.2862  155.1572 H   0  0  0  0  0  0  0  0  0  0  0  0  # atno 10765 bound_to 10752
  140.8946  134.1768  157.4504 H   0  0  0  0  0  0  0  0  0  0  0  0  # atno 11005 bound_to 11000
  145.9726  139.2881  143.1090 LP  0  0  0  0  0  0  0  0  0  0  0  0  # atno 17320 bound_to 7965
  145.9100  140.9186  143.0459 LP  0  0  0  0  0  0  0  0  0  0  0  0  # atno 17321 bound_to 7965
  139.4843  144.4706  151.9429 LP  0  0  0  0  0  0  0  0  0  0  0  0  # atno 17342 bound_to 10162
  140.3792  144.2757  150.5910 LP  0  0  0  0  0  0  0  0  0  0  0  0  # atno 17343 bound_to 10162
  157.0570  131.0079  151.3235 LP  0  0  0  0  0  0  0  0  0  0  0  0  # atno 17370 bound_to 10713
  157.5098  130.7931  149.7693 LP  0  0  0  0  0  0  0  0  0  0  0  0  # atno 17371 bound_to 10713
  139.8734  134.9873  156.5360 LP  0  0  0  0  0  0  0  0  0  0  0  0  # atno 17394 bound_to 11000
  140.8305  133.8282  155.8980 LP  0  0  0  0  0  0  0  0  0  0  0  0  # atno 17395 bound_to 11000

$$$$
