AV-unprocessed.smi:1492|AV-procd|sdf|6036|dock1
  -GOLD-   22720 6143D 1   1.00000     0.00000
 Structure written by MMmdl.
 52 53  0  0  0  0  0  0  0  0  1 V2000
  150.4529  139.9280  155.1886 C   0  0  0  0  0  0  0  0  0  0  0  0
  150.0406  138.6180  155.8871 C   0  0  0  0  0  0  0  0  0  0  0  0
  149.6837  138.6828  157.4119 C   0  0  1  0  0  0  0  0  0  0  0  0
  148.5586  139.7311  157.6050 C   0  0  0  0  0  0  0  0  0  0  0  0
  149.1017  137.3020  157.8416 C   0  0  0  0  0  0  0  0  0  0  0  0
  148.5984  137.3364  159.2086 N   0  0  0  0  0  0  0  0  0  0  0  0
  148.3025  136.2606  159.9485 C   0  0  0  0  0  0  0  0  0  0  0  0
  148.3451  135.1075  159.5210 O   0  0  0  0  0  0  0  0  0  0  0  0
  147.9166  136.5351  161.4013 C   0  0  0  0  0  0  0  0  0  0  0  0
  146.5432  136.0051  161.8118 C   0  0  0  0  0  0  0  0  0  0  0  0
  146.2983  134.6835  162.0517 C   0  0  0  0  0  0  0  0  0  0  0  0
  147.3672  133.6117  161.9278 C   0  0  0  0  0  0  0  0  0  0  0  0
  145.0276  134.2284  162.4301 N   0  0  0  0  0  0  0  0  0  0  0  0
  144.0713  135.0883  162.5563 C   0  0  0  0  0  0  0  0  0  0  0  0
  142.6563  134.7243  162.9531 C   0  0  0  0  0  0  0  0  0  0  0  0
  144.2562  136.4519  162.3346 N   0  0  0  0  0  0  0  0  0  0  0  0
  145.4458  136.9798  161.9690 C   0  0  0  0  0  0  0  0  0  0  0  0
  145.5622  138.1929  161.8008 O   0  0  0  0  0  0  0  0  0  0  0  0
  150.9079  139.0143  158.2047 N   0  0  0  0  0  0  0  0  0  0  0  0
  151.4556  140.3607  157.9868 C   0  0  0  0  0  0  0  0  0  0  0  0
  152.6366  140.6699  158.9226 C   0  0  0  0  0  0  0  0  0  0  0  0
  153.6514  139.6886  158.7564 O   0  0  0  0  0  0  0  0  0  0  0  0
  153.1787  138.3757  159.0273 C   0  0  0  0  0  0  0  0  0  0  0  0
  152.0049  138.0434  158.0908 C   0  0  0  0  0  0  0  0  0  0  0  0
  143.4731  137.0779  162.4541 H   0  0  0  0  0  0  0  0  0  0  0  0
  150.7681  139.7248  154.1650 H   0  0  0  0  0  0  0  0  0  0  0  0
  151.2867  140.4164  155.6914 H   0  0  0  0  0  0  0  0  0  0  0  0
  149.6268  140.6364  155.1255 H   0  0  0  0  0  0  0  0  0  0  0  0
  149.1976  138.1994  155.3346 H   0  0  0  0  0  0  0  0  0  0  0  0
  150.8659  137.9229  155.7350 H   0  0  0  0  0  0  0  0  0  0  0  0
  147.6595  139.4606  157.0521 H   0  0  0  0  0  0  0  0  0  0  0  0
  148.8541  140.7207  157.2580 H   0  0  0  0  0  0  0  0  0  0  0  0
  148.2575  139.8228  158.6482 H   0  0  0  0  0  0  0  0  0  0  0  0
  148.3103  136.9646  157.1733 H   0  0  0  0  0  0  0  0  0  0  0  0
  149.8615  136.5240  157.7598 H   0  0  0  0  0  0  0  0  0  0  0  0
  148.5189  138.2469  159.6388 H   0  0  0  0  0  0  0  0  0  0  0  0
  148.6912  136.1284  162.0530 H   0  0  0  0  0  0  0  0  0  0  0  0
  147.9523  137.6114  161.5708 H   0  0  0  0  0  0  0  0  0  0  0  0
  148.2171  133.8382  162.5713 H   0  0  0  0  0  0  0  0  0  0  0  0
  147.7187  133.5395  160.8984 H   0  0  0  0  0  0  0  0  0  0  0  0
  146.9826  132.6332  162.2184 H   0  0  0  0  0  0  0  0  0  0  0  0
  142.2334  134.0249  162.2313 H   0  0  0  0  0  0  0  0  0  0  0  0
  142.0105  135.6025  162.9956 H   0  0  0  0  0  0  0  0  0  0  0  0
  142.6522  134.2492  163.9342 H   0  0  0  0  0  0  0  0  0  0  0  0
  151.7883  140.4722  156.9550 H   0  0  0  0  0  0  0  0  0  0  0  0
  150.7027  141.1254  158.1636 H   0  0  0  0  0  0  0  0  0  0  0  0
  153.0517  141.6520  158.6954 H   0  0  0  0  0  0  0  0  0  0  0  0
  152.3088  140.6935  159.9629 H   0  0  0  0  0  0  0  0  0  0  0  0
  153.9934  137.6671  158.8783 H   0  0  0  0  0  0  0  0  0  0  0  0
  152.8738  138.2980  160.0720 H   0  0  0  0  0  0  0  0  0  0  0  0
  151.6689  137.0395  158.3411 H   0  0  0  0  0  0  0  0  0  0  0  0
  152.3734  138.0095  157.0656 H   0  0  0  0  0  0  0  0  0  0  0  0
  1  2  1  0  0  0  0
  1 26  1  0  0  0  0
  1 27  1  0  0  0  0
  1 28  1  0  0  0  0
  2  3  1  0  0  0  0
  2 29  1  0  0  0  0
  2 30  1  0  0  0  0
  3  4  1  0  0  0  0
  3  5  1  0  0  0  0
  3 19  1  0  0  0  0
  4 31  1  0  0  0  0
  4 32  1  0  0  0  0
  4 33  1  0  0  0  0
  5  6  1  0  0  0  0
  5 34  1  0  0  0  0
  5 35  1  0  0  0  0
  6  7  1  0  0  0  0
  6 36  1  0  0  0  0
  7  8  2  0  0  0  0
  7  9  1  0  0  0  0
  9 10  1  0  0  0  0
  9 37  1  0  0  0  0
  9 38  1  0  0  0  0
 10 17  1  0  0  0  0
 10 11  2  0  0  0  0
 11 12  1  0  0  0  0
 11 13  1  0  0  0  0
 12 39  1  0  0  0  0
 12 40  1  0  0  0  0
 12 41  1  0  0  0  0
 13 14  2  0  0  0  0
 14 15  1  0  0  0  0
 14 16  1  0  0  0  0
 15 42  1  0  0  0  0
 15 43  1  0  0  0  0
 15 44  1  0  0  0  0
 16 25  1  0  0  0  0
 16 17  1  0  0  0  0
 17 18  2  0  0  0  0
 19 24  1  0  0  0  0
 19 20  1  0  0  0  0
 20 21  1  0  0  0  0
 20 45  1  0  0  0  0
 20 46  1  0  0  0  0
 21 22  1  0  0  0  0
 21 47  1  0  0  0  0
 21 48  1  0  0  0  0
 22 23  1  0  0  0  0
 23 24  1  0  0  0  0
 23 49  1  0  0  0  0
 23 50  1  0  0  0  0
 24 51  1  0  0  0  0
 24 52  1  0  0  0  0
M  END
> <s_m_source_file>
AV-unprocessed.smi

> <i_m_source_file_index>
1492

> <i_lp_mmshare_version>
43012

> <i_f3d_flags>
0

> <s_epik_input>
W0NIMl0xW0NIMl1PW0NIMl1bQ0gyXU4xW0NAQF0oW0NIM10pKFtDSDJdW0NIM10pW0NIMl1bTkhdQyg9TylbQ0gyXWMyYyhbQ0gzXSluYyhbQ0gzXSlbbkhdYzI9Tw==

> <s_epik_cmdline>
J2VwaWtfcHl0aG9uJywgJy1waCcsICc3LjAnLCAnLXRuJywgJzgnLCAnLW1hJywgJzIwMCcsICctbWV0YWxfYmluZGluZycsICctaW1hZScsICc8aW5maWxlLm1hZT4nLCAnLW9tYWUnLCAnPG91dGZpbGUubWFlPic=

> <r_lp_tautomer_probability>
0.839158

> <r_epik_Ionization_Penalty>
0.328652

> <r_epik_Ionization_Penalty_Charging>
0.000364731

> <r_epik_Ionization_Penalty_Neutral>
0.328288

> <r_epik_State_Penalty>
0.414451

> <r_epik_Charging_Adjusted_Penalty>
0.414816

> <i_epik_Tot_Q>
0

> <i_epik_Tot_abs_Q>
0

> <r_epik_Metal_State_Penalty>
0.592978

> <b_epik_Metal_Only>
0

> <s_lp_Force_Field>
OPLS_2005

> <r_lp_Energy>
47.024

> <b_lp_Chiralities_Consistent>
1

> <s_lp_Variant>
AV-unprocessed.smi:1492-1

> <Gold.Version>
5.8.1

> <Gold.Id.Protein>
6NUR|6NUR_protein|mol2

> <Gold.PLP.Fitness>
44.2267

> <Gold.PLP.PLP>
-37.1695

> <Gold.PLP.part.hbond>
-3.0000

> <Gold.PLP.part.metal>
0.0000

> <Gold.PLP.part.buried>
-5.5845

> <Gold.PLP.part.nonpolar>
-28.2836

> <Gold.PLP.part.repulsive>
0.3476

> <Gold.PLP.ligand.clash>
0.0000

> <Gold.PLP.ligand.torsion>
0.3771

> <Gold.PLP.Chemscore.Hbond>
2.4462

> <Gold.PLP.Chemscore.CHOScore>
0.0000

> <Gold.PLP.Chemscore.Metal>
0.0000

> <Gold.Chemscore.Hbonds>
donor molecule, donor type, donor heavy atom, donor atom, acceptor molecule, acceptor atom, score
      P1  H  6896  6907       L1     8  0.15
      P1  H  6934  6947       L1    18  0.54
      P1  H  7997  8008       L1    22  1.00

> <Gold.PLP.Chemscore.Internal.Correction>
0.4727

> <Gold.Rescore>
     Score         DG    S(hbond)    S(metal)    S(lipo)     H(rot)  DE(clash)    DE(int)     intcor
     15.21     -15.99       2.00        0.00      78.95       2.12       0.04       0.74       ----

> <Gold.Chemscore.Fitness>
15.2150

> <Gold.Chemscore.DG>
-15.9923

> <Gold.Chemscore.ZeroCoef>
-5.4800

> <Gold.Chemscore.Hbond>
2.0033

> <Gold.Chemscore.Metal>
0.0000

> <Gold.Chemscore.Lipo>
78.9473

> <Gold.Chemscore.Internal_Hbond>
0.0000

> <Gold.Chemscore.DEClash>
0.0371

> <Gold.Chemscore.DEInternal>
0.7402

> <Gold.Chemscore.Rot>
2.1155

> <Gold.Chemscore.Internal.Correction>
   9.000000E+99

> <Gold.Chemscore.Hbonds>
donor molecule, donor type, donor heavy atom, donor atom, acceptor molecule, acceptor atom, score
      P1  H  6896  6907       L1     8  0.09
      P1  H  6934  6947       L1    18  0.55
      P1  H  7997  8008       L1    22  0.85

> <Gold.Chemscore.Hbond.Weighted>
-6.6911

> <Gold.Chemscore.Metal.Weighted>
-0.0000

> <Gold.Chemscore.Lipo.Weighted>
-9.2368

> <Gold.Chemscore.Internal_Hbond.Weighted>
0.0000

> <Gold.Chemscore.DEClash.Weighted>
0.0371

> <Gold.Chemscore.DEInternal.Weighted>
0.7402

> <Gold.Chemscore.Rot.Weighted>
5.4157

> <Gold.Chemscore.Internal.Correction.Weighted>
   9.000000E+99

> <Gold.Protein.RotatedTorsions>
[ 6907 6896 6895 6894 ] final  -74.67 input  -60.11 | X-H torsion
[ 7974 7965 7964 7962 ] final   -1.49 input  175.53 | X-H torsion
[ 8008 7997 7996 7995 ] final -106.40 input   59.86 | X-H torsion
[ 10167 10162 10161 10158 ] final -121.81 input  -65.29 | X-H torsion
[ 10718 10713 10712 10709 ] final -102.25 input   66.30 | X-H torsion
[ 10763 10752 10751 10750 ] final  -62.73 input  -60.55 | X-H torsion
[ 11005 11000 10999 10996 ] final   17.65 input  -57.11 | X-H torsion

> <Gold.Protein.ActiveResidues>
 VAL166  LYS551  ARG553  GLY616  TRP617  ASP618  TYR619  PRO620  LYS621  CYS622 
 ASP623  PHE694  ASN695  SER759  ASP760  ASP761  ALA762  ILE779  LEU786  VAL792 
 PHE793  MET794  SER795  GLU796  ALA797  LYS798  CYS799  TRP800  GLU811  SER814 

> <Gold.Protein.RotatedAtoms>
  150.7085  134.4835  159.5481 H   0  0  0  0  0  0  0  0  0  0  0  0  # atno 6907 bound_to 6896
  152.2467  134.8171  160.0461 H   0  0  0  0  0  0  0  0  0  0  0  0  # atno 6908 bound_to 6896
  151.8933  133.3486  159.3842 H   0  0  0  0  0  0  0  0  0  0  0  0  # atno 6909 bound_to 6896
  146.2416  140.1428  142.8335 H   0  0  0  0  0  0  0  0  0  0  0  0  # atno 7974 bound_to 7965
  154.9139  140.0409  157.1961 H   0  0  0  0  0  0  0  0  0  0  0  0  # atno 8008 bound_to 7997
  154.8320  140.2900  155.5694 H   0  0  0  0  0  0  0  0  0  0  0  0  # atno 8009 bound_to 7997
  156.2987  140.2499  156.3247 H   0  0  0  0  0  0  0  0  0  0  0  0  # atno 8010 bound_to 7997
  140.0210  143.5344  152.2221 H   0  0  0  0  0  0  0  0  0  0  0  0  # atno 10167 bound_to 10162
  156.0222  130.5411  150.7080 H   0  0  0  0  0  0  0  0  0  0  0  0  # atno 10718 bound_to 10713
  154.3044  135.6228  153.5438 H   0  0  0  0  0  0  0  0  0  0  0  0  # atno 10763 bound_to 10752
  152.9837  135.5686  154.5248 H   0  0  0  0  0  0  0  0  0  0  0  0  # atno 10764 bound_to 10752
  154.4885  135.2866  155.1491 H   0  0  0  0  0  0  0  0  0  0  0  0  # atno 10765 bound_to 10752
  140.4336  134.1394  155.7683 H   0  0  0  0  0  0  0  0  0  0  0  0  # atno 11005 bound_to 11000
  145.0232  140.8811  143.5154 LP  0  0  0  0  0  0  0  0  0  0  0  0  # atno 17320 bound_to 7965
  145.1480  139.2531  143.5455 LP  0  0  0  0  0  0  0  0  0  0  0  0  # atno 17321 bound_to 7965
  139.6140  144.7615  151.2888 LP  0  0  0  0  0  0  0  0  0  0  0  0  # atno 17342 bound_to 10162
  140.7342  143.6771  150.8032 LP  0  0  0  0  0  0  0  0  0  0  0  0  # atno 17343 bound_to 10162
  157.4725  131.0894  151.0626 LP  0  0  0  0  0  0  0  0  0  0  0  0  # atno 17370 bound_to 10713
  157.1083  130.6011  149.5476 LP  0  0  0  0  0  0  0  0  0  0  0  0  # atno 17371 bound_to 10713
  141.1735  133.8561  157.1495 LP  0  0  0  0  0  0  0  0  0  0  0  0  # atno 17394 bound_to 11000
  140.0117  134.9985  157.0409 LP  0  0  0  0  0  0  0  0  0  0  0  0  # atno 17395 bound_to 11000

$$$$
