AV-unprocessed.smi:237|AV-procd|sdf|1818|dock9
  -GOLD-   2262020413D 1   1.00000     0.00000
 Structure written by MMmdl.
 53 56  0  0  0  0  0  0  0  0  1 V2000
  149.6322  137.3679  158.2749 C   0  0  0  0  0  0  0  0  0  0  0  0
  150.8012  137.6236  159.2283 C   0  0  0  0  0  0  0  0  0  0  0  0
  151.7477  138.4451  158.5636 O   0  0  0  0  0  0  0  0  0  0  0  0
  152.4592  139.3450  159.4054 C   0  0  0  0  0  0  0  0  0  0  0  0
  151.9481  140.8110  159.3622 C   0  0  1  0  0  0  0  0  0  0  0  0
  152.6461  141.6068  160.4890 C   0  0  0  0  0  0  0  0  0  0  0  0
  152.2550  143.0903  160.4794 C   0  0  0  0  0  0  0  0  0  0  0  0
  152.5434  143.6928  159.1006 C   0  0  0  0  0  0  0  0  0  0  0  0
  151.8191  142.8903  158.0125 C   0  0  0  0  0  0  0  0  0  0  0  0
  152.1802  141.4719  158.0656 N   0  0  0  0  0  0  0  0  0  0  0  0
  151.6876  140.8039  156.9970 C   0  0  0  0  0  0  0  0  0  0  0  0
  152.4139  139.8071  156.4242 N   0  0  0  0  0  0  0  0  0  0  0  0
  151.9386  139.1689  155.3508 C   0  0  0  0  0  0  0  0  0  0  0  0
  150.7877  139.3658  154.7036 N   0  0  0  0  0  0  0  0  0  0  0  0
  150.0571  140.3630  155.2813 C   0  0  0  0  0  0  0  0  0  0  0  0
  150.4325  141.1285  156.4197 C   0  0  0  0  0  0  0  0  0  0  0  0
  149.4517  142.0667  156.7107 N   0  0  0  0  0  0  0  0  0  0  0  0
  148.5442  141.8659  155.7945 C   0  0  0  0  0  0  0  0  0  0  0  0
  148.8169  140.8495  154.9048 N   0  0  0  0  0  0  0  0  0  0  0  0
  147.9884  140.4141  153.7889 C   0  0  0  0  0  0  0  0  0  0  0  0
  147.2675  139.0602  154.0004 C   0  0  0  0  0  0  0  0  0  0  0  0
  146.5780  138.6777  152.6836 C   0  0  0  0  0  0  0  0  0  0  0  0
  147.5011  138.6283  151.6146 O   0  0  0  0  0  0  0  0  0  0  0  0
  148.0442  137.9371  154.7103 C   0  0  0  0  0  0  0  0  0  0  0  0
  147.3762  138.1934  155.9636 O   0  0  0  0  0  0  0  0  0  0  0  0
  146.3802  138.9580  155.2530 C   0  0  0  0  0  0  0  0  0  0  0  0
  148.8719  136.7457  158.7471 H   0  0  0  0  0  0  0  0  0  0  0  0
  149.9690  136.8586  157.3717 H   0  0  0  0  0  0  0  0  0  0  0  0
  149.1602  138.3039  157.9752 H   0  0  0  0  0  0  0  0  0  0  0  0
  150.4328  138.1061  160.1330 H   0  0  0  0  0  0  0  0  0  0  0  0
  151.2582  136.6766  159.5185 H   0  0  0  0  0  0  0  0  0  0  0  0
  152.4280  138.9599  160.4258 H   0  0  0  0  0  0  0  0  0  0  0  0
  153.5089  139.3209  159.1110 H   0  0  0  0  0  0  0  0  0  0  0  0
  150.8779  140.8348  159.5663 H   0  0  0  0  0  0  0  0  0  0  0  0
  152.4009  141.1741  161.4596 H   0  0  0  0  0  0  0  0  0  0  0  0
  153.7285  141.5229  160.3798 H   0  0  0  0  0  0  0  0  0  0  0  0
  151.1955  143.1960  160.7159 H   0  0  0  0  0  0  0  0  0  0  0  0
  152.8050  143.6309  161.2500 H   0  0  0  0  0  0  0  0  0  0  0  0
  152.2265  144.7355  159.0708 H   0  0  0  0  0  0  0  0  0  0  0  0
  153.6174  143.6858  158.9098 H   0  0  0  0  0  0  0  0  0  0  0  0
  150.7409  143.0015  158.1395 H   0  0  0  0  0  0  0  0  0  0  0  0
  152.0683  143.2979  157.0314 H   0  0  0  0  0  0  0  0  0  0  0  0
  152.5734  138.3927  154.9501 H   0  0  0  0  0  0  0  0  0  0  0  0
  147.6437  142.4601  155.7443 H   0  0  0  0  0  0  0  0  0  0  0  0
  147.2591  141.2012  153.5937 H   0  0  0  0  0  0  0  0  0  0  0  0
  148.6269  140.3804  152.9056 H   0  0  0  0  0  0  0  0  0  0  0  0
  146.1061  137.6974  152.7606 H   0  0  0  0  0  0  0  0  0  0  0  0
  145.7854  139.3842  152.4354 H   0  0  0  0  0  0  0  0  0  0  0  0
  148.1612  139.2896  151.7555 H   0  0  0  0  0  0  0  0  0  0  0  0
  147.8170  136.9392  154.3317 H   0  0  0  0  0  0  0  0  0  0  0  0
  149.1212  138.0849  154.7650 H   0  0  0  0  0  0  0  0  0  0  0  0
  146.1532  139.9100  155.7307 H   0  0  0  0  0  0  0  0  0  0  0  0
  145.4655  138.3819  155.1037 H   0  0  0  0  0  0  0  0  0  0  0  0
  1  2  1  0  0  0  0
  1 27  1  0  0  0  0
  1 28  1  0  0  0  0
  1 29  1  0  0  0  0
  2  3  1  0  0  0  0
  2 30  1  0  0  0  0
  2 31  1  0  0  0  0
  3  4  1  0  0  0  0
  4  5  1  0  0  0  0
  4 32  1  0  0  0  0
  4 33  1  0  0  0  0
  5 10  1  0  0  0  0
  5  6  1  0  0  0  0
  5 34  1  0  0  0  0
  6  7  1  0  0  0  0
  6 35  1  0  0  0  0
  6 36  1  0  0  0  0
  7  8  1  0  0  0  0
  7 37  1  0  0  0  0
  7 38  1  0  0  0  0
  8  9  1  0  0  0  0
  8 39  1  0  0  0  0
  8 40  1  0  0  0  0
  9 10  1  0  0  0  0
  9 41  1  0  0  0  0
  9 42  1  0  0  0  0
 10 11  1  0  0  0  0
 11 16  1  0  0  0  0
 11 12  2  0  0  0  0
 12 13  1  0  0  0  0
 13 14  2  0  0  0  0
 13 43  1  0  0  0  0
 14 15  1  0  0  0  0
 15 19  1  0  0  0  0
 15 16  2  0  0  0  0
 16 17  1  0  0  0  0
 17 18  2  0  0  0  0
 18 19  1  0  0  0  0
 18 44  1  0  0  0  0
 19 20  1  0  0  0  0
 20 21  1  0  0  0  0
 20 45  1  0  0  0  0
 20 46  1  0  0  0  0
 21 26  1  0  0  0  0
 21 22  1  0  0  0  0
 21 24  1  0  0  0  0
 22 23  1  0  0  0  0
 22 47  1  0  0  0  0
 22 48  1  0  0  0  0
 23 49  1  0  0  0  0
 24 25  1  0  0  0  0
 24 50  1  0  0  0  0
 24 51  1  0  0  0  0
 25 26  1  0  0  0  0
 26 52  1  0  0  0  0
 26 53  1  0  0  0  0
M  END
> <s_m_source_file>
AV-unprocessed.smi

> <i_m_source_file_index>
237

> <i_lp_mmshare_version>
43012

> <i_f3d_flags>
0

> <s_epik_input>
W0NIM11bQ0gyXU9bQ0gyXVtDQEBIXTFbQ0gyXVtDSDJdW0NIMl1bQ0gyXU4xYyhuW2NIXW4yKWMoYzIzKW5bY0hdbjNbQ0gyXUM0KFtDSDJdW09IXSlbQ0gyXU9bQ0gyXTQ=

> <s_epik_cmdline>
J2VwaWtfcHl0aG9uJywgJy1waCcsICc3LjAnLCAnLXRuJywgJzgnLCAnLW1hJywgJzIwMCcsICctbWV0YWxfYmluZGluZycsICctaW1hZScsICc8aW5maWxlLm1hZT4nLCAnLW9tYWUnLCAnPG91dGZpbGUubWFlPic=

> <r_lp_tautomer_probability>
1

> <r_epik_Ionization_Penalty>
0.00358373

> <r_epik_Ionization_Penalty_Charging>
0

> <r_epik_Ionization_Penalty_Neutral>
0.00358373

> <r_epik_State_Penalty>
0.00240903

> <r_epik_Charging_Adjusted_Penalty>
0.00240903

> <i_epik_Tot_Q>
0

> <i_epik_Tot_abs_Q>
0

> <r_epik_Metal_State_Penalty>
-0

> <b_epik_Metal_Only>
0

> <s_lp_Force_Field>
OPLS_2005

> <r_lp_Energy>
39.3208

> <b_lp_Chiralities_Consistent>
1

> <s_lp_Variant>
AV-unprocessed.smi:237-2

> <Gold.Version>
5.8.1

> <Gold.Id.Protein>
6NUR|6NUR_protein|mol2

> <Gold.PLP.Fitness>
50.1656

> <Gold.PLP.PLP>
-43.0897

> <Gold.PLP.part.hbond>
-5.0000

> <Gold.PLP.part.metal>
0.0000

> <Gold.PLP.part.buried>
-2.3693

> <Gold.PLP.part.nonpolar>
-35.8394

> <Gold.PLP.part.repulsive>
1.2844

> <Gold.PLP.ligand.clash>
0.0000

> <Gold.PLP.ligand.torsion>
1.5898

> <Gold.PLP.Chemscore.Hbond>
3.0810

> <Gold.PLP.Chemscore.CHOScore>
0.1505

> <Gold.PLP.Chemscore.Metal>
0.0000

> <Gold.Chemscore.Hbonds>
donor molecule, donor type, donor heavy atom, donor atom, acceptor molecule, acceptor atom, score
      L1  H    23    49       P1  7957  0.90
      P1  H  7954  7966       L1    23  0.89
      P1  H  7989  7998       L1    14  0.17
      P1  H  7997  8008       L1    12  1.00
      L1  C    18    44       P1  8028  0.30

> <Gold.PLP.Chemscore.Internal.Correction>
0.5611

> <Gold.Rescore>
     Score         DG    S(hbond)    S(metal)    S(lipo)     H(rot)  DE(clash)    DE(int)     intcor
      8.95     -15.52       2.22        0.00      89.51       3.06       0.88       5.69       ----

> <Gold.Chemscore.Fitness>
8.9464

> <Gold.Chemscore.DG>
-15.5226

> <Gold.Chemscore.ZeroCoef>
-5.4800

> <Gold.Chemscore.Hbond>
2.2182

> <Gold.Chemscore.Metal>
0.0000

> <Gold.Chemscore.Lipo>
89.5097

> <Gold.Chemscore.Internal_Hbond>
0.0000

> <Gold.Chemscore.DEClash>
0.8817

> <Gold.Chemscore.DEInternal>
5.6945

> <Gold.Chemscore.Rot>
3.0620

> <Gold.Chemscore.Internal.Correction>
   9.000000E+99

> <Gold.Chemscore.Hbonds>
donor molecule, donor type, donor heavy atom, donor atom, acceptor molecule, acceptor atom, score
      L1  H    23    49       P1  7957  0.87
      P1  H  7954  7966       L1    23  0.16
      P1  H  7997  8008       L1    12  0.57

> <Gold.Chemscore.Hbond.Weighted>
-7.4087

> <Gold.Chemscore.Metal.Weighted>
-0.0000

> <Gold.Chemscore.Lipo.Weighted>
-10.4726

> <Gold.Chemscore.Internal_Hbond.Weighted>
0.0000

> <Gold.Chemscore.DEClash.Weighted>
0.8817

> <Gold.Chemscore.DEInternal.Weighted>
5.6945

> <Gold.Chemscore.Rot.Weighted>
7.8388

> <Gold.Chemscore.Internal.Correction.Weighted>
   9.000000E+99

> <Gold.Protein.RotatedTorsions>
[ 6907 6896 6895 6894 ] final -176.04 input  -60.11 | X-H torsion
[ 7974 7965 7964 7962 ] final  175.57 input  175.53 | X-H torsion
[ 8008 7997 7996 7995 ] final  -28.70 input   59.86 | X-H torsion
[ 10167 10162 10161 10158 ] final   75.45 input  -65.29 | X-H torsion
[ 10718 10713 10712 10709 ] final  -70.06 input   66.30 | X-H torsion
[ 10763 10752 10751 10750 ] final   62.56 input  -60.55 | X-H torsion
[ 11005 11000 10999 10996 ] final  -10.68 input  -57.11 | X-H torsion

> <Gold.Protein.ActiveResidues>
 VAL166  LYS551  ARG553  GLY616  TRP617  ASP618  TYR619  PRO620  LYS621  CYS622 
 ASP623  PHE694  ASN695  SER759  ASP760  ASP761  ALA762  ILE779  LEU786  VAL792 
 PHE793  MET794  SER795  GLU796  ALA797  LYS798  CYS799  TRP800  GLU811  SER814 

> <Gold.Protein.RotatedAtoms>
  151.5983  133.3359  159.3041 H   0  0  0  0  0  0  0  0  0  0  0  0  # atno 6907 bound_to 6896
  150.8222  134.7438  159.6793 H   0  0  0  0  0  0  0  0  0  0  0  0  # atno 6908 bound_to 6896
  152.4314  134.5775  159.9990 H   0  0  0  0  0  0  0  0  0  0  0  0  # atno 6909 bound_to 6896
  144.7199  139.9966  143.6440 H   0  0  0  0  0  0  0  0  0  0  0  0  # atno 7974 bound_to 7965
  154.4321  140.1838  156.1132 H   0  0  0  0  0  0  0  0  0  0  0  0  # atno 8008 bound_to 7997
  156.0202  140.3341  155.7005 H   0  0  0  0  0  0  0  0  0  0  0  0  # atno 8009 bound_to 7997
  155.5987  140.0638  157.2729 H   0  0  0  0  0  0  0  0  0  0  0  0  # atno 8010 bound_to 7997
  140.0029  144.5673  150.7722 H   0  0  0  0  0  0  0  0  0  0  0  0  # atno 10167 bound_to 10162
  156.0426  130.4324  150.2239 H   0  0  0  0  0  0  0  0  0  0  0  0  # atno 10718 bound_to 10713
  152.9987  135.5460  154.6213 H   0  0  0  0  0  0  0  0  0  0  0  0  # atno 10763 bound_to 10752
  154.5512  135.2827  155.1009 H   0  0  0  0  0  0  0  0  0  0  0  0  # atno 10764 bound_to 10752
  154.2248  135.6444  153.5209 H   0  0  0  0  0  0  0  0  0  0  0  0  # atno 10765 bound_to 10752
  140.7473  133.8621  155.9016 H   0  0  0  0  0  0  0  0  0  0  0  0  # atno 11005 bound_to 11000
  146.0369  139.3385  143.0721 LP  0  0  0  0  0  0  0  0  0  0  0  0  # atno 17320 bound_to 7965
  145.8384  140.9594  143.0812 LP  0  0  0  0  0  0  0  0  0  0  0  0  # atno 17321 bound_to 7965
  140.7412  143.2815  151.3586 LP  0  0  0  0  0  0  0  0  0  0  0  0  # atno 17342 bound_to 10162
  139.6259  144.0815  152.2434 LP  0  0  0  0  0  0  0  0  0  0  0  0  # atno 17343 bound_to 10162
  157.0333  131.0014  151.3306 LP  0  0  0  0  0  0  0  0  0  0  0  0  # atno 17370 bound_to 10713
  157.5262  130.8029  149.7864 LP  0  0  0  0  0  0  0  0  0  0  0  0  # atno 17371 bound_to 10713
  140.9782  134.1440  157.4517 LP  0  0  0  0  0  0  0  0  0  0  0  0  # atno 17394 bound_to 11000
  139.8794  135.0002  156.5996 LP  0  0  0  0  0  0  0  0  0  0  0  0  # atno 17395 bound_to 11000

$$$$
