AV-unprocessed.smi:1768|AV-procd|sdf|7146|dock5
  -GOLD-   22720 8383D 1   1.00000     0.00000
 Structure written by MMmdl.
 33 34  0  0  0  0  0  0  0  0  1 V2000
  146.9199  139.0566  152.9465 C   0  0  0  0  0  0  0  0  0  0  0  0
  147.9624  139.8018  153.7079 C   0  0  0  0  0  0  0  0  0  0  0  0
  149.2087  139.3423  153.8741 N   0  0  0  0  0  0  0  0  0  0  0  0
  149.9944  140.2096  154.6203 N   0  0  0  0  0  0  0  0  0  0  0  0
  149.3142  141.3015  154.9962 C   0  0  0  0  0  0  0  0  0  0  0  0
  149.8733  142.3543  155.7676 N   0  0  0  0  0  0  0  0  0  0  0  0
  150.9182  142.3050  156.6123 C   0  0  0  0  0  0  0  0  0  0  0  0
  151.5694  141.2949  156.8789 O   0  0  0  0  0  0  0  0  0  0  0  0
  151.1663  143.5120  157.1415 N   0  0  0  0  0  0  0  0  0  0  0  0
  152.2301  143.8311  158.0926 C   0  0  1  0  0  0  0  0  0  0  0  0
  152.3726  145.3574  158.1844 C   0  0  0  0  0  0  0  0  0  0  0  0
  151.9250  143.1953  159.4635 C   0  0  1  0  0  0  0  0  0  0  0  0
  153.1262  142.5356  160.1467 C   0  0  0  0  0  0  0  0  0  0  0  0
  152.7250  142.5988  161.6020 C   0  0  0  0  0  0  0  0  0  0  0  0
  152.0519  143.9651  161.6741 C   0  0  0  0  0  0  0  0  0  0  0  0
  151.4789  144.1862  160.3882 O   0  0  0  0  0  0  0  0  0  0  0  0
  147.6436  141.3593  154.4609 S   0  0  0  0  0  0  0  0  0  0  0  0
  147.3213  138.1204  152.5572 H   0  0  0  0  0  0  0  0  0  0  0  0
  146.5669  139.6598  152.1102 H   0  0  0  0  0  0  0  0  0  0  0  0
  146.0752  138.8304  153.5973 H   0  0  0  0  0  0  0  0  0  0  0  0
  149.4293  143.2538  155.6565 H   0  0  0  0  0  0  0  0  0  0  0  0
  150.5717  144.2784  156.8625 H   0  0  0  0  0  0  0  0  0  0  0  0
  153.1829  143.4323  157.7400 H   0  0  0  0  0  0  0  0  0  0  0  0
  153.1805  145.6385  158.8602 H   0  0  0  0  0  0  0  0  0  0  0  0
  151.4564  145.8214  158.5509 H   0  0  0  0  0  0  0  0  0  0  0  0
  152.5978  145.7891  157.2087 H   0  0  0  0  0  0  0  0  0  0  0  0
  151.1276  142.4565  159.3652 H   0  0  0  0  0  0  0  0  0  0  0  0
  153.3096  141.5186  159.7986 H   0  0  0  0  0  0  0  0  0  0  0  0
  154.0328  143.1209  159.9849 H   0  0  0  0  0  0  0  0  0  0  0  0
  152.0050  141.8106  161.8264 H   0  0  0  0  0  0  0  0  0  0  0  0
  153.5677  142.5010  162.2870 H   0  0  0  0  0  0  0  0  0  0  0  0
  151.2991  144.0184  162.4610 H   0  0  0  0  0  0  0  0  0  0  0  0
  152.7919  144.7446  161.8594 H   0  0  0  0  0  0  0  0  0  0  0  0
  1  2  1  0  0  0  0
  1 18  1  0  0  0  0
  1 19  1  0  0  0  0
  1 20  1  0  0  0  0
  2 17  1  0  0  0  0
  2  3  2  0  0  0  0
  3  4  1  0  0  0  0
  4  5  2  0  0  0  0
  5  6  1  0  0  0  0
  5 17  1  0  0  0  0
  6  7  1  0  0  0  0
  6 21  1  0  0  0  0
  7  8  2  0  0  0  0
  7  9  1  0  0  0  0
  9 10  1  0  0  0  0
  9 22  1  0  0  0  0
 10 11  1  0  0  0  0
 10 12  1  0  0  0  0
 10 23  1  0  0  0  0
 11 24  1  0  0  0  0
 11 25  1  0  0  0  0
 11 26  1  0  0  0  0
 12 16  1  0  0  0  0
 12 13  1  0  0  0  0
 12 27  1  0  0  0  0
 13 14  1  0  0  0  0
 13 28  1  0  0  0  0
 13 29  1  0  0  0  0
 14 15  1  0  0  0  0
 14 30  1  0  0  0  0
 14 31  1  0  0  0  0
 15 16  1  0  0  0  0
 15 32  1  0  0  0  0
 15 33  1  0  0  0  0
M  END
> <s_m_source_file>
AV-unprocessed.smi

> <i_m_source_file_index>
1768

> <i_lp_mmshare_version>
43012

> <i_f3d_flags>
0

> <s_epik_input>
W0NIM11jMW5uYyhzMSlbTkhdQyg9TylbTkhdW0NASF0oW0NIM10pW0NAQEhdMltDSDJdW0NIMl1bQ0gyXU8y

> <s_epik_cmdline>
J2VwaWtfcHl0aG9uJywgJy1waCcsICc3LjAnLCAnLXRuJywgJzgnLCAnLW1hJywgJzIwMCcsICctbWV0YWxfYmluZGluZycsICctaW1hZScsICc8aW5maWxlLm1hZT4nLCAnLW9tYWUnLCAnPG91dGZpbGUubWFlPic=

> <r_lp_tautomer_probability>
1

> <r_epik_Ionization_Penalty>
0.000523083

> <r_epik_Ionization_Penalty_Charging>
0

> <r_epik_Ionization_Penalty_Neutral>
0.000523083

> <r_epik_State_Penalty>
-0

> <r_epik_Charging_Adjusted_Penalty>
0

> <i_epik_Tot_Q>
0

> <i_epik_Tot_abs_Q>
0

> <r_epik_Metal_State_Penalty>
0.223408

> <b_epik_Metal_Only>
0

> <s_lp_Force_Field>
OPLS_2005

> <r_lp_Energy>
16.9545

> <b_lp_Chiralities_Consistent>
1

> <s_lp_Variant>
AV-unprocessed.smi:1768-4

> <Gold.Version>
5.8.1

> <Gold.Id.Protein>
6NUR|6NUR_protein|mol2

> <Gold.PLP.Fitness>
42.0693

> <Gold.PLP.PLP>
-37.2779

> <Gold.PLP.part.hbond>
-3.0000

> <Gold.PLP.part.metal>
0.0000

> <Gold.PLP.part.buried>
-4.3100

> <Gold.PLP.part.nonpolar>
-30.7159

> <Gold.PLP.part.repulsive>
3.0069

> <Gold.PLP.ligand.clash>
0.0000

> <Gold.PLP.ligand.torsion>
1.4799

> <Gold.PLP.Chemscore.Hbond>
2.5809

> <Gold.PLP.Chemscore.CHOScore>
0.0000

> <Gold.PLP.Chemscore.Metal>
0.0000

> <Gold.Chemscore.Hbonds>
donor molecule, donor type, donor heavy atom, donor atom, acceptor molecule, acceptor atom, score
      L1  H     6    21       P1  8028  1.00
      L1  H     9    22       P1  8028  0.73
      P1  H  7989  7998       L1     4  0.86

> <Gold.PLP.Chemscore.Internal.Correction>
0.0085

> <Gold.Rescore>
     Score         DG    S(hbond)    S(metal)    S(lipo)     H(rot)  DE(clash)    DE(int)     intcor
     18.72     -21.89       2.76        0.00      89.77       1.29       2.11       1.06       ----

> <Gold.Chemscore.Fitness>
18.7204

> <Gold.Chemscore.DG>
-21.8928

> <Gold.Chemscore.ZeroCoef>
-5.4800

> <Gold.Chemscore.Hbond>
2.7594

> <Gold.Chemscore.Metal>
0.0000

> <Gold.Chemscore.Lipo>
89.7735

> <Gold.Chemscore.Internal_Hbond>
0.0000

> <Gold.Chemscore.DEClash>
2.1138

> <Gold.Chemscore.DEInternal>
1.0586

> <Gold.Chemscore.Rot>
1.2919

> <Gold.Chemscore.Internal.Correction>
   9.000000E+99

> <Gold.Chemscore.Hbonds>
donor molecule, donor type, donor heavy atom, donor atom, acceptor molecule, acceptor atom, score
      L1  H     6    21       P1  8028  0.96
      L1  H     9    22       P1  8028  0.70
      P1  H  7989  7998       L1     4  0.33

> <Gold.Chemscore.Hbond.Weighted>
-9.2165

> <Gold.Chemscore.Metal.Weighted>
-0.0000

> <Gold.Chemscore.Lipo.Weighted>
-10.5035

> <Gold.Chemscore.Internal_Hbond.Weighted>
0.0000

> <Gold.Chemscore.DEClash.Weighted>
2.1138

> <Gold.Chemscore.DEInternal.Weighted>
1.0586

> <Gold.Chemscore.Rot.Weighted>
3.3072

> <Gold.Chemscore.Internal.Correction.Weighted>
   9.000000E+99

> <Gold.Protein.RotatedTorsions>
[ 6907 6896 6895 6894 ] final  -41.49 input  -60.11 | X-H torsion
[ 7974 7965 7964 7962 ] final  -15.14 input  175.53 | X-H torsion
[ 8008 7997 7996 7995 ] final -171.40 input   59.86 | X-H torsion
[ 10167 10162 10161 10158 ] final  129.90 input  -65.29 | X-H torsion
[ 10718 10713 10712 10709 ] final   50.80 input   66.30 | X-H torsion
[ 10763 10752 10751 10750 ] final   -9.54 input  -60.55 | X-H torsion
[ 11005 11000 10999 10996 ] final  164.00 input  -57.11 | X-H torsion

> <Gold.Protein.ActiveResidues>
 VAL166  LYS551  ARG553  GLY616  TRP617  ASP618  TYR619  PRO620  LYS621  CYS622 
 ASP623  PHE694  ASN695  SER759  ASP760  ASP761  ALA762  ILE779  LEU786  VAL792 
 PHE793  MET794  SER795  GLU796  ALA797  LYS798  CYS799  TRP800  GLU811  SER814 

> <Gold.Protein.RotatedAtoms>
  150.9661  134.9042  159.7759 H   0  0  0  0  0  0  0  0  0  0  0  0  # atno 6907 bound_to 6896
  152.5174  134.3605  159.9293 H   0  0  0  0  0  0  0  0  0  0  0  0  # atno 6908 bound_to 6896
  151.3616  133.3847  159.2725 H   0  0  0  0  0  0  0  0  0  0  0  0  # atno 6909 bound_to 6896
  146.2045  140.3450  142.8412 H   0  0  0  0  0  0  0  0  0  0  0  0  # atno 7974 bound_to 7965
  155.9310  140.1091  157.1132 H   0  0  0  0  0  0  0  0  0  0  0  0  # atno 8008 bound_to 7997
  154.4071  140.1237  156.4868 H   0  0  0  0  0  0  0  0  0  0  0  0  # atno 8009 bound_to 7997
  155.7080  140.3471  155.4964 H   0  0  0  0  0  0  0  0  0  0  0  0  # atno 8010 bound_to 7997
  139.5455  144.6770  151.4486 H   0  0  0  0  0  0  0  0  0  0  0  0  # atno 10167 bound_to 10162
  157.4920  130.8382  149.8214 H   0  0  0  0  0  0  0  0  0  0  0  0  # atno 10718 bound_to 10713
  153.4563  135.7015  153.6078 H   0  0  0  0  0  0  0  0  0  0  0  0  # atno 10763 bound_to 10752
  153.4391  135.3784  155.2217 H   0  0  0  0  0  0  0  0  0  0  0  0  # atno 10764 bound_to 10752
  154.8728  135.3969  154.3982 H   0  0  0  0  0  0  0  0  0  0  0  0  # atno 10765 bound_to 10752
  140.2415  134.8047  157.3415 H   0  0  0  0  0  0  0  0  0  0  0  0  # atno 11005 bound_to 11000
  144.8759  140.7335  143.6017 LP  0  0  0  0  0  0  0  0  0  0  0  0  # atno 17320 bound_to 7965
  145.3369  139.1743  143.4506 LP  0  0  0  0  0  0  0  0  0  0  0  0  # atno 17321 bound_to 7965
  140.6702  143.8310  150.6990 LP  0  0  0  0  0  0  0  0  0  0  0  0  # atno 17342 bound_to 10162
  140.1732  143.4177  152.1986 LP  0  0  0  0  0  0  0  0  0  0  0  0  # atno 17343 bound_to 10162
  156.0179  130.3806  150.2054 LP  0  0  0  0  0  0  0  0  0  0  0  0  # atno 17370 bound_to 10713
  157.0242  130.9988  151.3331 LP  0  0  0  0  0  0  0  0  0  0  0  0  # atno 17371 bound_to 10713
  140.1649  134.4682  155.7870 LP  0  0  0  0  0  0  0  0  0  0  0  0  # atno 17394 bound_to 11000
  141.2210  133.6917  156.7608 LP  0  0  0  0  0  0  0  0  0  0  0  0  # atno 17395 bound_to 11000

$$$$
