AV-unprocessed.smi:2303|AV-procd|sdf|9242|dock7
  -GOLD-   2272012463D 1   1.00000     0.00000
 Structure written by MMmdl.
 33 34  0  0  0  0  0  0  0  0  1 V2000
  152.5222  144.0950  158.2836 C   0  0  0  0  0  0  0  0  0  0  0  0
  151.7583  143.0958  159.1709 C   0  0  0  0  0  0  0  0  0  0  0  0
  152.2543  143.1748  160.6257 C   0  0  0  0  0  0  0  0  0  0  0  0
  151.7817  141.6608  158.6425 C   0  0  0  0  0  0  0  0  0  0  0  0
  152.0149  140.5446  159.3625 C   0  0  0  0  0  0  0  0  0  0  0  0
  152.0029  139.2541  158.6953 C   0  0  0  0  0  0  0  0  0  0  0  0
  152.1895  138.0529  159.5106 C   0  0  0  0  0  0  0  0  0  0  0  0
  151.3297  137.1783  159.6195 O   0  0  0  0  0  0  0  0  0  0  0  0
  153.3723  137.9430  160.1571 N   0  0  0  0  0  0  0  0  0  0  0  0
  153.7849  136.8938  161.0798 C   0  0  0  0  0  0  0  0  0  0  0  0
  154.9635  137.5008  161.8192 C   0  0  0  0  0  0  0  0  0  0  0  0
  154.6825  138.9913  161.7132 C   0  0  0  0  0  0  0  0  0  0  0  0
  154.1130  139.1136  160.4213 O   0  0  0  0  0  0  0  0  0  0  0  0
  151.7307  139.1847  157.3684 C   0  0  0  0  0  0  0  0  0  0  0  0
  151.4935  140.3919  156.5739 C   0  0  0  0  0  0  0  0  0  0  0  0
  151.2686  140.3803  155.3660 O   0  0  0  0  0  0  0  0  0  0  0  0
  151.5347  141.5539  157.2655 N   0  0  0  0  0  0  0  0  0  0  0  0
  152.1370  144.0959  157.2635 H   0  0  0  0  0  0  0  0  0  0  0  0
  153.5871  143.8629  158.2443 H   0  0  0  0  0  0  0  0  0  0  0  0
  152.4222  145.1109  158.6666 H   0  0  0  0  0  0  0  0  0  0  0  0
  150.7117  143.4041  159.1658 H   0  0  0  0  0  0  0  0  0  0  0  0
  151.6478  142.5653  161.2961 H   0  0  0  0  0  0  0  0  0  0  0  0
  152.2134  144.1987  160.9982 H   0  0  0  0  0  0  0  0  0  0  0  0
  153.2868  142.8338  160.7085 H   0  0  0  0  0  0  0  0  0  0  0  0
  152.2096  140.5979  160.4235 H   0  0  0  0  0  0  0  0  0  0  0  0
  152.9719  136.6656  161.7712 H   0  0  0  0  0  0  0  0  0  0  0  0
  154.0582  135.9792  160.5524 H   0  0  0  0  0  0  0  0  0  0  0  0
  155.0500  137.1535  162.8490 H   0  0  0  0  0  0  0  0  0  0  0  0
  155.8917  137.2619  161.2984 H   0  0  0  0  0  0  0  0  0  0  0  0
  153.9516  139.3022  162.4612 H   0  0  0  0  0  0  0  0  0  0  0  0
  155.5767  139.6049  161.8234 H   0  0  0  0  0  0  0  0  0  0  0  0
  151.6702  138.2283  156.8687 H   0  0  0  0  0  0  0  0  0  0  0  0
  151.3735  142.4162  156.7655 H   0  0  0  0  0  0  0  0  0  0  0  0
  1  2  1  0  0  0  0
  1 18  1  0  0  0  0
  1 19  1  0  0  0  0
  1 20  1  0  0  0  0
  2  3  1  0  0  0  0
  2 21  1  0  0  0  0
  2  4  1  0  0  0  0
  3 22  1  0  0  0  0
  3 23  1  0  0  0  0
  3 24  1  0  0  0  0
  4 17  1  0  0  0  0
  4  5  2  0  0  0  0
  5 25  1  0  0  0  0
  5  6  1  0  0  0  0
  6  7  1  0  0  0  0
  6 14  2  0  0  0  0
  7  8  2  0  0  0  0
  7  9  1  0  0  0  0
  9 13  1  0  0  0  0
  9 10  1  0  0  0  0
 10 11  1  0  0  0  0
 10 26  1  0  0  0  0
 10 27  1  0  0  0  0
 11 12  1  0  0  0  0
 11 28  1  0  0  0  0
 11 29  1  0  0  0  0
 12 13  1  0  0  0  0
 12 30  1  0  0  0  0
 12 31  1  0  0  0  0
 14 15  1  0  0  0  0
 14 32  1  0  0  0  0
 15 16  2  0  0  0  0
 15 17  1  0  0  0  0
 17 33  1  0  0  0  0
M  END
> <s_m_source_file>
AV-unprocessed.smi

> <i_m_source_file_index>
2303

> <i_lp_mmshare_version>
43012

> <i_f3d_flags>
0

> <s_epik_input>
W0NIM11bQ0hdKFtDSDNdKWMxW2NIXWMoW2NIXWMobjEpW09IXSlDKD1PKU4yW0NIMl1bQ0gyXVtDSDJdTzI=

> <s_epik_cmdline>
J2VwaWtfcHl0aG9uJywgJy1waCcsICc3LjAnLCAnLXRuJywgJzgnLCAnLW1hJywgJzIwMCcsICctbWV0YWxfYmluZGluZycsICctaW1hZScsICc8aW5maWxlLm1hZT4nLCAnLW9tYWUnLCAnPG91dGZpbGUubWFlPic=

> <r_lp_tautomer_probability>
1

> <r_epik_Ionization_Penalty>
8.70942e-05

> <r_epik_Ionization_Penalty_Charging>
8.7046e-05

> <r_epik_Ionization_Penalty_Neutral>
4.82304e-08

> <r_epik_State_Penalty>
-0

> <r_epik_Charging_Adjusted_Penalty>
8.7046e-05

> <i_epik_Tot_Q>
0

> <i_epik_Tot_abs_Q>
0

> <r_epik_Metal_State_Penalty>
0.0811253

> <b_epik_Metal_Only>
0

> <s_epik_Chemistry_Notes>
This compound has a N-S or N-O group and may undergo hydrolysis at high or low pH.

> <s_lp_Force_Field>
OPLS_2005

> <r_lp_Energy>
27.1372

> <b_lp_Chiralities_Consistent>
1

> <s_lp_Variant>
AV-unprocessed.smi:2303-1

> <Gold.Version>
5.8.1

> <Gold.Id.Protein>
6NUR|6NUR_protein|mol2

> <Gold.PLP.Fitness>
35.3043

> <Gold.PLP.PLP>
-31.2673

> <Gold.PLP.part.hbond>
-1.9887

> <Gold.PLP.part.metal>
0.0000

> <Gold.PLP.part.buried>
-4.2239

> <Gold.PLP.part.nonpolar>
-25.5183

> <Gold.PLP.part.repulsive>
0.1048

> <Gold.PLP.ligand.clash>
0.0000

> <Gold.PLP.ligand.torsion>
1.5157

> <Gold.PLP.Chemscore.Hbond>
1.9513

> <Gold.PLP.Chemscore.CHOScore>
0.0000

> <Gold.PLP.Chemscore.Metal>
0.0000

> <Gold.Chemscore.Hbonds>
donor molecule, donor type, donor heavy atom, donor atom, acceptor molecule, acceptor atom, score
      P1  H  6896  6908       L1     8  0.98
      P1  H  7989  7998       L1    16  0.96

> <Gold.PLP.Chemscore.Internal.Correction>
1.2147

> <Gold.Rescore>
     Score         DG    S(hbond)    S(metal)    S(lipo)     H(rot)  DE(clash)    DE(int)     intcor
     15.94     -18.64       1.94        0.00      79.07       1.00       0.00       2.70       ----

> <Gold.Chemscore.Fitness>
15.9412

> <Gold.Chemscore.DG>
-18.6377

> <Gold.Chemscore.ZeroCoef>
-5.4800

> <Gold.Chemscore.Hbond>
1.9362

> <Gold.Chemscore.Metal>
0.0000

> <Gold.Chemscore.Lipo>
79.0656

> <Gold.Chemscore.Internal_Hbond>
0.0000

> <Gold.Chemscore.DEClash>
0.0000

> <Gold.Chemscore.DEInternal>
2.6965

> <Gold.Chemscore.Rot>
1.0000

> <Gold.Chemscore.Internal.Correction>
   9.000000E+99

> <Gold.Chemscore.Hbonds>
donor molecule, donor type, donor heavy atom, donor atom, acceptor molecule, acceptor atom, score
      P1  H  6896  6908       L1     8  0.92
      P1  H  7989  7998       L1    16  0.91

> <Gold.Chemscore.Hbond.Weighted>
-6.4670

> <Gold.Chemscore.Metal.Weighted>
-0.0000

> <Gold.Chemscore.Lipo.Weighted>
-9.2507

> <Gold.Chemscore.Internal_Hbond.Weighted>
0.0000

> <Gold.Chemscore.DEClash.Weighted>
0.0000

> <Gold.Chemscore.DEInternal.Weighted>
2.6965

> <Gold.Chemscore.Rot.Weighted>
2.5600

> <Gold.Chemscore.Internal.Correction.Weighted>
   9.000000E+99

> <Gold.Protein.RotatedTorsions>
[ 6907 6896 6895 6894 ] final -126.14 input  -60.11 | X-H torsion
[ 7974 7965 7964 7962 ] final  124.55 input  175.53 | X-H torsion
[ 8008 7997 7996 7995 ] final   74.83 input   59.86 | X-H torsion
[ 10167 10162 10161 10158 ] final -175.19 input  -65.29 | X-H torsion
[ 10718 10713 10712 10709 ] final -142.61 input   66.30 | X-H torsion
[ 10763 10752 10751 10750 ] final  -38.19 input  -60.55 | X-H torsion
[ 11005 11000 10999 10996 ] final  123.72 input  -57.11 | X-H torsion

> <Gold.Protein.ActiveResidues>
 VAL166  LYS551  ARG553  GLY616  TRP617  ASP618  TYR619  PRO620  LYS621  CYS622 
 ASP623  PHE694  ASN695  SER759  ASP760  ASP761  ALA762  ILE779  LEU786  VAL792 
 PHE793  MET794  SER795  GLU796  ALA797  LYS798  CYS799  TRP800  GLU811  SER814 

> <Gold.Protein.RotatedAtoms>
  150.8939  133.7206  159.2896 H   0  0  0  0  0  0  0  0  0  0  0  0  # atno 6907 bound_to 6896
  151.4747  135.1047  159.9771 H   0  0  0  0  0  0  0  0  0  0  0  0  # atno 6908 bound_to 6896
  152.4837  133.8271  159.7139 H   0  0  0  0  0  0  0  0  0  0  0  0  # atno 6909 bound_to 6896
  145.0831  139.3642  143.4899 H   0  0  0  0  0  0  0  0  0  0  0  0  # atno 7974 bound_to 7965
  155.8040  140.3475  155.5419 H   0  0  0  0  0  0  0  0  0  0  0  0  # atno 8008 bound_to 7997
  155.8509  140.0956  157.1696 H   0  0  0  0  0  0  0  0  0  0  0  0  # atno 8009 bound_to 7997
  154.4008  140.1376  156.3830 H   0  0  0  0  0  0  0  0  0  0  0  0  # atno 8010 bound_to 7997
  139.5594  144.1908  152.1214 H   0  0  0  0  0  0  0  0  0  0  0  0  # atno 10167 bound_to 10162
  156.3480  130.7673  151.1821 H   0  0  0  0  0  0  0  0  0  0  0  0  # atno 10718 bound_to 10713
  153.9087  135.6794  153.4752 H   0  0  0  0  0  0  0  0  0  0  0  0  # atno 10763 bound_to 10752
  153.1090  135.4792  154.8999 H   0  0  0  0  0  0  0  0  0  0  0  0  # atno 10764 bound_to 10752
  154.7538  135.3192  154.8463 H   0  0  0  0  0  0  0  0  0  0  0  0  # atno 10765 bound_to 10752
  139.9325  134.9641  156.8302 H   0  0  0  0  0  0  0  0  0  0  0  0  # atno 11005 bound_to 11000
  146.3531  140.0630  142.8628 LP  0  0  0  0  0  0  0  0  0  0  0  0  # atno 17320 bound_to 7965
  145.1155  140.9431  143.4631 LP  0  0  0  0  0  0  0  0  0  0  0  0  # atno 17321 bound_to 7965
  140.1418  144.5195  150.6739 LP  0  0  0  0  0  0  0  0  0  0  0  0  # atno 17342 bound_to 10162
  140.6872  143.2356  151.5229 LP  0  0  0  0  0  0  0  0  0  0  0  0  # atno 17343 bound_to 10162
  157.7457  131.0435  150.4749 LP  0  0  0  0  0  0  0  0  0  0  0  0  # atno 17370 bound_to 10713
  156.4940  130.4102  149.6390 LP  0  0  0  0  0  0  0  0  0  0  0  0  # atno 17371 bound_to 10713
  140.6162  134.0036  155.7598 LP  0  0  0  0  0  0  0  0  0  0  0  0  # atno 17394 bound_to 11000
  141.0922  133.9899  157.3218 LP  0  0  0  0  0  0  0  0  0  0  0  0  # atno 17395 bound_to 11000

$$$$
