AV-unprocessed.smi:2981|AV-procd|sdf|11375|dock6
  -GOLD-   2272016293D 1   1.00000     0.00000
 Structure written by MMmdl.
 31 32  0  0  0  0  0  0  0  0  1 V2000
  151.2796  140.1841  155.9157 O   0  0  0  0  0  0  0  0  0  0  0  0
  150.5009  141.1108  155.6868 C   0  0  0  0  0  0  0  0  0  0  0  0
  149.3542  140.9414  154.6797 C   0  0  0  0  0  0  0  0  0  0  0  0
  148.1065  141.5907  155.1087 N   0  0  0  0  0  0  0  0  0  0  0  0
  147.4712  142.3090  154.1107 N   0  0  0  0  0  0  0  0  0  0  0  0
  146.3585  142.9051  154.3687 C   0  0  0  0  0  0  0  0  0  0  0  0
  145.7431  142.8560  155.6765 C   0  0  0  0  0  0  0  0  0  0  0  0
  144.2486  143.6757  155.9630 Cl  0  0  0  0  0  0  0  0  0  0  0  0
  146.3774  142.1547  156.6496 C   0  0  0  0  0  0  0  0  0  0  0  0
  145.7036  142.0509  158.2401 Cl  0  0  0  0  0  0  0  0  0  0  0  0
  147.6479  141.4626  156.3920 C   0  0  0  0  0  0  0  0  0  0  0  0
  148.2560  140.8184  157.2480 O   0  0  0  0  0  0  0  0  0  0  0  0
  150.6001  142.3142  156.2712 N   0  0  0  0  0  0  0  0  0  0  0  0
  151.6077  142.6838  157.2597 C   0  0  1  0  0  0  0  0  0  0  0  0
  151.5158  144.1789  157.6167 C   0  0  0  0  0  0  0  0  0  0  0  0
  152.3333  144.4310  158.8896 C   0  0  0  0  0  0  0  0  0  0  0  0
  152.2395  142.8841  159.8692 S   0  0  0  0  0  0  0  0  0  0  0  0
  153.6037  142.3911  160.1120 O   0  0  0  0  0  0  0  0  0  0  0  0
  151.2889  143.0591  160.9777 O   0  0  0  0  0  0  0  0  0  0  0  0
  151.4504  141.8769  158.5585 C   0  0  0  0  0  0  0  0  0  0  0  0
  149.6584  141.3304  153.7059 H   0  0  0  0  0  0  0  0  0  0  0  0
  149.1933  139.8721  154.5298 H   0  0  0  0  0  0  0  0  0  0  0  0
  145.8209  143.4792  153.6139 H   0  0  0  0  0  0  0  0  0  0  0  0
  149.9239  143.0212  156.0209 H   0  0  0  0  0  0  0  0  0  0  0  0
  152.6039  142.4996  156.8527 H   0  0  0  0  0  0  0  0  0  0  0  0
  151.8493  144.8141  156.7955 H   0  0  0  0  0  0  0  0  0  0  0  0
  150.4746  144.4371  157.8159 H   0  0  0  0  0  0  0  0  0  0  0  0
  153.3808  144.6106  158.6465 H   0  0  0  0  0  0  0  0  0  0  0  0
  151.9624  145.2725  159.4752 H   0  0  0  0  0  0  0  0  0  0  0  0
  150.3996  141.7520  158.8226 H   0  0  0  0  0  0  0  0  0  0  0  0
  151.9158  140.8921  158.5091 H   0  0  0  0  0  0  0  0  0  0  0  0
  1  2  2  0  0  0  0
  2  3  1  0  0  0  0
  2 13  1  0  0  0  0
  3  4  1  0  0  0  0
  3 21  1  0  0  0  0
  3 22  1  0  0  0  0
  4 11  1  0  0  0  0
  4  5  1  0  0  0  0
  5  6  2  0  0  0  0
  6  7  1  0  0  0  0
  6 23  1  0  0  0  0
  7  8  1  0  0  0  0
  7  9  2  0  0  0  0
  9 10  1  0  0  0  0
  9 11  1  0  0  0  0
 11 12  2  0  0  0  0
 13 14  1  0  0  0  0
 13 24  1  0  0  0  0
 14 20  1  0  0  0  0
 14 15  1  0  0  0  0
 14 25  1  0  0  0  0
 15 16  1  0  0  0  0
 15 26  1  0  0  0  0
 15 27  1  0  0  0  0
 16 17  1  0  0  0  0
 16 28  1  0  0  0  0
 16 29  1  0  0  0  0
 17 18  2  0  0  0  0
 17 19  2  0  0  0  0
 17 20  1  0  0  0  0
 20 30  1  0  0  0  0
 20 31  1  0  0  0  0
M  END
> <s_m_source_file>
AV-unprocessed.smi

> <i_m_source_file_index>
2981

> <i_lp_mmshare_version>
43012

> <i_f3d_flags>
0

> <s_epik_input>
Tz1TMSg9TylbQ0gyXVtDSDJdW0NASF0oW0NIMl0xKVtOSF1DKD1PKVtDSDJdbjJuW2NIXWMoQ2wpYyhDbCljMj1P

> <s_epik_cmdline>
J2VwaWtfcHl0aG9uJywgJy1waCcsICc3LjAnLCAnLXRuJywgJzgnLCAnLW1hJywgJzIwMCcsICctbWV0YWxfYmluZGluZycsICctaW1hZScsICc8aW5maWxlLm1hZT4nLCAnLW9tYWUnLCAnPG91dGZpbGUubWFlPic=

> <r_lp_tautomer_probability>
1

> <r_epik_Ionization_Penalty>
1.07216e-07

> <r_epik_Ionization_Penalty_Charging>
2.33395e-11

> <r_epik_Ionization_Penalty_Neutral>
1.07193e-07

> <r_epik_State_Penalty>
-0

> <r_epik_Charging_Adjusted_Penalty>
2.33395e-11

> <i_epik_Tot_Q>
0

> <i_epik_Tot_abs_Q>
0

> <r_epik_Metal_State_Penalty>
-0

> <b_epik_Metal_Only>
0

> <s_lp_Force_Field>
OPLS_2005

> <r_lp_Energy>
17.277

> <b_lp_Chiralities_Consistent>
1

> <s_lp_Variant>
AV-unprocessed.smi:2981-2

> <Gold.Version>
5.8.1

> <Gold.Id.Protein>
6NUR|6NUR_protein|mol2

> <Gold.PLP.Fitness>
39.3164

> <Gold.PLP.PLP>
-36.8272

> <Gold.PLP.part.hbond>
-2.0000

> <Gold.PLP.part.metal>
0.0000

> <Gold.PLP.part.buried>
-6.6056

> <Gold.PLP.part.nonpolar>
-29.5743

> <Gold.PLP.part.repulsive>
0.4157

> <Gold.PLP.ligand.clash>
0.0044

> <Gold.PLP.ligand.torsion>
0.5103

> <Gold.PLP.Chemscore.Hbond>
1.1711

> <Gold.PLP.Chemscore.CHOScore>
0.0000

> <Gold.PLP.Chemscore.Metal>
0.0000

> <Gold.Chemscore.Hbonds>
donor molecule, donor type, donor heavy atom, donor atom, acceptor molecule, acceptor atom, score
      L1  H    13    24       P1  8028  1.00
      P1  H  6933  6945       L1    19  0.14

> <Gold.PLP.Chemscore.Internal.Correction>
0.0010

> <Gold.Rescore>
     Score         DG    S(hbond)    S(metal)    S(lipo)     H(rot)  DE(clash)    DE(int)     intcor
     10.77     -12.60       1.17        0.00      64.76       1.70       0.02       1.81       ----

> <Gold.Chemscore.Fitness>
10.7669

> <Gold.Chemscore.DG>
-12.5978

> <Gold.Chemscore.ZeroCoef>
-5.4800

> <Gold.Chemscore.Hbond>
1.1693

> <Gold.Chemscore.Metal>
0.0000

> <Gold.Chemscore.Lipo>
64.7603

> <Gold.Chemscore.Internal_Hbond>
0.0000

> <Gold.Chemscore.DEClash>
0.0197

> <Gold.Chemscore.DEInternal>
1.8113

> <Gold.Chemscore.Rot>
1.7049

> <Gold.Chemscore.Internal.Correction>
   9.000000E+99

> <Gold.Chemscore.Hbonds>
donor molecule, donor type, donor heavy atom, donor atom, acceptor molecule, acceptor atom, score
      L1  H    13    24       P1  8028  0.94
      P1  H  6933  6945       L1    19  0.14

> <Gold.Chemscore.Hbond.Weighted>
-3.9055

> <Gold.Chemscore.Metal.Weighted>
-0.0000

> <Gold.Chemscore.Lipo.Weighted>
-7.5770

> <Gold.Chemscore.Internal_Hbond.Weighted>
0.0000

> <Gold.Chemscore.DEClash.Weighted>
0.0197

> <Gold.Chemscore.DEInternal.Weighted>
1.8113

> <Gold.Chemscore.Rot.Weighted>
4.3646

> <Gold.Chemscore.Internal.Correction.Weighted>
   9.000000E+99

> <Gold.Protein.RotatedTorsions>
[ 6907 6896 6895 6894 ] final -121.58 input  -60.11 | X-H torsion
[ 7974 7965 7964 7962 ] final -137.49 input  175.53 | X-H torsion
[ 8008 7997 7996 7995 ] final -165.26 input   59.86 | X-H torsion
[ 10167 10162 10161 10158 ] final  139.79 input  -65.29 | X-H torsion
[ 10718 10713 10712 10709 ] final  -27.13 input   66.30 | X-H torsion
[ 10763 10752 10751 10750 ] final -125.97 input  -60.55 | X-H torsion
[ 11005 11000 10999 10996 ] final   22.49 input  -57.11 | X-H torsion

> <Gold.Protein.ActiveResidues>
 VAL166  LYS551  ARG553  GLY616  TRP617  ASP618  TYR619  PRO620  LYS621  CYS622 
 ASP623  PHE694  ASN695  SER759  ASP760  ASP761  ALA762  ILE779  LEU786  VAL792 
 PHE793  MET794  SER795  GLU796  ALA797  LYS798  CYS799  TRP800  GLU811  SER814 

> <Gold.Protein.RotatedAtoms>
  150.8496  133.7807  159.3030 H   0  0  0  0  0  0  0  0  0  0  0  0  # atno 6907 bound_to 6896
  151.5483  135.1066  159.9953 H   0  0  0  0  0  0  0  0  0  0  0  0  # atno 6908 bound_to 6896
  152.4542  133.7646  159.6822 H   0  0  0  0  0  0  0  0  0  0  0  0  # atno 6909 bound_to 6896
  144.8837  140.6545  143.5189 H   0  0  0  0  0  0  0  0  0  0  0  0  # atno 7974 bound_to 7965
  155.8472  140.0957  157.1697 H   0  0  0  0  0  0  0  0  0  0  0  0  # atno 8008 bound_to 7997
  154.3984  140.1390  156.3862 H   0  0  0  0  0  0  0  0  0  0  0  0  # atno 8009 bound_to 7997
  155.8000  140.3453  155.5400 H   0  0  0  0  0  0  0  0  0  0  0  0  # atno 8010 bound_to 7997
  139.5068  144.6273  151.5905 H   0  0  0  0  0  0  0  0  0  0  0  0  # atno 10167 bound_to 10162
  156.4422  130.4466  149.7045 H   0  0  0  0  0  0  0  0  0  0  0  0  # atno 10718 bound_to 10713
  154.8741  135.4011  154.3354 H   0  0  0  0  0  0  0  0  0  0  0  0  # atno 10763 bound_to 10752
  153.4162  135.7022  153.6331 H   0  0  0  0  0  0  0  0  0  0  0  0  # atno 10764 bound_to 10752
  153.5013  135.3727  155.2511 H   0  0  0  0  0  0  0  0  0  0  0  0  # atno 10765 bound_to 10752
  140.3800  134.1930  155.7664 H   0  0  0  0  0  0  0  0  0  0  0  0  # atno 11005 bound_to 11000
  145.3907  139.1617  143.4231 LP  0  0  0  0  0  0  0  0  0  0  0  0  # atno 17320 bound_to 7965
  146.3011  140.3996  142.8704 LP  0  0  0  0  0  0  0  0  0  0  0  0  # atno 17321 bound_to 7965
  140.5994  143.9636  150.6376 LP  0  0  0  0  0  0  0  0  0  0  0  0  # atno 17342 bound_to 10162
  140.2843  143.3368  152.1122 LP  0  0  0  0  0  0  0  0  0  0  0  0  # atno 17343 bound_to 10162
  156.3905  130.7625  151.2625 LP  0  0  0  0  0  0  0  0  0  0  0  0  # atno 17370 bound_to 10713
  157.7506  131.0269  150.3983 LP  0  0  0  0  0  0  0  0  0  0  0  0  # atno 17371 bound_to 10713
  141.1926  133.8169  157.0831 LP  0  0  0  0  0  0  0  0  0  0  0  0  # atno 17394 bound_to 11000
  140.0485  134.9817  157.1094 LP  0  0  0  0  0  0  0  0  0  0  0  0  # atno 17395 bound_to 11000

$$$$
