AV-unprocessed.smi:1508|AV-procd|sdf|6087|dock7
  -GOLD-   22720 6213D 1   1.00000     0.00000
 Structure written by MMmdl.
 38 39  0  0  0  0  0  0  0  0  2 V2000
  142.7747  137.4806  153.5856 C   0  0  0  0  0  0  0  0  0  0  0  0
  142.8809  136.2582  152.6613 C   0  0  0  0  0  0  0  0  0  0  0  0
  144.3215  135.9384  152.1769 C   0  0  1  0  0  0  0  0  0  0  0  0
  145.2994  135.6896  153.3604 C   0  0  0  0  0  0  0  0  0  0  0  0
  146.5179  136.4953  153.2842 N   0  0  0  0  0  0  0  0  0  0  0  0
  146.7146  137.6736  153.8928 C   0  0  0  0  0  0  0  0  0  0  0  0
  145.8736  138.2166  154.6075 O   0  0  0  0  0  0  0  0  0  0  0  0
  147.9351  138.1624  153.6204 N   0  0  0  0  0  0  0  0  0  0  0  0
  148.5158  139.3673  154.0899 C   0  0  0  0  0  0  0  0  0  0  0  0
  149.7920  139.3337  154.4901 N   0  0  0  0  0  0  0  0  0  0  0  0
  150.2338  140.5772  154.9247 N   0  0  0  0  0  0  0  0  0  0  0  0
  149.2722  141.5011  154.8347 C   0  0  0  0  0  0  0  0  0  0  0  0
  147.7292  140.9438  154.2123 S   0  0  0  0  0  0  0  0  0  0  0  0
  144.3392  134.7892  151.2205 N   0  3  0  0  0  0  0  0  0  0  0  0
  145.6732  134.2924  150.8169 C   0  0  0  0  0  0  0  0  0  0  0  0
  145.4261  132.8890  150.2765 C   0  0  0  0  0  0  0  0  0  0  0  0
  144.3314  132.3545  151.1918 C   0  0  0  0  0  0  0  0  0  0  0  0
  143.5603  133.5994  151.6516 C   0  0  0  0  0  0  0  0  0  0  0  0
  141.7301  137.7121  153.7939 H   0  0  0  0  0  0  0  0  0  0  0  0
  143.2219  138.3626  153.1264 H   0  0  0  0  0  0  0  0  0  0  0  0
  143.2612  137.3166  154.5458 H   0  0  0  0  0  0  0  0  0  0  0  0
  142.4417  135.3884  153.1499 H   0  0  0  0  0  0  0  0  0  0  0  0
  142.2390  136.4738  151.8081 H   0  0  0  0  0  0  0  0  0  0  0  0
  144.6771  136.8145  151.6319 H   0  0  0  0  0  0  0  0  0  0  0  0
  144.8119  135.9509  154.2993 H   0  0  0  0  0  0  0  0  0  0  0  0
  145.5385  134.6318  153.4682 H   0  0  0  0  0  0  0  0  0  0  0  0
  147.2623  136.1366  152.7041 H   0  0  0  0  0  0  0  0  0  0  0  0
  148.5206  137.6104  153.0113 H   0  0  0  0  0  0  0  0  0  0  0  0
  149.4730  142.5182  155.1374 H   0  0  0  0  0  0  0  0  0  0  0  0
  146.1407  134.9337  150.0691 H   0  0  0  0  0  0  0  0  0  0  0  0
  146.3290  134.2433  151.6882 H   0  0  0  0  0  0  0  0  0  0  0  0
  145.0571  132.9468  149.2518 H   0  0  0  0  0  0  0  0  0  0  0  0
  146.3228  132.2685  150.2780 H   0  0  0  0  0  0  0  0  0  0  0  0
  143.6920  131.6257  150.6925 H   0  0  0  0  0  0  0  0  0  0  0  0
  144.7817  131.8615  152.0547 H   0  0  0  0  0  0  0  0  0  0  0  0
  143.4367  133.5690  152.7351 H   0  0  0  0  0  0  0  0  0  0  0  0
  142.5662  133.6380  151.2054 H   0  0  0  0  0  0  0  0  0  0  0  0
  143.9031  135.1123  150.3687 H   0  0  0  0  0  0  0  0  0  0  0  0
  1  2  1  0  0  0  0
  1 19  1  0  0  0  0
  1 20  1  0  0  0  0
  1 21  1  0  0  0  0
  2  3  1  0  0  0  0
  2 22  1  0  0  0  0
  2 23  1  0  0  0  0
  3  4  1  0  0  0  0
  3 14  1  0  0  0  0
  3 24  1  0  0  0  0
  4  5  1  0  0  0  0
  4 25  1  0  0  0  0
  4 26  1  0  0  0  0
  5  6  1  0  0  0  0
  5 27  1  0  0  0  0
  6  7  2  0  0  0  0
  6  8  1  0  0  0  0
  8  9  1  0  0  0  0
  8 28  1  0  0  0  0
  9 13  1  0  0  0  0
  9 10  2  0  0  0  0
 10 11  1  0  0  0  0
 11 12  2  0  0  0  0
 12 13  1  0  0  0  0
 12 29  1  0  0  0  0
 14 18  1  0  0  0  0
 14 15  1  0  0  0  0
 14 38  1  0  0  0  0
 15 16  1  0  0  0  0
 15 30  1  0  0  0  0
 15 31  1  0  0  0  0
 16 17  1  0  0  0  0
 16 32  1  0  0  0  0
 16 33  1  0  0  0  0
 17 18  1  0  0  0  0
 17 34  1  0  0  0  0
 17 35  1  0  0  0  0
 18 36  1  0  0  0  0
 18 37  1  0  0  0  0
M  CHG  1  14   1
M  END
> <s_m_source_file>
AV-unprocessed.smi

> <i_m_source_file_index>
1508

> <i_lp_mmshare_version>
43012

> <i_f3d_flags>
0

> <s_epik_input>
W0NIMl0xW0NIMl1bQ0gyXVtDSDJdTjFbQ0BIXShbQ0gyXVtDSDNdKVtDSDJdW05IXUMoPU8pW05IXWMybm5bY0hdczI=

> <s_epik_cmdline>
J2VwaWtfcHl0aG9uJywgJy1waCcsICc3LjAnLCAnLXRuJywgJzgnLCAnLW1hJywgJzIwMCcsICctbWV0YWxfYmluZGluZycsICctaW1hZScsICc8aW5maWxlLm1hZT4nLCAnLW9tYWUnLCAnPG91dGZpbGUubWFlPic=

> <r_lp_tautomer_probability>
1

> <r_epik_Ionization_Penalty>
0.00193711

> <r_epik_Ionization_Penalty_Charging>
0.00115997

> <r_epik_Ionization_Penalty_Neutral>
0.000777142

> <r_epik_State_Penalty>
-0

> <r_epik_Charging_Adjusted_Penalty>
0.00115997

> <i_epik_Tot_Q>
1

> <i_epik_Tot_abs_Q>
1

> <r_epik_Metal_State_Penalty>
0.264283

> <b_epik_Metal_Only>
0

> <s_lp_Force_Field>
OPLS_2005

> <r_lp_Energy>
37.6611

> <b_lp_Chiralities_Consistent>
1

> <s_lp_Variant>
AV-unprocessed.smi:1508-2

> <Gold.Version>
5.8.1

> <Gold.Id.Protein>
6NUR|6NUR_protein|mol2

> <Gold.PLP.Fitness>
37.5836

> <Gold.PLP.PLP>
-28.2943

> <Gold.PLP.part.hbond>
-3.0000

> <Gold.PLP.part.metal>
0.0000

> <Gold.PLP.part.buried>
-4.0171

> <Gold.PLP.part.nonpolar>
-20.6615

> <Gold.PLP.part.repulsive>
0.3577

> <Gold.PLP.ligand.clash>
0.0000

> <Gold.PLP.ligand.torsion>
1.3838

> <Gold.PLP.Chemscore.Hbond>
3.0000

> <Gold.PLP.Chemscore.CHOScore>
1.0000

> <Gold.PLP.Chemscore.Metal>
0.0000

> <Gold.Chemscore.Hbonds>
donor molecule, donor type, donor heavy atom, donor atom, acceptor molecule, acceptor atom, score
      L1  H     5    27       P1  7948  1.00
      L1  H     8    28       P1  7948  1.00
      P1  H  7989  7998       L1    11  0.84
      L1  C    12    29       P1  8028  1.00

> <Gold.PLP.Chemscore.Internal.Correction>
0.0569

> <Gold.Rescore>
     Score         DG    S(hbond)    S(metal)    S(lipo)     H(rot)  DE(clash)    DE(int)     intcor
     13.81     -15.25       2.39        0.00      56.75       1.89       0.11       1.33       ----

> <Gold.Chemscore.Fitness>
13.8137

> <Gold.Chemscore.DG>
-15.2475

> <Gold.Chemscore.ZeroCoef>
-5.4800

> <Gold.Chemscore.Hbond>
2.3890

> <Gold.Chemscore.Metal>
0.0000

> <Gold.Chemscore.Lipo>
56.7455

> <Gold.Chemscore.Internal_Hbond>
0.0000

> <Gold.Chemscore.DEClash>
0.1051

> <Gold.Chemscore.DEInternal>
1.3287

> <Gold.Chemscore.Rot>
1.8950

> <Gold.Chemscore.Internal.Correction>
   9.000000E+99

> <Gold.Chemscore.Hbonds>
donor molecule, donor type, donor heavy atom, donor atom, acceptor molecule, acceptor atom, score
      L1  H     5    27       P1  7948  0.98
      L1  H     8    28       P1  7948  0.99
      P1  H  7989  7998       L1    11  0.11

> <Gold.Chemscore.Hbond.Weighted>
-7.9793

> <Gold.Chemscore.Metal.Weighted>
-0.0000

> <Gold.Chemscore.Lipo.Weighted>
-6.6392

> <Gold.Chemscore.Internal_Hbond.Weighted>
0.0000

> <Gold.Chemscore.DEClash.Weighted>
0.1051

> <Gold.Chemscore.DEInternal.Weighted>
1.3287

> <Gold.Chemscore.Rot.Weighted>
4.8511

> <Gold.Chemscore.Internal.Correction.Weighted>
   9.000000E+99

> <Gold.Protein.RotatedTorsions>
[ 6907 6896 6895 6894 ] final -109.39 input  -60.11 | X-H torsion
[ 7974 7965 7964 7962 ] final  140.16 input  175.53 | X-H torsion
[ 8008 7997 7996 7995 ] final  -22.75 input   59.86 | X-H torsion
[ 10167 10162 10161 10158 ] final   38.36 input  -65.29 | X-H torsion
[ 10718 10713 10712 10709 ] final  176.02 input   66.30 | X-H torsion
[ 10763 10752 10751 10750 ] final   42.86 input  -60.55 | X-H torsion
[ 11005 11000 10999 10996 ] final  107.65 input  -57.11 | X-H torsion

> <Gold.Protein.ActiveResidues>
 VAL166  LYS551  ARG553  GLY616  TRP617  ASP618  TYR619  PRO620  LYS621  CYS622 
 ASP623  PHE694  ASN695  SER759  ASP760  ASP761  ALA762  ILE779  LEU786  VAL792 
 PHE793  MET794  SER795  GLU796  ALA797  LYS798  CYS799  TRP800  GLU811  SER814 

> <Gold.Protein.RotatedAtoms>
  150.7559  133.9536  159.3493 H   0  0  0  0  0  0  0  0  0  0  0  0  # atno 6907 bound_to 6896
  151.7456  135.0842  160.0332 H   0  0  0  0  0  0  0  0  0  0  0  0  # atno 6908 bound_to 6896
  152.3500  133.6131  159.5974 H   0  0  0  0  0  0  0  0  0  0  0  0  # atno 6909 bound_to 6896
  144.9212  139.5165  143.5662 H   0  0  0  0  0  0  0  0  0  0  0  0  # atno 7974 bound_to 7965
  154.4626  140.1999  156.0205 H   0  0  0  0  0  0  0  0  0  0  0  0  # atno 8008 bound_to 7997
  156.0867  140.3264  155.7735 H   0  0  0  0  0  0  0  0  0  0  0  0  # atno 8009 bound_to 7997
  155.5023  140.0555  157.2928 H   0  0  0  0  0  0  0  0  0  0  0  0  # atno 8010 bound_to 7997
  140.3944  144.1809  150.6131 H   0  0  0  0  0  0  0  0  0  0  0  0  # atno 10167 bound_to 10162
  156.9263  130.9957  151.2995 H   0  0  0  0  0  0  0  0  0  0  0  0  # atno 10718 bound_to 10713
  152.9873  135.6119  154.3017 H   0  0  0  0  0  0  0  0  0  0  0  0  # atno 10763 bound_to 10752
  154.2737  135.2779  155.2729 H   0  0  0  0  0  0  0  0  0  0  0  0  # atno 10764 bound_to 10752
  154.5099  135.5844  153.6654 H   0  0  0  0  0  0  0  0  0  0  0  0  # atno 10765 bound_to 10752
  139.8831  134.9407  156.5851 H   0  0  0  0  0  0  0  0  0  0  0  0  # atno 11005 bound_to 11000
  146.3205  139.8093  142.8949 LP  0  0  0  0  0  0  0  0  0  0  0  0  # atno 17320 bound_to 7965
  145.3293  141.0262  143.3456 LP  0  0  0  0  0  0  0  0  0  0  0  0  # atno 17321 bound_to 7965
  140.4806  143.2380  151.8960 LP  0  0  0  0  0  0  0  0  0  0  0  0  # atno 17342 bound_to 10162
  139.4787  144.5273  151.8717 LP  0  0  0  0  0  0  0  0  0  0  0  0  # atno 17343 bound_to 10162
  157.5875  130.8420  149.8611 LP  0  0  0  0  0  0  0  0  0  0  0  0  # atno 17370 bound_to 10713
  156.0467  130.3726  150.1299 LP  0  0  0  0  0  0  0  0  0  0  0  0  # atno 17371 bound_to 10713
  140.7997  133.8515  155.8716 LP  0  0  0  0  0  0  0  0  0  0  0  0  # atno 17394 bound_to 11000
  140.9603  134.1664  157.4659 LP  0  0  0  0  0  0  0  0  0  0  0  0  # atno 17395 bound_to 11000

$$$$
