AV-unprocessed.smi:821|AV-procd|sdf|3841|dock9
  -GOLD-   22720 1283D 1   1.00000     0.00000
 Structure written by MMmdl.
 45 46  0  0  0  0  0  0  0  0  2 V2000
  146.9156  135.0888  156.3525 C   0  0  0  0  0  0  0  0  0  0  0  0
  147.9748  136.1454  156.6943 C   0  0  1  0  0  0  0  0  0  0  0  0
  147.8131  137.4078  155.8167 C   0  0  0  0  0  0  0  0  0  0  0  0
  149.0480  138.2298  155.7488 N   0  3  0  0  0  0  0  0  0  0  0  0
  150.0853  137.6662  154.8509 C   0  0  0  0  0  0  0  0  0  0  0  0
  151.3563  138.5297  154.9018 C   0  0  0  0  0  0  0  0  0  0  0  0
  151.0360  139.8685  154.5423 O   0  0  0  0  0  0  0  0  0  0  0  0
  150.0970  140.4522  155.4373 C   0  0  0  0  0  0  0  0  0  0  0  0
  148.7859  139.6478  155.4100 C   0  0  0  0  0  0  0  0  0  0  0  0
  147.8802  136.4699  158.1182 N   0  0  0  0  0  0  0  0  0  0  0  0
  148.8530  136.3183  159.0307 C   0  0  0  0  0  0  0  0  0  0  0  0
  149.9837  135.9181  158.7510 O   0  0  0  0  0  0  0  0  0  0  0  0
  148.4918  136.7122  160.4696 C   0  0  0  0  0  0  0  0  0  0  0  0
  147.4801  135.8311  161.0777 N   0  0  0  0  0  0  0  0  0  0  0  0
  147.8317  134.4800  161.2475 C   0  0  0  0  0  0  0  0  0  0  0  0
  146.9849  133.5941  161.7890 C   0  0  0  0  0  0  0  0  0  0  0  0
  145.6836  134.0592  162.2036 C   0  0  0  0  0  0  0  0  0  0  0  0
  145.3150  135.3519  162.0484 C   0  0  0  0  0  0  0  0  0  0  0  0
  143.9429  135.8616  162.4851 C   0  0  0  0  0  0  0  0  0  0  0  0
  143.2179  136.2211  161.4253 F   0  0  0  0  0  0  0  0  0  0  0  0
  143.2579  134.9304  163.1504 F   0  0  0  0  0  0  0  0  0  0  0  0
  144.0689  136.9227  163.2832 F   0  0  0  0  0  0  0  0  0  0  0  0
  146.2544  136.3190  161.4447 C   0  0  0  0  0  0  0  0  0  0  0  0
  145.9628  137.5041  161.2740 O   0  0  0  0  0  0  0  0  0  0  0  0
  146.9814  134.7927  155.3051 H   0  0  0  0  0  0  0  0  0  0  0  0
  145.9068  135.4633  156.5295 H   0  0  0  0  0  0  0  0  0  0  0  0
  147.0482  134.1898  156.9558 H   0  0  0  0  0  0  0  0  0  0  0  0
  148.9462  135.6908  156.4946 H   0  0  0  0  0  0  0  0  0  0  0  0
  147.4967  137.1401  154.8072 H   0  0  0  0  0  0  0  0  0  0  0  0
  147.0055  138.0095  156.2363 H   0  0  0  0  0  0  0  0  0  0  0  0
  150.3290  136.6452  155.1438 H   0  0  0  0  0  0  0  0  0  0  0  0
  149.7042  137.6230  153.8294 H   0  0  0  0  0  0  0  0  0  0  0  0
  151.8061  138.5025  155.8958 H   0  0  0  0  0  0  0  0  0  0  0  0
  152.1004  138.1448  154.2046 H   0  0  0  0  0  0  0  0  0  0  0  0
  150.5118  140.4867  156.4463 H   0  0  0  0  0  0  0  0  0  0  0  0
  149.9122  141.4826  155.1334 H   0  0  0  0  0  0  0  0  0  0  0  0
  148.3255  139.7104  154.4226 H   0  0  0  0  0  0  0  0  0  0  0  0
  148.0803  140.0759  156.1228 H   0  0  0  0  0  0  0  0  0  0  0  0
  146.9864  136.8113  158.4424 H   0  0  0  0  0  0  0  0  0  0  0  0
  149.4080  136.7092  161.0614 H   0  0  0  0  0  0  0  0  0  0  0  0
  148.1463  137.7479  160.4881 H   0  0  0  0  0  0  0  0  0  0  0  0
  148.8211  134.2122  160.9061 H   0  0  0  0  0  0  0  0  0  0  0  0
  147.2678  132.5586  161.9098 H   0  0  0  0  0  0  0  0  0  0  0  0
  145.0023  133.3477  162.6458 H   0  0  0  0  0  0  0  0  0  0  0  0
  149.4376  138.2307  156.6810 H   0  0  0  0  0  0  0  0  0  0  0  0
  1  2  1  0  0  0  0
  1 25  1  0  0  0  0
  1 26  1  0  0  0  0
  1 27  1  0  0  0  0
  2  3  1  0  0  0  0
  2 10  1  0  0  0  0
  2 28  1  0  0  0  0
  3  4  1  0  0  0  0
  3 29  1  0  0  0  0
  3 30  1  0  0  0  0
  4  9  1  0  0  0  0
  4  5  1  0  0  0  0
  4 45  1  0  0  0  0
  5  6  1  0  0  0  0
  5 31  1  0  0  0  0
  5 32  1  0  0  0  0
  6  7  1  0  0  0  0
  6 33  1  0  0  0  0
  6 34  1  0  0  0  0
  7  8  1  0  0  0  0
  8  9  1  0  0  0  0
  8 35  1  0  0  0  0
  8 36  1  0  0  0  0
  9 37  1  0  0  0  0
  9 38  1  0  0  0  0
 10 11  1  0  0  0  0
 10 39  1  0  0  0  0
 11 12  2  0  0  0  0
 11 13  1  0  0  0  0
 13 14  1  0  0  0  0
 13 40  1  0  0  0  0
 13 41  1  0  0  0  0
 14 23  1  0  0  0  0
 14 15  1  0  0  0  0
 15 16  2  0  0  0  0
 15 42  1  0  0  0  0
 16 17  1  0  0  0  0
 16 43  1  0  0  0  0
 17 18  2  0  0  0  0
 17 44  1  0  0  0  0
 18 19  1  0  0  0  0
 18 23  1  0  0  0  0
 19 20  1  0  0  0  0
 19 21  1  0  0  0  0
 19 22  1  0  0  0  0
 23 24  2  0  0  0  0
M  CHG  1   4   1
M  END
> <s_m_source_file>
AV-unprocessed.smi

> <i_m_source_file_index>
821

> <i_lp_mmshare_version>
43012

> <i_f3d_flags>
0

> <s_epik_input>
W0NIMl0xW0NIMl1PW0NIMl1bQ0gyXU4xW0NIMl1bQ0BASF0oW0NIM10pW05IXUMoPU8pW0NIMl1uMltjSF1bY0hdW2NIXWMoQyhGKShGKUYpYzI9Tw==

> <s_epik_cmdline>
J2VwaWtfcHl0aG9uJywgJy1waCcsICc3LjAnLCAnLXRuJywgJzgnLCAnLW1hJywgJzIwMCcsICctbWV0YWxfYmluZGluZycsICctaW1hZScsICc8aW5maWxlLm1hZT4nLCAnLW9tYWUnLCAnPG91dGZpbGUubWFlPic=

> <r_lp_tautomer_probability>
1

> <r_epik_Ionization_Penalty>
0.656654

> <r_epik_Ionization_Penalty_Charging>
0.656653

> <r_epik_Ionization_Penalty_Neutral>
9.12373e-08

> <r_epik_State_Penalty>
0.675641

> <r_epik_Charging_Adjusted_Penalty>
1.33229

> <i_epik_Tot_Q>
1

> <i_epik_Tot_abs_Q>
1

> <r_epik_Metal_State_Penalty>
0.675695

> <b_epik_Metal_Only>
0

> <s_lp_Force_Field>
OPLS_2005

> <r_lp_Energy>
32.7589

> <b_lp_Chiralities_Consistent>
1

> <s_lp_Variant>
AV-unprocessed.smi:821-4

> <Gold.Version>
5.8.1

> <Gold.Id.Protein>
6NUR|6NUR_protein|mol2

> <Gold.PLP.Fitness>
40.0685

> <Gold.PLP.PLP>
-32.0136

> <Gold.PLP.part.hbond>
-3.0000

> <Gold.PLP.part.metal>
0.0000

> <Gold.PLP.part.buried>
-3.6950

> <Gold.PLP.part.nonpolar>
-25.4810

> <Gold.PLP.part.repulsive>
0.1361

> <Gold.PLP.ligand.clash>
0.1512

> <Gold.PLP.ligand.torsion>
0.5760

> <Gold.PLP.Chemscore.Hbond>
3.0000

> <Gold.PLP.Chemscore.CHOScore>
0.0000

> <Gold.PLP.Chemscore.Metal>
0.0000

> <Gold.Chemscore.Hbonds>
donor molecule, donor type, donor heavy atom, donor atom, acceptor molecule, acceptor atom, score
      P1  H  6896  6909       L1    12  1.00
      P1  H  6934  6947       L1    24  1.00
      P1  H  7989  7998       L1     7  1.00

> <Gold.PLP.Chemscore.Internal.Correction>
0.3581

> <Gold.Rescore>
     Score         DG    S(hbond)    S(metal)    S(lipo)     H(rot)  DE(clash)    DE(int)     intcor
     14.40     -17.01       2.92        0.00      62.65       2.17       0.44       2.18       ----

> <Gold.Chemscore.Fitness>
14.3951

> <Gold.Chemscore.DG>
-17.0147

> <Gold.Chemscore.ZeroCoef>
-5.4800

> <Gold.Chemscore.Hbond>
2.9235

> <Gold.Chemscore.Metal>
0.0000

> <Gold.Chemscore.Lipo>
62.6458

> <Gold.Chemscore.Internal_Hbond>
0.0000

> <Gold.Chemscore.DEClash>
0.4435

> <Gold.Chemscore.DEInternal>
2.1761

> <Gold.Chemscore.Rot>
2.1716

> <Gold.Chemscore.Internal.Correction>
   9.000000E+99

> <Gold.Chemscore.Hbonds>
donor molecule, donor type, donor heavy atom, donor atom, acceptor molecule, acceptor atom, score
      P1  H  6896  6909       L1    12  0.98
      P1  H  6934  6947       L1    24  0.97
      P1  H  7989  7998       L1     7  0.87

> <Gold.Chemscore.Hbond.Weighted>
-9.7643

> <Gold.Chemscore.Metal.Weighted>
-0.0000

> <Gold.Chemscore.Lipo.Weighted>
-7.3296

> <Gold.Chemscore.Internal_Hbond.Weighted>
0.0000

> <Gold.Chemscore.DEClash.Weighted>
0.4435

> <Gold.Chemscore.DEInternal.Weighted>
2.1761

> <Gold.Chemscore.Rot.Weighted>
5.5592

> <Gold.Chemscore.Internal.Correction.Weighted>
   9.000000E+99

> <Gold.Protein.RotatedTorsions>
[ 6907 6896 6895 6894 ] final   58.67 input  -60.11 | X-H torsion
[ 7974 7965 7964 7962 ] final  115.34 input  175.53 | X-H torsion
[ 8008 7997 7996 7995 ] final   81.65 input   59.86 | X-H torsion
[ 10167 10162 10161 10158 ] final -117.65 input  -65.29 | X-H torsion
[ 10718 10713 10712 10709 ] final -150.54 input   66.30 | X-H torsion
[ 10763 10752 10751 10750 ] final   25.61 input  -60.55 | X-H torsion
[ 11005 11000 10999 10996 ] final  117.35 input  -57.11 | X-H torsion

> <Gold.Protein.ActiveResidues>
 VAL166  LYS551  ARG553  GLY616  TRP617  ASP618  TYR619  PRO620  LYS621  CYS622 
 ASP623  PHE694  ASN695  SER759  ASP760  ASP761  ALA762  ILE779  LEU786  VAL792 
 PHE793  MET794  SER795  GLU796  ALA797  LYS798  CYS799  TRP800  GLU811  SER814 

> <Gold.Protein.RotatedAtoms>
  152.3845  134.6539  160.0130 H   0  0  0  0  0  0  0  0  0  0  0  0  # atno 6907 bound_to 6896
  151.6792  133.3307  159.3223 H   0  0  0  0  0  0  0  0  0  0  0  0  # atno 6908 bound_to 6896
  150.7774  134.6732  159.6448 H   0  0  0  0  0  0  0  0  0  0  0  0  # atno 6909 bound_to 6896
  145.1932  139.2989  143.4357 H   0  0  0  0  0  0  0  0  0  0  0  0  # atno 7974 bound_to 7965
  155.9000  140.3434  155.6019 H   0  0  0  0  0  0  0  0  0  0  0  0  # atno 8008 bound_to 7997
  155.7512  140.0820  157.2219 H   0  0  0  0  0  0  0  0  0  0  0  0  # atno 8009 bound_to 7997
  154.4042  140.1553  156.2713 H   0  0  0  0  0  0  0  0  0  0  0  0  # atno 8010 bound_to 7997
  140.0660  143.4922  152.2006 H   0  0  0  0  0  0  0  0  0  0  0  0  # atno 10167 bound_to 10162
  156.4474  130.8151  151.2382 H   0  0  0  0  0  0  0  0  0  0  0  0  # atno 10718 bound_to 10713
  153.0679  135.6579  154.0312 H   0  0  0  0  0  0  0  0  0  0  0  0  # atno 10763 bound_to 10752
  153.9964  135.2941  155.3408 H   0  0  0  0  0  0  0  0  0  0  0  0  # atno 10764 bound_to 10752
  154.7044  135.5231  153.8643 H   0  0  0  0  0  0  0  0  0  0  0  0  # atno 10765 bound_to 10752
  139.9072  134.9609  156.7338 H   0  0  0  0  0  0  0  0  0  0  0  0  # atno 11005 bound_to 11000
  146.3432  140.2152  142.8590 LP  0  0  0  0  0  0  0  0  0  0  0  0  # atno 17320 bound_to 7965
  145.0020  140.8640  143.5276 LP  0  0  0  0  0  0  0  0  0  0  0  0  # atno 17321 bound_to 7965
  139.5864  144.7533  151.3509 LP  0  0  0  0  0  0  0  0  0  0  0  0  # atno 17342 bound_to 10162
  140.7148  143.7294  150.7635 LP  0  0  0  0  0  0  0  0  0  0  0  0  # atno 17343 bound_to 10162
  157.7504  131.0149  150.3481 LP  0  0  0  0  0  0  0  0  0  0  0  0  # atno 17370 bound_to 10713
  156.3852  130.3888  149.7071 LP  0  0  0  0  0  0  0  0  0  0  0  0  # atno 17371 bound_to 10713
  140.6904  133.9395  155.7963 LP  0  0  0  0  0  0  0  0  0  0  0  0  # atno 17394 bound_to 11000
  141.0446  134.0573  157.3860 LP  0  0  0  0  0  0  0  0  0  0  0  0  # atno 17395 bound_to 11000

$$$$
