AV-unprocessed.smi:1261|AV-procd|sdf|5307|dock2
  -GOLD-   22720 4433D 1   1.00000     0.00000
 Structure written by MMmdl.
 50 51  0  0  0  0  0  0  0  0  2 V2000
  145.5606  131.7374  149.8873 C   0  0  0  0  0  0  0  0  0  0  0  0
  145.5341  132.6071  151.1521 C   0  0  2  0  0  0  0  0  0  0  0  0
  144.3293  133.5645  151.1479 C   0  0  0  0  0  0  0  0  0  0  0  0
  144.3360  134.4668  152.3945 C   0  0  2  0  0  0  0  0  0  0  0  0
  143.1528  135.4449  152.3824 C   0  0  0  0  0  0  0  0  0  0  0  0
  145.6820  135.2143  152.4996 C   0  0  0  0  0  0  0  0  0  0  0  0
  146.8413  134.2840  152.5125 N   0  3  1  0  0  0  0  0  0  0  0  0
  147.0245  133.5818  153.8115 C   0  0  0  0  0  0  0  0  0  0  0  0
  148.4466  133.0216  153.9814 C   0  0  0  0  0  0  0  0  0  0  0  0
  149.0640  133.3986  155.3380 C   0  0  0  0  0  0  0  0  0  0  0  0
  148.1608  133.0919  156.4401 N   0  0  0  0  0  0  0  0  0  0  0  0
  148.4265  133.2970  157.7418 C   0  0  0  0  0  0  0  0  0  0  0  0
  149.4888  133.7786  158.1336 O   0  0  0  0  0  0  0  0  0  0  0  0
  147.3516  132.9193  158.7767 C   0  0  0  0  0  0  0  0  0  0  0  0
  147.3949  133.6888  160.0307 N   0  0  0  0  0  0  0  0  0  0  0  0
  147.6847  135.0340  159.8582 N   0  0  0  0  0  0  0  0  0  0  0  0
  147.7533  135.8157  160.8823 C   0  0  0  0  0  0  0  0  0  0  0  0
  148.0409  137.1409  160.6663 O   0  0  0  0  0  0  0  0  0  0  0  0
  147.5336  135.3152  162.2214 C   0  0  0  0  0  0  0  0  0  0  0  0
  147.2495  134.0040  162.3794 C   0  0  0  0  0  0  0  0  0  0  0  0
  147.1598  133.0904  161.2390 C   0  0  0  0  0  0  0  0  0  0  0  0
  146.8891  131.8954  161.3525 O   0  0  0  0  0  0  0  0  0  0  0  0
  146.8495  133.4005  151.3141 C   0  0  0  0  0  0  0  0  0  0  0  0
  148.4230  137.1783  159.8031 H   0  0  0  0  0  0  0  0  0  0  0  0
  145.6657  132.3458  148.9884 H   0  0  0  0  0  0  0  0  0  0  0  0
  144.6428  131.1568  149.7904 H   0  0  0  0  0  0  0  0  0  0  0  0
  146.3930  131.0336  149.9120 H   0  0  0  0  0  0  0  0  0  0  0  0
  145.4260  131.9307  152.0000 H   0  0  0  0  0  0  0  0  0  0  0  0
  144.3521  134.1809  150.2478 H   0  0  0  0  0  0  0  0  0  0  0  0
  143.4012  132.9928  151.1081 H   0  0  0  0  0  0  0  0  0  0  0  0
  144.2221  133.8327  153.2747 H   0  0  0  0  0  0  0  0  0  0  0  0
  143.1989  136.1144  151.5227 H   0  0  0  0  0  0  0  0  0  0  0  0
  143.1423  136.0597  153.2829 H   0  0  0  0  0  0  0  0  0  0  0  0
  142.2028  134.9114  152.3381 H   0  0  0  0  0  0  0  0  0  0  0  0
  145.7942  135.8858  151.6470 H   0  0  0  0  0  0  0  0  0  0  0  0
  145.7025  135.8495  153.3862 H   0  0  0  0  0  0  0  0  0  0  0  0
  146.8472  134.2900  154.6219 H   0  0  0  0  0  0  0  0  0  0  0  0
  146.2846  132.7914  153.9345 H   0  0  0  0  0  0  0  0  0  0  0  0
  148.4361  131.9362  153.8876 H   0  0  0  0  0  0  0  0  0  0  0  0
  149.0830  133.3953  153.1781 H   0  0  0  0  0  0  0  0  0  0  0  0
  149.9876  132.8412  155.4955 H   0  0  0  0  0  0  0  0  0  0  0  0
  149.3320  134.4563  155.3578 H   0  0  0  0  0  0  0  0  0  0  0  0
  147.2660  132.6895  156.2001 H   0  0  0  0  0  0  0  0  0  0  0  0
  146.3704  133.0132  158.3086 H   0  0  0  0  0  0  0  0  0  0  0  0
  147.4606  131.8558  158.9962 H   0  0  0  0  0  0  0  0  0  0  0  0
  147.5971  135.9810  163.0697 H   0  0  0  0  0  0  0  0  0  0  0  0
  147.0832  133.6166  163.3738 H   0  0  0  0  0  0  0  0  0  0  0  0
  147.7024  132.7237  151.3393 H   0  0  0  0  0  0  0  0  0  0  0  0
  146.9997  134.0311  150.4366 H   0  0  0  0  0  0  0  0  0  0  0  0
  147.6548  134.8763  152.4261 H   0  0  0  0  0  0  0  0  0  0  0  0
  1  2  1  0  0  0  0
  1 25  1  0  0  0  0
  1 26  1  0  0  0  0
  1 27  1  0  0  0  0
  2 23  1  0  0  0  0
  2  3  1  0  0  0  0
  2 28  1  0  0  0  0
  3  4  1  0  0  0  0
  3 29  1  0  0  0  0
  3 30  1  0  0  0  0
  4  5  1  0  0  0  0
  4  6  1  0  0  0  0
  4 31  1  0  0  0  0
  5 32  1  0  0  0  0
  5 33  1  0  0  0  0
  5 34  1  0  0  0  0
  6  7  1  0  0  0  0
  6 35  1  0  0  0  0
  6 36  1  0  0  0  0
  7  8  1  0  0  0  0
  7 23  1  0  0  0  0
  7 50  1  0  0  0  0
  8  9  1  0  0  0  0
  8 37  1  0  0  0  0
  8 38  1  0  0  0  0
  9 10  1  0  0  0  0
  9 39  1  0  0  0  0
  9 40  1  0  0  0  0
 10 11  1  0  0  0  0
 10 41  1  0  0  0  0
 10 42  1  0  0  0  0
 11 12  1  0  0  0  0
 11 43  1  0  0  0  0
 12 13  2  0  0  0  0
 12 14  1  0  0  0  0
 14 44  1  0  0  0  0
 14 45  1  0  0  0  0
 14 15  1  0  0  0  0
 15 16  1  0  0  0  0
 15 21  1  0  0  0  0
 16 17  2  0  0  0  0
 17 18  1  0  0  0  0
 17 19  1  0  0  0  0
 18 24  1  0  0  0  0
 19 46  1  0  0  0  0
 19 20  2  0  0  0  0
 20 47  1  0  0  0  0
 20 21  1  0  0  0  0
 21 22  2  0  0  0  0
 23 48  1  0  0  0  0
 23 49  1  0  0  0  0
M  CHG  1   7   1
M  END
> <s_m_source_file>
AV-unprocessed.smi

> <i_m_source_file_index>
1261

> <i_lp_mmshare_version>
43012

> <i_f3d_flags>
0

> <s_epik_input>
W0NIM11bQ0BASF0xW0NIMl1bQ0BASF0oW0NIM10pW0NIMl1OKFtDSDJdMSlbQ0gyXVtDSDJdW0NIMl1bTkhdQyg9TylbQ0gyXW4yW25IXWMoPU8pW2NIXVtjSF1jMj1P

> <s_epik_cmdline>
J2VwaWtfcHl0aG9uJywgJy1waCcsICc3LjAnLCAnLXRuJywgJzgnLCAnLW1hJywgJzIwMCcsICctbWV0YWxfYmluZGluZycsICctaW1hZScsICc8aW5maWxlLm1hZT4nLCAnLW9tYWUnLCAnPG91dGZpbGUubWFlPic=

> <r_lp_tautomer_probability>
0.9996

> <r_epik_Ionization_Penalty>
2.1425

> <r_epik_Ionization_Penalty_Charging>
0.000312112

> <r_epik_Ionization_Penalty_Neutral>
2.14218

> <r_epik_State_Penalty>
1.71978

> <r_epik_Charging_Adjusted_Penalty>
1.72009

> <i_epik_Tot_Q>
1

> <i_epik_Tot_abs_Q>
1

> <r_epik_Metal_State_Penalty>
1.71978

> <b_epik_Metal_Only>
0

> <s_lp_Force_Field>
OPLS_2005

> <r_lp_Energy>
29.2022

> <b_lp_Chiralities_Consistent>
1

> <s_lp_Variant>
AV-unprocessed.smi:1261-7

> <Gold.Version>
5.8.1

> <Gold.Id.Protein>
6NUR|6NUR_protein|mol2

> <Gold.PLP.Fitness>
51.9840

> <Gold.PLP.PLP>
-40.1247

> <Gold.PLP.part.hbond>
-4.0000

> <Gold.PLP.part.metal>
0.0000

> <Gold.PLP.part.buried>
-5.7718

> <Gold.PLP.part.nonpolar>
-30.3208

> <Gold.PLP.part.repulsive>
0.0159

> <Gold.PLP.ligand.clash>
0.0000

> <Gold.PLP.ligand.torsion>
1.1454

> <Gold.PLP.Chemscore.Hbond>
4.6480

> <Gold.PLP.Chemscore.CHOScore>
0.0000

> <Gold.PLP.Chemscore.Metal>
0.0000

> <Gold.Chemscore.Hbonds>
donor molecule, donor type, donor heavy atom, donor atom, acceptor molecule, acceptor atom, score
      L1  H     7    50       P1  7948  2.00
      P1  H  6896  6908       L1    13  1.00
      P1  H  6931  6943       L1    18  0.85
      P1  H  6934  6947       L1    18  0.66

> <Gold.PLP.Chemscore.Internal.Correction>
0.2062

> <Gold.Rescore>
     Score         DG    S(hbond)    S(metal)    S(lipo)     H(rot)  DE(clash)    DE(int)     intcor
     14.51     -17.01       3.09        0.00      78.76       3.14       0.07       2.43       ----

> <Gold.Chemscore.Fitness>
14.5067

> <Gold.Chemscore.DG>
-17.0060

> <Gold.Chemscore.ZeroCoef>
-5.4800

> <Gold.Chemscore.Hbond>
3.0949

> <Gold.Chemscore.Metal>
0.0000

> <Gold.Chemscore.Lipo>
78.7617

> <Gold.Chemscore.Internal_Hbond>
0.0000

> <Gold.Chemscore.DEClash>
0.0650

> <Gold.Chemscore.DEInternal>
2.4342

> <Gold.Chemscore.Rot>
3.1352

> <Gold.Chemscore.Internal.Correction>
   9.000000E+99

> <Gold.Chemscore.Hbonds>
donor molecule, donor type, donor heavy atom, donor atom, acceptor molecule, acceptor atom, score
      L1  H     7    50       P1  7948  0.92
      P1  H  6896  6908       L1    13  1.00
      P1  H  6931  6943       L1    18  0.61
      P1  H  6934  6947       L1    18  0.29

> <Gold.Chemscore.Hbond.Weighted>
-10.3369

> <Gold.Chemscore.Metal.Weighted>
-0.0000

> <Gold.Chemscore.Lipo.Weighted>
-9.2151

> <Gold.Chemscore.Internal_Hbond.Weighted>
0.0000

> <Gold.Chemscore.DEClash.Weighted>
0.0650

> <Gold.Chemscore.DEInternal.Weighted>
2.4342

> <Gold.Chemscore.Rot.Weighted>
8.0260

> <Gold.Chemscore.Internal.Correction.Weighted>
   9.000000E+99

> <Gold.Protein.RotatedTorsions>
[ 6907 6896 6895 6894 ] final  130.85 input  -60.11 | X-H torsion
[ 7974 7965 7964 7962 ] final  144.24 input  175.53 | X-H torsion
[ 8008 7997 7996 7995 ] final  -29.45 input   59.86 | X-H torsion
[ 10167 10162 10161 10158 ] final  177.50 input  -65.29 | X-H torsion
[ 10718 10713 10712 10709 ] final  115.76 input   66.30 | X-H torsion
[ 10763 10752 10751 10750 ] final  169.21 input  -60.55 | X-H torsion
[ 11005 11000 10999 10996 ] final   14.14 input  -57.11 | X-H torsion

> <Gold.Protein.ActiveResidues>
 VAL166  LYS551  ARG553  GLY616  TRP617  ASP618  TYR619  PRO620  LYS621  CYS622 
 ASP623  PHE694  ASN695  SER759  ASP760  ASP761  ALA762  ILE779  LEU786  VAL792 
 PHE793  MET794  SER795  GLU796  ALA797  LYS798  CYS799  TRP800  GLU811  SER814 

> <Gold.Protein.RotatedAtoms>
  152.3485  133.6151  159.5927 H   0  0  0  0  0  0  0  0  0  0  0  0  # atno 6907 bound_to 6896
  150.7523  133.9611  159.3524 H   0  0  0  0  0  0  0  0  0  0  0  0  # atno 6908 bound_to 6896
  151.7466  135.0843  160.0375 H   0  0  0  0  0  0  0  0  0  0  0  0  # atno 6909 bound_to 6896
  144.8852  139.5639  143.5824 H   0  0  0  0  0  0  0  0  0  0  0  0  # atno 7974 bound_to 7965
  154.4289  140.1818  156.1251 H   0  0  0  0  0  0  0  0  0  0  0  0  # atno 8008 bound_to 7997
  156.0112  140.3350  155.6918 H   0  0  0  0  0  0  0  0  0  0  0  0  # atno 8009 bound_to 7997
  155.6107  140.0650  157.2697 H   0  0  0  0  0  0  0  0  0  0  0  0  # atno 8010 bound_to 7997
  139.5256  144.2791  152.0562 H   0  0  0  0  0  0  0  0  0  0  0  0  # atno 10167 bound_to 10162
  157.6202  131.1016  150.7376 H   0  0  0  0  0  0  0  0  0  0  0  0  # atno 10718 bound_to 10713
  154.3798  135.2753  155.2218 H   0  0  0  0  0  0  0  0  0  0  0  0  # atno 10763 bound_to 10752
  154.4329  135.5973  153.6084 H   0  0  0  0  0  0  0  0  0  0  0  0  # atno 10764 bound_to 10752
  152.9835  135.6000  154.4040 H   0  0  0  0  0  0  0  0  0  0  0  0  # atno 10765 bound_to 10752
  140.4729  134.1013  155.7736 H   0  0  0  0  0  0  0  0  0  0  0  0  # atno 11005 bound_to 11000
  146.3020  139.7457  142.9084 LP  0  0  0  0  0  0  0  0  0  0  0  0  # atno 17320 bound_to 7965
  145.3881  141.0368  143.3139 LP  0  0  0  0  0  0  0  0  0  0  0  0  # atno 17321 bound_to 7965
  140.2247  144.4430  150.6326 LP  0  0  0  0  0  0  0  0  0  0  0  0  # atno 17342 bound_to 10162
  140.6395  143.2201  151.6321 LP  0  0  0  0  0  0  0  0  0  0  0  0  # atno 17343 bound_to 10162
  156.7735  130.4836  149.5414 LP  0  0  0  0  0  0  0  0  0  0  0  0  # atno 17370 bound_to 10713
  156.1344  130.6201  151.0379 LP  0  0  0  0  0  0  0  0  0  0  0  0  # atno 17371 bound_to 10713
  141.1568  133.8867  157.1954 LP  0  0  0  0  0  0  0  0  0  0  0  0  # atno 17394 bound_to 11000
  139.9874  135.0077  156.9895 LP  0  0  0  0  0  0  0  0  0  0  0  0  # atno 17395 bound_to 11000

$$$$
