AV-unprocessed.smi:3330|AV-procd|sdf|12808|dock8
  -GOLD-   2272019173D 1   1.00000     0.00000
 Structure written by MMmdl.
 38 39  0  0  0  0  0  0  0  0  1 V2000
  150.9145  142.4402  157.2182 C   0  0  0  0  0  0  0  0  0  0  0  0
  151.6616  141.9276  158.4647 C   0  0  1  0  0  0  0  0  0  0  0  0
  152.3321  140.6744  158.1313 N   0  0  0  0  0  0  0  0  0  0  0  0
  151.4502  139.7459  157.4396 C   0  0  0  0  0  0  0  0  0  0  0  0
  152.1752  138.4055  157.2292 C   0  0  0  0  0  0  0  0  0  0  0  0
  151.3488  137.4477  156.4839 N   0  0  0  0  0  0  0  0  0  0  0  0
  151.0470  136.2131  156.9084 C   0  0  0  0  0  0  0  0  0  0  0  0
  151.3860  135.6785  157.9637 O   0  0  0  0  0  0  0  0  0  0  0  0
  150.1802  135.5447  155.8636 C   0  0  0  0  0  0  0  0  0  0  0  0
  150.0902  136.6258  154.9069 N   0  0  0  0  0  0  0  0  0  0  0  0
  150.7765  137.7088  155.2940 C   0  0  0  0  0  0  0  0  0  0  0  0
  150.8579  138.7591  154.6587 O   0  0  0  0  0  0  0  0  0  0  0  0
  152.7279  142.9275  158.9904 C   0  0  1  0  0  0  0  0  0  0  0  0
  152.2587  144.3932  158.9338 C   0  0  0  0  0  0  0  0  0  0  0  0
  153.1511  142.6029  160.3500 N   0  0  0  0  0  0  0  0  0  0  0  0
  152.8924  143.3024  161.5105 C   0  0  0  0  0  0  0  0  0  0  0  0
  153.4827  142.6238  162.5377 C   0  0  0  0  0  0  0  0  0  0  0  0
  154.0852  141.5037  161.9006 C   0  0  0  0  0  0  0  0  0  0  0  0
  153.8848  141.4923  160.5934 N   0  0  0  0  0  0  0  0  0  0  0  0
  150.3564  143.3507  157.4332 H   0  0  0  0  0  0  0  0  0  0  0  0
  150.1895  141.7130  156.8535 H   0  0  0  0  0  0  0  0  0  0  0  0
  151.6052  142.6575  156.4027 H   0  0  0  0  0  0  0  0  0  0  0  0
  150.9414  141.7496  159.2647 H   0  0  0  0  0  0  0  0  0  0  0  0
  152.6288  140.2399  158.9938 H   0  0  0  0  0  0  0  0  0  0  0  0
  150.5319  139.5857  158.0063 H   0  0  0  0  0  0  0  0  0  0  0  0
  151.1660  140.1687  156.4761 H   0  0  0  0  0  0  0  0  0  0  0  0
  153.0956  138.5837  156.6709 H   0  0  0  0  0  0  0  0  0  0  0  0
  152.4947  137.9870  158.1854 H   0  0  0  0  0  0  0  0  0  0  0  0
  150.6690  134.6688  155.4363 H   0  0  0  0  0  0  0  0  0  0  0  0
  149.2010  135.2745  156.2586 H   0  0  0  0  0  0  0  0  0  0  0  0
  149.5657  136.5583  154.0467 H   0  0  0  0  0  0  0  0  0  0  0  0
  153.6128  142.8442  158.3568 H   0  0  0  0  0  0  0  0  0  0  0  0
  152.1071  144.7284  157.9083 H   0  0  0  0  0  0  0  0  0  0  0  0
  152.9998  145.0579  159.3786 H   0  0  0  0  0  0  0  0  0  0  0  0
  151.3218  144.5332  159.4738 H   0  0  0  0  0  0  0  0  0  0  0  0
  152.3184  144.2175  161.5086 H   0  0  0  0  0  0  0  0  0  0  0  0
  153.4854  142.8886  163.5847 H   0  0  0  0  0  0  0  0  0  0  0  0
  154.6610  140.7060  162.3458 H   0  0  0  0  0  0  0  0  0  0  0  0
  1  2  1  0  0  0  0
  1 20  1  0  0  0  0
  1 21  1  0  0  0  0
  1 22  1  0  0  0  0
  2  3  1  0  0  0  0
  2 13  1  0  0  0  0
  2 23  1  0  0  0  0
  3  4  1  0  0  0  0
  3 24  1  0  0  0  0
  4  5  1  0  0  0  0
  4 25  1  0  0  0  0
  4 26  1  0  0  0  0
  5  6  1  0  0  0  0
  5 27  1  0  0  0  0
  5 28  1  0  0  0  0
  6 11  1  0  0  0  0
  6  7  1  0  0  0  0
  7  8  2  0  0  0  0
  7  9  1  0  0  0  0
  9 10  1  0  0  0  0
  9 29  1  0  0  0  0
  9 30  1  0  0  0  0
 10 11  1  0  0  0  0
 10 31  1  0  0  0  0
 11 12  2  0  0  0  0
 13 14  1  0  0  0  0
 13 15  1  0  0  0  0
 13 32  1  0  0  0  0
 14 33  1  0  0  0  0
 14 34  1  0  0  0  0
 14 35  1  0  0  0  0
 15 19  1  0  0  0  0
 15 16  1  0  0  0  0
 16 17  2  0  0  0  0
 16 36  1  0  0  0  0
 17 18  1  0  0  0  0
 17 37  1  0  0  0  0
 18 19  2  0  0  0  0
 18 38  1  0  0  0  0
M  END
> <s_m_source_file>
AV-unprocessed.smi

> <i_m_source_file_index>
3330

> <i_lp_mmshare_version>
43012

> <i_f3d_flags>
0

> <s_epik_input>
bjFbY0hdW2NIXVtjSF1uMVtDQEBIXShbQ0gzXSlbQ0BIXShbQ0gzXSlbTkhdW0NIMl1bQ0gyXU4yQyg9TylbQ0gyXVtOSF1DMj1P

> <s_epik_cmdline>
J2VwaWtfcHl0aG9uJywgJy1waCcsICc3LjAnLCAnLXRuJywgJzgnLCAnLW1hJywgJzIwMCcsICctbWV0YWxfYmluZGluZycsICctaW1hZScsICc8aW5maWxlLm1hZT4nLCAnLW9tYWUnLCAnPG91dGZpbGUubWFlPic=

> <r_lp_tautomer_probability>
1

> <r_epik_Ionization_Penalty>
2.2997

> <r_epik_Ionization_Penalty_Charging>
0

> <r_epik_Ionization_Penalty_Neutral>
2.2997

> <r_epik_State_Penalty>
2.44917

> <r_epik_Charging_Adjusted_Penalty>
2.44917

> <i_epik_Tot_Q>
0

> <i_epik_Tot_abs_Q>
0

> <r_epik_Metal_State_Penalty>
2.52438

> <b_epik_Metal_Only>
0

> <s_lp_Force_Field>
OPLS_2005

> <r_lp_Energy>
27.2157

> <b_lp_Chiralities_Consistent>
1

> <s_lp_Variant>
AV-unprocessed.smi:3330-8

> <Gold.Version>
5.8.1

> <Gold.Id.Protein>
6NUR|6NUR_protein|mol2

> <Gold.PLP.Fitness>
47.0906

> <Gold.PLP.PLP>
-42.3332

> <Gold.PLP.part.hbond>
-4.0210

> <Gold.PLP.part.metal>
0.0000

> <Gold.PLP.part.buried>
-4.8943

> <Gold.PLP.part.nonpolar>
-33.3034

> <Gold.PLP.part.repulsive>
0.2170

> <Gold.PLP.ligand.clash>
0.0000

> <Gold.PLP.ligand.torsion>
0.6780

> <Gold.PLP.Chemscore.Hbond>
2.0000

> <Gold.PLP.Chemscore.CHOScore>
0.0000

> <Gold.PLP.Chemscore.Metal>
0.0000

> <Gold.Chemscore.Hbonds>
donor molecule, donor type, donor heavy atom, donor atom, acceptor molecule, acceptor atom, score
      L1  H    10    31       P1  7948  0.41
      P1  H  6896  6907       L1     8  0.19

> <Gold.PLP.Chemscore.Internal.Correction>
0.1134

> <Gold.Rescore>
     Score         DG    S(hbond)    S(metal)    S(lipo)     H(rot)  DE(clash)    DE(int)     intcor
     12.67     -15.58       1.84        0.00      90.65       2.60       0.05       2.86       ----

> <Gold.Chemscore.Fitness>
12.6702

> <Gold.Chemscore.DG>
-15.5818

> <Gold.Chemscore.ZeroCoef>
-5.4800

> <Gold.Chemscore.Hbond>
1.8383

> <Gold.Chemscore.Metal>
0.0000

> <Gold.Chemscore.Lipo>
90.6477

> <Gold.Chemscore.Internal_Hbond>
0.0000

> <Gold.Chemscore.DEClash>
0.0475

> <Gold.Chemscore.DEInternal>
2.8641

> <Gold.Chemscore.Rot>
2.5952

> <Gold.Chemscore.Internal.Correction>
   9.000000E+99

> <Gold.Chemscore.Hbonds>
donor molecule, donor type, donor heavy atom, donor atom, acceptor molecule, acceptor atom, score
      L1  H    10    31       P1  7948  0.32
      P1  H  6896  6907       L1     8  0.20
      P1  H  7989  7998       L1    12  0.01

> <Gold.Chemscore.Hbond.Weighted>
-6.1398

> <Gold.Chemscore.Metal.Weighted>
-0.0000

> <Gold.Chemscore.Lipo.Weighted>
-10.6058

> <Gold.Chemscore.Internal_Hbond.Weighted>
0.0000

> <Gold.Chemscore.DEClash.Weighted>
0.0475

> <Gold.Chemscore.DEInternal.Weighted>
2.8641

> <Gold.Chemscore.Rot.Weighted>
6.6437

> <Gold.Chemscore.Internal.Correction.Weighted>
   9.000000E+99

> <Gold.Protein.RotatedTorsions>
[ 6907 6896 6895 6894 ] final  -55.19 input  -60.11 | X-H torsion
[ 7974 7965 7964 7962 ] final -155.51 input  175.53 | X-H torsion
[ 8008 7997 7996 7995 ] final  103.56 input   59.86 | X-H torsion
[ 10167 10162 10161 10158 ] final  -83.92 input  -65.29 | X-H torsion
[ 10718 10713 10712 10709 ] final   77.98 input   66.30 | X-H torsion
[ 10763 10752 10751 10750 ] final  -65.79 input  -60.55 | X-H torsion
[ 11005 11000 10999 10996 ] final -170.63 input  -57.11 | X-H torsion

> <Gold.Protein.ActiveResidues>
 VAL166  LYS551  ARG553  GLY616  TRP617  ASP618  TYR619  PRO620  LYS621  CYS622 
 ASP623  PHE694  ASN695  SER759  ASP760  ASP761  ALA762  ILE779  LEU786  VAL792 
 PHE793  MET794  SER795  GLU796  ALA797  LYS798  CYS799  TRP800  GLU811  SER814 

> <Gold.Protein.RotatedAtoms>
  150.8273  134.7510  159.6823 H   0  0  0  0  0  0  0  0  0  0  0  0  # atno 6907 bound_to 6896
  152.4382  134.5640  159.9912 H   0  0  0  0  0  0  0  0  0  0  0  0  # atno 6908 bound_to 6896
  151.5809  133.3340  159.3044 H   0  0  0  0  0  0  0  0  0  0  0  0  # atno 6909 bound_to 6896
  144.7637  140.4239  143.5958 H   0  0  0  0  0  0  0  0  0  0  0  0  # atno 7974 bound_to 7965
  156.1495  140.3162  155.8625 H   0  0  0  0  0  0  0  0  0  0  0  0  # atno 8008 bound_to 7997
  155.3998  140.0499  157.3054 H   0  0  0  0  0  0  0  0  0  0  0  0  # atno 8009 bound_to 7997
  154.5046  140.2142  155.9289 H   0  0  0  0  0  0  0  0  0  0  0  0  # atno 8010 bound_to 7997
  140.4181  143.2595  151.8927 H   0  0  0  0  0  0  0  0  0  0  0  0  # atno 10167 bound_to 10162
  157.6729  130.9847  150.1719 H   0  0  0  0  0  0  0  0  0  0  0  0  # atno 10718 bound_to 10713
  154.3502  135.6138  153.5639 H   0  0  0  0  0  0  0  0  0  0  0  0  # atno 10763 bound_to 10752
  152.9798  135.5790  154.4752 H   0  0  0  0  0  0  0  0  0  0  0  0  # atno 10764 bound_to 10752
  154.4471  135.2852  155.1784 H   0  0  0  0  0  0  0  0  0  0  0  0  # atno 10765 bound_to 10752
  140.5173  134.5743  157.5037 H   0  0  0  0  0  0  0  0  0  0  0  0  # atno 11005 bound_to 11000
  145.6539  139.1569  143.2846 LP  0  0  0  0  0  0  0  0  0  0  0  0  # atno 17320 bound_to 7965
  146.1724  140.6625  142.9227 LP  0  0  0  0  0  0  0  0  0  0  0  0  # atno 17321 bound_to 7965
  139.4782  144.5466  151.8448 LP  0  0  0  0  0  0  0  0  0  0  0  0  # atno 17342 bound_to 10162
  140.4564  144.1784  150.5902 LP  0  0  0  0  0  0  0  0  0  0  0  0  # atno 17343 bound_to 10162
  156.2471  130.3697  149.8272 LP  0  0  0  0  0  0  0  0  0  0  0  0  # atno 17370 bound_to 10713
  156.6056  130.8565  151.3442 LP  0  0  0  0  0  0  0  0  0  0  0  0  # atno 17371 bound_to 10713
  139.9625  134.7428  156.0207 LP  0  0  0  0  0  0  0  0  0  0  0  0  # atno 17394 bound_to 11000
  141.1353  133.6576  156.3577 LP  0  0  0  0  0  0  0  0  0  0  0  0  # atno 17395 bound_to 11000

$$$$
