AV-unprocessed.smi:2146|AV-procd|sdf|8738|dock5
  -GOLD-   2272011513D 1   1.00000     0.00000
 Structure written by MMmdl.
 44 45  0  0  0  0  0  0  0  0  1 V2000
  147.8386  139.0117  154.1620 C   0  0  0  0  0  0  0  0  0  0  0  0
  147.9216  140.5228  153.8273 C   0  0  2  0  0  0  0  0  0  0  0  0
  149.2460  141.0955  154.4122 C   0  0  0  0  0  0  0  0  0  0  0  0
  149.6147  140.5161  155.7011 N   0  0  0  0  0  0  0  0  0  0  0  0
  150.8643  140.2114  156.0819 C   0  0  0  0  0  0  0  0  0  0  0  0
  151.8493  140.3862  155.3628 O   0  0  0  0  0  0  0  0  0  0  0  0
  151.0067  139.5984  157.4824 C   0  0  0  0  0  0  0  0  0  0  0  0
  151.7159  140.4699  158.4342 N   0  0  0  0  0  0  0  0  0  0  0  0
  151.3697  141.8356  158.4344 C   0  0  0  0  0  0  0  0  0  0  0  0
  151.9311  142.7339  159.2659 C   0  0  0  0  0  0  0  0  0  0  0  0
  151.5686  144.2095  159.2066 C   0  0  0  0  0  0  0  0  0  0  0  0
  151.9835  144.7317  158.0534 F   0  0  0  0  0  0  0  0  0  0  0  0
  150.2502  144.3868  159.2937 F   0  0  0  0  0  0  0  0  0  0  0  0
  152.1485  144.8847  160.1996 F   0  0  0  0  0  0  0  0  0  0  0  0
  152.9556  142.2327  160.1611 C   0  0  0  0  0  0  0  0  0  0  0  0
  153.3021  140.9308  160.1699 C   0  0  0  0  0  0  0  0  0  0  0  0
  152.6648  139.9612  159.2761 C   0  0  0  0  0  0  0  0  0  0  0  0
  152.9658  138.7674  159.2828 O   0  0  0  0  0  0  0  0  0  0  0  0
  146.7187  141.2724  154.2597 N   0  0  0  0  0  0  0  0  0  0  0  0
  146.5538  141.2890  155.7180 C   0  0  0  0  0  0  0  0  0  0  0  0
  145.3233  142.0932  156.1718 C   0  0  0  0  0  0  0  0  0  0  0  0
  145.4082  143.4218  155.6754 O   0  0  0  0  0  0  0  0  0  0  0  0
  145.4908  143.4564  154.2576 C   0  0  0  0  0  0  0  0  0  0  0  0
  146.7237  142.6632  153.7912 C   0  0  0  0  0  0  0  0  0  0  0  0
  148.7437  138.4733  153.8841 H   0  0  0  0  0  0  0  0  0  0  0  0
  147.0366  138.5116  153.6210 H   0  0  0  0  0  0  0  0  0  0  0  0
  147.6774  138.8528  155.2288 H   0  0  0  0  0  0  0  0  0  0  0  0
  147.9889  140.6023  152.7411 H   0  0  0  0  0  0  0  0  0  0  0  0
  150.0918  140.9342  153.7455 H   0  0  0  0  0  0  0  0  0  0  0  0
  149.1576  142.1747  154.5404 H   0  0  0  0  0  0  0  0  0  0  0  0
  148.8629  140.3350  156.3504 H   0  0  0  0  0  0  0  0  0  0  0  0
  150.0166  139.3488  157.8681 H   0  0  0  0  0  0  0  0  0  0  0  0
  151.5216  138.6421  157.3828 H   0  0  0  0  0  0  0  0  0  0  0  0
  150.6108  142.1076  157.7152 H   0  0  0  0  0  0  0  0  0  0  0  0
  153.4512  142.9107  160.8401 H   0  0  0  0  0  0  0  0  0  0  0  0
  154.0674  140.5919  160.8527 H   0  0  0  0  0  0  0  0  0  0  0  0
  146.4282  140.2801  156.1045 H   0  0  0  0  0  0  0  0  0  0  0  0
  147.4490  141.7007  156.1865 H   0  0  0  0  0  0  0  0  0  0  0  0
  144.4034  141.6229  155.8208 H   0  0  0  0  0  0  0  0  0  0  0  0
  145.2715  142.1232  157.2600 H   0  0  0  0  0  0  0  0  0  0  0  0
  144.5787  143.0466  153.8209 H   0  0  0  0  0  0  0  0  0  0  0  0
  145.5635  144.4939  153.9313 H   0  0  0  0  0  0  0  0  0  0  0  0
  147.6286  143.1663  154.1357 H   0  0  0  0  0  0  0  0  0  0  0  0
  146.7339  142.7029  152.7037 H   0  0  0  0  0  0  0  0  0  0  0  0
  1  2  1  0  0  0  0
  1 25  1  0  0  0  0
  1 26  1  0  0  0  0
  1 27  1  0  0  0  0
  2  3  1  0  0  0  0
  2 19  1  0  0  0  0
  2 28  1  0  0  0  0
  3  4  1  0  0  0  0
  3 29  1  0  0  0  0
  3 30  1  0  0  0  0
  4  5  1  0  0  0  0
  4 31  1  0  0  0  0
  5  6  2  0  0  0  0
  5  7  1  0  0  0  0
  7  8  1  0  0  0  0
  7 32  1  0  0  0  0
  7 33  1  0  0  0  0
  8 17  1  0  0  0  0
  8  9  1  0  0  0  0
  9 10  2  0  0  0  0
  9 34  1  0  0  0  0
 10 11  1  0  0  0  0
 10 15  1  0  0  0  0
 11 12  1  0  0  0  0
 11 13  1  0  0  0  0
 11 14  1  0  0  0  0
 15 16  2  0  0  0  0
 15 35  1  0  0  0  0
 16 17  1  0  0  0  0
 16 36  1  0  0  0  0
 17 18  2  0  0  0  0
 19 24  1  0  0  0  0
 19 20  1  0  0  0  0
 20 21  1  0  0  0  0
 20 37  1  0  0  0  0
 20 38  1  0  0  0  0
 21 22  1  0  0  0  0
 21 39  1  0  0  0  0
 21 40  1  0  0  0  0
 22 23  1  0  0  0  0
 23 24  1  0  0  0  0
 23 41  1  0  0  0  0
 23 42  1  0  0  0  0
 24 43  1  0  0  0  0
 24 44  1  0  0  0  0
M  END
> <s_m_source_file>
AV-unprocessed.smi

> <i_m_source_file_index>
2146

> <i_lp_mmshare_version>
43012

> <i_f3d_flags>
0

> <s_epik_input>
W0NIMl0xW0NIMl1PW0NIMl1bQ0gyXU4xW0NASF0oW0NIM10pW0NIMl1bTkhdQyg9TylbQ0gyXW4yW2NIXWMoQyhGKShGKUYpW2NIXVtjSF1jMj1P

> <s_epik_cmdline>
J2VwaWtfcHl0aG9uJywgJy1waCcsICc3LjAnLCAnLXRuJywgJzgnLCAnLW1hJywgJzIwMCcsICctbWV0YWxfYmluZGluZycsICctaW1hZScsICc8aW5maWxlLm1hZT4nLCAnLW9tYWUnLCAnPG91dGZpbGUubWFlPic=

> <r_lp_tautomer_probability>
1

> <r_epik_Ionization_Penalty>
0.237382

> <r_epik_Ionization_Penalty_Charging>
1.80451e-08

> <r_epik_Ionization_Penalty_Neutral>
0.237382

> <r_epik_State_Penalty>
0.228245

> <r_epik_Charging_Adjusted_Penalty>
0.228245

> <i_epik_Tot_Q>
0

> <i_epik_Tot_abs_Q>
0

> <r_epik_Metal_State_Penalty>
0.22822

> <b_epik_Metal_Only>
0

> <s_lp_Force_Field>
OPLS_2005

> <r_lp_Energy>
40.571

> <b_lp_Chiralities_Consistent>
1

> <s_lp_Variant>
AV-unprocessed.smi:2146-1

> <Gold.Version>
5.8.1

> <Gold.Id.Protein>
6NUR|6NUR_protein|mol2

> <Gold.PLP.Fitness>
50.7847

> <Gold.PLP.PLP>
-50.2722

> <Gold.PLP.part.hbond>
-1.0000

> <Gold.PLP.part.metal>
0.0000

> <Gold.PLP.part.buried>
-6.9058

> <Gold.PLP.part.nonpolar>
-41.7179

> <Gold.PLP.part.repulsive>
0.4116

> <Gold.PLP.ligand.clash>
0.0000

> <Gold.PLP.ligand.torsion>
0.9471

> <Gold.PLP.Chemscore.Hbond>
0.7680

> <Gold.PLP.Chemscore.CHOScore>
0.0000

> <Gold.PLP.Chemscore.Metal>
0.0000

> <Gold.Chemscore.Hbonds>
donor molecule, donor type, donor heavy atom, donor atom, acceptor molecule, acceptor atom, score
      P1  H  7989  7998       L1     6  0.75

> <Gold.PLP.Chemscore.Internal.Correction>
0.1026

> <Gold.Rescore>
     Score         DG    S(hbond)    S(metal)    S(lipo)     H(rot)  DE(clash)    DE(int)     intcor
     12.57     -13.56       0.81        0.00      92.03       2.10       0.15       0.84       ----

> <Gold.Chemscore.Fitness>
12.5704

> <Gold.Chemscore.DG>
-13.5601

> <Gold.Chemscore.ZeroCoef>
-5.4800

> <Gold.Chemscore.Hbond>
0.8078

> <Gold.Chemscore.Metal>
0.0000

> <Gold.Chemscore.Lipo>
92.0332

> <Gold.Chemscore.Internal_Hbond>
0.0000

> <Gold.Chemscore.DEClash>
0.1491

> <Gold.Chemscore.DEInternal>
0.8406

> <Gold.Chemscore.Rot>
2.1039

> <Gold.Chemscore.Internal.Correction>
   9.000000E+99

> <Gold.Chemscore.Hbonds>
donor molecule, donor type, donor heavy atom, donor atom, acceptor molecule, acceptor atom, score
      P1  H  7989  7998       L1     6  0.75

> <Gold.Chemscore.Hbond.Weighted>
-2.6982

> <Gold.Chemscore.Metal.Weighted>
-0.0000

> <Gold.Chemscore.Lipo.Weighted>
-10.7679

> <Gold.Chemscore.Internal_Hbond.Weighted>
0.0000

> <Gold.Chemscore.DEClash.Weighted>
0.1491

> <Gold.Chemscore.DEInternal.Weighted>
0.8406

> <Gold.Chemscore.Rot.Weighted>
5.3860

> <Gold.Chemscore.Internal.Correction.Weighted>
   9.000000E+99

> <Gold.Protein.RotatedTorsions>
[ 6907 6896 6895 6894 ] final    0.17 input  -60.11 | X-H torsion
[ 7974 7965 7964 7962 ] final  100.02 input  175.53 | X-H torsion
[ 8008 7997 7996 7995 ] final    6.50 input   59.86 | X-H torsion
[ 10167 10162 10161 10158 ] final -122.00 input  -65.29 | X-H torsion
[ 10718 10713 10712 10709 ] final   23.22 input   66.30 | X-H torsion
[ 10763 10752 10751 10750 ] final -106.38 input  -60.55 | X-H torsion
[ 11005 11000 10999 10996 ] final  -84.22 input  -57.11 | X-H torsion

> <Gold.Protein.ActiveResidues>
 VAL166  LYS551  ARG553  GLY616  TRP617  ASP618  TYR619  PRO620  LYS621  CYS622 
 ASP623  PHE694  ASN695  SER759  ASP760  ASP761  ALA762  ILE779  LEU786  VAL792 
 PHE793  MET794  SER795  GLU796  ALA797  LYS798  CYS799  TRP800  GLU811  SER814 

> <Gold.Protein.RotatedAtoms>
  151.5721  135.1062  159.9997 H   0  0  0  0  0  0  0  0  0  0  0  0  # atno 6907 bound_to 6896
  152.4396  133.7419  159.6656 H   0  0  0  0  0  0  0  0  0  0  0  0  # atno 6908 bound_to 6896
  150.8299  133.8040  159.3126 H   0  0  0  0  0  0  0  0  0  0  0  0  # atno 6909 bound_to 6896
  145.3911  139.2363  143.3351 H   0  0  0  0  0  0  0  0  0  0  0  0  # atno 7974 bound_to 7965
  154.7418  140.2750  155.6366 H   0  0  0  0  0  0  0  0  0  0  0  0  # atno 8008 bound_to 7997
  156.2875  140.2695  156.2074 H   0  0  0  0  0  0  0  0  0  0  0  0  # atno 8009 bound_to 7997
  155.0248  140.0371  157.2441 H   0  0  0  0  0  0  0  0  0  0  0  0  # atno 8010 bound_to 7997
  140.0190  143.5364  152.2229 H   0  0  0  0  0  0  0  0  0  0  0  0  # atno 10167 bound_to 10162
  157.1631  130.6726  149.6051 H   0  0  0  0  0  0  0  0  0  0  0  0  # atno 10718 bound_to 10713
  154.8008  135.4714  154.0272 H   0  0  0  0  0  0  0  0  0  0  0  0  # atno 10763 bound_to 10752
  153.1779  135.6836  153.8525 H   0  0  0  0  0  0  0  0  0  0  0  0  # atno 10764 bound_to 10752
  153.8086  135.3220  155.3376 H   0  0  0  0  0  0  0  0  0  0  0  0  # atno 10765 bound_to 10752
  141.1652  133.7335  156.8836 H   0  0  0  0  0  0  0  0  0  0  0  0  # atno 11005 bound_to 11000
  146.2797  140.4594  142.8781 LP  0  0  0  0  0  0  0  0  0  0  0  0  # atno 17320 bound_to 7965
  144.8439  140.6900  143.6211 LP  0  0  0  0  0  0  0  0  0  0  0  0  # atno 17321 bound_to 7965
  139.6153  144.7618  151.2861 LP  0  0  0  0  0  0  0  0  0  0  0  0  # atno 17342 bound_to 10162
  140.7350  143.6749  150.8050 LP  0  0  0  0  0  0  0  0  0  0  0  0  # atno 17343 bound_to 10162
  155.9750  130.4705  150.6431 LP  0  0  0  0  0  0  0  0  0  0  0  0  # atno 17370 bound_to 10713
  157.4114  131.0824  151.1217 LP  0  0  0  0  0  0  0  0  0  0  0  0  # atno 17371 bound_to 10713
  140.1697  134.9108  157.2818 LP  0  0  0  0  0  0  0  0  0  0  0  0  # atno 17394 bound_to 11000
  140.2516  134.3676  155.7440 LP  0  0  0  0  0  0  0  0  0  0  0  0  # atno 17395 bound_to 11000

$$$$
