AV-unprocessed.smi:672|AV-procd|sdf|3293|dock3
  -GOLD-   22720 0253D 1   1.00000     0.00000
 Structure written by MMmdl.
 35 36  0  0  0  0  0  0  0  0  2 V2000
  151.9425  145.2699  160.4129 C   0  0  0  0  0  0  0  0  0  0  0  0
  152.3716  143.8546  160.8138 C   0  0  0  0  0  0  0  0  0  0  0  0
  152.1762  142.8645  159.7146 C   0  0  0  0  0  0  0  0  0  0  0  0
  151.0731  142.8244  158.9626 N   0  0  0  0  0  0  0  0  0  0  0  0
  151.1139  141.7992  158.0290 N   0  0  0  0  0  0  0  0  0  0  0  0
  152.2323  141.0640  158.1042 C   0  0  0  0  0  0  0  0  0  0  0  0
  152.4660  140.0216  157.2899 N   0  5  0  0  0  0  0  0  0  0  0  0
  151.7069  139.8454  156.1844 C   0  0  0  0  0  0  0  0  0  0  0  0
  152.1187  139.6423  155.0398 O   0  0  0  0  0  0  0  0  0  0  0  0
  150.3885  139.9137  156.4181 N   0  0  0  0  0  0  0  0  0  0  0  0
  149.3342  139.7631  155.4174 C   0  0  2  0  0  0  0  0  0  0  0  0
  149.5382  140.7146  154.2191 C   0  0  0  0  0  0  0  0  0  0  0  0
  148.2137  141.4570  154.0331 C   0  0  0  0  0  0  0  0  0  0  0  0
  147.5996  141.4906  155.4318 C   0  0  1  0  0  0  0  0  0  0  0  0
  145.8079  141.7888  155.4216 S   0  0  0  0  0  0  0  0  0  0  0  0
  145.7189  143.1743  154.2565 C   0  0  0  0  0  0  0  0  0  0  0  0
  147.9651  140.1257  156.0191 C   0  0  0  0  0  0  0  0  0  0  0  0
  153.3526  141.6136  159.3499 S   0  0  0  0  0  0  0  0  0  0  0  0
  152.0924  145.9692  161.2354 H   0  0  0  0  0  0  0  0  0  0  0  0
  150.8875  145.2978  160.1388 H   0  0  0  0  0  0  0  0  0  0  0  0
  152.5198  145.6284  159.5601 H   0  0  0  0  0  0  0  0  0  0  0  0
  153.4216  143.8527  161.1086 H   0  0  0  0  0  0  0  0  0  0  0  0
  151.8025  143.5265  161.6839 H   0  0  0  0  0  0  0  0  0  0  0  0
  150.0952  140.0811  157.3694 H   0  0  0  0  0  0  0  0  0  0  0  0
  149.3071  138.7257  155.0792 H   0  0  0  0  0  0  0  0  0  0  0  0
  150.3255  141.4395  154.4323 H   0  0  0  0  0  0  0  0  0  0  0  0
  149.8332  140.1782  153.3167 H   0  0  0  0  0  0  0  0  0  0  0  0
  148.3529  142.4514  153.6087 H   0  0  0  0  0  0  0  0  0  0  0  0
  147.5709  140.8921  153.3565 H   0  0  0  0  0  0  0  0  0  0  0  0
  148.0859  142.2688  156.0219 H   0  0  0  0  0  0  0  0  0  0  0  0
  144.6880  143.5137  154.1564 H   0  0  0  0  0  0  0  0  0  0  0  0
  146.0781  142.8732  153.2726 H   0  0  0  0  0  0  0  0  0  0  0  0
  146.3250  144.0088  154.6095 H   0  0  0  0  0  0  0  0  0  0  0  0
  147.2327  139.3823  155.7016 H   0  0  0  0  0  0  0  0  0  0  0  0
  147.9601  140.1316  157.1099 H   0  0  0  0  0  0  0  0  0  0  0  0
  1  2  1  0  0  0  0
  1 19  1  0  0  0  0
  1 20  1  0  0  0  0
  1 21  1  0  0  0  0
  2  3  1  0  0  0  0
  2 22  1  0  0  0  0
  2 23  1  0  0  0  0
  3 18  1  0  0  0  0
  3  4  2  0  0  0  0
  4  5  1  0  0  0  0
  5  6  2  0  0  0  0
  6  7  1  0  0  0  0
  6 18  1  0  0  0  0
  7  8  1  0  0  0  0
  8  9  2  0  0  0  0
  8 10  1  0  0  0  0
 10 11  1  0  0  0  0
 10 24  1  0  0  0  0
 11 17  1  0  0  0  0
 11 12  1  0  0  0  0
 11 25  1  0  0  0  0
 12 13  1  0  0  0  0
 12 26  1  0  0  0  0
 12 27  1  0  0  0  0
 13 14  1  0  0  0  0
 13 28  1  0  0  0  0
 13 29  1  0  0  0  0
 14 15  1  0  0  0  0
 14 17  1  0  0  0  0
 14 30  1  0  0  0  0
 15 16  1  0  0  0  0
 16 31  1  0  0  0  0
 16 32  1  0  0  0  0
 16 33  1  0  0  0  0
 17 34  1  0  0  0  0
 17 35  1  0  0  0  0
M  CHG  1   7  -1
M  END
> <s_m_source_file>
AV-unprocessed.smi

> <i_m_source_file_index>
672

> <i_lp_mmshare_version>
43012

> <i_f3d_flags>
0

> <s_epik_input>
W0NIM11bQ0gyXWMxbm5jKHMxKVtOSF1DKD1PKVtOSF1bQ0BASF0yW0NIMl1bQ0gyXVtDQEhdKFtDSDJdMilTW0NIM10=

> <s_epik_cmdline>
J2VwaWtfcHl0aG9uJywgJy1waCcsICc3LjAnLCAnLXRuJywgJzgnLCAnLW1hJywgJzIwMCcsICctbWV0YWxfYmluZGluZycsICctaW1hZScsICc8aW5maWxlLm1hZT4nLCAnLW9tYWUnLCAnPG91dGZpbGUubWFlPic=

> <r_lp_tautomer_probability>
1

> <r_epik_Ionization_Penalty>
4.49964

> <r_epik_Ionization_Penalty_Charging>
4.32991

> <r_epik_Ionization_Penalty_Neutral>
0.169727

> <r_epik_State_Penalty>
4.32952

> <r_epik_Charging_Adjusted_Penalty>
8.65943

> <i_epik_Tot_Q>
-1

> <i_epik_Tot_abs_Q>
1

> <r_epik_Metal_State_Penalty>
0.740482

> <b_epik_Metal_Only>
1

> <s_lp_Force_Field>
OPLS_2005

> <r_lp_Energy>
9.96547

> <b_lp_Chiralities_Consistent>
1

> <s_lp_Variant>
AV-unprocessed.smi:672-5

> <Gold.Version>
5.8.1

> <Gold.Id.Protein>
6NUR|6NUR_protein|mol2

> <Gold.PLP.Fitness>
40.5637

> <Gold.PLP.PLP>
-33.7708

> <Gold.PLP.part.hbond>
-2.0000

> <Gold.PLP.part.metal>
0.0000

> <Gold.PLP.part.buried>
-1.6966

> <Gold.PLP.part.nonpolar>
-29.3523

> <Gold.PLP.part.repulsive>
0.1468

> <Gold.PLP.ligand.clash>
0.0000

> <Gold.PLP.ligand.torsion>
0.8825

> <Gold.PLP.Chemscore.Hbond>
2.8320

> <Gold.PLP.Chemscore.CHOScore>
0.0000

> <Gold.PLP.Chemscore.Metal>
0.0000

> <Gold.Chemscore.Hbonds>
donor molecule, donor type, donor heavy atom, donor atom, acceptor molecule, acceptor atom, score
      P1  H  7989  7998       L1     9  0.85
      P1  H  7997  8010       L1     7  1.98

> <Gold.PLP.Chemscore.Internal.Correction>
0.0620

> <Gold.Rescore>
     Score         DG    S(hbond)    S(metal)    S(lipo)     H(rot)  DE(clash)    DE(int)     intcor
     13.93     -15.92       1.42        0.00      77.99       1.34       0.48       1.51       ----

> <Gold.Chemscore.Fitness>
13.9271

> <Gold.Chemscore.DG>
-15.9203

> <Gold.Chemscore.ZeroCoef>
-5.4800

> <Gold.Chemscore.Hbond>
1.4215

> <Gold.Chemscore.Metal>
0.0000

> <Gold.Chemscore.Lipo>
77.9943

> <Gold.Chemscore.Internal_Hbond>
0.0000

> <Gold.Chemscore.DEClash>
0.4792

> <Gold.Chemscore.DEInternal>
1.5141

> <Gold.Chemscore.Rot>
1.3410

> <Gold.Chemscore.Internal.Correction>
   9.000000E+99

> <Gold.Chemscore.Hbonds>
donor molecule, donor type, donor heavy atom, donor atom, acceptor molecule, acceptor atom, score
      P1  H  7989  7998       L1     9  0.80
      P1  H  7997  8010       L1     7  0.24

> <Gold.Chemscore.Hbond.Weighted>
-4.7479

> <Gold.Chemscore.Metal.Weighted>
-0.0000

> <Gold.Chemscore.Lipo.Weighted>
-9.1253

> <Gold.Chemscore.Internal_Hbond.Weighted>
0.0000

> <Gold.Chemscore.DEClash.Weighted>
0.4792

> <Gold.Chemscore.DEInternal.Weighted>
1.5141

> <Gold.Chemscore.Rot.Weighted>
3.4329

> <Gold.Chemscore.Internal.Correction.Weighted>
   9.000000E+99

> <Gold.Protein.RotatedTorsions>
[ 6907 6896 6895 6894 ] final  157.89 input  -60.11 | X-H torsion
[ 7974 7965 7964 7962 ] final  -94.89 input  175.53 | X-H torsion
[ 8008 7997 7996 7995 ] final   68.08 input   59.86 | X-H torsion
[ 10167 10162 10161 10158 ] final  134.58 input  -65.29 | X-H torsion
[ 10718 10713 10712 10709 ] final  -24.98 input   66.30 | X-H torsion
[ 10763 10752 10751 10750 ] final  157.34 input  -60.55 | X-H torsion
[ 11005 11000 10999 10996 ] final -105.34 input  -57.11 | X-H torsion

> <Gold.Protein.ActiveResidues>
 VAL166  LYS551  ARG553  GLY616  TRP617  ASP618  TYR619  PRO620  LYS621  CYS622 
 ASP623  PHE694  ASN695  SER759  ASP760  ASP761  ALA762  ILE779  LEU786  VAL792 
 PHE793  MET794  SER795  GLU796  ALA797  LYS798  CYS799  TRP800  GLU811  SER814 

> <Gold.Protein.RotatedAtoms>
  152.0085  133.3852  159.4209 H   0  0  0  0  0  0  0  0  0  0  0  0  # atno 6907 bound_to 6896
  150.6902  134.3756  159.5021 H   0  0  0  0  0  0  0  0  0  0  0  0  # atno 6908 bound_to 6896
  152.1514  134.8985  160.0598 H   0  0  0  0  0  0  0  0  0  0  0  0  # atno 6909 bound_to 6896
  145.3673  140.9500  143.2467 H   0  0  0  0  0  0  0  0  0  0  0  0  # atno 7974 bound_to 7965
  155.7028  140.3495  155.4940 H   0  0  0  0  0  0  0  0  0  0  0  0  # atno 8008 bound_to 7997
  155.9425  140.1104  157.1066 H   0  0  0  0  0  0  0  0  0  0  0  0  # atno 8009 bound_to 7997
  154.4105  140.1210  156.4933 H   0  0  0  0  0  0  0  0  0  0  0  0  # atno 8010 bound_to 7997
  139.5250  144.6560  151.5160 H   0  0  0  0  0  0  0  0  0  0  0  0  # atno 10167 bound_to 10162
  156.4705  130.4523  149.6872 H   0  0  0  0  0  0  0  0  0  0  0  0  # atno 10718 bound_to 10713
  154.1986  135.2791  155.2998 H   0  0  0  0  0  0  0  0  0  0  0  0  # atno 10763 bound_to 10752
  154.5872  135.5571  153.7246 H   0  0  0  0  0  0  0  0  0  0  0  0  # atno 10764 bound_to 10752
  153.0093  135.6359  154.2125 H   0  0  0  0  0  0  0  0  0  0  0  0  # atno 10765 bound_to 10752
  141.1058  133.8800  157.1723 H   0  0  0  0  0  0  0  0  0  0  0  0  # atno 11005 bound_to 11000
  144.8602  139.5189  143.6816 LP  0  0  0  0  0  0  0  0  0  0  0  0  # atno 17320 bound_to 7965
  146.2901  139.7114  142.9167 LP  0  0  0  0  0  0  0  0  0  0  0  0  # atno 17321 bound_to 7965
  140.6386  143.8934  150.6670 LP  0  0  0  0  0  0  0  0  0  0  0  0  # atno 17342 bound_to 10162
  140.2261  143.3771  152.1603 LP  0  0  0  0  0  0  0  0  0  0  0  0  # atno 17343 bound_to 10162
  156.3623  130.7488  151.2461 LP  0  0  0  0  0  0  0  0  0  0  0  0  # atno 17370 bound_to 10713
  157.7491  131.0346  150.4327 LP  0  0  0  0  0  0  0  0  0  0  0  0  # atno 17371 bound_to 10713
  139.9927  135.0058  157.0013 LP  0  0  0  0  0  0  0  0  0  0  0  0  # atno 17394 bound_to 11000
  140.4906  134.1197  155.7232 LP  0  0  0  0  0  0  0  0  0  0  0  0  # atno 17395 bound_to 11000

$$$$
