AV-unprocessed.smi:48|AV-procd|sdf|460|dock7
  -GOLD-   2262016333D 1   1.00000     0.00000
 Structure written by MMmdl.
 30 32  0  0  0  0  0  0  0  0  1 V2000
  149.2543  137.8565  153.8736 O   0  0  0  0  0  0  0  0  0  0  0  0
  148.5784  139.0820  154.0578 C   0  0  0  0  0  0  0  0  0  0  0  0
  149.4407  140.0407  154.8926 C   0  0  2  0  0  0  0  0  0  0  0  0
  149.6442  139.4932  156.1951 O   0  0  0  0  0  0  0  0  0  0  0  0
  149.7641  140.5108  157.1459 C   0  0  1  0  0  0  0  0  0  0  0  0
  151.1179  140.4335  157.7873 N   0  0  0  0  0  0  0  0  0  0  0  0
  152.0913  139.5418  157.5112 C   0  0  0  0  0  0  0  0  0  0  0  0
  153.2290  139.6387  158.1970 N   0  0  0  0  0  0  0  0  0  0  0  0
  152.9663  140.7259  159.0137 C   0  0  0  0  0  0  0  0  0  0  0  0
  153.7334  141.3881  160.0031 C   0  0  0  0  0  0  0  0  0  0  0  0
  155.3313  140.8624  160.3883 Cl  0  0  0  0  0  0  0  0  0  0  0  0
  153.1840  142.4463  160.6448 N   0  0  0  0  0  0  0  0  0  0  0  0
  151.9425  142.8325  160.3269 C   0  0  0  0  0  0  0  0  0  0  0  0
  151.1063  142.3096  159.4236 N   0  0  0  0  0  0  0  0  0  0  0  0
  151.6598  141.2420  158.7765 C   0  0  0  0  0  0  0  0  0  0  0  0
  149.4960  141.8524  156.4353 C   0  0  1  0  0  0  0  0  0  0  0  0
  150.6728  142.5855  156.1311 O   0  0  0  0  0  0  0  0  0  0  0  0
  148.7576  141.3763  155.1914 C   0  0  1  0  0  0  0  0  0  0  0  0
  148.8267  142.2933  154.1156 O   0  0  0  0  0  0  0  0  0  0  0  0
  150.4024  140.2244  154.4112 H   0  0  0  0  0  0  0  0  0  0  0  0
  149.0619  140.3154  157.9574 H   0  0  0  0  0  0  0  0  0  0  0  0
  148.8598  142.4768  157.0635 H   0  0  0  0  0  0  0  0  0  0  0  0
  147.7098  141.2036  155.4428 H   0  0  0  0  0  0  0  0  0  0  0  0
  149.0194  137.5076  153.0274 H   0  0  0  0  0  0  0  0  0  0  0  0
  148.3962  139.5053  153.0697 H   0  0  0  0  0  0  0  0  0  0  0  0
  147.6065  138.9146  154.5229 H   0  0  0  0  0  0  0  0  0  0  0  0
  151.9560  138.7735  156.7638 H   0  0  0  0  0  0  0  0  0  0  0  0
  151.5636  143.6822  160.8751 H   0  0  0  0  0  0  0  0  0  0  0  0
  150.4244  143.4569  155.8634 H   0  0  0  0  0  0  0  0  0  0  0  0
  148.8052  143.1702  154.4669 H   0  0  0  0  0  0  0  0  0  0  0  0
  1  2  1  0  0  0  0
  1 24  1  0  0  0  0
  2  3  1  0  0  0  0
  2 25  1  0  0  0  0
  2 26  1  0  0  0  0
  3 20  1  0  0  0  0
  3 18  1  0  0  0  0
  3  4  1  0  0  0  0
  4  5  1  0  0  0  0
  5 21  1  0  0  0  0
  5  6  1  0  0  0  0
  5 16  1  0  0  0  0
  6 15  1  0  0  0  0
  6  7  1  0  0  0  0
  7  8  2  0  0  0  0
  7 27  1  0  0  0  0
  8  9  1  0  0  0  0
  9 15  2  0  0  0  0
  9 10  1  0  0  0  0
 10 11  1  0  0  0  0
 10 12  2  0  0  0  0
 12 13  1  0  0  0  0
 13 14  2  0  0  0  0
 13 28  1  0  0  0  0
 14 15  1  0  0  0  0
 16 22  1  0  0  0  0
 16 17  1  0  0  0  0
 16 18  1  0  0  0  0
 17 29  1  0  0  0  0
 18 23  1  0  0  0  0
 18 19  1  0  0  0  0
 19 30  1  0  0  0  0
M  END
> <s_m_source_file>
AV-unprocessed.smi

> <i_m_source_file_index>
48

> <i_lp_mmshare_version>
43012

> <i_f3d_flags>
0

> <s_epik_input>
W09IXVtDSDJdW0NASF0xT1tDQEhdKFtDQEhdKFtPSF0pW0NAQEhdMVtPSF0pbihbY0hdbjIpYyhjMjMpbltjSF1uYzNDbA==

> <s_epik_cmdline>
J2VwaWtfcHl0aG9uJywgJy1waCcsICc3LjAnLCAnLXRuJywgJzgnLCAnLW1hJywgJzIwMCcsICctbWV0YWxfYmluZGluZycsICctaW1hZScsICc8aW5maWxlLm1hZT4nLCAnLW9tYWUnLCAnPG91dGZpbGUubWFlPic=

> <r_lp_tautomer_probability>
1

> <r_epik_Ionization_Penalty>
3.45505e-06

> <r_epik_Ionization_Penalty_Charging>
0

> <r_epik_Ionization_Penalty_Neutral>
3.45505e-06

> <r_epik_State_Penalty>
-0

> <r_epik_Charging_Adjusted_Penalty>
0

> <i_epik_Tot_Q>
0

> <i_epik_Tot_abs_Q>
0

> <r_epik_Metal_State_Penalty>
-0

> <b_epik_Metal_Only>
0

> <s_epik_Chemistry_Notes>
This compound contains an acetal/aminal-like group ( X-CH(R)-Y where X, Y are N, S, or O) that may be acid/base labile, releasing an aldehyde.

> <s_lp_Force_Field>
OPLS_2005

> <r_lp_Energy>
44.1755

> <b_lp_Chiralities_Consistent>
1

> <s_lp_Variant>
AV-unprocessed.smi:48-14

> <Gold.Version>
5.8.1

> <Gold.Id.Protein>
6NUR|6NUR_protein|mol2

> <Gold.PLP.Fitness>
42.9110

> <Gold.PLP.PLP>
-30.5262

> <Gold.PLP.part.hbond>
-5.6476

> <Gold.PLP.part.metal>
0.0000

> <Gold.PLP.part.buried>
-2.4808

> <Gold.PLP.part.nonpolar>
-21.9038

> <Gold.PLP.part.repulsive>
0.0000

> <Gold.PLP.ligand.clash>
0.0000

> <Gold.PLP.ligand.torsion>
0.0043

> <Gold.PLP.Chemscore.Hbond>
4.1283

> <Gold.PLP.Chemscore.CHOScore>
0.0000

> <Gold.PLP.Chemscore.Metal>
0.0000

> <Gold.Chemscore.Hbonds>
donor molecule, donor type, donor heavy atom, donor atom, acceptor molecule, acceptor atom, score
      L1  H     1    24       P1  7948  1.00
      L1  H    17    29       P1  8028  0.91
      L1  H    19    30       P1  8028  1.00
      P1  H  7997  8009       L1     8  1.00
      P1  H  8011  8017       L1    19  0.24

> <Gold.PLP.Chemscore.Internal.Correction>
0.0085

> <Gold.Rescore>
     Score         DG    S(hbond)    S(metal)    S(lipo)     H(rot)  DE(clash)    DE(int)     intcor
     13.80     -14.06       3.78        0.00      48.47       3.80       0.22       0.03       ----

> <Gold.Chemscore.Fitness>
13.8012

> <Gold.Chemscore.DG>
-14.0557

> <Gold.Chemscore.ZeroCoef>
-5.4800

> <Gold.Chemscore.Hbond>
3.7835

> <Gold.Chemscore.Metal>
0.0000

> <Gold.Chemscore.Lipo>
48.4712

> <Gold.Chemscore.Internal_Hbond>
0.0000

> <Gold.Chemscore.DEClash>
0.2227

> <Gold.Chemscore.DEInternal>
0.0317

> <Gold.Chemscore.Rot>
3.8017

> <Gold.Chemscore.Internal.Correction>
   9.000000E+99

> <Gold.Chemscore.Hbonds>
donor molecule, donor type, donor heavy atom, donor atom, acceptor molecule, acceptor atom, score
      L1  H     1    24       P1  7948  0.96
      L1  H    17    29       P1  8028  0.85
      L1  H    19    30       P1  8028  0.99
      P1  H  7997  8009       L1     8  0.24
      P1  H  8011  8017       L1    19  0.11

> <Gold.Chemscore.Hbond.Weighted>
-12.6370

> <Gold.Chemscore.Metal.Weighted>
-0.0000

> <Gold.Chemscore.Lipo.Weighted>
-5.6711

> <Gold.Chemscore.Internal_Hbond.Weighted>
0.0000

> <Gold.Chemscore.DEClash.Weighted>
0.2227

> <Gold.Chemscore.DEInternal.Weighted>
0.0317

> <Gold.Chemscore.Rot.Weighted>
9.7324

> <Gold.Chemscore.Internal.Correction.Weighted>
   9.000000E+99

> <Gold.Protein.RotatedTorsions>
[ 6907 6896 6895 6894 ] final   90.27 input  -60.11 | X-H torsion
[ 7974 7965 7964 7962 ] final -124.64 input  175.53 | X-H torsion
[ 8008 7997 7996 7995 ] final  169.86 input   59.86 | X-H torsion
[ 10167 10162 10161 10158 ] final -165.98 input  -65.29 | X-H torsion
[ 10718 10713 10712 10709 ] final -153.00 input   66.30 | X-H torsion
[ 10763 10752 10751 10750 ] final  104.69 input  -60.55 | X-H torsion
[ 11005 11000 10999 10996 ] final -155.46 input  -57.11 | X-H torsion

> <Gold.Protein.ActiveResidues>
 VAL166  LYS551  ARG553  GLY616  TRP617  ASP618  TYR619  PRO620  LYS621  CYS622 
 ASP623  PHE694  ASN695  SER759  ASP760  ASP761  ALA762  ILE779  LEU786  VAL792 
 PHE793  MET794  SER795  GLU796  ALA797  LYS798  CYS799  TRP800  GLU811  SER814 

> <Gold.Protein.RotatedAtoms>
  152.5443  134.1837  159.8645 H   0  0  0  0  0  0  0  0  0  0  0  0  # atno 6907 bound_to 6896
  151.1838  133.4702  159.2602 H   0  0  0  0  0  0  0  0  0  0  0  0  # atno 6908 bound_to 6896
  151.1152  135.0060  159.8568 H   0  0  0  0  0  0  0  0  0  0  0  0  # atno 6909 bound_to 6896
  145.0059  140.7863  143.4468 H   0  0  0  0  0  0  0  0  0  0  0  0  # atno 7974 bound_to 7965
  156.1419  140.1553  156.8908 H   0  0  0  0  0  0  0  0  0  0  0  0  # atno 8008 bound_to 7997
  154.4994  140.0829  156.7805 H   0  0  0  0  0  0  0  0  0  0  0  0  # atno 8009 bound_to 7997
  155.4063  140.3417  155.4262 H   0  0  0  0  0  0  0  0  0  0  0  0  # atno 8010 bound_to 7997
  139.6145  144.0747  152.1875 H   0  0  0  0  0  0  0  0  0  0  0  0  # atno 10167 bound_to 10162
  156.4800  130.8299  151.2526 H   0  0  0  0  0  0  0  0  0  0  0  0  # atno 10718 bound_to 10713
  153.3694  135.3934  155.1777 H   0  0  0  0  0  0  0  0  0  0  0  0  # atno 10763 bound_to 10752
  154.8692  135.3698  154.4998 H   0  0  0  0  0  0  0  0  0  0  0  0  # atno 10764 bound_to 10752
  153.5464  135.7083  153.5672 H   0  0  0  0  0  0  0  0  0  0  0  0  # atno 10765 bound_to 10752
  140.6863  134.4090  157.5223 H   0  0  0  0  0  0  0  0  0  0  0  0  # atno 11005 bound_to 11000
  145.2089  139.2214  143.5153 LP  0  0  0  0  0  0  0  0  0  0  0  0  # atno 17320 bound_to 7965
  146.3461  140.1922  142.8589 LP  0  0  0  0  0  0  0  0  0  0  0  0  # atno 17321 bound_to 7965
  140.0374  144.6034  150.7439 LP  0  0  0  0  0  0  0  0  0  0  0  0  # atno 17342 bound_to 10162
  140.7342  143.2726  151.3842 LP  0  0  0  0  0  0  0  0  0  0  0  0  # atno 17343 bound_to 10162
  157.7484  131.0048  150.3089 LP  0  0  0  0  0  0  0  0  0  0  0  0  # atno 17370 bound_to 10713
  156.3531  130.3834  149.7312 LP  0  0  0  0  0  0  0  0  0  0  0  0  # atno 17371 bound_to 10713
  139.8937  134.8725  156.2213 LP  0  0  0  0  0  0  0  0  0  0  0  0  # atno 17394 bound_to 11000
  141.0277  133.7006  156.1377 LP  0  0  0  0  0  0  0  0  0  0  0  0  # atno 17395 bound_to 11000

$$$$
