AV-unprocessed.smi:110|AV-procd|sdf|1071|dock7
  -GOLD-   2262018153D 1   1.00000     0.00000
 Structure written by MMmdl.
 46 50  0  0  0  0  0  0  0  0  1 V2000
  146.8309  141.9643  155.4247 O   0  0  0  0  0  0  0  0  0  0  0  0
  146.8710  140.5575  155.5314 C   0  0  0  0  0  0  0  0  0  0  0  0
  147.2715  139.9391  154.1707 C   0  0  1  0  0  0  0  0  0  0  0  0
  148.5320  140.4464  153.7437 O   0  0  0  0  0  0  0  0  0  0  0  0
  149.5884  139.6919  154.2640 C   0  0  1  0  0  0  0  0  0  0  0  0
  150.1864  140.4332  155.4285 N   0  0  0  0  0  0  0  0  0  0  0  0
  149.7725  141.6209  155.9958 C   0  0  0  0  0  0  0  0  0  0  0  0
  150.4649  142.0236  157.0253 N   0  0  0  0  0  0  0  0  0  0  0  0
  151.4071  141.0217  157.2174 C   0  0  0  0  0  0  0  0  0  0  0  0
  152.4553  140.8048  158.1571 C   0  0  0  0  0  0  0  0  0  0  0  0
  152.7838  141.6603  159.1530 N   0  0  0  0  0  0  0  0  0  0  0  0
  153.3311  141.1297  160.4096 C   0  0  0  0  0  0  0  0  0  0  0  0
  153.1960  142.2322  161.4770 C   0  0  0  0  0  0  0  0  0  0  0  0
  152.6541  143.3591  160.6577 C   0  0  0  0  0  0  0  0  0  0  0  0
  152.3842  144.6705  161.0855 C   0  0  0  0  0  0  0  0  0  0  0  0
  151.8959  145.5928  160.1353 C   0  0  0  0  0  0  0  0  0  0  0  0
  151.6989  145.1979  158.7917 C   0  0  0  0  0  0  0  0  0  0  0  0
  151.9792  143.8751  158.3842 C   0  0  0  0  0  0  0  0  0  0  0  0
  152.4453  142.9527  159.3436 C   0  0  0  0  0  0  0  0  0  0  0  0
  153.1381  139.6347  158.0798 N   0  0  0  0  0  0  0  0  0  0  0  0
  152.8458  138.7503  157.1233 C   0  0  0  0  0  0  0  0  0  0  0  0
  151.9195  138.8330  156.1675 N   0  0  0  0  0  0  0  0  0  0  0  0
  151.2123  139.9978  156.2471 C   0  0  0  0  0  0  0  0  0  0  0  0
  148.9867  138.3367  154.6961 C   0  0  2  0  0  0  0  0  0  0  0  0
  149.6475  137.2491  154.0819 O   0  0  0  0  0  0  0  0  0  0  0  0
  147.5550  138.4313  154.1819 C   0  0  1  0  0  0  0  0  0  0  0  0
  146.6546  137.7044  154.9951 O   0  0  0  0  0  0  0  0  0  0  0  0
  146.5047  140.1669  153.4290 H   0  0  0  0  0  0  0  0  0  0  0  0
  150.4044  139.6199  153.5439 H   0  0  0  0  0  0  0  0  0  0  0  0
  148.9905  138.2327  155.7812 H   0  0  0  0  0  0  0  0  0  0  0  0
  147.4942  138.0593  153.1575 H   0  0  0  0  0  0  0  0  0  0  0  0
  146.0289  142.2102  154.9894 H   0  0  0  0  0  0  0  0  0  0  0  0
  147.5322  140.2605  156.3436 H   0  0  0  0  0  0  0  0  0  0  0  0
  145.8674  140.2414  155.8145 H   0  0  0  0  0  0  0  0  0  0  0  0
  148.9364  142.1937  155.6228 H   0  0  0  0  0  0  0  0  0  0  0  0
  152.7988  140.2266  160.7115 H   0  0  0  0  0  0  0  0  0  0  0  0
  154.3793  140.8661  160.2635 H   0  0  0  0  0  0  0  0  0  0  0  0
  152.4904  141.9578  162.2616 H   0  0  0  0  0  0  0  0  0  0  0  0
  154.1546  142.4941  161.9253 H   0  0  0  0  0  0  0  0  0  0  0  0
  152.5508  144.9658  162.1106 H   0  0  0  0  0  0  0  0  0  0  0  0
  151.6800  146.6080  160.4340 H   0  0  0  0  0  0  0  0  0  0  0  0
  151.3358  145.9146  158.0701 H   0  0  0  0  0  0  0  0  0  0  0  0
  151.8411  143.5852  157.3532 H   0  0  0  0  0  0  0  0  0  0  0  0
  153.4397  137.8483  157.1216 H   0  0  0  0  0  0  0  0  0  0  0  0
  149.4130  137.2329  153.1665 H   0  0  0  0  0  0  0  0  0  0  0  0
  145.9933  137.3223  154.4383 H   0  0  0  0  0  0  0  0  0  0  0  0
  1  2  1  0  0  0  0
  1 32  1  0  0  0  0
  2  3  1  0  0  0  0
  2 33  1  0  0  0  0
  2 34  1  0  0  0  0
  3 28  1  0  0  0  0
  3 26  1  0  0  0  0
  3  4  1  0  0  0  0
  4  5  1  0  0  0  0
  5 29  1  0  0  0  0
  5  6  1  0  0  0  0
  5 24  1  0  0  0  0
  6 23  1  0  0  0  0
  6  7  1  0  0  0  0
  7  8  2  0  0  0  0
  7 35  1  0  0  0  0
  8  9  1  0  0  0  0
  9 23  2  0  0  0  0
  9 10  1  0  0  0  0
 10 11  1  0  0  0  0
 10 20  2  0  0  0  0
 11 19  1  0  0  0  0
 11 12  1  0  0  0  0
 12 13  1  0  0  0  0
 12 36  1  0  0  0  0
 12 37  1  0  0  0  0
 13 14  1  0  0  0  0
 13 38  1  0  0  0  0
 13 39  1  0  0  0  0
 14 19  2  0  0  0  0
 14 15  1  0  0  0  0
 15 16  2  0  0  0  0
 15 40  1  0  0  0  0
 16 17  1  0  0  0  0
 16 41  1  0  0  0  0
 17 18  2  0  0  0  0
 17 42  1  0  0  0  0
 18 19  1  0  0  0  0
 18 43  1  0  0  0  0
 20 21  1  0  0  0  0
 21 22  2  0  0  0  0
 21 44  1  0  0  0  0
 22 23  1  0  0  0  0
 24 30  1  0  0  0  0
 24 25  1  0  0  0  0
 24 26  1  0  0  0  0
 25 45  1  0  0  0  0
 26 31  1  0  0  0  0
 26 27  1  0  0  0  0
 27 46  1  0  0  0  0
M  END
> <s_m_source_file>
AV-unprocessed.smi

> <i_m_source_file_index>
110

> <i_lp_mmshare_version>
43012

> <i_f3d_flags>
0

> <s_epik_input>
W09IXVtDSDJdW0NASF0xT1tDQEhdKFtDQEhdKFtPSF0pW0NAQEhdMVtPSF0pbihbY0hdbjIpYyhjMjMpbltjSF1uYzNOKFtDSDJdW0NIMl00KWMoYzQ1KVtjSF1bY0hdW2NIXVtjSF01

> <s_epik_cmdline>
J2VwaWtfcHl0aG9uJywgJy1waCcsICc3LjAnLCAnLXRuJywgJzgnLCAnLW1hJywgJzIwMCcsICctbWV0YWxfYmluZGluZycsICctaW1hZScsICc8aW5maWxlLm1hZT4nLCAnLW9tYWUnLCAnPG91dGZpbGUubWFlPic=

> <r_lp_tautomer_probability>
1

> <r_epik_Ionization_Penalty>
0.00068475

> <r_epik_Ionization_Penalty_Charging>
0

> <r_epik_Ionization_Penalty_Neutral>
0.00068475

> <r_epik_State_Penalty>
0.000417442

> <r_epik_Charging_Adjusted_Penalty>
0.000417442

> <i_epik_Tot_Q>
0

> <i_epik_Tot_abs_Q>
0

> <r_epik_Metal_State_Penalty>
-0

> <b_epik_Metal_Only>
0

> <s_epik_Chemistry_Notes>
This compound contains an acetal/aminal-like group ( X-CH(R)-Y where X, Y are N, S, or O) that may be acid/base labile, releasing an aldehyde.

> <s_lp_Force_Field>
OPLS_2005

> <r_lp_Energy>
59.87

> <b_lp_Chiralities_Consistent>
1

> <s_lp_Variant>
AV-unprocessed.smi:110-9

> <Gold.Version>
5.8.1

> <Gold.Id.Protein>
6NUR|6NUR_protein|mol2

> <Gold.PLP.Fitness>
56.5066

> <Gold.PLP.PLP>
-50.0043

> <Gold.PLP.part.hbond>
-2.0764

> <Gold.PLP.part.metal>
0.0000

> <Gold.PLP.part.buried>
-6.1311

> <Gold.PLP.part.nonpolar>
-43.0810

> <Gold.PLP.part.repulsive>
1.9575

> <Gold.PLP.ligand.clash>
0.0000

> <Gold.PLP.ligand.torsion>
0.2781

> <Gold.PLP.Chemscore.Hbond>
1.4472

> <Gold.PLP.Chemscore.CHOScore>
0.8645

> <Gold.PLP.Chemscore.Metal>
0.0000

> <Gold.Chemscore.Hbonds>
donor molecule, donor type, donor heavy atom, donor atom, acceptor molecule, acceptor atom, score
      L1  H    25    45       P1  7948  0.91
      P1  H  7997  8009       L1    20  0.46
      L1  C     7    35       P1  8028  0.87

> <Gold.PLP.Chemscore.Internal.Correction>
0.1236

> <Gold.Rescore>
     Score         DG    S(hbond)    S(metal)    S(lipo)     H(rot)  DE(clash)    DE(int)     intcor
     11.14     -13.08       1.12        0.00     106.99       3.38       0.22       1.72       ----

> <Gold.Chemscore.Fitness>
11.1403

> <Gold.Chemscore.DG>
-13.0816

> <Gold.Chemscore.ZeroCoef>
-5.4800

> <Gold.Chemscore.Hbond>
1.1217

> <Gold.Chemscore.Metal>
0.0000

> <Gold.Chemscore.Lipo>
106.9859

> <Gold.Chemscore.Internal_Hbond>
0.0000

> <Gold.Chemscore.DEClash>
0.2196

> <Gold.Chemscore.DEInternal>
1.7216

> <Gold.Chemscore.Rot>
3.3837

> <Gold.Chemscore.Internal.Correction>
   9.000000E+99

> <Gold.Chemscore.Hbonds>
donor molecule, donor type, donor heavy atom, donor atom, acceptor molecule, acceptor atom, score
      L1  H    25    45       P1  7948  0.80
      P1  H  7997  8009       L1    20  0.01

> <Gold.Chemscore.Hbond.Weighted>
-3.7464

> <Gold.Chemscore.Metal.Weighted>
-0.0000

> <Gold.Chemscore.Lipo.Weighted>
-12.5173

> <Gold.Chemscore.Internal_Hbond.Weighted>
0.0000

> <Gold.Chemscore.DEClash.Weighted>
0.2196

> <Gold.Chemscore.DEInternal.Weighted>
1.7216

> <Gold.Chemscore.Rot.Weighted>
8.6622

> <Gold.Chemscore.Internal.Correction.Weighted>
   9.000000E+99

> <Gold.Protein.RotatedTorsions>
[ 6907 6896 6895 6894 ] final   61.87 input  -60.11 | X-H torsion
[ 7974 7965 7964 7962 ] final  -90.77 input  175.53 | X-H torsion
[ 8008 7997 7996 7995 ] final  137.01 input   59.86 | X-H torsion
[ 10167 10162 10161 10158 ] final  154.63 input  -65.29 | X-H torsion
[ 10718 10713 10712 10709 ] final  -74.51 input   66.30 | X-H torsion
[ 10763 10752 10751 10750 ] final -150.93 input  -60.55 | X-H torsion
[ 11005 11000 10999 10996 ] final    6.40 input  -57.11 | X-H torsion

> <Gold.Protein.ActiveResidues>
 VAL166  LYS551  ARG553  GLY616  TRP617  ASP618  TYR619  PRO620  LYS621  CYS622 
 ASP623  PHE694  ASN695  SER759  ASP760  ASP761  ALA762  ILE779  LEU786  VAL792 
 PHE793  MET794  SER795  GLU796  ALA797  LYS798  CYS799  TRP800  GLU811  SER814 

> <Gold.Protein.RotatedAtoms>
  152.4125  134.6099  160.0022 H   0  0  0  0  0  0  0  0  0  0  0  0  # atno 6907 bound_to 6896
  151.6272  133.3329  159.3109 H   0  0  0  0  0  0  0  0  0  0  0  0  # atno 6908 bound_to 6896
  150.8015  134.7152  159.6671 H   0  0  0  0  0  0  0  0  0  0  0  0  # atno 6909 bound_to 6896
  145.4221  140.9551  143.2175 H   0  0  0  0  0  0  0  0  0  0  0  0  # atno 7974 bound_to 7965
  156.3003  140.2430  156.3839 H   0  0  0  0  0  0  0  0  0  0  0  0  # atno 8008 bound_to 7997
  154.8676  140.0417  157.1724 H   0  0  0  0  0  0  0  0  0  0  0  0  # atno 8009 bound_to 7997
  154.8830  140.2952  155.5418 H   0  0  0  0  0  0  0  0  0  0  0  0  # atno 8010 bound_to 7997
  139.4823  144.5169  151.7937 H   0  0  0  0  0  0  0  0  0  0  0  0  # atno 10167 bound_to 10162
  156.0240  130.4419  150.2904 H   0  0  0  0  0  0  0  0  0  0  0  0  # atno 10718 bound_to 10713
  154.8089  135.3272  154.7357 H   0  0  0  0  0  0  0  0  0  0  0  0  # atno 10763 bound_to 10752
  153.8010  135.6903  153.4860 H   0  0  0  0  0  0  0  0  0  0  0  0  # atno 10764 bound_to 10752
  153.1854  135.4571  155.0027 H   0  0  0  0  0  0  0  0  0  0  0  0  # atno 10765 bound_to 10752
  140.5599  134.0202  155.7968 H   0  0  0  0  0  0  0  0  0  0  0  0  # atno 11005 bound_to 11000
  144.8238  139.5745  143.6974 LP  0  0  0  0  0  0  0  0  0  0  0  0  # atno 17320 bound_to 7965
  146.2651  139.6501  142.9335 LP  0  0  0  0  0  0  0  0  0  0  0  0  # atno 17321 bound_to 7965
  140.4679  144.1629  150.5914 LP  0  0  0  0  0  0  0  0  0  0  0  0  # atno 17342 bound_to 10162
  140.4414  143.2525  151.9468 LP  0  0  0  0  0  0  0  0  0  0  0  0  # atno 17343 bound_to 10162
  157.1007  131.0195  151.3086 LP  0  0  0  0  0  0  0  0  0  0  0  0  # atno 17370 bound_to 10713
  157.4782  130.7749  149.7388 LP  0  0  0  0  0  0  0  0  0  0  0  0  # atno 17371 bound_to 10713
  141.1121  133.9600  157.2891 LP  0  0  0  0  0  0  0  0  0  0  0  0  # atno 17394 bound_to 11000
  139.9413  135.0190  156.8716 LP  0  0  0  0  0  0  0  0  0  0  0  0  # atno 17395 bound_to 11000

$$$$
