AV-unprocessed.smi:1764|AV-procd|sdf|7132|dock5
  -GOLD-   22720 8373D 1   1.00000     0.00000
 Structure written by MMmdl.
 31 32  0  0  0  0  0  0  0  0  1 V2000
  150.4865  140.5681  156.1030 O   0  0  0  0  0  0  0  0  0  0  0  0
  150.1270  141.7402  155.9880 C   0  0  0  0  0  0  0  0  0  0  0  0
  149.2466  142.1573  155.0663 N   0  0  0  0  0  0  0  0  0  0  0  0
  148.6063  141.3044  154.0709 C   0  0  0  0  0  0  0  0  0  0  0  0
  147.0796  141.4874  154.0701 C   0  0  2  0  0  0  0  0  0  0  0  0
  146.6311  142.9195  153.7819 C   0  0  0  0  0  0  0  0  0  0  0  0
  145.2752  143.0202  154.4651 C   0  0  0  0  0  0  0  0  0  0  0  0
  145.2087  141.7740  155.3520 C   0  0  0  0  0  0  0  0  0  0  0  0
  146.5311  141.2573  155.3581 O   0  0  0  0  0  0  0  0  0  0  0  0
  150.5520  142.7625  156.7515 N   0  0  0  0  0  0  0  0  0  0  0  0
  151.4666  142.7265  157.8381 C   0  0  0  0  0  0  0  0  0  0  0  0
  151.8463  143.9908  158.3430 C   0  0  0  0  0  0  0  0  0  0  0  0
  152.7480  144.0641  159.4224 C   0  0  0  0  0  0  0  0  0  0  0  0
  153.2472  142.8693  159.9708 C   0  0  0  0  0  0  0  0  0  0  0  0
  152.8184  141.6522  159.4096 C   0  0  0  0  0  0  0  0  0  0  0  0
  151.9544  141.5801  158.3749 N   0  0  0  0  0  0  0  0  0  0  0  0
  149.0069  143.1376  155.0453 H   0  0  0  0  0  0  0  0  0  0  0  0
  149.0193  141.4855  153.0769 H   0  0  0  0  0  0  0  0  0  0  0  0
  148.8478  140.2710  154.3204 H   0  0  0  0  0  0  0  0  0  0  0  0
  146.6135  140.8047  153.3570 H   0  0  0  0  0  0  0  0  0  0  0  0
  147.3206  143.6308  154.2391 H   0  0  0  0  0  0  0  0  0  0  0  0
  146.5855  143.1364  152.7143 H   0  0  0  0  0  0  0  0  0  0  0  0
  145.2077  143.9350  155.0550 H   0  0  0  0  0  0  0  0  0  0  0  0
  144.4579  143.0249  153.7430 H   0  0  0  0  0  0  0  0  0  0  0  0
  144.8677  141.9959  156.3635 H   0  0  0  0  0  0  0  0  0  0  0  0
  144.5363  141.0313  154.9202 H   0  0  0  0  0  0  0  0  0  0  0  0
  150.1738  143.6721  156.5329 H   0  0  0  0  0  0  0  0  0  0  0  0
  151.4526  144.8992  157.9103 H   0  0  0  0  0  0  0  0  0  0  0  0
  153.0505  145.0206  159.8223 H   0  0  0  0  0  0  0  0  0  0  0  0
  153.9400  142.8845  160.7991 H   0  0  0  0  0  0  0  0  0  0  0  0
  153.1774  140.7120  159.8012 H   0  0  0  0  0  0  0  0  0  0  0  0
  1  2  2  0  0  0  0
  2  3  1  0  0  0  0
  2 10  1  0  0  0  0
  3  4  1  0  0  0  0
  3 17  1  0  0  0  0
  4  5  1  0  0  0  0
  4 18  1  0  0  0  0
  4 19  1  0  0  0  0
  5  9  1  0  0  0  0
  5  6  1  0  0  0  0
  5 20  1  0  0  0  0
  6  7  1  0  0  0  0
  6 21  1  0  0  0  0
  6 22  1  0  0  0  0
  7  8  1  0  0  0  0
  7 23  1  0  0  0  0
  7 24  1  0  0  0  0
  8  9  1  0  0  0  0
  8 25  1  0  0  0  0
  8 26  1  0  0  0  0
 10 11  1  0  0  0  0
 10 27  1  0  0  0  0
 11 16  1  0  0  0  0
 11 12  2  0  0  0  0
 12 13  1  0  0  0  0
 12 28  1  0  0  0  0
 13 14  2  0  0  0  0
 13 29  1  0  0  0  0
 14 15  1  0  0  0  0
 14 30  1  0  0  0  0
 15 16  2  0  0  0  0
 15 31  1  0  0  0  0
M  END
> <s_m_source_file>
AV-unprocessed.smi

> <i_m_source_file_index>
1764

> <i_lp_mmshare_version>
43012

> <i_f3d_flags>
0

> <s_epik_input>
bjFbY0hdW2NIXVtjSF1bY0hdYzFbTkhdQyg9TylbTkhdW0NIMl1bQ0BASF0yW0NIMl1bQ0gyXVtDSDJdTzI=

> <s_epik_cmdline>
J2VwaWtfcHl0aG9uJywgJy1waCcsICc3LjAnLCAnLXRuJywgJzgnLCAnLW1hJywgJzIwMCcsICctbWV0YWxfYmluZGluZycsICctaW1hZScsICc8aW5maWxlLm1hZT4nLCAnLW9tYWUnLCAnPG91dGZpbGUubWFlPic=

> <r_lp_tautomer_probability>
1

> <r_epik_Ionization_Penalty>
4.47751e-05

> <r_epik_Ionization_Penalty_Charging>
0

> <r_epik_Ionization_Penalty_Neutral>
4.47751e-05

> <r_epik_State_Penalty>
-0

> <r_epik_Charging_Adjusted_Penalty>
0

> <i_epik_Tot_Q>
0

> <i_epik_Tot_abs_Q>
0

> <r_epik_Metal_State_Penalty>
-0

> <b_epik_Metal_Only>
0

> <s_lp_Force_Field>
OPLS_2005

> <r_lp_Energy>
19.1165

> <b_lp_Chiralities_Consistent>
1

> <s_lp_Variant>
AV-unprocessed.smi:1764-1

> <Gold.Version>
5.8.1

> <Gold.Id.Protein>
6NUR|6NUR_protein|mol2

> <Gold.PLP.Fitness>
42.3980

> <Gold.PLP.PLP>
-36.4990

> <Gold.PLP.part.hbond>
-2.0000

> <Gold.PLP.part.metal>
0.0000

> <Gold.PLP.part.buried>
-5.4530

> <Gold.PLP.part.nonpolar>
-29.3949

> <Gold.PLP.part.repulsive>
0.3681

> <Gold.PLP.ligand.clash>
0.0000

> <Gold.PLP.ligand.torsion>
0.0559

> <Gold.PLP.Chemscore.Hbond>
2.0000

> <Gold.PLP.Chemscore.CHOScore>
0.0000

> <Gold.PLP.Chemscore.Metal>
0.0000

> <Gold.Chemscore.Hbonds>
donor molecule, donor type, donor heavy atom, donor atom, acceptor molecule, acceptor atom, score
      L1  H     3    17       P1  8028  1.00
      L1  H    10    27       P1  8028  1.00

> <Gold.PLP.Chemscore.Internal.Correction>
0.0108

> <Gold.Rescore>
     Score         DG    S(hbond)    S(metal)    S(lipo)     H(rot)  DE(clash)    DE(int)     intcor
     16.52     -17.97       1.95        0.00      78.82       1.27       0.07       1.38       ----

> <Gold.Chemscore.Fitness>
16.5159

> <Gold.Chemscore.DG>
-17.9717

> <Gold.Chemscore.ZeroCoef>
-5.4800

> <Gold.Chemscore.Hbond>
1.9506

> <Gold.Chemscore.Metal>
0.0000

> <Gold.Chemscore.Lipo>
78.8223

> <Gold.Chemscore.Internal_Hbond>
0.0000

> <Gold.Chemscore.DEClash>
0.0727

> <Gold.Chemscore.DEInternal>
1.3830

> <Gold.Chemscore.Rot>
1.2678

> <Gold.Chemscore.Internal.Correction>
   9.000000E+99

> <Gold.Chemscore.Hbonds>
donor molecule, donor type, donor heavy atom, donor atom, acceptor molecule, acceptor atom, score
      L1  H     3    17       P1  8028  0.99
      L1  H    10    27       P1  8028  0.95

> <Gold.Chemscore.Hbond.Weighted>
-6.5150

> <Gold.Chemscore.Metal.Weighted>
-0.0000

> <Gold.Chemscore.Lipo.Weighted>
-9.2222

> <Gold.Chemscore.Internal_Hbond.Weighted>
0.0000

> <Gold.Chemscore.DEClash.Weighted>
0.0727

> <Gold.Chemscore.DEInternal.Weighted>
1.3830

> <Gold.Chemscore.Rot.Weighted>
3.2455

> <Gold.Chemscore.Internal.Correction.Weighted>
   9.000000E+99

> <Gold.Protein.RotatedTorsions>
[ 6907 6896 6895 6894 ] final   -9.18 input  -60.11 | X-H torsion
[ 7974 7965 7964 7962 ] final  -98.84 input  175.53 | X-H torsion
[ 8008 7997 7996 7995 ] final -157.76 input   59.86 | X-H torsion
[ 10167 10162 10161 10158 ] final   97.29 input  -65.29 | X-H torsion
[ 10718 10713 10712 10709 ] final -168.45 input   66.30 | X-H torsion
[ 10763 10752 10751 10750 ] final   35.26 input  -60.55 | X-H torsion
[ 11005 11000 10999 10996 ] final  142.51 input  -57.11 | X-H torsion

> <Gold.Protein.ActiveResidues>
 VAL166  LYS551  ARG553  GLY616  TRP617  ASP618  TYR619  PRO620  LYS621  CYS622 
 ASP623  PHE694  ASN695  SER759  ASP760  ASP761  ALA762  ILE779  LEU786  VAL792 
 PHE793  MET794  SER795  GLU796  ALA797  LYS798  CYS799  TRP800  GLU811  SER814 

> <Gold.Protein.RotatedAtoms>
  151.4218  135.0999  159.9615 H   0  0  0  0  0  0  0  0  0  0  0  0  # atno 6907 bound_to 6896
  152.4986  133.8700  159.7304 H   0  0  0  0  0  0  0  0  0  0  0  0  # atno 6908 bound_to 6896
  150.9218  133.6814  159.2858 H   0  0  0  0  0  0  0  0  0  0  0  0  # atno 6909 bound_to 6896
  145.3154  140.9410  143.2746 H   0  0  0  0  0  0  0  0  0  0  0  0  # atno 7974 bound_to 7965
  155.7374  140.0810  157.2261 H   0  0  0  0  0  0  0  0  0  0  0  0  # atno 8008 bound_to 7997
  154.4026  140.1584  156.2632 H   0  0  0  0  0  0  0  0  0  0  0  0  # atno 8009 bound_to 7997
  155.9052  140.3407  155.6059 H   0  0  0  0  0  0  0  0  0  0  0  0  # atno 8010 bound_to 7997
  139.7815  144.6886  151.0016 H   0  0  0  0  0  0  0  0  0  0  0  0  # atno 10167 bound_to 10162
  156.6971  130.9182  151.3075 H   0  0  0  0  0  0  0  0  0  0  0  0  # atno 10718 bound_to 10713
  153.0127  135.6338  154.1798 H   0  0  0  0  0  0  0  0  0  0  0  0  # atno 10763 bound_to 10752
  154.1539  135.2827  155.3129 H   0  0  0  0  0  0  0  0  0  0  0  0  # atno 10764 bound_to 10752
  154.6032  135.5580  153.7457 H   0  0  0  0  0  0  0  0  0  0  0  0  # atno 10765 bound_to 10752
  140.0482  134.9269  157.0969 H   0  0  0  0  0  0  0  0  0  0  0  0  # atno 11005 bound_to 11000
  144.8982  139.4684  143.6645 LP  0  0  0  0  0  0  0  0  0  0  0  0  # atno 17320 bound_to 7965
  146.3102  139.7721  142.9025 LP  0  0  0  0  0  0  0  0  0  0  0  0  # atno 17321 bound_to 7965
  140.7818  143.4478  151.0457 LP  0  0  0  0  0  0  0  0  0  0  0  0  # atno 17342 bound_to 10162
  139.8158  143.7887  152.3174 LP  0  0  0  0  0  0  0  0  0  0  0  0  # atno 17343 bound_to 10162
  157.6987  130.9309  150.0720 LP  0  0  0  0  0  0  0  0  0  0  0  0  # atno 17370 bound_to 10713
  156.1755  130.3648  149.9106 LP  0  0  0  0  0  0  0  0  0  0  0  0  # atno 17371 bound_to 10713
  140.3959  134.2134  155.7164 LP  0  0  0  0  0  0  0  0  0  0  0  0  # atno 17394 bound_to 11000
  141.1917  133.8188  157.0867 LP  0  0  0  0  0  0  0  0  0  0  0  0  # atno 17395 bound_to 11000

$$$$
