AV-unprocessed.smi:290|AV-procd|sdf|2237|dock1
  -GOLD-   2262022103D 1   1.00000     0.00000
 Structure written by MMmdl.
 59 62  0  0  0  0  0  0  0  0  2 V2000
  149.9677  141.2612  158.1408 C   0  0  0  0  0  0  0  0  0  0  0  0
  149.4547  140.4717  156.9253 C   0  0  2  0  0  0  0  0  0  0  0  0
  150.3967  139.4702  156.5427 O   0  0  0  0  0  0  0  0  0  0  0  0
  150.8014  139.6709  155.1964 C   0  0  0  0  0  0  0  0  0  0  0  0
  149.6101  140.3629  154.5477 C   0  0  0  0  0  0  0  0  0  0  0  0
  149.1272  141.2911  155.6538 C   0  0  2  0  0  0  0  0  0  0  0  0
  149.9012  142.4792  155.6048 O   0  0  0  0  0  0  0  0  0  0  0  0
  147.6316  141.6731  155.5454 C   0  0  0  0  0  0  0  0  0  0  0  0
  146.7488  140.5230  155.4221 N   0  0  0  0  0  0  0  0  0  0  0  0
  145.8429  140.0750  156.3571 C   0  0  0  0  0  0  0  0  0  0  0  0
  145.1677  139.0119  156.0139 N   0  0  0  0  0  0  0  0  0  0  0  0
  145.6388  138.7076  154.7426 C   0  0  0  0  0  0  0  0  0  0  0  0
  145.3513  137.6892  153.7904 C   0  0  0  0  0  0  0  0  0  0  0  0
  144.4522  136.6970  153.9652 N   0  0  0  0  0  0  0  0  0  0  0  0
  143.2147  136.8174  153.2009 C   0  0  0  0  0  0  0  0  0  0  0  0
  142.8582  135.4031  152.7401 C   0  0  0  0  0  0  0  0  0  0  0  0
  144.2292  134.7264  152.6414 C   0  0  2  0  0  0  0  0  0  0  0  0
  144.2153  133.2345  152.5862 N   0  3  1  0  0  0  0  0  0  0  0  0
  143.6226  132.7127  151.3280 C   0  0  0  0  0  0  0  0  0  0  0  0
  145.5578  132.6476  152.8554 C   0  0  0  0  0  0  0  0  0  0  0  0
  146.6257  133.0724  151.8303 C   0  0  0  0  0  0  0  0  0  0  0  0
  147.8717  132.4904  152.1474 O   0  0  0  0  0  0  0  0  0  0  0  0
  144.9687  135.3352  153.8556 C   0  0  2  0  0  0  0  0  0  0  0  0
  144.7319  134.5932  155.1849 C   0  0  0  0  0  0  0  0  0  0  0  0
  146.0224  137.7090  152.6138 N   0  0  0  0  0  0  0  0  0  0  0  0
  146.9277  138.6637  152.3774 C   0  0  0  0  0  0  0  0  0  0  0  0
  147.3045  139.6712  153.1683 N   0  0  0  0  0  0  0  0  0  0  0  0
  146.6281  139.6534  154.3523 C   0  0  0  0  0  0  0  0  0  0  0  0
  144.7032  135.0832  151.7260 H   0  0  0  0  0  0  0  0  0  0  0  0
  146.0426  135.3517  153.6612 H   0  0  0  0  0  0  0  0  0  0  0  0
  149.2574  142.0350  158.4334 H   0  0  0  0  0  0  0  0  0  0  0  0
  150.9253  141.7406  157.9352 H   0  0  0  0  0  0  0  0  0  0  0  0
  150.1112  140.6017  158.9968 H   0  0  0  0  0  0  0  0  0  0  0  0
  148.5621  139.9253  157.2322 H   0  0  0  0  0  0  0  0  0  0  0  0
  151.6798  140.3176  155.1795 H   0  0  0  0  0  0  0  0  0  0  0  0
  151.0601  138.7300  154.7105 H   0  0  0  0  0  0  0  0  0  0  0  0
  149.8658  140.8772  153.6204 H   0  0  0  0  0  0  0  0  0  0  0  0
  148.8456  139.6192  154.3186 H   0  0  0  0  0  0  0  0  0  0  0  0
  149.3257  143.2061  155.4219 H   0  0  0  0  0  0  0  0  0  0  0  0
  147.3230  142.2365  156.4270 H   0  0  0  0  0  0  0  0  0  0  0  0
  147.4686  142.3314  154.6910 H   0  0  0  0  0  0  0  0  0  0  0  0
  145.7018  140.5621  157.3111 H   0  0  0  0  0  0  0  0  0  0  0  0
  142.4226  137.2446  153.8165 H   0  0  0  0  0  0  0  0  0  0  0  0
  143.3488  137.4714  152.3381 H   0  0  0  0  0  0  0  0  0  0  0  0
  142.2404  134.9120  153.4931 H   0  0  0  0  0  0  0  0  0  0  0  0
  142.3088  135.4079  151.7982 H   0  0  0  0  0  0  0  0  0  0  0  0
  144.1837  133.0616  150.4602 H   0  0  0  0  0  0  0  0  0  0  0  0
  142.5860  133.0282  151.2140 H   0  0  0  0  0  0  0  0  0  0  0  0
  143.6094  131.6246  151.3052 H   0  0  0  0  0  0  0  0  0  0  0  0
  145.8751  132.9258  153.8615 H   0  0  0  0  0  0  0  0  0  0  0  0
  145.5065  131.5592  152.8501 H   0  0  0  0  0  0  0  0  0  0  0  0
  146.3509  132.8174  150.8079 H   0  0  0  0  0  0  0  0  0  0  0  0
  146.7438  134.1560  151.8566 H   0  0  0  0  0  0  0  0  0  0  0  0
  148.2640  132.1642  151.3512 H   0  0  0  0  0  0  0  0  0  0  0  0
  145.1505  133.5883  155.1655 H   0  0  0  0  0  0  0  0  0  0  0  0
  143.6706  134.5092  155.4204 H   0  0  0  0  0  0  0  0  0  0  0  0
  145.2098  135.1212  156.0107 H   0  0  0  0  0  0  0  0  0  0  0  0
  147.4227  138.6123  151.4188 H   0  0  0  0  0  0  0  0  0  0  0  0
  143.6139  132.9308  153.3393 H   0  0  0  0  0  0  0  0  0  0  0  0
  1  2  1  0  0  0  0
  1 31  1  0  0  0  0
  1 32  1  0  0  0  0
  1 33  1  0  0  0  0
  2  6  1  0  0  0  0
  2  3  1  0  0  0  0
  2 34  1  0  0  0  0
  3  4  1  0  0  0  0
  4  5  1  0  0  0  0
  4 35  1  0  0  0  0
  4 36  1  0  0  0  0
  5  6  1  0  0  0  0
  5 37  1  0  0  0  0
  5 38  1  0  0  0  0
  6  7  1  0  0  0  0
  6  8  1  0  0  0  0
  7 39  1  0  0  0  0
  8  9  1  0  0  0  0
  8 40  1  0  0  0  0
  8 41  1  0  0  0  0
  9 28  1  0  0  0  0
  9 10  1  0  0  0  0
 10 11  2  0  0  0  0
 10 42  1  0  0  0  0
 11 12  1  0  0  0  0
 12 28  2  0  0  0  0
 12 13  1  0  0  0  0
 13 14  1  0  0  0  0
 13 25  2  0  0  0  0
 14 23  1  0  0  0  0
 14 15  1  0  0  0  0
 15 16  1  0  0  0  0
 15 43  1  0  0  0  0
 15 44  1  0  0  0  0
 16 17  1  0  0  0  0
 16 45  1  0  0  0  0
 16 46  1  0  0  0  0
 17 29  1  0  0  0  0
 17 18  1  0  0  0  0
 17 23  1  0  0  0  0
 18 19  1  0  0  0  0
 18 20  1  0  0  0  0
 18 59  1  0  0  0  0
 19 47  1  0  0  0  0
 19 48  1  0  0  0  0
 19 49  1  0  0  0  0
 20 21  1  0  0  0  0
 20 50  1  0  0  0  0
 20 51  1  0  0  0  0
 21 22  1  0  0  0  0
 21 52  1  0  0  0  0
 21 53  1  0  0  0  0
 22 54  1  0  0  0  0
 23 30  1  0  0  0  0
 23 24  1  0  0  0  0
 24 55  1  0  0  0  0
 24 56  1  0  0  0  0
 24 57  1  0  0  0  0
 25 26  1  0  0  0  0
 26 27  2  0  0  0  0
 26 58  1  0  0  0  0
 27 28  1  0  0  0  0
M  CHG  1  18   1
M  END
> <s_m_source_file>
AV-unprocessed.smi

> <i_m_source_file_index>
290

> <i_lp_mmshare_version>
43012

> <i_f3d_flags>
0

> <s_epik_input>
W0NIMl0xW0NIMl1PW0NAQEhdKFtDSDNdKVtDQEBdMShbT0hdKVtDSDJdbihbY0hdbjIpYyhjMjMpbltjSF1uYzNONFtDSDJdW0NIMl1bQ0BIXShbQ0BIXTRbQ0gzXSlOKFtDSDNdKVtDSDJdW0NIMl1bT0hd

> <s_epik_cmdline>
J2VwaWtfcHl0aG9uJywgJy1waCcsICc3LjAnLCAnLXRuJywgJzgnLCAnLW1hJywgJzIwMCcsICctbWV0YWxfYmluZGluZycsICctaW1hZScsICc8aW5maWxlLm1hZT4nLCAnLW9tYWUnLCAnPG91dGZpbGUubWFlPic=

> <r_lp_tautomer_probability>
1

> <r_epik_Ionization_Penalty>
0.0036983

> <r_epik_Ionization_Penalty_Charging>
0.0032725

> <r_epik_Ionization_Penalty_Neutral>
0.000425798

> <r_epik_State_Penalty>
-0

> <r_epik_Charging_Adjusted_Penalty>
0.0032725

> <i_epik_Tot_Q>
1

> <i_epik_Tot_abs_Q>
1

> <r_epik_Metal_State_Penalty>
-0

> <b_epik_Metal_Only>
0

> <s_lp_Force_Field>
OPLS_2005

> <r_lp_Energy>
65.7953

> <b_lp_Chiralities_Consistent>
1

> <s_lp_Variant>
AV-unprocessed.smi:290-23

> <Gold.Version>
5.8.1

> <Gold.Id.Protein>
6NUR|6NUR_protein|mol2

> <Gold.PLP.Fitness>
45.3028

> <Gold.PLP.PLP>
-31.6205

> <Gold.PLP.part.hbond>
-2.7754

> <Gold.PLP.part.metal>
0.0000

> <Gold.PLP.part.buried>
-5.1255

> <Gold.PLP.part.nonpolar>
-24.8475

> <Gold.PLP.part.repulsive>
0.8003

> <Gold.PLP.ligand.clash>
0.0000

> <Gold.PLP.ligand.torsion>
0.3979

> <Gold.PLP.Chemscore.Hbond>
3.9825

> <Gold.PLP.Chemscore.CHOScore>
0.6805

> <Gold.PLP.Chemscore.Metal>
0.0000

> <Gold.Chemscore.Hbonds>
donor molecule, donor type, donor heavy atom, donor atom, acceptor molecule, acceptor atom, score
      L1  H     7    39       P1  8028  1.00
      L1  H    18    59       P1 10957  1.79
      L1  H    22    54       P1 10747  1.00
      L1  C    26    58       P1  7948  0.11
      L1  C    26    58       P1  7957  0.67

> <Gold.PLP.Chemscore.Internal.Correction>
0.4891

> <Gold.Rescore>
     Score         DG    S(hbond)    S(metal)    S(lipo)     H(rot)  DE(clash)    DE(int)     intcor
     11.18     -13.04       2.86        0.00      63.04       3.67       0.00       1.86       ----

> <Gold.Chemscore.Fitness>
11.1754

> <Gold.Chemscore.DG>
-13.0392

> <Gold.Chemscore.ZeroCoef>
-5.4800

> <Gold.Chemscore.Hbond>
2.8645

> <Gold.Chemscore.Metal>
0.0000

> <Gold.Chemscore.Lipo>
63.0437

> <Gold.Chemscore.Internal_Hbond>
0.0000

> <Gold.Chemscore.DEClash>
0.0048

> <Gold.Chemscore.DEInternal>
1.8590

> <Gold.Chemscore.Rot>
3.6658

> <Gold.Chemscore.Internal.Correction>
   9.000000E+99

> <Gold.Chemscore.Hbonds>
donor molecule, donor type, donor heavy atom, donor atom, acceptor molecule, acceptor atom, score
      L1  H     7    39       P1  8028  0.94
      L1  H    18    59       P1 10957  0.60
      L1  H    22    54       P1 10747  0.98

> <Gold.Chemscore.Hbond.Weighted>
-9.5675

> <Gold.Chemscore.Metal.Weighted>
-0.0000

> <Gold.Chemscore.Lipo.Weighted>
-7.3761

> <Gold.Chemscore.Internal_Hbond.Weighted>
0.0000

> <Gold.Chemscore.DEClash.Weighted>
0.0048

> <Gold.Chemscore.DEInternal.Weighted>
1.8590

> <Gold.Chemscore.Rot.Weighted>
9.3844

> <Gold.Chemscore.Internal.Correction.Weighted>
   9.000000E+99

> <Gold.Protein.RotatedTorsions>
[ 6907 6896 6895 6894 ] final  -28.27 input  -60.11 | X-H torsion
[ 7974 7965 7964 7962 ] final  162.39 input  175.53 | X-H torsion
[ 8008 7997 7996 7995 ] final   32.37 input   59.86 | X-H torsion
[ 10167 10162 10161 10158 ] final  -41.28 input  -65.29 | X-H torsion
[ 10718 10713 10712 10709 ] final  168.19 input   66.30 | X-H torsion
[ 10763 10752 10751 10750 ] final   82.71 input  -60.55 | X-H torsion
[ 11005 11000 10999 10996 ] final -152.65 input  -57.11 | X-H torsion

> <Gold.Protein.ActiveResidues>
 VAL166  LYS551  ARG553  GLY616  TRP617  ASP618  TYR619  PRO620  LYS621  CYS622 
 ASP623  PHE694  ASN695  SER759  ASP760  ASP761  ALA762  ILE779  LEU786  VAL792 
 PHE793  MET794  SER795  GLU796  ALA797  LYS798  CYS799  TRP800  GLU811  SER814 

> <Gold.Protein.RotatedAtoms>
  151.1353  135.0152  159.8600 H   0  0  0  0  0  0  0  0  0  0  0  0  # atno 6907 bound_to 6896
  152.5452  134.1562  159.8549 H   0  0  0  0  0  0  0  0  0  0  0  0  # atno 6908 bound_to 6896
  151.1632  133.4786  159.2627 H   0  0  0  0  0  0  0  0  0  0  0  0  # atno 6909 bound_to 6896
  144.7639  139.8033  143.6322 H   0  0  0  0  0  0  0  0  0  0  0  0  # atno 7974 bound_to 7965
  155.1213  140.3248  155.4496 H   0  0  0  0  0  0  0  0  0  0  0  0  # atno 8008 bound_to 7997
  156.2662  140.2026  156.6283 H   0  0  0  0  0  0  0  0  0  0  0  0  # atno 8009 bound_to 7997
  154.6681  140.0539  157.0123 H   0  0  0  0  0  0  0  0  0  0  0  0  # atno 8010 bound_to 7997
  140.7008  143.3104  151.3044 H   0  0  0  0  0  0  0  0  0  0  0  0  # atno 10167 bound_to 10162
  157.0407  131.0286  151.2714 H   0  0  0  0  0  0  0  0  0  0  0  0  # atno 10718 bound_to 10713
  153.1227  135.4718  154.9222 H   0  0  0  0  0  0  0  0  0  0  0  0  # atno 10763 bound_to 10752
  154.7591  135.3126  154.8416 H   0  0  0  0  0  0  0  0  0  0  0  0  # atno 10764 bound_to 10752
  153.8977  135.6878  153.4810 H   0  0  0  0  0  0  0  0  0  0  0  0  # atno 10765 bound_to 10752
  140.7166  134.3773  157.5190 H   0  0  0  0  0  0  0  0  0  0  0  0  # atno 11005 bound_to 11000
  146.1728  139.4886  142.9916 LP  0  0  0  0  0  0  0  0  0  0  0  0  # atno 17320 bound_to 7965
  145.6532  141.0258  143.1749 LP  0  0  0  0  0  0  0  0  0  0  0  0  # atno 17321 bound_to 7965
  139.6524  144.0337  152.2636 LP  0  0  0  0  0  0  0  0  0  0  0  0  # atno 17342 bound_to 10162
  139.9878  144.6383  150.7842 LP  0  0  0  0  0  0  0  0  0  0  0  0  # atno 17343 bound_to 10162
  157.5106  130.7936  149.7701 LP  0  0  0  0  0  0  0  0  0  0  0  0  # atno 17370 bound_to 10713
  156.0039  130.3865  150.2503 LP  0  0  0  0  0  0  0  0  0  0  0  0  # atno 17371 bound_to 10713
  139.8858  134.8926  156.2620 LP  0  0  0  0  0  0  0  0  0  0  0  0  # atno 17394 bound_to 11000
  141.0039  133.7135  156.1004 LP  0  0  0  0  0  0  0  0  0  0  0  0  # atno 17395 bound_to 11000

$$$$
