AV-unprocessed.smi:1216|AV-procd|sdf|5098|dock10
  -GOLD-   22720 4153D 1   1.00000     0.00000
 Structure written by MMmdl.
 43 44  0  0  0  0  0  0  0  0  2 V2000
  150.0456  138.7937  157.7755 C   0  0  0  0  0  0  0  0  0  0  0  0
  150.2532  140.2935  157.5268 C   0  0  2  0  0  0  0  0  0  0  0  0
  150.8485  140.5529  156.1261 C   0  0  0  0  0  0  0  0  0  0  0  0
  149.9460  140.1559  155.0393 N   0  0  0  0  0  0  0  0  0  0  0  0
  148.8813  140.8629  154.5426 C   0  0  0  0  0  0  0  0  0  0  0  0
  148.3533  140.1110  153.5248 C   0  0  0  0  0  0  0  0  0  0  0  0
  149.1134  138.9750  153.4474 N   0  3  0  0  0  0  0  0  0  0  0  0
  150.0771  139.0012  154.3734 C   0  0  0  0  0  0  0  0  0  0  0  0
  151.1241  140.8324  158.5708 N   0  0  0  0  0  0  0  0  0  0  0  0
  152.4414  140.6016  158.6868 C   0  0  0  0  0  0  0  0  0  0  0  0
  153.0828  139.9241  157.8825 O   0  0  0  0  0  0  0  0  0  0  0  0
  153.1308  141.2299  159.9046 C   0  0  0  0  0  0  0  0  0  0  0  0
  152.8074  142.6553  160.0708 N   0  0  0  0  0  0  0  0  0  0  0  0
  153.1956  143.5546  158.9725 C   0  0  0  0  0  0  0  0  0  0  0  0
  151.9963  144.1232  158.1795 C   0  0  0  0  0  0  0  0  0  0  0  0
  150.6888  144.3202  158.9719 C   0  0  0  0  0  0  0  0  0  0  0  0
  150.8331  145.1248  160.2805 C   0  0  0  0  0  0  0  0  0  0  0  0
  151.8911  144.6195  161.2904 C   0  0  0  0  0  0  0  0  0  0  0  0
  152.1983  143.1162  161.1927 C   0  0  0  0  0  0  0  0  0  0  0  0
  151.8861  142.3862  162.1345 O   0  0  0  0  0  0  0  0  0  0  0  0
  149.3798  138.3605  157.0286 H   0  0  0  0  0  0  0  0  0  0  0  0
  149.5987  138.6162  158.7544 H   0  0  0  0  0  0  0  0  0  0  0  0
  150.9894  138.2486  157.7359 H   0  0  0  0  0  0  0  0  0  0  0  0
  149.2713  140.7672  157.5831 H   0  0  0  0  0  0  0  0  0  0  0  0
  151.1033  141.6066  156.0009 H   0  0  0  0  0  0  0  0  0  0  0  0
  151.7725  139.9877  155.9973 H   0  0  0  0  0  0  0  0  0  0  0  0
  148.5924  141.8276  154.9334 H   0  0  0  0  0  0  0  0  0  0  0  0
  147.5171  140.2954  152.8662 H   0  0  0  0  0  0  0  0  0  0  0  0
  150.8249  138.2456  154.5364 H   0  0  0  0  0  0  0  0  0  0  0  0
  150.6852  141.4108  159.2728 H   0  0  0  0  0  0  0  0  0  0  0  0
  152.8437  140.6655  160.7926 H   0  0  0  0  0  0  0  0  0  0  0  0
  154.2120  141.1047  159.8203 H   0  0  0  0  0  0  0  0  0  0  0  0
  153.7950  144.3720  159.3731 H   0  0  0  0  0  0  0  0  0  0  0  0
  153.8724  143.0509  158.2813 H   0  0  0  0  0  0  0  0  0  0  0  0
  152.2929  145.0679  157.7227 H   0  0  0  0  0  0  0  0  0  0  0  0
  151.7810  143.4508  157.3482 H   0  0  0  0  0  0  0  0  0  0  0  0
  149.9618  144.8192  158.3302 H   0  0  0  0  0  0  0  0  0  0  0  0
  150.2484  143.3465  159.1910 H   0  0  0  0  0  0  0  0  0  0  0  0
  151.0589  146.1626  160.0333 H   0  0  0  0  0  0  0  0  0  0  0  0
  149.8609  145.1479  160.7741 H   0  0  0  0  0  0  0  0  0  0  0  0
  152.8194  145.1780  161.1717 H   0  0  0  0  0  0  0  0  0  0  0  0
  151.5572  144.8508  162.3026 H   0  0  0  0  0  0  0  0  0  0  0  0
  148.9729  138.2240  152.7835 H   0  0  0  0  0  0  0  0  0  0  0  0
  1  2  1  0  0  0  0
  1 21  1  0  0  0  0
  1 22  1  0  0  0  0
  1 23  1  0  0  0  0
  2  3  1  0  0  0  0
  2  9  1  0  0  0  0
  2 24  1  0  0  0  0
  3  4  1  0  0  0  0
  3 25  1  0  0  0  0
  3 26  1  0  0  0  0
  4  8  1  0  0  0  0
  4  5  1  0  0  0  0
  5  6  2  0  0  0  0
  5 27  1  0  0  0  0
  6  7  1  0  0  0  0
  6 28  1  0  0  0  0
  7  8  2  0  0  0  0
  7 43  1  0  0  0  0
  8 29  1  0  0  0  0
  9 10  1  0  0  0  0
  9 30  1  0  0  0  0
 10 11  2  0  0  0  0
 10 12  1  0  0  0  0
 12 13  1  0  0  0  0
 12 31  1  0  0  0  0
 12 32  1  0  0  0  0
 13 19  1  0  0  0  0
 13 14  1  0  0  0  0
 14 15  1  0  0  0  0
 14 33  1  0  0  0  0
 14 34  1  0  0  0  0
 15 16  1  0  0  0  0
 15 35  1  0  0  0  0
 15 36  1  0  0  0  0
 16 17  1  0  0  0  0
 16 37  1  0  0  0  0
 16 38  1  0  0  0  0
 17 18  1  0  0  0  0
 17 39  1  0  0  0  0
 17 40  1  0  0  0  0
 18 19  1  0  0  0  0
 18 41  1  0  0  0  0
 18 42  1  0  0  0  0
 19 20  2  0  0  0  0
M  CHG  1   7   1
M  END
> <s_m_source_file>
AV-unprocessed.smi

> <i_m_source_file_index>
1216

> <i_lp_mmshare_version>
43012

> <i_f3d_flags>
0

> <s_epik_input>
W2NIXTFuW2NIXVtjSF1uMVtDSDJdW0NAQEhdKFtDSDNdKVtOSF1DKD1PKVtDSDJdTjJbQ0gyXVtDSDJdW0NIMl1bQ0gyXVtDSDJdQzI9Tw==

> <s_epik_cmdline>
J2VwaWtfcHl0aG9uJywgJy1waCcsICc3LjAnLCAnLXRuJywgJzgnLCAnLW1hJywgJzIwMCcsICctbWV0YWxfYmluZGluZycsICctaW1hZScsICc8aW5maWxlLm1hZT4nLCAnLW9tYWUnLCAnPG91dGZpbGUubWFlPic=

> <r_lp_tautomer_probability>
1

> <r_epik_Ionization_Penalty>
0.254232

> <r_epik_Ionization_Penalty_Charging>
0

> <r_epik_Ionization_Penalty_Neutral>
0.254232

> <r_epik_State_Penalty>
0.245698

> <r_epik_Charging_Adjusted_Penalty>
0.245698

> <i_epik_Tot_Q>
1

> <i_epik_Tot_abs_Q>
1

> <r_epik_Metal_State_Penalty>
0.535799

> <b_epik_Metal_Only>
0

> <s_lp_Force_Field>
OPLS_2005

> <r_lp_Energy>
19.3608

> <b_lp_Chiralities_Consistent>
1

> <s_lp_Variant>
AV-unprocessed.smi:1216-1

> <Gold.Version>
5.8.1

> <Gold.Id.Protein>
6NUR|6NUR_protein|mol2

> <Gold.PLP.Fitness>
57.5192

> <Gold.PLP.PLP>
-46.7955

> <Gold.PLP.part.hbond>
-4.0000

> <Gold.PLP.part.metal>
0.0000

> <Gold.PLP.part.buried>
-1.1093

> <Gold.PLP.part.nonpolar>
-43.1255

> <Gold.PLP.part.repulsive>
0.8939

> <Gold.PLP.ligand.clash>
0.0000

> <Gold.PLP.ligand.torsion>
0.5176

> <Gold.PLP.Chemscore.Hbond>
3.9040

> <Gold.PLP.Chemscore.CHOScore>
0.0000

> <Gold.PLP.Chemscore.Metal>
0.0000

> <Gold.Chemscore.Hbonds>
donor molecule, donor type, donor heavy atom, donor atom, acceptor molecule, acceptor atom, score
      L1  H     7    43       P1  7948  1.33
      P1  H  6933  6945       L1    20  0.98
      P1  H  7997  8009       L1    11  1.00

> <Gold.PLP.Chemscore.Internal.Correction>
0.0468

> <Gold.Rescore>
     Score         DG    S(hbond)    S(metal)    S(lipo)     H(rot)  DE(clash)    DE(int)     intcor
     17.09     -20.42       2.82        0.00      95.72       2.22       1.51       1.82       ----

> <Gold.Chemscore.Fitness>
17.0852

> <Gold.Chemscore.DG>
-20.4182

> <Gold.Chemscore.ZeroCoef>
-5.4800

> <Gold.Chemscore.Hbond>
2.8179

> <Gold.Chemscore.Metal>
0.0000

> <Gold.Chemscore.Lipo>
95.7236

> <Gold.Chemscore.Internal_Hbond>
0.0000

> <Gold.Chemscore.DEClash>
1.5109

> <Gold.Chemscore.DEInternal>
1.8221

> <Gold.Chemscore.Rot>
2.2161

> <Gold.Chemscore.Internal.Correction>
   9.000000E+99

> <Gold.Chemscore.Hbonds>
donor molecule, donor type, donor heavy atom, donor atom, acceptor molecule, acceptor atom, score
      L1  H     7    43       P1  7948  0.66
      P1  H  6933  6945       L1    20  0.89
      P1  H  7997  8009       L1    11  0.99

> <Gold.Chemscore.Hbond.Weighted>
-9.4118

> <Gold.Chemscore.Metal.Weighted>
-0.0000

> <Gold.Chemscore.Lipo.Weighted>
-11.1997

> <Gold.Chemscore.Internal_Hbond.Weighted>
0.0000

> <Gold.Chemscore.DEClash.Weighted>
1.5109

> <Gold.Chemscore.DEInternal.Weighted>
1.8221

> <Gold.Chemscore.Rot.Weighted>
5.6733

> <Gold.Chemscore.Internal.Correction.Weighted>
   9.000000E+99

> <Gold.Protein.RotatedTorsions>
[ 6907 6896 6895 6894 ] final   99.97 input  -60.11 | X-H torsion
[ 7974 7965 7964 7962 ] final  178.82 input  175.53 | X-H torsion
[ 8008 7997 7996 7995 ] final  161.11 input   59.86 | X-H torsion
[ 10167 10162 10161 10158 ] final -143.29 input  -65.29 | X-H torsion
[ 10718 10713 10712 10709 ] final    8.99 input   66.30 | X-H torsion
[ 10763 10752 10751 10750 ] final  160.28 input  -60.55 | X-H torsion
[ 11005 11000 10999 10996 ] final -140.73 input  -57.11 | X-H torsion

> <Gold.Protein.ActiveResidues>
 VAL166  LYS551  ARG553  GLY616  TRP617  ASP618  TYR619  PRO620  LYS621  CYS622 
 ASP623  PHE694  ASN695  SER759  ASP760  ASP761  ALA762  ILE779  LEU786  VAL792 
 PHE793  MET794  SER795  GLU796  ALA797  LYS798  CYS799  TRP800  GLU811  SER814 

> <Gold.Protein.RotatedAtoms>
  152.5381  134.0347  159.8040 H   0  0  0  0  0  0  0  0  0  0  0  0  # atno 6907 bound_to 6896
  151.0512  133.5614  159.2649 H   0  0  0  0  0  0  0  0  0  0  0  0  # atno 6908 bound_to 6896
  151.2548  135.0642  159.9129 H   0  0  0  0  0  0  0  0  0  0  0  0  # atno 6909 bound_to 6896
  144.7152  140.0455  143.6436 H   0  0  0  0  0  0  0  0  0  0  0  0  # atno 7974 bound_to 7965
  156.2126  140.1786  156.7661 H   0  0  0  0  0  0  0  0  0  0  0  0  # atno 8008 bound_to 7997
  154.5744  140.0677  156.9042 H   0  0  0  0  0  0  0  0  0  0  0  0  # atno 8009 bound_to 7997
  155.2614  140.3336  155.4275 H   0  0  0  0  0  0  0  0  0  0  0  0  # atno 8010 bound_to 7997
  139.8007  143.7837  152.2658 H   0  0  0  0  0  0  0  0  0  0  0  0  # atno 10167 bound_to 10162
  156.9598  130.5928  149.5661 H   0  0  0  0  0  0  0  0  0  0  0  0  # atno 10718 bound_to 10713
  154.2449  135.2773  155.2839 H   0  0  0  0  0  0  0  0  0  0  0  0  # atno 10763 bound_to 10752
  154.5514  135.5674  153.6929 H   0  0  0  0  0  0  0  0  0  0  0  0  # atno 10764 bound_to 10752
  152.9992  135.6275  154.2594 H   0  0  0  0  0  0  0  0  0  0  0  0  # atno 10765 bound_to 10752
  140.8394  134.2420  157.4818 H   0  0  0  0  0  0  0  0  0  0  0  0  # atno 11005 bound_to 11000
  145.9988  139.3074  143.0940 LP  0  0  0  0  0  0  0  0  0  0  0  0  # atno 17320 bound_to 7965
  145.8818  140.9358  143.0597 LP  0  0  0  0  0  0  0  0  0  0  0  0  # atno 17321 bound_to 7965
  139.7957  144.7393  150.9894 LP  0  0  0  0  0  0  0  0  0  0  0  0  # atno 17342 bound_to 10162
  140.7820  143.4397  151.0571 LP  0  0  0  0  0  0  0  0  0  0  0  0  # atno 17343 bound_to 10162
  156.0327  130.5417  150.8576 LP  0  0  0  0  0  0  0  0  0  0  0  0  # atno 17370 bound_to 10713
  157.5666  131.0946  150.9481 LP  0  0  0  0  0  0  0  0  0  0  0  0  # atno 17371 bound_to 10713
  139.8703  134.9627  156.4439 LP  0  0  0  0  0  0  0  0  0  0  0  0  # atno 17394 bound_to 11000
  140.8912  133.7847  155.9573 LP  0  0  0  0  0  0  0  0  0  0  0  0  # atno 17395 bound_to 11000

$$$$
