AV-unprocessed.smi:3056|AV-procd|sdf|11650|dock7
  -GOLD-   2272017 43D 1   1.00000     0.00000
 Structure written by MMmdl.
 48 49  0  0  0  0  0  0  0  0  2 V2000
  147.1250  141.8021  154.4135 C   0  0  0  0  0  0  0  0  0  0  0  0
  148.3962  141.0124  154.5352 C   0  0  0  0  0  0  0  0  0  0  0  0
  149.6774  141.4745  154.9490 C   0  0  0  0  0  0  0  0  0  0  0  0
  150.5957  140.5223  154.9363 N   0  0  0  0  0  0  0  0  0  0  0  0
  149.9348  139.4156  154.5316 N   0  0  0  0  0  0  0  0  0  0  0  0
  150.6627  138.1626  154.3672 C   0  0  1  0  0  0  0  0  0  0  0  0
  152.1623  138.3930  154.6367 C   0  0  0  0  0  0  0  0  0  0  0  0
  150.0438  137.0311  155.2341 C   0  0  2  0  0  0  0  0  0  0  0  0
  151.0089  135.8499  155.4334 C   0  0  0  0  0  0  0  0  0  0  0  0
  148.7974  136.5125  154.6167 N   0  3  0  0  0  0  0  0  0  0  0  0
  148.2457  135.2695  155.2065 C   0  0  0  0  0  0  0  0  0  0  0  0
  147.2737  134.5239  154.2766 C   0  0  0  0  0  0  0  0  0  0  0  0
  146.0806  134.8316  154.2918 O   0  0  0  0  0  0  0  0  0  0  0  0
  147.7569  133.5444  153.4758 N   0  0  0  0  0  0  0  0  0  0  0  0
  149.1412  133.0631  153.4388 C   0  0  0  0  0  0  0  0  0  0  0  0
  149.1565  131.6132  153.9535 C   0  0  0  0  0  0  0  0  0  0  0  0
  148.2891  130.8115  153.1545 O   0  0  0  0  0  0  0  0  0  0  0  0
  146.9385  131.2732  153.1393 C   0  0  2  0  0  0  0  0  0  0  0  0
  146.1139  130.3186  152.2692 C   0  0  0  0  0  0  0  0  0  0  0  0
  146.9069  132.7218  152.6108 C   0  0  0  0  0  0  0  0  0  0  0  0
  148.6058  139.6883  154.2727 C   0  0  0  0  0  0  0  0  0  0  0  0
  147.2077  142.7799  154.8887 H   0  0  0  0  0  0  0  0  0  0  0  0
  146.2853  141.2885  154.8820 H   0  0  0  0  0  0  0  0  0  0  0  0
  146.8569  141.9736  153.3709 H   0  0  0  0  0  0  0  0  0  0  0  0
  149.9672  142.4707  155.2501 H   0  0  0  0  0  0  0  0  0  0  0  0
  150.5739  137.8710  153.3188 H   0  0  0  0  0  0  0  0  0  0  0  0
  152.7624  137.5358  154.3330 H   0  0  0  0  0  0  0  0  0  0  0  0
  152.3579  138.5790  155.6931 H   0  0  0  0  0  0  0  0  0  0  0  0
  152.5328  139.2507  154.0739 H   0  0  0  0  0  0  0  0  0  0  0  0
  149.8127  137.4293  156.2237 H   0  0  0  0  0  0  0  0  0  0  0  0
  151.8940  136.1410  155.9986 H   0  0  0  0  0  0  0  0  0  0  0  0
  151.3391  135.4395  154.4784 H   0  0  0  0  0  0  0  0  0  0  0  0
  150.5313  135.0443  155.9921 H   0  0  0  0  0  0  0  0  0  0  0  0
  148.0979  137.2383  154.6835 H   0  0  0  0  0  0  0  0  0  0  0  0
  149.0545  134.6076  155.5127 H   0  0  0  0  0  0  0  0  0  0  0  0
  147.7023  135.5552  156.1076 H   0  0  0  0  0  0  0  0  0  0  0  0
  149.5065  133.0980  152.4112 H   0  0  0  0  0  0  0  0  0  0  0  0
  149.8371  133.6655  154.0201 H   0  0  0  0  0  0  0  0  0  0  0  0
  150.1651  131.2033  153.8995 H   0  0  0  0  0  0  0  0  0  0  0  0
  148.8480  131.5688  154.9992 H   0  0  0  0  0  0  0  0  0  0  0  0
  146.5436  131.2458  154.1565 H   0  0  0  0  0  0  0  0  0  0  0  0
  145.0688  130.6269  152.2303 H   0  0  0  0  0  0  0  0  0  0  0  0
  146.1459  129.3038  152.6663 H   0  0  0  0  0  0  0  0  0  0  0  0
  146.4930  130.2887  151.2473 H   0  0  0  0  0  0  0  0  0  0  0  0
  145.8772  133.0792  152.5661 H   0  0  0  0  0  0  0  0  0  0  0  0
  147.2841  132.7624  151.5876 H   0  0  0  0  0  0  0  0  0  0  0  0
  147.9245  138.9274  153.9212 H   0  0  0  0  0  0  0  0  0  0  0  0
  148.9766  136.3293  153.6397 H   0  0  0  0  0  0  0  0  0  0  0  0
  1  2  1  0  0  0  0
  1 22  1  0  0  0  0
  1 23  1  0  0  0  0
  1 24  1  0  0  0  0
  2 21  2  0  0  0  0
  2  3  1  0  0  0  0
  3  4  2  0  0  0  0
  3 25  1  0  0  0  0
  4  5  1  0  0  0  0
  5  6  1  0  0  0  0
  5 21  1  0  0  0  0
  6  7  1  0  0  0  0
  6  8  1  0  0  0  0
  6 26  1  0  0  0  0
  7 27  1  0  0  0  0
  7 28  1  0  0  0  0
  7 29  1  0  0  0  0
  8  9  1  0  0  0  0
  8 10  1  0  0  0  0
  8 30  1  0  0  0  0
  9 31  1  0  0  0  0
  9 32  1  0  0  0  0
  9 33  1  0  0  0  0
 10 11  1  0  0  0  0
 10 34  1  0  0  0  0
 10 48  1  0  0  0  0
 11 12  1  0  0  0  0
 11 35  1  0  0  0  0
 11 36  1  0  0  0  0
 12 13  2  0  0  0  0
 12 14  1  0  0  0  0
 14 20  1  0  0  0  0
 14 15  1  0  0  0  0
 15 16  1  0  0  0  0
 15 37  1  0  0  0  0
 15 38  1  0  0  0  0
 16 17  1  0  0  0  0
 16 39  1  0  0  0  0
 16 40  1  0  0  0  0
 17 18  1  0  0  0  0
 18 19  1  0  0  0  0
 18 20  1  0  0  0  0
 18 41  1  0  0  0  0
 19 42  1  0  0  0  0
 19 43  1  0  0  0  0
 19 44  1  0  0  0  0
 20 45  1  0  0  0  0
 20 46  1  0  0  0  0
 21 47  1  0  0  0  0
M  CHG  1  10   1
M  END
> <s_m_source_file>
AV-unprocessed.smi

> <i_m_source_file_index>
3056

> <i_lp_mmshare_version>
43012

> <i_f3d_flags>
0

> <s_epik_input>
W0NIM11jMVtjSF1ubihbY0hdMSlbQ0BIXShbQ0gzXSlbQ0BIXShbQ0gzXSlbTkhdW0NIMl1DKD1PKU4yW0NIMl1bQ0gyXU9bQ0BASF0oW0NIM10pW0NIMl0y

> <s_epik_cmdline>
J2VwaWtfcHl0aG9uJywgJy1waCcsICc3LjAnLCAnLXRuJywgJzgnLCAnLW1hJywgJzIwMCcsICctbWV0YWxfYmluZGluZycsICctaW1hZScsICc8aW5maWxlLm1hZT4nLCAnLW9tYWUnLCAnPG91dGZpbGUubWFlPic=

> <r_lp_tautomer_probability>
1

> <r_epik_Ionization_Penalty>
0.233715

> <r_epik_Ionization_Penalty_Charging>
0.233698

> <r_epik_Ionization_Penalty_Neutral>
1.68157e-05

> <r_epik_State_Penalty>
0.225221

> <r_epik_Charging_Adjusted_Penalty>
0.458919

> <i_epik_Tot_Q>
1

> <i_epik_Tot_abs_Q>
1

> <r_epik_Metal_State_Penalty>
0.225535

> <b_epik_Metal_Only>
0

> <s_lp_Force_Field>
OPLS_2005

> <r_lp_Energy>
28.2676

> <b_lp_Chiralities_Consistent>
1

> <s_lp_Variant>
AV-unprocessed.smi:3056-6

> <Gold.Version>
5.8.1

> <Gold.Id.Protein>
6NUR|6NUR_protein|mol2

> <Gold.PLP.Fitness>
49.7957

> <Gold.PLP.PLP>
-39.5854

> <Gold.PLP.part.hbond>
-2.0000

> <Gold.PLP.part.metal>
0.0000

> <Gold.PLP.part.buried>
-3.4353

> <Gold.PLP.part.nonpolar>
-34.9368

> <Gold.PLP.part.repulsive>
1.0614

> <Gold.PLP.ligand.clash>
0.0000

> <Gold.PLP.ligand.torsion>
0.9328

> <Gold.PLP.Chemscore.Hbond>
2.9920

> <Gold.PLP.Chemscore.CHOScore>
1.0000

> <Gold.PLP.Chemscore.Metal>
0.0000

> <Gold.Chemscore.Hbonds>
donor molecule, donor type, donor heavy atom, donor atom, acceptor molecule, acceptor atom, score
      L1  H    10    48       P1  7948  2.00
      P1  H  7989  7998       L1     4  1.00
      L1  C     3    25       P1  8028  1.00

> <Gold.PLP.Chemscore.Internal.Correction>
0.0998

> <Gold.Rescore>
     Score         DG    S(hbond)    S(metal)    S(lipo)     H(rot)  DE(clash)    DE(int)     intcor
     16.13     -17.22       1.81        0.00      86.80       1.74       0.14       0.96       ----

> <Gold.Chemscore.Fitness>
16.1252

> <Gold.Chemscore.DG>
-17.2243

> <Gold.Chemscore.ZeroCoef>
-5.4800

> <Gold.Chemscore.Hbond>
1.8057

> <Gold.Chemscore.Metal>
0.0000

> <Gold.Chemscore.Lipo>
86.8018

> <Gold.Chemscore.Internal_Hbond>
0.0000

> <Gold.Chemscore.DEClash>
0.1401

> <Gold.Chemscore.DEInternal>
0.9590

> <Gold.Chemscore.Rot>
1.7354

> <Gold.Chemscore.Internal.Correction>
   9.000000E+99

> <Gold.Chemscore.Hbonds>
donor molecule, donor type, donor heavy atom, donor atom, acceptor molecule, acceptor atom, score
      L1  H    10    48       P1  7948  0.99
      P1  H  7989  7998       L1     4  0.16

> <Gold.Chemscore.Hbond.Weighted>
-6.0311

> <Gold.Chemscore.Metal.Weighted>
-0.0000

> <Gold.Chemscore.Lipo.Weighted>
-10.1558

> <Gold.Chemscore.Internal_Hbond.Weighted>
0.0000

> <Gold.Chemscore.DEClash.Weighted>
0.1401

> <Gold.Chemscore.DEInternal.Weighted>
0.9590

> <Gold.Chemscore.Rot.Weighted>
4.4426

> <Gold.Chemscore.Internal.Correction.Weighted>
   9.000000E+99

> <Gold.Protein.RotatedTorsions>
[ 6907 6896 6895 6894 ] final   82.36 input  -60.11 | X-H torsion
[ 7974 7965 7964 7962 ] final -161.81 input  175.53 | X-H torsion
[ 8008 7997 7996 7995 ] final -176.78 input   59.86 | X-H torsion
[ 10167 10162 10161 10158 ] final -144.35 input  -65.29 | X-H torsion
[ 10718 10713 10712 10709 ] final  142.13 input   66.30 | X-H torsion
[ 10763 10752 10751 10750 ] final -176.49 input  -60.55 | X-H torsion
[ 11005 11000 10999 10996 ] final -158.41 input  -57.11 | X-H torsion

> <Gold.Protein.ActiveResidues>
 VAL166  LYS551  ARG553  GLY616  TRP617  ASP618  TYR619  PRO620  LYS621  CYS622 
 ASP623  PHE694  ASN695  SER759  ASP760  ASP761  ALA762  ILE779  LEU786  VAL792 
 PHE793  MET794  SER795  GLU796  ALA797  LYS798  CYS799  TRP800  GLU811  SER814 

> <Gold.Protein.RotatedAtoms>
  152.5297  134.3062  159.9096 H   0  0  0  0  0  0  0  0  0  0  0  0  # atno 6907 bound_to 6896
  151.3012  133.4115  159.2647 H   0  0  0  0  0  0  0  0  0  0  0  0  # atno 6908 bound_to 6896
  151.0118  134.9418  159.8068 H   0  0  0  0  0  0  0  0  0  0  0  0  # atno 6909 bound_to 6896
  144.7378  140.3344  143.6147 H   0  0  0  0  0  0  0  0  0  0  0  0  # atno 7974 bound_to 7965
  155.9990  140.1216  157.0565 H   0  0  0  0  0  0  0  0  0  0  0  0  # atno 8008 bound_to 7997
  154.4236  140.1110  156.5739 H   0  0  0  0  0  0  0  0  0  0  0  0  # atno 8009 bound_to 7997
  155.6238  140.3472  155.4663 H   0  0  0  0  0  0  0  0  0  0  0  0  # atno 8010 bound_to 7997
  139.7907  143.7969  152.2649 H   0  0  0  0  0  0  0  0  0  0  0  0  # atno 10167 bound_to 10162
  157.3840  131.0996  151.0711 H   0  0  0  0  0  0  0  0  0  0  0  0  # atno 10718 bound_to 10713
  154.5717  135.2828  155.0820 H   0  0  0  0  0  0  0  0  0  0  0  0  # atno 10763 bound_to 10752
  154.2190  135.6394  153.5142 H   0  0  0  0  0  0  0  0  0  0  0  0  # atno 10764 bound_to 10752
  153.0060  135.5510  154.6343 H   0  0  0  0  0  0  0  0  0  0  0  0  # atno 10765 bound_to 10752
  140.6539  134.4421  157.5235 H   0  0  0  0  0  0  0  0  0  0  0  0  # atno 11005 bound_to 11000
  145.7439  139.1772  143.2360 LP  0  0  0  0  0  0  0  0  0  0  0  0  # atno 17320 bound_to 7965
  146.1113  140.7424  142.9502 LP  0  0  0  0  0  0  0  0  0  0  0  0  # atno 17321 bound_to 7965
  139.8060  144.7355  150.9761 LP  0  0  0  0  0  0  0  0  0  0  0  0  # atno 17342 bound_to 10162
  140.7820  143.4297  151.0713 LP  0  0  0  0  0  0  0  0  0  0  0  0  # atno 17343 bound_to 10162
  157.1769  130.6292  149.5659 LP  0  0  0  0  0  0  0  0  0  0  0  0  # atno 17370 bound_to 10713
  155.9782  130.4766  150.6643 LP  0  0  0  0  0  0  0  0  0  0  0  0  # atno 17371 bound_to 10713
  139.9036  134.8500  156.1795 LP  0  0  0  0  0  0  0  0  0  0  0  0  # atno 17394 bound_to 11000
  141.0516  133.6886  156.1782 LP  0  0  0  0  0  0  0  0  0  0  0  0  # atno 17395 bound_to 11000

$$$$
