AV-unprocessed.smi:2473|AV-procd|sdf|9745|dock2
  -GOLD-   2272013383D 1   1.00000     0.00000
 Structure written by MMmdl.
 48 49  0  0  0  0  0  0  0  0  2 V2000
  153.7509  141.3239  160.8937 C   0  0  0  0  0  0  0  0  0  0  0  0
  152.6173  141.8562  160.0051 C   0  0  2  0  0  0  0  0  0  0  0  0
  152.4615  141.0067  158.7312 C   0  0  0  0  0  0  0  0  0  0  0  0
  151.3210  141.5353  157.8395 C   0  0  2  0  0  0  0  0  0  0  0  0
  151.1707  140.6977  156.5630 C   0  0  0  0  0  0  0  0  0  0  0  0
  152.0266  139.8679  156.2549 O   0  0  0  0  0  0  0  0  0  0  0  0
  150.0877  140.9472  155.8120 N   0  0  0  0  0  0  0  0  0  0  0  0
  149.8016  140.3330  154.5191 C   0  0  0  0  0  0  0  0  0  0  0  0
  148.5049  140.8666  153.8764 C   0  0  0  0  0  0  0  0  0  0  0  0
  147.7358  139.8329  153.1050 C   0  0  0  0  0  0  0  0  0  0  0  0
  147.7846  139.6712  151.7773 N   0  3  0  0  0  0  0  0  0  0  0  0
  146.9784  138.6357  151.3910 C   0  0  0  0  0  0  0  0  0  0  0  0
  146.4068  138.1437  152.5346 C   0  0  0  0  0  0  0  0  0  0  0  0
  146.8877  138.8999  153.5729 N   0  0  0  0  0  0  0  0  0  0  0  0
  146.5456  138.7430  154.9882 C   0  0  0  0  0  0  0  0  0  0  0  0
  151.5646  143.0177  157.4809 C   0  0  0  0  0  0  0  0  0  0  0  0
  151.7467  143.9309  158.7176 C   0  0  0  0  0  0  0  0  0  0  0  0
  152.1987  145.3250  158.2407 C   0  0  0  0  0  0  0  0  0  0  0  0
  150.4132  144.1037  159.4779 C   0  0  0  0  0  0  0  0  0  0  0  0
  152.8415  143.3392  159.6406 C   0  0  0  0  0  0  0  0  0  0  0  0
  154.7112  141.3639  160.3788 H   0  0  0  0  0  0  0  0  0  0  0  0
  153.5708  140.2879  161.1817 H   0  0  0  0  0  0  0  0  0  0  0  0
  153.8399  141.9088  161.8096 H   0  0  0  0  0  0  0  0  0  0  0  0
  151.6959  141.7753  160.5818 H   0  0  0  0  0  0  0  0  0  0  0  0
  153.4033  141.0095  158.1793 H   0  0  0  0  0  0  0  0  0  0  0  0
  152.2674  139.9682  159.0040 H   0  0  0  0  0  0  0  0  0  0  0  0
  150.3889  141.4544  158.4002 H   0  0  0  0  0  0  0  0  0  0  0  0
  149.4295  141.6359  156.1472 H   0  0  0  0  0  0  0  0  0  0  0  0
  150.6463  140.4634  153.8412 H   0  0  0  0  0  0  0  0  0  0  0  0
  149.7055  139.2601  154.6881 H   0  0  0  0  0  0  0  0  0  0  0  0
  147.8459  141.2823  154.6380 H   0  0  0  0  0  0  0  0  0  0  0  0
  148.7296  141.6760  153.1815 H   0  0  0  0  0  0  0  0  0  0  0  0
  146.8738  138.3358  150.3584 H   0  0  0  0  0  0  0  0  0  0  0  0
  145.7085  137.3323  152.6819 H   0  0  0  0  0  0  0  0  0  0  0  0
  145.8879  137.8823  155.1122 H   0  0  0  0  0  0  0  0  0  0  0  0
  146.0356  139.6411  155.3377 H   0  0  0  0  0  0  0  0  0  0  0  0
  147.4537  138.5844  155.5689 H   0  0  0  0  0  0  0  0  0  0  0  0
  152.4563  143.0868  156.8551 H   0  0  0  0  0  0  0  0  0  0  0  0
  150.7420  143.3908  156.8684 H   0  0  0  0  0  0  0  0  0  0  0  0
  152.3470  146.0038  159.0811 H   0  0  0  0  0  0  0  0  0  0  0  0
  151.4596  145.7778  157.5788 H   0  0  0  0  0  0  0  0  0  0  0  0
  153.1403  145.2751  157.6924 H   0  0  0  0  0  0  0  0  0  0  0  0
  150.5321  144.7666  160.3355 H   0  0  0  0  0  0  0  0  0  0  0  0
  150.0178  143.1619  159.8548 H   0  0  0  0  0  0  0  0  0  0  0  0
  149.6476  144.5391  158.8349 H   0  0  0  0  0  0  0  0  0  0  0  0
  152.9163  143.9341  160.5520 H   0  0  0  0  0  0  0  0  0  0  0  0
  153.8109  143.4292  159.1474 H   0  0  0  0  0  0  0  0  0  0  0  0
  148.3420  140.2367  151.1494 H   0  0  0  0  0  0  0  0  0  0  0  0
  1  2  1  0  0  0  0
  1 21  1  0  0  0  0
  1 22  1  0  0  0  0
  1 23  1  0  0  0  0
  2 20  1  0  0  0  0
  2  3  1  0  0  0  0
  2 24  1  0  0  0  0
  3  4  1  0  0  0  0
  3 25  1  0  0  0  0
  3 26  1  0  0  0  0
  4  5  1  0  0  0  0
  4 16  1  0  0  0  0
  4 27  1  0  0  0  0
  5  6  2  0  0  0  0
  5  7  1  0  0  0  0
  7  8  1  0  0  0  0
  7 28  1  0  0  0  0
  8  9  1  0  0  0  0
  8 29  1  0  0  0  0
  8 30  1  0  0  0  0
  9 10  1  0  0  0  0
  9 31  1  0  0  0  0
  9 32  1  0  0  0  0
 10 14  1  0  0  0  0
 10 11  2  0  0  0  0
 11 12  1  0  0  0  0
 11 48  1  0  0  0  0
 12 13  2  0  0  0  0
 12 33  1  0  0  0  0
 13 14  1  0  0  0  0
 13 34  1  0  0  0  0
 14 15  1  0  0  0  0
 15 35  1  0  0  0  0
 15 36  1  0  0  0  0
 15 37  1  0  0  0  0
 16 17  1  0  0  0  0
 16 38  1  0  0  0  0
 16 39  1  0  0  0  0
 17 18  1  0  0  0  0
 17 19  1  0  0  0  0
 17 20  1  0  0  0  0
 18 40  1  0  0  0  0
 18 41  1  0  0  0  0
 18 42  1  0  0  0  0
 19 43  1  0  0  0  0
 19 44  1  0  0  0  0
 19 45  1  0  0  0  0
 20 46  1  0  0  0  0
 20 47  1  0  0  0  0
M  CHG  1  11   1
M  END
> <s_m_source_file>
AV-unprocessed.smi

> <i_m_source_file_index>
2473

> <i_lp_mmshare_version>
43012

> <i_f3d_flags>
0

> <s_epik_input>
W0NIM11bQ0BASF0oW0NIMl0xKVtDSDJdW0NASF0oW0NIMl1DMShbQ0gzXSlbQ0gzXSlDKD1PKVtOSF1bQ0gyXVtDSDJdYzJuW2NIXVtjSF1uMltDSDNd

> <s_epik_cmdline>
J2VwaWtfcHl0aG9uJywgJy1waCcsICc3LjAnLCAnLXRuJywgJzgnLCAnLW1hJywgJzIwMCcsICctbWV0YWxfYmluZGluZycsICctaW1hZScsICc8aW5maWxlLm1hZT4nLCAnLW9tYWUnLCAnPG91dGZpbGUubWFlPic=

> <r_lp_tautomer_probability>
1

> <r_epik_Ionization_Penalty>
0.0796112

> <r_epik_Ionization_Penalty_Charging>
0

> <r_epik_Ionization_Penalty_Neutral>
0.0796112

> <r_epik_State_Penalty>
0.0704541

> <r_epik_Charging_Adjusted_Penalty>
0.0704541

> <i_epik_Tot_Q>
1

> <i_epik_Tot_abs_Q>
1

> <r_epik_Metal_State_Penalty>
0.409899

> <b_epik_Metal_Only>
0

> <s_lp_Force_Field>
OPLS_2005

> <r_lp_Energy>
16.1806

> <b_lp_Chiralities_Consistent>
1

> <s_lp_Variant>
AV-unprocessed.smi:2473-3

> <Gold.Version>
5.8.1

> <Gold.Id.Protein>
6NUR|6NUR_protein|mol2

> <Gold.PLP.Fitness>
43.7035

> <Gold.PLP.PLP>
-43.1052

> <Gold.PLP.part.hbond>
-0.6768

> <Gold.PLP.part.metal>
0.0000

> <Gold.PLP.part.buried>
-6.5758

> <Gold.PLP.part.nonpolar>
-36.9004

> <Gold.PLP.part.repulsive>
0.1643

> <Gold.PLP.ligand.clash>
0.0000

> <Gold.PLP.ligand.torsion>
0.6962

> <Gold.PLP.Chemscore.Hbond>
0.6560

> <Gold.PLP.Chemscore.CHOScore>
0.0000

> <Gold.PLP.Chemscore.Metal>
0.0000

> <Gold.Chemscore.Hbonds>
donor molecule, donor type, donor heavy atom, donor atom, acceptor molecule, acceptor atom, score
      L1  H    11    48       P1  7957  0.09

> <Gold.PLP.Chemscore.Internal.Correction>
0.0228

> <Gold.Rescore>
     Score         DG    S(hbond)    S(metal)    S(lipo)     H(rot)  DE(clash)    DE(int)     intcor
     16.75     -19.39       0.99        0.00     125.22       1.58       1.80       0.84       ----

> <Gold.Chemscore.Fitness>
16.7450

> <Gold.Chemscore.DG>
-19.3912

> <Gold.Chemscore.ZeroCoef>
-5.4800

> <Gold.Chemscore.Hbond>
0.9908

> <Gold.Chemscore.Metal>
0.0000

> <Gold.Chemscore.Lipo>
125.2243

> <Gold.Chemscore.Internal_Hbond>
0.0000

> <Gold.Chemscore.DEClash>
1.8030

> <Gold.Chemscore.DEInternal>
0.8432

> <Gold.Chemscore.Rot>
1.5818

> <Gold.Chemscore.Internal.Correction>
   9.000000E+99

> <Gold.Chemscore.Hbonds>
donor molecule, donor type, donor heavy atom, donor atom, acceptor molecule, acceptor atom, score
      L1  H    11    48       P1  7957  0.09
      P1  H  7997  8008       L1     6  0.02

> <Gold.Chemscore.Hbond.Weighted>
-3.3094

> <Gold.Chemscore.Metal.Weighted>
-0.0000

> <Gold.Chemscore.Lipo.Weighted>
-14.6512

> <Gold.Chemscore.Internal_Hbond.Weighted>
0.0000

> <Gold.Chemscore.DEClash.Weighted>
1.8030

> <Gold.Chemscore.DEInternal.Weighted>
0.8432

> <Gold.Chemscore.Rot.Weighted>
4.0495

> <Gold.Chemscore.Internal.Correction.Weighted>
   9.000000E+99

> <Gold.Protein.RotatedTorsions>
[ 6907 6896 6895 6894 ] final -135.46 input  -60.11 | X-H torsion
[ 7974 7965 7964 7962 ] final  172.75 input  175.53 | X-H torsion
[ 8008 7997 7996 7995 ] final  -72.33 input   59.86 | X-H torsion
[ 10167 10162 10161 10158 ] final   62.55 input  -65.29 | X-H torsion
[ 10718 10713 10712 10709 ] final -126.19 input   66.30 | X-H torsion
[ 10763 10752 10751 10750 ] final  128.98 input  -60.55 | X-H torsion
[ 11005 11000 10999 10996 ] final   68.43 input  -57.11 | X-H torsion

> <Gold.Protein.ActiveResidues>
 VAL166  LYS551  ARG553  GLY616  TRP617  ASP618  TYR619  PRO620  LYS621  CYS622 
 ASP623  PHE694  ASN695  SER759  ASP760  ASP761  ALA762  ILE779  LEU786  VAL792 
 PHE793  MET794  SER795  GLU796  ALA797  LYS798  CYS799  TRP800  GLU811  SER814 

> <Gold.Protein.RotatedAtoms>
  150.9982  133.6082  159.2698 H   0  0  0  0  0  0  0  0  0  0  0  0  # atno 6907 bound_to 6896
  151.3278  135.0833  159.9338 H   0  0  0  0  0  0  0  0  0  0  0  0  # atno 6908 bound_to 6896
  152.5266  133.9617  159.7774 H   0  0  0  0  0  0  0  0  0  0  0  0  # atno 6909 bound_to 6896
  144.7260  139.9546  143.6433 H   0  0  0  0  0  0  0  0  0  0  0  0  # atno 7974 bound_to 7965
  154.5158  140.0799  156.8078 H   0  0  0  0  0  0  0  0  0  0  0  0  # atno 8008 bound_to 7997
  155.3684  140.3421  155.4224 H   0  0  0  0  0  0  0  0  0  0  0  0  # atno 8009 bound_to 7997
  156.1626  140.1593  156.8574 H   0  0  0  0  0  0  0  0  0  0  0  0  # atno 8010 bound_to 7997
  140.1427  144.4538  150.6802 H   0  0  0  0  0  0  0  0  0  0  0  0  # atno 10167 bound_to 10162
  156.1743  130.6689  151.0221 H   0  0  0  0  0  0  0  0  0  0  0  0  # atno 10718 bound_to 10713
  153.7343  135.3234  155.3292 H   0  0  0  0  0  0  0  0  0  0  0  0  # atno 10763 bound_to 10752
  154.8316  135.4529  154.1090 H   0  0  0  0  0  0  0  0  0  0  0  0  # atno 10764 bound_to 10752
  153.2246  135.6952  153.8041 H   0  0  0  0  0  0  0  0  0  0  0  0  # atno 10765 bound_to 10752
  139.9712  134.6897  156.0443 H   0  0  0  0  0  0  0  0  0  0  0  0  # atno 11005 bound_to 11000
  146.0685  139.3675  143.0537 LP  0  0  0  0  0  0  0  0  0  0  0  0  # atno 17320 bound_to 7965
  145.7999  140.9775  143.1004 LP  0  0  0  0  0  0  0  0  0  0  0  0  # atno 17321 bound_to 7965
  140.6751  143.2301  151.5528 LP  0  0  0  0  0  0  0  0  0  0  0  0  # atno 17342 bound_to 10162
  139.5464  144.2510  152.1450 LP  0  0  0  0  0  0  0  0  0  0  0  0  # atno 17343 bound_to 10162
  157.6825  131.0834  150.7333 LP  0  0  0  0  0  0  0  0  0  0  0  0  # atno 17370 bound_to 10713
  156.7391  130.4733  149.5481 LP  0  0  0  0  0  0  0  0  0  0  0  0  # atno 17371 bound_to 10713
  141.1391  133.6568  156.3679 LP  0  0  0  0  0  0  0  0  0  0  0  0  # atno 17394 bound_to 11000
  140.5290  134.6231  157.5343 LP  0  0  0  0  0  0  0  0  0  0  0  0  # atno 17395 bound_to 11000

$$$$
