AV-unprocessed.smi:1375|AV-procd|sdf|5589|dock9
  -GOLD-   22720 5193D 1   1.00000     0.00000
 Structure written by MMmdl.
 36 37  0  0  0  0  0  0  0  0  1 V2000
  145.2618  144.3898  153.1872 C   0  0  0  0  0  0  0  0  0  0  0  0
  145.8101  143.3786  154.1347 C   0  0  0  0  0  0  0  0  0  0  0  0
  146.6218  142.3839  153.7669 N   0  0  0  0  0  0  0  0  0  0  0  0
  146.9972  141.5703  154.8407 C   0  0  0  0  0  0  0  0  0  0  0  0
  147.9111  140.4045  154.6142 C   0  0  0  0  0  0  0  0  0  0  0  0
  149.3674  140.8437  154.3887 C   0  0  0  0  0  0  0  0  0  0  0  0
  149.7586  141.9029  155.3113 N   0  0  0  0  0  0  0  0  0  0  0  0
  150.7639  141.8217  156.1993 C   0  0  0  0  0  0  0  0  0  0  0  0
  151.4705  140.8242  156.3336 O   0  0  0  0  0  0  0  0  0  0  0  0
  150.9532  142.9302  156.9370 N   0  0  0  0  0  0  0  0  0  0  0  0
  151.9561  143.1587  157.9799 C   0  0  0  0  0  0  0  0  0  0  0  0
  151.4087  142.8380  159.3876 C   0  0  0  0  0  0  0  0  0  0  0  0
  151.7404  144.0496  160.2604 C   0  0  0  0  0  0  0  0  0  0  0  0
  151.7519  145.2227  159.2861 C   0  0  0  0  0  0  0  0  0  0  0  0
  152.3670  144.6424  158.0125 C   0  0  0  0  0  0  0  0  0  0  0  0
  146.4556  141.9697  156.0371 C   0  0  0  0  0  0  0  0  0  0  0  0
  145.4518  143.3819  155.8571 S   0  0  0  0  0  0  0  0  0  0  0  0
  145.4713  144.1041  152.1558 H   0  0  0  0  0  0  0  0  0  0  0  0
  145.7136  145.3630  153.3796 H   0  0  0  0  0  0  0  0  0  0  0  0
  144.1823  144.4725  153.3136 H   0  0  0  0  0  0  0  0  0  0  0  0
  147.8597  139.7273  155.4677 H   0  0  0  0  0  0  0  0  0  0  0  0
  147.5683  139.8263  153.7551 H   0  0  0  0  0  0  0  0  0  0  0  0
  150.0394  139.9989  154.5415 H   0  0  0  0  0  0  0  0  0  0  0  0
  149.5123  141.1735  153.3585 H   0  0  0  0  0  0  0  0  0  0  0  0
  149.2322  142.7634  155.2684 H   0  0  0  0  0  0  0  0  0  0  0  0
  150.3393  143.7082  156.7431 H   0  0  0  0  0  0  0  0  0  0  0  0
  152.8442  142.5596  157.7703 H   0  0  0  0  0  0  0  0  0  0  0  0
  150.3256  142.7091  159.3588 H   0  0  0  0  0  0  0  0  0  0  0  0
  151.8303  141.9176  159.7929 H   0  0  0  0  0  0  0  0  0  0  0  0
  151.0297  144.1866  161.0758 H   0  0  0  0  0  0  0  0  0  0  0  0
  152.7318  143.9275  160.6988 H   0  0  0  0  0  0  0  0  0  0  0  0
  150.7292  145.5459  159.0870 H   0  0  0  0  0  0  0  0  0  0  0  0
  152.3057  146.0812  159.6669 H   0  0  0  0  0  0  0  0  0  0  0  0
  153.4537  144.7117  158.0777 H   0  0  0  0  0  0  0  0  0  0  0  0
  152.0656  145.1969  157.1224 H   0  0  0  0  0  0  0  0  0  0  0  0
  146.5878  141.5209  157.0104 H   0  0  0  0  0  0  0  0  0  0  0  0
  1  2  1  0  0  0  0
  1 18  1  0  0  0  0
  1 19  1  0  0  0  0
  1 20  1  0  0  0  0
  2 17  1  0  0  0  0
  2  3  2  0  0  0  0
  3  4  1  0  0  0  0
  4  5  1  0  0  0  0
  4 16  2  0  0  0  0
  5  6  1  0  0  0  0
  5 21  1  0  0  0  0
  5 22  1  0  0  0  0
  6  7  1  0  0  0  0
  6 23  1  0  0  0  0
  6 24  1  0  0  0  0
  7  8  1  0  0  0  0
  7 25  1  0  0  0  0
  8  9  2  0  0  0  0
  8 10  1  0  0  0  0
 10 11  1  0  0  0  0
 10 26  1  0  0  0  0
 11 15  1  0  0  0  0
 11 12  1  0  0  0  0
 11 27  1  0  0  0  0
 12 13  1  0  0  0  0
 12 28  1  0  0  0  0
 12 29  1  0  0  0  0
 13 14  1  0  0  0  0
 13 30  1  0  0  0  0
 13 31  1  0  0  0  0
 14 15  1  0  0  0  0
 14 32  1  0  0  0  0
 14 33  1  0  0  0  0
 15 34  1  0  0  0  0
 15 35  1  0  0  0  0
 16 17  1  0  0  0  0
 16 36  1  0  0  0  0
M  END
> <s_m_source_file>
AV-unprocessed.smi

> <i_m_source_file_index>
1375

> <i_lp_mmshare_version>
43012

> <i_f3d_flags>
0

> <s_epik_input>
W0NIM11jMW5jKFtjSF1zMSlbQ0gyXVtDSDJdW05IXUMoPU8pW05IXVtDSF0yW0NIMl1bQ0gyXVtDSDJdW0NIMl0y

> <s_epik_cmdline>
J2VwaWtfcHl0aG9uJywgJy1waCcsICc3LjAnLCAnLXRuJywgJzgnLCAnLW1hJywgJzIwMCcsICctbWV0YWxfYmluZGluZycsICctaW1hZScsICc8aW5maWxlLm1hZT4nLCAnLW9tYWUnLCAnPG91dGZpbGUubWFlPic=

> <r_epik_Ionization_Penalty>
0.00202185

> <r_epik_Ionization_Penalty_Charging>
0

> <r_epik_Ionization_Penalty_Neutral>
0.00202185

> <r_epik_State_Penalty>
0.00133629

> <r_epik_Charging_Adjusted_Penalty>
0.00133629

> <i_epik_Tot_Q>
0

> <i_epik_Tot_abs_Q>
0

> <r_epik_Metal_State_Penalty>
-0

> <b_epik_Metal_Only>
0

> <s_lp_Force_Field>
OPLS_2005

> <r_lp_Energy>
21.3593

> <b_lp_Chiralities_Consistent>
1

> <s_lp_Variant>
AV-unprocessed.smi:1375-1

> <Gold.Version>
5.8.1

> <Gold.Id.Protein>
6NUR|6NUR_protein|mol2

> <Gold.PLP.Fitness>
44.0766

> <Gold.PLP.PLP>
-39.3366

> <Gold.PLP.part.hbond>
-2.0000

> <Gold.PLP.part.metal>
0.0000

> <Gold.PLP.part.buried>
-5.3301

> <Gold.PLP.part.nonpolar>
-31.0689

> <Gold.PLP.part.repulsive>
0.4247

> <Gold.PLP.ligand.clash>
0.0000

> <Gold.PLP.ligand.torsion>
0.6250

> <Gold.PLP.Chemscore.Hbond>
1.9913

> <Gold.PLP.Chemscore.CHOScore>
0.0000

> <Gold.PLP.Chemscore.Metal>
0.0000

> <Gold.Chemscore.Hbonds>
donor molecule, donor type, donor heavy atom, donor atom, acceptor molecule, acceptor atom, score
      L1  H     7    25       P1  8028  1.00
      L1  H    10    26       P1  8028  0.93

> <Gold.PLP.Chemscore.Internal.Correction>
0.0163

> <Gold.Rescore>
     Score         DG    S(hbond)    S(metal)    S(lipo)     H(rot)  DE(clash)    DE(int)     intcor
     19.23     -19.79       1.93        0.00     100.02       1.51       0.12       0.43       ----

> <Gold.Chemscore.Fitness>
19.2286

> <Gold.Chemscore.DG>
-19.7863

> <Gold.Chemscore.ZeroCoef>
-5.4800

> <Gold.Chemscore.Hbond>
1.9337

> <Gold.Chemscore.Metal>
0.0000

> <Gold.Chemscore.Lipo>
100.0247

> <Gold.Chemscore.Internal_Hbond>
0.0000

> <Gold.Chemscore.DEClash>
0.1241

> <Gold.Chemscore.DEInternal>
0.4336

> <Gold.Chemscore.Rot>
1.5060

> <Gold.Chemscore.Internal.Correction>
   9.000000E+99

> <Gold.Chemscore.Hbonds>
donor molecule, donor type, donor heavy atom, donor atom, acceptor molecule, acceptor atom, score
      L1  H     7    25       P1  8028  0.93
      L1  H    10    26       P1  8028  0.87

> <Gold.Chemscore.Hbond.Weighted>
-6.4587

> <Gold.Chemscore.Metal.Weighted>
-0.0000

> <Gold.Chemscore.Lipo.Weighted>
-11.7029

> <Gold.Chemscore.Internal_Hbond.Weighted>
0.0000

> <Gold.Chemscore.DEClash.Weighted>
0.1241

> <Gold.Chemscore.DEInternal.Weighted>
0.4336

> <Gold.Chemscore.Rot.Weighted>
3.8553

> <Gold.Chemscore.Internal.Correction.Weighted>
   9.000000E+99

> <Gold.Protein.RotatedTorsions>
[ 6907 6896 6895 6894 ] final   52.10 input  -60.11 | X-H torsion
[ 7974 7965 7964 7962 ] final   94.43 input  175.53 | X-H torsion
[ 8008 7997 7996 7995 ] final -100.20 input   59.86 | X-H torsion
[ 10167 10162 10161 10158 ] final   62.91 input  -65.29 | X-H torsion
[ 10718 10713 10712 10709 ] final   84.00 input   66.30 | X-H torsion
[ 10763 10752 10751 10750 ] final   67.73 input  -60.55 | X-H torsion
[ 11005 11000 10999 10996 ] final    8.09 input  -57.11 | X-H torsion

> <Gold.Protein.ActiveResidues>
 VAL166  LYS551  ARG553  GLY616  TRP617  ASP618  TYR619  PRO620  LYS621  CYS622 
 ASP623  PHE694  ASN695  SER759  ASP760  ASP761  ALA762  ILE779  LEU786  VAL792 
 PHE793  MET794  SER795  GLU796  ALA797  LYS798  CYS799  TRP800  GLU811  SER814 

> <Gold.Protein.RotatedAtoms>
  152.3197  134.7395  160.0316 H   0  0  0  0  0  0  0  0  0  0  0  0  # atno 6907 bound_to 6896
  151.7848  133.3348  159.3490 H   0  0  0  0  0  0  0  0  0  0  0  0  # atno 6908 bound_to 6896
  150.7363  134.5829  159.5992 H   0  0  0  0  0  0  0  0  0  0  0  0  # atno 6909 bound_to 6896
  145.4657  139.2284  143.2963 H   0  0  0  0  0  0  0  0  0  0  0  0  # atno 7974 bound_to 7965
  154.8253  140.0442  157.1439 H   0  0  0  0  0  0  0  0  0  0  0  0  # atno 8008 bound_to 7997
  154.9213  140.3027  155.5195 H   0  0  0  0  0  0  0  0  0  0  0  0  # atno 8009 bound_to 7997
  156.2983  140.2340  156.4263 H   0  0  0  0  0  0  0  0  0  0  0  0  # atno 8010 bound_to 7997
  140.1388  144.4573  150.6823 H   0  0  0  0  0  0  0  0  0  0  0  0  # atno 10167 bound_to 10162
  157.6890  131.0114  150.2607 H   0  0  0  0  0  0  0  0  0  0  0  0  # atno 10718 bound_to 10713
  153.0200  135.5273  154.7025 H   0  0  0  0  0  0  0  0  0  0  0  0  # atno 10763 bound_to 10752
  154.6130  135.2880  155.0413 H   0  0  0  0  0  0  0  0  0  0  0  0  # atno 10764 bound_to 10752
  154.1428  135.6575  153.4998 H   0  0  0  0  0  0  0  0  0  0  0  0  # atno 10765 bound_to 10752
  140.5409  134.0375  155.7904 H   0  0  0  0  0  0  0  0  0  0  0  0  # atno 11005 bound_to 11000
  146.2426  140.5430  142.8927 LP  0  0  0  0  0  0  0  0  0  0  0  0  # atno 17320 bound_to 7965
  144.7976  140.6152  143.6500 LP  0  0  0  0  0  0  0  0  0  0  0  0  # atno 17321 bound_to 7965
  140.6773  143.2311  151.5474 LP  0  0  0  0  0  0  0  0  0  0  0  0  # atno 17342 bound_to 10162
  139.5482  144.2464  152.1482 LP  0  0  0  0  0  0  0  0  0  0  0  0  # atno 17343 bound_to 10162
  156.3187  130.3782  149.7595 LP  0  0  0  0  0  0  0  0  0  0  0  0  # atno 17370 bound_to 10713
  156.5172  130.8199  151.3190 LP  0  0  0  0  0  0  0  0  0  0  0  0  # atno 17371 bound_to 10713
  141.1228  133.9433  157.2696 LP  0  0  0  0  0  0  0  0  0  0  0  0  # atno 17394 bound_to 11000
  139.9505  135.0176  156.8978 LP  0  0  0  0  0  0  0  0  0  0  0  0  # atno 17395 bound_to 11000

$$$$
