AV-unprocessed.smi:2397|AV-procd|sdf|9495|dock8
  -GOLD-   2272013123D 1   1.00000     0.00000
 Structure written by MMmdl.
 37 38  0  0  0  0  0  0  0  0  2 V2000
  152.3647  145.7853  158.8807 C   0  0  0  0  0  0  0  0  0  0  0  0
  151.0081  145.0944  158.6738 C   0  0  0  0  0  0  0  0  0  0  0  0
  150.0569  145.2672  159.8678 C   0  0  0  0  0  0  0  0  0  0  0  0
  151.1718  143.6328  158.2837 C   0  0  0  0  0  0  0  0  0  0  0  0
  150.7334  143.2236  157.0829 N   0  3  0  0  0  0  0  0  0  0  0  0
  150.8824  141.9265  156.7205 C   0  0  0  0  0  0  0  0  0  0  0  0
  151.4973  141.0093  157.5928 C   0  0  0  0  0  0  0  0  0  0  0  0
  151.9414  141.5018  158.8351 C   0  0  0  0  0  0  0  0  0  0  0  0
  152.5629  140.6350  159.7602 N   0  0  0  0  0  0  0  0  0  0  0  0
  153.8645  141.1654  160.1649 C   0  0  0  0  0  0  0  0  0  0  0  0
  154.4825  140.3160  161.2836 C   0  0  0  0  0  0  0  0  0  0  0  0
  154.5730  138.9698  160.8426 O   0  0  0  0  0  0  0  0  0  0  0  0
  153.2869  138.4180  160.5929 C   0  0  0  0  0  0  0  0  0  0  0  0
  152.5671  139.1896  159.4607 C   0  0  1  0  0  0  0  0  0  0  0  0
  151.1857  138.5328  159.2575 C   0  0  0  0  0  0  0  0  0  0  0  0
  150.8644  138.0898  158.0373 N   0  0  0  0  0  0  0  0  0  0  0  0
  150.4194  138.4118  160.2103 O   0  0  0  0  0  0  0  0  0  0  0  0
  151.7591  142.8029  159.1562 N   0  0  0  0  0  0  0  0  0  0  0  0
  152.9849  145.7062  157.9874 H   0  0  0  0  0  0  0  0  0  0  0  0
  152.9168  145.3410  159.7099 H   0  0  0  0  0  0  0  0  0  0  0  0
  152.2361  146.8455  159.0999 H   0  0  0  0  0  0  0  0  0  0  0  0
  150.5336  145.5972  157.8295 H   0  0  0  0  0  0  0  0  0  0  0  0
  149.0813  144.8271  159.6592 H   0  0  0  0  0  0  0  0  0  0  0  0
  149.9007  146.3220  160.0957 H   0  0  0  0  0  0  0  0  0  0  0  0
  150.4529  144.7908  160.7654 H   0  0  0  0  0  0  0  0  0  0  0  0
  150.5075  141.6656  155.7418 H   0  0  0  0  0  0  0  0  0  0  0  0
  151.6271  139.9735  157.3139 H   0  0  0  0  0  0  0  0  0  0  0  0
  154.5323  141.1783  159.3016 H   0  0  0  0  0  0  0  0  0  0  0  0
  153.7755  142.1951  160.5127 H   0  0  0  0  0  0  0  0  0  0  0  0
  155.4824  140.6787  161.5221 H   0  0  0  0  0  0  0  0  0  0  0  0
  153.8929  140.3796  162.1999 H   0  0  0  0  0  0  0  0  0  0  0  0
  153.4162  137.3704  160.3178 H   0  0  0  0  0  0  0  0  0  0  0  0
  152.7013  138.4293  161.5145 H   0  0  0  0  0  0  0  0  0  0  0  0
  153.1426  139.0388  158.5452 H   0  0  0  0  0  0  0  0  0  0  0  0
  149.9751  137.6375  157.8830 H   0  0  0  0  0  0  0  0  0  0  0  0
  151.5233  138.1914  157.2786 H   0  0  0  0  0  0  0  0  0  0  0  0
  150.2899  143.8798  156.4396 H   0  0  0  0  0  0  0  0  0  0  0  0
  1  2  1  0  0  0  0
  1 19  1  0  0  0  0
  1 20  1  0  0  0  0
  1 21  1  0  0  0  0
  2  3  1  0  0  0  0
  2  4  1  0  0  0  0
  2 22  1  0  0  0  0
  3 23  1  0  0  0  0
  3 24  1  0  0  0  0
  3 25  1  0  0  0  0
  4 18  1  0  0  0  0
  4  5  2  0  0  0  0
  5  6  1  0  0  0  0
  5 37  1  0  0  0  0
  6  7  2  0  0  0  0
  6 26  1  0  0  0  0
  7  8  1  0  0  0  0
  7 27  1  0  0  0  0
  8  9  1  0  0  0  0
  8 18  2  0  0  0  0
  9 14  1  0  0  0  0
  9 10  1  0  0  0  0
 10 11  1  0  0  0  0
 10 28  1  0  0  0  0
 10 29  1  0  0  0  0
 11 12  1  0  0  0  0
 11 30  1  0  0  0  0
 11 31  1  0  0  0  0
 12 13  1  0  0  0  0
 13 14  1  0  0  0  0
 13 32  1  0  0  0  0
 13 33  1  0  0  0  0
 14 15  1  0  0  0  0
 14 34  1  0  0  0  0
 15 16  1  0  0  0  0
 15 17  2  0  0  0  0
 16 35  1  0  0  0  0
 16 36  1  0  0  0  0
M  CHG  1   5   1
M  END
> <s_m_source_file>
AV-unprocessed.smi

> <i_m_source_file_index>
2397

> <i_lp_mmshare_version>
43012

> <i_f3d_flags>
0

> <s_epik_input>
W0NIM11bQ0hdKFtDSDNdKWMxbltjSF1bY0hdYyhuMSlOMltDSDJdW0NIMl1PW0NIMl1bQ0BIXTJDKD1PKVtOSDJd

> <s_epik_cmdline>
J2VwaWtfcHl0aG9uJywgJy1waCcsICc3LjAnLCAnLXRuJywgJzgnLCAnLW1hJywgJzIwMCcsICctbWV0YWxfYmluZGluZycsICctaW1hZScsICc8aW5maWxlLm1hZT4nLCAnLW9tYWUnLCAnPG91dGZpbGUubWFlPic=

> <r_lp_tautomer_probability>
0.999336

> <r_epik_Ionization_Penalty>
1.74009

> <r_epik_Ionization_Penalty_Charging>
1.74009

> <r_epik_Ionization_Penalty_Neutral>
2.46902e-07

> <r_epik_State_Penalty>
1.8491

> <r_epik_Charging_Adjusted_Penalty>
3.5892

> <i_epik_Tot_Q>
1

> <i_epik_Tot_abs_Q>
1

> <r_epik_Metal_State_Penalty>
1.87997

> <b_epik_Metal_Only>
0

> <s_lp_Force_Field>
OPLS_2005

> <r_lp_Energy>
12.3684

> <b_lp_Chiralities_Consistent>
1

> <s_lp_Variant>
AV-unprocessed.smi:2397-3

> <Gold.Version>
5.8.1

> <Gold.Id.Protein>
6NUR|6NUR_protein|mol2

> <Gold.PLP.Fitness>
37.5540

> <Gold.PLP.PLP>
-31.7261

> <Gold.PLP.part.hbond>
-2.0000

> <Gold.PLP.part.metal>
0.0000

> <Gold.PLP.part.buried>
-6.9307

> <Gold.PLP.part.nonpolar>
-23.6654

> <Gold.PLP.part.repulsive>
0.0413

> <Gold.PLP.ligand.clash>
0.0000

> <Gold.PLP.ligand.torsion>
0.2212

> <Gold.PLP.Chemscore.Hbond>
2.0000

> <Gold.PLP.Chemscore.CHOScore>
0.0000

> <Gold.PLP.Chemscore.Metal>
0.0000

> <Gold.Chemscore.Hbonds>
donor molecule, donor type, donor heavy atom, donor atom, acceptor molecule, acceptor atom, score
      L1  H     5    37       P1  8028  2.00

> <Gold.PLP.Chemscore.Internal.Correction>
0.2704

> <Gold.Rescore>
     Score         DG    S(hbond)    S(metal)    S(lipo)     H(rot)  DE(clash)    DE(int)     intcor
     11.45     -12.53       0.98        0.00      71.01       1.77       0.00       1.08       ----

> <Gold.Chemscore.Fitness>
11.4526

> <Gold.Chemscore.DG>
-12.5285

> <Gold.Chemscore.ZeroCoef>
-5.4800

> <Gold.Chemscore.Hbond>
0.9808

> <Gold.Chemscore.Metal>
0.0000

> <Gold.Chemscore.Lipo>
71.0123

> <Gold.Chemscore.Internal_Hbond>
0.0000

> <Gold.Chemscore.DEClash>
0.0000

> <Gold.Chemscore.DEInternal>
1.0759

> <Gold.Chemscore.Rot>
1.7717

> <Gold.Chemscore.Internal.Correction>
   9.000000E+99

> <Gold.Chemscore.Hbonds>
donor molecule, donor type, donor heavy atom, donor atom, acceptor molecule, acceptor atom, score
      L1  H     5    37       P1  8028  0.99

> <Gold.Chemscore.Hbond.Weighted>
-3.2757

> <Gold.Chemscore.Metal.Weighted>
-0.0000

> <Gold.Chemscore.Lipo.Weighted>
-8.3084

> <Gold.Chemscore.Internal_Hbond.Weighted>
0.0000

> <Gold.Chemscore.DEClash.Weighted>
0.0000

> <Gold.Chemscore.DEInternal.Weighted>
1.0759

> <Gold.Chemscore.Rot.Weighted>
4.5357

> <Gold.Chemscore.Internal.Correction.Weighted>
   9.000000E+99

> <Gold.Protein.RotatedTorsions>
[ 6907 6896 6895 6894 ] final -177.90 input  -60.11 | X-H torsion
[ 7974 7965 7964 7962 ] final  148.08 input  175.53 | X-H torsion
[ 8008 7997 7996 7995 ] final -176.35 input   59.86 | X-H torsion
[ 10167 10162 10161 10158 ] final  -49.61 input  -65.29 | X-H torsion
[ 10718 10713 10712 10709 ] final -175.30 input   66.30 | X-H torsion
[ 10763 10752 10751 10750 ] final  108.81 input  -60.55 | X-H torsion
[ 11005 11000 10999 10996 ] final  144.47 input  -57.11 | X-H torsion

> <Gold.Protein.ActiveResidues>
 VAL166  LYS551  ARG553  GLY616  TRP617  ASP618  TYR619  PRO620  LYS621  CYS622 
 ASP623  PHE694  ASN695  SER759  ASP760  ASP761  ALA762  ILE779  LEU786  VAL792 
 PHE793  MET794  SER795  GLU796  ALA797  LYS798  CYS799  TRP800  GLU811  SER814 

> <Gold.Protein.RotatedAtoms>
  151.6285  133.3334  159.3103 H   0  0  0  0  0  0  0  0  0  0  0  0  # atno 6907 bound_to 6896
  150.8069  134.7203  159.6664 H   0  0  0  0  0  0  0  0  0  0  0  0  # atno 6908 bound_to 6896
  152.4164  134.6038  160.0058 H   0  0  0  0  0  0  0  0  0  0  0  0  # atno 6909 bound_to 6896
  144.8541  139.6109  143.5960 H   0  0  0  0  0  0  0  0  0  0  0  0  # atno 7974 bound_to 7965
  155.9938  140.1206  157.0613 H   0  0  0  0  0  0  0  0  0  0  0  0  # atno 8008 bound_to 7997
  154.4220  140.1120  156.5670 H   0  0  0  0  0  0  0  0  0  0  0  0  # atno 8009 bound_to 7997
  155.6307  140.3473  155.4684 H   0  0  0  0  0  0  0  0  0  0  0  0  # atno 8010 bound_to 7997
  140.6677  143.2691  151.4240 H   0  0  0  0  0  0  0  0  0  0  0  0  # atno 10167 bound_to 10162
  156.7979  130.9541  151.3119 H   0  0  0  0  0  0  0  0  0  0  0  0  # atno 10718 bound_to 10713
  153.4259  135.3800  155.2140 H   0  0  0  0  0  0  0  0  0  0  0  0  # atno 10763 bound_to 10752
  154.8747  135.3828  154.4327 H   0  0  0  0  0  0  0  0  0  0  0  0  # atno 10764 bound_to 10752
  153.4853  135.7088  153.5977 H   0  0  0  0  0  0  0  0  0  0  0  0  # atno 10765 bound_to 10752
  140.0635  134.9191  157.1224 H   0  0  0  0  0  0  0  0  0  0  0  0  # atno 11005 bound_to 11000
  146.2809  139.6875  142.9230 LP  0  0  0  0  0  0  0  0  0  0  0  0  # atno 17320 bound_to 7965
  145.4440  141.0424  143.2841 LP  0  0  0  0  0  0  0  0  0  0  0  0  # atno 17321 bound_to 7965
  139.5932  144.1454  152.2113 LP  0  0  0  0  0  0  0  0  0  0  0  0  # atno 17342 bound_to 10162
  140.0815  144.5696  150.7119 LP  0  0  0  0  0  0  0  0  0  0  0  0  # atno 17343 bound_to 10162
  157.6568  130.8931  149.9746 LP  0  0  0  0  0  0  0  0  0  0  0  0  # atno 17370 bound_to 10713
  156.1119  130.3649  150.0034 LP  0  0  0  0  0  0  0  0  0  0  0  0  # atno 17371 bound_to 10713
  140.3734  134.2365  155.7176 LP  0  0  0  0  0  0  0  0  0  0  0  0  # atno 17394 bound_to 11000
  141.1983  133.8039  157.0589 LP  0  0  0  0  0  0  0  0  0  0  0  0  # atno 17395 bound_to 11000

$$$$
