AV-unprocessed.smi:39|AV-procd|sdf|353|dock1
  -GOLD-   2262016193D 1   1.00000     0.00000
 Structure written by MMmdl.
 32 33  0  0  0  0  0  0  0  0  3 V2000
  146.9527  140.5294  152.6200 C   0  0  0  0  0  0  0  0  0  0  0  0
  147.5821  141.1214  153.8702 C   0  0  0  0  0  0  0  0  0  0  0  0
  148.8330  140.7907  154.2825 C   0  0  0  0  0  0  0  0  0  0  0  0
  149.4328  141.3140  155.4198 N   0  0  0  0  0  0  0  0  0  0  0  0
  150.8235  140.9059  155.8456 C   0  0  1  0  0  0  0  0  0  0  0  0
  150.7909  140.1945  157.1952 C   0  0  0  0  0  0  0  0  0  0  0  0
  151.9840  139.2710  157.0537 C   0  0  1  0  0  0  0  0  0  0  0  0
  151.9659  138.1471  157.9949 N   0  0  0  0  0  0  0  0  0  0  0  0
  152.6111  137.1417  157.6701 N   0  3  0  0  0  0  0  0  0  0  0  0
  153.3089  136.2857  157.3950 N   0  5  0  0  0  0  0  0  0  0  0  0
  151.9024  138.8627  155.5706 C   0  0  1  0  0  0  0  0  0  0  0  0
  151.0021  137.6520  155.2416 C   0  0  0  0  0  0  0  0  0  0  0  0
  151.5828  136.8470  154.2366 O   0  0  0  0  0  0  0  0  0  0  0  0
  151.3572  140.0100  154.9137 O   0  0  0  0  0  0  0  0  0  0  0  0
  148.7123  142.2187  156.2263 C   0  0  0  0  0  0  0  0  0  0  0  0
  149.1660  142.6950  157.2663 O   0  0  0  0  0  0  0  0  0  0  0  0
  147.4302  142.5629  155.8014 N   0  0  0  0  0  0  0  0  0  0  0  0
  146.7962  142.0778  154.6549 C   0  0  0  0  0  0  0  0  0  0  0  0
  145.6601  142.4611  154.3809 O   0  0  0  0  0  0  0  0  0  0  0  0
  151.4465  141.8025  155.8400 H   0  0  0  0  0  0  0  0  0  0  0  0
  152.8938  139.8614  157.1853 H   0  0  0  0  0  0  0  0  0  0  0  0
  152.9013  138.6881  155.1686 H   0  0  0  0  0  0  0  0  0  0  0  0
  146.9129  143.2148  156.3732 H   0  0  0  0  0  0  0  0  0  0  0  0
  147.6279  139.8383  152.1146 H   0  0  0  0  0  0  0  0  0  0  0  0
  146.6920  141.3182  151.9134 H   0  0  0  0  0  0  0  0  0  0  0  0
  146.0436  139.9828  152.8736 H   0  0  0  0  0  0  0  0  0  0  0  0
  149.3824  140.0764  153.6895 H   0  0  0  0  0  0  0  0  0  0  0  0
  150.8727  140.9051  158.0184 H   0  0  0  0  0  0  0  0  0  0  0  0
  149.8627  139.6295  157.2968 H   0  0  0  0  0  0  0  0  0  0  0  0
  150.7913  137.0531  156.1276 H   0  0  0  0  0  0  0  0  0  0  0  0
  150.0433  137.9994  154.8559 H   0  0  0  0  0  0  0  0  0  0  0  0
  150.9482  136.7215  153.5478 H   0  0  0  0  0  0  0  0  0  0  0  0
  1  2  1  0  0  0  0
  1 24  1  0  0  0  0
  1 25  1  0  0  0  0
  1 26  1  0  0  0  0
  2 18  1  0  0  0  0
  2  3  2  0  0  0  0
  3  4  1  0  0  0  0
  3 27  1  0  0  0  0
  4  5  1  0  0  0  0
  4 15  1  0  0  0  0
  5 20  1  0  0  0  0
  5 14  1  0  0  0  0
  5  6  1  0  0  0  0
  6  7  1  0  0  0  0
  6 28  1  0  0  0  0
  6 29  1  0  0  0  0
  7 21  1  0  0  0  0
  7  8  1  0  0  0  0
  7 11  1  0  0  0  0
  8  9  2  0  0  0  0
  9 10  2  0  0  0  0
 11 22  1  0  0  0  0
 11 12  1  0  0  0  0
 11 14  1  0  0  0  0
 12 13  1  0  0  0  0
 12 30  1  0  0  0  0
 12 31  1  0  0  0  0
 13 32  1  0  0  0  0
 15 16  2  0  0  0  0
 15 17  1  0  0  0  0
 17 23  1  0  0  0  0
 17 18  1  0  0  0  0
 18 19  2  0  0  0  0
M  CHG  1   9   1
M  CHG  1  10  -1
M  END
> <s_m_source_file>
AV-unprocessed.smi

> <i_m_source_file_index>
39

> <i_lp_mmshare_version>
43012

> <i_f3d_flags>
0

> <s_epik_input>
Tz1jMVtuSF1jKD1PKW4oW2NIXWMxW0NIM10pW0NASF0yW0NIMl1bQ0BIXShOPVtOK109W04tXSlbQ0BIXShPMilbQ0gyXVtPSF0=

> <s_epik_cmdline>
J2VwaWtfcHl0aG9uJywgJy1waCcsICc3LjAnLCAnLXRuJywgJzgnLCAnLW1hJywgJzIwMCcsICctbWV0YWxfYmluZGluZycsICctaW1hZScsICc8aW5maWxlLm1hZT4nLCAnLW9tYWUnLCAnPG91dGZpbGUubWFlPic=

> <r_lp_tautomer_probability>
0.999537

> <r_epik_Ionization_Penalty>
0.00127512

> <r_epik_Ionization_Penalty_Charging>
0.00127507

> <r_epik_Ionization_Penalty_Neutral>
5.43433e-08

> <r_epik_State_Penalty>
0.000844892

> <r_epik_Charging_Adjusted_Penalty>
0.00211996

> <i_epik_Tot_Q>
0

> <i_epik_Tot_abs_Q>
2

> <r_epik_Metal_State_Penalty>
0.680636

> <b_epik_Metal_Only>
0

> <s_epik_Chemistry_Notes>
This compound contains an acetal/aminal-like group ( X-CH(R)-Y where X, Y are N, S, or O) that may be acid/base labile, releasing an aldehyde.

> <s_lp_Force_Field>
OPLS_2005

> <r_lp_Energy>
27.4259

> <b_lp_Chiralities_Consistent>
1

> <s_lp_Variant>
AV-unprocessed.smi:39-3

> <Gold.Version>
5.8.1

> <Gold.Id.Protein>
6NUR|6NUR_protein|mol2

> <Gold.PLP.Fitness>
41.6353

> <Gold.PLP.PLP>
-29.1734

> <Gold.PLP.part.hbond>
-5.0000

> <Gold.PLP.part.metal>
0.0000

> <Gold.PLP.part.buried>
-2.4160

> <Gold.PLP.part.nonpolar>
-23.2669

> <Gold.PLP.part.repulsive>
0.7028

> <Gold.PLP.ligand.clash>
0.0000

> <Gold.PLP.ligand.torsion>
0.8811

> <Gold.PLP.Chemscore.Hbond>
3.7360

> <Gold.PLP.Chemscore.CHOScore>
1.0000

> <Gold.PLP.Chemscore.Metal>
0.0000

> <Gold.Chemscore.Hbonds>
donor molecule, donor type, donor heavy atom, donor atom, acceptor molecule, acceptor atom, score
      L1  H    13    32       P1  7949  0.35
      P1  H  7989  7998       L1    14  1.00
      P1  H 10752 10763       L1    10  0.37
      P1  H 10752 10765       L1    13  0.94
      L1  C     3    27       P1  7957  0.92

> <Gold.PLP.Chemscore.Internal.Correction>
0.0161

> <Gold.Rescore>
     Score         DG    S(hbond)    S(metal)    S(lipo)     H(rot)  DE(clash)    DE(int)     intcor
     14.62     -15.62       3.53        0.00      46.07       2.75       0.07       0.93       ----

> <Gold.Chemscore.Fitness>
14.6174

> <Gold.Chemscore.DG>
-15.6225

> <Gold.Chemscore.ZeroCoef>
-5.4800

> <Gold.Chemscore.Hbond>
3.5323

> <Gold.Chemscore.Metal>
0.0000

> <Gold.Chemscore.Lipo>
46.0745

> <Gold.Chemscore.Internal_Hbond>
0.0000

> <Gold.Chemscore.DEClash>
0.0724

> <Gold.Chemscore.DEInternal>
0.9327

> <Gold.Chemscore.Rot>
2.7524

> <Gold.Chemscore.Internal.Correction>
   9.000000E+99

> <Gold.Chemscore.Hbonds>
donor molecule, donor type, donor heavy atom, donor atom, acceptor molecule, acceptor atom, score
      L1  H    13    32       P1  7949  0.08
      P1  H  7989  7998       L1    14  0.60
      P1  H 10752 10763       L1    10  0.37
      P1  H 10752 10765       L1    13  0.68

> <Gold.Chemscore.Hbond.Weighted>
-11.7979

> <Gold.Chemscore.Metal.Weighted>
-0.0000

> <Gold.Chemscore.Lipo.Weighted>
-5.3907

> <Gold.Chemscore.Internal_Hbond.Weighted>
0.0000

> <Gold.Chemscore.DEClash.Weighted>
0.0724

> <Gold.Chemscore.DEInternal.Weighted>
0.9327

> <Gold.Chemscore.Rot.Weighted>
7.0461

> <Gold.Chemscore.Internal.Correction.Weighted>
   9.000000E+99

> <Gold.Protein.RotatedTorsions>
[ 6907 6896 6895 6894 ] final  -88.30 input  -60.11 | X-H torsion
[ 7974 7965 7964 7962 ] final   47.50 input  175.53 | X-H torsion
[ 8008 7997 7996 7995 ] final  125.52 input   59.86 | X-H torsion
[ 10167 10162 10161 10158 ] final  -81.54 input  -65.29 | X-H torsion
[ 10718 10713 10712 10709 ] final -151.64 input   66.30 | X-H torsion
[ 10763 10752 10751 10750 ] final  138.90 input  -60.55 | X-H torsion
[ 11005 11000 10999 10996 ] final  -14.37 input  -57.11 | X-H torsion

> <Gold.Protein.ActiveResidues>
 VAL166  LYS551  ARG553  GLY616  TRP617  ASP618  TYR619  PRO620  LYS621  CYS622 
 ASP623  PHE694  ASN695  SER759  ASP760  ASP761  ALA762  ILE779  LEU786  VAL792 
 PHE793  MET794  SER795  GLU796  ALA797  LYS798  CYS799  TRP800  GLU811  SER814 

> <Gold.Protein.RotatedAtoms>
  150.6868  134.2763  159.4608 H   0  0  0  0  0  0  0  0  0  0  0  0  # atno 6907 bound_to 6896
  152.0681  134.9548  160.0584 H   0  0  0  0  0  0  0  0  0  0  0  0  # atno 6908 bound_to 6896
  152.0949  133.4185  159.4597 H   0  0  0  0  0  0  0  0  0  0  0  0  # atno 6909 bound_to 6896
  146.0292  139.4743  142.9848 H   0  0  0  0  0  0  0  0  0  0  0  0  # atno 7974 bound_to 7965
  156.2836  140.2714  156.1962 H   0  0  0  0  0  0  0  0  0  0  0  0  # atno 8008 bound_to 7997
  155.0407  140.0386  157.2526 H   0  0  0  0  0  0  0  0  0  0  0  0  # atno 8009 bound_to 7997
  154.7276  140.2700  155.6490 H   0  0  0  0  0  0  0  0  0  0  0  0  # atno 8010 bound_to 7997
  140.4402  143.2517  151.8636 H   0  0  0  0  0  0  0  0  0  0  0  0  # atno 10167 bound_to 10162
  156.4620  130.8218  151.2448 H   0  0  0  0  0  0  0  0  0  0  0  0  # atno 10718 bound_to 10713
  153.8973  135.3026  155.3448 H   0  0  0  0  0  0  0  0  0  0  0  0  # atno 10763 bound_to 10752
  154.7687  135.4897  153.9609 H   0  0  0  0  0  0  0  0  0  0  0  0  # atno 10764 bound_to 10752
  153.1264  135.6794  153.9349 H   0  0  0  0  0  0  0  0  0  0  0  0  # atno 10765 bound_to 10752
  140.7857  133.8327  155.9333 H   0  0  0  0  0  0  0  0  0  0  0  0  # atno 11005 bound_to 11000
  145.7068  141.0119  143.1474 LP  0  0  0  0  0  0  0  0  0  0  0  0  # atno 17320 bound_to 7965
  144.7023  139.8710  143.7440 LP  0  0  0  0  0  0  0  0  0  0  0  0  # atno 17321 bound_to 7965
  139.4789  144.5237  151.8765 LP  0  0  0  0  0  0  0  0  0  0  0  0  # atno 17342 bound_to 10162
  140.4327  144.2094  150.5888 LP  0  0  0  0  0  0  0  0  0  0  0  0  # atno 17343 bound_to 10162
  157.7497  131.0104  150.3305 LP  0  0  0  0  0  0  0  0  0  0  0  0  # atno 17370 bound_to 10713
  156.3707  130.3863  149.7178 LP  0  0  0  0  0  0  0  0  0  0  0  0  # atno 17371 bound_to 10713
  140.9439  134.1866  157.4778 LP  0  0  0  0  0  0  0  0  0  0  0  0  # atno 17394 bound_to 11000
  139.8737  134.9883  156.5404 LP  0  0  0  0  0  0  0  0  0  0  0  0  # atno 17395 bound_to 11000

$$$$
