AV-unprocessed.smi:374|AV-procd|sdf|2452|dock1
  -GOLD-   2262022393D 1   1.00000     0.00000
 Structure written by MMmdl.
 37 38  0  0  0  0  0  0  0  0  1 V2000
  148.0444  138.9230  154.0930 C   0  0  0  0  0  0  0  0  0  0  0  0
  149.2865  139.8053  154.3337 C   0  0  1  0  0  0  0  0  0  0  0  0
  149.1181  140.7318  155.5472 C   0  0  0  0  0  0  0  0  0  0  0  0
  148.0472  140.7796  156.1535 O   0  0  0  0  0  0  0  0  0  0  0  0
  150.1902  141.4645  155.8898 N   0  0  0  0  0  0  0  0  0  0  0  0
  150.2598  142.3920  157.0156 C   0  0  0  0  0  0  0  0  0  0  0  0
  151.5839  142.2758  157.8001 C   0  0  0  0  0  0  0  0  0  0  0  0
  151.5315  141.0765  158.7695 C   0  0  0  0  0  0  0  0  0  0  0  0
  152.8371  140.9216  159.5660 C   0  0  0  0  0  0  0  0  0  0  0  0
  153.1798  142.2105  160.3267 C   0  0  0  0  0  0  0  0  0  0  0  0
  153.2489  143.4101  159.3709 C   0  0  0  0  0  0  0  0  0  0  0  0
  151.9444  143.5655  158.5723 C   0  0  0  0  0  0  0  0  0  0  0  0
  150.5085  139.0220  154.4688 N   0  0  0  0  0  0  0  0  0  0  0  0
  150.7047  137.7102  154.3187 C   0  0  0  0  0  0  0  0  0  0  0  0
  151.9669  137.3328  154.4665 N   0  0  0  0  0  0  0  0  0  0  0  0
  152.5409  138.5485  154.7087 C   0  0  0  0  0  0  0  0  0  0  0  0
  151.7146  139.5943  154.7104 N   0  0  0  0  0  0  0  0  0  0  0  0
  147.1549  139.5340  153.9353 H   0  0  0  0  0  0  0  0  0  0  0  0
  147.8418  138.2588  154.9342 H   0  0  0  0  0  0  0  0  0  0  0  0
  148.1745  138.3022  153.2060 H   0  0  0  0  0  0  0  0  0  0  0  0
  149.4085  140.4344  153.4500 H   0  0  0  0  0  0  0  0  0  0  0  0
  151.0267  141.3656  155.3333 H   0  0  0  0  0  0  0  0  0  0  0  0
  150.1021  143.4206  156.6866 H   0  0  0  0  0  0  0  0  0  0  0  0
  149.4240  142.1581  157.6756 H   0  0  0  0  0  0  0  0  0  0  0  0
  152.3809  142.0840  157.0796 H   0  0  0  0  0  0  0  0  0  0  0  0
  150.6986  141.2011  159.4627 H   0  0  0  0  0  0  0  0  0  0  0  0
  151.3351  140.1578  158.2154 H   0  0  0  0  0  0  0  0  0  0  0  0
  152.7480  140.0905  160.2663 H   0  0  0  0  0  0  0  0  0  0  0  0
  153.6526  140.6684  158.8874 H   0  0  0  0  0  0  0  0  0  0  0  0
  152.4261  142.3959  161.0931 H   0  0  0  0  0  0  0  0  0  0  0  0
  154.1303  142.0940  160.8485 H   0  0  0  0  0  0  0  0  0  0  0  0
  153.4504  144.3223  159.9333 H   0  0  0  0  0  0  0  0  0  0  0  0
  154.0846  143.2803  158.6822 H   0  0  0  0  0  0  0  0  0  0  0  0
  152.0539  144.4041  157.8849 H   0  0  0  0  0  0  0  0  0  0  0  0
  151.1306  143.8270  159.2501 H   0  0  0  0  0  0  0  0  0  0  0  0
  149.9081  137.0170  154.0917 H   0  0  0  0  0  0  0  0  0  0  0  0
  153.6005  138.6670  154.8824 H   0  0  0  0  0  0  0  0  0  0  0  0
  1  2  1  0  0  0  0
  1 18  1  0  0  0  0
  1 19  1  0  0  0  0
  1 20  1  0  0  0  0
  2  3  1  0  0  0  0
  2 13  1  0  0  0  0
  2 21  1  0  0  0  0
  3  4  2  0  0  0  0
  3  5  1  0  0  0  0
  5  6  1  0  0  0  0
  5 22  1  0  0  0  0
  6  7  1  0  0  0  0
  6 23  1  0  0  0  0
  6 24  1  0  0  0  0
  7 12  1  0  0  0  0
  7  8  1  0  0  0  0
  7 25  1  0  0  0  0
  8  9  1  0  0  0  0
  8 26  1  0  0  0  0
  8 27  1  0  0  0  0
  9 10  1  0  0  0  0
  9 28  1  0  0  0  0
  9 29  1  0  0  0  0
 10 11  1  0  0  0  0
 10 30  1  0  0  0  0
 10 31  1  0  0  0  0
 11 12  1  0  0  0  0
 11 32  1  0  0  0  0
 11 33  1  0  0  0  0
 12 34  1  0  0  0  0
 12 35  1  0  0  0  0
 13 17  1  0  0  0  0
 13 14  1  0  0  0  0
 14 15  2  0  0  0  0
 14 36  1  0  0  0  0
 15 16  1  0  0  0  0
 16 17  2  0  0  0  0
 16 37  1  0  0  0  0
M  END
> <s_m_source_file>
AV-unprocessed.smi

> <i_m_source_file_index>
374

> <i_lp_mmshare_version>
43012

> <i_f3d_flags>
0

> <s_epik_input>
bjFbY0hdbltjSF1uMVtDQEhdKFtDSDNdKUMoPU8pW05IXVtDSDJdW0NIXTJbQ0gyXVtDSDJdW0NIMl1bQ0gyXVtDSDJdMg==

> <s_epik_cmdline>
J2VwaWtfcHl0aG9uJywgJy1waCcsICc3LjAnLCAnLXRuJywgJzgnLCAnLW1hJywgJzIwMCcsICctbWV0YWxfYmluZGluZycsICctaW1hZScsICc8aW5maWxlLm1hZT4nLCAnLW9tYWUnLCAnPG91dGZpbGUubWFlPic=

> <r_lp_tautomer_probability>
1

> <r_epik_Ionization_Penalty>
1.24899e-05

> <r_epik_Ionization_Penalty_Charging>
0

> <r_epik_Ionization_Penalty_Neutral>
1.24899e-05

> <r_epik_State_Penalty>
-0

> <r_epik_Charging_Adjusted_Penalty>
0

> <i_epik_Tot_Q>
0

> <i_epik_Tot_abs_Q>
0

> <r_epik_Metal_State_Penalty>
-0

> <b_epik_Metal_Only>
0

> <s_lp_Force_Field>
OPLS_2005

> <r_lp_Energy>
16.3067

> <b_lp_Chiralities_Consistent>
1

> <s_lp_Variant>
AV-unprocessed.smi:374-2

> <Gold.Version>
5.8.1

> <Gold.Id.Protein>
6NUR|6NUR_protein|mol2

> <Gold.PLP.Fitness>
43.9435

> <Gold.PLP.PLP>
-36.1716

> <Gold.PLP.part.hbond>
-2.0000

> <Gold.PLP.part.metal>
0.0000

> <Gold.PLP.part.buried>
-3.9113

> <Gold.PLP.part.nonpolar>
-31.3075

> <Gold.PLP.part.repulsive>
0.3704

> <Gold.PLP.ligand.clash>
0.0000

> <Gold.PLP.ligand.torsion>
0.5724

> <Gold.PLP.Chemscore.Hbond>
1.9440

> <Gold.PLP.Chemscore.CHOScore>
0.9864

> <Gold.PLP.Chemscore.Metal>
0.0000

> <Gold.Chemscore.Hbonds>
donor molecule, donor type, donor heavy atom, donor atom, acceptor molecule, acceptor atom, score
      P1  H  7989  7998       L1    17  0.95
      P1  H 10752 10765       L1    15  0.94
      L1  C    14    36       P1  7948  1.00

> <Gold.PLP.Chemscore.Internal.Correction>
0.1257

> <Gold.Rescore>
     Score         DG    S(hbond)    S(metal)    S(lipo)     H(rot)  DE(clash)    DE(int)     intcor
     12.83     -15.05       1.71        0.00      79.59       2.14       0.34       1.88       ----

> <Gold.Chemscore.Fitness>
12.8297

> <Gold.Chemscore.DG>
-15.0463

> <Gold.Chemscore.ZeroCoef>
-5.4800

> <Gold.Chemscore.Hbond>
1.7150

> <Gold.Chemscore.Metal>
0.0000

> <Gold.Chemscore.Lipo>
79.5938

> <Gold.Chemscore.Internal_Hbond>
0.0000

> <Gold.Chemscore.DEClash>
0.3406

> <Gold.Chemscore.DEInternal>
1.8761

> <Gold.Chemscore.Rot>
2.1383

> <Gold.Chemscore.Internal.Correction>
   9.000000E+99

> <Gold.Chemscore.Hbonds>
donor molecule, donor type, donor heavy atom, donor atom, acceptor molecule, acceptor atom, score
      P1  H  7989  7998       L1    17  0.21
      P1  H 10752 10765       L1    15  0.90

> <Gold.Chemscore.Hbond.Weighted>
-5.7279

> <Gold.Chemscore.Metal.Weighted>
-0.0000

> <Gold.Chemscore.Lipo.Weighted>
-9.3125

> <Gold.Chemscore.Internal_Hbond.Weighted>
0.0000

> <Gold.Chemscore.DEClash.Weighted>
0.3406

> <Gold.Chemscore.DEInternal.Weighted>
1.8761

> <Gold.Chemscore.Rot.Weighted>
5.4741

> <Gold.Chemscore.Internal.Correction.Weighted>
   9.000000E+99

> <Gold.Protein.RotatedTorsions>
[ 6907 6896 6895 6894 ] final   54.02 input  -60.11 | X-H torsion
[ 7974 7965 7964 7962 ] final   78.32 input  175.53 | X-H torsion
[ 8008 7997 7996 7995 ] final  -60.67 input   59.86 | X-H torsion
[ 10167 10162 10161 10158 ] final  -56.53 input  -65.29 | X-H torsion
[ 10718 10713 10712 10709 ] final   88.47 input   66.30 | X-H torsion
[ 10763 10752 10751 10750 ] final  163.72 input  -60.55 | X-H torsion
[ 11005 11000 10999 10996 ] final  148.05 input  -57.11 | X-H torsion

> <Gold.Protein.ActiveResidues>
 VAL166  LYS551  ARG553  GLY616  TRP617  ASP618  TYR619  PRO620  LYS621  CYS622 
 ASP623  PHE694  ASN695  SER759  ASP760  ASP761  ALA762  ILE779  LEU786  VAL792 
 PHE793  MET794  SER795  GLU796  ALA797  LYS798  CYS799  TRP800  GLU811  SER814 

> <Gold.Protein.RotatedAtoms>
  152.3396  134.7152  160.0267 H   0  0  0  0  0  0  0  0  0  0  0  0  # atno 6907 bound_to 6896
  151.7541  133.3324  159.3407 H   0  0  0  0  0  0  0  0  0  0  0  0  # atno 6908 bound_to 6896
  150.7472  134.6098  159.6124 H   0  0  0  0  0  0  0  0  0  0  0  0  # atno 6909 bound_to 6896
  145.6787  139.2517  143.1827 H   0  0  0  0  0  0  0  0  0  0  0  0  # atno 7974 bound_to 7965
  154.4410  140.1034  156.6311 H   0  0  0  0  0  0  0  0  0  0  0  0  # atno 8008 bound_to 7997
  155.5604  140.3487  155.4471 H   0  0  0  0  0  0  0  0  0  0  0  0  # atno 8009 bound_to 7997
  156.0464  140.1294  157.0088 H   0  0  0  0  0  0  0  0  0  0  0  0  # atno 8010 bound_to 7997
  140.6312  143.2460  151.5237 H   0  0  0  0  0  0  0  0  0  0  0  0  # atno 10167 bound_to 10162
  157.6949  131.0296  150.3279 H   0  0  0  0  0  0  0  0  0  0  0  0  # atno 10718 bound_to 10713
  154.2980  135.2759  155.2624 H   0  0  0  0  0  0  0  0  0  0  0  0  # atno 10763 bound_to 10752
  154.5073  135.5792  153.6581 H   0  0  0  0  0  0  0  0  0  0  0  0  # atno 10764 bound_to 10752
  152.9904  135.6172  154.3149 H   0  0  0  0  0  0  0  0  0  0  0  0  # atno 10765 bound_to 10752
  140.0927  134.9031  157.1675 H   0  0  0  0  0  0  0  0  0  0  0  0  # atno 11005 bound_to 11000
  146.0983  140.7574  142.9561 LP  0  0  0  0  0  0  0  0  0  0  0  0  # atno 17320 bound_to 7965
  144.7033  140.3747  143.7138 LP  0  0  0  0  0  0  0  0  0  0  0  0  # atno 17321 bound_to 7965
  139.5526  144.2357  152.1557 LP  0  0  0  0  0  0  0  0  0  0  0  0  # atno 17342 bound_to 10162
  140.1601  144.5033  150.6637 LP  0  0  0  0  0  0  0  0  0  0  0  0  # atno 17343 bound_to 10162
  156.3757  130.3871  149.7141 LP  0  0  0  0  0  0  0  0  0  0  0  0  # atno 17370 bound_to 10713
  156.4540  130.7920  151.2941 LP  0  0  0  0  0  0  0  0  0  0  0  0  # atno 17371 bound_to 10713
  140.3330  134.2789  155.7225 LP  0  0  0  0  0  0  0  0  0  0  0  0  # atno 17394 bound_to 11000
  141.2083  133.7782  157.0069 LP  0  0  0  0  0  0  0  0  0  0  0  0  # atno 17395 bound_to 11000

$$$$
