AV-unprocessed.smi:2233|AV-procd|sdf|9040|dock8
  -GOLD-   2272012243D 1   1.00000     0.00000
 Structure written by MMmdl.
 43 44  0  0  0  0  0  0  0  0  2 V2000
  150.7594  129.2643  154.5809 C   0  0  0  0  0  0  0  0  0  0  0  0
  150.0720  130.2046  154.2141 C   0  0  0  0  0  0  0  0  0  0  0  0
  149.2316  131.3356  153.7835 C   0  0  0  0  0  0  0  0  0  0  0  0
  149.3035  132.5745  154.6950 C   0  0  0  0  0  0  0  0  0  0  0  0
  148.4215  133.7498  154.2354 C   0  0  0  0  0  0  0  0  0  0  0  0
  148.3352  134.8641  155.2938 C   0  0  0  0  0  0  0  0  0  0  0  0
  147.5597  136.0922  154.8064 C   0  0  0  0  0  0  0  0  0  0  0  0
  146.3484  136.0127  154.6037 O   0  0  0  0  0  0  0  0  0  0  0  0
  148.2909  137.2089  154.6382 N   0  0  0  0  0  0  0  0  0  0  0  0
  147.8697  138.5058  154.2236 C   0  0  0  0  0  0  0  0  0  0  0  0
  146.6218  138.7486  153.5958 C   0  0  0  0  0  0  0  0  0  0  0  0
  146.2840  139.9984  153.2135 N   0  3  0  0  0  0  0  0  0  0  0  0
  147.0915  141.0636  153.3940 C   0  0  0  0  0  0  0  0  0  0  0  0
  148.3515  140.8909  153.9979 C   0  0  0  0  0  0  0  0  0  0  0  0
  148.7544  139.5996  154.4156 C   0  0  0  0  0  0  0  0  0  0  0  0
  150.0082  139.3985  155.0159 N   0  0  0  0  0  0  0  0  0  0  0  0
  150.9544  138.6723  154.1785 C   0  0  0  0  0  0  0  0  0  0  0  0
  152.2348  138.3711  154.9763 C   0  0  0  0  0  0  0  0  0  0  0  0
  152.7762  139.5872  155.4846 O   0  0  0  0  0  0  0  0  0  0  0  0
  151.8719  140.2516  156.3633 C   0  0  0  0  0  0  0  0  0  0  0  0
  150.5806  140.6027  155.6041 C   0  0  0  0  0  0  0  0  0  0  0  0
  151.3580  128.4404  154.8995 H   0  0  0  0  0  0  0  0  0  0  0  0
  149.5227  131.5978  152.7661 H   0  0  0  0  0  0  0  0  0  0  0  0
  148.2043  130.9738  153.7337 H   0  0  0  0  0  0  0  0  0  0  0  0
  149.0011  132.2789  155.7003 H   0  0  0  0  0  0  0  0  0  0  0  0
  150.3396  132.9062  154.7793 H   0  0  0  0  0  0  0  0  0  0  0  0
  148.8145  134.1620  153.3052 H   0  0  0  0  0  0  0  0  0  0  0  0
  147.4198  133.3801  154.0110 H   0  0  0  0  0  0  0  0  0  0  0  0
  147.8619  134.4723  156.1957 H   0  0  0  0  0  0  0  0  0  0  0  0
  149.3379  135.1823  155.5810 H   0  0  0  0  0  0  0  0  0  0  0  0
  149.2613  137.1420  154.9111 H   0  0  0  0  0  0  0  0  0  0  0  0
  145.8817  137.9961  153.3704 H   0  0  0  0  0  0  0  0  0  0  0  0
  146.7113  142.0135  153.0471 H   0  0  0  0  0  0  0  0  0  0  0  0
  148.9998  141.7440  154.1359 H   0  0  0  0  0  0  0  0  0  0  0  0
  150.5033  137.7426  153.8293 H   0  0  0  0  0  0  0  0  0  0  0  0
  151.2009  139.2643  153.2962 H   0  0  0  0  0  0  0  0  0  0  0  0
  152.0295  137.6809  155.7962 H   0  0  0  0  0  0  0  0  0  0  0  0
  152.9744  137.8927  154.3340 H   0  0  0  0  0  0  0  0  0  0  0  0
  151.6565  139.6196  157.2264 H   0  0  0  0  0  0  0  0  0  0  0  0
  152.3444  141.1581  156.7416 H   0  0  0  0  0  0  0  0  0  0  0  0
  150.7993  141.3305  154.8217 H   0  0  0  0  0  0  0  0  0  0  0  0
  149.8608  141.0625  156.2825 H   0  0  0  0  0  0  0  0  0  0  0  0
  145.3785  140.1423  152.7656 H   0  0  0  0  0  0  0  0  0  0  0  0
  1  2  3  0  0  0  0
  1 22  1  0  0  0  0
  2  3  1  0  0  0  0
  3  4  1  0  0  0  0
  3 23  1  0  0  0  0
  3 24  1  0  0  0  0
  4  5  1  0  0  0  0
  4 25  1  0  0  0  0
  4 26  1  0  0  0  0
  5  6  1  0  0  0  0
  5 27  1  0  0  0  0
  5 28  1  0  0  0  0
  6  7  1  0  0  0  0
  6 29  1  0  0  0  0
  6 30  1  0  0  0  0
  7  8  2  0  0  0  0
  7  9  1  0  0  0  0
  9 10  1  0  0  0  0
  9 31  1  0  0  0  0
 10 15  1  0  0  0  0
 10 11  2  0  0  0  0
 11 12  1  0  0  0  0
 11 32  1  0  0  0  0
 12 13  2  0  0  0  0
 12 43  1  0  0  0  0
 13 14  1  0  0  0  0
 13 33  1  0  0  0  0
 14 15  2  0  0  0  0
 14 34  1  0  0  0  0
 15 16  1  0  0  0  0
 16 21  1  0  0  0  0
 16 17  1  0  0  0  0
 17 18  1  0  0  0  0
 17 35  1  0  0  0  0
 17 36  1  0  0  0  0
 18 19  1  0  0  0  0
 18 37  1  0  0  0  0
 18 38  1  0  0  0  0
 19 20  1  0  0  0  0
 20 21  1  0  0  0  0
 20 39  1  0  0  0  0
 20 40  1  0  0  0  0
 21 41  1  0  0  0  0
 21 42  1  0  0  0  0
M  CHG  1  12   1
M  END
> <s_m_source_file>
AV-unprocessed.smi

> <i_m_source_file_index>
2233

> <i_lp_mmshare_version>
43012

> <i_f3d_flags>
0

> <s_epik_input>
W0NIXSNDW0NIMl1bQ0gyXVtDSDJdW0NIMl1DKD1PKVtOSF1jMVtjSF1uW2NIXVtjSF1jMU4yW0NIMl1bQ0gyXU9bQ0gyXVtDSDJdMg==

> <s_epik_cmdline>
J2VwaWtfcHl0aG9uJywgJy1waCcsICc3LjAnLCAnLXRuJywgJzgnLCAnLW1hJywgJzIwMCcsICctbWV0YWxfYmluZGluZycsICctaW1hZScsICc8aW5maWxlLm1hZT4nLCAnLW9tYWUnLCAnPG91dGZpbGUubWFlPic=

> <r_lp_tautomer_probability>
1

> <r_epik_Ionization_Penalty>
0.153155

> <r_epik_Ionization_Penalty_Charging>
0.153154

> <r_epik_Ionization_Penalty_Neutral>
1.2848e-06

> <r_epik_State_Penalty>
0.142445

> <r_epik_Charging_Adjusted_Penalty>
0.295599

> <i_epik_Tot_Q>
1

> <i_epik_Tot_abs_Q>
1

> <r_epik_Metal_State_Penalty>
0.464899

> <b_epik_Metal_Only>
0

> <s_lp_Force_Field>
OPLS_2005

> <r_lp_Energy>
30.3927

> <b_lp_Chiralities_Consistent>
1

> <s_lp_Variant>
AV-unprocessed.smi:2233-1

> <Gold.Version>
5.8.1

> <Gold.Id.Protein>
6NUR|6NUR_protein|mol2

> <Gold.PLP.Fitness>
43.6963

> <Gold.PLP.PLP>
-35.6622

> <Gold.PLP.part.hbond>
-3.1371

> <Gold.PLP.part.metal>
0.0000

> <Gold.PLP.part.buried>
-4.3917

> <Gold.PLP.part.nonpolar>
-28.5925

> <Gold.PLP.part.repulsive>
0.1405

> <Gold.PLP.ligand.clash>
0.0000

> <Gold.PLP.ligand.torsion>
0.5580

> <Gold.PLP.Chemscore.Hbond>
3.0000

> <Gold.PLP.Chemscore.CHOScore>
0.0000

> <Gold.PLP.Chemscore.Metal>
0.0000

> <Gold.Chemscore.Hbonds>
donor molecule, donor type, donor heavy atom, donor atom, acceptor molecule, acceptor atom, score
      L1  H    12    43       P1 10175  2.00
      P1  H  7997  8010       L1    19  0.99

> <Gold.PLP.Chemscore.Internal.Correction>
0.1501

> <Gold.Rescore>
     Score         DG    S(hbond)    S(metal)    S(lipo)     H(rot)  DE(clash)    DE(int)     intcor
     16.55     -18.45       1.89        0.00      90.61       1.54       0.07       1.83       ----

> <Gold.Chemscore.Fitness>
16.5462

> <Gold.Chemscore.DG>
-18.4479

> <Gold.Chemscore.ZeroCoef>
-5.4800

> <Gold.Chemscore.Hbond>
1.8874

> <Gold.Chemscore.Metal>
0.0000

> <Gold.Chemscore.Lipo>
90.6103

> <Gold.Chemscore.Internal_Hbond>
0.0000

> <Gold.Chemscore.DEClash>
0.0740

> <Gold.Chemscore.DEInternal>
1.8276

> <Gold.Chemscore.Rot>
1.5380

> <Gold.Chemscore.Internal.Correction>
   9.000000E+99

> <Gold.Chemscore.Hbonds>
donor molecule, donor type, donor heavy atom, donor atom, acceptor molecule, acceptor atom, score
      L1  H    12    43       P1 10175  0.97
      P1  H  7997  8010       L1    19  0.70

> <Gold.Chemscore.Hbond.Weighted>
-6.3038

> <Gold.Chemscore.Metal.Weighted>
-0.0000

> <Gold.Chemscore.Lipo.Weighted>
-10.6014

> <Gold.Chemscore.Internal_Hbond.Weighted>
0.0000

> <Gold.Chemscore.DEClash.Weighted>
0.0740

> <Gold.Chemscore.DEInternal.Weighted>
1.8276

> <Gold.Chemscore.Rot.Weighted>
3.9373

> <Gold.Chemscore.Internal.Correction.Weighted>
   9.000000E+99

> <Gold.Protein.RotatedTorsions>
[ 6907 6896 6895 6894 ] final -148.40 input  -60.11 | X-H torsion
[ 7974 7965 7964 7962 ] final   41.97 input  175.53 | X-H torsion
[ 8008 7997 7996 7995 ] final  114.25 input   59.86 | X-H torsion
[ 10167 10162 10161 10158 ] final -179.27 input  -65.29 | X-H torsion
[ 10718 10713 10712 10709 ] final  153.47 input   66.30 | X-H torsion
[ 10763 10752 10751 10750 ] final  -93.61 input  -60.55 | X-H torsion
[ 11005 11000 10999 10996 ] final -132.18 input  -57.11 | X-H torsion

> <Gold.Protein.ActiveResidues>
 VAL166  LYS551  ARG553  GLY616  TRP617  ASP618  TYR619  PRO620  LYS621  CYS622 
 ASP623  PHE694  ASN695  SER759  ASP760  ASP761  ALA762  ILE779  LEU786  VAL792 
 PHE793  MET794  SER795  GLU796  ALA797  LYS798  CYS799  TRP800  GLU811  SER814 

> <Gold.Protein.RotatedAtoms>
  151.1693  133.4794  159.2593 H   0  0  0  0  0  0  0  0  0  0  0  0  # atno 6907 bound_to 6896
  151.1372  135.0161  159.8619 H   0  0  0  0  0  0  0  0  0  0  0  0  # atno 6908 bound_to 6896
  152.5461  134.1590  159.8603 H   0  0  0  0  0  0  0  0  0  0  0  0  # atno 6909 bound_to 6896
  146.0779  139.5354  142.9556 H   0  0  0  0  0  0  0  0  0  0  0  0  # atno 7974 bound_to 7965
  156.2309  140.2963  156.0187 H   0  0  0  0  0  0  0  0  0  0  0  0  # atno 8008 bound_to 7997
  155.2226  140.0416  157.2967 H   0  0  0  0  0  0  0  0  0  0  0  0  # atno 8009 bound_to 7997
  154.5995  140.2423  155.7819 H   0  0  0  0  0  0  0  0  0  0  0  0  # atno 8010 bound_to 7997
  139.5394  144.2406  152.0863 H   0  0  0  0  0  0  0  0  0  0  0  0  # atno 10167 bound_to 10162
  157.2444  131.0766  151.1771 H   0  0  0  0  0  0  0  0  0  0  0  0  # atno 10718 bound_to 10713
  154.6976  135.5188  153.8480 H   0  0  0  0  0  0  0  0  0  0  0  0  # atno 10763 bound_to 10752
  153.0679  135.6591  154.0322 H   0  0  0  0  0  0  0  0  0  0  0  0  # atno 10764 bound_to 10752
  154.0187  135.2995  155.3363 H   0  0  0  0  0  0  0  0  0  0  0  0  # atno 10765 bound_to 10752
  140.9193  134.1465  157.4327 H   0  0  0  0  0  0  0  0  0  0  0  0  # atno 11005 bound_to 11000
  145.6272  141.0311  143.1883 LP  0  0  0  0  0  0  0  0  0  0  0  0  # atno 17320 bound_to 7965
  144.7274  139.7833  143.7360 LP  0  0  0  0  0  0  0  0  0  0  0  0  # atno 17321 bound_to 7965
  140.1882  144.4778  150.6493 LP  0  0  0  0  0  0  0  0  0  0  0  0  # atno 17342 bound_to 10162
  140.6617  143.2254  151.5841 LP  0  0  0  0  0  0  0  0  0  0  0  0  # atno 17343 bound_to 10162
  157.3345  130.7002  149.6344 LP  0  0  0  0  0  0  0  0  0  0  0  0  # atno 17370 bound_to 10713
  155.9668  130.4298  150.4847 LP  0  0  0  0  0  0  0  0  0  0  0  0  # atno 17371 bound_to 10713
  139.8772  134.9965  156.5800 LP  0  0  0  0  0  0  0  0  0  0  0  0  # atno 17394 bound_to 11000
  140.8009  133.8506  155.8725 LP  0  0  0  0  0  0  0  0  0  0  0  0  # atno 17395 bound_to 11000

$$$$
