AV-unprocessed.smi:69|AV-procd|sdf|645|dock1
  -GOLD-   2262016543D 1   1.00000     0.00000
 Structure written by MMmdl.
 32 34  0  0  0  0  0  0  0  0  1 V2000
  138.2111  136.7433  155.1362 N   0  0  0  0  0  0  0  0  0  0  0  0
  139.2565  137.1878  154.4249 C   0  0  0  0  0  0  0  0  0  0  0  0
  139.3057  138.5028  154.1088 N   0  0  0  0  0  0  0  0  0  0  0  0
  140.3388  138.9708  153.4014 C   0  0  0  0  0  0  0  0  0  0  0  0
  141.3949  138.3058  152.9261 N   0  0  0  0  0  0  0  0  0  0  0  0
  141.3462  136.9792  153.2448 C   0  0  0  0  0  0  0  0  0  0  0  0
  140.3115  136.3463  153.9893 C   0  0  0  0  0  0  0  0  0  0  0  0
  140.5855  134.9930  154.1249 N   0  0  0  0  0  0  0  0  0  0  0  0
  141.7214  134.8397  153.4993 C   0  0  0  0  0  0  0  0  0  0  0  0
  142.2493  135.9803  152.9328 N   0  0  0  0  0  0  0  0  0  0  0  0
  143.5402  136.0987  152.1805 C   0  0  2  0  0  0  0  0  0  0  0  0
  144.0791  134.8175  152.0346 O   0  0  0  0  0  0  0  0  0  0  0  0
  145.3354  134.7158  152.7037 C   0  0  1  0  0  0  0  0  0  0  0  0
  146.2479  133.6859  152.0140 C   0  0  0  0  0  0  0  0  0  0  0  0
  147.5448  133.7376  152.5693 O   0  0  0  0  0  0  0  0  0  0  0  0
  145.8529  136.1598  152.7170 C   0  0  1  0  0  0  0  0  0  0  0  0
  146.4842  136.4747  151.4851 O   0  0  0  0  0  0  0  0  0  0  0  0
  144.5694  136.9548  152.9348 C   0  0  1  0  0  0  0  0  0  0  0  0
  144.6816  138.2760  152.4386 O   0  0  0  0  0  0  0  0  0  0  0  0
  143.2734  136.4929  151.1987 H   0  0  0  0  0  0  0  0  0  0  0  0
  145.1656  134.4144  153.7373 H   0  0  0  0  0  0  0  0  0  0  0  0
  146.5709  136.3257  153.5209 H   0  0  0  0  0  0  0  0  0  0  0  0
  144.3300  136.9808  153.9980 H   0  0  0  0  0  0  0  0  0  0  0  0
  138.1516  135.7663  155.3850 H   0  0  0  0  0  0  0  0  0  0  0  0
  137.4887  137.3864  155.4259 H   0  0  0  0  0  0  0  0  0  0  0  0
  140.3163  140.0286  153.1846 H   0  0  0  0  0  0  0  0  0  0  0  0
  142.2105  133.8786  153.4347 H   0  0  0  0  0  0  0  0  0  0  0  0
  145.8425  132.6769  152.0946 H   0  0  0  0  0  0  0  0  0  0  0  0
  146.3396  133.9170  150.9523 H   0  0  0  0  0  0  0  0  0  0  0  0
  147.9452  134.5568  152.3211 H   0  0  0  0  0  0  0  0  0  0  0  0
  147.4201  136.4430  151.6155 H   0  0  0  0  0  0  0  0  0  0  0  0
  144.5526  138.2555  151.5027 H   0  0  0  0  0  0  0  0  0  0  0  0
  1  2  1  0  0  0  0
  1 24  1  0  0  0  0
  1 25  1  0  0  0  0
  2  7  1  0  0  0  0
  2  3  2  0  0  0  0
  3  4  1  0  0  0  0
  4  5  2  0  0  0  0
  4 26  1  0  0  0  0
  5  6  1  0  0  0  0
  6 10  1  0  0  0  0
  6  7  2  0  0  0  0
  7  8  1  0  0  0  0
  8  9  2  0  0  0  0
  9 10  1  0  0  0  0
  9 27  1  0  0  0  0
 10 11  1  0  0  0  0
 11 20  1  0  0  0  0
 11 18  1  0  0  0  0
 11 12  1  0  0  0  0
 12 13  1  0  0  0  0
 13 21  1  0  0  0  0
 13 14  1  0  0  0  0
 13 16  1  0  0  0  0
 14 15  1  0  0  0  0
 14 28  1  0  0  0  0
 14 29  1  0  0  0  0
 15 30  1  0  0  0  0
 16 22  1  0  0  0  0
 16 17  1  0  0  0  0
 16 18  1  0  0  0  0
 17 31  1  0  0  0  0
 18 23  1  0  0  0  0
 18 19  1  0  0  0  0
 19 32  1  0  0  0  0
M  END
> <s_m_source_file>
AV-unprocessed.smi

> <i_m_source_file_index>
69

> <i_lp_mmshare_version>
43012

> <i_f3d_flags>
0

> <s_epik_input>
bjFbY0hdbmMoW05IMl0pYyhjMTIpbltjSF1uMltDQEBIXTNPW0NASF0oW0NIMl1bT0hdKVtDQEBIXShbT0hdKVtDQEhdM1tPSF0=

> <s_epik_cmdline>
J2VwaWtfcHl0aG9uJywgJy1waCcsICc3LjAnLCAnLXRuJywgJzgnLCAnLW1hJywgJzIwMCcsICctbWV0YWxfYmluZGluZycsICctaW1hZScsICc8aW5maWxlLm1hZT4nLCAnLW9tYWUnLCAnPG91dGZpbGUubWFlPic=

> <r_lp_tautomer_probability>
1

> <r_epik_Ionization_Penalty>
0.000428445

> <r_epik_Ionization_Penalty_Charging>
0

> <r_epik_Ionization_Penalty_Neutral>
0.000428445

> <r_epik_State_Penalty>
-0

> <r_epik_Charging_Adjusted_Penalty>
0

> <i_epik_Tot_Q>
0

> <i_epik_Tot_abs_Q>
0

> <r_epik_Metal_State_Penalty>
-0

> <b_epik_Metal_Only>
0

> <s_epik_Chemistry_Notes>
This compound contains an acetal/aminal-like group ( X-CH(R)-Y where X, Y are N, S, or O) that may be acid/base labile, releasing an aldehyde.

> <s_lp_Force_Field>
OPLS_2005

> <r_lp_Energy>
42.3633

> <b_lp_Chiralities_Consistent>
1

> <s_lp_Variant>
AV-unprocessed.smi:69-3

> <Gold.Version>
5.8.1

> <Gold.Id.Protein>
6NUR|6NUR_protein|mol2

> <Gold.PLP.Fitness>
43.6100

> <Gold.PLP.PLP>
-26.9170

> <Gold.PLP.part.hbond>
-5.4020

> <Gold.PLP.part.metal>
0.0000

> <Gold.PLP.part.buried>
-6.0313

> <Gold.PLP.part.nonpolar>
-16.7455

> <Gold.PLP.part.repulsive>
1.0310

> <Gold.PLP.ligand.clash>
0.0000

> <Gold.PLP.ligand.torsion>
0.0850

> <Gold.PLP.Chemscore.Hbond>
4.0000

> <Gold.PLP.Chemscore.CHOScore>
1.6185

> <Gold.PLP.Chemscore.Metal>
0.0000

> <Gold.Chemscore.Hbonds>
donor molecule, donor type, donor heavy atom, donor atom, acceptor molecule, acceptor atom, score
      L1  H    15    30       P1  7948  1.00
      L1  H    17    31       P1  7948  1.00
      L1  H    19    32       P1 10171  1.00
      P1  H 11000 11005       L1     8  1.00
      L1  C     4    26       P1 10160  0.67
      L1  C     9    27       P1 10957  0.99

> <Gold.PLP.Chemscore.Internal.Correction>
0.0075

> <Gold.Rescore>
     Score         DG    S(hbond)    S(metal)    S(lipo)     H(rot)  DE(clash)    DE(int)     intcor
     10.19     -10.25       3.78        0.00      21.03       4.03       0.01       0.05       ----

> <Gold.Chemscore.Fitness>
10.1918

> <Gold.Chemscore.DG>
-10.2463

> <Gold.Chemscore.ZeroCoef>
-5.4800

> <Gold.Chemscore.Hbond>
3.7774

> <Gold.Chemscore.Metal>
0.0000

> <Gold.Chemscore.Lipo>
21.0314

> <Gold.Chemscore.Internal_Hbond>
0.0000

> <Gold.Chemscore.DEClash>
0.0069

> <Gold.Chemscore.DEInternal>
0.0477

> <Gold.Chemscore.Rot>
4.0277

> <Gold.Chemscore.Internal.Correction>
   9.000000E+99

> <Gold.Chemscore.Hbonds>
donor molecule, donor type, donor heavy atom, donor atom, acceptor molecule, acceptor atom, score
      L1  H    15    30       P1  7948  0.44
      L1  H    17    31       P1  7948  0.93
      L1  H    19    32       P1 10171  1.00
      P1  H 11000 11005       L1     8  0.89

> <Gold.Chemscore.Hbond.Weighted>
-12.6166

> <Gold.Chemscore.Metal.Weighted>
-0.0000

> <Gold.Chemscore.Lipo.Weighted>
-2.4607

> <Gold.Chemscore.Internal_Hbond.Weighted>
0.0000

> <Gold.Chemscore.DEClash.Weighted>
0.0069

> <Gold.Chemscore.DEInternal.Weighted>
0.0477

> <Gold.Chemscore.Rot.Weighted>
10.3110

> <Gold.Chemscore.Internal.Correction.Weighted>
   9.000000E+99

> <Gold.Protein.RotatedTorsions>
[ 6907 6896 6895 6894 ] final  -46.55 input  -60.11 | X-H torsion
[ 7974 7965 7964 7962 ] final -135.63 input  175.53 | X-H torsion
[ 8008 7997 7996 7995 ] final  134.62 input   59.86 | X-H torsion
[ 10167 10162 10161 10158 ] final  -88.96 input  -65.29 | X-H torsion
[ 10718 10713 10712 10709 ] final   21.87 input   66.30 | X-H torsion
[ 10763 10752 10751 10750 ] final   59.72 input  -60.55 | X-H torsion
[ 11005 11000 10999 10996 ] final   16.45 input  -57.11 | X-H torsion

> <Gold.Protein.ActiveResidues>
 VAL166  LYS551  ARG553  GLY616  TRP617  ASP618  TYR619  PRO620  LYS621  CYS622 
 ASP623  PHE694  ASN695  SER759  ASP760  ASP761  ALA762  ILE779  LEU786  VAL792 
 PHE793  MET794  SER795  GLU796  ALA797  LYS798  CYS799  TRP800  GLU811  SER814 

> <Gold.Protein.RotatedAtoms>
  150.9101  134.8517  159.7418 H   0  0  0  0  0  0  0  0  0  0  0  0  # atno 6907 bound_to 6896
  152.4939  134.4373  159.9541 H   0  0  0  0  0  0  0  0  0  0  0  0  # atno 6908 bound_to 6896
  151.4416  133.3602  159.2818 H   0  0  0  0  0  0  0  0  0  0  0  0  # atno 6909 bound_to 6896
  144.8997  140.6755  143.5092 H   0  0  0  0  0  0  0  0  0  0  0  0  # atno 7974 bound_to 7965
  156.3000  140.2491  156.3446 H   0  0  0  0  0  0  0  0  0  0  0  0  # atno 8008 bound_to 7997
  154.9022  140.0406  157.1919 H   0  0  0  0  0  0  0  0  0  0  0  0  # atno 8009 bound_to 7997
  154.8489  140.2902  155.5615 H   0  0  0  0  0  0  0  0  0  0  0  0  # atno 8010 bound_to 7997
  140.3695  143.2801  151.9517 H   0  0  0  0  0  0  0  0  0  0  0  0  # atno 10167 bound_to 10162
  157.1445  130.6647  149.5991 H   0  0  0  0  0  0  0  0  0  0  0  0  # atno 10718 bound_to 10713
  152.9902  135.5561  154.5759 H   0  0  0  0  0  0  0  0  0  0  0  0  # atno 10763 bound_to 10752
  154.5150  135.2804  155.1313 H   0  0  0  0  0  0  0  0  0  0  0  0  # atno 10764 bound_to 10752
  154.2689  135.6367  153.5355 H   0  0  0  0  0  0  0  0  0  0  0  0  # atno 10765 bound_to 10752
  140.4470  134.1263  155.7697 H   0  0  0  0  0  0  0  0  0  0  0  0  # atno 11005 bound_to 11000
  145.3637  139.1675  143.4369 LP  0  0  0  0  0  0  0  0  0  0  0  0  # atno 17320 bound_to 7965
  146.3101  140.3702  142.8673 LP  0  0  0  0  0  0  0  0  0  0  0  0  # atno 17321 bound_to 7965
  139.4805  144.5920  151.7756 LP  0  0  0  0  0  0  0  0  0  0  0  0  # atno 17342 bound_to 10162
  140.5047  144.1116  150.5979 LP  0  0  0  0  0  0  0  0  0  0  0  0  # atno 17343 bound_to 10162
  155.9782  130.4766  150.6641 LP  0  0  0  0  0  0  0  0  0  0  0  0  # atno 17370 bound_to 10713
  157.4277  131.0845  151.1069 LP  0  0  0  0  0  0  0  0  0  0  0  0  # atno 17371 bound_to 10713
  141.1681  133.8663  157.1655 LP  0  0  0  0  0  0  0  0  0  0  0  0  # atno 17394 bound_to 11000
  140.0032  135.0019  157.0235 LP  0  0  0  0  0  0  0  0  0  0  0  0  # atno 17395 bound_to 11000

$$$$
