AV-unprocessed.smi:2777|AV-procd|sdf|10709|dock3
  -GOLD-   2272015143D 1   1.00000     0.00000
 Structure written by MMmdl.
 31 32  0  0  0  0  0  0  0  0  1 V2000
  153.3136  137.7038  159.0706 C   0  0  0  0  0  0  0  0  0  0  0  0
  152.6078  138.4668  158.0236 N   0  0  0  0  0  0  0  0  0  0  0  0
  152.0515  139.6721  158.3638 C   0  0  0  0  0  0  0  0  0  0  0  0
  152.0888  140.1719  159.4884 O   0  0  0  0  0  0  0  0  0  0  0  0
  151.3782  140.3505  157.2512 C   0  0  0  0  0  0  0  0  0  0  0  0
  151.3084  139.8258  156.0037 C   0  0  0  0  0  0  0  0  0  0  0  0
  150.6130  140.6631  155.1389 N   0  0  0  0  0  0  0  0  0  0  0  0
  150.2918  141.6816  155.9373 C   0  0  0  0  0  0  0  0  0  0  0  0
  150.7101  141.5746  157.2150 N   0  0  0  0  0  0  0  0  0  0  0  0
  150.4854  142.5497  158.2718 C   0  0  0  0  0  0  0  0  0  0  0  0
  151.5662  143.6500  158.3056 C   0  0  1  0  0  0  0  0  0  0  0  0
  151.4434  144.4905  157.1736 O   0  0  0  0  0  0  0  0  0  0  0  0
  151.5002  144.5090  159.5826 C   0  0  0  0  0  0  0  0  0  0  0  0
  150.2653  144.9804  159.7561 F   0  0  0  0  0  0  0  0  0  0  0  0
  151.8638  143.8024  160.6537 F   0  0  0  0  0  0  0  0  0  0  0  0
  152.3238  145.5499  159.4593 F   0  0  0  0  0  0  0  0  0  0  0  0
  151.9147  138.5690  155.7588 N   0  0  0  0  0  0  0  0  0  0  0  0
  151.8158  138.0335  154.3980 C   0  0  0  0  0  0  0  0  0  0  0  0
  152.5638  137.8933  156.7638 C   0  0  0  0  0  0  0  0  0  0  0  0
  153.0942  136.8003  156.5476 O   0  0  0  0  0  0  0  0  0  0  0  0
  153.3348  138.1793  160.0516 H   0  0  0  0  0  0  0  0  0  0  0  0
  154.3538  137.5393  158.7849 H   0  0  0  0  0  0  0  0  0  0  0  0
  152.8462  136.7276  159.2102 H   0  0  0  0  0  0  0  0  0  0  0  0
  149.7327  142.5346  155.5815 H   0  0  0  0  0  0  0  0  0  0  0  0
  149.4903  142.9791  158.1652 H   0  0  0  0  0  0  0  0  0  0  0  0
  150.4764  142.0157  159.2226 H   0  0  0  0  0  0  0  0  0  0  0  0
  152.5489  143.1794  158.2526 H   0  0  0  0  0  0  0  0  0  0  0  0
  150.5704  144.3990  156.8242 H   0  0  0  0  0  0  0  0  0  0  0  0
  152.3034  137.0687  154.2559 H   0  0  0  0  0  0  0  0  0  0  0  0
  152.2664  138.7307  153.6908 H   0  0  0  0  0  0  0  0  0  0  0  0
  150.7676  137.9101  154.1233 H   0  0  0  0  0  0  0  0  0  0  0  0
  1  2  1  0  0  0  0
  1 21  1  0  0  0  0
  1 22  1  0  0  0  0
  1 23  1  0  0  0  0
  2 19  1  0  0  0  0
  2  3  1  0  0  0  0
  3  4  2  0  0  0  0
  3  5  1  0  0  0  0
  5  9  1  0  0  0  0
  5  6  2  0  0  0  0
  6  7  1  0  0  0  0
  6 17  1  0  0  0  0
  7  8  2  0  0  0  0
  8  9  1  0  0  0  0
  8 24  1  0  0  0  0
  9 10  1  0  0  0  0
 10 11  1  0  0  0  0
 10 25  1  0  0  0  0
 10 26  1  0  0  0  0
 11 12  1  0  0  0  0
 11 13  1  0  0  0  0
 11 27  1  0  0  0  0
 12 28  1  0  0  0  0
 13 14  1  0  0  0  0
 13 15  1  0  0  0  0
 13 16  1  0  0  0  0
 17 18  1  0  0  0  0
 17 19  1  0  0  0  0
 18 29  1  0  0  0  0
 18 30  1  0  0  0  0
 18 31  1  0  0  0  0
 19 20  2  0  0  0  0
M  END
> <s_m_source_file>
AV-unprocessed.smi

> <i_m_source_file_index>
2777

> <i_lp_mmshare_version>
43012

> <i_f3d_flags>
0

> <s_epik_input>
Tz1jMW4oW0NIM10pYyg9TyluKFtDSDNdKWMoYzEyKW5bY0hdbjJbQ0gyXVtDQEhdKFtPSF0pQyhGKShGKUY=

> <s_epik_cmdline>
J2VwaWtfcHl0aG9uJywgJy1waCcsICc3LjAnLCAnLXRuJywgJzgnLCAnLW1hJywgJzIwMCcsICctbWV0YWxfYmluZGluZycsICctaW1hZScsICc8aW5maWxlLm1hZT4nLCAnLW9tYWUnLCAnPG91dGZpbGUubWFlPic=

> <r_epik_Ionization_Penalty>
0.000551612

> <r_epik_Ionization_Penalty_Charging>
2.619e-09

> <r_epik_Ionization_Penalty_Neutral>
0.00055161

> <r_epik_State_Penalty>
0.000345115

> <r_epik_Charging_Adjusted_Penalty>
0.000345118

> <i_epik_Tot_Q>
0

> <i_epik_Tot_abs_Q>
0

> <r_epik_Metal_State_Penalty>
-0

> <b_epik_Metal_Only>
0

> <s_lp_Force_Field>
OPLS_2005

> <r_lp_Energy>
33.5503

> <b_lp_Chiralities_Consistent>
1

> <s_lp_Variant>
AV-unprocessed.smi:2777-2

> <Gold.Version>
5.8.1

> <Gold.Id.Protein>
6NUR|6NUR_protein|mol2

> <Gold.PLP.Fitness>
51.4376

> <Gold.PLP.PLP>
-41.6197

> <Gold.PLP.part.hbond>
-3.0000

> <Gold.PLP.part.metal>
0.0000

> <Gold.PLP.part.buried>
-5.4287

> <Gold.PLP.part.nonpolar>
-32.3361

> <Gold.PLP.part.repulsive>
0.0598

> <Gold.PLP.ligand.clash>
0.0000

> <Gold.PLP.ligand.torsion>
0.5695

> <Gold.PLP.Chemscore.Hbond>
2.6480

> <Gold.PLP.Chemscore.CHOScore>
1.0000

> <Gold.PLP.Chemscore.Metal>
0.0000

> <Gold.Chemscore.Hbonds>
donor molecule, donor type, donor heavy atom, donor atom, acceptor molecule, acceptor atom, score
      L1  H    12    28       P1  8028  0.98
      P1  H  7989  7998       L1     7  0.91
      P1  H 10752 10763       L1    20  0.70
      L1  C     8    24       P1  8028  1.00

> <Gold.PLP.Chemscore.Internal.Correction>
0.0129

> <Gold.Rescore>
     Score         DG    S(hbond)    S(metal)    S(lipo)     H(rot)  DE(clash)    DE(int)     intcor
     13.51     -14.19       2.60        0.00      48.43       2.20       0.18       0.50       ----

> <Gold.Chemscore.Fitness>
13.5084

> <Gold.Chemscore.DG>
-14.1924

> <Gold.Chemscore.ZeroCoef>
-5.4800

> <Gold.Chemscore.Hbond>
2.5960

> <Gold.Chemscore.Metal>
0.0000

> <Gold.Chemscore.Lipo>
48.4256

> <Gold.Chemscore.Internal_Hbond>
0.0000

> <Gold.Chemscore.DEClash>
0.1836

> <Gold.Chemscore.DEInternal>
0.5003

> <Gold.Chemscore.Rot>
2.1969

> <Gold.Chemscore.Internal.Correction>
   9.000000E+99

> <Gold.Chemscore.Hbonds>
donor molecule, donor type, donor heavy atom, donor atom, acceptor molecule, acceptor atom, score
      L1  H    12    28       P1  8028  0.87
      P1  H  7989  7998       L1     7  0.66
      P1  H 10752 10763       L1    20  0.68

> <Gold.Chemscore.Hbond.Weighted>
-8.6705

> <Gold.Chemscore.Metal.Weighted>
-0.0000

> <Gold.Chemscore.Lipo.Weighted>
-5.6658

> <Gold.Chemscore.Internal_Hbond.Weighted>
0.0000

> <Gold.Chemscore.DEClash.Weighted>
0.1836

> <Gold.Chemscore.DEInternal.Weighted>
0.5003

> <Gold.Chemscore.Rot.Weighted>
5.6239

> <Gold.Chemscore.Internal.Correction.Weighted>
   9.000000E+99

> <Gold.Protein.RotatedTorsions>
[ 6907 6896 6895 6894 ] final -135.24 input  -60.11 | X-H torsion
[ 7974 7965 7964 7962 ] final  172.82 input  175.53 | X-H torsion
[ 8008 7997 7996 7995 ] final -149.76 input   59.86 | X-H torsion
[ 10167 10162 10161 10158 ] final -132.15 input  -65.29 | X-H torsion
[ 10718 10713 10712 10709 ] final  160.59 input   66.30 | X-H torsion
[ 10763 10752 10751 10750 ] final  134.26 input  -60.55 | X-H torsion
[ 11005 11000 10999 10996 ] final  121.34 input  -57.11 | X-H torsion

> <Gold.Protein.ActiveResidues>
 VAL166  LYS551  ARG553  GLY616  TRP617  ASP618  TYR619  PRO620  LYS621  CYS622 
 ASP623  PHE694  ASN695  SER759  ASP760  ASP761  ALA762  ILE779  LEU786  VAL792 
 PHE793  MET794  SER795  GLU796  ALA797  LYS798  CYS799  TRP800  GLU811  SER814 

> <Gold.Protein.RotatedAtoms>
  150.9955  133.6107  159.2702 H   0  0  0  0  0  0  0  0  0  0  0  0  # atno 6907 bound_to 6896
  151.3313  135.0841  159.9349 H   0  0  0  0  0  0  0  0  0  0  0  0  # atno 6908 bound_to 6896
  152.5258  133.9584  159.7759 H   0  0  0  0  0  0  0  0  0  0  0  0  # atno 6909 bound_to 6896
  144.7258  139.9555  143.6433 H   0  0  0  0  0  0  0  0  0  0  0  0  # atno 7974 bound_to 7965
  155.6128  140.0673  157.2701 H   0  0  0  0  0  0  0  0  0  0  0  0  # atno 8008 bound_to 7997
  154.4249  140.1798  156.1338 H   0  0  0  0  0  0  0  0  0  0  0  0  # atno 8009 bound_to 7997
  156.0071  140.3330  155.6907 H   0  0  0  0  0  0  0  0  0  0  0  0  # atno 8010 bound_to 7997
  139.9116  143.6488  152.2574 H   0  0  0  0  0  0  0  0  0  0  0  0  # atno 10167 bound_to 10162
  157.1483  131.0558  151.2293 H   0  0  0  0  0  0  0  0  0  0  0  0  # atno 10718 bound_to 10713
  153.8206  135.3117  155.3410 H   0  0  0  0  0  0  0  0  0  0  0  0  # atno 10763 bound_to 10752
  154.8014  135.4724  154.0288 H   0  0  0  0  0  0  0  0  0  0  0  0  # atno 10764 bound_to 10752
  153.1696  135.6875  153.8717 H   0  0  0  0  0  0  0  0  0  0  0  0  # atno 10765 bound_to 10752
  139.9222  134.9638  156.7943 H   0  0  0  0  0  0  0  0  0  0  0  0  # atno 11005 bound_to 11000
  146.0678  139.3668  143.0542 LP  0  0  0  0  0  0  0  0  0  0  0  0  # atno 17320 bound_to 7965
  145.8008  140.9771  143.1000 LP  0  0  0  0  0  0  0  0  0  0  0  0  # atno 17321 bound_to 7965
  139.6938  144.7644  151.1392 LP  0  0  0  0  0  0  0  0  0  0  0  0  # atno 17342 bound_to 10162
  140.7684  143.5552  150.9160 LP  0  0  0  0  0  0  0  0  0  0  0  0  # atno 17343 bound_to 10162
  157.4244  130.7455  149.6939 LP  0  0  0  0  0  0  0  0  0  0  0  0  # atno 17370 bound_to 10713
  155.9775  130.4062  150.3707 LP  0  0  0  0  0  0  0  0  0  0  0  0  # atno 17371 bound_to 10713
  140.6442  133.9791  155.7722 LP  0  0  0  0  0  0  0  0  0  0  0  0  # atno 17394 bound_to 11000
  141.0751  134.0147  157.3469 LP  0  0  0  0  0  0  0  0  0  0  0  0  # atno 17395 bound_to 11000

$$$$
