AV-unprocessed.smi:1644|AV-procd|sdf|6587|dock7
  -GOLD-   22720 7283D 1   1.00000     0.00000
 Structure written by MMmdl.
 49 51  0  0  0  0  0  0  0  0  1 V2000
  143.8499  145.3915  155.3168 C   0  0  0  0  0  0  0  0  0  0  0  0
  144.5409  144.1149  155.8071 C   0  0  0  0  0  0  0  0  0  0  0  0
  144.0386  143.6713  157.1962 C   0  0  0  0  0  0  0  0  0  0  0  0
  144.7508  142.4433  157.8075 C   0  0  1  0  0  0  0  0  0  0  0  0
  144.7322  141.2815  156.9434 N   0  0  0  0  0  0  0  0  0  0  0  0
  145.9617  140.8298  156.6651 C   0  0  0  0  0  0  0  0  0  0  0  0
  146.2112  139.8638  155.9458 O   0  0  0  0  0  0  0  0  0  0  0  0
  146.8584  141.6076  157.3026 N   0  0  0  0  0  0  0  0  0  0  0  0
  148.3157  141.4225  157.2413 C   0  0  0  0  0  0  0  0  0  0  0  0
  148.8846  141.3090  155.8032 C   0  0  1  0  0  0  0  0  0  0  0  0
  148.1236  142.1597  154.9720 O   0  0  0  0  0  0  0  0  0  0  0  0
  150.3709  141.6951  155.6213 C   0  0  0  0  0  0  0  0  0  0  0  0
  151.2668  141.1200  156.6098 N   0  0  0  0  0  0  0  0  0  0  0  0
  151.9159  139.9431  156.5163 C   0  0  0  0  0  0  0  0  0  0  0  0
  152.7022  139.5974  157.5311 N   0  0  0  0  0  0  0  0  0  0  0  0
  152.5260  140.6636  158.3948 C   0  0  0  0  0  0  0  0  0  0  0  0
  153.0983  140.9184  159.6599 C   0  0  0  0  0  0  0  0  0  0  0  0
  152.7760  142.0915  160.3780 C   0  0  0  0  0  0  0  0  0  0  0  0
  153.4221  142.3303  161.7311 C   0  0  0  0  0  0  0  0  0  0  0  0
  151.8590  143.0264  159.8351 C   0  0  0  0  0  0  0  0  0  0  0  0
  151.4972  144.2949  160.5872 C   0  0  0  0  0  0  0  0  0  0  0  0
  151.2735  142.7841  158.5753 C   0  0  0  0  0  0  0  0  0  0  0  0
  151.6168  141.6230  157.8600 C   0  0  0  0  0  0  0  0  0  0  0  0
  146.2515  142.6024  157.9653 C   0  0  0  0  0  0  0  0  0  0  0  0
  146.7822  143.5072  158.6092 O   0  0  0  0  0  0  0  0  0  0  0  0
  144.2133  145.6738  154.3286 H   0  0  0  0  0  0  0  0  0  0  0  0
  144.0394  146.2261  155.9921 H   0  0  0  0  0  0  0  0  0  0  0  0
  142.7706  145.2535  155.2473 H   0  0  0  0  0  0  0  0  0  0  0  0
  144.3715  143.3213  155.0788 H   0  0  0  0  0  0  0  0  0  0  0  0
  145.6174  144.2861  155.8327 H   0  0  0  0  0  0  0  0  0  0  0  0
  144.1206  144.5084  157.8908 H   0  0  0  0  0  0  0  0  0  0  0  0
  142.9727  143.4507  157.1279 H   0  0  0  0  0  0  0  0  0  0  0  0
  144.3125  142.1856  158.7724 H   0  0  0  0  0  0  0  0  0  0  0  0
  143.8791  140.8715  156.5916 H   0  0  0  0  0  0  0  0  0  0  0  0
  148.7585  142.2881  157.7375 H   0  0  0  0  0  0  0  0  0  0  0  0
  148.6342  140.5605  157.8296 H   0  0  0  0  0  0  0  0  0  0  0  0
  148.7220  140.3046  155.4172 H   0  0  0  0  0  0  0  0  0  0  0  0
  148.5569  142.9982  154.9233 H   0  0  0  0  0  0  0  0  0  0  0  0
  150.7192  141.3803  154.6366 H   0  0  0  0  0  0  0  0  0  0  0  0
  150.4758  142.7807  155.6534 H   0  0  0  0  0  0  0  0  0  0  0  0
  151.8228  139.3129  155.6439 H   0  0  0  0  0  0  0  0  0  0  0  0
  153.7934  140.2032  160.0742 H   0  0  0  0  0  0  0  0  0  0  0  0
  152.6621  142.4137  162.5082 H   0  0  0  0  0  0  0  0  0  0  0  0
  154.0068  143.2502  161.7176 H   0  0  0  0  0  0  0  0  0  0  0  0
  154.0908  141.5133  162.0034 H   0  0  0  0  0  0  0  0  0  0  0  0
  150.8032  144.9116  160.0159 H   0  0  0  0  0  0  0  0  0  0  0  0
  152.3887  144.8906  160.7835 H   0  0  0  0  0  0  0  0  0  0  0  0
  151.0247  144.0525  161.5391 H   0  0  0  0  0  0  0  0  0  0  0  0
  150.5760  143.4921  158.1544 H   0  0  0  0  0  0  0  0  0  0  0  0
  1  2  1  0  0  0  0
  1 26  1  0  0  0  0
  1 27  1  0  0  0  0
  1 28  1  0  0  0  0
  2  3  1  0  0  0  0
  2 29  1  0  0  0  0
  2 30  1  0  0  0  0
  3  4  1  0  0  0  0
  3 31  1  0  0  0  0
  3 32  1  0  0  0  0
  4 24  1  0  0  0  0
  4  5  1  0  0  0  0
  4 33  1  0  0  0  0
  5  6  1  0  0  0  0
  5 34  1  0  0  0  0
  6  7  2  0  0  0  0
  6  8  1  0  0  0  0
  8  9  1  0  0  0  0
  8 24  1  0  0  0  0
  9 10  1  0  0  0  0
  9 35  1  0  0  0  0
  9 36  1  0  0  0  0
 10 11  1  0  0  0  0
 10 12  1  0  0  0  0
 10 37  1  0  0  0  0
 11 38  1  0  0  0  0
 12 13  1  0  0  0  0
 12 39  1  0  0  0  0
 12 40  1  0  0  0  0
 13 23  1  0  0  0  0
 13 14  1  0  0  0  0
 14 15  2  0  0  0  0
 14 41  1  0  0  0  0
 15 16  1  0  0  0  0
 16 23  2  0  0  0  0
 16 17  1  0  0  0  0
 17 18  2  0  0  0  0
 17 42  1  0  0  0  0
 18 19  1  0  0  0  0
 18 20  1  0  0  0  0
 19 43  1  0  0  0  0
 19 44  1  0  0  0  0
 19 45  1  0  0  0  0
 20 21  1  0  0  0  0
 20 22  2  0  0  0  0
 21 46  1  0  0  0  0
 21 47  1  0  0  0  0
 21 48  1  0  0  0  0
 22 23  1  0  0  0  0
 22 49  1  0  0  0  0
 24 25  2  0  0  0  0
M  END
> <s_m_source_file>
AV-unprocessed.smi

> <i_m_source_file_index>
1644

> <i_lp_mmshare_version>
43012

> <i_f3d_flags>
0

> <s_epik_input>
W0NIM11bQ0gyXVtDSDJdW0NAQEhdMVtOSF1DKD1PKU4oQzE9TylbQ0gyXVtDQEhdKFtPSF0pW0NIMl1uKFtjSF1uMiljKGMyMylbY0hdYyhbQ0gzXSljKFtjSF0zKVtDSDNd

> <s_epik_cmdline>
J2VwaWtfcHl0aG9uJywgJy1waCcsICc3LjAnLCAnLXRuJywgJzgnLCAnLW1hJywgJzIwMCcsICctbWV0YWxfYmluZGluZycsICctaW1hZScsICc8aW5maWxlLm1hZT4nLCAnLW9tYWUnLCAnPG91dGZpbGUubWFlPic=

> <r_lp_tautomer_probability>
1

> <r_epik_Ionization_Penalty>
0.10693

> <r_epik_Ionization_Penalty_Charging>
0

> <r_epik_Ionization_Penalty_Neutral>
0.10693

> <r_epik_State_Penalty>
0.096713

> <r_epik_Charging_Adjusted_Penalty>
0.096713

> <i_epik_Tot_Q>
0

> <i_epik_Tot_abs_Q>
0

> <r_epik_Metal_State_Penalty>
0.102757

> <b_epik_Metal_Only>
0

> <s_lp_Force_Field>
OPLS_2005

> <r_lp_Energy>
20.3603

> <b_lp_Chiralities_Consistent>
1

> <s_lp_Variant>
AV-unprocessed.smi:1644-4

> <Gold.Version>
5.8.1

> <Gold.Id.Protein>
6NUR|6NUR_protein|mol2

> <Gold.PLP.Fitness>
45.3507

> <Gold.PLP.PLP>
-40.8391

> <Gold.PLP.part.hbond>
-2.0000

> <Gold.PLP.part.metal>
0.0000

> <Gold.PLP.part.buried>
-6.9423

> <Gold.PLP.part.nonpolar>
-32.0385

> <Gold.PLP.part.repulsive>
1.0857

> <Gold.PLP.ligand.clash>
0.0000

> <Gold.PLP.ligand.torsion>
0.7937

> <Gold.PLP.Chemscore.Hbond>
2.0000

> <Gold.PLP.Chemscore.CHOScore>
0.0000

> <Gold.PLP.Chemscore.Metal>
0.0000

> <Gold.Chemscore.Hbonds>
donor molecule, donor type, donor heavy atom, donor atom, acceptor molecule, acceptor atom, score
      L1  H    11    38       P1  8028  0.99
      P1  H  7997  8009       L1    15  0.95

> <Gold.PLP.Chemscore.Internal.Correction>
0.0989

> <Gold.Rescore>
     Score         DG    S(hbond)    S(metal)    S(lipo)     H(rot)  DE(clash)    DE(int)     intcor
     14.41     -15.34       1.55        0.00      99.62       2.72       0.16       0.76       ----

> <Gold.Chemscore.Fitness>
14.4141

> <Gold.Chemscore.DG>
-15.3355

> <Gold.Chemscore.ZeroCoef>
-5.4800

> <Gold.Chemscore.Hbond>
1.5468

> <Gold.Chemscore.Metal>
0.0000

> <Gold.Chemscore.Lipo>
99.6185

> <Gold.Chemscore.Internal_Hbond>
0.0000

> <Gold.Chemscore.DEClash>
0.1648

> <Gold.Chemscore.DEInternal>
0.7566

> <Gold.Chemscore.Rot>
2.7212

> <Gold.Chemscore.Internal.Correction>
   9.000000E+99

> <Gold.Chemscore.Hbonds>
donor molecule, donor type, donor heavy atom, donor atom, acceptor molecule, acceptor atom, score
      L1  H    11    38       P1  8028  0.94
      P1  H  7997  8009       L1    15  0.05

> <Gold.Chemscore.Hbond.Weighted>
-5.1664

> <Gold.Chemscore.Metal.Weighted>
-0.0000

> <Gold.Chemscore.Lipo.Weighted>
-11.6554

> <Gold.Chemscore.Internal_Hbond.Weighted>
0.0000

> <Gold.Chemscore.DEClash.Weighted>
0.1648

> <Gold.Chemscore.DEInternal.Weighted>
0.7566

> <Gold.Chemscore.Rot.Weighted>
6.9663

> <Gold.Chemscore.Internal.Correction.Weighted>
   9.000000E+99

> <Gold.Protein.RotatedTorsions>
[ 6907 6896 6895 6894 ] final   87.55 input  -60.11 | X-H torsion
[ 7974 7965 7964 7962 ] final  -65.10 input  175.53 | X-H torsion
[ 8008 7997 7996 7995 ] final  173.76 input   59.86 | X-H torsion
[ 10167 10162 10161 10158 ] final   -3.52 input  -65.29 | X-H torsion
[ 10718 10713 10712 10709 ] final -108.83 input   66.30 | X-H torsion
[ 10763 10752 10751 10750 ] final  -96.87 input  -60.55 | X-H torsion
[ 11005 11000 10999 10996 ] final   78.72 input  -57.11 | X-H torsion

> <Gold.Protein.ActiveResidues>
 VAL166  LYS551  ARG553  GLY616  TRP617  ASP618  TYR619  PRO620  LYS621  CYS622 
 ASP623  PHE694  ASN695  SER759  ASP760  ASP761  ALA762  ILE779  LEU786  VAL792 
 PHE793  MET794  SER795  GLU796  ALA797  LYS798  CYS799  TRP800  GLU811  SER814 

> <Gold.Protein.RotatedAtoms>
  152.5413  134.2259  159.8805 H   0  0  0  0  0  0  0  0  0  0  0  0  # atno 6907 bound_to 6896
  151.2233  133.4483  159.2609 H   0  0  0  0  0  0  0  0  0  0  0  0  # atno 6908 bound_to 6896
  151.0784  134.9856  159.8400 H   0  0  0  0  0  0  0  0  0  0  0  0  # atno 6909 bound_to 6896
  145.7585  140.8873  143.0442 H   0  0  0  0  0  0  0  0  0  0  0  0  # atno 7974 bound_to 7965
  156.1043  140.1452  156.9425 H   0  0  0  0  0  0  0  0  0  0  0  0  # atno 8008 bound_to 7997
  154.4723  140.0905  156.7221 H   0  0  0  0  0  0  0  0  0  0  0  0  # atno 8009 bound_to 7997
  155.4706  140.3441  155.4327 H   0  0  0  0  0  0  0  0  0  0  0  0  # atno 8010 bound_to 7997
  140.6893  143.6530  150.8333 H   0  0  0  0  0  0  0  0  0  0  0  0  # atno 10167 bound_to 10162
  156.0505  130.5733  150.8015 H   0  0  0  0  0  0  0  0  0  0  0  0  # atno 10718 bound_to 10713
  154.7278  135.5067  153.8914 H   0  0  0  0  0  0  0  0  0  0  0  0  # atno 10763 bound_to 10752
  153.0921  135.6662  153.9843 H   0  0  0  0  0  0  0  0  0  0  0  0  # atno 10764 bound_to 10752
  153.9651  135.3044  155.3410 H   0  0  0  0  0  0  0  0  0  0  0  0  # atno 10765 bound_to 10752
  139.9201  134.7785  156.1685 H   0  0  0  0  0  0  0  0  0  0  0  0  # atno 11005 bound_to 11000
  144.6835  139.9690  143.7482 LP  0  0  0  0  0  0  0  0  0  0  0  0  # atno 17320 bound_to 7965
  146.0287  139.3315  143.0768 LP  0  0  0  0  0  0  0  0  0  0  0  0  # atno 17321 bound_to 7965
  140.0241  143.5512  152.2788 LP  0  0  0  0  0  0  0  0  0  0  0  0  # atno 17342 bound_to 10162
  139.6281  144.7640  151.2595 LP  0  0  0  0  0  0  0  0  0  0  0  0  # atno 17343 bound_to 10162
  157.5427  131.0941  150.9805 LP  0  0  0  0  0  0  0  0  0  0  0  0  # atno 17370 bound_to 10713
  157.0084  130.5627  149.5318 LP  0  0  0  0  0  0  0  0  0  0  0  0  # atno 17371 bound_to 10713
  141.0714  133.6795  156.2149 LP  0  0  0  0  0  0  0  0  0  0  0  0  # atno 17394 bound_to 11000
  140.6500  134.5077  157.5576 LP  0  0  0  0  0  0  0  0  0  0  0  0  # atno 17395 bound_to 11000

$$$$
