AV-unprocessed.smi:20|AV-procd|sdf|114|dock9
  -GOLD-   2262015283D 1   1.00000     0.00000
 Structure written by MMmdl.
 57 61  0  0  0  0  0  0  0  0  1 V2000
  145.1496  142.2657  157.1765 O   0  0  0  0  0  0  0  0  0  0  0  0
  145.8458  142.1803  156.1678 C   0  0  0  0  0  0  0  0  0  0  0  0
  147.1100  141.3421  156.0821 C   0  0  0  0  0  0  0  0  0  0  0  0
  147.3734  141.2535  154.5603 C   0  0  1  0  0  0  0  0  0  0  0  0
  148.8762  141.2731  154.1973 C   0  0  0  0  0  0  0  0  0  0  0  0
  149.5770  139.9720  154.6228 C   0  0  0  0  0  0  0  0  0  0  0  0
  148.8630  138.7426  154.0405 C   0  0  0  0  0  0  0  0  0  0  0  0
  147.4407  138.7704  154.3778 N   0  0  0  0  0  0  0  0  0  0  0  0
  146.7331  137.6168  154.2878 C   0  0  0  0  0  0  0  0  0  0  0  0
  146.5261  136.8596  155.3983 N   0  0  0  0  0  0  0  0  0  0  0  0
  145.8403  135.7154  155.3165 C   0  0  0  0  0  0  0  0  0  0  0  0
  145.2827  135.1512  154.2435 N   0  0  0  0  0  0  0  0  0  0  0  0
  145.4793  135.9111  153.1286 C   0  0  0  0  0  0  0  0  0  0  0  0
  146.1835  137.1460  153.0618 C   0  0  0  0  0  0  0  0  0  0  0  0
  146.1613  137.6325  151.7593 N   0  0  0  0  0  0  0  0  0  0  0  0
  145.4936  136.7308  151.0926 C   0  0  0  0  0  0  0  0  0  0  0  0
  145.0543  135.6595  151.8369 N   0  0  0  0  0  0  0  0  0  0  0  0
  144.2996  134.5150  151.3593 C   0  0  0  0  0  0  0  0  0  0  0  0
  145.0263  133.7362  150.2345 C   0  0  2  0  0  0  0  0  0  0  0  0
  144.0451  133.1099  149.2136 C   0  0  0  0  0  0  0  0  0  0  0  0
  143.5135  134.0863  148.3413 O   0  0  0  0  0  0  0  0  0  0  0  0
  146.0229  132.6976  150.8084 C   0  0  2  0  0  0  0  0  0  0  0  0
  145.3855  131.5964  151.6379 C   0  0  0  0  0  0  0  0  0  0  0  0
  146.5748  131.0546  152.4226 C   0  0  0  0  0  0  0  0  0  0  0  0
  147.4276  132.1715  152.6441 O   0  0  0  0  0  0  0  0  0  0  0  0
  147.0254  133.2623  151.8212 C   0  0  0  0  0  0  0  0  0  0  0  0
  146.7256  139.9778  153.9645 C   0  0  0  0  0  0  0  0  0  0  0  0
  146.6406  142.5019  154.0170 C   0  0  0  0  0  0  0  0  0  0  0  0
  145.6205  142.7914  155.0068 N   0  0  0  0  0  0  0  0  0  0  0  0
  147.9111  141.8690  156.6018 H   0  0  0  0  0  0  0  0  0  0  0  0
  146.9783  140.3691  156.5565 H   0  0  0  0  0  0  0  0  0  0  0  0
  148.9872  141.4000  153.1194 H   0  0  0  0  0  0  0  0  0  0  0  0
  149.3704  142.1293  154.6577 H   0  0  0  0  0  0  0  0  0  0  0  0
  150.6182  139.9850  154.3000 H   0  0  0  0  0  0  0  0  0  0  0  0
  149.5928  139.9023  155.7111 H   0  0  0  0  0  0  0  0  0  0  0  0
  148.9741  138.7237  152.9557 H   0  0  0  0  0  0  0  0  0  0  0  0
  149.3277  137.8357  154.4299 H   0  0  0  0  0  0  0  0  0  0  0  0
  145.7230  135.1737  156.2434 H   0  0  0  0  0  0  0  0  0  0  0  0
  145.3083  136.8191  150.0318 H   0  0  0  0  0  0  0  0  0  0  0  0
  144.1082  133.8680  152.2154 H   0  0  0  0  0  0  0  0  0  0  0  0
  143.3260  134.8626  151.0115 H   0  0  0  0  0  0  0  0  0  0  0  0
  145.6158  134.4660  149.6777 H   0  0  0  0  0  0  0  0  0  0  0  0
  144.5378  132.3409  148.6185 H   0  0  0  0  0  0  0  0  0  0  0  0
  143.2212  132.6095  149.7218 H   0  0  0  0  0  0  0  0  0  0  0  0
  142.7237  134.4346  148.7261 H   0  0  0  0  0  0  0  0  0  0  0  0
  146.5786  132.2328  149.9922 H   0  0  0  0  0  0  0  0  0  0  0  0
  144.6451  132.0131  152.3224 H   0  0  0  0  0  0  0  0  0  0  0  0
  144.9002  130.8274  151.0363 H   0  0  0  0  0  0  0  0  0  0  0  0
  146.2778  130.5855  153.3606 H   0  0  0  0  0  0  0  0  0  0  0  0
  147.1166  130.3162  151.8303 H   0  0  0  0  0  0  0  0  0  0  0  0
  147.8867  133.7257  151.3397 H   0  0  0  0  0  0  0  0  0  0  0  0
  146.5527  134.0113  152.4580 H   0  0  0  0  0  0  0  0  0  0  0  0
  145.6711  139.9338  154.2349 H   0  0  0  0  0  0  0  0  0  0  0  0
  146.7543  140.0240  152.8749 H   0  0  0  0  0  0  0  0  0  0  0  0
  147.3088  143.3619  153.9514 H   0  0  0  0  0  0  0  0  0  0  0  0
  146.2034  142.3433  153.0307 H   0  0  0  0  0  0  0  0  0  0  0  0
  144.8372  143.4025  154.8259 H   0  0  0  0  0  0  0  0  0  0  0  0
  1  2  2  0  0  0  0
  2 29  1  0  0  0  0
  2  3  1  0  0  0  0
  3  4  1  0  0  0  0
  3 30  1  0  0  0  0
  3 31  1  0  0  0  0
  4 27  1  0  0  0  0
  4  5  1  0  0  0  0
  4 28  1  0  0  0  0
  5  6  1  0  0  0  0
  5 32  1  0  0  0  0
  5 33  1  0  0  0  0
  6  7  1  0  0  0  0
  6 34  1  0  0  0  0
  6 35  1  0  0  0  0
  7  8  1  0  0  0  0
  7 36  1  0  0  0  0
  7 37  1  0  0  0  0
  8  9  1  0  0  0  0
  8 27  1  0  0  0  0
  9 14  1  0  0  0  0
  9 10  2  0  0  0  0
 10 11  1  0  0  0  0
 11 12  2  0  0  0  0
 11 38  1  0  0  0  0
 12 13  1  0  0  0  0
 13 17  1  0  0  0  0
 13 14  2  0  0  0  0
 14 15  1  0  0  0  0
 15 16  2  0  0  0  0
 16 17  1  0  0  0  0
 16 39  1  0  0  0  0
 17 18  1  0  0  0  0
 18 19  1  0  0  0  0
 18 40  1  0  0  0  0
 18 41  1  0  0  0  0
 19 20  1  0  0  0  0
 19 22  1  0  0  0  0
 19 42  1  0  0  0  0
 20 21  1  0  0  0  0
 20 43  1  0  0  0  0
 20 44  1  0  0  0  0
 21 45  1  0  0  0  0
 22 26  1  0  0  0  0
 22 23  1  0  0  0  0
 22 46  1  0  0  0  0
 23 24  1  0  0  0  0
 23 47  1  0  0  0  0
 23 48  1  0  0  0  0
 24 25  1  0  0  0  0
 24 49  1  0  0  0  0
 24 50  1  0  0  0  0
 25 26  1  0  0  0  0
 26 51  1  0  0  0  0
 26 52  1  0  0  0  0
 27 53  1  0  0  0  0
 27 54  1  0  0  0  0
 28 29  1  0  0  0  0
 28 55  1  0  0  0  0
 28 56  1  0  0  0  0
 29 57  1  0  0  0  0
M  END
> <s_m_source_file>
AV-unprocessed.smi

> <i_m_source_file_index>
20

> <i_lp_mmshare_version>
43012

> <i_f3d_flags>
0

> <s_epik_input>
W0NIMl0xW05IXUMoPU8pW0NIMl1bQ0BAXTEyW0NIMl1bQ0gyXVtDSDJdTihbQ0gyXTIpYyhuW2NIXW4zKWMoYzM0KW5bY0hdbjRbQ0gyXVtDQEhdKFtDSDJdW09IXSlbQ0BASF01W0NIMl1bQ0gyXU9bQ0gyXTU=

> <s_epik_cmdline>
J2VwaWtfcHl0aG9uJywgJy1waCcsICc3LjAnLCAnLXRuJywgJzgnLCAnLW1hJywgJzIwMCcsICctbWV0YWxfYmluZGluZycsICctaW1hZScsICc8aW5maWxlLm1hZT4nLCAnLW9tYWUnLCAnPG91dGZpbGUubWFlPic=

> <r_lp_tautomer_probability>
1

> <r_epik_Ionization_Penalty>
0.0019697

> <r_epik_Ionization_Penalty_Charging>
0

> <r_epik_Ionization_Penalty_Neutral>
0.0019697

> <r_epik_State_Penalty>
0.00113613

> <r_epik_Charging_Adjusted_Penalty>
0.00113613

> <i_epik_Tot_Q>
0

> <i_epik_Tot_abs_Q>
0

> <r_epik_Metal_State_Penalty>
-0

> <b_epik_Metal_Only>
0

> <s_lp_Force_Field>
OPLS_2005

> <r_lp_Energy>
58.2949

> <b_lp_Chiralities_Consistent>
1

> <s_lp_Variant>
AV-unprocessed.smi:20-2

> <Gold.Version>
5.8.1

> <Gold.Id.Protein>
6NUR|6NUR_protein|mol2

> <Gold.PLP.Fitness>
44.6698

> <Gold.PLP.PLP>
-41.2552

> <Gold.PLP.part.hbond>
-2.0000

> <Gold.PLP.part.metal>
0.0000

> <Gold.PLP.part.buried>
-4.5264

> <Gold.PLP.part.nonpolar>
-35.2838

> <Gold.PLP.part.repulsive>
1.0861

> <Gold.PLP.ligand.clash>
0.0000

> <Gold.PLP.ligand.torsion>
0.8835

> <Gold.PLP.Chemscore.Hbond>
1.0000

> <Gold.PLP.Chemscore.CHOScore>
0.5416

> <Gold.PLP.Chemscore.Metal>
0.0000

> <Gold.Chemscore.Hbonds>
donor molecule, donor type, donor heavy atom, donor atom, acceptor molecule, acceptor atom, score
      L1  H    21    45       P1 10186  1.00
      L1  C    16    39       P1 10171  0.53

> <Gold.PLP.Chemscore.Internal.Correction>
0.5567

> <Gold.Rescore>
     Score         DG    S(hbond)    S(metal)    S(lipo)     H(rot)  DE(clash)    DE(int)     intcor
     11.38     -13.45       0.99        0.00      99.83       2.74       0.05       2.02       ----

> <Gold.Chemscore.Fitness>
11.3788

> <Gold.Chemscore.DG>
-13.4525

> <Gold.Chemscore.ZeroCoef>
-5.4800

> <Gold.Chemscore.Hbond>
0.9913

> <Gold.Chemscore.Metal>
0.0000

> <Gold.Chemscore.Lipo>
99.8280

> <Gold.Chemscore.Internal_Hbond>
0.0000

> <Gold.Chemscore.DEClash>
0.0533

> <Gold.Chemscore.DEInternal>
2.0205

> <Gold.Chemscore.Rot>
2.7415

> <Gold.Chemscore.Internal.Correction>
   9.000000E+99

> <Gold.Chemscore.Hbonds>
donor molecule, donor type, donor heavy atom, donor atom, acceptor molecule, acceptor atom, score
      L1  H    21    45       P1 10186  0.99

> <Gold.Chemscore.Hbond.Weighted>
-3.3108

> <Gold.Chemscore.Metal.Weighted>
-0.0000

> <Gold.Chemscore.Lipo.Weighted>
-11.6799

> <Gold.Chemscore.Internal_Hbond.Weighted>
0.0000

> <Gold.Chemscore.DEClash.Weighted>
0.0533

> <Gold.Chemscore.DEInternal.Weighted>
2.0205

> <Gold.Chemscore.Rot.Weighted>
7.0182

> <Gold.Chemscore.Internal.Correction.Weighted>
   9.000000E+99

> <Gold.Protein.RotatedTorsions>
[ 6907 6896 6895 6894 ] final  -94.67 input  -60.11 | X-H torsion
[ 7974 7965 7964 7962 ] final  -37.15 input  175.53 | X-H torsion
[ 8008 7997 7996 7995 ] final   36.32 input   59.86 | X-H torsion
[ 10167 10162 10161 10158 ] final -109.98 input  -65.29 | X-H torsion
[ 10718 10713 10712 10709 ] final    8.10 input   66.30 | X-H torsion
[ 10763 10752 10751 10750 ] final   69.30 input  -60.55 | X-H torsion
[ 11005 11000 10999 10996 ] final -163.73 input  -57.11 | X-H torsion

> <Gold.Protein.ActiveResidues>
 VAL166  LYS551  ARG553  GLY616  TRP617  ASP618  TYR619  PRO620  LYS621  CYS622 
 ASP623  PHE694  ASN695  SER759  ASP760  ASP761  ALA762  ILE779  LEU786  VAL792 
 PHE793  MET794  SER795  GLU796  ALA797  LYS798  CYS799  TRP800  GLU811  SER814 

> <Gold.Protein.RotatedAtoms>
  150.6947  134.1776  159.4236 H   0  0  0  0  0  0  0  0  0  0  0  0  # atno 6907 bound_to 6896
  151.9752  135.0054  160.0564 H   0  0  0  0  0  0  0  0  0  0  0  0  # atno 6908 bound_to 6896
  152.1805  133.4669  159.4993 H   0  0  0  0  0  0  0  0  0  0  0  0  # atno 6909 bound_to 6896
  146.0600  140.6362  142.9001 H   0  0  0  0  0  0  0  0  0  0  0  0  # atno 7974 bound_to 7965
  155.1854  140.3303  155.4367 H   0  0  0  0  0  0  0  0  0  0  0  0  # atno 8008 bound_to 7997
  156.2461  140.1919  156.6900 H   0  0  0  0  0  0  0  0  0  0  0  0  # atno 8009 bound_to 7997
  154.6242  140.0591  156.9639 H   0  0  0  0  0  0  0  0  0  0  0  0  # atno 8010 bound_to 7997
  140.1494  143.4211  152.1505 H   0  0  0  0  0  0  0  0  0  0  0  0  # atno 10167 bound_to 10162
  156.9466  130.5881  149.5655 H   0  0  0  0  0  0  0  0  0  0  0  0  # atno 10718 bound_to 10713
  153.0280  135.5216  154.7267 H   0  0  0  0  0  0  0  0  0  0  0  0  # atno 10763 bound_to 10752
  154.6306  135.2900  155.0223 H   0  0  0  0  0  0  0  0  0  0  0  0  # atno 10764 bound_to 10752
  154.1176  135.6612  153.4949 H   0  0  0  0  0  0  0  0  0  0  0  0  # atno 10765 bound_to 10752
  140.5948  134.5008  157.5197 H   0  0  0  0  0  0  0  0  0  0  0  0  # atno 11005 bound_to 11000
  144.7169  140.4241  143.7037 LP  0  0  0  0  0  0  0  0  0  0  0  0  # atno 17320 bound_to 7965
  145.6577  139.1576  143.2826 LP  0  0  0  0  0  0  0  0  0  0  0  0  # atno 17321 bound_to 7965
  139.5433  144.7276  151.4664 LP  0  0  0  0  0  0  0  0  0  0  0  0  # atno 17342 bound_to 10162
  140.6711  143.8291  150.7001 LP  0  0  0  0  0  0  0  0  0  0  0  0  # atno 17343 bound_to 10162
  156.0381  130.5466  150.8703 LP  0  0  0  0  0  0  0  0  0  0  0  0  # atno 17370 bound_to 10713
  157.5749  131.0946  150.9360 LP  0  0  0  0  0  0  0  0  0  0  0  0  # atno 17371 bound_to 10713
  139.9258  134.8059  156.1073 LP  0  0  0  0  0  0  0  0  0  0  0  0  # atno 17394 bound_to 11000
  141.0911  133.6714  156.2543 LP  0  0  0  0  0  0  0  0  0  0  0  0  # atno 17395 bound_to 11000

$$$$
