AV-unprocessed.smi:1998|AV-procd|sdf|8091|dock9
  -GOLD-   2272010313D 1   1.00000     0.00000
 Structure written by MMmdl.
 48 49  0  0  0  0  0  0  0  0  2 V2000
  153.8046  140.8775  160.4486 C   0  0  0  0  0  0  0  0  0  0  0  0
  152.9899  141.9008  159.7137 C   0  0  0  0  0  0  0  0  0  0  0  0
  152.7581  143.2603  160.0642 C   0  0  0  0  0  0  0  0  0  0  0  0
  151.9572  143.7349  159.0639 C   0  0  0  0  0  0  0  0  0  0  0  0
  151.3705  145.0929  158.8603 C   0  0  0  0  0  0  0  0  0  0  0  0
  151.7463  142.6856  158.1870 N   0  0  0  0  0  0  0  0  0  0  0  0
  150.9638  142.6589  156.9592 C   0  0  0  0  0  0  0  0  0  0  0  0
  149.8784  141.5754  156.9671 C   0  0  0  0  0  0  0  0  0  0  0  0
  149.9921  140.5641  157.6612 O   0  0  0  0  0  0  0  0  0  0  0  0
  148.8245  141.8014  156.1672 N   0  0  0  0  0  0  0  0  0  0  0  0
  147.6816  140.9061  155.9845 C   0  0  0  0  0  0  0  0  0  0  0  0
  146.6784  141.3747  154.8854 C   0  0  0  0  0  0  0  0  0  0  0  0
  145.5308  142.1421  155.5948 C   0  0  0  0  0  0  0  0  0  0  0  0
  147.3615  142.3548  153.8999 C   0  0  0  0  0  0  0  0  0  0  0  0
  146.1548  140.1553  154.1640 N   0  3  0  0  0  0  0  0  0  0  0  0
  147.0627  139.5461  153.1493 C   0  0  0  0  0  0  0  0  0  0  0  0
  146.3573  138.4062  152.3926 C   0  0  0  0  0  0  0  0  0  0  0  0
  145.8808  137.4311  153.3076 O   0  0  0  0  0  0  0  0  0  0  0  0
  144.9330  137.9822  154.2090 C   0  0  0  0  0  0  0  0  0  0  0  0
  145.6092  139.0807  155.0436 C   0  0  0  0  0  0  0  0  0  0  0  0
  152.3827  141.5632  158.5879 N   0  0  0  0  0  0  0  0  0  0  0  0
  154.2655  141.3063  161.3386 H   0  0  0  0  0  0  0  0  0  0  0  0
  154.6030  140.4842  159.8188 H   0  0  0  0  0  0  0  0  0  0  0  0
  153.1861  140.0381  160.7672 H   0  0  0  0  0  0  0  0  0  0  0  0
  153.1243  143.8049  160.9221 H   0  0  0  0  0  0  0  0  0  0  0  0
  151.6204  145.7533  159.6908 H   0  0  0  0  0  0  0  0  0  0  0  0
  150.2841  145.0413  158.7884 H   0  0  0  0  0  0  0  0  0  0  0  0
  151.7511  145.5465  157.9451 H   0  0  0  0  0  0  0  0  0  0  0  0
  150.5088  143.6394  156.8146 H   0  0  0  0  0  0  0  0  0  0  0  0
  151.6300  142.4899  156.1118 H   0  0  0  0  0  0  0  0  0  0  0  0
  148.8189  142.6575  155.6317 H   0  0  0  0  0  0  0  0  0  0  0  0
  148.0525  139.9005  155.7919 H   0  0  0  0  0  0  0  0  0  0  0  0
  147.1655  140.8446  156.9433 H   0  0  0  0  0  0  0  0  0  0  0  0
  145.9031  142.9679  156.2011 H   0  0  0  0  0  0  0  0  0  0  0  0
  144.9610  141.4885  156.2561 H   0  0  0  0  0  0  0  0  0  0  0  0
  144.8386  142.5958  154.8853 H   0  0  0  0  0  0  0  0  0  0  0  0
  147.6172  143.2966  154.3863 H   0  0  0  0  0  0  0  0  0  0  0  0
  146.7122  142.6013  153.0599 H   0  0  0  0  0  0  0  0  0  0  0  0
  148.2899  141.9497  153.4969 H   0  0  0  0  0  0  0  0  0  0  0  0
  147.3740  140.2720  152.4001 H   0  0  0  0  0  0  0  0  0  0  0  0
  147.9643  139.1701  153.6343 H   0  0  0  0  0  0  0  0  0  0  0  0
  145.5307  138.7913  151.7933 H   0  0  0  0  0  0  0  0  0  0  0  0
  147.0528  137.9292  151.7018 H   0  0  0  0  0  0  0  0  0  0  0  0
  144.0713  138.3739  153.6657 H   0  0  0  0  0  0  0  0  0  0  0  0
  144.5652  137.1889  154.8599 H   0  0  0  0  0  0  0  0  0  0  0  0
  146.4116  138.6291  155.6281 H   0  0  0  0  0  0  0  0  0  0  0  0
  144.8813  139.4690  155.7522 H   0  0  0  0  0  0  0  0  0  0  0  0
  145.3677  140.4945  153.6294 H   0  0  0  0  0  0  0  0  0  0  0  0
  1  2  1  0  0  0  0
  1 22  1  0  0  0  0
  1 23  1  0  0  0  0
  1 24  1  0  0  0  0
  2 21  2  0  0  0  0
  2  3  1  0  0  0  0
  3  4  2  0  0  0  0
  3 25  1  0  0  0  0
  4  5  1  0  0  0  0
  4  6  1  0  0  0  0
  5 26  1  0  0  0  0
  5 27  1  0  0  0  0
  5 28  1  0  0  0  0
  6  7  1  0  0  0  0
  6 21  1  0  0  0  0
  7  8  1  0  0  0  0
  7 29  1  0  0  0  0
  7 30  1  0  0  0  0
  8  9  2  0  0  0  0
  8 10  1  0  0  0  0
 10 11  1  0  0  0  0
 10 31  1  0  0  0  0
 11 12  1  0  0  0  0
 11 32  1  0  0  0  0
 11 33  1  0  0  0  0
 12 13  1  0  0  0  0
 12 14  1  0  0  0  0
 12 15  1  0  0  0  0
 13 34  1  0  0  0  0
 13 35  1  0  0  0  0
 13 36  1  0  0  0  0
 14 37  1  0  0  0  0
 14 38  1  0  0  0  0
 14 39  1  0  0  0  0
 15 20  1  0  0  0  0
 15 16  1  0  0  0  0
 15 48  1  0  0  0  0
 16 17  1  0  0  0  0
 16 40  1  0  0  0  0
 16 41  1  0  0  0  0
 17 18  1  0  0  0  0
 17 42  1  0  0  0  0
 17 43  1  0  0  0  0
 18 19  1  0  0  0  0
 19 20  1  0  0  0  0
 19 44  1  0  0  0  0
 19 45  1  0  0  0  0
 20 46  1  0  0  0  0
 20 47  1  0  0  0  0
M  CHG  1  15   1
M  END
> <s_m_source_file>
AV-unprocessed.smi

> <i_m_source_file_index>
1998

> <i_lp_mmshare_version>
43012

> <i_f3d_flags>
0

> <s_epik_input>
W0NIM11jMVtjSF1jKFtDSDNdKW4objEpW0NIMl1DKD1PKVtOSF1bQ0gyXUMoW0NIM10pKFtDSDNdKU4yW0NIMl1bQ0gyXU9bQ0gyXVtDSDJdMg==

> <s_epik_cmdline>
J2VwaWtfcHl0aG9uJywgJy1waCcsICc3LjAnLCAnLXRuJywgJzgnLCAnLW1hJywgJzIwMCcsICctbWV0YWxfYmluZGluZycsICctaW1hZScsICc8aW5maWxlLm1hZT4nLCAnLW9tYWUnLCAnPG91dGZpbGUubWFlPic=

> <r_lp_tautomer_probability>
1

> <r_epik_Ionization_Penalty>
0.748602

> <r_epik_Ionization_Penalty_Charging>
0.748396

> <r_epik_Ionization_Penalty_Neutral>
0.000205295

> <r_epik_State_Penalty>
0.775162

> <r_epik_Charging_Adjusted_Penalty>
1.52356

> <i_epik_Tot_Q>
1

> <i_epik_Tot_abs_Q>
1

> <r_epik_Metal_State_Penalty>
0.775274

> <b_epik_Metal_Only>
0

> <s_lp_Force_Field>
OPLS_2005

> <r_lp_Energy>
25.5475

> <b_lp_Chiralities_Consistent>
1

> <s_lp_Variant>
AV-unprocessed.smi:1998-2

> <Gold.Version>
5.8.1

> <Gold.Id.Protein>
6NUR|6NUR_protein|mol2

> <Gold.PLP.Fitness>
45.2892

> <Gold.PLP.PLP>
-39.2372

> <Gold.PLP.part.hbond>
-2.0000

> <Gold.PLP.part.metal>
0.0000

> <Gold.PLP.part.buried>
-3.6928

> <Gold.PLP.part.nonpolar>
-34.1606

> <Gold.PLP.part.repulsive>
0.2396

> <Gold.PLP.ligand.clash>
0.0000

> <Gold.PLP.ligand.torsion>
1.3958

> <Gold.PLP.Chemscore.Hbond>
2.9120

> <Gold.PLP.Chemscore.CHOScore>
0.0000

> <Gold.PLP.Chemscore.Metal>
0.0000

> <Gold.Chemscore.Hbonds>
donor molecule, donor type, donor heavy atom, donor atom, acceptor molecule, acceptor atom, score
      L1  H    10    31       P1  8028  0.89
      L1  H    15    48       P1 10175  1.95

> <Gold.PLP.Chemscore.Internal.Correction>
0.1077

> <Gold.Rescore>
     Score         DG    S(hbond)    S(metal)    S(lipo)     H(rot)  DE(clash)    DE(int)     intcor
     16.16     -19.15       1.81        0.00     103.12       1.74       0.13       2.86       ----

> <Gold.Chemscore.Fitness>
16.1582

> <Gold.Chemscore.DG>
-19.1503

> <Gold.Chemscore.ZeroCoef>
-5.4800

> <Gold.Chemscore.Hbond>
1.8130

> <Gold.Chemscore.Metal>
0.0000

> <Gold.Chemscore.Lipo>
103.1197

> <Gold.Chemscore.Internal_Hbond>
0.0000

> <Gold.Chemscore.DEClash>
0.1336

> <Gold.Chemscore.DEInternal>
2.8585

> <Gold.Chemscore.Rot>
1.7383

> <Gold.Chemscore.Internal.Correction>
   9.000000E+99

> <Gold.Chemscore.Hbonds>
donor molecule, donor type, donor heavy atom, donor atom, acceptor molecule, acceptor atom, score
      L1  H    10    31       P1  8028  0.82
      L1  H    15    48       P1 10175  0.91

> <Gold.Chemscore.Hbond.Weighted>
-6.0555

> <Gold.Chemscore.Metal.Weighted>
-0.0000

> <Gold.Chemscore.Lipo.Weighted>
-12.0650

> <Gold.Chemscore.Internal_Hbond.Weighted>
0.0000

> <Gold.Chemscore.DEClash.Weighted>
0.1336

> <Gold.Chemscore.DEInternal.Weighted>
2.8585

> <Gold.Chemscore.Rot.Weighted>
4.4501

> <Gold.Chemscore.Internal.Correction.Weighted>
   9.000000E+99

> <Gold.Protein.RotatedTorsions>
[ 6907 6896 6895 6894 ] final  -18.85 input  -60.11 | X-H torsion
[ 7974 7965 7964 7962 ] final  -44.64 input  175.53 | X-H torsion
[ 8008 7997 7996 7995 ] final   95.99 input   59.86 | X-H torsion
[ 10167 10162 10161 10158 ] final -162.43 input  -65.29 | X-H torsion
[ 10718 10713 10712 10709 ] final  140.48 input   66.30 | X-H torsion
[ 10763 10752 10751 10750 ] final  -75.57 input  -60.55 | X-H torsion
[ 11005 11000 10999 10996 ] final    5.56 input  -57.11 | X-H torsion

> <Gold.Protein.ActiveResidues>
 VAL166  LYS551  ARG553  GLY616  TRP617  ASP618  TYR619  PRO620  LYS621  CYS622 
 ASP623  PHE694  ASN695  SER759  ASP760  ASP761  ALA762  ILE779  LEU786  VAL792 
 PHE793  MET794  SER795  GLU796  ALA797  LYS798  CYS799  TRP800  GLU811  SER814 

> <Gold.Protein.RotatedAtoms>
  151.2719  135.0687  159.9136 H   0  0  0  0  0  0  0  0  0  0  0  0  # atno 6907 bound_to 6896
  152.5349  134.0121  159.7953 H   0  0  0  0  0  0  0  0  0  0  0  0  # atno 6908 bound_to 6896
  151.0361  133.5697  159.2686 H   0  0  0  0  0  0  0  0  0  0  0  0  # atno 6909 bound_to 6896
  145.9900  140.7191  142.9321 H   0  0  0  0  0  0  0  0  0  0  0  0  # atno 7974 bound_to 7965
  156.0748  140.3279  155.7620 H   0  0  0  0  0  0  0  0  0  0  0  0  # atno 8008 bound_to 7997
  155.5248  140.0588  157.2917 H   0  0  0  0  0  0  0  0  0  0  0  0  # atno 8009 bound_to 7997
  154.4549  140.1937  156.0425 H   0  0  0  0  0  0  0  0  0  0  0  0  # atno 8010 bound_to 7997
  139.6393  144.0291  152.2079 H   0  0  0  0  0  0  0  0  0  0  0  0  # atno 10167 bound_to 10162
  157.4028  131.1019  151.0534 H   0  0  0  0  0  0  0  0  0  0  0  0  # atno 10718 bound_to 10713
  154.4883  135.5826  153.6440 H   0  0  0  0  0  0  0  0  0  0  0  0  # atno 10763 bound_to 10752
  152.9858  135.6106  154.3157 H   0  0  0  0  0  0  0  0  0  0  0  0  # atno 10764 bound_to 10752
  154.3054  135.2846  155.2570 H   0  0  0  0  0  0  0  0  0  0  0  0  # atno 10765 bound_to 10752
  140.5693  134.0118  155.8002 H   0  0  0  0  0  0  0  0  0  0  0  0  # atno 11005 bound_to 11000
  144.6886  140.3053  143.7257 LP  0  0  0  0  0  0  0  0  0  0  0  0  # atno 17320 bound_to 7965
  145.7644  139.1835  143.2248 LP  0  0  0  0  0  0  0  0  0  0  0  0  # atno 17321 bound_to 7965
  139.9976  144.6316  150.7758 LP  0  0  0  0  0  0  0  0  0  0  0  0  # atno 17342 bound_to 10162
  140.7482  143.2918  151.3309 LP  0  0  0  0  0  0  0  0  0  0  0  0  # atno 17343 bound_to 10162
  157.1527  130.6191  149.5587 LP  0  0  0  0  0  0  0  0  0  0  0  0  # atno 17370 bound_to 10713
  155.9828  130.4843  150.6899 LP  0  0  0  0  0  0  0  0  0  0  0  0  # atno 17371 bound_to 10713
  141.1066  133.9683  157.2985 LP  0  0  0  0  0  0  0  0  0  0  0  0  # atno 17394 bound_to 11000
  139.9369  135.0195  156.8586 LP  0  0  0  0  0  0  0  0  0  0  0  0  # atno 17395 bound_to 11000

$$$$
