AV-unprocessed.smi:3348|AV-procd|sdf|12917|dock1
  -GOLD-   2272019333D 1   1.00000     0.00000
 Structure written by MMmdl.
 47 48  0  0  0  0  0  0  0  0  2 V2000
  146.1210  135.0471  152.6401 C   0  0  0  0  0  0  0  0  0  0  0  0
  145.3312  135.9854  151.7173 C   0  0  2  0  0  0  0  0  0  0  0  0
  144.8014  135.2080  150.4907 C   0  0  0  0  0  0  0  0  0  0  0  0
  145.0515  133.7792  150.5493 N   0  0  0  0  0  0  0  0  0  0  0  0
  144.1338  132.7515  150.6152 C   0  0  0  0  0  0  0  0  0  0  0  0
  144.8361  131.5806  150.6351 C   0  0  0  0  0  0  0  0  0  0  0  0
  146.1943  131.9993  150.5655 C   0  0  0  0  0  0  0  0  0  0  0  0
  146.3196  133.3156  150.5089 N   0  0  0  0  0  0  0  0  0  0  0  0
  146.2028  137.1159  151.3198 N   0  3  0  0  0  0  0  0  0  0  0  0
  146.2652  138.2423  152.2757 C   0  0  0  0  0  0  0  0  0  0  0  0
  147.3140  139.2705  151.8434 C   0  0  0  0  0  0  0  0  0  0  0  0
  147.2447  140.3792  152.7264 O   0  0  0  0  0  0  0  0  0  0  0  0
  147.2531  140.0395  154.1091 C   0  0  1  0  0  0  0  0  0  0  0  0
  148.3127  138.9516  154.3872 C   0  0  0  0  0  0  0  0  0  0  0  0
  149.7364  139.4626  154.1115 C   0  0  0  0  0  0  0  0  0  0  0  0
  150.0352  140.7368  154.9157 C   0  0  0  0  0  0  0  0  0  0  0  0
  148.9849  141.8270  154.6485 C   0  0  0  0  0  0  0  0  0  0  0  0
  147.5557  141.3171  154.9237 C   0  0  1  0  0  0  0  0  0  0  0  0
  146.5023  142.4119  154.6920 C   0  0  0  0  0  0  0  0  0  0  0  0
  145.4958  134.2266  152.9937 H   0  0  0  0  0  0  0  0  0  0  0  0
  146.4908  135.5776  153.5184 H   0  0  0  0  0  0  0  0  0  0  0  0
  146.9796  134.6129  152.1266 H   0  0  0  0  0  0  0  0  0  0  0  0
  144.4921  136.3692  152.2997 H   0  0  0  0  0  0  0  0  0  0  0  0
  143.7294  135.3712  150.3712 H   0  0  0  0  0  0  0  0  0  0  0  0
  145.2719  135.5833  149.5808 H   0  0  0  0  0  0  0  0  0  0  0  0
  143.0699  132.9357  150.6446 H   0  0  0  0  0  0  0  0  0  0  0  0
  144.4395  130.5774  150.6860 H   0  0  0  0  0  0  0  0  0  0  0  0
  147.0862  131.3902  150.5525 H   0  0  0  0  0  0  0  0  0  0  0  0
  147.1435  136.7557  151.2423 H   0  0  0  0  0  0  0  0  0  0  0  0
  145.2936  138.7293  152.3369 H   0  0  0  0  0  0  0  0  0  0  0  0
  146.5013  137.8709  153.2738 H   0  0  0  0  0  0  0  0  0  0  0  0
  148.3118  138.8293  151.8577 H   0  0  0  0  0  0  0  0  0  0  0  0
  147.1094  139.5850  150.8200 H   0  0  0  0  0  0  0  0  0  0  0  0
  146.2690  139.6707  154.4045 H   0  0  0  0  0  0  0  0  0  0  0  0
  148.2414  138.6417  155.4305 H   0  0  0  0  0  0  0  0  0  0  0  0
  148.1187  138.0563  153.7974 H   0  0  0  0  0  0  0  0  0  0  0  0
  150.4636  138.6889  154.3592 H   0  0  0  0  0  0  0  0  0  0  0  0
  149.8542  139.6658  153.0463 H   0  0  0  0  0  0  0  0  0  0  0  0
  150.0534  140.5002  155.9803 H   0  0  0  0  0  0  0  0  0  0  0  0
  151.0292  141.1084  154.6654 H   0  0  0  0  0  0  0  0  0  0  0  0
  149.1978  142.6956  155.2727 H   0  0  0  0  0  0  0  0  0  0  0  0
  149.0662  142.1655  153.6147 H   0  0  0  0  0  0  0  0  0  0  0  0
  147.5039  141.0486  155.9801 H   0  0  0  0  0  0  0  0  0  0  0  0
  146.5066  142.7598  153.6586 H   0  0  0  0  0  0  0  0  0  0  0  0
  146.6882  143.2749  155.3321 H   0  0  0  0  0  0  0  0  0  0  0  0
  145.5000  142.0462  154.9165 H   0  0  0  0  0  0  0  0  0  0  0  0
  145.9173  137.4529  150.4116 H   0  0  0  0  0  0  0  0  0  0  0  0
  1  2  1  0  0  0  0
  1 20  1  0  0  0  0
  1 21  1  0  0  0  0
  1 22  1  0  0  0  0
  2  3  1  0  0  0  0
  2  9  1  0  0  0  0
  2 23  1  0  0  0  0
  3  4  1  0  0  0  0
  3 24  1  0  0  0  0
  3 25  1  0  0  0  0
  4  8  1  0  0  0  0
  4  5  1  0  0  0  0
  5  6  2  0  0  0  0
  5 26  1  0  0  0  0
  6  7  1  0  0  0  0
  6 27  1  0  0  0  0
  7  8  2  0  0  0  0
  7 28  1  0  0  0  0
  9 10  1  0  0  0  0
  9 29  1  0  0  0  0
  9 47  1  0  0  0  0
 10 11  1  0  0  0  0
 10 30  1  0  0  0  0
 10 31  1  0  0  0  0
 11 12  1  0  0  0  0
 11 32  1  0  0  0  0
 11 33  1  0  0  0  0
 12 13  1  0  0  0  0
 13 18  1  0  0  0  0
 13 14  1  0  0  0  0
 13 34  1  0  0  0  0
 14 15  1  0  0  0  0
 14 35  1  0  0  0  0
 14 36  1  0  0  0  0
 15 16  1  0  0  0  0
 15 37  1  0  0  0  0
 15 38  1  0  0  0  0
 16 17  1  0  0  0  0
 16 39  1  0  0  0  0
 16 40  1  0  0  0  0
 17 18  1  0  0  0  0
 17 41  1  0  0  0  0
 17 42  1  0  0  0  0
 18 19  1  0  0  0  0
 18 43  1  0  0  0  0
 19 44  1  0  0  0  0
 19 45  1  0  0  0  0
 19 46  1  0  0  0  0
M  CHG  1   9   1
M  END
> <s_m_source_file>
AV-unprocessed.smi

> <i_m_source_file_index>
3348

> <i_lp_mmshare_version>
43012

> <i_f3d_flags>
0

> <s_epik_input>
bjFbY0hdW2NIXVtjSF1uMVtDSDJdW0NAQEhdKFtDSDNdKVtOSF1bQ0gyXVtDSDJdT1tDQEBIXTJbQ0gyXVtDSDJdW0NIMl1bQ0gyXVtDQEhdMltDSDNd

> <s_epik_cmdline>
J2VwaWtfcHl0aG9uJywgJy1waCcsICc3LjAnLCAnLXRuJywgJzgnLCAnLW1hJywgJzIwMCcsICctbWV0YWxfYmluZGluZycsICctaW1hZScsICc8aW5maWxlLm1hZT4nLCAnLW9tYWUnLCAnPG91dGZpbGUubWFlPic=

> <r_lp_tautomer_probability>
1

> <r_epik_Ionization_Penalty>
0.00925088

> <r_epik_Ionization_Penalty_Charging>
0.00924645

> <r_epik_Ionization_Penalty_Neutral>
4.42413e-06

> <r_epik_State_Penalty>
0.0070118

> <r_epik_Charging_Adjusted_Penalty>
0.0162583

> <i_epik_Tot_Q>
1

> <i_epik_Tot_abs_Q>
1

> <r_epik_Metal_State_Penalty>
0.00701222

> <b_epik_Metal_Only>
0

> <s_lp_Force_Field>
OPLS_2005

> <r_lp_Energy>
17.627

> <b_lp_Chiralities_Consistent>
1

> <s_lp_Variant>
AV-unprocessed.smi:3348-3

> <Gold.Version>
5.8.1

> <Gold.Id.Protein>
6NUR|6NUR_protein|mol2

> <Gold.PLP.Fitness>
47.3040

> <Gold.PLP.PLP>
-37.1880

> <Gold.PLP.part.hbond>
-1.8828

> <Gold.PLP.part.metal>
0.0000

> <Gold.PLP.part.buried>
0.7274

> <Gold.PLP.part.nonpolar>
-38.4388

> <Gold.PLP.part.repulsive>
2.2638

> <Gold.PLP.ligand.clash>
0.0000

> <Gold.PLP.ligand.torsion>
1.2060

> <Gold.PLP.Chemscore.Hbond>
2.1229

> <Gold.PLP.Chemscore.CHOScore>
2.0000

> <Gold.PLP.Chemscore.Metal>
0.0000

> <Gold.Chemscore.Hbonds>
donor molecule, donor type, donor heavy atom, donor atom, acceptor molecule, acceptor atom, score
      L1  H     9    29       P1  7948  2.00
      L1  H     9    47       P1 10171  0.04
      L1  C     5    26       P1 10186  0.41
      L1  C     7    28       P1 10747  0.87

> <Gold.PLP.Chemscore.Internal.Correction>
0.1593

> <Gold.Rescore>
     Score         DG    S(hbond)    S(metal)    S(lipo)     H(rot)  DE(clash)    DE(int)     intcor
     11.64     -15.66       1.11        0.00      94.95       1.82       1.46       2.56       ----

> <Gold.Chemscore.Fitness>
11.6422

> <Gold.Chemscore.DG>
-15.6567

> <Gold.Chemscore.ZeroCoef>
-5.4800

> <Gold.Chemscore.Hbond>
1.1131

> <Gold.Chemscore.Metal>
0.0000

> <Gold.Chemscore.Lipo>
94.9451

> <Gold.Chemscore.Internal_Hbond>
0.0000

> <Gold.Chemscore.DEClash>
1.4592

> <Gold.Chemscore.DEInternal>
2.5553

> <Gold.Chemscore.Rot>
1.8163

> <Gold.Chemscore.Internal.Correction>
   9.000000E+99

> <Gold.Chemscore.Hbonds>
donor molecule, donor type, donor heavy atom, donor atom, acceptor molecule, acceptor atom, score
      L1  H     9    29       P1  7948  0.99
      L1  H     9    47       P1 10171  0.07

> <Gold.Chemscore.Hbond.Weighted>
-3.7178

> <Gold.Chemscore.Metal.Weighted>
-0.0000

> <Gold.Chemscore.Lipo.Weighted>
-11.1086

> <Gold.Chemscore.Internal_Hbond.Weighted>
0.0000

> <Gold.Chemscore.DEClash.Weighted>
1.4592

> <Gold.Chemscore.DEInternal.Weighted>
2.5553

> <Gold.Chemscore.Rot.Weighted>
4.6497

> <Gold.Chemscore.Internal.Correction.Weighted>
   9.000000E+99

> <Gold.Protein.RotatedTorsions>
[ 6907 6896 6895 6894 ] final   15.00 input  -60.11 | X-H torsion
[ 7974 7965 7964 7962 ] final  -34.52 input  175.53 | X-H torsion
[ 8008 7997 7996 7995 ] final  -84.60 input   59.86 | X-H torsion
[ 10167 10162 10161 10158 ] final  102.49 input  -65.29 | X-H torsion
[ 10718 10713 10712 10709 ] final  124.12 input   66.30 | X-H torsion
[ 10763 10752 10751 10750 ] final  -73.17 input  -60.55 | X-H torsion
[ 11005 11000 10999 10996 ] final  -75.92 input  -57.11 | X-H torsion

> <Gold.Protein.ActiveResidues>
 VAL166  LYS551  ARG553  GLY616  TRP617  ASP618  TYR619  PRO620  LYS621  CYS622 
 ASP623  PHE694  ASN695  SER759  ASP760  ASP761  ALA762  ILE779  LEU786  VAL792 
 PHE793  MET794  SER795  GLU796  ALA797  LYS798  CYS799  TRP800  GLU811  SER814 

> <Gold.Protein.RotatedAtoms>
  151.8112  135.0680  160.0412 H   0  0  0  0  0  0  0  0  0  0  0  0  # atno 6907 bound_to 6896
  152.3019  133.5660  159.5632 H   0  0  0  0  0  0  0  0  0  0  0  0  # atno 6908 bound_to 6896
  150.7277  134.0195  159.3738 H   0  0  0  0  0  0  0  0  0  0  0  0  # atno 6909 bound_to 6896
  146.0822  140.6049  142.8903 H   0  0  0  0  0  0  0  0  0  0  0  0  # atno 7974 bound_to 7965
  154.6316  140.0603  156.9738 H   0  0  0  0  0  0  0  0  0  0  0  0  # atno 8008 bound_to 7997
  155.1657  140.3286  155.4384 H   0  0  0  0  0  0  0  0  0  0  0  0  # atno 8009 bound_to 7997
  156.2485  140.1923  156.6762 H   0  0  0  0  0  0  0  0  0  0  0  0  # atno 8010 bound_to 7997
  139.7345  144.7027  151.0670 H   0  0  0  0  0  0  0  0  0  0  0  0  # atno 10167 bound_to 10162
  157.5610  131.1089  150.8537 H   0  0  0  0  0  0  0  0  0  0  0  0  # atno 10718 bound_to 10713
  154.4558  135.5906  153.6222 H   0  0  0  0  0  0  0  0  0  0  0  0  # atno 10763 bound_to 10752
  152.9818  135.6032  154.3548 H   0  0  0  0  0  0  0  0  0  0  0  0  # atno 10764 bound_to 10752
  154.3414  135.2841  155.2399 H   0  0  0  0  0  0  0  0  0  0  0  0  # atno 10765 bound_to 10752
  141.1649  133.6964  156.7590 H   0  0  0  0  0  0  0  0  0  0  0  0  # atno 11005 bound_to 11000
  144.7301  140.4645  143.6944 LP  0  0  0  0  0  0  0  0  0  0  0  0  # atno 17320 bound_to 7965
  145.6196  139.1522  143.3030 LP  0  0  0  0  0  0  0  0  0  0  0  0  # atno 17321 bound_to 7965
  140.7776  143.5001  150.9782 LP  0  0  0  0  0  0  0  0  0  0  0  0  # atno 17342 bound_to 10162
  139.8690  143.7217  152.3168 LP  0  0  0  0  0  0  0  0  0  0  0  0  # atno 17343 bound_to 10162
  156.9035  130.5255  149.5282 LP  0  0  0  0  0  0  0  0  0  0  0  0  # atno 17370 bound_to 10713
  156.0663  130.5705  150.9295 LP  0  0  0  0  0  0  0  0  0  0  0  0  # atno 17371 bound_to 10713
  140.2548  134.8512  157.3702 LP  0  0  0  0  0  0  0  0  0  0  0  0  # atno 17394 bound_to 11000
  140.1668  134.4659  155.7858 LP  0  0  0  0  0  0  0  0  0  0  0  0  # atno 17395 bound_to 11000

$$$$
