AV-unprocessed.smi:278|AV-procd|sdf|2093|dock5
  -GOLD-   2262021373D 1   1.00000     0.00000
 Structure written by MMmdl.
 50 54  0  0  0  0  0  0  0  0  1 V2000
  155.7618  136.2493  161.4882 O   0  0  0  0  0  0  0  0  0  0  0  0
  154.8868  137.4179  161.6660 S   0  0  0  0  0  0  0  0  0  0  0  0
  153.5630  137.4695  161.0262 O   0  0  0  0  0  0  0  0  0  0  0  0
  154.6973  137.7523  163.4600 C   0  0  0  0  0  0  0  0  0  0  0  0
  155.6222  138.9347  163.7771 C   0  0  0  0  0  0  0  0  0  0  0  0
  155.7582  139.8195  162.5244 C   0  0  2  0  0  0  0  0  0  0  0  0
  154.5309  140.6925  162.2424 C   0  0  0  0  0  0  0  0  0  0  0  0
  154.5082  140.8604  160.7964 N   0  0  0  0  0  0  0  0  0  0  0  0
  153.4781  141.4915  160.1742 C   0  0  0  0  0  0  0  0  0  0  0  0
  153.0389  142.6751  160.6795 N   0  0  0  0  0  0  0  0  0  0  0  0
  152.0322  143.3320  160.0967 C   0  0  0  0  0  0  0  0  0  0  0  0
  151.3350  142.9956  159.0111 N   0  0  0  0  0  0  0  0  0  0  0  0
  151.7745  141.8155  158.4890 C   0  0  0  0  0  0  0  0  0  0  0  0
  152.8292  141.0045  159.0002 C   0  0  0  0  0  0  0  0  0  0  0  0
  152.9898  139.8854  158.1890 N   0  0  0  0  0  0  0  0  0  0  0  0
  152.0821  140.0230  157.2621 C   0  0  0  0  0  0  0  0  0  0  0  0
  151.3111  141.1570  157.3637 N   0  0  0  0  0  0  0  0  0  0  0  0
  150.2437  141.5623  156.4655 C   0  0  0  0  0  0  0  0  0  0  0  0
  149.7793  140.4138  155.5479 C   0  0  2  0  0  0  0  0  0  0  0  0
  150.7198  140.2338  154.5058 O   0  0  0  0  0  0  0  0  0  0  0  0
  148.3742  140.6709  154.9652 C   0  0  1  0  0  0  0  0  0  0  0  0
  148.2156  141.8614  154.0135 C   0  0  0  0  0  0  0  0  0  0  0  0
  146.9878  141.4495  153.2328 C   0  0  0  0  0  0  0  0  0  0  0  0
  147.2025  139.9450  153.0841 C   0  0  0  0  0  0  0  0  0  0  0  0
  147.8970  139.5297  154.2576 O   0  0  0  0  0  0  0  0  0  0  0  0
  155.2309  139.7759  160.1458 C   0  0  0  0  0  0  0  0  0  0  0  0
  155.8503  138.9404  161.2755 C   0  0  2  0  0  0  0  0  0  0  0  0
  156.6387  140.4599  162.5940 H   0  0  0  0  0  0  0  0  0  0  0  0
  156.8765  138.6434  161.0575 H   0  0  0  0  0  0  0  0  0  0  0  0
  153.6555  138.0152  163.6440 H   0  0  0  0  0  0  0  0  0  0  0  0
  154.9359  136.8587  164.0370 H   0  0  0  0  0  0  0  0  0  0  0  0
  155.2725  139.5007  164.6411 H   0  0  0  0  0  0  0  0  0  0  0  0
  156.6082  138.5456  164.0334 H   0  0  0  0  0  0  0  0  0  0  0  0
  153.6121  140.1986  162.5616 H   0  0  0  0  0  0  0  0  0  0  0  0
  154.5986  141.6521  162.7564 H   0  0  0  0  0  0  0  0  0  0  0  0
  151.7457  144.2613  160.5669 H   0  0  0  0  0  0  0  0  0  0  0  0
  151.9540  139.3004  156.4694 H   0  0  0  0  0  0  0  0  0  0  0  0
  149.4108  141.9219  157.0709 H   0  0  0  0  0  0  0  0  0  0  0  0
  150.5862  142.4115  155.8728 H   0  0  0  0  0  0  0  0  0  0  0  0
  149.7495  139.4942  156.1337 H   0  0  0  0  0  0  0  0  0  0  0  0
  151.0671  139.3568  154.5663 H   0  0  0  0  0  0  0  0  0  0  0  0
  147.6756  140.8059  155.7927 H   0  0  0  0  0  0  0  0  0  0  0  0
  148.0918  142.8101  154.5364 H   0  0  0  0  0  0  0  0  0  0  0  0
  149.0634  141.9550  153.3343 H   0  0  0  0  0  0  0  0  0  0  0  0
  146.0883  141.6457  153.8177 H   0  0  0  0  0  0  0  0  0  0  0  0
  146.8939  141.9640  152.2760 H   0  0  0  0  0  0  0  0  0  0  0  0
  146.2666  139.3999  152.9604 H   0  0  0  0  0  0  0  0  0  0  0  0
  147.8325  139.7363  152.2186 H   0  0  0  0  0  0  0  0  0  0  0  0
  154.5891  139.1777  159.4990 H   0  0  0  0  0  0  0  0  0  0  0  0
  156.0169  140.2086  159.5263 H   0  0  0  0  0  0  0  0  0  0  0  0
  1  2  2  0  0  0  0
  2 27  1  0  0  0  0
  2  3  2  0  0  0  0
  2  4  1  0  0  0  0
  4  5  1  0  0  0  0
  4 30  1  0  0  0  0
  4 31  1  0  0  0  0
  5  6  1  0  0  0  0
  5 32  1  0  0  0  0
  5 33  1  0  0  0  0
  6 28  1  0  0  0  0
  6 27  1  0  0  0  0
  6  7  1  0  0  0  0
  7  8  1  0  0  0  0
  7 34  1  0  0  0  0
  7 35  1  0  0  0  0
  8  9  1  0  0  0  0
  8 26  1  0  0  0  0
  9 14  1  0  0  0  0
  9 10  2  0  0  0  0
 10 11  1  0  0  0  0
 11 12  2  0  0  0  0
 11 36  1  0  0  0  0
 12 13  1  0  0  0  0
 13 17  1  0  0  0  0
 13 14  2  0  0  0  0
 14 15  1  0  0  0  0
 15 16  2  0  0  0  0
 16 17  1  0  0  0  0
 16 37  1  0  0  0  0
 17 18  1  0  0  0  0
 18 19  1  0  0  0  0
 18 38  1  0  0  0  0
 18 39  1  0  0  0  0
 19 20  1  0  0  0  0
 19 21  1  0  0  0  0
 19 40  1  0  0  0  0
 20 41  1  0  0  0  0
 21 25  1  0  0  0  0
 21 22  1  0  0  0  0
 21 42  1  0  0  0  0
 22 23  1  0  0  0  0
 22 43  1  0  0  0  0
 22 44  1  0  0  0  0
 23 24  1  0  0  0  0
 23 45  1  0  0  0  0
 23 46  1  0  0  0  0
 24 25  1  0  0  0  0
 24 47  1  0  0  0  0
 24 48  1  0  0  0  0
 26 27  1  0  0  0  0
 26 49  1  0  0  0  0
 26 50  1  0  0  0  0
 27 29  1  0  0  0  0
M  END
> <s_m_source_file>
AV-unprocessed.smi

> <i_m_source_file_index>
278

> <i_lp_mmshare_version>
43012

> <i_f3d_flags>
0

> <s_epik_input>
W0NIMl0xW0NIMl1TKD1PKSg9TylbQ0BASF0oW0NAQEhdMTIpW0NIMl1OKFtDSDJdMiljKG5bY0hdbjMpYyhjMzQpbltjSF1uNFtDSDJdW0NASF0oW09IXSlbQ0BASF01W0NIMl1bQ0gyXVtDSDJdTzU=

> <s_epik_cmdline>
J2VwaWtfcHl0aG9uJywgJy1waCcsICc3LjAnLCAnLXRuJywgJzgnLCAnLW1hJywgJzIwMCcsICctbWV0YWxfYmluZGluZycsICctaW1hZScsICc8aW5maWxlLm1hZT4nLCAnLW9tYWUnLCAnPG91dGZpbGUubWFlPic=

> <r_lp_tautomer_probability>
1

> <r_epik_Ionization_Penalty>
0.000636766

> <r_epik_Ionization_Penalty_Charging>
0

> <r_epik_Ionization_Penalty_Neutral>
0.000636766

> <r_epik_State_Penalty>
0.000329976

> <r_epik_Charging_Adjusted_Penalty>
0.000329976

> <i_epik_Tot_Q>
0

> <i_epik_Tot_abs_Q>
0

> <r_epik_Metal_State_Penalty>
-0

> <b_epik_Metal_Only>
0

> <s_lp_Force_Field>
OPLS_2005

> <r_lp_Energy>
51.4583

> <b_lp_Chiralities_Consistent>
1

> <s_lp_Variant>
AV-unprocessed.smi:278-7

> <Gold.Version>
5.8.1

> <Gold.Id.Protein>
6NUR|6NUR_protein|mol2

> <Gold.PLP.Fitness>
49.4573

> <Gold.PLP.PLP>
-44.8351

> <Gold.PLP.part.hbond>
-2.0000

> <Gold.PLP.part.metal>
0.0000

> <Gold.PLP.part.buried>
-5.6522

> <Gold.PLP.part.nonpolar>
-36.7828

> <Gold.PLP.part.repulsive>
0.1579

> <Gold.PLP.ligand.clash>
0.0000

> <Gold.PLP.ligand.torsion>
0.8117

> <Gold.PLP.Chemscore.Hbond>
2.0000

> <Gold.PLP.Chemscore.CHOScore>
0.0000

> <Gold.PLP.Chemscore.Metal>
0.0000

> <Gold.Chemscore.Hbonds>
donor molecule, donor type, donor heavy atom, donor atom, acceptor molecule, acceptor atom, score
      P1  H  7989  7998       L1    20  0.93
      P1  H  7997  8009       L1    15  1.00

> <Gold.PLP.Chemscore.Internal.Correction>
0.2455

> <Gold.Rescore>
     Score         DG    S(hbond)    S(metal)    S(lipo)     H(rot)  DE(clash)    DE(int)     intcor
     10.84     -14.06       1.18        0.00      86.39       2.13       0.28       2.95       ----

> <Gold.Chemscore.Fitness>
10.8354

> <Gold.Chemscore.DG>
-14.0605

> <Gold.Chemscore.ZeroCoef>
-5.4800

> <Gold.Chemscore.Hbond>
1.1788

> <Gold.Chemscore.Metal>
0.0000

> <Gold.Chemscore.Lipo>
86.3921

> <Gold.Chemscore.Internal_Hbond>
0.0000

> <Gold.Chemscore.DEClash>
0.2751

> <Gold.Chemscore.DEInternal>
2.9500

> <Gold.Chemscore.Rot>
2.1346

> <Gold.Chemscore.Internal.Correction>
   9.000000E+99

> <Gold.Chemscore.Hbonds>
donor molecule, donor type, donor heavy atom, donor atom, acceptor molecule, acceptor atom, score
      P1  H  7989  7998       L1    20  0.35
      P1  H  7997  8009       L1    15  0.23

> <Gold.Chemscore.Hbond.Weighted>
-3.9373

> <Gold.Chemscore.Metal.Weighted>
-0.0000

> <Gold.Chemscore.Lipo.Weighted>
-10.1079

> <Gold.Chemscore.Internal_Hbond.Weighted>
0.0000

> <Gold.Chemscore.DEClash.Weighted>
0.2751

> <Gold.Chemscore.DEInternal.Weighted>
2.9500

> <Gold.Chemscore.Rot.Weighted>
5.4646

> <Gold.Chemscore.Internal.Correction.Weighted>
   9.000000E+99

> <Gold.Protein.RotatedTorsions>
[ 6907 6896 6895 6894 ] final -143.90 input  -60.11 | X-H torsion
[ 7974 7965 7964 7962 ] final   66.69 input  175.53 | X-H torsion
[ 8008 7997 7996 7995 ] final  144.86 input   59.86 | X-H torsion
[ 10167 10162 10161 10158 ] final  -34.84 input  -65.29 | X-H torsion
[ 10718 10713 10712 10709 ] final    3.29 input   66.30 | X-H torsion
[ 10763 10752 10751 10750 ] final  157.21 input  -60.55 | X-H torsion
[ 11005 11000 10999 10996 ] final   18.43 input  -57.11 | X-H torsion

> <Gold.Protein.ActiveResidues>
 VAL166  LYS551  ARG553  GLY616  TRP617  ASP618  TYR619  PRO620  LYS621  CYS622 
 ASP623  PHE694  ASN695  SER759  ASP760  ASP761  ALA762  ILE779  LEU786  VAL792 
 PHE793  MET794  SER795  GLU796  ALA797  LYS798  CYS799  TRP800  GLU811  SER814 

> <Gold.Protein.RotatedAtoms>
  151.1067  133.5203  159.2607 H   0  0  0  0  0  0  0  0  0  0  0  0  # atno 6907 bound_to 6896
  151.2013  135.0443  159.8883 H   0  0  0  0  0  0  0  0  0  0  0  0  # atno 6908 bound_to 6896
  152.5447  134.0895  159.8324 H   0  0  0  0  0  0  0  0  0  0  0  0  # atno 6909 bound_to 6896
  145.8236  139.3099  143.1028 H   0  0  0  0  0  0  0  0  0  0  0  0  # atno 7974 bound_to 7965
  156.2898  140.2224  156.5121 H   0  0  0  0  0  0  0  0  0  0  0  0  # atno 8008 bound_to 7997
  154.7600  140.0474  157.0987 H   0  0  0  0  0  0  0  0  0  0  0  0  # atno 8009 bound_to 7997
  155.0003  140.3101  155.4873 H   0  0  0  0  0  0  0  0  0  0  0  0  # atno 8010 bound_to 7997
  140.7177  143.3520  151.2137 H   0  0  0  0  0  0  0  0  0  0  0  0  # atno 10167 bound_to 10162
  156.8756  130.5635  149.5655 H   0  0  0  0  0  0  0  0  0  0  0  0  # atno 10718 bound_to 10713
  154.1967  135.2792  155.3004 H   0  0  0  0  0  0  0  0  0  0  0  0  # atno 10763 bound_to 10752
  154.5887  135.5567  153.7260 H   0  0  0  0  0  0  0  0  0  0  0  0  # atno 10764 bound_to 10752
  153.0098  135.6363  154.2105 H   0  0  0  0  0  0  0  0  0  0  0  0  # atno 10765 bound_to 10752
  140.4248  134.1481  155.7675 H   0  0  0  0  0  0  0  0  0  0  0  0  # atno 11005 bound_to 11000
  145.9648  140.8807  143.0192 LP  0  0  0  0  0  0  0  0  0  0  0  0  # atno 17320 bound_to 7965
  144.6745  140.1862  143.7401 LP  0  0  0  0  0  0  0  0  0  0  0  0  # atno 17321 bound_to 7965
  139.7052  143.9466  152.2923 LP  0  0  0  0  0  0  0  0  0  0  0  0  # atno 17342 bound_to 10162
  139.9173  144.6821  150.8498 LP  0  0  0  0  0  0  0  0  0  0  0  0  # atno 17343 bound_to 10162
  156.0704  130.5738  150.9371 LP  0  0  0  0  0  0  0  0  0  0  0  0  # atno 17370 bound_to 10713
  157.6170  131.0932  150.8691 LP  0  0  0  0  0  0  0  0  0  0  0  0  # atno 17371 bound_to 10713
  141.1769  133.8495  157.1390 LP  0  0  0  0  0  0  0  0  0  0  0  0  # atno 17394 bound_to 11000
  140.0175  134.9961  157.0523 LP  0  0  0  0  0  0  0  0  0  0  0  0  # atno 17395 bound_to 11000

$$$$
