AV-unprocessed.smi:1813|AV-procd|sdf|7347|dock10
  -GOLD-   22720 9 13D 1   1.00000     0.00000
 Structure written by MMmdl.
 39 40  0  0  0  0  0  0  0  0  3 V2000
  148.2757  133.0691  153.2141 C   0  0  0  0  0  0  0  0  0  0  0  0
  148.1756  134.4322  153.7127 N   0  0  0  0  0  0  0  0  0  0  0  0
  147.3648  134.8132  154.7097 C   0  0  0  0  0  0  0  0  0  0  0  0
  146.6236  134.0359  155.3124 O   0  0  0  0  0  0  0  0  0  0  0  0
  147.4148  136.2951  155.0948 C   0  0  0  0  0  0  0  0  0  0  0  0
  148.6284  136.9882  154.5910 N   0  3  2  0  0  0  0  0  0  0  0  0
  149.8784  136.5245  155.2516 C   0  0  0  0  0  0  0  0  0  0  0  0
  151.1178  137.1818  154.6201 C   0  0  0  0  0  0  0  0  0  0  0  0
  151.0289  138.7203  154.6593 C   0  0  2  0  0  0  0  0  0  0  0  0
  151.1126  139.2322  156.0268 N   0  0  0  0  0  0  0  0  0  0  0  0
  151.1612  140.5203  156.3935 C   0  0  0  0  0  0  0  0  0  0  0  0
  151.1088  141.4075  155.5391 O   0  0  0  0  0  0  0  0  0  0  0  0
  151.2779  140.6948  157.7289 N   0  5  0  0  0  0  0  0  0  0  0  0
  151.6083  141.8989  158.2233 C   0  0  0  0  0  0  0  0  0  0  0  0
  152.1704  142.0638  159.4258 N   0  0  0  0  0  0  0  0  0  0  0  0
  152.4390  143.3986  159.7346 C   0  0  0  0  0  0  0  0  0  0  0  0
  152.0803  144.2696  158.7401 C   0  0  0  0  0  0  0  0  0  0  0  0
  151.3906  143.4343  157.3780 S   0  0  0  0  0  0  0  0  0  0  0  0
  149.7090  139.1671  154.0090 C   0  0  0  0  0  0  0  0  0  0  0  0
  148.4923  138.4668  154.6431 C   0  0  0  0  0  0  0  0  0  0  0  0
  148.9543  133.0339  152.3619 H   0  0  0  0  0  0  0  0  0  0  0  0
  147.3023  132.6989  152.8892 H   0  0  0  0  0  0  0  0  0  0  0  0
  148.6624  132.4024  153.9861 H   0  0  0  0  0  0  0  0  0  0  0  0
  148.7598  135.1283  153.2716 H   0  0  0  0  0  0  0  0  0  0  0  0
  146.5243  136.7567  154.6663 H   0  0  0  0  0  0  0  0  0  0  0  0
  147.3397  136.4148  156.1771 H   0  0  0  0  0  0  0  0  0  0  0  0
  149.8346  136.7492  156.3186 H   0  0  0  0  0  0  0  0  0  0  0  0
  149.9698  135.4417  155.1649 H   0  0  0  0  0  0  0  0  0  0  0  0
  152.0209  136.8342  155.1226 H   0  0  0  0  0  0  0  0  0  0  0  0
  151.2071  136.8540  153.5836 H   0  0  0  0  0  0  0  0  0  0  0  0
  151.8565  139.1427  154.0866 H   0  0  0  0  0  0  0  0  0  0  0  0
  151.1436  138.5481  156.7684 H   0  0  0  0  0  0  0  0  0  0  0  0
  152.8886  143.6383  160.6866 H   0  0  0  0  0  0  0  0  0  0  0  0
  152.1792  145.3443  158.7245 H   0  0  0  0  0  0  0  0  0  0  0  0
  149.5984  140.2497  154.0840 H   0  0  0  0  0  0  0  0  0  0  0  0
  149.7381  138.9386  152.9428 H   0  0  0  0  0  0  0  0  0  0  0  0
  147.5909  138.7704  154.1100 H   0  0  0  0  0  0  0  0  0  0  0  0
  148.3669  138.7847  155.6794 H   0  0  0  0  0  0  0  0  0  0  0  0
  148.7064  136.7447  153.6137 H   0  0  0  0  0  0  0  0  0  0  0  0
  1  2  1  0  0  0  0
  1 21  1  0  0  0  0
  1 22  1  0  0  0  0
  1 23  1  0  0  0  0
  2  3  1  0  0  0  0
  2 24  1  0  0  0  0
  3  4  2  0  0  0  0
  3  5  1  0  0  0  0
  5  6  1  0  0  0  0
  5 25  1  0  0  0  0
  5 26  1  0  0  0  0
  6 20  1  0  0  0  0
  6  7  1  0  0  0  0
  6 39  1  0  0  0  0
  7  8  1  0  0  0  0
  7 27  1  0  0  0  0
  7 28  1  0  0  0  0
  8  9  1  0  0  0  0
  8 29  1  0  0  0  0
  8 30  1  0  0  0  0
  9 10  1  0  0  0  0
  9 19  1  0  0  0  0
  9 31  1  0  0  0  0
 10 11  1  0  0  0  0
 10 32  1  0  0  0  0
 11 12  2  0  0  0  0
 11 13  1  0  0  0  0
 13 14  1  0  0  0  0
 14 18  1  0  0  0  0
 14 15  2  0  0  0  0
 15 16  1  0  0  0  0
 16 17  2  0  0  0  0
 16 33  1  0  0  0  0
 17 18  1  0  0  0  0
 17 34  1  0  0  0  0
 19 20  1  0  0  0  0
 19 35  1  0  0  0  0
 19 36  1  0  0  0  0
 20 37  1  0  0  0  0
 20 38  1  0  0  0  0
M  CHG  1   6   1
M  CHG  1  13  -1
M  END
> <s_m_source_file>
AV-unprocessed.smi

> <i_m_source_file_index>
1813

> <i_lp_mmshare_version>
43012

> <i_f3d_flags>
0

> <s_epik_input>
W0NIM11bTkhdQyg9TylbQ0gyXU4xW0NIMl1bQ0gyXVtDSF0oW0NIMl1bQ0gyXTEpW05IXUMoPU8pW05IXWMybltjSF1bY0hdczI=

> <s_epik_cmdline>
J2VwaWtfcHl0aG9uJywgJy1waCcsICc3LjAnLCAnLXRuJywgJzgnLCAnLW1hJywgJzIwMCcsICctbWV0YWxfYmluZGluZycsICctaW1hZScsICc8aW5maWxlLm1hZT4nLCAnLW9tYWUnLCAnPG91dGZpbGUubWFlPic=

> <r_lp_tautomer_probability>
0.999

> <r_epik_Ionization_Penalty>
7.12128

> <r_epik_Ionization_Penalty_Charging>
6.25357

> <r_epik_Ionization_Penalty_Neutral>
0.867707

> <r_epik_State_Penalty>
6.33838

> <r_epik_Charging_Adjusted_Penalty>
12.592

> <i_epik_Tot_Q>
0

> <i_epik_Tot_abs_Q>
2

> <r_epik_Metal_State_Penalty>
2.34161

> <b_epik_Metal_Only>
1

> <s_lp_Force_Field>
OPLS_2005

> <r_lp_Energy>
4.26142

> <b_lp_Chiralities_Consistent>
1

> <s_lp_Variant>
AV-unprocessed.smi:1813-8

> <Gold.Version>
5.8.1

> <Gold.Id.Protein>
6NUR|6NUR_protein|mol2

> <Gold.PLP.Fitness>
41.6136

> <Gold.PLP.PLP>
-32.7585

> <Gold.PLP.part.hbond>
-3.0000

> <Gold.PLP.part.metal>
0.0000

> <Gold.PLP.part.buried>
-1.2222

> <Gold.PLP.part.nonpolar>
-28.5252

> <Gold.PLP.part.repulsive>
0.1691

> <Gold.PLP.ligand.clash>
0.0000

> <Gold.PLP.ligand.torsion>
0.4839

> <Gold.PLP.Chemscore.Hbond>
3.2660

> <Gold.PLP.Chemscore.CHOScore>
0.0000

> <Gold.PLP.Chemscore.Metal>
0.0000

> <Gold.Chemscore.Hbonds>
donor molecule, donor type, donor heavy atom, donor atom, acceptor molecule, acceptor atom, score
      L1  H     2    24       P1  7948  0.93
      L1  H     6    39       P1  7948  2.00
      P1  H  7989  7998       L1    12  0.32

> <Gold.PLP.Chemscore.Internal.Correction>
0.0248

> <Gold.Rescore>
     Score         DG    S(hbond)    S(metal)    S(lipo)     H(rot)  DE(clash)    DE(int)     intcor
     14.01     -16.51       2.11        0.00      72.50       1.76       0.51       1.99       ----

> <Gold.Chemscore.Fitness>
14.0095

> <Gold.Chemscore.DG>
-16.5134

> <Gold.Chemscore.ZeroCoef>
-5.4800

> <Gold.Chemscore.Hbond>
2.1128

> <Gold.Chemscore.Metal>
0.0000

> <Gold.Chemscore.Lipo>
72.5044

> <Gold.Chemscore.Internal_Hbond>
0.0000

> <Gold.Chemscore.DEClash>
0.5110

> <Gold.Chemscore.DEInternal>
1.9930

> <Gold.Chemscore.Rot>
1.7603

> <Gold.Chemscore.Internal.Correction>
   9.000000E+99

> <Gold.Chemscore.Hbonds>
donor molecule, donor type, donor heavy atom, donor atom, acceptor molecule, acceptor atom, score
      L1  H     2    24       P1  7948  0.54
      L1  H     6    39       P1  7948  1.00
      P1  H  7989  7998       L1    12  0.31

> <Gold.Chemscore.Hbond.Weighted>
-7.0568

> <Gold.Chemscore.Metal.Weighted>
-0.0000

> <Gold.Chemscore.Lipo.Weighted>
-8.4830

> <Gold.Chemscore.Internal_Hbond.Weighted>
0.0000

> <Gold.Chemscore.DEClash.Weighted>
0.5110

> <Gold.Chemscore.DEInternal.Weighted>
1.9930

> <Gold.Chemscore.Rot.Weighted>
4.5064

> <Gold.Chemscore.Internal.Correction.Weighted>
   9.000000E+99

> <Gold.Protein.RotatedTorsions>
[ 6907 6896 6895 6894 ] final  -24.89 input  -60.11 | X-H torsion
[ 7974 7965 7964 7962 ] final -129.50 input  175.53 | X-H torsion
[ 8008 7997 7996 7995 ] final -155.30 input   59.86 | X-H torsion
[ 10167 10162 10161 10158 ] final  -78.45 input  -65.29 | X-H torsion
[ 10718 10713 10712 10709 ] final  -63.17 input   66.30 | X-H torsion
[ 10763 10752 10751 10750 ] final -169.43 input  -60.55 | X-H torsion
[ 11005 11000 10999 10996 ] final -125.70 input  -57.11 | X-H torsion

> <Gold.Protein.ActiveResidues>
 VAL166  LYS551  ARG553  GLY616  TRP617  ASP618  TYR619  PRO620  LYS621  CYS622 
 ASP623  PHE694  ASN695  SER759  ASP760  ASP761  ALA762  ILE779  LEU786  VAL792 
 PHE793  MET794  SER795  GLU796  ALA797  LYS798  CYS799  TRP800  GLU811  SER814 

> <Gold.Protein.RotatedAtoms>
  151.1830  135.0369  159.8800 H   0  0  0  0  0  0  0  0  0  0  0  0  # atno 6907 bound_to 6896
  152.5444  134.1041  159.8341 H   0  0  0  0  0  0  0  0  0  0  0  0  # atno 6908 bound_to 6896
  151.1161  133.5091  159.2636 H   0  0  0  0  0  0  0  0  0  0  0  0  # atno 6909 bound_to 6896
  144.9566  140.7402  143.4755 H   0  0  0  0  0  0  0  0  0  0  0  0  # atno 7974 bound_to 7965
  155.6997  140.0765  157.2415 H   0  0  0  0  0  0  0  0  0  0  0  0  # atno 8008 bound_to 7997
  154.4075  140.1649  156.2230 H   0  0  0  0  0  0  0  0  0  0  0  0  # atno 8009 bound_to 7997
  155.9379  140.3386  155.6306 H   0  0  0  0  0  0  0  0  0  0  0  0  # atno 8010 bound_to 7997
  140.4681  143.2434  151.8247 H   0  0  0  0  0  0  0  0  0  0  0  0  # atno 10167 bound_to 10162
  156.0808  130.4217  150.1239 H   0  0  0  0  0  0  0  0  0  0  0  0  # atno 10718 bound_to 10713
  154.6524  135.2913  154.9970 H   0  0  0  0  0  0  0  0  0  0  0  0  # atno 10763 bound_to 10752
  154.1059  135.6570  153.4880 H   0  0  0  0  0  0  0  0  0  0  0  0  # atno 10764 bound_to 10752
  153.0383  135.5253  154.7438 H   0  0  0  0  0  0  0  0  0  0  0  0  # atno 10765 bound_to 10752
  140.9741  134.0765  157.3838 H   0  0  0  0  0  0  0  0  0  0  0  0  # atno 11005 bound_to 11000
  145.2763  139.1935  143.4815 LP  0  0  0  0  0  0  0  0  0  0  0  0  # atno 17320 bound_to 7965
  146.3339  140.2717  142.8606 LP  0  0  0  0  0  0  0  0  0  0  0  0  # atno 17321 bound_to 7965
  139.4814  144.4926  151.9165 LP  0  0  0  0  0  0  0  0  0  0  0  0  # atno 17342 bound_to 10162
  140.4011  144.2492  150.5893 LP  0  0  0  0  0  0  0  0  0  0  0  0  # atno 17343 bound_to 10162
  156.9271  130.9702  151.3539 LP  0  0  0  0  0  0  0  0  0  0  0  0  # atno 17370 bound_to 10713
  157.5924  130.8453  149.8678 LP  0  0  0  0  0  0  0  0  0  0  0  0  # atno 17371 bound_to 10713
  139.8923  135.0124  156.6841 LP  0  0  0  0  0  0  0  0  0  0  0  0  # atno 17394 bound_to 11000
  140.7285  133.9079  155.8195 LP  0  0  0  0  0  0  0  0  0  0  0  0  # atno 17395 bound_to 11000

$$$$
