AV-unprocessed.smi:2523|AV-procd|sdf|9921|dock6
  -GOLD-   2272013553D 1   1.00000     0.00000
 Structure written by MMmdl.
 34 36  0  0  0  0  0  0  0  0  1 V2000
  147.9232  136.5521  158.7549 C   0  0  0  0  0  0  0  0  0  0  0  0
  148.4963  137.0556  157.5088 N   0  0  0  0  0  0  0  0  0  0  0  0
  148.1292  136.3403  156.3630 N   0  0  0  0  0  0  0  0  0  0  0  0
  148.5612  136.6808  155.1890 C   0  0  0  0  0  0  0  0  0  0  0  0
  149.4481  137.8357  155.0875 C   0  0  0  0  0  0  0  0  0  0  0  0
  150.1100  138.5084  154.0238 C   0  0  0  0  0  0  0  0  0  0  0  0
  150.8269  139.5438  154.4570 N   0  0  0  0  0  0  0  0  0  0  0  0
  150.6556  139.5737  155.8039 N   0  0  0  0  0  0  0  0  0  0  0  0
  151.3171  140.6046  156.5888 C   0  0  0  0  0  0  0  0  0  0  0  0
  152.0316  140.0423  157.8342 C   0  0  1  0  0  0  0  0  0  0  0  0
  153.1700  139.2933  157.4531 O   0  0  0  0  0  0  0  0  0  0  0  0
  152.3826  141.1515  158.8131 C   0  0  0  0  0  0  0  0  0  0  0  0
  153.0990  140.8625  159.9955 C   0  0  0  0  0  0  0  0  0  0  0  0
  153.4318  141.8944  160.8943 C   0  0  0  0  0  0  0  0  0  0  0  0
  153.0509  143.2210  160.6161 C   0  0  0  0  0  0  0  0  0  0  0  0
  152.3373  143.5154  159.4381 C   0  0  0  0  0  0  0  0  0  0  0  0
  151.8714  145.1408  159.0952 Cl  0  0  0  0  0  0  0  0  0  0  0  0
  152.0050  142.4833  158.5384 C   0  0  0  0  0  0  0  0  0  0  0  0
  149.8202  138.5417  156.1837 C   0  0  0  0  0  0  0  0  0  0  0  0
  149.3184  138.1477  157.5224 C   0  0  0  0  0  0  0  0  0  0  0  0
  149.6267  138.7649  158.5421 O   0  0  0  0  0  0  0  0  0  0  0  0
  148.7109  136.2794  159.4586 H   0  0  0  0  0  0  0  0  0  0  0  0
  147.3053  135.6673  158.5929 H   0  0  0  0  0  0  0  0  0  0  0  0
  147.2951  137.3120  159.2222 H   0  0  0  0  0  0  0  0  0  0  0  0
  148.2731  136.1234  154.2979 H   0  0  0  0  0  0  0  0  0  0  0  0
  150.0946  138.2850  152.9672 H   0  0  0  0  0  0  0  0  0  0  0  0
  152.0153  141.1448  155.9503 H   0  0  0  0  0  0  0  0  0  0  0  0
  150.5656  141.3346  156.8939 H   0  0  0  0  0  0  0  0  0  0  0  0
  151.3573  139.3452  158.3339 H   0  0  0  0  0  0  0  0  0  0  0  0
  153.0698  138.4112  157.7768 H   0  0  0  0  0  0  0  0  0  0  0  0
  153.3986  139.8478  160.2140 H   0  0  0  0  0  0  0  0  0  0  0  0
  153.9804  141.6679  161.7966 H   0  0  0  0  0  0  0  0  0  0  0  0
  153.3076  144.0111  161.3064 H   0  0  0  0  0  0  0  0  0  0  0  0
  151.4611  142.7177  157.6350 H   0  0  0  0  0  0  0  0  0  0  0  0
  1  2  1  0  0  0  0
  1 22  1  0  0  0  0
  1 23  1  0  0  0  0
  1 24  1  0  0  0  0
  2 20  1  0  0  0  0
  2  3  1  0  0  0  0
  3  4  2  0  0  0  0
  4  5  1  0  0  0  0
  4 25  1  0  0  0  0
  5 19  2  0  0  0  0
  5  6  1  0  0  0  0
  6  7  2  0  0  0  0
  6 26  1  0  0  0  0
  7  8  1  0  0  0  0
  8  9  1  0  0  0  0
  8 19  1  0  0  0  0
  9 10  1  0  0  0  0
  9 27  1  0  0  0  0
  9 28  1  0  0  0  0
 10 11  1  0  0  0  0
 10 12  1  0  0  0  0
 10 29  1  0  0  0  0
 11 30  1  0  0  0  0
 12 18  1  0  0  0  0
 12 13  2  0  0  0  0
 13 14  1  0  0  0  0
 13 31  1  0  0  0  0
 14 15  2  0  0  0  0
 14 32  1  0  0  0  0
 15 16  1  0  0  0  0
 15 33  1  0  0  0  0
 16 17  1  0  0  0  0
 16 18  2  0  0  0  0
 18 34  1  0  0  0  0
 19 20  1  0  0  0  0
 20 21  2  0  0  0  0
M  END
> <s_m_source_file>
AV-unprocessed.smi

> <i_m_source_file_index>
2523

> <i_lp_mmshare_version>
43012

> <i_f3d_flags>
0

> <s_epik_input>
W2NIXTFubihbQ0gzXSljKD1PKWMoYzEyKW4obltjSF0yKVtDSDJdW0NASF0oW09IXSljM1tjSF1bY0hdW2NIXWMoQ2wpW2NIXTM=

> <s_epik_cmdline>
J2VwaWtfcHl0aG9uJywgJy1waCcsICc3LjAnLCAnLXRuJywgJzgnLCAnLW1hJywgJzIwMCcsICctbWV0YWxfYmluZGluZycsICctaW1hZScsICc8aW5maWxlLm1hZT4nLCAnLW9tYWUnLCAnPG91dGZpbGUubWFlPic=

> <r_lp_tautomer_probability>
1

> <r_epik_Ionization_Penalty>
8.52698e-06

> <r_epik_Ionization_Penalty_Charging>
1.65421e-10

> <r_epik_Ionization_Penalty_Neutral>
8.52681e-06

> <r_epik_State_Penalty>
-0

> <r_epik_Charging_Adjusted_Penalty>
1.65421e-10

> <i_epik_Tot_Q>
0

> <i_epik_Tot_abs_Q>
0

> <r_epik_Metal_State_Penalty>
-0

> <b_epik_Metal_Only>
0

> <s_lp_Force_Field>
OPLS_2005

> <r_lp_Energy>
26.9154

> <b_lp_Chiralities_Consistent>
1

> <s_lp_Variant>
AV-unprocessed.smi:2523-2

> <Gold.Version>
5.8.1

> <Gold.Id.Protein>
6NUR|6NUR_protein|mol2

> <Gold.PLP.Fitness>
50.2485

> <Gold.PLP.PLP>
-36.2970

> <Gold.PLP.part.hbond>
-2.0000

> <Gold.PLP.part.metal>
0.0000

> <Gold.PLP.part.buried>
-5.3350

> <Gold.PLP.part.nonpolar>
-30.0548

> <Gold.PLP.part.repulsive>
0.1438

> <Gold.PLP.ligand.clash>
0.0000

> <Gold.PLP.ligand.torsion>
0.2730

> <Gold.PLP.Chemscore.Hbond>
2.0000

> <Gold.PLP.Chemscore.CHOScore>
2.8239

> <Gold.PLP.Chemscore.Metal>
0.0000

> <Gold.Chemscore.Hbonds>
donor molecule, donor type, donor heavy atom, donor atom, acceptor molecule, acceptor atom, score
      P1  H  7989  7998       L1     7  1.00
      P1  H  7997  8008       L1    11  1.00
      L1  C     4    25       P1  7948  1.00
      L1  C     6    26       P1  7948  0.91
      L1  C     6    26       P1  7957  0.86

> <Gold.PLP.Chemscore.Internal.Correction>
0.0258

> <Gold.Rescore>
     Score         DG    S(hbond)    S(metal)    S(lipo)     H(rot)  DE(clash)    DE(int)     intcor
     18.38     -19.88       1.98        0.00     108.71       1.93       0.02       1.48       ----

> <Gold.Chemscore.Fitness>
18.3780

> <Gold.Chemscore.DG>
-19.8834

> <Gold.Chemscore.ZeroCoef>
-5.4800

> <Gold.Chemscore.Hbond>
1.9809

> <Gold.Chemscore.Metal>
0.0000

> <Gold.Chemscore.Lipo>
108.7084

> <Gold.Chemscore.Internal_Hbond>
0.0000

> <Gold.Chemscore.DEClash>
0.0247

> <Gold.Chemscore.DEInternal>
1.4806

> <Gold.Chemscore.Rot>
1.9265

> <Gold.Chemscore.Internal.Correction>
   9.000000E+99

> <Gold.Chemscore.Hbonds>
donor molecule, donor type, donor heavy atom, donor atom, acceptor molecule, acceptor atom, score
      P1  H  7989  7998       L1     7  1.00
      P1  H  7997  8008       L1    11  0.98

> <Gold.Chemscore.Hbond.Weighted>
-6.6163

> <Gold.Chemscore.Metal.Weighted>
-0.0000

> <Gold.Chemscore.Lipo.Weighted>
-12.7189

> <Gold.Chemscore.Internal_Hbond.Weighted>
0.0000

> <Gold.Chemscore.DEClash.Weighted>
0.0247

> <Gold.Chemscore.DEInternal.Weighted>
1.4806

> <Gold.Chemscore.Rot.Weighted>
4.9317

> <Gold.Chemscore.Internal.Correction.Weighted>
   9.000000E+99

> <Gold.Protein.RotatedTorsions>
[ 6907 6896 6895 6894 ] final -131.32 input  -60.11 | X-H torsion
[ 7974 7965 7964 7962 ] final  105.33 input  175.53 | X-H torsion
[ 8008 7997 7996 7995 ] final  -81.26 input   59.86 | X-H torsion
[ 10167 10162 10161 10158 ] final -107.53 input  -65.29 | X-H torsion
[ 10718 10713 10712 10709 ] final  -44.28 input   66.30 | X-H torsion
[ 10763 10752 10751 10750 ] final  151.01 input  -60.55 | X-H torsion
[ 11005 11000 10999 10996 ] final  151.54 input  -57.11 | X-H torsion

> <Gold.Protein.ActiveResidues>
 VAL166  LYS551  ARG553  GLY616  TRP617  ASP618  TYR619  PRO620  LYS621  CYS622 
 ASP623  PHE694  ASN695  SER759  ASP760  ASP761  ALA762  ILE779  LEU786  VAL792 
 PHE793  MET794  SER795  GLU796  ALA797  LYS798  CYS799  TRP800  GLU811  SER814 

> <Gold.Protein.RotatedAtoms>
  150.9496  133.6564  159.2774 H   0  0  0  0  0  0  0  0  0  0  0  0  # atno 6907 bound_to 6896
  151.3924  135.0957  159.9540 H   0  0  0  0  0  0  0  0  0  0  0  0  # atno 6908 bound_to 6896
  152.5104  133.9008  159.7495 H   0  0  0  0  0  0  0  0  0  0  0  0  # atno 6909 bound_to 6896
  145.3211  139.2512  143.3711 H   0  0  0  0  0  0  0  0  0  0  0  0  # atno 7974 bound_to 7965
  154.5965  140.0650  156.9311 H   0  0  0  0  0  0  0  0  0  0  0  0  # atno 8008 bound_to 7997
  155.2205  140.3330  155.4298 H   0  0  0  0  0  0  0  0  0  0  0  0  # atno 8009 bound_to 7997
  156.2291  140.1832  156.7273 H   0  0  0  0  0  0  0  0  0  0  0  0  # atno 8010 bound_to 7997
  140.1759  143.4005  152.1319 H   0  0  0  0  0  0  0  0  0  0  0  0  # atno 10167 bound_to 10162
  156.2402  130.4179  149.8769 H   0  0  0  0  0  0  0  0  0  0  0  0  # atno 10718 bound_to 10713
  154.0968  135.2848  155.3260 H   0  0  0  0  0  0  0  0  0  0  0  0  # atno 10763 bound_to 10752
  154.6582  135.5344  153.7988 H   0  0  0  0  0  0  0  0  0  0  0  0  # atno 10764 bound_to 10752
  153.0393  135.6527  154.1134 H   0  0  0  0  0  0  0  0  0  0  0  0  # atno 10765 bound_to 10752
  140.1228  134.8853  157.2096 H   0  0  0  0  0  0  0  0  0  0  0  0  # atno 11005 bound_to 11000
  146.3082  140.3769  142.8680 LP  0  0  0  0  0  0  0  0  0  0  0  0  # atno 17320 bound_to 7965
  144.8938  140.7558  143.5910 LP  0  0  0  0  0  0  0  0  0  0  0  0  # atno 17321 bound_to 7965
  139.5317  144.7166  151.5032 LP  0  0  0  0  0  0  0  0  0  0  0  0  # atno 17342 bound_to 10162
  140.6551  143.8615  150.6827 LP  0  0  0  0  0  0  0  0  0  0  0  0  # atno 17343 bound_to 10162
  156.6353  130.8683  151.3503 LP  0  0  0  0  0  0  0  0  0  0  0  0  # atno 17370 bound_to 10713
  157.7172  130.9512  150.1299 LP  0  0  0  0  0  0  0  0  0  0  0  0  # atno 17371 bound_to 10713
  140.2943  134.3204  155.7306 LP  0  0  0  0  0  0  0  0  0  0  0  0  # atno 17394 bound_to 11000
  141.2155  133.7553  156.9548 LP  0  0  0  0  0  0  0  0  0  0  0  0  # atno 17395 bound_to 11000

$$$$
