AV-unprocessed.smi:1196|AV-procd|sdf|5007|dock3
  -GOLD-   22720 4 23D 1   1.00000     0.00000
 Structure written by MMmdl.
 36 37  0  0  0  0  0  0  0  0  2 V2000
  149.8819  141.4952  155.5542 C   0  0  0  0  0  0  0  0  0  0  0  0
  150.9810  141.3157  156.6136 C   0  0  1  0  0  0  0  0  0  0  0  0
  150.4957  141.7596  158.0075 C   0  0  0  0  0  0  0  0  0  0  0  0
  151.1207  142.9957  158.4448 N   0  0  0  0  0  0  0  0  0  0  0  0
  150.5394  144.2347  158.6125 C   0  0  0  0  0  0  0  0  0  0  0  0
  151.5188  145.0901  159.0292 C   0  0  0  0  0  0  0  0  0  0  0  0
  152.6808  144.2709  159.0866 C   0  0  0  0  0  0  0  0  0  0  0  0
  152.4394  143.0175  158.7381 N   0  0  0  0  0  0  0  0  0  0  0  0
  151.4121  139.9201  156.6515 N   0  0  0  0  0  0  0  0  0  0  0  0
  152.1981  139.3208  155.7443 C   0  0  0  0  0  0  0  0  0  0  0  0
  152.6443  139.8950  154.7508 O   0  0  0  0  0  0  0  0  0  0  0  0
  152.5373  137.8516  156.0041 C   0  0  0  0  0  0  0  0  0  0  0  0
  151.7697  136.8997  155.0680 C   0  0  0  0  0  0  0  0  0  0  0  0
  150.4098  136.4564  155.6426 C   0  0  1  0  0  0  0  0  0  0  0  0
  149.7019  135.6015  154.7141 N   0  0  0  0  0  0  0  0  0  0  0  0
  149.4304  134.4157  155.2552 C   0  0  0  0  0  0  0  0  0  0  0  0
  148.8166  133.5484  154.6377 O   0  0  0  0  0  0  0  0  0  0  0  0
  149.9227  134.3535  156.5075 N   0  5  0  0  0  0  0  0  0  0  0  0
  150.5327  135.5122  156.8384 C   0  0  0  0  0  0  0  0  0  0  0  0
  151.0986  135.8439  157.8786 O   0  0  0  0  0  0  0  0  0  0  0  0
  149.5583  142.5347  155.4979 H   0  0  0  0  0  0  0  0  0  0  0  0
  149.0072  140.8855  155.7831 H   0  0  0  0  0  0  0  0  0  0  0  0
  150.2366  141.2098  154.5634 H   0  0  0  0  0  0  0  0  0  0  0  0
  151.8276  141.9461  156.3343 H   0  0  0  0  0  0  0  0  0  0  0  0
  149.4169  141.9203  157.9926 H   0  0  0  0  0  0  0  0  0  0  0  0
  150.6822  140.9813  158.7497 H   0  0  0  0  0  0  0  0  0  0  0  0
  149.4896  144.4024  158.4223 H   0  0  0  0  0  0  0  0  0  0  0  0
  151.4204  146.1410  159.2570 H   0  0  0  0  0  0  0  0  0  0  0  0
  153.6855  144.5476  159.3702 H   0  0  0  0  0  0  0  0  0  0  0  0
  151.1009  139.3712  157.4402 H   0  0  0  0  0  0  0  0  0  0  0  0
  153.6111  137.7189  155.8693 H   0  0  0  0  0  0  0  0  0  0  0  0
  152.3221  137.6054  157.0451 H   0  0  0  0  0  0  0  0  0  0  0  0
  151.6257  137.3732  154.0949 H   0  0  0  0  0  0  0  0  0  0  0  0
  152.3783  136.0125  154.8856 H   0  0  0  0  0  0  0  0  0  0  0  0
  149.7923  137.3139  155.9128 H   0  0  0  0  0  0  0  0  0  0  0  0
  149.4331  135.8880  153.7847 H   0  0  0  0  0  0  0  0  0  0  0  0
  1  2  1  0  0  0  0
  1 21  1  0  0  0  0
  1 22  1  0  0  0  0
  1 23  1  0  0  0  0
  2  3  1  0  0  0  0
  2  9  1  0  0  0  0
  2 24  1  0  0  0  0
  3  4  1  0  0  0  0
  3 25  1  0  0  0  0
  3 26  1  0  0  0  0
  4  8  1  0  0  0  0
  4  5  1  0  0  0  0
  5  6  2  0  0  0  0
  5 27  1  0  0  0  0
  6  7  1  0  0  0  0
  6 28  1  0  0  0  0
  7  8  2  0  0  0  0
  7 29  1  0  0  0  0
  9 10  1  0  0  0  0
  9 30  1  0  0  0  0
 10 11  2  0  0  0  0
 10 12  1  0  0  0  0
 12 13  1  0  0  0  0
 12 31  1  0  0  0  0
 12 32  1  0  0  0  0
 13 14  1  0  0  0  0
 13 33  1  0  0  0  0
 13 34  1  0  0  0  0
 14 19  1  0  0  0  0
 14 15  1  0  0  0  0
 14 35  1  0  0  0  0
 15 16  1  0  0  0  0
 15 36  1  0  0  0  0
 16 17  2  0  0  0  0
 16 18  1  0  0  0  0
 18 19  1  0  0  0  0
 19 20  2  0  0  0  0
M  CHG  1  18  -1
M  END
> <s_m_source_file>
AV-unprocessed.smi

> <i_m_source_file_index>
1196

> <i_lp_mmshare_version>
43012

> <i_f3d_flags>
0

> <s_epik_input>
bjFbY0hdW2NIXVtjSF1uMVtDSDJdW0NAQEhdKFtDSDNdKVtOSF1DKD1PKVtDSDJdW0NIMl1bQ0BASF0yW05IXUMoPU8pW05IXUMyPU8=

> <s_epik_cmdline>
J2VwaWtfcHl0aG9uJywgJy1waCcsICc3LjAnLCAnLXRuJywgJzgnLCAnLW1hJywgJzIwMCcsICctbWV0YWxfYmluZGluZycsICctaW1hZScsICc8aW5maWxlLm1hZT4nLCAnLW9tYWUnLCAnPG91dGZpbGUubWFlPic=

> <r_lp_tautomer_probability>
1

> <r_epik_Ionization_Penalty>
2.57056

> <r_epik_Ionization_Penalty_Charging>
2.57023

> <r_epik_Ionization_Penalty_Neutral>
0.000331301

> <r_epik_State_Penalty>
2.56828

> <r_epik_Charging_Adjusted_Penalty>
5.13851

> <i_epik_Tot_Q>
-1

> <i_epik_Tot_abs_Q>
1

> <r_epik_Metal_State_Penalty>
0.444883

> <b_epik_Metal_Only>
1

> <s_lp_Force_Field>
OPLS_2005

> <r_lp_Energy>
6.594

> <b_lp_Chiralities_Consistent>
1

> <s_lp_Variant>
AV-unprocessed.smi:1196-12

> <Gold.Version>
5.8.1

> <Gold.Id.Protein>
6NUR|6NUR_protein|mol2

> <Gold.PLP.Fitness>
42.0974

> <Gold.PLP.PLP>
-32.3016

> <Gold.PLP.part.hbond>
-4.0000

> <Gold.PLP.part.metal>
0.0000

> <Gold.PLP.part.buried>
-3.7412

> <Gold.PLP.part.nonpolar>
-25.4790

> <Gold.PLP.part.repulsive>
0.2487

> <Gold.PLP.ligand.clash>
0.0000

> <Gold.PLP.ligand.torsion>
1.3791

> <Gold.PLP.Chemscore.Hbond>
3.0223

> <Gold.PLP.Chemscore.CHOScore>
1.1055

> <Gold.PLP.Chemscore.Metal>
0.0000

> <Gold.Chemscore.Hbonds>
donor molecule, donor type, donor heavy atom, donor atom, acceptor molecule, acceptor atom, score
      L1  H    15    36       P1  7948  1.00
      P1  H  6896  6909       L1    20  0.34
      P1  H  7989  7998       L1    11  0.50
      P1  H  7997  8010       L1    11  0.36
      L1  C     5    27       P1  8028  0.07
      L1  C     5    27       P1  8029  1.00

> <Gold.PLP.Chemscore.Internal.Correction>
0.1706

> <Gold.Rescore>
     Score         DG    S(hbond)    S(metal)    S(lipo)     H(rot)  DE(clash)    DE(int)     intcor
     13.74     -15.04       2.78        0.00      65.67       2.89       0.02       1.28       ----

> <Gold.Chemscore.Fitness>
13.7357

> <Gold.Chemscore.DG>
-15.0393

> <Gold.Chemscore.ZeroCoef>
-5.4800

> <Gold.Chemscore.Hbond>
2.7802

> <Gold.Chemscore.Metal>
0.0000

> <Gold.Chemscore.Lipo>
65.6709

> <Gold.Chemscore.Internal_Hbond>
0.0000

> <Gold.Chemscore.DEClash>
0.0234

> <Gold.Chemscore.DEInternal>
1.2801

> <Gold.Chemscore.Rot>
2.8946

> <Gold.Chemscore.Internal.Correction>
   9.000000E+99

> <Gold.Chemscore.Hbonds>
donor molecule, donor type, donor heavy atom, donor atom, acceptor molecule, acceptor atom, score
      L1  H    15    36       P1  7948  0.54
      P1  H  6896  6909       L1    20  0.32
      P1  H  7989  7998       L1    11  0.50
      P1  H  7997  8010       L1    11  0.02

> <Gold.Chemscore.Hbond.Weighted>
-9.2859

> <Gold.Chemscore.Metal.Weighted>
-0.0000

> <Gold.Chemscore.Lipo.Weighted>
-7.6835

> <Gold.Chemscore.Internal_Hbond.Weighted>
0.0000

> <Gold.Chemscore.DEClash.Weighted>
0.0234

> <Gold.Chemscore.DEInternal.Weighted>
1.2801

> <Gold.Chemscore.Rot.Weighted>
7.4101

> <Gold.Chemscore.Internal.Correction.Weighted>
   9.000000E+99

> <Gold.Protein.RotatedTorsions>
[ 6907 6896 6895 6894 ] final   65.33 input  -60.11 | X-H torsion
[ 7974 7965 7964 7962 ] final  -30.28 input  175.53 | X-H torsion
[ 8008 7997 7996 7995 ] final  115.22 input   59.86 | X-H torsion
[ 10167 10162 10161 10158 ] final  134.01 input  -65.29 | X-H torsion
[ 10718 10713 10712 10709 ] final  171.33 input   66.30 | X-H torsion
[ 10763 10752 10751 10750 ] final  -51.76 input  -60.55 | X-H torsion
[ 11005 11000 10999 10996 ] final  -68.63 input  -57.11 | X-H torsion

> <Gold.Protein.ActiveResidues>
 VAL166  LYS551  ARG553  GLY616  TRP617  ASP618  TYR619  PRO620  LYS621  CYS622 
 ASP623  PHE694  ASN695  SER759  ASP760  ASP761  ALA762  ILE779  LEU786  VAL792 
 PHE793  MET794  SER795  GLU796  ALA797  LYS798  CYS799  TRP800  GLU811  SER814 

> <Gold.Protein.RotatedAtoms>
  152.4399  134.5611  159.9894 H   0  0  0  0  0  0  0  0  0  0  0  0  # atno 6907 bound_to 6896
  151.5711  133.3384  159.2998 H   0  0  0  0  0  0  0  0  0  0  0  0  # atno 6908 bound_to 6896
  150.8304  134.7588  159.6912 H   0  0  0  0  0  0  0  0  0  0  0  0  # atno 6909 bound_to 6896
  146.1155  140.5520  142.8759 H   0  0  0  0  0  0  0  0  0  0  0  0  # atno 7974 bound_to 7965
  156.2368  140.2943  156.0336 H   0  0  0  0  0  0  0  0  0  0  0  0  # atno 8008 bound_to 7997
  155.2067  140.0411  157.2944 H   0  0  0  0  0  0  0  0  0  0  0  0  # atno 8009 bound_to 7997
  154.6094  140.2448  155.7695 H   0  0  0  0  0  0  0  0  0  0  0  0  # atno 8010 bound_to 7997
  139.5273  144.6588  151.5078 H   0  0  0  0  0  0  0  0  0  0  0  0  # atno 10167 bound_to 10162
  156.9951  131.0159  151.2846 H   0  0  0  0  0  0  0  0  0  0  0  0  # atno 10718 bound_to 10713
  154.1318  135.6519  153.4923 H   0  0  0  0  0  0  0  0  0  0  0  0  # atno 10763 bound_to 10752
  153.0193  135.5294  154.6994 H   0  0  0  0  0  0  0  0  0  0  0  0  # atno 10764 bound_to 10752
  154.6230  135.2967  155.0274 H   0  0  0  0  0  0  0  0  0  0  0  0  # atno 10765 bound_to 10752
  141.1536  133.6745  156.6475 H   0  0  0  0  0  0  0  0  0  0  0  0  # atno 11005 bound_to 11000
  144.7549  140.5282  143.6776 LP  0  0  0  0  0  0  0  0  0  0  0  0  # atno 17320 bound_to 7965
  145.5576  139.1478  143.3359 LP  0  0  0  0  0  0  0  0  0  0  0  0  # atno 17321 bound_to 7965
  140.6426  143.8858  150.6706 LP  0  0  0  0  0  0  0  0  0  0  0  0  # atno 17342 bound_to 10162
  140.2197  143.3818  152.1652 LP  0  0  0  0  0  0  0  0  0  0  0  0  # atno 17343 bound_to 10162
  157.5431  130.8133  149.8053 LP  0  0  0  0  0  0  0  0  0  0  0  0  # atno 17370 bound_to 10713
  156.0192  130.3802  150.2014 LP  0  0  0  0  0  0  0  0  0  0  0  0  # atno 17371 bound_to 10713
  140.3345  134.7900  157.4352 LP  0  0  0  0  0  0  0  0  0  0  0  0  # atno 17394 bound_to 11000
  140.0989  134.5500  155.8372 LP  0  0  0  0  0  0  0  0  0  0  0  0  # atno 17395 bound_to 11000

$$$$
