AV-unprocessed.smi:3025|AV-procd|sdf|11511|dock2
  -GOLD-   2272016443D 1   1.00000     0.00000
 Structure written by MMmdl.
 41 42  0  0  0  0  0  0  0  0  3 V2000
  151.8699  143.5912  158.7660 C   0  0  0  0  0  0  0  0  0  0  0  0
  151.2165  143.1449  157.4532 C   0  0  0  0  0  0  0  0  0  0  0  0
  151.3949  141.6399  157.1898 C   0  0  0  0  0  0  0  0  0  0  0  0
  150.7517  141.1471  155.8770 C   0  0  2  0  0  0  0  0  0  0  0  0
  149.2294  141.4002  155.8295 C   0  0  0  0  0  0  0  0  0  0  0  0
  148.6008  140.8787  154.5270 C   0  0  0  0  0  0  0  0  0  0  0  0
  148.8952  139.3799  154.3136 C   0  0  1  0  0  0  0  0  0  0  0  0
  148.3398  138.8921  153.0317 N   0  3  0  0  0  0  0  0  0  0  0  0
  146.8677  138.9437  152.9227 C   0  0  0  0  0  0  0  0  0  0  0  0
  146.2244  137.7445  153.6269 C   0  0  0  0  0  0  0  0  0  0  0  0
  145.7988  136.6826  152.6395 C   0  0  0  0  0  0  0  0  0  0  0  0
  145.1514  135.5409  152.9468 N   0  5  0  0  0  0  0  0  0  0  0  0
  144.8928  134.8580  151.8485 N   0  0  0  0  0  0  0  0  0  0  0  0
  145.3887  135.6184  150.8652 C   0  0  0  0  0  0  0  0  0  0  0  0
  145.9434  136.7479  151.3190 N   0  0  0  0  0  0  0  0  0  0  0  0
  150.4136  139.1319  154.3524 C   0  0  0  0  0  0  0  0  0  0  0  0
  151.0376  139.6478  155.6588 C   0  0  0  0  0  0  0  0  0  0  0  0
  151.7327  144.6613  158.9236 H   0  0  0  0  0  0  0  0  0  0  0  0
  152.9418  143.3909  158.7612 H   0  0  0  0  0  0  0  0  0  0  0  0
  151.4344  143.0709  159.6197 H   0  0  0  0  0  0  0  0  0  0  0  0
  150.1576  143.3995  157.4868 H   0  0  0  0  0  0  0  0  0  0  0  0
  151.6467  143.7151  156.6291 H   0  0  0  0  0  0  0  0  0  0  0  0
  152.4640  141.4255  157.1583 H   0  0  0  0  0  0  0  0  0  0  0  0
  150.9993  141.0695  158.0313 H   0  0  0  0  0  0  0  0  0  0  0  0
  151.2136  141.6932  155.0529 H   0  0  0  0  0  0  0  0  0  0  0  0
  148.7488  140.9186  156.6824 H   0  0  0  0  0  0  0  0  0  0  0  0
  149.0167  142.4652  155.9178 H   0  0  0  0  0  0  0  0  0  0  0  0
  147.5264  141.0588  154.5597 H   0  0  0  0  0  0  0  0  0  0  0  0
  148.9846  141.4548  153.6836 H   0  0  0  0  0  0  0  0  0  0  0  0
  148.4393  138.8070  155.1228 H   0  0  0  0  0  0  0  0  0  0  0  0
  148.7469  139.4213  152.2740 H   0  0  0  0  0  0  0  0  0  0  0  0
  146.5044  139.8712  153.3672 H   0  0  0  0  0  0  0  0  0  0  0  0
  146.5716  138.9497  151.8737 H   0  0  0  0  0  0  0  0  0  0  0  0
  146.9231  137.3023  154.3381 H   0  0  0  0  0  0  0  0  0  0  0  0
  145.3503  138.0622  154.1966 H   0  0  0  0  0  0  0  0  0  0  0  0
  145.3416  135.3500  149.8171 H   0  0  0  0  0  0  0  0  0  0  0  0
  150.6208  138.0662  154.2472 H   0  0  0  0  0  0  0  0  0  0  0  0
  150.8927  139.6242  153.5048 H   0  0  0  0  0  0  0  0  0  0  0  0
  152.1139  139.4724  155.6377 H   0  0  0  0  0  0  0  0  0  0  0  0
  150.6492  139.0717  156.4999 H   0  0  0  0  0  0  0  0  0  0  0  0
  148.6108  137.9247  152.9285 H   0  0  0  0  0  0  0  0  0  0  0  0
  1  2  1  0  0  0  0
  1 18  1  0  0  0  0
  1 19  1  0  0  0  0
  1 20  1  0  0  0  0
  2  3  1  0  0  0  0
  2 21  1  0  0  0  0
  2 22  1  0  0  0  0
  3  4  1  0  0  0  0
  3 23  1  0  0  0  0
  3 24  1  0  0  0  0
  4 17  1  0  0  0  0
  4  5  1  0  0  0  0
  4 25  1  0  0  0  0
  5  6  1  0  0  0  0
  5 26  1  0  0  0  0
  5 27  1  0  0  0  0
  6  7  1  0  0  0  0
  6 28  1  0  0  0  0
  6 29  1  0  0  0  0
  7  8  1  0  0  0  0
  7 16  1  0  0  0  0
  7 30  1  0  0  0  0
  8  9  1  0  0  0  0
  8 31  1  0  0  0  0
  8 41  1  0  0  0  0
  9 10  1  0  0  0  0
  9 32  1  0  0  0  0
  9 33  1  0  0  0  0
 10 34  1  0  0  0  0
 10 35  1  0  0  0  0
 10 11  1  0  0  0  0
 11 15  2  0  0  0  0
 11 12  1  0  0  0  0
 12 13  1  0  0  0  0
 13 14  2  0  0  0  0
 14 15  1  0  0  0  0
 14 36  1  0  0  0  0
 16 17  1  0  0  0  0
 16 37  1  0  0  0  0
 16 38  1  0  0  0  0
 17 39  1  0  0  0  0
 17 40  1  0  0  0  0
M  CHG  1   8   1
M  CHG  1  12  -1
M  END
> <s_m_source_file>
AV-unprocessed.smi

> <i_m_source_file_index>
3025

> <i_lp_mmshare_version>
43012

> <i_f3d_flags>
0

> <s_epik_input>
W0NIM11bQ0gyXVtDSDJdW0NAQEhdMVtDSDJdW0NIMl1bQ0BIXShbQ0gyXVtDSDJdMSlbTkhdW0NIMl1bQ0gyXWMybm5bY0hdW25IXTI=

> <s_epik_cmdline>
J2VwaWtfcHl0aG9uJywgJy1waCcsICc3LjAnLCAnLXRuJywgJzgnLCAnLW1hJywgJzIwMCcsICctbWV0YWxfYmluZGluZycsICctaW1hZScsICc8aW5maWxlLm1hZT4nLCAnLW9tYWUnLCAnPG91dGZpbGUubWFlPic=

> <r_lp_tautomer_probability>
0.948284

> <r_epik_Ionization_Penalty>
6.65342

> <r_epik_Ionization_Penalty_Charging>
6.65342

> <r_epik_Ionization_Penalty_Neutral>
1.40767e-13

> <r_epik_State_Penalty>
2.88894

> <r_epik_Charging_Adjusted_Penalty>
9.54236

> <i_epik_Tot_Q>
0

> <i_epik_Tot_abs_Q>
2

> <r_epik_Metal_State_Penalty>
0.664188

> <b_epik_Metal_Only>
1

> <s_lp_Force_Field>
OPLS_2005

> <r_lp_Energy>
6.5819

> <b_lp_Chiralities_Consistent>
1

> <s_lp_Variant>
AV-unprocessed.smi:3025-7

> <Gold.Version>
5.8.1

> <Gold.Id.Protein>
6NUR|6NUR_protein|mol2

> <Gold.PLP.Fitness>
44.3013

> <Gold.PLP.PLP>
-33.0618

> <Gold.PLP.part.hbond>
-1.9945

> <Gold.PLP.part.metal>
0.0000

> <Gold.PLP.part.buried>
-6.0173

> <Gold.PLP.part.nonpolar>
-27.6554

> <Gold.PLP.part.repulsive>
0.8112

> <Gold.PLP.ligand.clash>
0.0000

> <Gold.PLP.ligand.torsion>
0.4157

> <Gold.PLP.Chemscore.Hbond>
2.9913

> <Gold.PLP.Chemscore.CHOScore>
1.0000

> <Gold.PLP.Chemscore.Metal>
0.0000

> <Gold.Chemscore.Hbonds>
donor molecule, donor type, donor heavy atom, donor atom, acceptor molecule, acceptor atom, score
      L1  H     8    31       P1  7957  0.99
      L1  H     8    41       P1  7948  2.00
      L1  C    14    36       P1  7921  1.00

> <Gold.PLP.Chemscore.Internal.Correction>
0.0970

> <Gold.Rescore>
     Score         DG    S(hbond)    S(metal)    S(lipo)     H(rot)  DE(clash)    DE(int)     intcor
     14.48     -14.93       1.90        0.00      81.33       2.50       0.11       0.33       ----

> <Gold.Chemscore.Fitness>
14.4845

> <Gold.Chemscore.DG>
-14.9293

> <Gold.Chemscore.ZeroCoef>
-5.4800

> <Gold.Chemscore.Hbond>
1.8979

> <Gold.Chemscore.Metal>
0.0000

> <Gold.Chemscore.Lipo>
81.3275

> <Gold.Chemscore.Internal_Hbond>
0.0000

> <Gold.Chemscore.DEClash>
0.1100

> <Gold.Chemscore.DEInternal>
0.3348

> <Gold.Chemscore.Rot>
2.5019

> <Gold.Chemscore.Internal.Correction>
   9.000000E+99

> <Gold.Chemscore.Hbonds>
donor molecule, donor type, donor heavy atom, donor atom, acceptor molecule, acceptor atom, score
      L1  H     8    31       P1  7957  0.92
      L1  H     8    41       P1  7948  0.92

> <Gold.Chemscore.Hbond.Weighted>
-6.3389

> <Gold.Chemscore.Metal.Weighted>
-0.0000

> <Gold.Chemscore.Lipo.Weighted>
-9.5153

> <Gold.Chemscore.Internal_Hbond.Weighted>
0.0000

> <Gold.Chemscore.DEClash.Weighted>
0.1100

> <Gold.Chemscore.DEInternal.Weighted>
0.3348

> <Gold.Chemscore.Rot.Weighted>
6.4049

> <Gold.Chemscore.Internal.Correction.Weighted>
   9.000000E+99

> <Gold.Protein.RotatedTorsions>
[ 6907 6896 6895 6894 ] final  -81.62 input  -60.11 | X-H torsion
[ 7974 7965 7964 7962 ] final -152.04 input  175.53 | X-H torsion
[ 8008 7997 7996 7995 ] final  -46.12 input   59.86 | X-H torsion
[ 10167 10162 10161 10158 ] final  -12.45 input  -65.29 | X-H torsion
[ 10718 10713 10712 10709 ] final -137.66 input   66.30 | X-H torsion
[ 10763 10752 10751 10750 ] final   35.20 input  -60.55 | X-H torsion
[ 11005 11000 10999 10996 ] final   78.10 input  -57.11 | X-H torsion

> <Gold.Protein.ActiveResidues>
 VAL166  LYS551  ARG553  GLY616  TRP617  ASP618  TYR619  PRO620  LYS621  CYS622 
 ASP623  PHE694  ASN695  SER759  ASP760  ASP761  ALA762  ILE779  LEU786  VAL792 
 PHE793  MET794  SER795  GLU796  ALA797  LYS798  CYS799  TRP800  GLU811  SER814 

> <Gold.Protein.RotatedAtoms>
  150.6909  134.3790  159.5025 H   0  0  0  0  0  0  0  0  0  0  0  0  # atno 6907 bound_to 6896
  152.1595  134.8921  160.0552 H   0  0  0  0  0  0  0  0  0  0  0  0  # atno 6908 bound_to 6896
  151.9988  133.3783  159.4210 H   0  0  0  0  0  0  0  0  0  0  0  0  # atno 6909 bound_to 6896
  144.7816  140.4716  143.5835 H   0  0  0  0  0  0  0  0  0  0  0  0  # atno 7974 bound_to 7965
  154.4005  140.1379  156.3960 H   0  0  0  0  0  0  0  0  0  0  0  0  # atno 8008 bound_to 7997
  155.7869  140.3480  155.5308 H   0  0  0  0  0  0  0  0  0  0  0  0  # atno 8009 bound_to 7997
  155.8618  140.0957  157.1599 H   0  0  0  0  0  0  0  0  0  0  0  0  # atno 8010 bound_to 7997
  140.7161  143.5531  150.9279 H   0  0  0  0  0  0  0  0  0  0  0  0  # atno 10167 bound_to 10162
  156.2906  130.7373  151.1397 H   0  0  0  0  0  0  0  0  0  0  0  0  # atno 10718 bound_to 10713
  153.0129  135.6339  154.1790 H   0  0  0  0  0  0  0  0  0  0  0  0  # atno 10763 bound_to 10752
  154.1531  135.2828  155.3131 H   0  0  0  0  0  0  0  0  0  0  0  0  # atno 10764 bound_to 10752
  154.6039  135.5578  153.7463 H   0  0  0  0  0  0  0  0  0  0  0  0  # atno 10765 bound_to 10752
  139.9226  134.7737  156.1607 H   0  0  0  0  0  0  0  0  0  0  0  0  # atno 11005 bound_to 11000
  145.6034  139.1506  143.3116 LP  0  0  0  0  0  0  0  0  0  0  0  0  # atno 17320 bound_to 7965
  146.2027  140.6154  142.9095 LP  0  0  0  0  0  0  0  0  0  0  0  0  # atno 17321 bound_to 7965
  139.9256  143.6554  152.3087 LP  0  0  0  0  0  0  0  0  0  0  0  0  # atno 17342 bound_to 10162
  139.6987  144.7638  151.1311 LP  0  0  0  0  0  0  0  0  0  0  0  0  # atno 17343 bound_to 10162
  157.7341  131.0585  150.5541 LP  0  0  0  0  0  0  0  0  0  0  0  0  # atno 17370 bound_to 10713
  156.5657  130.4267  149.6042 LP  0  0  0  0  0  0  0  0  0  0  0  0  # atno 17371 bound_to 10713
  141.0760  133.6775  156.2236 LP  0  0  0  0  0  0  0  0  0  0  0  0  # atno 17394 bound_to 11000
  140.6428  134.5148  157.5571 LP  0  0  0  0  0  0  0  0  0  0  0  0  # atno 17395 bound_to 11000

$$$$
