AV-unprocessed.smi:1222|AV-procd|sdf|5122|dock4
  -GOLD-   22720 4183D 1   1.00000     0.00000
 Structure written by MMmdl.
 36 38  0  0  0  0  0  0  0  0  1 V2000
  146.7755  137.2204  153.0091 O   0  0  0  0  0  0  0  0  0  0  0  0
  145.8859  138.0660  152.9073 C   0  0  0  0  0  0  0  0  0  0  0  0
  146.0064  139.3646  153.2335 N   0  0  0  0  0  0  0  0  0  0  0  0
  147.1445  140.0381  153.7495 C   0  0  0  0  0  0  0  0  0  0  0  0
  148.2946  139.4364  154.0751 N   0  0  0  0  0  0  0  0  0  0  0  0
  149.2425  140.3426  154.5567 C   0  0  0  0  0  0  0  0  0  0  0  0
  148.7937  141.6396  154.5919 C   0  0  0  0  0  0  0  0  0  0  0  0
  147.1532  141.7750  154.0176 S   0  0  0  0  0  0  0  0  0  0  0  0
  144.6564  137.7944  152.4459 N   0  0  0  0  0  0  0  0  0  0  0  0
  144.1964  136.4819  152.0022 C   0  0  0  0  0  0  0  0  0  0  0  0
  144.2250  135.4668  153.1590 C   0  0  0  0  0  0  0  0  0  0  0  0
  143.8881  134.0517  152.6591 C   0  0  0  0  0  0  0  0  0  0  0  0
  144.8356  133.6440  151.6217 N   0  0  0  0  0  0  0  0  0  0  0  0
  144.5222  132.2863  151.2069 C   0  0  0  0  0  0  0  0  0  0  0  0
  145.2510  131.1576  151.8999 C   0  0  0  0  0  0  0  0  0  0  0  0
  145.5953  131.5140  150.4741 C   0  0  0  0  0  0  0  0  0  0  0  0
  144.7176  134.5326  150.4654 C   0  0  0  0  0  0  0  0  0  0  0  0
  145.0911  135.9721  150.8611 C   0  0  0  0  0  0  0  0  0  0  0  0
  145.1884  139.9393  153.0954 H   0  0  0  0  0  0  0  0  0  0  0  0
  150.2145  139.9771  154.8533 H   0  0  0  0  0  0  0  0  0  0  0  0
  149.3269  142.5196  154.9196 H   0  0  0  0  0  0  0  0  0  0  0  0
  143.9887  138.5498  152.3966 H   0  0  0  0  0  0  0  0  0  0  0  0
  143.1747  136.5664  151.6264 H   0  0  0  0  0  0  0  0  0  0  0  0
  145.2108  135.4598  153.6267 H   0  0  0  0  0  0  0  0  0  0  0  0
  143.5167  135.7580  153.9352 H   0  0  0  0  0  0  0  0  0  0  0  0
  143.9382  133.3518  153.4941 H   0  0  0  0  0  0  0  0  0  0  0  0
  142.8675  134.0177  152.2738 H   0  0  0  0  0  0  0  0  0  0  0  0
  143.5003  132.0595  150.9072 H   0  0  0  0  0  0  0  0  0  0  0  0
  145.9753  131.4154  152.6707 H   0  0  0  0  0  0  0  0  0  0  0  0
  144.6993  130.2352  152.0694 H   0  0  0  0  0  0  0  0  0  0  0  0
  145.2747  130.8273  149.6934 H   0  0  0  0  0  0  0  0  0  0  0  0
  146.5492  132.0078  150.2977 H   0  0  0  0  0  0  0  0  0  0  0  0
  145.3838  134.1896  149.6731 H   0  0  0  0  0  0  0  0  0  0  0  0
  143.7024  134.5005  150.0663 H   0  0  0  0  0  0  0  0  0  0  0  0
  145.0011  136.6272  149.9940 H   0  0  0  0  0  0  0  0  0  0  0  0
  146.1390  136.0016  151.1639 H   0  0  0  0  0  0  0  0  0  0  0  0
  1  2  2  0  0  0  0
  2  3  1  0  0  0  0
  2  9  1  0  0  0  0
  3  4  1  0  0  0  0
  3 19  1  0  0  0  0
  4  8  1  0  0  0  0
  4  5  2  0  0  0  0
  5  6  1  0  0  0  0
  6  7  2  0  0  0  0
  6 20  1  0  0  0  0
  7  8  1  0  0  0  0
  7 21  1  0  0  0  0
  9 10  1  0  0  0  0
  9 22  1  0  0  0  0
 10 18  1  0  0  0  0
 10 11  1  0  0  0  0
 10 23  1  0  0  0  0
 11 12  1  0  0  0  0
 11 24  1  0  0  0  0
 11 25  1  0  0  0  0
 12 13  1  0  0  0  0
 12 26  1  0  0  0  0
 12 27  1  0  0  0  0
 13 14  1  0  0  0  0
 13 17  1  0  0  0  0
 14 16  1  0  0  0  0
 14 15  1  0  0  0  0
 14 28  1  0  0  0  0
 15 16  1  0  0  0  0
 15 29  1  0  0  0  0
 15 30  1  0  0  0  0
 16 31  1  0  0  0  0
 16 32  1  0  0  0  0
 17 18  1  0  0  0  0
 17 33  1  0  0  0  0
 17 34  1  0  0  0  0
 18 35  1  0  0  0  0
 18 36  1  0  0  0  0
M  END
> <s_m_source_file>
AV-unprocessed.smi

> <i_m_source_file_index>
1222

> <i_lp_mmshare_version>
43012

> <i_f3d_flags>
0

> <s_epik_input>
czFbY0hdW2NIXW5jMVtOSF1DKD1PKVtOSF1bQ0hdMltDSDJdW0NIMl1OKFtDSDJdW0NIMl0yKVtDSF0zW0NIMl1bQ0gyXTM=

> <s_epik_cmdline>
J2VwaWtfcHl0aG9uJywgJy1waCcsICc3LjAnLCAnLXRuJywgJzgnLCAnLW1hJywgJzIwMCcsICctbWV0YWxfYmluZGluZycsICctaW1hZScsICc8aW5maWxlLm1hZT4nLCAnLW9tYWUnLCAnPG91dGZpbGUubWFlPic=

> <r_lp_tautomer_probability>
0.999

> <r_epik_Ionization_Penalty>
0.985554

> <r_epik_Ionization_Penalty_Charging>
0

> <r_epik_Ionization_Penalty_Neutral>
0.985554

> <r_epik_State_Penalty>
1.03262

> <r_epik_Charging_Adjusted_Penalty>
1.03262

> <i_epik_Tot_Q>
0

> <i_epik_Tot_abs_Q>
0

> <r_epik_Metal_State_Penalty>
1.07929

> <b_epik_Metal_Only>
0

> <s_lp_Force_Field>
OPLS_2005

> <r_lp_Energy>
20.1195

> <b_lp_Chiralities_Consistent>
1

> <s_lp_Variant>
AV-unprocessed.smi:1222-3

> <Gold.Version>
5.8.1

> <Gold.Id.Protein>
6NUR|6NUR_protein|mol2

> <Gold.PLP.Fitness>
38.1934

> <Gold.PLP.PLP>
-29.3095

> <Gold.PLP.part.hbond>
-3.0000

> <Gold.PLP.part.metal>
0.0000

> <Gold.PLP.part.buried>
-1.2498

> <Gold.PLP.part.nonpolar>
-28.0378

> <Gold.PLP.part.repulsive>
3.8308

> <Gold.PLP.ligand.clash>
0.0000

> <Gold.PLP.ligand.torsion>
0.6063

> <Gold.PLP.Chemscore.Hbond>
1.9760

> <Gold.PLP.Chemscore.CHOScore>
1.0000

> <Gold.PLP.Chemscore.Metal>
0.0000

> <Gold.Chemscore.Hbonds>
donor molecule, donor type, donor heavy atom, donor atom, acceptor molecule, acceptor atom, score
      L1  H     3    19       P1 10175  1.00
      L1  H     9    22       P1 10175  0.98
      L1  C     7    21       P1  8028  1.00

> <Gold.PLP.Chemscore.Internal.Correction>
1.1686

> <Gold.Rescore>
     Score         DG    S(hbond)    S(metal)    S(lipo)     H(rot)  DE(clash)    DE(int)     intcor
     13.41     -16.69       1.95        0.00      67.41       1.25       0.33       2.95       ----

> <Gold.Chemscore.Fitness>
13.4145

> <Gold.Chemscore.DG>
-16.6886

> <Gold.Chemscore.ZeroCoef>
-5.4800

> <Gold.Chemscore.Hbond>
1.9489

> <Gold.Chemscore.Metal>
0.0000

> <Gold.Chemscore.Lipo>
67.4079

> <Gold.Chemscore.Internal_Hbond>
0.0000

> <Gold.Chemscore.DEClash>
0.3251

> <Gold.Chemscore.DEInternal>
2.9490

> <Gold.Chemscore.Rot>
1.2451

> <Gold.Chemscore.Internal.Correction>
   9.000000E+99

> <Gold.Chemscore.Hbonds>
donor molecule, donor type, donor heavy atom, donor atom, acceptor molecule, acceptor atom, score
      L1  H     3    19       P1 10175  1.00
      L1  H     9    22       P1 10175  0.93

> <Gold.Chemscore.Hbond.Weighted>
-6.5093

> <Gold.Chemscore.Metal.Weighted>
-0.0000

> <Gold.Chemscore.Lipo.Weighted>
-7.8867

> <Gold.Chemscore.Internal_Hbond.Weighted>
0.0000

> <Gold.Chemscore.DEClash.Weighted>
0.3251

> <Gold.Chemscore.DEInternal.Weighted>
2.9490

> <Gold.Chemscore.Rot.Weighted>
3.1874

> <Gold.Chemscore.Internal.Correction.Weighted>
   9.000000E+99

> <Gold.Protein.RotatedTorsions>
[ 6907 6896 6895 6894 ] final   78.84 input  -60.11 | X-H torsion
[ 7974 7965 7964 7962 ] final  -82.51 input  175.53 | X-H torsion
[ 8008 7997 7996 7995 ] final  -74.23 input   59.86 | X-H torsion
[ 10167 10162 10161 10158 ] final   73.89 input  -65.29 | X-H torsion
[ 10718 10713 10712 10709 ] final  -23.66 input   66.30 | X-H torsion
[ 10763 10752 10751 10750 ] final   79.09 input  -60.55 | X-H torsion
[ 11005 11000 10999 10996 ] final -155.04 input  -57.11 | X-H torsion

> <Gold.Protein.ActiveResidues>
 VAL166  LYS551  ARG553  GLY616  TRP617  ASP618  TYR619  PRO620  LYS621  CYS622 
 ASP623  PHE694  ASN695  SER759  ASP760  ASP761  ALA762  ILE779  LEU786  VAL792 
 PHE793  MET794  SER795  GLU796  ALA797  LYS798  CYS799  TRP800  GLU811  SER814 

> <Gold.Protein.RotatedAtoms>
  152.5175  134.3602  159.9281 H   0  0  0  0  0  0  0  0  0  0  0  0  # atno 6907 bound_to 6896
  151.3554  133.3903  159.2692 H   0  0  0  0  0  0  0  0  0  0  0  0  # atno 6908 bound_to 6896
  150.9694  134.9088  159.7837 H   0  0  0  0  0  0  0  0  0  0  0  0  # atno 6909 bound_to 6896
  145.5324  140.9520  143.1596 H   0  0  0  0  0  0  0  0  0  0  0  0  # atno 7974 bound_to 7965
  154.5313  140.0765  156.8350 H   0  0  0  0  0  0  0  0  0  0  0  0  # atno 8008 bound_to 7997
  155.3369  140.3405  155.4221 H   0  0  0  0  0  0  0  0  0  0  0  0  # atno 8009 bound_to 7997
  156.1784  140.1643  156.8307 H   0  0  0  0  0  0  0  0  0  0  0  0  # atno 8010 bound_to 7997
  140.0196  144.5551  150.7593 H   0  0  0  0  0  0  0  0  0  0  0  0  # atno 10167 bound_to 10162
  156.4881  130.4560  149.6771 H   0  0  0  0  0  0  0  0  0  0  0  0  # atno 10718 bound_to 10713
  153.0925  135.4853  154.8716 H   0  0  0  0  0  0  0  0  0  0  0  0  # atno 10763 bound_to 10752
  154.7286  135.3055  154.8932 H   0  0  0  0  0  0  0  0  0  0  0  0  # atno 10764 bound_to 10752
  153.9575  135.6816  153.4798 H   0  0  0  0  0  0  0  0  0  0  0  0  # atno 10765 bound_to 10752
  140.6908  134.4043  157.5219 H   0  0  0  0  0  0  0  0  0  0  0  0  # atno 11005 bound_to 11000
  144.7619  139.6936  143.7231 LP  0  0  0  0  0  0  0  0  0  0  0  0  # atno 17320 bound_to 7965
  146.2036  139.5345  142.9727 LP  0  0  0  0  0  0  0  0  0  0  0  0  # atno 17321 bound_to 7965
  140.7348  143.2733  151.3820 LP  0  0  0  0  0  0  0  0  0  0  0  0  # atno 17342 bound_to 10162
  139.6149  144.1023  152.2335 LP  0  0  0  0  0  0  0  0  0  0  0  0  # atno 17343 bound_to 10162
  156.3454  130.7404  151.2355 LP  0  0  0  0  0  0  0  0  0  0  0  0  # atno 17370 bound_to 10713
  157.7476  131.0392  150.4539 LP  0  0  0  0  0  0  0  0  0  0  0  0  # atno 17371 bound_to 10713
  139.8924  134.8756  156.2273 LP  0  0  0  0  0  0  0  0  0  0  0  0  # atno 17394 bound_to 11000
  141.0243  133.7024  156.1321 LP  0  0  0  0  0  0  0  0  0  0  0  0  # atno 17395 bound_to 11000

$$$$
