AV-unprocessed.smi:2139|AV-procd|sdf|8713|dock4
  -GOLD-   2272011473D 1   1.00000     0.00000
 Structure written by MMmdl.
 40 41  0  0  0  0  0  0  0  0  1 V2000
  147.4545  139.0641  153.5349 C   0  0  0  0  0  0  0  0  0  0  0  0
  148.5785  139.5858  154.4418 C   0  0  0  0  0  0  0  0  0  0  0  0
  148.8025  141.1073  154.3451 C   0  0  1  0  0  0  0  0  0  0  0  0
  147.4747  141.8709  154.2473 C   0  0  0  0  0  0  0  0  0  0  0  0
  149.5508  141.5941  155.5031 N   0  0  0  0  0  0  0  0  0  0  0  0
  150.7377  141.1288  155.9275 C   0  0  0  0  0  0  0  0  0  0  0  0
  151.3373  140.1963  155.3916 O   0  0  0  0  0  0  0  0  0  0  0  0
  151.2876  141.8097  157.1544 C   0  0  0  0  0  0  0  0  0  0  0  0
  151.2570  143.2213  157.2361 C   0  0  0  0  0  0  0  0  0  0  0  0
  151.8132  143.8655  158.3552 C   0  0  0  0  0  0  0  0  0  0  0  0
  152.3934  143.0714  159.3586 C   0  0  0  0  0  0  0  0  0  0  0  0
  152.4354  141.7254  159.3003 N   0  0  0  0  0  0  0  0  0  0  0  0
  151.8983  141.0934  158.2270 C   0  0  0  0  0  0  0  0  0  0  0  0
  151.9303  139.6849  158.2468 N   0  0  0  0  0  0  0  0  0  0  0  0
  152.7757  139.0424  159.2470 C   0  0  0  0  0  0  0  0  0  0  0  0
  152.8730  137.5355  158.9522 C   0  0  0  0  0  0  0  0  0  0  0  0
  151.5646  136.9726  158.8988 O   0  0  0  0  0  0  0  0  0  0  0  0
  150.7682  137.5594  157.8725 C   0  0  0  0  0  0  0  0  0  0  0  0
  150.6156  139.0669  158.1360 C   0  0  0  0  0  0  0  0  0  0  0  0
  147.2868  137.9999  153.7007 H   0  0  0  0  0  0  0  0  0  0  0  0
  147.6973  139.1970  152.4813 H   0  0  0  0  0  0  0  0  0  0  0  0
  146.5160  139.5835  153.7316 H   0  0  0  0  0  0  0  0  0  0  0  0
  148.3369  139.3271  155.4734 H   0  0  0  0  0  0  0  0  0  0  0  0
  149.5042  139.0589  154.2071 H   0  0  0  0  0  0  0  0  0  0  0  0
  149.3580  141.3054  153.4269 H   0  0  0  0  0  0  0  0  0  0  0  0
  146.9005  141.5498  153.3778 H   0  0  0  0  0  0  0  0  0  0  0  0
  147.6456  142.9435  154.1496 H   0  0  0  0  0  0  0  0  0  0  0  0
  146.8568  141.7108  155.1315 H   0  0  0  0  0  0  0  0  0  0  0  0
  149.1319  142.3508  156.0239 H   0  0  0  0  0  0  0  0  0  0  0  0
  150.8215  143.8148  156.4450 H   0  0  0  0  0  0  0  0  0  0  0  0
  151.8024  144.9423  158.4381 H   0  0  0  0  0  0  0  0  0  0  0  0
  152.8349  143.5282  160.2319 H   0  0  0  0  0  0  0  0  0  0  0  0
  153.7690  139.4921  159.2389 H   0  0  0  0  0  0  0  0  0  0  0  0
  152.3544  139.1969  160.2412 H   0  0  0  0  0  0  0  0  0  0  0  0
  153.3955  137.3568  158.0112 H   0  0  0  0  0  0  0  0  0  0  0  0
  153.4441  137.0355  159.7345 H   0  0  0  0  0  0  0  0  0  0  0  0
  151.2233  137.3807  156.8967 H   0  0  0  0  0  0  0  0  0  0  0  0
  149.7901  137.0781  157.8614 H   0  0  0  0  0  0  0  0  0  0  0  0
  150.0639  139.2315  159.0625 H   0  0  0  0  0  0  0  0  0  0  0  0
  150.0387  139.5293  157.3360 H   0  0  0  0  0  0  0  0  0  0  0  0
  1  2  1  0  0  0  0
  1 20  1  0  0  0  0
  1 21  1  0  0  0  0
  1 22  1  0  0  0  0
  2  3  1  0  0  0  0
  2 23  1  0  0  0  0
  2 24  1  0  0  0  0
  3  4  1  0  0  0  0
  3  5  1  0  0  0  0
  3 25  1  0  0  0  0
  4 26  1  0  0  0  0
  4 27  1  0  0  0  0
  4 28  1  0  0  0  0
  5  6  1  0  0  0  0
  5 29  1  0  0  0  0
  6  7  2  0  0  0  0
  6  8  1  0  0  0  0
  8 13  1  0  0  0  0
  8  9  2  0  0  0  0
  9 10  1  0  0  0  0
  9 30  1  0  0  0  0
 10 11  2  0  0  0  0
 10 31  1  0  0  0  0
 11 12  1  0  0  0  0
 11 32  1  0  0  0  0
 12 13  2  0  0  0  0
 13 14  1  0  0  0  0
 14 19  1  0  0  0  0
 14 15  1  0  0  0  0
 15 16  1  0  0  0  0
 15 33  1  0  0  0  0
 15 34  1  0  0  0  0
 16 17  1  0  0  0  0
 16 35  1  0  0  0  0
 16 36  1  0  0  0  0
 17 18  1  0  0  0  0
 18 19  1  0  0  0  0
 18 37  1  0  0  0  0
 18 38  1  0  0  0  0
 19 39  1  0  0  0  0
 19 40  1  0  0  0  0
M  END
> <s_m_source_file>
AV-unprocessed.smi

> <i_m_source_file_index>
2139

> <i_lp_mmshare_version>
43012

> <i_f3d_flags>
0

> <s_epik_input>
W0NIM11bQ0gyXVtDQEhdKFtDSDNdKVtOSF1DKD1PKWMxW2NIXVtjSF1bY0hdbmMxTjJbQ0gyXVtDSDJdT1tDSDJdW0NIMl0y

> <s_epik_cmdline>
J2VwaWtfcHl0aG9uJywgJy1waCcsICc3LjAnLCAnLXRuJywgJzgnLCAnLW1hJywgJzIwMCcsICctbWV0YWxfYmluZGluZycsICctaW1hZScsICc8aW5maWxlLm1hZT4nLCAnLW9tYWUnLCAnPG91dGZpbGUubWFlPic=

> <r_lp_tautomer_probability>
1

> <r_epik_Ionization_Penalty>
1.73125e-05

> <r_epik_Ionization_Penalty_Charging>
0

> <r_epik_Ionization_Penalty_Neutral>
1.73125e-05

> <r_epik_State_Penalty>
-0

> <r_epik_Charging_Adjusted_Penalty>
0

> <i_epik_Tot_Q>
0

> <i_epik_Tot_abs_Q>
0

> <r_epik_Metal_State_Penalty>
-0

> <b_epik_Metal_Only>
0

> <s_lp_Force_Field>
OPLS_2005

> <r_lp_Energy>
25.2402

> <b_lp_Chiralities_Consistent>
1

> <s_lp_Variant>
AV-unprocessed.smi:2139-2

> <Gold.Version>
5.8.1

> <Gold.Id.Protein>
6NUR|6NUR_protein|mol2

> <Gold.PLP.Fitness>
41.0404

> <Gold.PLP.PLP>
-36.5877

> <Gold.PLP.part.hbond>
-2.7072

> <Gold.PLP.part.metal>
0.0000

> <Gold.PLP.part.buried>
-5.1311

> <Gold.PLP.part.nonpolar>
-29.1887

> <Gold.PLP.part.repulsive>
0.1755

> <Gold.PLP.ligand.clash>
0.0000

> <Gold.PLP.ligand.torsion>
1.0346

> <Gold.PLP.Chemscore.Hbond>
2.0893

> <Gold.PLP.Chemscore.CHOScore>
0.0000

> <Gold.PLP.Chemscore.Metal>
0.0000

> <Gold.Chemscore.Hbonds>
donor molecule, donor type, donor heavy atom, donor atom, acceptor molecule, acceptor atom, score
      L1  H     5    29       P1  8028  0.03
      P1  H  6896  6907       L1    17  0.84
      P1  H  7989  7998       L1     7  1.00

> <Gold.PLP.Chemscore.Internal.Correction>
0.2541

> <Gold.Rescore>
     Score         DG    S(hbond)    S(metal)    S(lipo)     H(rot)  DE(clash)    DE(int)     intcor
     13.72     -17.67       1.59        0.00      87.28       1.30       0.03       3.92       ----

> <Gold.Chemscore.Fitness>
13.7247

> <Gold.Chemscore.DG>
-17.6723

> <Gold.Chemscore.ZeroCoef>
-5.4800

> <Gold.Chemscore.Hbond>
1.5925

> <Gold.Chemscore.Metal>
0.0000

> <Gold.Chemscore.Lipo>
87.2809

> <Gold.Chemscore.Internal_Hbond>
0.0000

> <Gold.Chemscore.DEClash>
0.0304

> <Gold.Chemscore.DEInternal>
3.9172

> <Gold.Chemscore.Rot>
1.3041

> <Gold.Chemscore.Internal.Correction>
   9.000000E+99

> <Gold.Chemscore.Hbonds>
donor molecule, donor type, donor heavy atom, donor atom, acceptor molecule, acceptor atom, score
      L1  H     5    29       P1  8028  0.07
      P1  H  6896  6907       L1    17  0.61
      P1  H  7989  7998       L1     7  0.35

> <Gold.Chemscore.Hbond.Weighted>
-5.3189

> <Gold.Chemscore.Metal.Weighted>
-0.0000

> <Gold.Chemscore.Lipo.Weighted>
-10.2119

> <Gold.Chemscore.Internal_Hbond.Weighted>
0.0000

> <Gold.Chemscore.DEClash.Weighted>
0.0304

> <Gold.Chemscore.DEInternal.Weighted>
3.9172

> <Gold.Chemscore.Rot.Weighted>
3.3385

> <Gold.Chemscore.Internal.Correction.Weighted>
   9.000000E+99

> <Gold.Protein.RotatedTorsions>
[ 6907 6896 6895 6894 ] final   -5.56 input  -60.11 | X-H torsion
[ 7974 7965 7964 7962 ] final -174.43 input  175.53 | X-H torsion
[ 8008 7997 7996 7995 ] final   40.76 input   59.86 | X-H torsion
[ 10167 10162 10161 10158 ] final  -82.35 input  -65.29 | X-H torsion
[ 10718 10713 10712 10709 ] final  -48.98 input   66.30 | X-H torsion
[ 10763 10752 10751 10750 ] final -164.92 input  -60.55 | X-H torsion
[ 11005 11000 10999 10996 ] final  111.42 input  -57.11 | X-H torsion

> <Gold.Protein.ActiveResidues>
 VAL166  LYS551  ARG553  GLY616  TRP617  ASP618  TYR619  PRO620  LYS621  CYS622 
 ASP623  PHE694  ASN695  SER759  ASP760  ASP761  ALA762  ILE779  LEU786  VAL792 
 PHE793  MET794  SER795  GLU796  ALA797  LYS798  CYS799  TRP800  GLU811  SER814 

> <Gold.Protein.RotatedAtoms>
  151.4796  135.1051  159.9773 H   0  0  0  0  0  0  0  0  0  0  0  0  # atno 6907 bound_to 6896
  152.4784  133.8191  159.7054 H   0  0  0  0  0  0  0  0  0  0  0  0  # atno 6908 bound_to 6896
  150.8838  133.7273  159.2950 H   0  0  0  0  0  0  0  0  0  0  0  0  # atno 6909 bound_to 6896
  144.7132  140.1472  143.6387 H   0  0  0  0  0  0  0  0  0  0  0  0  # atno 7974 bound_to 7965
  155.2584  140.3357  155.4275 H   0  0  0  0  0  0  0  0  0  0  0  0  # atno 8008 bound_to 7997
  156.2185  140.1799  156.7575 H   0  0  0  0  0  0  0  0  0  0  0  0  # atno 8009 bound_to 7997
  154.5790  140.0657  156.9060 H   0  0  0  0  0  0  0  0  0  0  0  0  # atno 8010 bound_to 7997
  140.4328  143.2542  151.8735 H   0  0  0  0  0  0  0  0  0  0  0  0  # atno 10167 bound_to 10162
  156.1936  130.4153  149.9337 H   0  0  0  0  0  0  0  0  0  0  0  0  # atno 10718 bound_to 10713
  154.6982  135.2983  154.9380 H   0  0  0  0  0  0  0  0  0  0  0  0  # atno 10763 bound_to 10752
  154.0321  135.6669  153.4785 H   0  0  0  0  0  0  0  0  0  0  0  0  # atno 10764 bound_to 10752
  153.0661  135.5087  154.8112 H   0  0  0  0  0  0  0  0  0  0  0  0  # atno 10765 bound_to 10752
  139.8903  134.9507  156.6429 H   0  0  0  0  0  0  0  0  0  0  0  0  # atno 11005 bound_to 11000
  145.9148  139.2509  143.1416 LP  0  0  0  0  0  0  0  0  0  0  0  0  # atno 17320 bound_to 7965
  145.9679  140.8783  143.0177 LP  0  0  0  0  0  0  0  0  0  0  0  0  # atno 17321 bound_to 7965
  139.4785  144.5316  151.8659 LP  0  0  0  0  0  0  0  0  0  0  0  0  # atno 17342 bound_to 10162
  140.4407  144.1990  150.5891 LP  0  0  0  0  0  0  0  0  0  0  0  0  # atno 17343 bound_to 10162
  156.7069  130.8955  151.3605 LP  0  0  0  0  0  0  0  0  0  0  0  0  # atno 17370 bound_to 10713
  157.6944  130.9266  150.0603 LP  0  0  0  0  0  0  0  0  0  0  0  0  # atno 17371 bound_to 10713
  140.7580  133.8841  155.8396 LP  0  0  0  0  0  0  0  0  0  0  0  0  # atno 17394 bound_to 11000
  140.9946  134.1233  157.4376 LP  0  0  0  0  0  0  0  0  0  0  0  0  # atno 17395 bound_to 11000

$$$$
