AV-unprocessed.smi:3141|AV-procd|sdf|11968|dock4
  -GOLD-   2272017363D 1   1.00000     0.00000
 Structure written by MMmdl.
 35 37  0  0  0  0  0  0  0  0  1 V2000
  147.6019  142.7916  159.8462 O   0  0  0  0  0  0  0  0  0  0  0  0
  147.8367  143.2705  158.7365 C   0  0  0  0  0  0  0  0  0  0  0  0
  146.8993  143.5558  157.8232 N   0  0  0  0  0  0  0  0  0  0  0  0
  145.4966  143.3538  157.9885 C   0  0  0  0  0  0  0  0  0  0  0  0
  144.6017  143.6291  156.7998 C   0  0  0  0  0  0  0  0  0  0  0  0
  144.6045  144.5759  157.9679 C   0  0  0  0  0  0  0  0  0  0  0  0
  149.0652  143.5697  158.2941 N   0  0  0  0  0  0  0  0  0  0  0  0
  150.3062  143.3528  159.0403 C   0  0  2  0  0  0  0  0  0  0  0  0
  150.7415  144.6488  159.7565 C   0  0  0  0  0  0  0  0  0  0  0  0
  151.9887  145.1658  159.0233 C   0  0  0  0  0  0  0  0  0  0  0  0
  152.0705  144.3630  157.7251 C   0  0  0  0  0  0  0  0  0  0  0  0
  151.4828  143.0004  158.1067 C   0  0  2  0  0  0  0  0  0  0  0  0
  151.1369  142.1292  156.9874 N   0  0  0  0  0  0  0  0  0  0  0  0
  151.5494  140.8128  156.8131 C   0  0  0  0  0  0  0  0  0  0  0  0
  151.0255  140.3850  155.6150 C   0  0  0  0  0  0  0  0  0  0  0  0
  150.3135  141.4224  155.0202 N   0  0  0  0  0  0  0  0  0  0  0  0
  150.4349  142.4242  155.8814 C   0  0  0  0  0  0  0  0  0  0  0  0
  147.1997  143.9453  156.9416 H   0  0  0  0  0  0  0  0  0  0  0  0
  145.1821  142.5442  158.6453 H   0  0  0  0  0  0  0  0  0  0  0  0
  145.0696  143.9679  155.8774 H   0  0  0  0  0  0  0  0  0  0  0  0
  143.7285  142.9924  156.6718 H   0  0  0  0  0  0  0  0  0  0  0  0
  143.7337  144.5711  158.6203 H   0  0  0  0  0  0  0  0  0  0  0  0
  145.0739  145.5474  157.8252 H   0  0  0  0  0  0  0  0  0  0  0  0
  149.1552  143.9588  157.3670 H   0  0  0  0  0  0  0  0  0  0  0  0
  150.1562  142.5451  159.7591 H   0  0  0  0  0  0  0  0  0  0  0  0
  149.9506  145.4005  159.7508 H   0  0  0  0  0  0  0  0  0  0  0  0
  150.9773  144.4503  160.8025 H   0  0  0  0  0  0  0  0  0  0  0  0
  151.9484  146.2399  158.8408 H   0  0  0  0  0  0  0  0  0  0  0  0
  152.8740  144.9694  159.6294 H   0  0  0  0  0  0  0  0  0  0  0  0
  151.4561  144.8449  156.9630 H   0  0  0  0  0  0  0  0  0  0  0  0
  153.0892  144.2924  157.3423 H   0  0  0  0  0  0  0  0  0  0  0  0
  152.2333  142.4712  158.6966 H   0  0  0  0  0  0  0  0  0  0  0  0
  152.1602  140.3002  157.5420 H   0  0  0  0  0  0  0  0  0  0  0  0
  151.1155  139.4222  155.1341 H   0  0  0  0  0  0  0  0  0  0  0  0
  149.9972  143.3940  155.6964 H   0  0  0  0  0  0  0  0  0  0  0  0
  1  2  2  0  0  0  0
  2  3  1  0  0  0  0
  2  7  1  0  0  0  0
  3  4  1  0  0  0  0
  3 18  1  0  0  0  0
  4  6  1  0  0  0  0
  4  5  1  0  0  0  0
  4 19  1  0  0  0  0
  5  6  1  0  0  0  0
  5 20  1  0  0  0  0
  5 21  1  0  0  0  0
  6 22  1  0  0  0  0
  6 23  1  0  0  0  0
  7  8  1  0  0  0  0
  7 24  1  0  0  0  0
  8 12  1  0  0  0  0
  8  9  1  0  0  0  0
  8 25  1  0  0  0  0
  9 10  1  0  0  0  0
  9 26  1  0  0  0  0
  9 27  1  0  0  0  0
 10 11  1  0  0  0  0
 10 28  1  0  0  0  0
 10 29  1  0  0  0  0
 11 12  1  0  0  0  0
 11 30  1  0  0  0  0
 11 31  1  0  0  0  0
 12 13  1  0  0  0  0
 12 32  1  0  0  0  0
 13 17  1  0  0  0  0
 13 14  1  0  0  0  0
 14 15  2  0  0  0  0
 14 33  1  0  0  0  0
 15 16  1  0  0  0  0
 15 34  1  0  0  0  0
 16 17  2  0  0  0  0
 17 35  1  0  0  0  0
M  END
> <s_m_source_file>
AV-unprocessed.smi

> <i_m_source_file_index>
3141

> <i_lp_mmshare_version>
43012

> <i_f3d_flags>
0

> <s_epik_input>
W0NIMl0xW0NIMl1bQ0hdMVtOSF1DKD1PKVtOSF1bQ0BASF0yW0NIMl1bQ0gyXVtDSDJdW0NASF0ybjNbY0hdW2NIXW5bY0hdMw==

> <s_epik_cmdline>
J2VwaWtfcHl0aG9uJywgJy1waCcsICc3LjAnLCAnLXRuJywgJzgnLCAnLW1hJywgJzIwMCcsICctbWV0YWxfYmluZGluZycsICctaW1hZScsICc8aW5maWxlLm1hZT4nLCAnLW9tYWUnLCAnPG91dGZpbGUubWFlPic=

> <r_lp_tautomer_probability>
1

> <r_epik_Ionization_Penalty>
0.728419

> <r_epik_Ionization_Penalty_Charging>
0.728357

> <r_epik_Ionization_Penalty_Neutral>
6.27871e-05

> <r_epik_State_Penalty>
0.753408

> <r_epik_Charging_Adjusted_Penalty>
1.48176

> <i_epik_Tot_Q>
0

> <i_epik_Tot_abs_Q>
0

> <r_epik_Metal_State_Penalty>
0.332413

> <b_epik_Metal_Only>
0

> <s_lp_Force_Field>
OPLS_2005

> <r_lp_Energy>
36.3958

> <b_lp_Chiralities_Consistent>
1

> <s_lp_Variant>
AV-unprocessed.smi:3141-7

> <Gold.Version>
5.8.1

> <Gold.Id.Protein>
6NUR|6NUR_protein|mol2

> <Gold.PLP.Fitness>
42.9986

> <Gold.PLP.PLP>
-32.3275

> <Gold.PLP.part.hbond>
-6.8601

> <Gold.PLP.part.metal>
0.0000

> <Gold.PLP.part.buried>
-1.4545

> <Gold.PLP.part.nonpolar>
-24.3054

> <Gold.PLP.part.repulsive>
0.2144

> <Gold.PLP.ligand.clash>
0.0000

> <Gold.PLP.ligand.torsion>
0.5546

> <Gold.PLP.Chemscore.Hbond>
2.9061

> <Gold.PLP.Chemscore.CHOScore>
1.0000

> <Gold.PLP.Chemscore.Metal>
0.0000

> <Gold.Chemscore.Hbonds>
donor molecule, donor type, donor heavy atom, donor atom, acceptor molecule, acceptor atom, score
      L1  H     7    24       P1  8028  0.85
      P1  H  6933  6944       L1     1  0.74
      P1  H  6934  6946       L1     1  0.32
      L1  C    17    35       P1  8028  0.24

> <Gold.PLP.Chemscore.Internal.Correction>
0.0621

> <Gold.Rescore>
     Score         DG    S(hbond)    S(metal)    S(lipo)     H(rot)  DE(clash)    DE(int)     intcor
     13.22     -14.16       1.50        0.00      65.65       1.57       0.18       0.76       ----

> <Gold.Chemscore.Fitness>
13.2165

> <Gold.Chemscore.DG>
-14.1598

> <Gold.Chemscore.ZeroCoef>
-5.4800

> <Gold.Chemscore.Hbond>
1.5028

> <Gold.Chemscore.Metal>
0.0000

> <Gold.Chemscore.Lipo>
65.6491

> <Gold.Chemscore.Internal_Hbond>
0.0000

> <Gold.Chemscore.DEClash>
0.1807

> <Gold.Chemscore.DEInternal>
0.7626

> <Gold.Chemscore.Rot>
1.5705

> <Gold.Chemscore.Internal.Correction>
   9.000000E+99

> <Gold.Chemscore.Hbonds>
donor molecule, donor type, donor heavy atom, donor atom, acceptor molecule, acceptor atom, score
      L1  H     7    24       P1  8028  0.15
      P1  H  6933  6944       L1     1  0.72
      P1  H  6934  6946       L1     1  0.31

> <Gold.Chemscore.Hbond.Weighted>
-5.0194

> <Gold.Chemscore.Metal.Weighted>
-0.0000

> <Gold.Chemscore.Lipo.Weighted>
-7.6809

> <Gold.Chemscore.Internal_Hbond.Weighted>
0.0000

> <Gold.Chemscore.DEClash.Weighted>
0.1807

> <Gold.Chemscore.DEInternal.Weighted>
0.7626

> <Gold.Chemscore.Rot.Weighted>
4.0206

> <Gold.Chemscore.Internal.Correction.Weighted>
   9.000000E+99

> <Gold.Protein.RotatedTorsions>
[ 6907 6896 6895 6894 ] final  103.48 input  -60.11 | X-H torsion
[ 7974 7965 7964 7962 ] final -102.81 input  175.53 | X-H torsion
[ 8008 7997 7996 7995 ] final   65.13 input   59.86 | X-H torsion
[ 10167 10162 10161 10158 ] final   26.38 input  -65.29 | X-H torsion
[ 10718 10713 10712 10709 ] final  -41.37 input   66.30 | X-H torsion
[ 10763 10752 10751 10750 ] final   63.66 input  -60.55 | X-H torsion
[ 11005 11000 10999 10996 ] final  -14.08 input  -57.11 | X-H torsion

> <Gold.Protein.ActiveResidues>
 VAL166  LYS551  ARG553  GLY616  TRP617  ASP618  TYR619  PRO620  LYS621  CYS622 
 ASP623  PHE694  ASN695  SER759  ASP760  ASP761  ALA762  ILE779  LEU786  VAL792 
 PHE793  MET794  SER795  GLU796  ALA797  LYS798  CYS799  TRP800  GLU811  SER814 

> <Gold.Protein.RotatedAtoms>
  152.5294  133.9819  159.7810 H   0  0  0  0  0  0  0  0  0  0  0  0  # atno 6907 bound_to 6896
  151.0071  133.5992  159.2694 H   0  0  0  0  0  0  0  0  0  0  0  0  # atno 6908 bound_to 6896
  151.3080  135.0793  159.9315 H   0  0  0  0  0  0  0  0  0  0  0  0  # atno 6909 bound_to 6896
  145.2639  140.9278  143.3025 H   0  0  0  0  0  0  0  0  0  0  0  0  # atno 7974 bound_to 7965
  155.6569  140.3497  155.4768 H   0  0  0  0  0  0  0  0  0  0  0  0  # atno 8008 bound_to 7997
  155.9801  140.1173  157.0757 H   0  0  0  0  0  0  0  0  0  0  0  0  # atno 8009 bound_to 7997
  154.4189  140.1140  156.5410 H   0  0  0  0  0  0  0  0  0  0  0  0  # atno 8010 bound_to 7997
  140.5028  144.0288  150.6339 H   0  0  0  0  0  0  0  0  0  0  0  0  # atno 10167 bound_to 10162
  156.2711  130.4207  149.8437 H   0  0  0  0  0  0  0  0  0  0  0  0  # atno 10718 bound_to 10713
  153.0026  135.5421  154.6386 H   0  0  0  0  0  0  0  0  0  0  0  0  # atno 10763 bound_to 10752
  154.5647  135.2836  155.0888 H   0  0  0  0  0  0  0  0  0  0  0  0  # atno 10764 bound_to 10752
  154.2077  135.6473  153.5158 H   0  0  0  0  0  0  0  0  0  0  0  0  # atno 10765 bound_to 10752
  140.7828  133.8349  155.9307 H   0  0  0  0  0  0  0  0  0  0  0  0  # atno 11005 bound_to 11000
  144.9394  139.4207  143.6456 LP  0  0  0  0  0  0  0  0  0  0  0  0  # atno 17320 bound_to 7965
  146.3267  139.8346  142.8902 LP  0  0  0  0  0  0  0  0  0  0  0  0  # atno 17321 bound_to 7965
  140.3588  143.2920  152.0406 LP  0  0  0  0  0  0  0  0  0  0  0  0  # atno 17342 bound_to 10162
  139.4876  144.6318  151.7054 LP  0  0  0  0  0  0  0  0  0  0  0  0  # atno 17343 bound_to 10162
  156.5918  130.8509  151.3410 LP  0  0  0  0  0  0  0  0  0  0  0  0  # atno 17370 bound_to 10713
  157.7284  130.9656  150.1741 LP  0  0  0  0  0  0  0  0  0  0  0  0  # atno 17371 bound_to 10713
  140.9466  134.1832  157.4759 LP  0  0  0  0  0  0  0  0  0  0  0  0  # atno 17394 bound_to 11000
  139.8740  134.9893  156.5450 LP  0  0  0  0  0  0  0  0  0  0  0  0  # atno 17395 bound_to 11000

$$$$
