AV-unprocessed.smi:625|AV-procd|sdf|3102|dock7
  -GOLD-   22720 0 23D 1   1.00000     0.00000
 Structure written by MMmdl.
 49 51  0  0  0  0  0  0  0  0  1 V2000
  142.3850  134.7863  153.0734 C   0  0  0  0  0  0  0  0  0  0  0  0
  143.5752  133.9493  153.0747 N   0  0  0  0  0  0  0  0  0  0  0  0
  144.6936  134.2162  152.3805 C   0  0  0  0  0  0  0  0  0  0  0  0
  144.7936  135.2218  151.6748 O   0  0  0  0  0  0  0  0  0  0  0  0
  145.7487  133.2145  152.5509 C   0  0  0  0  0  0  0  0  0  0  0  0
  145.4959  131.7817  152.5745 C   0  0  0  0  0  0  0  0  0  0  0  0
  146.5063  130.9111  152.7702 C   0  0  0  0  0  0  0  0  0  0  0  0
  147.8879  131.3605  152.9677 C   0  0  0  0  0  0  0  0  0  0  0  0
  148.8086  130.5684  153.1683 O   0  0  0  0  0  0  0  0  0  0  0  0
  148.0835  132.7125  152.9196 N   0  0  0  0  0  0  0  0  0  0  0  0
  149.4082  133.3092  153.1503 C   0  0  0  0  0  0  0  0  0  0  0  0
  149.3523  134.3155  154.3038 C   0  0  0  0  0  0  0  0  0  0  0  0
  148.4323  134.2718  155.1207 O   0  0  0  0  0  0  0  0  0  0  0  0
  150.3350  135.2284  154.3378 N   0  0  0  0  0  0  0  0  0  0  0  0
  150.3812  136.3972  155.2123 C   0  0  1  0  0  0  0  0  0  0  0  0
  150.2860  135.9417  156.6764 C   0  0  0  0  0  0  0  0  0  0  0  0
  151.6740  137.2002  154.9287 C   0  0  2  0  0  0  0  0  0  0  0  0
  152.0076  138.2861  155.9760 C   0  0  0  0  0  0  0  0  0  0  0  0
  152.2764  139.5321  155.1101 C   0  0  2  0  0  0  0  0  0  0  0  0
  150.9392  140.0663  154.5642 C   0  0  0  0  0  0  0  0  0  0  0  0
  150.5648  139.0171  153.5022 C   0  0  0  0  0  0  0  0  0  0  0  0
  151.7224  138.0023  153.6019 C   0  0  1  0  0  0  0  0  0  0  0  0
  152.9057  138.9286  153.8595 C   0  0  0  0  0  0  0  0  0  0  0  0
  147.0229  133.6169  152.7148 C   0  0  0  0  0  0  0  0  0  0  0  0
  141.6297  134.3598  153.7334 H   0  0  0  0  0  0  0  0  0  0  0  0
  141.9613  134.8560  152.0706 H   0  0  0  0  0  0  0  0  0  0  0  0
  142.6165  135.7928  153.4248 H   0  0  0  0  0  0  0  0  0  0  0  0
  143.5496  133.1120  153.6382 H   0  0  0  0  0  0  0  0  0  0  0  0
  144.5012  131.3841  152.4362 H   0  0  0  0  0  0  0  0  0  0  0  0
  146.2939  129.8519  152.7843 H   0  0  0  0  0  0  0  0  0  0  0  0
  150.1677  132.5592  153.3753 H   0  0  0  0  0  0  0  0  0  0  0  0
  149.7494  133.7999  152.2367 H   0  0  0  0  0  0  0  0  0  0  0  0
  151.0573  135.1646  153.6353 H   0  0  0  0  0  0  0  0  0  0  0  0
  149.5252  137.0444  155.0157 H   0  0  0  0  0  0  0  0  0  0  0  0
  150.3002  136.7929  157.3573 H   0  0  0  0  0  0  0  0  0  0  0  0
  151.1160  135.2875  156.9450 H   0  0  0  0  0  0  0  0  0  0  0  0
  149.3597  135.3952  156.8563 H   0  0  0  0  0  0  0  0  0  0  0  0
  152.5031  136.4905  154.9020 H   0  0  0  0  0  0  0  0  0  0  0  0
  151.1988  138.4576  156.6873 H   0  0  0  0  0  0  0  0  0  0  0  0
  152.8942  138.0062  156.5462 H   0  0  0  0  0  0  0  0  0  0  0  0
  152.8783  140.2911  155.6104 H   0  0  0  0  0  0  0  0  0  0  0  0
  150.1811  140.1589  155.3427 H   0  0  0  0  0  0  0  0  0  0  0  0
  151.0689  141.0468  154.1045 H   0  0  0  0  0  0  0  0  0  0  0  0
  149.5842  138.5761  153.6747 H   0  0  0  0  0  0  0  0  0  0  0  0
  150.5434  139.4714  152.5108 H   0  0  0  0  0  0  0  0  0  0  0  0
  151.8292  137.3768  152.7153 H   0  0  0  0  0  0  0  0  0  0  0  0
  153.0686  139.6559  153.0617 H   0  0  0  0  0  0  0  0  0  0  0  0
  153.8394  138.3986  154.0561 H   0  0  0  0  0  0  0  0  0  0  0  0
  147.3219  134.6560  152.7231 H   0  0  0  0  0  0  0  0  0  0  0  0
  1  2  1  0  0  0  0
  1 25  1  0  0  0  0
  1 26  1  0  0  0  0
  1 27  1  0  0  0  0
  2  3  1  0  0  0  0
  2 28  1  0  0  0  0
  3  4  2  0  0  0  0
  3  5  1  0  0  0  0
  5 24  2  0  0  0  0
  5  6  1  0  0  0  0
  6  7  2  0  0  0  0
  6 29  1  0  0  0  0
  7  8  1  0  0  0  0
  7 30  1  0  0  0  0
  8  9  2  0  0  0  0
  8 10  1  0  0  0  0
 10 11  1  0  0  0  0
 10 24  1  0  0  0  0
 11 12  1  0  0  0  0
 11 31  1  0  0  0  0
 11 32  1  0  0  0  0
 12 13  2  0  0  0  0
 12 14  1  0  0  0  0
 14 15  1  0  0  0  0
 14 33  1  0  0  0  0
 15 16  1  0  0  0  0
 15 17  1  0  0  0  0
 15 34  1  0  0  0  0
 16 35  1  0  0  0  0
 16 36  1  0  0  0  0
 16 37  1  0  0  0  0
 17 22  1  0  0  0  0
 17 18  1  0  0  0  0
 17 38  1  0  0  0  0
 18 19  1  0  0  0  0
 18 39  1  0  0  0  0
 18 40  1  0  0  0  0
 19 23  1  0  0  0  0
 19 20  1  0  0  0  0
 19 41  1  0  0  0  0
 20 21  1  0  0  0  0
 20 42  1  0  0  0  0
 20 43  1  0  0  0  0
 21 22  1  0  0  0  0
 21 44  1  0  0  0  0
 21 45  1  0  0  0  0
 22 23  1  0  0  0  0
 22 46  1  0  0  0  0
 23 47  1  0  0  0  0
 23 48  1  0  0  0  0
 24 49  1  0  0  0  0
M  END
> <s_m_source_file>
AV-unprocessed.smi

> <i_m_source_file_index>
625

> <i_lp_mmshare_version>
43012

> <i_f3d_flags>
0

> <s_epik_input>
W0NIM11bTkhdQyg9TyljMVtjSF1bY0hdYyg9TyluKFtjSF0xKVtDSDJdQyg9TylbTkhdW0NASF0oW0NIM10pW0NASF0oW0NIMl1bQ0BIXTIzKVtDQEhdKFtDSDJdMylbQ0gyXVtDSDJdMg==

> <s_epik_cmdline>
J2VwaWtfcHl0aG9uJywgJy1waCcsICc3LjAnLCAnLXRuJywgJzgnLCAnLW1hJywgJzIwMCcsICctbWV0YWxfYmluZGluZycsICctaW1hZScsICc8aW5maWxlLm1hZT4nLCAnLW9tYWUnLCAnPG91dGZpbGUubWFlPic=

> <r_lp_tautomer_probability>
1

> <r_epik_Ionization_Penalty>
3.7129e-07

> <r_epik_Ionization_Penalty_Charging>
5.04114e-08

> <r_epik_Ionization_Penalty_Neutral>
3.20879e-07

> <r_epik_State_Penalty>
-0

> <r_epik_Charging_Adjusted_Penalty>
5.04114e-08

> <i_epik_Tot_Q>
0

> <i_epik_Tot_abs_Q>
0

> <r_epik_Metal_State_Penalty>
-0

> <b_epik_Metal_Only>
0

> <s_lp_Force_Field>
OPLS_2005

> <r_lp_Energy>
63.4228

> <b_lp_Chiralities_Consistent>
1

> <s_lp_Variant>
AV-unprocessed.smi:625-2

> <Gold.Version>
5.8.1

> <Gold.Id.Protein>
6NUR|6NUR_protein|mol2

> <Gold.PLP.Fitness>
43.1797

> <Gold.PLP.PLP>
-39.4725

> <Gold.PLP.part.hbond>
-1.0000

> <Gold.PLP.part.metal>
0.0000

> <Gold.PLP.part.buried>
-3.8116

> <Gold.PLP.part.nonpolar>
-33.9371

> <Gold.PLP.part.repulsive>
0.3827

> <Gold.PLP.ligand.clash>
0.0000

> <Gold.PLP.ligand.torsion>
1.1710

> <Gold.PLP.Chemscore.Hbond>
1.0000

> <Gold.PLP.Chemscore.CHOScore>
1.0000

> <Gold.PLP.Chemscore.Metal>
0.0000

> <Gold.Chemscore.Hbonds>
donor molecule, donor type, donor heavy atom, donor atom, acceptor molecule, acceptor atom, score
      L1  H     2    28       P1 10957  1.00
      L1  H    14    33       P1  7949  0.20
      L1  C    24    49       P1  7948  1.00

> <Gold.PLP.Chemscore.Internal.Correction>
0.0492

> <Gold.Rescore>
     Score         DG    S(hbond)    S(metal)    S(lipo)     H(rot)  DE(clash)    DE(int)     intcor
     10.97     -14.78       0.96        0.00      88.57       1.67       0.06       3.75       ----

> <Gold.Chemscore.Fitness>
10.9726

> <Gold.Chemscore.DG>
-14.7810

> <Gold.Chemscore.ZeroCoef>
-5.4800

> <Gold.Chemscore.Hbond>
0.9628

> <Gold.Chemscore.Metal>
0.0000

> <Gold.Chemscore.Lipo>
88.5695

> <Gold.Chemscore.Internal_Hbond>
0.0000

> <Gold.Chemscore.DEClash>
0.0626

> <Gold.Chemscore.DEInternal>
3.7459

> <Gold.Chemscore.Rot>
1.6709

> <Gold.Chemscore.Internal.Correction>
   9.000000E+99

> <Gold.Chemscore.Hbonds>
donor molecule, donor type, donor heavy atom, donor atom, acceptor molecule, acceptor atom, score
      L1  H     2    28       P1 10957  0.91
      L1  H    14    33       P1  7949  0.03

> <Gold.Chemscore.Hbond.Weighted>
-3.2158

> <Gold.Chemscore.Metal.Weighted>
-0.0000

> <Gold.Chemscore.Lipo.Weighted>
-10.3626

> <Gold.Chemscore.Internal_Hbond.Weighted>
0.0000

> <Gold.Chemscore.DEClash.Weighted>
0.0626

> <Gold.Chemscore.DEInternal.Weighted>
3.7459

> <Gold.Chemscore.Rot.Weighted>
4.2774

> <Gold.Chemscore.Internal.Correction.Weighted>
   9.000000E+99

> <Gold.Protein.RotatedTorsions>
[ 6907 6896 6895 6894 ] final  150.23 input  -60.11 | X-H torsion
[ 7974 7965 7964 7962 ] final  126.39 input  175.53 | X-H torsion
[ 8008 7997 7996 7995 ] final  -32.99 input   59.86 | X-H torsion
[ 10167 10162 10161 10158 ] final -140.05 input  -65.29 | X-H torsion
[ 10718 10713 10712 10709 ] final -126.93 input   66.30 | X-H torsion
[ 10763 10752 10751 10750 ] final   94.39 input  -60.55 | X-H torsion
[ 11005 11000 10999 10996 ] final  -27.87 input  -57.11 | X-H torsion

> <Gold.Protein.ActiveResidues>
 VAL166  LYS551  ARG553  GLY616  TRP617  ASP618  TYR619  PRO620  LYS621  CYS622 
 ASP623  PHE694  ASN695  SER759  ASP760  ASP761  ALA762  ILE779  LEU786  VAL792 
 PHE793  MET794  SER795  GLU796  ALA797  LYS798  CYS799  TRP800  GLU811  SER814 

> <Gold.Protein.RotatedAtoms>
  152.1172  133.4333  159.4658 H   0  0  0  0  0  0  0  0  0  0  0  0  # atno 6907 bound_to 6896
  150.6870  134.2578  159.4546 H   0  0  0  0  0  0  0  0  0  0  0  0  # atno 6908 bound_to 6896
  152.0451  134.9687  160.0625 H   0  0  0  0  0  0  0  0  0  0  0  0  # atno 6909 bound_to 6896
  145.0622  139.3796  143.5000 H   0  0  0  0  0  0  0  0  0  0  0  0  # atno 7974 bound_to 7965
  154.4163  140.1723  156.1815 H   0  0  0  0  0  0  0  0  0  0  0  0  # atno 8008 bound_to 7997
  155.9678  140.3388  155.6524 H   0  0  0  0  0  0  0  0  0  0  0  0  # atno 8009 bound_to 7997
  155.6665  140.0707  157.2526 H   0  0  0  0  0  0  0  0  0  0  0  0  # atno 8010 bound_to 7997
  139.8320  143.7435  152.2665 H   0  0  0  0  0  0  0  0  0  0  0  0  # atno 10167 bound_to 10162
  156.1810  130.6732  151.0305 H   0  0  0  0  0  0  0  0  0  0  0  0  # atno 10718 bound_to 10713
  153.2411  135.4291  155.0699 H   0  0  0  0  0  0  0  0  0  0  0  0  # atno 10763 bound_to 10752
  154.8341  135.3403  154.6648 H   0  0  0  0  0  0  0  0  0  0  0  0  # atno 10764 bound_to 10752
  153.7071  135.7025  153.5104 H   0  0  0  0  0  0  0  0  0  0  0  0  # atno 10765 bound_to 10752
  140.9158  133.7431  156.0732 H   0  0  0  0  0  0  0  0  0  0  0  0  # atno 11005 bound_to 11000
  146.3525  140.0326  142.8649 LP  0  0  0  0  0  0  0  0  0  0  0  0  # atno 17320 bound_to 7965
  145.1395  140.9563  143.4497 LP  0  0  0  0  0  0  0  0  0  0  0  0  # atno 17321 bound_to 7965
  139.7645  144.7496  151.0315 LP  0  0  0  0  0  0  0  0  0  0  0  0  # atno 17342 bound_to 10162
  140.7806  143.4713  151.0142 LP  0  0  0  0  0  0  0  0  0  0  0  0  # atno 17343 bound_to 10162
  157.6868  131.0822  150.7220 LP  0  0  0  0  0  0  0  0  0  0  0  0  # atno 17370 bound_to 10713
  156.7277  130.4700  149.5507 LP  0  0  0  0  0  0  0  0  0  0  0  0  # atno 17371 bound_to 10713
  140.8052  134.3463  157.5428 LP  0  0  0  0  0  0  0  0  0  0  0  0  # atno 17394 bound_to 11000
  139.8766  134.9221  156.3293 LP  0  0  0  0  0  0  0  0  0  0  0  0  # atno 17395 bound_to 11000

$$$$
