AV-unprocessed.smi:276|AV-procd|sdf|2083|dock3
  -GOLD-   2262021353D 1   1.00000     0.00000
 Structure written by MMmdl.
 57 61  0  0  0  0  0  0  0  0  1 V2000
  154.0471  137.2482  156.8253 C   0  0  0  0  0  0  0  0  0  0  0  0
  152.8403  136.9085  156.1651 O   0  0  0  0  0  0  0  0  0  0  0  0
  152.3584  137.9479  155.3245 C   0  0  1  0  0  0  0  0  0  0  0  0
  151.2170  137.4830  154.4086 C   0  0  0  0  0  0  0  0  0  0  0  0
  150.2049  137.9174  155.4877 C   0  0  1  0  0  0  0  0  0  0  0  0
  149.8152  136.7920  156.3479 N   0  0  0  0  0  0  0  0  0  0  0  0
  149.4983  135.5315  155.6813 C   0  0  0  0  0  0  0  0  0  0  0  0
  148.9324  137.0461  157.3411 C   0  0  0  0  0  0  0  0  0  0  0  0
  148.4046  138.2949  157.3868 N   0  0  0  0  0  0  0  0  0  0  0  0
  147.5272  138.6173  158.3412 C   0  0  0  0  0  0  0  0  0  0  0  0
  147.0593  137.8600  159.3351 N   0  0  0  0  0  0  0  0  0  0  0  0
  147.6012  136.6090  159.3037 C   0  0  0  0  0  0  0  0  0  0  0  0
  148.5376  136.1194  158.3496 C   0  0  0  0  0  0  0  0  0  0  0  0
  148.8558  134.7975  158.6391 N   0  0  0  0  0  0  0  0  0  0  0  0
  148.1409  134.5186  159.6938 C   0  0  0  0  0  0  0  0  0  0  0  0
  147.3771  135.5574  160.1754 N   0  0  0  0  0  0  0  0  0  0  0  0
  146.4991  135.5259  161.3319 C   0  0  0  0  0  0  0  0  0  0  0  0
  146.3965  134.1398  162.0124 C   0  0  1  0  0  0  0  0  0  0  0  0
  147.2932  134.1889  163.1040 O   0  0  0  0  0  0  0  0  0  0  0  0
  145.0057  133.7729  162.5813 C   0  0  1  0  0  0  0  0  0  0  0  0
  144.2212  134.9137  163.2389 C   0  0  0  0  0  0  0  0  0  0  0  0
  142.7619  134.5318  163.0457 C   0  0  0  0  0  0  0  0  0  0  0  0
  142.8125  133.3920  162.0295 C   0  0  0  0  0  0  0  0  0  0  0  0
  144.1327  133.4385  161.5113 O   0  0  0  0  0  0  0  0  0  0  0  0
  151.3273  138.8306  156.0494 C   0  0  0  0  0  0  0  0  0  0  0  0
  151.3053  140.3352  155.7289 C   0  0  0  0  0  0  0  0  0  0  0  0
  152.0828  140.5718  157.0257 C   0  0  0  0  0  0  0  0  0  0  0  0
  151.5189  139.2404  157.5245 C   0  0  0  0  0  0  0  0  0  0  0  0
  154.3678  136.4148  157.4501 H   0  0  0  0  0  0  0  0  0  0  0  0
  153.9099  138.1179  157.4689 H   0  0  0  0  0  0  0  0  0  0  0  0
  154.8470  137.4618  156.1158 H   0  0  0  0  0  0  0  0  0  0  0  0
  153.1479  138.5118  154.8250 H   0  0  0  0  0  0  0  0  0  0  0  0
  151.1415  138.0922  153.5065 H   0  0  0  0  0  0  0  0  0  0  0  0
  151.2290  136.4223  154.1578 H   0  0  0  0  0  0  0  0  0  0  0  0
  149.3644  138.4635  155.0598 H   0  0  0  0  0  0  0  0  0  0  0  0
  148.6392  135.0206  156.1205 H   0  0  0  0  0  0  0  0  0  0  0  0
  150.3533  134.8585  155.7471 H   0  0  0  0  0  0  0  0  0  0  0  0
  149.2779  135.6955  154.6259 H   0  0  0  0  0  0  0  0  0  0  0  0
  147.1464  139.6274  158.3037 H   0  0  0  0  0  0  0  0  0  0  0  0
  148.1656  133.5458  160.1626 H   0  0  0  0  0  0  0  0  0  0  0  0
  146.8827  136.2602  162.0419 H   0  0  0  0  0  0  0  0  0  0  0  0
  145.5096  135.8745  161.0325 H   0  0  0  0  0  0  0  0  0  0  0  0
  146.7369  133.3605  161.3301 H   0  0  0  0  0  0  0  0  0  0  0  0
  147.7050  135.0392  163.1180 H   0  0  0  0  0  0  0  0  0  0  0  0
  145.0777  132.9297  163.2714 H   0  0  0  0  0  0  0  0  0  0  0  0
  144.4740  135.0437  164.2906 H   0  0  0  0  0  0  0  0  0  0  0  0
  144.4158  135.8549  162.7228 H   0  0  0  0  0  0  0  0  0  0  0  0
  142.3005  134.2026  163.9771 H   0  0  0  0  0  0  0  0  0  0  0  0
  142.1899  135.3798  162.6677 H   0  0  0  0  0  0  0  0  0  0  0  0
  142.6522  132.4304  162.5194 H   0  0  0  0  0  0  0  0  0  0  0  0
  142.0713  133.5003  161.2373 H   0  0  0  0  0  0  0  0  0  0  0  0
  151.8332  140.6240  154.8196 H   0  0  0  0  0  0  0  0  0  0  0  0
  150.2992  140.7574  155.7595 H   0  0  0  0  0  0  0  0  0  0  0  0
  153.1643  140.5465  156.8825 H   0  0  0  0  0  0  0  0  0  0  0  0
  151.7673  141.4455  157.5964 H   0  0  0  0  0  0  0  0  0  0  0  0
  150.5897  139.3899  158.0726 H   0  0  0  0  0  0  0  0  0  0  0  0
  152.2228  138.6297  158.0902 H   0  0  0  0  0  0  0  0  0  0  0  0
  1  2  1  0  0  0  0
  1 29  1  0  0  0  0
  1 30  1  0  0  0  0
  1 31  1  0  0  0  0
  2  3  1  0  0  0  0
  3 25  1  0  0  0  0
  3  4  1  0  0  0  0
  3 32  1  0  0  0  0
  4  5  1  0  0  0  0
  4 33  1  0  0  0  0
  4 34  1  0  0  0  0
  5  6  1  0  0  0  0
  5 25  1  0  0  0  0
  5 35  1  0  0  0  0
  6  7  1  0  0  0  0
  6  8  1  0  0  0  0
  7 36  1  0  0  0  0
  7 37  1  0  0  0  0
  7 38  1  0  0  0  0
  8 13  1  0  0  0  0
  8  9  2  0  0  0  0
  9 10  1  0  0  0  0
 10 11  2  0  0  0  0
 10 39  1  0  0  0  0
 11 12  1  0  0  0  0
 12 16  1  0  0  0  0
 12 13  2  0  0  0  0
 13 14  1  0  0  0  0
 14 15  2  0  0  0  0
 15 16  1  0  0  0  0
 15 40  1  0  0  0  0
 16 17  1  0  0  0  0
 17 18  1  0  0  0  0
 17 41  1  0  0  0  0
 17 42  1  0  0  0  0
 18 19  1  0  0  0  0
 18 20  1  0  0  0  0
 18 43  1  0  0  0  0
 19 44  1  0  0  0  0
 20 24  1  0  0  0  0
 20 21  1  0  0  0  0
 20 45  1  0  0  0  0
 21 22  1  0  0  0  0
 21 46  1  0  0  0  0
 21 47  1  0  0  0  0
 22 23  1  0  0  0  0
 22 48  1  0  0  0  0
 22 49  1  0  0  0  0
 23 24  1  0  0  0  0
 23 50  1  0  0  0  0
 23 51  1  0  0  0  0
 25 28  1  0  0  0  0
 25 26  1  0  0  0  0
 26 27  1  0  0  0  0
 26 52  1  0  0  0  0
 26 53  1  0  0  0  0
 27 28  1  0  0  0  0
 27 54  1  0  0  0  0
 27 55  1  0  0  0  0
 28 56  1  0  0  0  0
 28 57  1  0  0  0  0
M  END
> <s_m_source_file>
AV-unprocessed.smi

> <i_m_source_file_index>
276

> <i_lp_mmshare_version>
43012

> <i_f3d_flags>
0

> <s_epik_input>
W0NIMl0xW0NIMl1bQ0gyXUMxMltDQEhdKE9bQ0gzXSlbQ0gyXVtDQEhdMk4oW0NIM10pYyhuW2NIXW4zKWMoYzM0KW5bY0hdbjRbQ0gyXVtDQEhdKFtPSF0pW0NAQEhdNVtDSDJdW0NIMl1bQ0gyXU81

> <s_epik_cmdline>
J2VwaWtfcHl0aG9uJywgJy1waCcsICc3LjAnLCAnLXRuJywgJzgnLCAnLW1hJywgJzIwMCcsICctbWV0YWxfYmluZGluZycsICctaW1hZScsICc8aW5maWxlLm1hZT4nLCAnLW9tYWUnLCAnPG91dGZpbGUubWFlPic=

> <r_lp_tautomer_probability>
1

> <r_epik_Ionization_Penalty>
0.00204117

> <r_epik_Ionization_Penalty_Charging>
0

> <r_epik_Ionization_Penalty_Neutral>
0.00204117

> <r_epik_State_Penalty>
0.00127401

> <r_epik_Charging_Adjusted_Penalty>
0.00127401

> <i_epik_Tot_Q>
0

> <i_epik_Tot_abs_Q>
0

> <r_epik_Metal_State_Penalty>
-0

> <b_epik_Metal_Only>
0

> <s_lp_Force_Field>
OPLS_2005

> <r_lp_Energy>
58.3472

> <b_lp_Chiralities_Consistent>
1

> <s_lp_Variant>
AV-unprocessed.smi:276-14

> <Gold.Version>
5.8.1

> <Gold.Id.Protein>
6NUR|6NUR_protein|mol2

> <Gold.PLP.Fitness>
40.3489

> <Gold.PLP.PLP>
-36.1278

> <Gold.PLP.part.hbond>
-3.8301

> <Gold.PLP.part.metal>
0.0000

> <Gold.PLP.part.buried>
-4.2330

> <Gold.PLP.part.nonpolar>
-29.2217

> <Gold.PLP.part.repulsive>
0.0799

> <Gold.PLP.ligand.clash>
0.0000

> <Gold.PLP.ligand.torsion>
1.6746

> <Gold.PLP.Chemscore.Hbond>
2.1576

> <Gold.PLP.Chemscore.CHOScore>
0.0000

> <Gold.PLP.Chemscore.Metal>
0.0000

> <Gold.Chemscore.Hbonds>
donor molecule, donor type, donor heavy atom, donor atom, acceptor molecule, acceptor atom, score
      P1  H  6896  6907       L1    14  0.84
      P1  H  6934  6947       L1    11  0.69
      P1  H 10752 10763       L1     2  0.67

> <Gold.PLP.Chemscore.Internal.Correction>
1.0976

> <Gold.Rescore>
     Score         DG    S(hbond)    S(metal)    S(lipo)     H(rot)  DE(clash)    DE(int)     intcor
      9.73     -11.41       0.55        0.00      94.41       2.72       0.06       1.63       ----

> <Gold.Chemscore.Fitness>
9.7292

> <Gold.Chemscore.DG>
-11.4120

> <Gold.Chemscore.ZeroCoef>
-5.4800

> <Gold.Chemscore.Hbond>
0.5514

> <Gold.Chemscore.Metal>
0.0000

> <Gold.Chemscore.Lipo>
94.4131

> <Gold.Chemscore.Internal_Hbond>
0.0000

> <Gold.Chemscore.DEClash>
0.0562

> <Gold.Chemscore.DEInternal>
1.6265

> <Gold.Chemscore.Rot>
2.7172

> <Gold.Chemscore.Internal.Correction>
   9.000000E+99

> <Gold.Chemscore.Hbonds>
donor molecule, donor type, donor heavy atom, donor atom, acceptor molecule, acceptor atom, score
      P1  H  6896  6907       L1    14  0.13
      P1  H  6934  6947       L1    11  0.27
      P1  H 10752 10763       L1     2  0.17

> <Gold.Chemscore.Hbond.Weighted>
-1.8417

> <Gold.Chemscore.Metal.Weighted>
-0.0000

> <Gold.Chemscore.Lipo.Weighted>
-11.0463

> <Gold.Chemscore.Internal_Hbond.Weighted>
0.0000

> <Gold.Chemscore.DEClash.Weighted>
0.0562

> <Gold.Chemscore.DEInternal.Weighted>
1.6265

> <Gold.Chemscore.Rot.Weighted>
6.9560

> <Gold.Chemscore.Internal.Correction.Weighted>
   9.000000E+99

> <Gold.Protein.RotatedTorsions>
[ 6907 6896 6895 6894 ] final  -96.99 input  -60.11 | X-H torsion
[ 7974 7965 7964 7962 ] final -154.94 input  175.53 | X-H torsion
[ 8008 7997 7996 7995 ] final   88.35 input   59.86 | X-H torsion
[ 10167 10162 10161 10158 ] final   74.02 input  -65.29 | X-H torsion
[ 10718 10713 10712 10709 ] final   82.37 input   66.30 | X-H torsion
[ 10763 10752 10751 10750 ] final   80.02 input  -60.55 | X-H torsion
[ 11005 11000 10999 10996 ] final  -54.02 input  -57.11 | X-H torsion

> <Gold.Protein.ActiveResidues>
 VAL166  LYS551  ARG553  GLY616  TRP617  ASP618  TYR619  PRO620  LYS621  CYS622 
 ASP623  PHE694  ASN695  SER759  ASP760  ASP761  ALA762  ILE779  LEU786  VAL792 
 PHE793  MET794  SER795  GLU796  ALA797  LYS798  CYS799  TRP800  GLU811  SER814 

> <Gold.Protein.RotatedAtoms>
  150.7004  134.1417  159.4107 H   0  0  0  0  0  0  0  0  0  0  0  0  # atno 6907 bound_to 6896
  151.9402  135.0214  160.0544 H   0  0  0  0  0  0  0  0  0  0  0  0  # atno 6908 bound_to 6896
  152.2100  133.4869  159.5142 H   0  0  0  0  0  0  0  0  0  0  0  0  # atno 6909 bound_to 6896
  144.7665  140.4319  143.5938 H   0  0  0  0  0  0  0  0  0  0  0  0  # atno 7974 bound_to 7965
  155.9867  140.3372  155.6714 H   0  0  0  0  0  0  0  0  0  0  0  0  # atno 8008 bound_to 7997
  155.6476  140.0702  157.2616 H   0  0  0  0  0  0  0  0  0  0  0  0  # atno 8009 bound_to 7997
  154.4207  140.1731  156.1627 H   0  0  0  0  0  0  0  0  0  0  0  0  # atno 8010 bound_to 7997
  140.0182  144.5561  150.7603 H   0  0  0  0  0  0  0  0  0  0  0  0  # atno 10167 bound_to 10162
  157.6855  131.0045  150.2365 H   0  0  0  0  0  0  0  0  0  0  0  0  # atno 10718 bound_to 10713
  153.0999  135.4818  154.8848 H   0  0  0  0  0  0  0  0  0  0  0  0  # atno 10763 bound_to 10752
  154.7367  135.3072  154.8801 H   0  0  0  0  0  0  0  0  0  0  0  0  # atno 10764 bound_to 10752
  153.9421  135.6833  153.4797 H   0  0  0  0  0  0  0  0  0  0  0  0  # atno 10765 bound_to 10752
  141.1005  133.6618  156.4259 H   0  0  0  0  0  0  0  0  0  0  0  0  # atno 11005 bound_to 11000
  145.6455  139.1556  143.2891 LP  0  0  0  0  0  0  0  0  0  0  0  0  # atno 17320 bound_to 7965
  146.1776  140.6549  142.9204 LP  0  0  0  0  0  0  0  0  0  0  0  0  # atno 17321 bound_to 7965
  140.7354  143.2740  151.3800 LP  0  0  0  0  0  0  0  0  0  0  0  0  # atno 17342 bound_to 10162
  139.6158  144.1006  152.2344 LP  0  0  0  0  0  0  0  0  0  0  0  0  # atno 17343 bound_to 10162
  156.2988  130.3755  149.7771 LP  0  0  0  0  0  0  0  0  0  0  0  0  # atno 17370 bound_to 10713
  156.5407  130.8298  151.3268 LP  0  0  0  0  0  0  0  0  0  0  0  0  # atno 17371 bound_to 10713
  140.5033  134.6464  157.5257 LP  0  0  0  0  0  0  0  0  0  0  0  0  # atno 17394 bound_to 11000
  139.9855  134.7068  155.9782 LP  0  0  0  0  0  0  0  0  0  0  0  0  # atno 17395 bound_to 11000

$$$$
