AV-unprocessed.smi:2226|AV-procd|sdf|9003|dock5
  -GOLD-   2272012213D 1   1.00000     0.00000
 Structure written by MMmdl.
 40 42  0  0  0  0  0  0  0  0  2 V2000
  148.0796  141.2765  157.0129 C   0  0  0  0  0  0  0  0  0  0  0  0
  147.7169  140.4921  155.8087 N   0  3  2  0  0  0  0  0  0  0  0  0
  148.3361  140.9648  154.5465 C   0  0  2  0  0  0  0  0  0  0  0  0
  147.7355  142.3213  154.0980 C   0  0  0  0  0  0  0  0  0  0  0  0
  146.1964  142.3366  154.0350 C   0  0  0  0  0  0  0  0  0  0  0  0
  145.5490  141.6024  155.2245 C   0  0  0  0  0  0  0  0  0  0  0  0
  146.2614  140.2825  155.6157 C   0  0  1  0  0  0  0  0  0  0  0  0
  146.0523  139.1136  154.6253 C   0  0  0  0  0  0  0  0  0  0  0  0
  146.8261  139.2568  153.2922 C   0  0  2  0  0  0  0  0  0  0  0  0
  146.9261  137.9465  152.6504 N   0  0  0  0  0  0  0  0  0  0  0  0
  145.9014  137.1289  152.3640 C   0  0  0  0  0  0  0  0  0  0  0  0
  144.7256  137.3936  152.6149 O   0  0  0  0  0  0  0  0  0  0  0  0
  146.3302  136.0000  151.7751 N   0  0  0  0  0  0  0  0  0  0  0  0
  145.5440  134.9069  151.3313 C   0  0  0  0  0  0  0  0  0  0  0  0
  144.2120  134.8495  151.2952 N   0  0  0  0  0  0  0  0  0  0  0  0
  143.9301  133.5888  150.7896 C   0  0  0  0  0  0  0  0  0  0  0  0
  145.1188  132.9500  150.5466 C   0  0  0  0  0  0  0  0  0  0  0  0
  146.1554  133.7773  150.8868 O   0  0  0  0  0  0  0  0  0  0  0  0
  148.2476  139.8356  153.4936 C   0  0  0  0  0  0  0  0  0  0  0  0
  147.7165  142.3025  156.9638 H   0  0  0  0  0  0  0  0  0  0  0  0
  149.1628  141.3074  157.1334 H   0  0  0  0  0  0  0  0  0  0  0  0
  147.6618  140.8133  157.9073 H   0  0  0  0  0  0  0  0  0  0  0  0
  149.3979  141.1271  154.7367 H   0  0  0  0  0  0  0  0  0  0  0  0
  148.0586  143.0958  154.7940 H   0  0  0  0  0  0  0  0  0  0  0  0
  148.1467  142.6127  153.1310 H   0  0  0  0  0  0  0  0  0  0  0  0
  145.8443  143.3684  154.0102 H   0  0  0  0  0  0  0  0  0  0  0  0
  145.8521  141.9123  153.0958 H   0  0  0  0  0  0  0  0  0  0  0  0
  145.5530  142.2719  156.0850 H   0  0  0  0  0  0  0  0  0  0  0  0
  144.4966  141.4124  155.0116 H   0  0  0  0  0  0  0  0  0  0  0  0
  145.8423  139.9581  156.5692 H   0  0  0  0  0  0  0  0  0  0  0  0
  146.3841  138.2013  155.1241 H   0  0  0  0  0  0  0  0  0  0  0  0
  144.9894  138.9705  154.4269 H   0  0  0  0  0  0  0  0  0  0  0  0
  146.2703  139.9261  152.6413 H   0  0  0  0  0  0  0  0  0  0  0  0
  147.8543  137.6357  152.4031 H   0  0  0  0  0  0  0  0  0  0  0  0
  147.3244  135.9100  151.6271 H   0  0  0  0  0  0  0  0  0  0  0  0
  142.9156  133.2484  150.6437 H   0  0  0  0  0  0  0  0  0  0  0  0
  145.3815  131.9761  150.1607 H   0  0  0  0  0  0  0  0  0  0  0  0
  148.6515  140.1752  152.5391 H   0  0  0  0  0  0  0  0  0  0  0  0
  148.9076  139.0313  153.8231 H   0  0  0  0  0  0  0  0  0  0  0  0
  148.1048  139.5748  155.9760 H   0  0  0  0  0  0  0  0  0  0  0  0
  1  2  1  0  0  0  0
  1 20  1  0  0  0  0
  1 21  1  0  0  0  0
  1 22  1  0  0  0  0
  2  7  1  0  0  0  0
  2  3  1  0  0  0  0
  2 40  1  0  0  0  0
  3 19  1  0  0  0  0
  3  4  1  0  0  0  0
  3 23  1  0  0  0  0
  4  5  1  0  0  0  0
  4 24  1  0  0  0  0
  4 25  1  0  0  0  0
  5  6  1  0  0  0  0
  5 26  1  0  0  0  0
  5 27  1  0  0  0  0
  6  7  1  0  0  0  0
  6 28  1  0  0  0  0
  6 29  1  0  0  0  0
  7  8  1  0  0  0  0
  7 30  1  0  0  0  0
  8  9  1  0  0  0  0
  8 31  1  0  0  0  0
  8 32  1  0  0  0  0
  9 10  1  0  0  0  0
  9 19  1  0  0  0  0
  9 33  1  0  0  0  0
 10 11  1  0  0  0  0
 10 34  1  0  0  0  0
 11 12  2  0  0  0  0
 11 13  1  0  0  0  0
 13 14  1  0  0  0  0
 13 35  1  0  0  0  0
 14 18  1  0  0  0  0
 14 15  2  0  0  0  0
 15 16  1  0  0  0  0
 16 17  2  0  0  0  0
 16 36  1  0  0  0  0
 17 18  1  0  0  0  0
 17 37  1  0  0  0  0
 19 38  1  0  0  0  0
 19 39  1  0  0  0  0
M  CHG  1   2   1
M  END
> <s_m_source_file>
AV-unprocessed.smi

> <i_m_source_file_index>
2226

> <i_lp_mmshare_version>
43012

> <i_f3d_flags>
0

> <s_epik_input>
W0NIMl0xW0NIMl1bQ0gyXVtDQEhdKE4oW0NIM10pW0NIXTEyKVtDSDJdW0NASF0oW0NIMl0yKVtOSF1DKD1PKVtOSF1jM25bY0hdW2NIXW8z

> <s_epik_cmdline>
J2VwaWtfcHl0aG9uJywgJy1waCcsICc3LjAnLCAnLXRuJywgJzgnLCAnLW1hJywgJzIwMCcsICctbWV0YWxfYmluZGluZycsICctaW1hZScsICc8aW5maWxlLm1hZT4nLCAnLW9tYWUnLCAnPG91dGZpbGUubWFlPic=

> <r_lp_tautomer_probability>
0.785861

> <r_epik_Ionization_Penalty>
0.000929358

> <r_epik_Ionization_Penalty_Charging>
0.000890041

> <r_epik_Ionization_Penalty_Neutral>
3.93161e-05

> <r_epik_State_Penalty>
0.0312137

> <r_epik_Charging_Adjusted_Penalty>
0.0321037

> <i_epik_Tot_Q>
1

> <i_epik_Tot_abs_Q>
1

> <r_epik_Metal_State_Penalty>
0.0605703

> <b_epik_Metal_Only>
0

> <s_lp_Force_Field>
OPLS_2005

> <r_lp_Energy>
34.3269

> <b_lp_Chiralities_Consistent>
1

> <s_lp_Variant>
AV-unprocessed.smi:2226-3

> <Gold.Version>
5.8.1

> <Gold.Id.Protein>
6NUR|6NUR_protein|mol2

> <Gold.PLP.Fitness>
33.8742

> <Gold.PLP.PLP>
-25.0093

> <Gold.PLP.part.hbond>
-2.0000

> <Gold.PLP.part.metal>
0.0000

> <Gold.PLP.part.buried>
-0.6173

> <Gold.PLP.part.nonpolar>
-22.9283

> <Gold.PLP.part.repulsive>
0.7020

> <Gold.PLP.ligand.clash>
0.0000

> <Gold.PLP.ligand.torsion>
0.0322

> <Gold.PLP.Chemscore.Hbond>
1.9760

> <Gold.PLP.Chemscore.CHOScore>
0.9986

> <Gold.PLP.Chemscore.Metal>
0.0000

> <Gold.Chemscore.Hbonds>
donor molecule, donor type, donor heavy atom, donor atom, acceptor molecule, acceptor atom, score
      L1  H    10    34       P1  7948  0.98
      L1  H    13    35       P1  7948  1.00
      L1  C    16    36       P1 10186  0.99

> <Gold.PLP.Chemscore.Internal.Correction>
0.0057

> <Gold.Rescore>
     Score         DG    S(hbond)    S(metal)    S(lipo)     H(rot)  DE(clash)    DE(int)     intcor
     12.60     -16.36       1.96        0.00      58.94       1.00       1.48       2.28       ----

> <Gold.Chemscore.Fitness>
12.6024

> <Gold.Chemscore.DG>
-16.3619

> <Gold.Chemscore.ZeroCoef>
-5.4800

> <Gold.Chemscore.Hbond>
1.9599

> <Gold.Chemscore.Metal>
0.0000

> <Gold.Chemscore.Lipo>
58.9397

> <Gold.Chemscore.Internal_Hbond>
0.0000

> <Gold.Chemscore.DEClash>
1.4839

> <Gold.Chemscore.DEInternal>
2.2755

> <Gold.Chemscore.Rot>
1.0000

> <Gold.Chemscore.Internal.Correction>
   9.000000E+99

> <Gold.Chemscore.Hbonds>
donor molecule, donor type, donor heavy atom, donor atom, acceptor molecule, acceptor atom, score
      L1  H    10    34       P1  7948  0.92
      L1  H    13    35       P1  7948  0.99

> <Gold.Chemscore.Hbond.Weighted>
-6.5459

> <Gold.Chemscore.Metal.Weighted>
-0.0000

> <Gold.Chemscore.Lipo.Weighted>
-6.8959

> <Gold.Chemscore.Internal_Hbond.Weighted>
0.0000

> <Gold.Chemscore.DEClash.Weighted>
1.4839

> <Gold.Chemscore.DEInternal.Weighted>
2.2755

> <Gold.Chemscore.Rot.Weighted>
2.5600

> <Gold.Chemscore.Internal.Correction.Weighted>
   9.000000E+99

> <Gold.Protein.RotatedTorsions>
[ 6907 6896 6895 6894 ] final    8.23 input  -60.11 | X-H torsion
[ 7974 7965 7964 7962 ] final   53.48 input  175.53 | X-H torsion
[ 8008 7997 7996 7995 ] final  -80.47 input   59.86 | X-H torsion
[ 10167 10162 10161 10158 ] final  -10.12 input  -65.29 | X-H torsion
[ 10718 10713 10712 10709 ] final -133.13 input   66.30 | X-H torsion
[ 10763 10752 10751 10750 ] final  -39.23 input  -60.55 | X-H torsion
[ 11005 11000 10999 10996 ] final   42.87 input  -57.11 | X-H torsion

> <Gold.Protein.ActiveResidues>
 VAL166  LYS551  ARG553  GLY616  TRP617  ASP618  TYR619  PRO620  LYS621  CYS622 
 ASP623  PHE694  ASN695  SER759  ASP760  ASP761  ALA762  ILE779  LEU786  VAL792 
 PHE793  MET794  SER795  GLU796  ALA797  LYS798  CYS799  TRP800  GLU811  SER814 

> <Gold.Protein.RotatedAtoms>
  151.7027  135.0927  160.0253 H   0  0  0  0  0  0  0  0  0  0  0  0  # atno 6907 bound_to 6896
  152.3711  133.6415  159.6096 H   0  0  0  0  0  0  0  0  0  0  0  0  # atno 6908 bound_to 6896
  150.7674  133.9186  159.3432 H   0  0  0  0  0  0  0  0  0  0  0  0  # atno 6909 bound_to 6896
  145.9707  139.4147  143.0191 H   0  0  0  0  0  0  0  0  0  0  0  0  # atno 7974 bound_to 7965
  154.5886  140.0662  156.9207 H   0  0  0  0  0  0  0  0  0  0  0  0  # atno 8008 bound_to 7997
  155.2334  140.3339  155.4282 H   0  0  0  0  0  0  0  0  0  0  0  0  # atno 8009 bound_to 7997
  156.2240  140.1811  156.7392 H   0  0  0  0  0  0  0  0  0  0  0  0  # atno 8010 bound_to 7997
  140.7105  143.5783  150.9019 H   0  0  0  0  0  0  0  0  0  0  0  0  # atno 10167 bound_to 10162
  156.2417  130.7100  151.0964 H   0  0  0  0  0  0  0  0  0  0  0  0  # atno 10718 bound_to 10713
  153.9259  135.6777  153.4746 H   0  0  0  0  0  0  0  0  0  0  0  0  # atno 10763 bound_to 10752
  153.1004  135.4830  154.8854 H   0  0  0  0  0  0  0  0  0  0  0  0  # atno 10764 bound_to 10752
  154.7454  135.3171  154.8612 H   0  0  0  0  0  0  0  0  0  0  0  0  # atno 10765 bound_to 10752
  140.1698  134.4236  155.8264 H   0  0  0  0  0  0  0  0  0  0  0  0  # atno 11005 bound_to 11000
  145.7909  140.9814  143.1049 LP  0  0  0  0  0  0  0  0  0  0  0  0  # atno 17320 bound_to 7965
  144.6836  139.9682  143.7481 LP  0  0  0  0  0  0  0  0  0  0  0  0  # atno 17321 bound_to 7965
  139.9509  143.6273  152.3029 LP  0  0  0  0  0  0  0  0  0  0  0  0  # atno 17342 bound_to 10162
  139.6791  144.7656  151.1641 LP  0  0  0  0  0  0  0  0  0  0  0  0  # atno 17343 bound_to 10162
  157.7178  131.0700  150.6258 LP  0  0  0  0  0  0  0  0  0  0  0  0  # atno 17370 bound_to 10713
  156.6332  130.4437  149.5779 LP  0  0  0  0  0  0  0  0  0  0  0  0  # atno 17371 bound_to 10713
  141.2216  133.6951  156.7743 LP  0  0  0  0  0  0  0  0  0  0  0  0  # atno 17394 bound_to 11000
  140.2390  134.8628  157.3554 LP  0  0  0  0  0  0  0  0  0  0  0  0  # atno 17395 bound_to 11000

$$$$
