AV-unprocessed.smi:1229|AV-procd|sdf|5151|dock6
  -GOLD-   22720 4223D 1   1.00000     0.00000
 Structure written by MMmdl.
 46 47  0  0  0  0  0  0  0  0  2 V2000
  147.7737  133.3829  152.3360 C   0  0  0  0  0  0  0  0  0  0  0  0
  146.3488  133.4189  151.8071 C   0  0  0  0  0  0  0  0  0  0  0  0
  145.6817  132.2048  151.5378 C   0  0  0  0  0  0  0  0  0  0  0  0
  144.3656  132.2394  151.0461 C   0  0  0  0  0  0  0  0  0  0  0  0
  143.7678  133.4950  150.8446 C   0  0  0  0  0  0  0  0  0  0  0  0
  144.3974  134.6601  151.1000 N   0  0  0  0  0  0  0  0  0  0  0  0
  145.6691  134.6445  151.5733 C   0  0  0  0  0  0  0  0  0  0  0  0
  146.3942  135.8347  151.8644 N   0  0  0  0  0  0  0  0  0  0  0  0
  145.9139  137.0412  152.2134 C   0  0  0  0  0  0  0  0  0  0  0  0
  144.7225  137.3296  152.3332 O   0  0  0  0  0  0  0  0  0  0  0  0
  146.9059  137.9185  152.4265 N   0  0  0  0  0  0  0  0  0  0  0  0
  146.7161  139.3161  152.8029 C   0  0  0  0  0  0  0  0  0  0  0  0
  147.6784  139.7513  153.9282 C   0  0  1  0  0  0  0  0  0  0  0  0
  148.9583  139.2234  153.6405 O   0  0  0  0  0  0  0  0  0  0  0  0
  147.8113  141.2859  153.9975 C   0  0  0  0  0  0  0  0  0  0  0  0
  148.3056  141.7547  155.3178 N   0  3  0  0  0  0  0  0  0  0  0  0
  147.4163  141.3395  156.4338 C   0  0  0  0  0  0  0  0  0  0  0  0
  147.8678  141.9613  157.7663 C   0  0  0  0  0  0  0  0  0  0  0  0
  149.3286  141.6072  158.0724 C   0  0  0  0  0  0  0  0  0  0  0  0
  150.2234  142.0123  156.8940 C   0  0  0  0  0  0  0  0  0  0  0  0
  149.7228  141.3857  155.5816 C   0  0  0  0  0  0  0  0  0  0  0  0
  148.1196  132.3581  152.4741 H   0  0  0  0  0  0  0  0  0  0  0  0
  147.8383  133.8903  153.2989 H   0  0  0  0  0  0  0  0  0  0  0  0
  148.4517  133.8748  151.6380 H   0  0  0  0  0  0  0  0  0  0  0  0
  146.1706  131.2560  151.7043 H   0  0  0  0  0  0  0  0  0  0  0  0
  143.8285  131.3278  150.8296 H   0  0  0  0  0  0  0  0  0  0  0  0
  142.7578  133.5672  150.4695 H   0  0  0  0  0  0  0  0  0  0  0  0
  147.3981  135.7533  151.8014 H   0  0  0  0  0  0  0  0  0  0  0  0
  147.8576  137.6032  152.3061 H   0  0  0  0  0  0  0  0  0  0  0  0
  146.8310  139.9489  151.9217 H   0  0  0  0  0  0  0  0  0  0  0  0
  145.6811  139.4402  153.1268 H   0  0  0  0  0  0  0  0  0  0  0  0
  147.3382  139.3595  154.8860 H   0  0  0  0  0  0  0  0  0  0  0  0
  149.2623  139.6001  152.8283 H   0  0  0  0  0  0  0  0  0  0  0  0
  148.4906  141.6097  153.2068 H   0  0  0  0  0  0  0  0  0  0  0  0
  146.8538  141.7652  153.7870 H   0  0  0  0  0  0  0  0  0  0  0  0
  146.3923  141.6524  156.2254 H   0  0  0  0  0  0  0  0  0  0  0  0
  147.4077  140.2509  156.5079 H   0  0  0  0  0  0  0  0  0  0  0  0
  147.7549  143.0455  157.7214 H   0  0  0  0  0  0  0  0  0  0  0  0
  147.2237  141.6169  158.5761 H   0  0  0  0  0  0  0  0  0  0  0  0
  149.6558  142.1068  158.9848 H   0  0  0  0  0  0  0  0  0  0  0  0
  149.4188  140.5352  158.2530 H   0  0  0  0  0  0  0  0  0  0  0  0
  150.2366  143.0992  156.7996 H   0  0  0  0  0  0  0  0  0  0  0  0
  151.2522  141.7058  157.0853 H   0  0  0  0  0  0  0  0  0  0  0  0
  149.8148  140.2992  155.6280 H   0  0  0  0  0  0  0  0  0  0  0  0
  150.3633  141.7189  154.7660 H   0  0  0  0  0  0  0  0  0  0  0  0
  148.2633  142.7636  155.2871 H   0  0  0  0  0  0  0  0  0  0  0  0
  1  2  1  0  0  0  0
  1 22  1  0  0  0  0
  1 23  1  0  0  0  0
  1 24  1  0  0  0  0
  2  7  1  0  0  0  0
  2  3  2  0  0  0  0
  3  4  1  0  0  0  0
  3 25  1  0  0  0  0
  4  5  2  0  0  0  0
  4 26  1  0  0  0  0
  5  6  1  0  0  0  0
  5 27  1  0  0  0  0
  6  7  2  0  0  0  0
  7  8  1  0  0  0  0
  8  9  1  0  0  0  0
  8 28  1  0  0  0  0
  9 10  2  0  0  0  0
  9 11  1  0  0  0  0
 11 12  1  0  0  0  0
 11 29  1  0  0  0  0
 12 13  1  0  0  0  0
 12 30  1  0  0  0  0
 12 31  1  0  0  0  0
 13 14  1  0  0  0  0
 13 15  1  0  0  0  0
 13 32  1  0  0  0  0
 14 33  1  0  0  0  0
 15 16  1  0  0  0  0
 15 34  1  0  0  0  0
 15 35  1  0  0  0  0
 16 21  1  0  0  0  0
 16 17  1  0  0  0  0
 16 46  1  0  0  0  0
 17 18  1  0  0  0  0
 17 36  1  0  0  0  0
 17 37  1  0  0  0  0
 18 19  1  0  0  0  0
 18 38  1  0  0  0  0
 18 39  1  0  0  0  0
 19 20  1  0  0  0  0
 19 40  1  0  0  0  0
 19 41  1  0  0  0  0
 20 21  1  0  0  0  0
 20 42  1  0  0  0  0
 20 43  1  0  0  0  0
 21 44  1  0  0  0  0
 21 45  1  0  0  0  0
M  CHG  1  16   1
M  END
> <s_m_source_file>
AV-unprocessed.smi

> <i_m_source_file_index>
1229

> <i_lp_mmshare_version>
43012

> <i_f3d_flags>
0

> <s_epik_input>
W0NIM11jMVtjSF1bY0hdW2NIXW5jMVtOSF1DKD1PKVtOSF1bQ0gyXVtDQEhdKFtPSF0pW0NIMl1OMltDSDJdW0NIMl1bQ0gyXVtDSDJdW0NIMl0y

> <s_epik_cmdline>
J2VwaWtfcHl0aG9uJywgJy1waCcsICc3LjAnLCAnLXRuJywgJzgnLCAnLW1hJywgJzIwMCcsICctbWV0YWxfYmluZGluZycsICctaW1hZScsICc8aW5maWxlLm1hZT4nLCAnLW9tYWUnLCAnPG91dGZpbGUubWFlPic=

> <r_epik_Ionization_Penalty>
0.00511007

> <r_epik_Ionization_Penalty_Charging>
0.00506051

> <r_epik_Ionization_Penalty_Neutral>
4.95577e-05

> <r_epik_State_Penalty>
0.00368188

> <r_epik_Charging_Adjusted_Penalty>
0.0087424

> <i_epik_Tot_Q>
1

> <i_epik_Tot_abs_Q>
1

> <r_epik_Metal_State_Penalty>
-0

> <b_epik_Metal_Only>
0

> <s_lp_Force_Field>
OPLS_2005

> <r_lp_Energy>
20.718

> <b_lp_Chiralities_Consistent>
1

> <s_lp_Variant>
AV-unprocessed.smi:1229-2

> <Gold.Version>
5.8.1

> <Gold.Id.Protein>
6NUR|6NUR_protein|mol2

> <Gold.PLP.Fitness>
53.0248

> <Gold.PLP.PLP>
-36.3097

> <Gold.PLP.part.hbond>
-3.8862

> <Gold.PLP.part.metal>
0.0000

> <Gold.PLP.part.buried>
-4.5615

> <Gold.PLP.part.nonpolar>
-27.6929

> <Gold.PLP.part.repulsive>
0.6274

> <Gold.PLP.ligand.clash>
0.0000

> <Gold.PLP.ligand.torsion>
0.6423

> <Gold.PLP.Chemscore.Hbond>
4.9745

> <Gold.PLP.Chemscore.CHOScore>
1.0000

> <Gold.PLP.Chemscore.Metal>
0.0000

> <Gold.Chemscore.Hbonds>
donor molecule, donor type, donor heavy atom, donor atom, acceptor molecule, acceptor atom, score
      L1  H     8    28       P1  7948  1.00
      L1  H    11    29       P1  7948  0.94
      L1  H    14    33       P1  7957  1.00
      L1  H    16    46       P1  8028  1.82
      L1  C     5    27       P1 10186  1.00

> <Gold.PLP.Chemscore.Internal.Correction>
0.0762

> <Gold.Rescore>
     Score         DG    S(hbond)    S(metal)    S(lipo)     H(rot)  DE(clash)    DE(int)     intcor
     19.23     -21.08       3.93        0.00      71.63       2.31       0.00       1.86       ----

> <Gold.Chemscore.Fitness>
19.2285

> <Gold.Chemscore.DG>
-21.0849

> <Gold.Chemscore.ZeroCoef>
-5.4800

> <Gold.Chemscore.Hbond>
3.9331

> <Gold.Chemscore.Metal>
0.0000

> <Gold.Chemscore.Lipo>
71.6295

> <Gold.Chemscore.Internal_Hbond>
0.0000

> <Gold.Chemscore.DEClash>
0.0000

> <Gold.Chemscore.DEInternal>
1.8563

> <Gold.Chemscore.Rot>
2.3095

> <Gold.Chemscore.Internal.Correction>
   9.000000E+99

> <Gold.Chemscore.Hbonds>
donor molecule, donor type, donor heavy atom, donor atom, acceptor molecule, acceptor atom, score
      L1  H     8    28       P1  7948  0.98
      L1  H    11    29       P1  7948  0.91
      L1  H    14    33       P1  7957  1.00
      L1  H    16    46       P1  8028  0.85

> <Gold.Chemscore.Hbond.Weighted>
-13.1366

> <Gold.Chemscore.Metal.Weighted>
-0.0000

> <Gold.Chemscore.Lipo.Weighted>
-8.3807

> <Gold.Chemscore.Internal_Hbond.Weighted>
0.0000

> <Gold.Chemscore.DEClash.Weighted>
0.0000

> <Gold.Chemscore.DEInternal.Weighted>
1.8563

> <Gold.Chemscore.Rot.Weighted>
5.9124

> <Gold.Chemscore.Internal.Correction.Weighted>
   9.000000E+99

> <Gold.Protein.RotatedTorsions>
[ 6907 6896 6895 6894 ] final  -54.77 input  -60.11 | X-H torsion
[ 7974 7965 7964 7962 ] final  126.31 input  175.53 | X-H torsion
[ 8008 7997 7996 7995 ] final  151.49 input   59.86 | X-H torsion
[ 10167 10162 10161 10158 ] final  155.48 input  -65.29 | X-H torsion
[ 10718 10713 10712 10709 ] final -113.42 input   66.30 | X-H torsion
[ 10763 10752 10751 10750 ] final   64.01 input  -60.55 | X-H torsion
[ 11005 11000 10999 10996 ] final    7.02 input  -57.11 | X-H torsion

> <Gold.Protein.ActiveResidues>
 VAL166  LYS551  ARG553  GLY616  TRP617  ASP618  TYR619  PRO620  LYS621  CYS622 
 ASP623  PHE694  ASN695  SER759  ASP760  ASP761  ALA762  ILE779  LEU786  VAL792 
 PHE793  MET794  SER795  GLU796  ALA797  LYS798  CYS799  TRP800  GLU811  SER814 

> <Gold.Protein.RotatedAtoms>
  150.8309  134.7562  159.6852 H   0  0  0  0  0  0  0  0  0  0  0  0  # atno 6907 bound_to 6896
  152.4414  134.5581  159.9896 H   0  0  0  0  0  0  0  0  0  0  0  0  # atno 6908 bound_to 6896
  151.5742  133.3348  159.3031 H   0  0  0  0  0  0  0  0  0  0  0  0  # atno 6909 bound_to 6896
  145.0632  139.3789  143.4995 H   0  0  0  0  0  0  0  0  0  0  0  0  # atno 7974 bound_to 7965
  156.2671  140.2046  156.6183 H   0  0  0  0  0  0  0  0  0  0  0  0  # atno 8008 bound_to 7997
  154.6777  140.0543  157.0256 H   0  0  0  0  0  0  0  0  0  0  0  0  # atno 8009 bound_to 7997
  155.1046  140.3209  155.4541 H   0  0  0  0  0  0  0  0  0  0  0  0  # atno 8010 bound_to 7997
  139.4821  144.5095  151.8046 H   0  0  0  0  0  0  0  0  0  0  0  0  # atno 10167 bound_to 10162
  156.0765  130.5972  150.8640 H   0  0  0  0  0  0  0  0  0  0  0  0  # atno 10718 bound_to 10713
  153.0039  135.5408  154.6442 H   0  0  0  0  0  0  0  0  0  0  0  0  # atno 10763 bound_to 10752
  154.5689  135.2840  155.0848 H   0  0  0  0  0  0  0  0  0  0  0  0  # atno 10764 bound_to 10752
  154.2022  135.6482  153.5143 H   0  0  0  0  0  0  0  0  0  0  0  0  # atno 10765 bound_to 10752
  140.5529  134.0265  155.7943 H   0  0  0  0  0  0  0  0  0  0  0  0  # atno 11005 bound_to 11000
  146.3525  140.0340  142.8648 LP  0  0  0  0  0  0  0  0  0  0  0  0  # atno 17320 bound_to 7965
  145.1383  140.9557  143.4503 LP  0  0  0  0  0  0  0  0  0  0  0  0  # atno 17321 bound_to 7965
  140.4597  144.1740  150.5905 LP  0  0  0  0  0  0  0  0  0  0  0  0  # atno 17342 bound_to 10162
  140.4498  143.2491  151.9363 LP  0  0  0  0  0  0  0  0  0  0  0  0  # atno 17343 bound_to 10162
  157.5863  131.0945  150.9190 LP  0  0  0  0  0  0  0  0  0  0  0  0  # atno 17370 bound_to 10713
  156.9375  130.5372  149.5279 LP  0  0  0  0  0  0  0  0  0  0  0  0  # atno 17371 bound_to 10713
  141.1161  133.9538  157.2820 LP  0  0  0  0  0  0  0  0  0  0  0  0  # atno 17394 bound_to 11000
  139.9446  135.0186  156.8813 LP  0  0  0  0  0  0  0  0  0  0  0  0  # atno 17395 bound_to 11000

$$$$
