AV-unprocessed.smi:2520|AV-procd|sdf|9911|dock8
  -GOLD-   2272013543D 1   1.00000     0.00000
 Structure written by MMmdl.
 41 44  0  0  0  0  0  0  0  0  1 V2000
  150.6385  140.4448  156.5049 O   0  0  0  0  0  0  0  0  0  0  0  0
  150.1947  141.5678  156.2721 C   0  0  0  0  0  0  0  0  0  0  0  0
  149.1821  141.7491  155.3982 N   0  0  0  0  0  0  0  0  0  0  0  0
  148.4462  140.8203  154.6062 C   0  0  0  0  0  0  0  0  0  0  0  0
  147.4157  141.3912  153.8291 C   0  0  0  0  0  0  0  0  0  0  0  0
  146.6342  140.5433  153.0260 C   0  0  0  0  0  0  0  0  0  0  0  0
  146.9351  139.1711  153.0561 C   0  0  0  0  0  0  0  0  0  0  0  0
  147.9281  138.6644  153.8183 N   0  0  0  0  0  0  0  0  0  0  0  0
  148.6662  139.4785  154.5800 N   0  0  0  0  0  0  0  0  0  0  0  0
  150.6745  142.6736  156.8625 N   0  0  0  0  0  0  0  0  0  0  0  0
  151.7828  142.6972  157.8086 C   0  0  2  0  0  0  0  0  0  0  0  0
  151.7233  141.5320  158.8097 C   0  0  1  0  0  0  0  0  0  0  0  0
  152.7906  140.4724  158.7869 C   0  0  0  0  0  0  0  0  0  0  0  0
  153.7796  140.9626  159.8484 C   0  0  0  0  0  0  0  0  0  0  0  0
  153.5213  142.3605  159.9639 O   0  0  0  0  0  0  0  0  0  0  0  0
  152.1098  142.5432  159.8788 C   0  0  1  0  0  0  0  0  0  0  0  0
  151.6050  143.6921  158.9795 C   0  0  0  0  0  0  0  0  0  0  0  0
  150.2090  144.2222  159.3200 C   0  0  0  0  0  0  0  0  0  0  0  0
  150.4103  145.3635  160.3176 C   0  0  0  0  0  0  0  0  0  0  0  0
  151.8096  145.9150  160.0261 C   0  0  0  0  0  0  0  0  0  0  0  0
  152.4155  144.9853  158.9688 C   0  0  0  0  0  0  0  0  0  0  0  0
  148.8637  142.7041  155.3222 H   0  0  0  0  0  0  0  0  0  0  0  0
  147.2264  142.4547  153.8449 H   0  0  0  0  0  0  0  0  0  0  0  0
  145.8352  140.9298  152.4107 H   0  0  0  0  0  0  0  0  0  0  0  0
  146.3714  138.4681  152.4611 H   0  0  0  0  0  0  0  0  0  0  0  0
  150.2563  143.5611  156.6218 H   0  0  0  0  0  0  0  0  0  0  0  0
  152.7670  142.7834  157.3421 H   0  0  0  0  0  0  0  0  0  0  0  0
  150.7091  141.1573  158.9611 H   0  0  0  0  0  0  0  0  0  0  0  0
  152.4039  139.4813  159.0258 H   0  0  0  0  0  0  0  0  0  0  0  0
  153.2656  140.4199  157.8069 H   0  0  0  0  0  0  0  0  0  0  0  0
  153.5789  140.4846  160.8083 H   0  0  0  0  0  0  0  0  0  0  0  0
  154.8176  140.7662  159.5796 H   0  0  0  0  0  0  0  0  0  0  0  0
  151.5922  142.4091  160.8298 H   0  0  0  0  0  0  0  0  0  0  0  0
  149.7211  144.6208  158.4299 H   0  0  0  0  0  0  0  0  0  0  0  0
  149.5522  143.4503  159.7223 H   0  0  0  0  0  0  0  0  0  0  0  0
  149.6358  146.1255  160.2261 H   0  0  0  0  0  0  0  0  0  0  0  0
  150.3736  144.9763  161.3367 H   0  0  0  0  0  0  0  0  0  0  0  0
  151.7722  146.9439  159.6666 H   0  0  0  0  0  0  0  0  0  0  0  0
  152.4119  145.9068  160.9353 H   0  0  0  0  0  0  0  0  0  0  0  0
  153.4775  144.8182  159.1493 H   0  0  0  0  0  0  0  0  0  0  0  0
  152.3394  145.4573  157.9884 H   0  0  0  0  0  0  0  0  0  0  0  0
  1  2  2  0  0  0  0
  2  3  1  0  0  0  0
  2 10  1  0  0  0  0
  3  4  1  0  0  0  0
  3 22  1  0  0  0  0
  4  9  1  0  0  0  0
  4  5  2  0  0  0  0
  5  6  1  0  0  0  0
  5 23  1  0  0  0  0
  6  7  2  0  0  0  0
  6 24  1  0  0  0  0
  7  8  1  0  0  0  0
  7 25  1  0  0  0  0
  8  9  2  0  0  0  0
 10 11  1  0  0  0  0
 10 26  1  0  0  0  0
 11 17  1  0  0  0  0
 11 12  1  0  0  0  0
 11 27  1  0  0  0  0
 12 16  1  0  0  0  0
 12 13  1  0  0  0  0
 12 28  1  0  0  0  0
 13 14  1  0  0  0  0
 13 29  1  0  0  0  0
 13 30  1  0  0  0  0
 14 15  1  0  0  0  0
 14 31  1  0  0  0  0
 14 32  1  0  0  0  0
 15 16  1  0  0  0  0
 16 17  1  0  0  0  0
 16 33  1  0  0  0  0
 17 21  1  0  0  0  0
 17 18  1  0  0  0  0
 18 19  1  0  0  0  0
 18 34  1  0  0  0  0
 18 35  1  0  0  0  0
 19 20  1  0  0  0  0
 19 36  1  0  0  0  0
 19 37  1  0  0  0  0
 20 21  1  0  0  0  0
 20 38  1  0  0  0  0
 20 39  1  0  0  0  0
 21 40  1  0  0  0  0
 21 41  1  0  0  0  0
M  END
> <s_m_source_file>
AV-unprocessed.smi

> <i_m_source_file_index>
2520

> <i_lp_mmshare_version>
43012

> <i_f3d_flags>
0

> <s_epik_input>
bjFuW2NIXVtjSF1bY0hdYzFbTkhdQyg9TylbTkhdW0NAQEhdMltDQEBIXShbQ0gyXVtDSDJdTzMpW0NASF0zQzI0W0NIMl1bQ0gyXVtDSDJdW0NIMl00

> <s_epik_cmdline>
J2VwaWtfcHl0aG9uJywgJy1waCcsICc3LjAnLCAnLXRuJywgJzgnLCAnLW1hJywgJzIwMCcsICctbWV0YWxfYmluZGluZycsICctaW1hZScsICc8aW5maWxlLm1hZT4nLCAnLW9tYWUnLCAnPG91dGZpbGUubWFlPic=

> <r_lp_tautomer_probability>
1

> <r_epik_Ionization_Penalty>
0.00552561

> <r_epik_Ionization_Penalty_Charging>
0

> <r_epik_Ionization_Penalty_Neutral>
0.00552561

> <r_epik_State_Penalty>
-0

> <r_epik_Charging_Adjusted_Penalty>
0

> <i_epik_Tot_Q>
0

> <i_epik_Tot_abs_Q>
0

> <r_epik_Metal_State_Penalty>
-0

> <b_epik_Metal_Only>
0

> <s_lp_Force_Field>
OPLS_2005

> <r_lp_Energy>
61.2745

> <b_lp_Chiralities_Consistent>
1

> <s_lp_Variant>
AV-unprocessed.smi:2520-5

> <Gold.Version>
5.8.1

> <Gold.Id.Protein>
6NUR|6NUR_protein|mol2

> <Gold.PLP.Fitness>
47.7641

> <Gold.PLP.PLP>
-42.1423

> <Gold.PLP.part.hbond>
-2.0000

> <Gold.PLP.part.metal>
0.0000

> <Gold.PLP.part.buried>
-4.6379

> <Gold.PLP.part.nonpolar>
-36.1552

> <Gold.PLP.part.repulsive>
0.5709

> <Gold.PLP.ligand.clash>
0.0000

> <Gold.PLP.ligand.torsion>
0.2818

> <Gold.PLP.Chemscore.Hbond>
2.0000

> <Gold.PLP.Chemscore.CHOScore>
0.0000

> <Gold.PLP.Chemscore.Metal>
0.0000

> <Gold.Chemscore.Hbonds>
donor molecule, donor type, donor heavy atom, donor atom, acceptor molecule, acceptor atom, score
      L1  H     3    22       P1  8028  0.99
      L1  H    10    26       P1  8028  1.00

> <Gold.PLP.Chemscore.Internal.Correction>
0.1854

> <Gold.Rescore>
     Score         DG    S(hbond)    S(metal)    S(lipo)     H(rot)  DE(clash)    DE(int)     intcor
     18.30     -23.57       1.93        0.00     121.38       1.00       2.36       2.91       ----

> <Gold.Chemscore.Fitness>
18.3034

> <Gold.Chemscore.DG>
-23.5726

> <Gold.Chemscore.ZeroCoef>
-5.4800

> <Gold.Chemscore.Hbond>
1.9313

> <Gold.Chemscore.Metal>
0.0000

> <Gold.Chemscore.Lipo>
121.3848

> <Gold.Chemscore.Internal_Hbond>
0.0000

> <Gold.Chemscore.DEClash>
2.3617

> <Gold.Chemscore.DEInternal>
2.9075

> <Gold.Chemscore.Rot>
1.0000

> <Gold.Chemscore.Internal.Correction>
   9.000000E+99

> <Gold.Chemscore.Hbonds>
donor molecule, donor type, donor heavy atom, donor atom, acceptor molecule, acceptor atom, score
      L1  H     3    22       P1  8028  0.91
      L1  H    10    26       P1  8028  0.91

> <Gold.Chemscore.Hbond.Weighted>
-6.4506

> <Gold.Chemscore.Metal.Weighted>
-0.0000

> <Gold.Chemscore.Lipo.Weighted>
-14.2020

> <Gold.Chemscore.Internal_Hbond.Weighted>
0.0000

> <Gold.Chemscore.DEClash.Weighted>
2.3617

> <Gold.Chemscore.DEInternal.Weighted>
2.9075

> <Gold.Chemscore.Rot.Weighted>
2.5600

> <Gold.Chemscore.Internal.Correction.Weighted>
   9.000000E+99

> <Gold.Protein.RotatedTorsions>
[ 6907 6896 6895 6894 ] final   40.80 input  -60.11 | X-H torsion
[ 7974 7965 7964 7962 ] final   61.36 input  175.53 | X-H torsion
[ 8008 7997 7996 7995 ] final   19.71 input   59.86 | X-H torsion
[ 10167 10162 10161 10158 ] final  -70.49 input  -65.29 | X-H torsion
[ 10718 10713 10712 10709 ] final   70.90 input   66.30 | X-H torsion
[ 10763 10752 10751 10750 ] final -116.03 input  -60.55 | X-H torsion
[ 11005 11000 10999 10996 ] final  -72.86 input  -57.11 | X-H torsion

> <Gold.Protein.ActiveResidues>
 VAL166  LYS551  ARG553  GLY616  TRP617  ASP618  TYR619  PRO620  LYS621  CYS622 
 ASP623  PHE694  ASN695  SER759  ASP760  ASP761  ALA762  ILE779  LEU786  VAL792 
 PHE793  MET794  SER795  GLU796  ALA797  LYS798  CYS799  TRP800  GLU811  SER814 

> <Gold.Protein.RotatedAtoms>
  152.1871  134.8704  160.0520 H   0  0  0  0  0  0  0  0  0  0  0  0  # atno 6907 bound_to 6896
  151.9606  133.3689  159.4042 H   0  0  0  0  0  0  0  0  0  0  0  0  # atno 6908 bound_to 6896
  150.6928  134.4168  159.5230 H   0  0  0  0  0  0  0  0  0  0  0  0  # atno 6909 bound_to 6896
  145.8856  139.3474  143.0680 H   0  0  0  0  0  0  0  0  0  0  0  0  # atno 7974 bound_to 7965
  154.9248  140.3032  155.5198 H   0  0  0  0  0  0  0  0  0  0  0  0  # atno 8008 bound_to 7997
  156.3007  140.2365  156.4238 H   0  0  0  0  0  0  0  0  0  0  0  0  # atno 8009 bound_to 7997
  154.8295  140.0419  157.1456 H   0  0  0  0  0  0  0  0  0  0  0  0  # atno 8010 bound_to 7997
  140.5348  143.2319  151.7196 H   0  0  0  0  0  0  0  0  0  0  0  0  # atno 10167 bound_to 10162
  157.6424  130.9501  150.0715 H   0  0  0  0  0  0  0  0  0  0  0  0  # atno 10718 bound_to 10713
  154.8504  135.4360  154.1756 H   0  0  0  0  0  0  0  0  0  0  0  0  # atno 10763 bound_to 10752
  153.2859  135.6957  153.7346 H   0  0  0  0  0  0  0  0  0  0  0  0  # atno 10764 bound_to 10752
  153.6532  135.3448  155.3080 H   0  0  0  0  0  0  0  0  0  0  0  0  # atno 10765 bound_to 10752
  141.1615  133.6860  156.7124 H   0  0  0  0  0  0  0  0  0  0  0  0  # atno 11005 bound_to 11000
  145.8970  140.9267  143.0522 LP  0  0  0  0  0  0  0  0  0  0  0  0  # atno 17320 bound_to 7965
  144.6728  140.0982  143.7462 LP  0  0  0  0  0  0  0  0  0  0  0  0  # atno 17321 bound_to 7965
  139.4967  144.4059  152.0132 LP  0  0  0  0  0  0  0  0  0  0  0  0  # atno 17342 bound_to 10162
  140.3164  144.3479  150.6020 LP  0  0  0  0  0  0  0  0  0  0  0  0  # atno 17343 bound_to 10162
  156.1718  130.3646  149.9155 LP  0  0  0  0  0  0  0  0  0  0  0  0  # atno 17370 bound_to 10713
  156.7129  130.8977  151.3611 LP  0  0  0  0  0  0  0  0  0  0  0  0  # atno 17371 bound_to 10713
  140.2877  134.8266  157.3989 LP  0  0  0  0  0  0  0  0  0  0  0  0  # atno 17394 bound_to 11000
  140.1375  134.5015  155.8057 LP  0  0  0  0  0  0  0  0  0  0  0  0  # atno 17395 bound_to 11000

$$$$
