AV-unprocessed.smi:2051|AV-procd|sdf|8326|dock6
  -GOLD-   2272010593D 1   1.00000     0.00000
 Structure written by MMmdl.
 33 34  0  0  0  0  0  0  0  0  1 V2000
  149.0777  140.6128  157.1144 O   0  0  0  0  0  0  0  0  0  0  0  0
  149.8571  140.3957  156.1858 C   0  0  0  0  0  0  0  0  0  0  0  0
  151.2981  140.9219  156.2363 C   0  0  0  0  0  0  0  0  0  0  0  0
  151.6017  141.6446  157.4827 N   0  0  0  0  0  0  0  0  0  0  0  0
  150.9564  142.8811  157.6833 C   0  0  0  0  0  0  0  0  0  0  0  0
  151.1649  143.6204  158.7841 C   0  0  0  0  0  0  0  0  0  0  0  0
  152.0805  143.1177  159.7807 C   0  0  0  0  0  0  0  0  0  0  0  0
  152.7056  141.9378  159.5976 C   0  0  0  0  0  0  0  0  0  0  0  0
  152.4821  141.1272  158.3948 C   0  0  0  0  0  0  0  0  0  0  0  0
  153.0513  140.0493  158.2180 O   0  0  0  0  0  0  0  0  0  0  0  0
  149.5234  139.6941  155.0920 N   0  0  0  0  0  0  0  0  0  0  0  0
  148.2037  139.1372  154.8138 C   0  0  0  0  0  0  0  0  0  0  0  0
  147.1523  140.2423  154.6121 C   0  0  2  0  0  0  0  0  0  0  0  0
  147.5855  141.3974  153.7079 C   0  0  0  0  0  0  0  0  0  0  0  0
  146.6794  142.5091  154.1835 C   0  0  0  0  0  0  0  0  0  0  0  0
  146.6414  142.2567  155.6881 C   0  0  0  0  0  0  0  0  0  0  0  0
  146.8344  140.8541  155.8593 O   0  0  0  0  0  0  0  0  0  0  0  0
  151.9726  140.0748  156.1056 H   0  0  0  0  0  0  0  0  0  0  0  0
  151.4838  141.5713  155.3784 H   0  0  0  0  0  0  0  0  0  0  0  0
  150.2931  143.1895  156.8883 H   0  0  0  0  0  0  0  0  0  0  0  0
  150.6642  144.5677  158.9191 H   0  0  0  0  0  0  0  0  0  0  0  0
  152.2662  143.6914  160.6769 H   0  0  0  0  0  0  0  0  0  0  0  0
  153.3882  141.5780  160.3535 H   0  0  0  0  0  0  0  0  0  0  0  0
  150.2305  139.5579  154.3842 H   0  0  0  0  0  0  0  0  0  0  0  0
  148.2808  138.5405  153.9047 H   0  0  0  0  0  0  0  0  0  0  0  0
  147.8910  138.4505  155.6022 H   0  0  0  0  0  0  0  0  0  0  0  0
  146.2307  139.8094  154.2198 H   0  0  0  0  0  0  0  0  0  0  0  0
  148.6274  141.6623  153.8930 H   0  0  0  0  0  0  0  0  0  0  0  0
  147.4711  141.1757  152.6462 H   0  0  0  0  0  0  0  0  0  0  0  0
  147.0455  143.5032  153.9261 H   0  0  0  0  0  0  0  0  0  0  0  0
  145.6834  142.3885  153.7552 H   0  0  0  0  0  0  0  0  0  0  0  0
  147.4605  142.7796  156.1831 H   0  0  0  0  0  0  0  0  0  0  0  0
  145.7061  142.5882  156.1399 H   0  0  0  0  0  0  0  0  0  0  0  0
  1  2  2  0  0  0  0
  2  3  1  0  0  0  0
  2 11  1  0  0  0  0
  3  4  1  0  0  0  0
  3 18  1  0  0  0  0
  3 19  1  0  0  0  0
  4  9  1  0  0  0  0
  4  5  1  0  0  0  0
  5  6  2  0  0  0  0
  5 20  1  0  0  0  0
  6  7  1  0  0  0  0
  6 21  1  0  0  0  0
  7  8  2  0  0  0  0
  7 22  1  0  0  0  0
  8  9  1  0  0  0  0
  8 23  1  0  0  0  0
  9 10  2  0  0  0  0
 11 12  1  0  0  0  0
 11 24  1  0  0  0  0
 12 13  1  0  0  0  0
 12 25  1  0  0  0  0
 12 26  1  0  0  0  0
 13 17  1  0  0  0  0
 13 14  1  0  0  0  0
 13 27  1  0  0  0  0
 14 15  1  0  0  0  0
 14 28  1  0  0  0  0
 14 29  1  0  0  0  0
 15 16  1  0  0  0  0
 15 30  1  0  0  0  0
 15 31  1  0  0  0  0
 16 17  1  0  0  0  0
 16 32  1  0  0  0  0
 16 33  1  0  0  0  0
M  END
> <s_m_source_file>
AV-unprocessed.smi

> <i_m_source_file_index>
2051

> <i_lp_mmshare_version>
43012

> <i_f3d_flags>
0

> <s_epik_input>
TzFbQ0gyXVtDSDJdW0NIMl1bQ0BIXTFbQ0gyXVtOSF1DKD1PKVtDSDJdbjJbY0hdW2NIXVtjSF1bY0hdYzI9Tw==

> <s_epik_cmdline>
J2VwaWtfcHl0aG9uJywgJy1waCcsICc3LjAnLCAnLXRuJywgJzgnLCAnLW1hJywgJzIwMCcsICctbWV0YWxfYmluZGluZycsICctaW1hZScsICc8aW5maWxlLm1hZT4nLCAnLW9tYWUnLCAnPG91dGZpbGUubWFlPic=

> <r_lp_tautomer_probability>
1

> <r_epik_Ionization_Penalty>
3.94187e-07

> <r_epik_Ionization_Penalty_Charging>
3.67328e-07

> <r_epik_Ionization_Penalty_Neutral>
2.6859e-08

> <r_epik_State_Penalty>
-0

> <r_epik_Charging_Adjusted_Penalty>
3.67328e-07

> <i_epik_Tot_Q>
0

> <i_epik_Tot_abs_Q>
0

> <r_epik_Metal_State_Penalty>
-0

> <b_epik_Metal_Only>
0

> <s_lp_Force_Field>
OPLS_2005

> <r_lp_Energy>
26.4026

> <b_lp_Chiralities_Consistent>
1

> <s_lp_Variant>
AV-unprocessed.smi:2051-1

> <Gold.Version>
5.8.1

> <Gold.Id.Protein>
6NUR|6NUR_protein|mol2

> <Gold.PLP.Fitness>
35.1098

> <Gold.PLP.PLP>
-29.4581

> <Gold.PLP.part.hbond>
-1.0000

> <Gold.PLP.part.metal>
0.0000

> <Gold.PLP.part.buried>
-4.4305

> <Gold.PLP.part.nonpolar>
-24.0324

> <Gold.PLP.part.repulsive>
0.1531

> <Gold.PLP.ligand.clash>
0.0000

> <Gold.PLP.ligand.torsion>
0.1752

> <Gold.PLP.Chemscore.Hbond>
1.0000

> <Gold.PLP.Chemscore.CHOScore>
1.0000

> <Gold.PLP.Chemscore.Metal>
0.0000

> <Gold.Chemscore.Hbonds>
donor molecule, donor type, donor heavy atom, donor atom, acceptor molecule, acceptor atom, score
      P1  H  7997  8008       L1    10  1.00
      L1  C     5    20       P1  8028  1.00

> <Gold.PLP.Chemscore.Internal.Correction>
0.0022

> <Gold.Rescore>
     Score         DG    S(hbond)    S(metal)    S(lipo)     H(rot)  DE(clash)    DE(int)     intcor
     10.06     -12.95       0.93        0.00      74.28       1.69       0.05       2.84       ----

> <Gold.Chemscore.Fitness>
10.0574

> <Gold.Chemscore.DG>
-12.9455

> <Gold.Chemscore.ZeroCoef>
-5.4800

> <Gold.Chemscore.Hbond>
0.9312

> <Gold.Chemscore.Metal>
0.0000

> <Gold.Chemscore.Lipo>
74.2820

> <Gold.Chemscore.Internal_Hbond>
0.0000

> <Gold.Chemscore.DEClash>
0.0484

> <Gold.Chemscore.DEInternal>
2.8397

> <Gold.Chemscore.Rot>
1.6936

> <Gold.Chemscore.Internal.Correction>
   9.000000E+99

> <Gold.Chemscore.Hbonds>
donor molecule, donor type, donor heavy atom, donor atom, acceptor molecule, acceptor atom, score
      P1  H  7997  8008       L1    10  0.89

> <Gold.Chemscore.Hbond.Weighted>
-3.1102

> <Gold.Chemscore.Metal.Weighted>
-0.0000

> <Gold.Chemscore.Lipo.Weighted>
-8.6910

> <Gold.Chemscore.Internal_Hbond.Weighted>
0.0000

> <Gold.Chemscore.DEClash.Weighted>
0.0484

> <Gold.Chemscore.DEInternal.Weighted>
2.8397

> <Gold.Chemscore.Rot.Weighted>
4.3357

> <Gold.Chemscore.Internal.Correction.Weighted>
   9.000000E+99

> <Gold.Protein.RotatedTorsions>
[ 6907 6896 6895 6894 ] final   77.77 input  -60.11 | X-H torsion
[ 7974 7965 7964 7962 ] final   11.51 input  175.53 | X-H torsion
[ 8008 7997 7996 7995 ] final  -83.86 input   59.86 | X-H torsion
[ 10167 10162 10161 10158 ] final  -40.26 input  -65.29 | X-H torsion
[ 10718 10713 10712 10709 ] final  -98.89 input   66.30 | X-H torsion
[ 10763 10752 10751 10750 ] final    4.54 input  -60.55 | X-H torsion
[ 11005 11000 10999 10996 ] final  167.56 input  -57.11 | X-H torsion

> <Gold.Protein.ActiveResidues>
 VAL166  LYS551  ARG553  GLY616  TRP617  ASP618  TYR619  PRO620  LYS621  CYS622 
 ASP623  PHE694  ASN695  SER759  ASP760  ASP761  ALA762  ILE779  LEU786  VAL792 
 PHE793  MET794  SER795  GLU796  ALA797  LYS798  CYS799  TRP800  GLU811  SER814 

> <Gold.Protein.RotatedAtoms>
  152.5131  134.3767  159.9336 H   0  0  0  0  0  0  0  0  0  0  0  0  # atno 6907 bound_to 6896
  151.3722  133.3844  159.2708 H   0  0  0  0  0  0  0  0  0  0  0  0  # atno 6908 bound_to 6896
  150.9569  134.8981  159.7765 H   0  0  0  0  0  0  0  0  0  0  0  0  # atno 6909 bound_to 6896
  146.2369  139.9474  142.8475 H   0  0  0  0  0  0  0  0  0  0  0  0  # atno 7974 bound_to 7965
  154.6236  140.0613  156.9646 H   0  0  0  0  0  0  0  0  0  0  0  0  # atno 8008 bound_to 7997
  155.1777  140.3296  155.4362 H   0  0  0  0  0  0  0  0  0  0  0  0  # atno 8009 bound_to 7997
  156.2445  140.1903  156.6876 H   0  0  0  0  0  0  0  0  0  0  0  0  # atno 8010 bound_to 7997
  140.7040  143.3164  151.2899 H   0  0  0  0  0  0  0  0  0  0  0  0  # atno 10167 bound_to 10162
  156.0119  130.5258  150.6590 H   0  0  0  0  0  0  0  0  0  0  0  0  # atno 10718 bound_to 10713
  153.2700  135.6931  153.7490 H   0  0  0  0  0  0  0  0  0  0  0  0  # atno 10763 bound_to 10752
  153.6517  135.3375  155.3102 H   0  0  0  0  0  0  0  0  0  0  0  0  # atno 10764 bound_to 10752
  154.8460  135.4456  154.1719 H   0  0  0  0  0  0  0  0  0  0  0  0  # atno 10765 bound_to 10752
  140.2780  134.7773  157.3734 H   0  0  0  0  0  0  0  0  0  0  0  0  # atno 11005 bound_to 11000
  145.1894  140.9804  143.4220 LP  0  0  0  0  0  0  0  0  0  0  0  0  # atno 17320 bound_to 7965
  144.9871  139.3726  143.6233 LP  0  0  0  0  0  0  0  0  0  0  0  0  # atno 17321 bound_to 7965
  139.6604  144.0199  152.2688 LP  0  0  0  0  0  0  0  0  0  0  0  0  # atno 17342 bound_to 10162
  139.9765  144.6458  150.7940 LP  0  0  0  0  0  0  0  0  0  0  0  0  # atno 17343 bound_to 10162
  157.4336  131.0852  151.1014 LP  0  0  0  0  0  0  0  0  0  0  0  0  # atno 17370 bound_to 10713
  157.1579  130.6213  149.5602 LP  0  0  0  0  0  0  0  0  0  0  0  0  # atno 17371 bound_to 10713
  140.1310  134.5095  155.8106 LP  0  0  0  0  0  0  0  0  0  0  0  0  # atno 17394 bound_to 11000
  141.2167  133.6790  156.7039 LP  0  0  0  0  0  0  0  0  0  0  0  0  # atno 17395 bound_to 11000

$$$$
