AV-unprocessed.smi:160|AV-procd|sdf|1360|dock10
  -GOLD-   2262019 73D 1   1.00000     0.00000
 Structure written by MMmdl.
 28 29  0  0  0  0  0  0  0  0  2 V2000
  154.8304  135.7272  156.8836 N   0  5  0  0  0  0  0  0  0  0  0  0
  154.5758  136.9622  157.3675 C   0  0  0  0  0  0  0  0  0  0  0  0
  155.0910  137.4750  158.3605 O   0  0  0  0  0  0  0  0  0  0  0  0
  153.5541  137.7468  156.5790 C   0  0  0  0  0  0  0  0  0  0  0  0
  152.8810  137.1657  155.5394 N   0  0  0  0  0  0  0  0  0  0  0  0
  152.1301  138.1945  155.1709 C   0  0  0  0  0  0  0  0  0  0  0  0
  152.3191  139.2999  155.8969 N   0  0  0  0  0  0  0  0  0  0  0  0
  151.6640  140.6439  155.7805 C   0  0  1  0  0  0  0  0  0  0  0  0
  150.7272  140.5913  154.7456 O   0  0  0  0  0  0  0  0  0  0  0  0
  149.4130  140.5080  155.2881 C   0  0  2  0  0  0  0  0  0  0  0  0
  148.3890  140.9934  154.2505 C   0  0  0  0  0  0  0  0  0  0  0  0
  148.2785  140.0569  153.2003 O   0  0  0  0  0  0  0  0  0  0  0  0
  149.5325  141.4258  156.5063 C   0  0  1  0  0  0  0  0  0  0  0  0
  148.4834  141.2459  157.4396 O   0  0  0  0  0  0  0  0  0  0  0  0
  150.9138  141.0826  157.0617 C   0  0  1  0  0  0  0  0  0  0  0  0
  150.8643  140.0959  158.0814 O   0  0  0  0  0  0  0  0  0  0  0  0
  153.2541  139.0230  156.8399 N   0  0  0  0  0  0  0  0  0  0  0  0
  152.4767  141.3173  155.5062 H   0  0  0  0  0  0  0  0  0  0  0  0
  149.1992  139.4868  155.6100 H   0  0  0  0  0  0  0  0  0  0  0  0
  149.5337  142.4658  156.1757 H   0  0  0  0  0  0  0  0  0  0  0  0
  151.3973  141.9689  157.4735 H   0  0  0  0  0  0  0  0  0  0  0  0
  155.7408  135.2994  157.0912 H   0  0  0  0  0  0  0  0  0  0  0  0
  151.4295  138.1421  154.3508 H   0  0  0  0  0  0  0  0  0  0  0  0
  147.4044  141.0847  154.7100 H   0  0  0  0  0  0  0  0  0  0  0  0
  148.6555  141.9751  153.8580 H   0  0  0  0  0  0  0  0  0  0  0  0
  148.7713  140.3750  152.4599 H   0  0  0  0  0  0  0  0  0  0  0  0
  148.0276  142.0673  157.5398 H   0  0  0  0  0  0  0  0  0  0  0  0
  151.2895  140.4358  158.8536 H   0  0  0  0  0  0  0  0  0  0  0  0
  1  2  1  0  0  0  0
  1 22  1  0  0  0  0
  2  3  2  0  0  0  0
  2  4  1  0  0  0  0
  4 17  2  0  0  0  0
  4  5  1  0  0  0  0
  5  6  2  0  0  0  0
  6  7  1  0  0  0  0
  6 23  1  0  0  0  0
  7  8  1  0  0  0  0
  7 17  1  0  0  0  0
  8 18  1  0  0  0  0
  8 15  1  0  0  0  0
  8  9  1  0  0  0  0
  9 10  1  0  0  0  0
 10 19  1  0  0  0  0
 10 11  1  0  0  0  0
 10 13  1  0  0  0  0
 11 12  1  0  0  0  0
 11 24  1  0  0  0  0
 11 25  1  0  0  0  0
 12 26  1  0  0  0  0
 13 20  1  0  0  0  0
 13 14  1  0  0  0  0
 13 15  1  0  0  0  0
 14 27  1  0  0  0  0
 15 21  1  0  0  0  0
 15 16  1  0  0  0  0
 16 28  1  0  0  0  0
M  CHG  1   1  -1
M  END
> <s_m_source_file>
AV-unprocessed.smi

> <i_m_source_file_index>
160

> <i_lp_mmshare_version>
43012

> <i_f3d_flags>
0

> <s_epik_input>
W05IMl1DKD1PKWMxbltjSF1uKG4xKVtDQEBIXTJPW0NASF0oW0NIMl1bT0hdKVtDQEBIXShbT0hdKVtDQEhdMltPSF0=

> <s_epik_cmdline>
J2VwaWtfcHl0aG9uJywgJy1waCcsICc3LjAnLCAnLXRuJywgJzgnLCAnLW1hJywgJzIwMCcsICctbWV0YWxfYmluZGluZycsICctaW1hZScsICc8aW5maWxlLm1hZT4nLCAnLW9tYWUnLCAnPG91dGZpbGUubWFlPic=

> <r_lp_tautomer_probability>
1

> <r_epik_Ionization_Penalty>
6.6993

> <r_epik_Ionization_Penalty_Charging>
6.6993

> <r_epik_Ionization_Penalty_Neutral>
6.01698e-06

> <r_epik_State_Penalty>
6.69929

> <r_epik_Charging_Adjusted_Penalty>
13.3986

> <i_epik_Tot_Q>
-1

> <i_epik_Tot_abs_Q>
1

> <r_epik_Metal_State_Penalty>
2.62798

> <b_epik_Metal_Only>
1

> <s_epik_Chemistry_Notes>
This compound contains an acetal/aminal-like group ( X-CH(R)-Y where X, Y are N, S, or O) that may be acid/base labile, releasing an aldehyde.

> <s_lp_Force_Field>
OPLS_2005

> <r_lp_Energy>
50.1609

> <b_lp_Chiralities_Consistent>
1

> <s_lp_Variant>
AV-unprocessed.smi:160-18

> <Gold.Version>
5.8.1

> <Gold.Id.Protein>
6NUR|6NUR_protein|mol2

> <Gold.PLP.Fitness>
39.3960

> <Gold.PLP.PLP>
-23.1862

> <Gold.PLP.part.hbond>
-4.7299

> <Gold.PLP.part.metal>
0.0000

> <Gold.PLP.part.buried>
-3.5708

> <Gold.PLP.part.nonpolar>
-15.0073

> <Gold.PLP.part.repulsive>
0.1086

> <Gold.PLP.ligand.clash>
0.0000

> <Gold.PLP.ligand.torsion>
0.0508

> <Gold.PLP.Chemscore.Hbond>
5.4320

> <Gold.PLP.Chemscore.CHOScore>
0.0000

> <Gold.PLP.Chemscore.Metal>
0.0000

> <Gold.Chemscore.Hbonds>
donor molecule, donor type, donor heavy atom, donor atom, acceptor molecule, acceptor atom, score
      L1  H    12    26       P1  7957  0.98
      P1  H  7989  7998       L1     9  0.99
      P1  H  7997  8008       L1    17  1.00
      P1  H 10752 10764       L1     5  0.34
      P1  H 10752 10765       L1     1  2.00

> <Gold.PLP.Chemscore.Internal.Correction>
0.0155

> <Gold.Rescore>
     Score         DG    S(hbond)    S(metal)    S(lipo)     H(rot)  DE(clash)    DE(int)     intcor
      9.26      -9.92       3.62        0.00      23.12       4.04       0.05       0.61       ----

> <Gold.Chemscore.Fitness>
9.2601

> <Gold.Chemscore.DG>
-9.9181

> <Gold.Chemscore.ZeroCoef>
-5.4800

> <Gold.Chemscore.Hbond>
3.6157

> <Gold.Chemscore.Metal>
0.0000

> <Gold.Chemscore.Lipo>
23.1177

> <Gold.Chemscore.Internal_Hbond>
0.0000

> <Gold.Chemscore.DEClash>
0.0456

> <Gold.Chemscore.DEInternal>
0.6124

> <Gold.Chemscore.Rot>
4.0403

> <Gold.Chemscore.Internal.Correction>
   9.000000E+99

> <Gold.Chemscore.Hbonds>
donor molecule, donor type, donor heavy atom, donor atom, acceptor molecule, acceptor atom, score
      L1  H    12    26       P1  7957  0.91
      P1  H  7989  7998       L1     9  0.27
      P1  H  7997  8008       L1    17  0.77
      P1  H 10752 10764       L1     5  0.33
      P1  H 10752 10765       L1     1  0.54

> <Gold.Chemscore.Hbond.Weighted>
-12.0764

> <Gold.Chemscore.Metal.Weighted>
-0.0000

> <Gold.Chemscore.Lipo.Weighted>
-2.7048

> <Gold.Chemscore.Internal_Hbond.Weighted>
0.0000

> <Gold.Chemscore.DEClash.Weighted>
0.0456

> <Gold.Chemscore.DEInternal.Weighted>
0.6124

> <Gold.Chemscore.Rot.Weighted>
10.3431

> <Gold.Chemscore.Internal.Correction.Weighted>
   9.000000E+99

> <Gold.Protein.RotatedTorsions>
[ 6907 6896 6895 6894 ] final  129.70 input  -60.11 | X-H torsion
[ 7974 7965 7964 7962 ] final  -26.57 input  175.53 | X-H torsion
[ 8008 7997 7996 7995 ] final  -75.91 input   59.86 | X-H torsion
[ 10167 10162 10161 10158 ] final -111.52 input  -65.29 | X-H torsion
[ 10718 10713 10712 10709 ] final -172.63 input   66.30 | X-H torsion
[ 10763 10752 10751 10750 ] final  -66.24 input  -60.55 | X-H torsion
[ 11005 11000 10999 10996 ] final  -99.10 input  -57.11 | X-H torsion

> <Gold.Protein.ActiveResidues>
 VAL166  LYS551  ARG553  GLY616  TRP617  ASP618  TYR619  PRO620  LYS621  CYS622 
 ASP623  PHE694  ASN695  SER759  ASP760  ASP761  ALA762  ILE779  LEU786  VAL792 
 PHE793  MET794  SER795  GLU796  ALA797  LYS798  CYS799  TRP800  GLU811  SER814 

> <Gold.Protein.RotatedAtoms>
  152.3599  133.6283  159.6006 H   0  0  0  0  0  0  0  0  0  0  0  0  # atno 6907 bound_to 6896
  150.7594  133.9441  159.3474 H   0  0  0  0  0  0  0  0  0  0  0  0  # atno 6908 bound_to 6896
  151.7280  135.0881  160.0346 H   0  0  0  0  0  0  0  0  0  0  0  0  # atno 6909 bound_to 6896
  146.1417  140.5037  142.8649 H   0  0  0  0  0  0  0  0  0  0  0  0  # atno 7974 bound_to 7965
  154.5458  140.0736  156.8586 H   0  0  0  0  0  0  0  0  0  0  0  0  # atno 8008 bound_to 7997
  155.3090  140.3389  155.4226 H   0  0  0  0  0  0  0  0  0  0  0  0  # atno 8009 bound_to 7997
  156.1916  140.1688  156.8066 H   0  0  0  0  0  0  0  0  0  0  0  0  # atno 8010 bound_to 7997
  140.1327  143.4346  152.1616 H   0  0  0  0  0  0  0  0  0  0  0  0  # atno 10167 bound_to 10162
  156.7585  130.9404  151.3117 H   0  0  0  0  0  0  0  0  0  0  0  0  # atno 10718 bound_to 10713
  154.3569  135.6124  153.5670 H   0  0  0  0  0  0  0  0  0  0  0  0  # atno 10763 bound_to 10752
  152.9795  135.5805  154.4679 H   0  0  0  0  0  0  0  0  0  0  0  0  # atno 10764 bound_to 10752
  154.4409  135.2850  155.1825 H   0  0  0  0  0  0  0  0  0  0  0  0  # atno 10765 bound_to 10752
  141.1321  133.8296  157.0927 H   0  0  0  0  0  0  0  0  0  0  0  0  # atno 11005 bound_to 11000
  144.7799  140.5819  143.6612 LP  0  0  0  0  0  0  0  0  0  0  0  0  # atno 17320 bound_to 7965
  145.5032  139.1482  143.3645 LP  0  0  0  0  0  0  0  0  0  0  0  0  # atno 17321 bound_to 7965
  139.5511  144.7338  151.4432 LP  0  0  0  0  0  0  0  0  0  0  0  0  # atno 17342 bound_to 10162
  140.6807  143.8088  150.7118 LP  0  0  0  0  0  0  0  0  0  0  0  0  # atno 17343 bound_to 10162
  157.6745  130.9082  150.0118 LP  0  0  0  0  0  0  0  0  0  0  0  0  # atno 17370 bound_to 10713
  156.1355  130.3643  149.9664 LP  0  0  0  0  0  0  0  0  0  0  0  0  # atno 17371 bound_to 10713
  140.0382  134.9867  157.0911 LP  0  0  0  0  0  0  0  0  0  0  0  0  # atno 17394 bound_to 11000
  140.4177  134.1914  155.7164 LP  0  0  0  0  0  0  0  0  0  0  0  0  # atno 17395 bound_to 11000

$$$$
