AV-unprocessed.smi:2032|AV-procd|sdf|8246|dock2
  -GOLD-   2272010513D 1   1.00000     0.00000
 Structure written by MMmdl.
 41 42  0  0  0  0  0  0  0  0  2 V2000
  152.5536  144.6143  158.1866 C   0  0  0  0  0  0  0  0  0  0  0  0
  152.0608  143.3017  158.8048 C   0  0  1  0  0  0  0  0  0  0  0  0
  151.5025  142.3332  157.7446 C   0  0  0  0  0  0  0  0  0  0  0  0
  151.0982  141.0398  158.3064 N   0  0  0  0  0  0  0  0  0  0  0  0
  150.5793  140.1118  157.2735 C   0  0  2  0  0  0  0  0  0  0  0  0
  149.2120  140.5630  156.6988 C   0  0  0  0  0  0  0  0  0  0  0  0
  150.4587  138.6409  157.7711 C   0  0  0  0  0  0  0  0  0  0  0  0
  149.3863  138.4344  158.7418 N   0  0  0  0  0  0  0  0  0  0  0  0
  148.9351  137.2500  159.1794 C   0  0  0  0  0  0  0  0  0  0  0  0
  149.4424  136.2058  158.7632 O   0  0  0  0  0  0  0  0  0  0  0  0
  147.9211  137.3511  160.0688 N   0  5  0  0  0  0  0  0  0  0  0  0
  147.4592  136.2554  160.6930 C   0  0  0  0  0  0  0  0  0  0  0  0
  147.1448  136.2346  161.9934 N   0  0  0  0  0  0  0  0  0  0  0  0
  146.6704  134.9965  162.4303 C   0  0  0  0  0  0  0  0  0  0  0  0
  146.6136  134.0548  161.4373 C   0  0  0  0  0  0  0  0  0  0  0  0
  147.1601  134.6985  159.9150 S   0  0  0  0  0  0  0  0  0  0  0  0
  152.2426  140.4908  159.0412 C   0  0  0  0  0  0  0  0  0  0  0  0
  152.7963  141.4629  160.1007 C   0  0  1  0  0  0  0  0  0  0  0  0
  154.0352  140.9039  160.8083 C   0  0  0  0  0  0  0  0  0  0  0  0
  153.1556  142.6860  159.4710 O   0  0  0  0  0  0  0  0  0  0  0  0
  151.7463  145.1316  157.6673 H   0  0  0  0  0  0  0  0  0  0  0  0
  153.3541  144.4357  157.4679 H   0  0  0  0  0  0  0  0  0  0  0  0
  152.9390  145.2857  158.9542 H   0  0  0  0  0  0  0  0  0  0  0  0
  151.2833  143.5301  159.5361 H   0  0  0  0  0  0  0  0  0  0  0  0
  150.6541  142.8289  157.2767 H   0  0  0  0  0  0  0  0  0  0  0  0
  152.2485  142.1774  156.9638 H   0  0  0  0  0  0  0  0  0  0  0  0
  151.2862  140.1112  156.4426 H   0  0  0  0  0  0  0  0  0  0  0  0
  148.8149  139.8591  155.9684 H   0  0  0  0  0  0  0  0  0  0  0  0
  149.2777  141.5104  156.1665 H   0  0  0  0  0  0  0  0  0  0  0  0
  148.4686  140.6697  157.4891 H   0  0  0  0  0  0  0  0  0  0  0  0
  150.2737  137.9473  156.9518 H   0  0  0  0  0  0  0  0  0  0  0  0
  151.3950  138.3283  158.2341 H   0  0  0  0  0  0  0  0  0  0  0  0
  148.9416  139.2620  159.1106 H   0  0  0  0  0  0  0  0  0  0  0  0
  146.3923  134.8756  163.4666 H   0  0  0  0  0  0  0  0  0  0  0  0
  146.2847  133.0291  161.5065 H   0  0  0  0  0  0  0  0  0  0  0  0
  151.9591  139.5814  159.5670 H   0  0  0  0  0  0  0  0  0  0  0  0
  153.0348  140.2202  158.3413 H   0  0  0  0  0  0  0  0  0  0  0  0
  152.0274  141.6622  160.8494 H   0  0  0  0  0  0  0  0  0  0  0  0
  153.8058  139.9684  161.3189 H   0  0  0  0  0  0  0  0  0  0  0  0
  154.4083  141.6066  161.5538 H   0  0  0  0  0  0  0  0  0  0  0  0
  154.8409  140.7101  160.0994 H   0  0  0  0  0  0  0  0  0  0  0  0
  1  2  1  0  0  0  0
  1 21  1  0  0  0  0
  1 22  1  0  0  0  0
  1 23  1  0  0  0  0
  2 20  1  0  0  0  0
  2  3  1  0  0  0  0
  2 24  1  0  0  0  0
  3  4  1  0  0  0  0
  3 25  1  0  0  0  0
  3 26  1  0  0  0  0
  4  5  1  0  0  0  0
  4 17  1  0  0  0  0
  5  6  1  0  0  0  0
  5  7  1  0  0  0  0
  5 27  1  0  0  0  0
  6 28  1  0  0  0  0
  6 29  1  0  0  0  0
  6 30  1  0  0  0  0
  7  8  1  0  0  0  0
  7 31  1  0  0  0  0
  7 32  1  0  0  0  0
  8  9  1  0  0  0  0
  8 33  1  0  0  0  0
  9 10  2  0  0  0  0
  9 11  1  0  0  0  0
 11 12  1  0  0  0  0
 12 16  1  0  0  0  0
 12 13  2  0  0  0  0
 13 14  1  0  0  0  0
 14 15  2  0  0  0  0
 14 34  1  0  0  0  0
 15 16  1  0  0  0  0
 15 35  1  0  0  0  0
 17 18  1  0  0  0  0
 17 36  1  0  0  0  0
 17 37  1  0  0  0  0
 18 19  1  0  0  0  0
 18 20  1  0  0  0  0
 18 38  1  0  0  0  0
 19 39  1  0  0  0  0
 19 40  1  0  0  0  0
 19 41  1  0  0  0  0
M  CHG  1  11  -1
M  END
> <s_m_source_file>
AV-unprocessed.smi

> <i_m_source_file_index>
2032

> <i_lp_mmshare_version>
43012

> <i_f3d_flags>
0

> <s_epik_input>
W0NIM11bQ0BASF0xW0NIMl1OKFtDSDJdW0NASF0oTzEpW0NIM10pW0NASF0oW0NIM10pW0NIMl1bTkhdQyg9TylbTkhdYzJuW2NIXVtjSF1zMg==

> <s_epik_cmdline>
J2VwaWtfcHl0aG9uJywgJy1waCcsICc3LjAnLCAnLXRuJywgJzgnLCAnLW1hJywgJzIwMCcsICctbWV0YWxfYmluZGluZycsICctaW1hZScsICc8aW5maWxlLm1hZT4nLCAnLW9tYWUnLCAnPG91dGZpbGUubWFlPic=

> <r_lp_tautomer_probability>
0.999

> <r_epik_Ionization_Penalty>
7.22375

> <r_epik_Ionization_Penalty_Charging>
5.82415

> <r_epik_Ionization_Penalty_Neutral>
1.39959

> <r_epik_State_Penalty>
6.03347

> <r_epik_Charging_Adjusted_Penalty>
11.8576

> <i_epik_Tot_Q>
-1

> <i_epik_Tot_abs_Q>
1

> <r_epik_Metal_State_Penalty>
2.01024

> <b_epik_Metal_Only>
1

> <s_lp_Force_Field>
OPLS_2005

> <r_lp_Energy>
22.7494

> <b_lp_Chiralities_Consistent>
1

> <s_lp_Variant>
AV-unprocessed.smi:2032-16

> <Gold.Version>
5.8.1

> <Gold.Id.Protein>
6NUR|6NUR_protein|mol2

> <Gold.PLP.Fitness>
49.2842

> <Gold.PLP.PLP>
-39.6270

> <Gold.PLP.part.hbond>
-3.0000

> <Gold.PLP.part.metal>
0.0000

> <Gold.PLP.part.buried>
-5.9332

> <Gold.PLP.part.nonpolar>
-32.2735

> <Gold.PLP.part.repulsive>
0.2737

> <Gold.PLP.ligand.clash>
0.0000

> <Gold.PLP.ligand.torsion>
0.6003

> <Gold.PLP.Chemscore.Hbond>
3.5889

> <Gold.PLP.Chemscore.CHOScore>
0.0000

> <Gold.PLP.Chemscore.Metal>
0.0000

> <Gold.Chemscore.Hbonds>
donor molecule, donor type, donor heavy atom, donor atom, acceptor molecule, acceptor atom, score
      P1  H  6896  6907       L1    10  0.71
      P1  H  6931  6943       L1    11  0.29
      P1  H  6934  6947       L1    11  1.47

> <Gold.PLP.Chemscore.Internal.Correction>
0.0911

> <Gold.Rescore>
     Score         DG    S(hbond)    S(metal)    S(lipo)     H(rot)  DE(clash)    DE(int)     intcor
     16.90     -17.77       1.56        0.00      94.29       1.54       0.02       0.85       ----

> <Gold.Chemscore.Fitness>
16.9000

> <Gold.Chemscore.DG>
-17.7652

> <Gold.Chemscore.ZeroCoef>
-5.4800

> <Gold.Chemscore.Hbond>
1.5580

> <Gold.Chemscore.Metal>
0.0000

> <Gold.Chemscore.Lipo>
94.2894

> <Gold.Chemscore.Internal_Hbond>
0.0000

> <Gold.Chemscore.DEClash>
0.0186

> <Gold.Chemscore.DEInternal>
0.8466

> <Gold.Chemscore.Rot>
1.5431

> <Gold.Chemscore.Internal.Correction>
   9.000000E+99

> <Gold.Chemscore.Hbonds>
donor molecule, donor type, donor heavy atom, donor atom, acceptor molecule, acceptor atom, score
      P1  H  6896  6907       L1    10  0.71
      P1  H  6931  6943       L1    11  0.01
      P1  H  6934  6947       L1    11  0.56

> <Gold.Chemscore.Hbond.Weighted>
-5.2036

> <Gold.Chemscore.Metal.Weighted>
-0.0000

> <Gold.Chemscore.Lipo.Weighted>
-11.0319

> <Gold.Chemscore.Internal_Hbond.Weighted>
0.0000

> <Gold.Chemscore.DEClash.Weighted>
0.0186

> <Gold.Chemscore.DEInternal.Weighted>
0.8466

> <Gold.Chemscore.Rot.Weighted>
3.9503

> <Gold.Chemscore.Internal.Correction.Weighted>
   9.000000E+99

> <Gold.Protein.RotatedTorsions>
[ 6907 6896 6895 6894 ] final  -50.94 input  -60.11 | X-H torsion
[ 7974 7965 7964 7962 ] final  101.52 input  175.53 | X-H torsion
[ 8008 7997 7996 7995 ] final    8.84 input   59.86 | X-H torsion
[ 10167 10162 10161 10158 ] final -156.36 input  -65.29 | X-H torsion
[ 10718 10713 10712 10709 ] final  -98.13 input   66.30 | X-H torsion
[ 10763 10752 10751 10750 ] final   30.91 input  -60.55 | X-H torsion
[ 11005 11000 10999 10996 ] final   87.90 input  -57.11 | X-H torsion

> <Gold.Protein.ActiveResidues>
 VAL166  LYS551  ARG553  GLY616  TRP617  ASP618  TYR619  PRO620  LYS621  CYS622 
 ASP623  PHE694  ASN695  SER759  ASP760  ASP761  ALA762  ILE779  LEU786  VAL792 
 PHE793  MET794  SER795  GLU796  ALA797  LYS798  CYS799  TRP800  GLU811  SER814 

> <Gold.Protein.RotatedAtoms>
  150.8659  134.8022  159.7118 H   0  0  0  0  0  0  0  0  0  0  0  0  # atno 6907 bound_to 6896
  152.4681  134.5024  159.9739 H   0  0  0  0  0  0  0  0  0  0  0  0  # atno 6908 bound_to 6896
  151.5121  133.3444  159.2922 H   0  0  0  0  0  0  0  0  0  0  0  0  # atno 6909 bound_to 6896
  145.3712  139.2398  143.3454 H   0  0  0  0  0  0  0  0  0  0  0  0  # atno 7974 bound_to 7965
  154.7721  140.2804  155.6130 H   0  0  0  0  0  0  0  0  0  0  0  0  # atno 8008 bound_to 7997
  156.2935  140.2639  156.2453 H   0  0  0  0  0  0  0  0  0  0  0  0  # atno 8009 bound_to 7997
  154.9887  140.0374  157.2300 H   0  0  0  0  0  0  0  0  0  0  0  0  # atno 8010 bound_to 7997
  139.6857  143.9506  152.2360 H   0  0  0  0  0  0  0  0  0  0  0  0  # atno 10167 bound_to 10162
  156.0100  130.5224  150.6477 H   0  0  0  0  0  0  0  0  0  0  0  0  # atno 10718 bound_to 10713
  153.0345  135.6452  154.1117 H   0  0  0  0  0  0  0  0  0  0  0  0  # atno 10763 bound_to 10752
  154.0834  135.2871  155.3287 H   0  0  0  0  0  0  0  0  0  0  0  0  # atno 10764 bound_to 10752
  154.6514  135.5424  153.7971 H   0  0  0  0  0  0  0  0  0  0  0  0  # atno 10765 bound_to 10752
  139.8909  134.8453  156.2925 H   0  0  0  0  0  0  0  0  0  0  0  0  # atno 11005 bound_to 11000
  146.2884  140.4364  142.8749 LP  0  0  0  0  0  0  0  0  0  0  0  0  # atno 17320 bound_to 7965
  144.8575  140.7091  143.6129 LP  0  0  0  0  0  0  0  0  0  0  0  0  # atno 17321 bound_to 7965
  139.9308  144.6742  150.8365 LP  0  0  0  0  0  0  0  0  0  0  0  0  # atno 17342 bound_to 10162
  140.7667  143.3310  151.2410 LP  0  0  0  0  0  0  0  0  0  0  0  0  # atno 17343 bound_to 10162
  157.4245  131.0841  151.1099 LP  0  0  0  0  0  0  0  0  0  0  0  0  # atno 17370 bound_to 10713
  157.1691  130.6259  149.5635 LP  0  0  0  0  0  0  0  0  0  0  0  0  # atno 17371 bound_to 10713
  140.9967  133.7176  156.0896 LP  0  0  0  0  0  0  0  0  0  0  0  0  # atno 17394 bound_to 11000
  140.7553  134.3999  157.5535 LP  0  0  0  0  0  0  0  0  0  0  0  0  # atno 17395 bound_to 11000

$$$$
