AV-unprocessed.smi:1492|AV-procd|sdf|6042|dock2
  -GOLD-   22720 6153D 1   1.00000     0.00000
 Structure written by MMmdl.
 53 54  0  0  0  0  0  0  0  0  2 V2000
  151.5573  139.0146  155.5179 C   0  0  0  0  0  0  0  0  0  0  0  0
  152.0586  140.1186  156.4691 C   0  0  0  0  0  0  0  0  0  0  0  0
  151.0124  140.7911  157.4202 C   0  0  1  0  0  0  0  0  0  0  0  0
  149.7211  141.0777  156.6139 C   0  0  0  0  0  0  0  0  0  0  0  0
  150.6634  139.8099  158.5854 C   0  0  0  0  0  0  0  0  0  0  0  0
  149.9576  138.6168  158.1219 N   0  0  0  0  0  0  0  0  0  0  0  0
  150.0697  137.3779  158.6240 C   0  0  0  0  0  0  0  0  0  0  0  0
  150.9041  137.0598  159.4687 O   0  0  0  0  0  0  0  0  0  0  0  0
  149.0652  136.3384  158.1190 C   0  0  0  0  0  0  0  0  0  0  0  0
  148.4068  135.4680  159.1910 C   0  0  0  0  0  0  0  0  0  0  0  0
  148.3197  134.1163  159.1033 C   0  0  0  0  0  0  0  0  0  0  0  0
  148.8699  133.2948  157.9513 C   0  0  0  0  0  0  0  0  0  0  0  0
  147.6938  133.3744  160.0896 N   0  0  0  0  0  0  0  0  0  0  0  0
  147.1410  134.0560  161.1612 C   0  0  0  0  0  0  0  0  0  0  0  0
  146.4615  133.1555  162.1689 C   0  0  0  0  0  0  0  0  0  0  0  0
  147.1633  135.3431  161.3278 N   0  0  0  0  0  0  0  0  0  0  0  0
  147.7955  136.1405  160.3612 C   0  0  0  0  0  0  0  0  0  0  0  0
  147.8214  137.3643  160.4836 O   0  0  0  0  0  0  0  0  0  0  0  0
  151.5867  142.0713  157.9925 N   0  3  0  0  0  0  0  0  0  0  0  0
  150.6181  143.0156  158.6220 C   0  0  0  0  0  0  0  0  0  0  0  0
  151.3085  144.3311  159.0230 C   0  0  0  0  0  0  0  0  0  0  0  0
  152.4038  144.0680  159.8864 O   0  0  0  0  0  0  0  0  0  0  0  0
  153.3822  143.2584  159.2532 C   0  0  0  0  0  0  0  0  0  0  0  0
  152.7643  141.8992  158.8934 C   0  0  0  0  0  0  0  0  0  0  0  0
  147.6624  132.3692  159.9923 H   0  0  0  0  0  0  0  0  0  0  0  0
  152.3742  138.6715  154.8829 H   0  0  0  0  0  0  0  0  0  0  0  0
  150.7707  139.3707  154.8539 H   0  0  0  0  0  0  0  0  0  0  0  0
  151.1854  138.1375  156.0430 H   0  0  0  0  0  0  0  0  0  0  0  0
  152.8849  139.7181  157.0578 H   0  0  0  0  0  0  0  0  0  0  0  0
  152.4936  140.8694  155.8112 H   0  0  0  0  0  0  0  0  0  0  0  0
  149.2781  140.1595  156.2295 H   0  0  0  0  0  0  0  0  0  0  0  0
  149.9098  141.7265  155.7587 H   0  0  0  0  0  0  0  0  0  0  0  0
  148.9475  141.5460  157.2210 H   0  0  0  0  0  0  0  0  0  0  0  0
  151.5741  139.4671  159.0756 H   0  0  0  0  0  0  0  0  0  0  0  0
  150.1158  140.3045  159.3867 H   0  0  0  0  0  0  0  0  0  0  0  0
  149.2645  138.7590  157.4017 H   0  0  0  0  0  0  0  0  0  0  0  0
  148.3036  136.8695  157.5485 H   0  0  0  0  0  0  0  0  0  0  0  0
  149.5597  135.6933  157.3909 H   0  0  0  0  0  0  0  0  0  0  0  0
  148.4461  133.6324  157.0050 H   0  0  0  0  0  0  0  0  0  0  0  0
  148.6357  132.2354  158.0635 H   0  0  0  0  0  0  0  0  0  0  0  0
  149.9545  133.3929  157.8993 H   0  0  0  0  0  0  0  0  0  0  0  0
  146.0087  133.7395  162.9711 H   0  0  0  0  0  0  0  0  0  0  0  0
  147.1832  132.4686  162.6119 H   0  0  0  0  0  0  0  0  0  0  0  0
  145.6756  132.5722  161.6880 H   0  0  0  0  0  0  0  0  0  0  0  0
  149.8162  143.2889  157.9400 H   0  0  0  0  0  0  0  0  0  0  0  0
  150.1611  142.5555  159.4985 H   0  0  0  0  0  0  0  0  0  0  0  0
  151.6491  144.8750  158.1416 H   0  0  0  0  0  0  0  0  0  0  0  0
  150.6022  144.9812  159.5397 H   0  0  0  0  0  0  0  0  0  0  0  0
  153.7749  143.7560  158.3668 H   0  0  0  0  0  0  0  0  0  0  0  0
  154.2197  143.1202  159.9371 H   0  0  0  0  0  0  0  0  0  0  0  0
  152.4675  141.3954  159.8131 H   0  0  0  0  0  0  0  0  0  0  0  0
  153.5412  141.2936  158.4317 H   0  0  0  0  0  0  0  0  0  0  0  0
  151.9398  142.5673  157.1866 H   0  0  0  0  0  0  0  0  0  0  0  0
  1  2  1  0  0  0  0
  1 26  1  0  0  0  0
  1 27  1  0  0  0  0
  1 28  1  0  0  0  0
  2  3  1  0  0  0  0
  2 29  1  0  0  0  0
  2 30  1  0  0  0  0
  3  4  1  0  0  0  0
  3  5  1  0  0  0  0
  3 19  1  0  0  0  0
  4 31  1  0  0  0  0
  4 32  1  0  0  0  0
  4 33  1  0  0  0  0
  5  6  1  0  0  0  0
  5 34  1  0  0  0  0
  5 35  1  0  0  0  0
  6  7  1  0  0  0  0
  6 36  1  0  0  0  0
  7  8  2  0  0  0  0
  7  9  1  0  0  0  0
  9 37  1  0  0  0  0
  9 38  1  0  0  0  0
  9 10  1  0  0  0  0
 10 17  1  0  0  0  0
 10 11  2  0  0  0  0
 11 12  1  0  0  0  0
 11 13  1  0  0  0  0
 12 39  1  0  0  0  0
 12 40  1  0  0  0  0
 12 41  1  0  0  0  0
 13 25  1  0  0  0  0
 13 14  1  0  0  0  0
 14 15  1  0  0  0  0
 14 16  2  0  0  0  0
 15 42  1  0  0  0  0
 15 43  1  0  0  0  0
 15 44  1  0  0  0  0
 16 17  1  0  0  0  0
 17 18  2  0  0  0  0
 19 24  1  0  0  0  0
 19 20  1  0  0  0  0
 19 53  1  0  0  0  0
 20 21  1  0  0  0  0
 20 45  1  0  0  0  0
 20 46  1  0  0  0  0
 21 22  1  0  0  0  0
 21 47  1  0  0  0  0
 21 48  1  0  0  0  0
 22 23  1  0  0  0  0
 23 24  1  0  0  0  0
 23 49  1  0  0  0  0
 23 50  1  0  0  0  0
 24 51  1  0  0  0  0
 24 52  1  0  0  0  0
M  CHG  1  19   1
M  END
> <s_m_source_file>
AV-unprocessed.smi

> <i_m_source_file_index>
1492

> <i_lp_mmshare_version>
43012

> <i_f3d_flags>
0

> <s_epik_input>
W0NIMl0xW0NIMl1PW0NIMl1bQ0gyXU4xW0NAQF0oW0NIM10pKFtDSDJdW0NIM10pW0NIMl1bTkhdQyg9TylbQ0gyXWMyYyhbQ0gzXSluYyhbQ0gzXSlbbkhdYzI9Tw==

> <s_epik_cmdline>
J2VwaWtfcHl0aG9uJywgJy1waCcsICc3LjAnLCAnLXRuJywgJzgnLCAnLW1hJywgJzIwMCcsICctbWV0YWxfYmluZGluZycsICctaW1hZScsICc8aW5maWxlLm1hZT4nLCAnLW9tYWUnLCAnPG91dGZpbGUubWFlPic=

> <r_lp_tautomer_probability>
0.156392

> <r_epik_Ionization_Penalty>
0.523233

> <r_epik_Ionization_Penalty_Charging>
0.523147

> <r_epik_Ionization_Penalty_Neutral>
8.52784e-05

> <r_epik_State_Penalty>
1.66677

> <r_epik_Charging_Adjusted_Penalty>
2.18991

> <i_epik_Tot_Q>
1

> <i_epik_Tot_abs_Q>
1

> <r_epik_Metal_State_Penalty>
1.84524

> <b_epik_Metal_Only>
0

> <s_lp_Force_Field>
OPLS_2005

> <r_lp_Energy>
37.6543

> <b_lp_Chiralities_Consistent>
1

> <s_lp_Variant>
AV-unprocessed.smi:1492-7

> <Gold.Version>
5.8.1

> <Gold.Id.Protein>
6NUR|6NUR_protein|mol2

> <Gold.PLP.Fitness>
42.5625

> <Gold.PLP.PLP>
-36.5208

> <Gold.PLP.part.hbond>
-3.0000

> <Gold.PLP.part.metal>
0.0000

> <Gold.PLP.part.buried>
-5.3665

> <Gold.PLP.part.nonpolar>
-28.3488

> <Gold.PLP.part.repulsive>
0.2629

> <Gold.PLP.ligand.clash>
0.0000

> <Gold.PLP.ligand.torsion>
0.8744

> <Gold.PLP.Chemscore.Hbond>
2.4880

> <Gold.PLP.Chemscore.CHOScore>
0.0000

> <Gold.PLP.Chemscore.Metal>
0.0000

> <Gold.Chemscore.Hbonds>
donor molecule, donor type, donor heavy atom, donor atom, acceptor molecule, acceptor atom, score
      P1  H  6896  6909       L1     8  1.00
      P1  H  6931  6943       L1    18  0.62
      P1  H  6934  6947       L1    18  0.82

> <Gold.PLP.Chemscore.Internal.Correction>
0.3265

> <Gold.Rescore>
     Score         DG    S(hbond)    S(metal)    S(lipo)     H(rot)  DE(clash)    DE(int)     intcor
     16.70     -18.78       2.66        0.00      85.74       2.19       0.03       2.05       ----

> <Gold.Chemscore.Fitness>
16.6956

> <Gold.Chemscore.DG>
-18.7762

> <Gold.Chemscore.ZeroCoef>
-5.4800

> <Gold.Chemscore.Hbond>
2.6579

> <Gold.Chemscore.Metal>
0.0000

> <Gold.Chemscore.Lipo>
85.7408

> <Gold.Chemscore.Internal_Hbond>
0.0000

> <Gold.Chemscore.DEClash>
0.0270

> <Gold.Chemscore.DEInternal>
2.0536

> <Gold.Chemscore.Rot>
2.1926

> <Gold.Chemscore.Internal.Correction>
   9.000000E+99

> <Gold.Chemscore.Hbonds>
donor molecule, donor type, donor heavy atom, donor atom, acceptor molecule, acceptor atom, score
      P1  H  6896  6909       L1     8  0.92
      P1  H  6931  6943       L1    18  0.59
      P1  H  6934  6947       L1    18  0.81

> <Gold.Chemscore.Hbond.Weighted>
-8.8775

> <Gold.Chemscore.Metal.Weighted>
-0.0000

> <Gold.Chemscore.Lipo.Weighted>
-10.0317

> <Gold.Chemscore.Internal_Hbond.Weighted>
0.0000

> <Gold.Chemscore.DEClash.Weighted>
0.0270

> <Gold.Chemscore.DEInternal.Weighted>
2.0536

> <Gold.Chemscore.Rot.Weighted>
5.6129

> <Gold.Chemscore.Internal.Correction.Weighted>
   9.000000E+99

> <Gold.Protein.RotatedTorsions>
[ 6907 6896 6895 6894 ] final   95.02 input  -60.11 | X-H torsion
[ 7974 7965 7964 7962 ] final  -59.58 input  175.53 | X-H torsion
[ 8008 7997 7996 7995 ] final -134.40 input   59.86 | X-H torsion
[ 10167 10162 10161 10158 ] final  120.56 input  -65.29 | X-H torsion
[ 10718 10713 10712 10709 ] final  -79.41 input   66.30 | X-H torsion
[ 10763 10752 10751 10750 ] final  -61.95 input  -60.55 | X-H torsion
[ 11005 11000 10999 10996 ] final  152.70 input  -57.11 | X-H torsion

> <Gold.Protein.ActiveResidues>
 VAL166  LYS551  ARG553  GLY616  TRP617  ASP618  TYR619  PRO620  LYS621  CYS622 
 ASP623  PHE694  ASN695  SER759  ASP760  ASP761  ALA762  ILE779  LEU786  VAL792 
 PHE793  MET794  SER795  GLU796  ALA797  LYS798  CYS799  TRP800  GLU811  SER814 

> <Gold.Protein.RotatedAtoms>
  152.5446  134.1104  159.8355 H   0  0  0  0  0  0  0  0  0  0  0  0  # atno 6907 bound_to 6896
  151.1171  133.5124  159.2611 H   0  0  0  0  0  0  0  0  0  0  0  0  # atno 6908 bound_to 6896
  151.1820  135.0374  159.8851 H   0  0  0  0  0  0  0  0  0  0  0  0  # atno 6909 bound_to 6896
  145.8258  140.8511  143.0109 H   0  0  0  0  0  0  0  0  0  0  0  0  # atno 7974 bound_to 7965
  155.3614  140.0483  157.3046 H   0  0  0  0  0  0  0  0  0  0  0  0  # atno 8008 bound_to 7997
  154.5176  140.2214  155.9000 H   0  0  0  0  0  0  0  0  0  0  0  0  # atno 8009 bound_to 7997
  156.1654  140.3107  155.8885 H   0  0  0  0  0  0  0  0  0  0  0  0  # atno 8010 bound_to 7997
  139.5974  144.7046  151.3142 H   0  0  0  0  0  0  0  0  0  0  0  0  # atno 10167 bound_to 10162
  156.0093  130.4545  150.3644 H   0  0  0  0  0  0  0  0  0  0  0  0  # atno 10718 bound_to 10713
  154.2924  135.6251  153.5391 H   0  0  0  0  0  0  0  0  0  0  0  0  # atno 10763 bound_to 10752
  152.9851  135.5659  154.5375 H   0  0  0  0  0  0  0  0  0  0  0  0  # atno 10764 bound_to 10752
  154.4989  135.2871  155.1413 H   0  0  0  0  0  0  0  0  0  0  0  0  # atno 10765 bound_to 10752
  140.1331  134.8789  157.2230 H   0  0  0  0  0  0  0  0  0  0  0  0  # atno 11005 bound_to 11000
  144.6744  140.0600  143.7476 LP  0  0  0  0  0  0  0  0  0  0  0  0  # atno 17320 bound_to 7965
  145.9625  139.2811  143.1147 LP  0  0  0  0  0  0  0  0  0  0  0  0  # atno 17321 bound_to 7965
  140.7223  143.7101  150.7776 LP  0  0  0  0  0  0  0  0  0  0  0  0  # atno 17342 bound_to 10162
  140.0670  143.5098  152.2599 LP  0  0  0  0  0  0  0  0  0  0  0  0  # atno 17343 bound_to 10162
  157.1731  131.0373  151.2786 LP  0  0  0  0  0  0  0  0  0  0  0  0  # atno 17370 bound_to 10713
  157.4212  130.7438  149.6914 LP  0  0  0  0  0  0  0  0  0  0  0  0  # atno 17371 bound_to 10713
  140.2817  134.3342  155.7341 LP  0  0  0  0  0  0  0  0  0  0  0  0  # atno 17394 bound_to 11000
  141.2173  133.7482  156.9373 LP  0  0  0  0  0  0  0  0  0  0  0  0  # atno 17395 bound_to 11000

$$$$
