AV-unprocessed.smi:2731|AV-procd|sdf|10530|dock8
  -GOLD-   2272014573D 1   1.00000     0.00000
 Structure written by MMmdl.
 45 46  0  0  0  0  0  0  0  0  1 V2000
  151.5399  145.3839  159.9285 C   0  0  0  0  0  0  0  0  0  0  0  0
  151.9405  143.9369  159.9189 C   0  0  0  0  0  0  0  0  0  0  0  0
  152.8223  143.5098  160.8070 N   0  0  0  0  0  0  0  0  0  0  0  0
  152.9820  142.2002  160.5321 N   0  0  0  0  0  0  0  0  0  0  0  0
  153.8917  141.4113  161.3404 C   0  0  0  0  0  0  0  0  0  0  0  0
  152.2022  141.7998  159.4643 C   0  0  0  0  0  0  0  0  0  0  0  0
  152.2108  140.3943  158.9545 C   0  0  0  0  0  0  0  0  0  0  0  0
  151.5044  142.9002  159.0419 C   0  0  0  0  0  0  0  0  0  0  0  0
  150.5192  143.0117  157.9020 C   0  0  0  0  0  0  0  0  0  0  0  0
  150.7273  141.9438  156.8098 C   0  0  0  0  0  0  0  0  0  0  0  0
  149.7284  142.0418  155.7477 N   0  0  0  0  0  0  0  0  0  0  0  0
  149.5452  141.1394  154.7711 C   0  0  0  0  0  0  0  0  0  0  0  0
  150.2648  140.1506  154.6225 O   0  0  0  0  0  0  0  0  0  0  0  0
  148.3601  141.3960  153.8314 C   0  0  0  0  0  0  0  0  0  0  0  0
  147.0747  141.4010  154.5420 N   0  0  0  0  0  0  0  0  0  0  0  0
  146.1847  142.5445  154.3053 C   0  0  0  0  0  0  0  0  0  0  0  0
  145.6821  143.1249  155.6377 C   0  0  0  0  0  0  0  0  0  0  0  0
  145.0569  142.0483  156.5477 C   0  0  0  0  0  0  0  0  0  0  0  0
  145.3682  140.5950  156.1238 C   0  0  0  0  0  0  0  0  0  0  0  0
  146.7319  140.4455  155.4366 C   0  0  0  0  0  0  0  0  0  0  0  0
  147.4428  139.4777  155.7068 O   0  0  0  0  0  0  0  0  0  0  0  0
  152.2966  145.9988  159.4410 H   0  0  0  0  0  0  0  0  0  0  0  0
  151.4128  145.7540  160.9463 H   0  0  0  0  0  0  0  0  0  0  0  0
  150.5981  145.5394  159.4027 H   0  0  0  0  0  0  0  0  0  0  0  0
  154.6168  140.9100  160.6991 H   0  0  0  0  0  0  0  0  0  0  0  0
  153.3287  140.6612  161.8965 H   0  0  0  0  0  0  0  0  0  0  0  0
  154.4295  142.0462  162.0466 H   0  0  0  0  0  0  0  0  0  0  0  0
  151.7752  140.3323  157.9576 H   0  0  0  0  0  0  0  0  0  0  0  0
  151.6393  139.7417  159.6144 H   0  0  0  0  0  0  0  0  0  0  0  0
  153.2271  140.0057  158.8897 H   0  0  0  0  0  0  0  0  0  0  0  0
  149.4967  142.9361  158.2715 H   0  0  0  0  0  0  0  0  0  0  0  0
  150.5795  143.9984  157.4423 H   0  0  0  0  0  0  0  0  0  0  0  0
  151.7166  142.0594  156.3666 H   0  0  0  0  0  0  0  0  0  0  0  0
  150.7143  140.9491  157.2582 H   0  0  0  0  0  0  0  0  0  0  0  0
  149.0976  142.8290  155.7884 H   0  0  0  0  0  0  0  0  0  0  0  0
  148.4944  142.3573  153.3327 H   0  0  0  0  0  0  0  0  0  0  0  0
  148.3720  140.6477  153.0374 H   0  0  0  0  0  0  0  0  0  0  0  0
  146.6960  143.3241  153.7398 H   0  0  0  0  0  0  0  0  0  0  0  0
  145.3432  142.2179  153.6927 H   0  0  0  0  0  0  0  0  0  0  0  0
  146.5285  143.5780  156.1561 H   0  0  0  0  0  0  0  0  0  0  0  0
  144.9709  143.9318  155.4602 H   0  0  0  0  0  0  0  0  0  0  0  0
  145.3875  142.2115  157.5742 H   0  0  0  0  0  0  0  0  0  0  0  0
  143.9742  142.1776  156.5635 H   0  0  0  0  0  0  0  0  0  0  0  0
  145.3033  139.9287  156.9848 H   0  0  0  0  0  0  0  0  0  0  0  0
  144.6128  140.2552  155.4145 H   0  0  0  0  0  0  0  0  0  0  0  0
  1  2  1  0  0  0  0
  1 22  1  0  0  0  0
  1 23  1  0  0  0  0
  1 24  1  0  0  0  0
  2  8  1  0  0  0  0
  2  3  2  0  0  0  0
  3  4  1  0  0  0  0
  4  5  1  0  0  0  0
  4  6  1  0  0  0  0
  5 25  1  0  0  0  0
  5 26  1  0  0  0  0
  5 27  1  0  0  0  0
  6  7  1  0  0  0  0
  6  8  2  0  0  0  0
  7 28  1  0  0  0  0
  7 29  1  0  0  0  0
  7 30  1  0  0  0  0
  8  9  1  0  0  0  0
  9 10  1  0  0  0  0
  9 31  1  0  0  0  0
  9 32  1  0  0  0  0
 10 11  1  0  0  0  0
 10 33  1  0  0  0  0
 10 34  1  0  0  0  0
 11 12  1  0  0  0  0
 11 35  1  0  0  0  0
 12 13  2  0  0  0  0
 12 14  1  0  0  0  0
 14 15  1  0  0  0  0
 14 36  1  0  0  0  0
 14 37  1  0  0  0  0
 15 20  1  0  0  0  0
 15 16  1  0  0  0  0
 16 17  1  0  0  0  0
 16 38  1  0  0  0  0
 16 39  1  0  0  0  0
 17 18  1  0  0  0  0
 17 40  1  0  0  0  0
 17 41  1  0  0  0  0
 18 19  1  0  0  0  0
 18 42  1  0  0  0  0
 18 43  1  0  0  0  0
 19 20  1  0  0  0  0
 19 44  1  0  0  0  0
 19 45  1  0  0  0  0
 20 21  2  0  0  0  0
M  END
> <s_m_source_file>
AV-unprocessed.smi

> <i_m_source_file_index>
2731

> <i_lp_mmshare_version>
43012

> <i_f3d_flags>
0

> <s_epik_input>
W0NIM11jMW5uKFtDSDNdKWMoW0NIM10pYzFbQ0gyXVtDSDJdW05IXUMoPU8pW0NIMl1OMltDSDJdW0NIMl1bQ0gyXVtDSDJdQzI9Tw==

> <s_epik_cmdline>
J2VwaWtfcHl0aG9uJywgJy1waCcsICc3LjAnLCAnLXRuJywgJzgnLCAnLW1hJywgJzIwMCcsICctbWV0YWxfYmluZGluZycsICctaW1hZScsICc8aW5maWxlLm1hZT4nLCAnLW9tYWUnLCAnPG91dGZpbGUubWFlPic=

> <r_lp_tautomer_probability>
1

> <r_epik_Ionization_Penalty>
0.0111965

> <r_epik_Ionization_Penalty_Charging>
0

> <r_epik_Ionization_Penalty_Neutral>
0.0111965

> <r_epik_State_Penalty>
0.00860379

> <r_epik_Charging_Adjusted_Penalty>
0.00860379

> <i_epik_Tot_Q>
0

> <i_epik_Tot_abs_Q>
0

> <r_epik_Metal_State_Penalty>
0.00844338

> <b_epik_Metal_Only>
0

> <s_lp_Force_Field>
OPLS_2005

> <r_lp_Energy>
7.02137

> <b_lp_Chiralities_Consistent>
1

> <s_lp_Variant>
AV-unprocessed.smi:2731-1

> <Gold.Version>
5.8.1

> <Gold.Id.Protein>
6NUR|6NUR_protein|mol2

> <Gold.PLP.Fitness>
49.2772

> <Gold.PLP.PLP>
-44.2995

> <Gold.PLP.part.hbond>
-2.0000

> <Gold.PLP.part.metal>
0.0000

> <Gold.PLP.part.buried>
-3.7362

> <Gold.PLP.part.nonpolar>
-38.5839

> <Gold.PLP.part.repulsive>
0.2783

> <Gold.PLP.ligand.clash>
0.0000

> <Gold.PLP.ligand.torsion>
0.5152

> <Gold.PLP.Chemscore.Hbond>
1.9920

> <Gold.PLP.Chemscore.CHOScore>
0.0000

> <Gold.PLP.Chemscore.Metal>
0.0000

> <Gold.Chemscore.Hbonds>
donor molecule, donor type, donor heavy atom, donor atom, acceptor molecule, acceptor atom, score
      L1  H    11    35       P1  8028  0.94
      P1  H  7989  7998       L1    13  1.00

> <Gold.PLP.Chemscore.Internal.Correction>
0.0323

> <Gold.Rescore>
     Score         DG    S(hbond)    S(metal)    S(lipo)     H(rot)  DE(clash)    DE(int)     intcor
     15.49     -17.34       1.60        0.00      94.61       1.78       0.18       1.66       ----

> <Gold.Chemscore.Fitness>
15.4904

> <Gold.Chemscore.DG>
-17.3356

> <Gold.Chemscore.ZeroCoef>
-5.4800

> <Gold.Chemscore.Hbond>
1.5972

> <Gold.Chemscore.Metal>
0.0000

> <Gold.Chemscore.Lipo>
94.6090

> <Gold.Chemscore.Internal_Hbond>
0.0000

> <Gold.Chemscore.DEClash>
0.1804

> <Gold.Chemscore.DEInternal>
1.6648

> <Gold.Chemscore.Rot>
1.7767

> <Gold.Chemscore.Internal.Correction>
   9.000000E+99

> <Gold.Chemscore.Hbonds>
donor molecule, donor type, donor heavy atom, donor atom, acceptor molecule, acceptor atom, score
      L1  H    11    35       P1  8028  0.92
      P1  H  7989  7998       L1    13  0.25

> <Gold.Chemscore.Hbond.Weighted>
-5.3347

> <Gold.Chemscore.Metal.Weighted>
-0.0000

> <Gold.Chemscore.Lipo.Weighted>
-11.0692

> <Gold.Chemscore.Internal_Hbond.Weighted>
0.0000

> <Gold.Chemscore.DEClash.Weighted>
0.1804

> <Gold.Chemscore.DEInternal.Weighted>
1.6648

> <Gold.Chemscore.Rot.Weighted>
4.5483

> <Gold.Chemscore.Internal.Correction.Weighted>
   9.000000E+99

> <Gold.Protein.RotatedTorsions>
[ 6907 6896 6895 6894 ] final   88.43 input  -60.11 | X-H torsion
[ 7974 7965 7964 7962 ] final -117.48 input  175.53 | X-H torsion
[ 8008 7997 7996 7995 ] final -100.87 input   59.86 | X-H torsion
[ 10167 10162 10161 10158 ] final   16.47 input  -65.29 | X-H torsion
[ 10718 10713 10712 10709 ] final -150.00 input   66.30 | X-H torsion
[ 10763 10752 10751 10750 ] final  -64.75 input  -60.55 | X-H torsion
[ 11005 11000 10999 10996 ] final    3.11 input  -57.11 | X-H torsion

> <Gold.Protein.ActiveResidues>
 VAL166  LYS551  ARG553  GLY616  TRP617  ASP618  TYR619  PRO620  LYS621  CYS622 
 ASP623  PHE694  ASN695  SER759  ASP760  ASP761  ALA762  ILE779  LEU786  VAL792 
 PHE793  MET794  SER795  GLU796  ALA797  LYS798  CYS799  TRP800  GLU811  SER814 

> <Gold.Protein.RotatedAtoms>
  152.5425  134.2123  159.8754 H   0  0  0  0  0  0  0  0  0  0  0  0  # atno 6907 bound_to 6896
  151.2105  133.4552  159.2605 H   0  0  0  0  0  0  0  0  0  0  0  0  # atno 6908 bound_to 6896
  151.0902  134.9924  159.8454 H   0  0  0  0  0  0  0  0  0  0  0  0  # atno 6909 bound_to 6896
  145.0847  140.8449  143.4018 H   0  0  0  0  0  0  0  0  0  0  0  0  # atno 7974 bound_to 7965
  154.8347  140.0438  157.1501 H   0  0  0  0  0  0  0  0  0  0  0  0  # atno 8008 bound_to 7997
  154.9113  140.3014  155.5244 H   0  0  0  0  0  0  0  0  0  0  0  0  # atno 8009 bound_to 7997
  156.2989  140.2357  156.4153 H   0  0  0  0  0  0  0  0  0  0  0  0  # atno 8010 bound_to 7997
  140.5795  143.9008  150.6778 H   0  0  0  0  0  0  0  0  0  0  0  0  # atno 10167 bound_to 10162
  156.4405  130.8119  151.2349 H   0  0  0  0  0  0  0  0  0  0  0  0  # atno 10718 bound_to 10713
  154.3348  135.6169  153.5568 H   0  0  0  0  0  0  0  0  0  0  0  0  # atno 10763 bound_to 10752
  152.9808  135.5755  154.4920 H   0  0  0  0  0  0  0  0  0  0  0  0  # atno 10764 bound_to 10752
  154.4613  135.2856  155.1687 H   0  0  0  0  0  0  0  0  0  0  0  0  # atno 10765 bound_to 10752
  140.5968  133.9873  155.8113 H   0  0  0  0  0  0  0  0  0  0  0  0  # atno 11005 bound_to 11000
  145.1136  139.2740  143.5624 LP  0  0  0  0  0  0  0  0  0  0  0  0  # atno 17320 bound_to 7965
  146.3531  140.0740  142.8621 LP  0  0  0  0  0  0  0  0  0  0  0  0  # atno 17321 bound_to 7965
  140.2504  143.3598  152.1411 LP  0  0  0  0  0  0  0  0  0  0  0  0  # atno 17342 bound_to 10162
  139.5162  144.6973  151.5593 LP  0  0  0  0  0  0  0  0  0  0  0  0  # atno 17343 bound_to 10162
  157.7506  131.0170  150.3566 LP  0  0  0  0  0  0  0  0  0  0  0  0  # atno 17370 bound_to 10713
  156.3923  130.3900  149.7021 LP  0  0  0  0  0  0  0  0  0  0  0  0  # atno 17371 bound_to 10713
  141.0899  133.9933  157.3254 LP  0  0  0  0  0  0  0  0  0  0  0  0  # atno 17394 bound_to 11000
  139.9250  135.0201  156.8201 LP  0  0  0  0  0  0  0  0  0  0  0  0  # atno 17395 bound_to 11000

$$$$
