AV-unprocessed.smi:2351|AV-procd|sdf|9376|dock2
  -GOLD-   2272013 03D 1   1.00000     0.00000
 Structure written by MMmdl.
 47 49  0  0  0  0  0  0  0  0  2 V2000
  150.5608  141.7138  155.5744 O   0  0  0  0  0  0  0  0  0  0  0  0
  151.0244  140.8571  156.3261 C   0  0  0  0  0  0  0  0  0  0  0  0
  151.3364  141.0385  157.6208 N   0  0  0  0  0  0  0  0  0  0  0  0
  151.2389  142.2194  158.4078 C   0  0  0  0  0  0  0  0  0  0  0  0
  150.2976  143.2536  158.1843 C   0  0  0  0  0  0  0  0  0  0  0  0
  150.3002  144.3667  159.0489 C   0  0  0  0  0  0  0  0  0  0  0  0
  151.1505  144.4999  160.0888 N   0  0  0  0  0  0  0  0  0  0  0  0
  152.0376  143.5063  160.3066 C   0  0  0  0  0  0  0  0  0  0  0  0
  152.1187  142.3513  159.5031 C   0  0  0  0  0  0  0  0  0  0  0  0
  153.0314  141.3885  159.7796 F   0  0  0  0  0  0  0  0  0  0  0  0
  151.3031  139.6056  155.9324 N   0  0  0  0  0  0  0  0  0  0  0  0
  151.0946  139.0755  154.5847 C   0  0  2  0  0  0  0  0  0  0  0  0
  149.6061  139.1452  154.2032 C   0  0  0  0  0  0  0  0  0  0  0  0
  148.7608  138.1197  154.9814 C   0  0  0  0  0  0  0  0  0  0  0  0
  149.2832  136.7397  154.8055 N   0  3  2  0  0  0  0  0  0  0  0  0
  148.4022  135.7238  155.4368 C   0  0  0  0  0  0  0  0  0  0  0  0
  148.9457  134.2883  155.2940 C   0  0  2  0  0  0  0  0  0  0  0  0
  148.7704  133.6836  153.9143 C   0  0  0  0  0  0  0  0  0  0  0  0
  148.9073  132.1907  154.1994 C   0  0  0  0  0  0  0  0  0  0  0  0
  148.4406  132.0031  155.5327 O   0  0  0  0  0  0  0  0  0  0  0  0
  148.2013  133.2637  156.1496 C   0  0  0  0  0  0  0  0  0  0  0  0
  150.7043  136.6352  155.2309 C   0  0  0  0  0  0  0  0  0  0  0  0
  151.5910  137.6218  154.4514 C   0  0  0  0  0  0  0  0  0  0  0  0
  151.7621  140.2516  158.0881 H   0  0  0  0  0  0  0  0  0  0  0  0
  149.5734  143.2152  157.3858 H   0  0  0  0  0  0  0  0  0  0  0  0
  149.5946  145.1712  158.9030 H   0  0  0  0  0  0  0  0  0  0  0  0
  152.7031  143.6346  161.1477 H   0  0  0  0  0  0  0  0  0  0  0  0
  151.6782  138.9680  156.6195 H   0  0  0  0  0  0  0  0  0  0  0  0
  151.6533  139.7050  153.8896 H   0  0  0  0  0  0  0  0  0  0  0  0
  149.2190  140.1519  154.3662 H   0  0  0  0  0  0  0  0  0  0  0  0
  149.5023  138.9518  153.1346 H   0  0  0  0  0  0  0  0  0  0  0  0
  148.7411  138.3699  156.0432 H   0  0  0  0  0  0  0  0  0  0  0  0
  147.7305  138.1705  154.6271 H   0  0  0  0  0  0  0  0  0  0  0  0
  148.2531  135.9721  156.4887 H   0  0  0  0  0  0  0  0  0  0  0  0
  147.4156  135.7637  154.9724 H   0  0  0  0  0  0  0  0  0  0  0  0
  150.0002  134.2458  155.5678 H   0  0  0  0  0  0  0  0  0  0  0  0
  147.7740  133.8993  153.5260 H   0  0  0  0  0  0  0  0  0  0  0  0
  149.5032  134.0437  153.1915 H   0  0  0  0  0  0  0  0  0  0  0  0
  148.3469  131.5801  153.4911 H   0  0  0  0  0  0  0  0  0  0  0  0
  149.9541  131.8880  154.1538 H   0  0  0  0  0  0  0  0  0  0  0  0
  148.5308  133.2674  157.1890 H   0  0  0  0  0  0  0  0  0  0  0  0
  147.1266  133.4523  156.1359 H   0  0  0  0  0  0  0  0  0  0  0  0
  150.7818  136.8224  156.3028 H   0  0  0  0  0  0  0  0  0  0  0  0
  151.0788  135.6266  155.0618 H   0  0  0  0  0  0  0  0  0  0  0  0
  151.5906  137.3412  153.3972 H   0  0  0  0  0  0  0  0  0  0  0  0
  152.6265  137.5337  154.7814 H   0  0  0  0  0  0  0  0  0  0  0  0
  149.2601  136.5567  153.8124 H   0  0  0  0  0  0  0  0  0  0  0  0
  1  2  2  0  0  0  0
  2  3  1  0  0  0  0
  2 11  1  0  0  0  0
  3  4  1  0  0  0  0
  3 24  1  0  0  0  0
  4  9  1  0  0  0  0
  4  5  2  0  0  0  0
  5  6  1  0  0  0  0
  5 25  1  0  0  0  0
  6  7  2  0  0  0  0
  6 26  1  0  0  0  0
  7  8  1  0  0  0  0
  8  9  2  0  0  0  0
  8 27  1  0  0  0  0
  9 10  1  0  0  0  0
 11 12  1  0  0  0  0
 11 28  1  0  0  0  0
 12 23  1  0  0  0  0
 12 13  1  0  0  0  0
 12 29  1  0  0  0  0
 13 14  1  0  0  0  0
 13 30  1  0  0  0  0
 13 31  1  0  0  0  0
 14 15  1  0  0  0  0
 14 32  1  0  0  0  0
 14 33  1  0  0  0  0
 15 16  1  0  0  0  0
 15 22  1  0  0  0  0
 15 47  1  0  0  0  0
 16 17  1  0  0  0  0
 16 34  1  0  0  0  0
 16 35  1  0  0  0  0
 17 21  1  0  0  0  0
 17 18  1  0  0  0  0
 17 36  1  0  0  0  0
 18 19  1  0  0  0  0
 18 37  1  0  0  0  0
 18 38  1  0  0  0  0
 19 20  1  0  0  0  0
 19 39  1  0  0  0  0
 19 40  1  0  0  0  0
 20 21  1  0  0  0  0
 21 41  1  0  0  0  0
 21 42  1  0  0  0  0
 22 23  1  0  0  0  0
 22 43  1  0  0  0  0
 22 44  1  0  0  0  0
 23 45  1  0  0  0  0
 23 46  1  0  0  0  0
M  CHG  1  15   1
M  END
> <s_m_source_file>
AV-unprocessed.smi

> <i_m_source_file_index>
2351

> <i_lp_mmshare_version>
43012

> <i_f3d_flags>
0

> <s_epik_input>
RmMxW2NIXW5bY0hdW2NIXWMxW05IXUMoPU8pW05IXVtDSF0yW0NIMl1bQ0gyXU4oW0NIMl1bQ0gyXTIpW0NIMl1bQ0BASF0zW0NIMl1bQ0gyXU9bQ0gyXTM=

> <s_epik_cmdline>
J2VwaWtfcHl0aG9uJywgJy1waCcsICc3LjAnLCAnLXRuJywgJzgnLCAnLW1hJywgJzIwMCcsICctbWV0YWxfYmluZGluZycsICctaW1hZScsICc8aW5maWxlLm1hZT4nLCAnLW9tYWUnLCAnPG91dGZpbGUubWFlPic=

> <r_epik_Ionization_Penalty>
0.0102464

> <r_epik_Ionization_Penalty_Charging>
0.00747775

> <r_epik_Ionization_Penalty_Neutral>
0.00276864

> <r_epik_State_Penalty>
0.00558817

> <r_epik_Charging_Adjusted_Penalty>
0.0130659

> <i_epik_Tot_Q>
1

> <i_epik_Tot_abs_Q>
1

> <r_epik_Metal_State_Penalty>
-0

> <b_epik_Metal_Only>
0

> <s_lp_Force_Field>
OPLS_2005

> <r_lp_Energy>
39.3269

> <b_lp_Chiralities_Consistent>
1

> <s_lp_Variant>
AV-unprocessed.smi:2351-3

> <Gold.Version>
5.8.1

> <Gold.Id.Protein>
6NUR|6NUR_protein|mol2

> <Gold.PLP.Fitness>
47.1991

> <Gold.PLP.PLP>
-38.7345

> <Gold.PLP.part.hbond>
-1.5475

> <Gold.PLP.part.metal>
0.0000

> <Gold.PLP.part.buried>
-3.0665

> <Gold.PLP.part.nonpolar>
-34.4639

> <Gold.PLP.part.repulsive>
0.4277

> <Gold.PLP.ligand.clash>
0.0000

> <Gold.PLP.ligand.torsion>
0.2784

> <Gold.PLP.Chemscore.Hbond>
2.0000

> <Gold.PLP.Chemscore.CHOScore>
0.9984

> <Gold.PLP.Chemscore.Metal>
0.0000

> <Gold.Chemscore.Hbonds>
donor molecule, donor type, donor heavy atom, donor atom, acceptor molecule, acceptor atom, score
      L1  H    15    47       P1  7948  2.00
      L1  C     6    26       P1  8029  1.00

> <Gold.PLP.Chemscore.Internal.Correction>
0.0264

> <Gold.Rescore>
     Score         DG    S(hbond)    S(metal)    S(lipo)     H(rot)  DE(clash)    DE(int)     intcor
     15.67     -17.10       0.99        0.00     102.83       1.45       0.13       1.30       ----

> <Gold.Chemscore.Fitness>
15.6656

> <Gold.Chemscore.DG>
-17.0952

> <Gold.Chemscore.ZeroCoef>
-5.4800

> <Gold.Chemscore.Hbond>
0.9855

> <Gold.Chemscore.Metal>
0.0000

> <Gold.Chemscore.Lipo>
102.8326

> <Gold.Chemscore.Internal_Hbond>
0.0000

> <Gold.Chemscore.DEClash>
0.1298

> <Gold.Chemscore.DEInternal>
1.2998

> <Gold.Chemscore.Rot>
1.4483

> <Gold.Chemscore.Internal.Correction>
   9.000000E+99

> <Gold.Chemscore.Hbonds>
donor molecule, donor type, donor heavy atom, donor atom, acceptor molecule, acceptor atom, score
      L1  H    15    47       P1  7948  0.94

> <Gold.Chemscore.Hbond.Weighted>
-3.2915

> <Gold.Chemscore.Metal.Weighted>
-0.0000

> <Gold.Chemscore.Lipo.Weighted>
-12.0314

> <Gold.Chemscore.Internal_Hbond.Weighted>
0.0000

> <Gold.Chemscore.DEClash.Weighted>
0.1298

> <Gold.Chemscore.DEInternal.Weighted>
1.2998

> <Gold.Chemscore.Rot.Weighted>
3.7077

> <Gold.Chemscore.Internal.Correction.Weighted>
   9.000000E+99

> <Gold.Protein.RotatedTorsions>
[ 6907 6896 6895 6894 ] final  127.26 input  -60.11 | X-H torsion
[ 7974 7965 7964 7962 ] final  -85.76 input  175.53 | X-H torsion
[ 8008 7997 7996 7995 ] final  119.47 input   59.86 | X-H torsion
[ 10167 10162 10161 10158 ] final   40.90 input  -65.29 | X-H torsion
[ 10718 10713 10712 10709 ] final  -83.27 input   66.30 | X-H torsion
[ 10763 10752 10751 10750 ] final  -74.53 input  -60.55 | X-H torsion
[ 11005 11000 10999 10996 ] final -127.29 input  -57.11 | X-H torsion

> <Gold.Protein.ActiveResidues>
 VAL166  LYS551  ARG553  GLY616  TRP617  ASP618  TYR619  PRO620  LYS621  CYS622 
 ASP623  PHE694  ASN695  SER759  ASP760  ASP761  ALA762  ILE779  LEU786  VAL792 
 PHE793  MET794  SER795  GLU796  ALA797  LYS798  CYS799  TRP800  GLU811  SER814 

> <Gold.Protein.RotatedAtoms>
  152.3829  133.6570  159.6175 H   0  0  0  0  0  0  0  0  0  0  0  0  # atno 6907 bound_to 6896
  150.7755  133.9084  159.3371 H   0  0  0  0  0  0  0  0  0  0  0  0  # atno 6908 bound_to 6896
  151.6886  135.0951  160.0281 H   0  0  0  0  0  0  0  0  0  0  0  0  # atno 6909 bound_to 6896
  145.4890  140.9553  143.1823 H   0  0  0  0  0  0  0  0  0  0  0  0  # atno 7974 bound_to 7965
  156.2597  140.2852  156.0997 H   0  0  0  0  0  0  0  0  0  0  0  0  # atno 8008 bound_to 7997
  155.1373  140.0395  157.2807 H   0  0  0  0  0  0  0  0  0  0  0  0  # atno 8009 bound_to 7997
  154.6555  140.2554  155.7172 H   0  0  0  0  0  0  0  0  0  0  0  0  # atno 8010 bound_to 7997
  140.3696  144.2122  150.6134 H   0  0  0  0  0  0  0  0  0  0  0  0  # atno 10167 bound_to 10162
  156.0021  130.4660  150.4232 H   0  0  0  0  0  0  0  0  0  0  0  0  # atno 10718 bound_to 10713
  154.4744  135.5861  153.6344 H   0  0  0  0  0  0  0  0  0  0  0  0  # atno 10763 bound_to 10752
  152.9839  135.6074  154.3326 H   0  0  0  0  0  0  0  0  0  0  0  0  # atno 10764 bound_to 10752
  154.3211  135.2843  155.2498 H   0  0  0  0  0  0  0  0  0  0  0  0  # atno 10765 bound_to 10752
  140.9611  134.0934  157.3967 H   0  0  0  0  0  0  0  0  0  0  0  0  # atno 11005 bound_to 11000
  144.7845  139.6456  143.7140 LP  0  0  0  0  0  0  0  0  0  0  0  0  # atno 17320 bound_to 7965
  146.2296  139.5788  142.9564 LP  0  0  0  0  0  0  0  0  0  0  0  0  # atno 17321 bound_to 7965
  140.5047  143.2308  151.8626 LP  0  0  0  0  0  0  0  0  0  0  0  0  # atno 17342 bound_to 10162
  139.4805  144.5020  151.9048 LP  0  0  0  0  0  0  0  0  0  0  0  0  # atno 17343 bound_to 10162
  157.2286  131.0499  151.2505 LP  0  0  0  0  0  0  0  0  0  0  0  0  # atno 17370 bound_to 10713
  157.3732  130.7192  149.6579 LP  0  0  0  0  0  0  0  0  0  0  0  0  # atno 17371 bound_to 10713
  139.8878  135.0093  156.6585 LP  0  0  0  0  0  0  0  0  0  0  0  0  # atno 17394 bound_to 11000
  140.7466  133.8933  155.8316 LP  0  0  0  0  0  0  0  0  0  0  0  0  # atno 17395 bound_to 11000

$$$$
