AV-unprocessed.smi:261|AV-procd|sdf|1984|dock10
  -GOLD-   2262021163D 1   1.00000     0.00000
 Structure written by MMmdl.
 51 54  0  0  0  0  0  0  0  0  1 V2000
  152.3194  144.3238  159.3366 C   0  0  0  0  0  0  0  0  0  0  0  0
  151.0133  143.7717  159.3587 O   0  0  0  0  0  0  0  0  0  0  0  0
  150.8925  142.5721  158.6082 C   0  0  2  0  0  0  0  0  0  0  0  0
  151.4216  142.6939  157.1759 C   0  0  0  0  0  0  0  0  0  0  0  0
  150.6535  141.6167  156.3913 C   0  0  1  0  0  0  0  0  0  0  0  0
  151.4070  140.2748  156.3731 C   0  0  0  0  0  0  0  0  0  0  0  0
  150.7878  139.2319  156.9308 N   0  0  0  0  0  0  0  0  0  0  0  0
  152.5184  140.1731  155.8560 O   0  0  0  0  0  0  0  0  0  0  0  0
  149.3804  141.5198  157.1100 N   0  0  0  0  0  0  0  0  0  0  0  0
  148.2330  141.0474  156.5489 C   0  0  0  0  0  0  0  0  0  0  0  0
  147.0492  141.3611  157.1401 N   0  0  0  0  0  0  0  0  0  0  0  0
  145.8936  140.9295  156.6296 C   0  0  0  0  0  0  0  0  0  0  0  0
  145.6903  140.1790  155.5474 N   0  0  0  0  0  0  0  0  0  0  0  0
  146.8693  139.8564  154.9441 C   0  0  0  0  0  0  0  0  0  0  0  0
  148.1738  140.2419  155.3711 C   0  0  0  0  0  0  0  0  0  0  0  0
  149.1185  139.7171  154.4944 N   0  0  0  0  0  0  0  0  0  0  0  0
  148.4173  139.0727  153.6034 C   0  0  0  0  0  0  0  0  0  0  0  0
  147.0561  139.1101  153.7937 N   0  0  0  0  0  0  0  0  0  0  0  0
  146.0406  138.4923  152.9566 C   0  0  0  0  0  0  0  0  0  0  0  0
  146.6024  137.5055  151.9084 C   0  0  2  0  0  0  0  0  0  0  0  0
  146.5721  138.0753  150.6138 O   0  0  0  0  0  0  0  0  0  0  0  0
  145.9459  136.1053  151.9023 C   0  0  2  0  0  0  0  0  0  0  0  0
  145.9893  135.3515  150.5750 C   0  0  0  0  0  0  0  0  0  0  0  0
  144.9452  134.2743  150.7960 C   0  0  0  0  0  0  0  0  0  0  0  0
  143.9623  134.9162  151.7818 C   0  0  0  0  0  0  0  0  0  0  0  0
  144.5610  136.1338  152.2142 O   0  0  0  0  0  0  0  0  0  0  0  0
  149.4219  142.2148  158.3895 C   0  0  0  0  0  0  0  0  0  0  0  0
  151.3863  141.7437  159.1202 H   0  0  0  0  0  0  0  0  0  0  0  0
  150.4973  141.9626  155.3679 H   0  0  0  0  0  0  0  0  0  0  0  0
  152.3467  145.2184  159.9588 H   0  0  0  0  0  0  0  0  0  0  0  0
  152.6163  144.6116  158.3279 H   0  0  0  0  0  0  0  0  0  0  0  0
  153.0528  143.6192  159.7303 H   0  0  0  0  0  0  0  0  0  0  0  0
  151.1721  143.6776  156.7752 H   0  0  0  0  0  0  0  0  0  0  0  0
  152.5054  142.5841  157.1169 H   0  0  0  0  0  0  0  0  0  0  0  0
  151.2336  138.3263  156.9391 H   0  0  0  0  0  0  0  0  0  0  0  0
  149.8707  139.3528  157.3355 H   0  0  0  0  0  0  0  0  0  0  0  0
  145.0051  141.2302  157.1646 H   0  0  0  0  0  0  0  0  0  0  0  0
  148.8768  138.5550  152.7743 H   0  0  0  0  0  0  0  0  0  0  0  0
  145.3267  137.9841  153.6059 H   0  0  0  0  0  0  0  0  0  0  0  0
  145.4814  139.2820  152.4536 H   0  0  0  0  0  0  0  0  0  0  0  0
  147.6580  137.3627  152.1420 H   0  0  0  0  0  0  0  0  0  0  0  0
  145.6702  138.1945  150.3595 H   0  0  0  0  0  0  0  0  0  0  0  0
  146.4337  135.4926  152.6630 H   0  0  0  0  0  0  0  0  0  0  0  0
  145.6831  135.9936  149.7486 H   0  0  0  0  0  0  0  0  0  0  0  0
  146.9760  134.9477  150.3469 H   0  0  0  0  0  0  0  0  0  0  0  0
  144.4666  133.9610  149.8678 H   0  0  0  0  0  0  0  0  0  0  0  0
  145.4054  133.3960  151.2504 H   0  0  0  0  0  0  0  0  0  0  0  0
  143.0014  135.1313  151.3139 H   0  0  0  0  0  0  0  0  0  0  0  0
  143.7840  134.2635  152.6372 H   0  0  0  0  0  0  0  0  0  0  0  0
  149.0486  141.5948  159.2051 H   0  0  0  0  0  0  0  0  0  0  0  0
  148.8097  143.1158  158.3252 H   0  0  0  0  0  0  0  0  0  0  0  0
  1  2  1  0  0  0  0
  1 30  1  0  0  0  0
  1 31  1  0  0  0  0
  1 32  1  0  0  0  0
  2  3  1  0  0  0  0
  3 28  1  0  0  0  0
  3 27  1  0  0  0  0
  3  4  1  0  0  0  0
  4  5  1  0  0  0  0
  4 33  1  0  0  0  0
  4 34  1  0  0  0  0
  5 29  1  0  0  0  0
  5  6  1  0  0  0  0
  5  9  1  0  0  0  0
  6  7  1  0  0  0  0
  6  8  2  0  0  0  0
  7 35  1  0  0  0  0
  7 36  1  0  0  0  0
  9 10  1  0  0  0  0
  9 27  1  0  0  0  0
 10 15  1  0  0  0  0
 10 11  2  0  0  0  0
 11 12  1  0  0  0  0
 12 13  2  0  0  0  0
 12 37  1  0  0  0  0
 13 14  1  0  0  0  0
 14 18  1  0  0  0  0
 14 15  2  0  0  0  0
 15 16  1  0  0  0  0
 16 17  2  0  0  0  0
 17 18  1  0  0  0  0
 17 38  1  0  0  0  0
 18 19  1  0  0  0  0
 19 20  1  0  0  0  0
 19 39  1  0  0  0  0
 19 40  1  0  0  0  0
 20 21  1  0  0  0  0
 20 22  1  0  0  0  0
 20 41  1  0  0  0  0
 21 42  1  0  0  0  0
 22 26  1  0  0  0  0
 22 23  1  0  0  0  0
 22 43  1  0  0  0  0
 23 24  1  0  0  0  0
 23 44  1  0  0  0  0
 23 45  1  0  0  0  0
 24 25  1  0  0  0  0
 24 46  1  0  0  0  0
 24 47  1  0  0  0  0
 25 26  1  0  0  0  0
 25 48  1  0  0  0  0
 25 49  1  0  0  0  0
 27 50  1  0  0  0  0
 27 51  1  0  0  0  0
M  END
> <s_m_source_file>
AV-unprocessed.smi

> <i_m_source_file_index>
261

> <i_lp_mmshare_version>
43012

> <i_f3d_flags>
0

> <s_epik_input>
W0NIM11PW0NASF0xW0NIMl1bQ0BASF0oQyg9TylbTkgyXSlOKFtDSDJdMSljKG5bY0hdbjIpYyhjMjMpbltjSF1uM1tDSDJdW0NASF0oW09IXSlbQ0BASF00W0NIMl1bQ0gyXVtDSDJdTzQ=

> <s_epik_cmdline>
J2VwaWtfcHl0aG9uJywgJy1waCcsICc3LjAnLCAnLXRuJywgJzgnLCAnLW1hJywgJzIwMCcsICctbWV0YWxfYmluZGluZycsICctaW1hZScsICc8aW5maWxlLm1hZT4nLCAnLW9tYWUnLCAnPG91dGZpbGUubWFlPic=

> <r_lp_tautomer_probability>
1

> <r_epik_Ionization_Penalty>
0.000713824

> <r_epik_Ionization_Penalty_Charging>
0

> <r_epik_Ionization_Penalty_Neutral>
0.000713824

> <r_epik_State_Penalty>
0.000402132

> <r_epik_Charging_Adjusted_Penalty>
0.000402132

> <i_epik_Tot_Q>
0

> <i_epik_Tot_abs_Q>
0

> <r_epik_Metal_State_Penalty>
-0

> <b_epik_Metal_Only>
0

> <s_lp_Force_Field>
OPLS_2005

> <r_lp_Energy>
44.2831

> <b_lp_Chiralities_Consistent>
1

> <s_lp_Variant>
AV-unprocessed.smi:261-2

> <Gold.Version>
5.8.1

> <Gold.Id.Protein>
6NUR|6NUR_protein|mol2

> <Gold.PLP.Fitness>
44.6825

> <Gold.PLP.PLP>
-34.4046

> <Gold.PLP.part.hbond>
-3.3090

> <Gold.PLP.part.metal>
0.0000

> <Gold.PLP.part.buried>
-1.7845

> <Gold.PLP.part.nonpolar>
-30.3125

> <Gold.PLP.part.repulsive>
0.5781

> <Gold.PLP.ligand.clash>
0.0000

> <Gold.PLP.ligand.torsion>
1.6946

> <Gold.PLP.Chemscore.Hbond>
2.9920

> <Gold.PLP.Chemscore.CHOScore>
1.5166

> <Gold.PLP.Chemscore.Metal>
0.0000

> <Gold.Chemscore.Hbonds>
donor molecule, donor type, donor heavy atom, donor atom, acceptor molecule, acceptor atom, score
      L1  H    21    42       P1 10171  1.00
      P1  H  7954  7966       L1    21  0.99
      P1  H  7997  8010       L1     8  1.00
      L1  C    17    38       P1  7948  1.00
      L1  C    17    38       P1  7957  0.65

> <Gold.PLP.Chemscore.Internal.Correction>
0.1414

> <Gold.Rescore>
     Score         DG    S(hbond)    S(metal)    S(lipo)     H(rot)  DE(clash)    DE(int)     intcor
     10.86     -16.38       2.94        0.00      78.76       3.18       3.24       2.28       ----

> <Gold.Chemscore.Fitness>
10.8600

> <Gold.Chemscore.DG>
-16.3790

> <Gold.Chemscore.ZeroCoef>
-5.4800

> <Gold.Chemscore.Hbond>
2.9438

> <Gold.Chemscore.Metal>
0.0000

> <Gold.Chemscore.Lipo>
78.7640

> <Gold.Chemscore.Internal_Hbond>
0.0000

> <Gold.Chemscore.DEClash>
3.2373

> <Gold.Chemscore.DEInternal>
2.2816

> <Gold.Chemscore.Rot>
3.1831

> <Gold.Chemscore.Internal.Correction>
   9.000000E+99

> <Gold.Chemscore.Hbonds>
donor molecule, donor type, donor heavy atom, donor atom, acceptor molecule, acceptor atom, score
      L1  H    21    42       P1 10171  1.00
      P1  H  7954  7966       L1    21  0.65
      P1  H  7997  8010       L1     8  0.99

> <Gold.Chemscore.Hbond.Weighted>
-9.8322

> <Gold.Chemscore.Metal.Weighted>
-0.0000

> <Gold.Chemscore.Lipo.Weighted>
-9.2154

> <Gold.Chemscore.Internal_Hbond.Weighted>
0.0000

> <Gold.Chemscore.DEClash.Weighted>
3.2373

> <Gold.Chemscore.DEInternal.Weighted>
2.2816

> <Gold.Chemscore.Rot.Weighted>
8.1486

> <Gold.Chemscore.Internal.Correction.Weighted>
   9.000000E+99

> <Gold.Protein.RotatedTorsions>
[ 6907 6896 6895 6894 ] final    8.38 input  -60.11 | X-H torsion
[ 7974 7965 7964 7962 ] final -133.62 input  175.53 | X-H torsion
[ 8008 7997 7996 7995 ] final   92.28 input   59.86 | X-H torsion
[ 10167 10162 10161 10158 ] final  -31.67 input  -65.29 | X-H torsion
[ 10718 10713 10712 10709 ] final   23.14 input   66.30 | X-H torsion
[ 10763 10752 10751 10750 ] final -104.07 input  -60.55 | X-H torsion
[ 11005 11000 10999 10996 ] final  106.74 input  -57.11 | X-H torsion

> <Gold.Protein.ActiveResidues>
 VAL166  LYS551  ARG553  GLY616  TRP617  ASP618  TYR619  PRO620  LYS621  CYS622 
 ASP623  PHE694  ASN695  SER759  ASP760  ASP761  ALA762  ILE779  LEU786  VAL792 
 PHE793  MET794  SER795  GLU796  ALA797  LYS798  CYS799  TRP800  GLU811  SER814 

> <Gold.Protein.RotatedAtoms>
  151.7051  135.0923  160.0257 H   0  0  0  0  0  0  0  0  0  0  0  0  # atno 6907 bound_to 6896
  152.3696  133.6398  159.6085 H   0  0  0  0  0  0  0  0  0  0  0  0  # atno 6908 bound_to 6896
  150.7663  133.9208  159.3439 H   0  0  0  0  0  0  0  0  0  0  0  0  # atno 6909 bound_to 6896
  144.9177  140.6975  143.4985 H   0  0  0  0  0  0  0  0  0  0  0  0  # atno 7974 bound_to 7965
  156.0336  140.3327  155.7166 H   0  0  0  0  0  0  0  0  0  0  0  0  # atno 8008 bound_to 7997
  155.5849  140.0640  157.2791 H   0  0  0  0  0  0  0  0  0  0  0  0  # atno 8009 bound_to 7997
  154.4363  140.1837  156.1003 H   0  0  0  0  0  0  0  0  0  0  0  0  # atno 8010 bound_to 7997
  140.7233  143.3753  151.1701 H   0  0  0  0  0  0  0  0  0  0  0  0  # atno 10167 bound_to 10162
  157.1620  130.6721  149.6047 H   0  0  0  0  0  0  0  0  0  0  0  0  # atno 10718 bound_to 10713
  154.7852  135.4800  153.9931 H   0  0  0  0  0  0  0  0  0  0  0  0  # atno 10763 bound_to 10752
  153.1550  135.6798  153.8832 H   0  0  0  0  0  0  0  0  0  0  0  0  # atno 10764 bound_to 10752
  153.8464  135.3173  155.3408 H   0  0  0  0  0  0  0  0  0  0  0  0  # atno 10765 bound_to 10752
  139.8818  134.9379  156.5713 H   0  0  0  0  0  0  0  0  0  0  0  0  # atno 11005 bound_to 11000
  145.3348  139.1749  143.4517 LP  0  0  0  0  0  0  0  0  0  0  0  0  # atno 17320 bound_to 7965
  146.3190  140.3382  142.8646 LP  0  0  0  0  0  0  0  0  0  0  0  0  # atno 17321 bound_to 7965
  139.7332  143.9039  152.3026 LP  0  0  0  0  0  0  0  0  0  0  0  0  # atno 17342 bound_to 10162
  139.8836  144.7004  150.8850 LP  0  0  0  0  0  0  0  0  0  0  0  0  # atno 17343 bound_to 10162
  155.9752  130.4708  150.6444 LP  0  0  0  0  0  0  0  0  0  0  0  0  # atno 17370 bound_to 10713
  157.4124  131.0825  151.1208 LP  0  0  0  0  0  0  0  0  0  0  0  0  # atno 17371 bound_to 10713
  140.8096  133.8440  155.8798 LP  0  0  0  0  0  0  0  0  0  0  0  0  # atno 17394 bound_to 11000
  140.9518  134.1768  157.4722 LP  0  0  0  0  0  0  0  0  0  0  0  0  # atno 17395 bound_to 11000

$$$$
