AV-unprocessed.smi:72|AV-procd|sdf|669|dock6
  -GOLD-   2262016573D 1   1.00000     0.00000
 Structure written by MMmdl.
 29 30  0  0  0  0  0  0  0  0  1 V2000
  154.2167  138.8455  155.5875 N   0  0  0  0  0  0  0  0  0  0  0  0
  152.9416  139.0003  155.5437 C   0  0  0  0  0  0  0  0  0  0  0  0
  152.0346  138.0964  154.9715 N   0  0  0  0  0  0  0  0  0  0  0  0
  150.7714  138.3925  154.9773 C   0  0  0  0  0  0  0  0  0  0  0  0
  150.2667  139.6417  155.5351 N   0  0  0  0  0  0  0  0  0  0  0  0
  148.7858  139.9879  155.5705 C   0  0  2  0  0  0  0  0  0  0  0  0
  148.0298  138.9526  155.0171 O   0  0  0  0  0  0  0  0  0  0  0  0
  147.7930  139.2185  153.6404 C   0  0  1  0  0  0  0  0  0  0  0  0
  146.6035  138.3838  153.1438 C   0  0  0  0  0  0  0  0  0  0  0  0
  145.4278  138.7729  153.8214 O   0  0  0  0  0  0  0  0  0  0  0  0
  147.5288  140.7248  153.6498 C   0  0  2  0  0  0  0  0  0  0  0  0
  147.8429  141.2867  152.3913 O   0  0  0  0  0  0  0  0  0  0  0  0
  148.4797  141.2458  154.7257 C   0  0  1  0  0  0  0  0  0  0  0  0
  147.8447  142.2467  155.4945 O   0  0  0  0  0  0  0  0  0  0  0  0
  151.1672  140.5343  156.1690 C   0  0  0  0  0  0  0  0  0  0  0  0
  150.7915  141.5701  156.7178 O   0  0  0  0  0  0  0  0  0  0  0  0
  152.4697  140.1803  156.1322 N   0  0  0  0  0  0  0  0  0  0  0  0
  148.5527  140.0881  156.6323 H   0  0  0  0  0  0  0  0  0  0  0  0
  148.6915  139.0052  153.0578 H   0  0  0  0  0  0  0  0  0  0  0  0
  146.4882  140.9250  153.9116 H   0  0  0  0  0  0  0  0  0  0  0  0
  149.3979  141.6399  154.2869 H   0  0  0  0  0  0  0  0  0  0  0  0
  154.4842  137.9779  155.1468 H   0  0  0  0  0  0  0  0  0  0  0  0
  150.0192  137.7193  154.5662 H   0  0  0  0  0  0  0  0  0  0  0  0
  146.4722  138.4798  152.0657 H   0  0  0  0  0  0  0  0  0  0  0  0
  146.7708  137.3279  153.3582 H   0  0  0  0  0  0  0  0  0  0  0  0
  144.9672  139.4017  153.2875 H   0  0  0  0  0  0  0  0  0  0  0  0
  148.5600  140.7974  152.0176 H   0  0  0  0  0  0  0  0  0  0  0  0
  148.3014  143.0628  155.3557 H   0  0  0  0  0  0  0  0  0  0  0  0
  153.1339  140.8052  156.5652 H   0  0  0  0  0  0  0  0  0  0  0  0
  1  2  2  0  0  0  0
  1 22  1  0  0  0  0
  2 17  1  0  0  0  0
  2  3  1  0  0  0  0
  3  4  2  0  0  0  0
  4  5  1  0  0  0  0
  4 23  1  0  0  0  0
  5  6  1  0  0  0  0
  5 15  1  0  0  0  0
  6 18  1  0  0  0  0
  6 13  1  0  0  0  0
  6  7  1  0  0  0  0
  7  8  1  0  0  0  0
  8 19  1  0  0  0  0
  8  9  1  0  0  0  0
  8 11  1  0  0  0  0
  9 10  1  0  0  0  0
  9 24  1  0  0  0  0
  9 25  1  0  0  0  0
 10 26  1  0  0  0  0
 11 20  1  0  0  0  0
 11 12  1  0  0  0  0
 11 13  1  0  0  0  0
 12 27  1  0  0  0  0
 13 21  1  0  0  0  0
 13 14  1  0  0  0  0
 14 28  1  0  0  0  0
 15 16  2  0  0  0  0
 15 17  1  0  0  0  0
 17 29  1  0  0  0  0
M  END
> <s_m_source_file>
AV-unprocessed.smi

> <i_m_source_file_index>
72

> <i_lp_mmshare_version>
43012

> <i_f3d_flags>
0

> <s_epik_input>
W05IMl1jMW5bY0hdbihjKD1PKW4xKVtDQEBIXTJPW0NASF0oW0NIMl1bT0hdKVtDQEBIXShbT0hdKVtDQEhdMltPSF0=

> <s_epik_cmdline>
J2VwaWtfcHl0aG9uJywgJy1waCcsICc3LjAnLCAnLXRuJywgJzgnLCAnLW1hJywgJzIwMCcsICctbWV0YWxfYmluZGluZycsICctaW1hZScsICc8aW5maWxlLm1hZT4nLCAnLW9tYWUnLCAnPG91dGZpbGUubWFlPic=

> <r_lp_tautomer_probability>
7.17554e-07

> <r_epik_Ionization_Penalty>
0.0066451

> <r_epik_Ionization_Penalty_Charging>
0.00663793

> <r_epik_Ionization_Penalty_Neutral>
7.17052e-06

> <r_epik_State_Penalty>
0.419231

> <r_epik_Charging_Adjusted_Penalty>
0.425868

> <i_epik_Tot_Q>
0

> <i_epik_Tot_abs_Q>
0

> <r_epik_Metal_State_Penalty>
1.44144

> <b_epik_Metal_Only>
0

> <s_epik_Chemistry_Notes>
This compound contains an acetal/aminal-like group ( X-CH(R)-Y where X, Y are N, S, or O) that may be acid/base labile, releasing an aldehyde.

> <s_lp_Force_Field>
OPLS_2005

> <r_lp_Energy>
35.5906

> <b_lp_Chiralities_Consistent>
1

> <s_lp_Variant>
AV-unprocessed.smi:72-7

> <Gold.Version>
5.8.1

> <Gold.Id.Protein>
6NUR|6NUR_protein|mol2

> <Gold.PLP.Fitness>
37.6935

> <Gold.PLP.PLP>
-23.9747

> <Gold.PLP.part.hbond>
-5.6227

> <Gold.PLP.part.metal>
0.0000

> <Gold.PLP.part.buried>
-0.2708

> <Gold.PLP.part.nonpolar>
-20.2597

> <Gold.PLP.part.repulsive>
1.2411

> <Gold.PLP.ligand.clash>
0.0000

> <Gold.PLP.ligand.torsion>
0.0793

> <Gold.PLP.Chemscore.Hbond>
3.6513

> <Gold.PLP.Chemscore.CHOScore>
0.9607

> <Gold.PLP.Chemscore.Metal>
0.0000

> <Gold.Chemscore.Hbonds>
donor molecule, donor type, donor heavy atom, donor atom, acceptor molecule, acceptor atom, score
      L1  H    10    26       P1 10175  1.00
      L1  H    12    27       P1  7957  0.99
      L1  H    14    28       P1  8028  1.00
      P1  H  7997  8008       L1     1  0.21

> <Gold.PLP.Chemscore.Internal.Correction>
0.0414

> <Gold.Rescore>
     Score         DG    S(hbond)    S(metal)    S(lipo)     H(rot)  DE(clash)    DE(int)     intcor
      6.06      -7.88       2.98        0.00      24.41       4.06       1.71       0.11       ----

> <Gold.Chemscore.Fitness>
6.0643

> <Gold.Chemscore.DG>
-7.8830

> <Gold.Chemscore.ZeroCoef>
-5.4800

> <Gold.Chemscore.Hbond>
2.9761

> <Gold.Chemscore.Metal>
0.0000

> <Gold.Chemscore.Lipo>
24.4135

> <Gold.Chemscore.Internal_Hbond>
0.0000

> <Gold.Chemscore.DEClash>
1.7062

> <Gold.Chemscore.DEInternal>
0.1126

> <Gold.Chemscore.Rot>
4.0600

> <Gold.Chemscore.Internal.Correction>
   9.000000E+99

> <Gold.Chemscore.Hbonds>
donor molecule, donor type, donor heavy atom, donor atom, acceptor molecule, acceptor atom, score
      L1  H    10    26       P1 10175  1.00
      L1  H    12    27       P1  7957  0.93
      L1  H    14    28       P1  8028  0.98
      P1  H  7997  8008       L1     1  0.14

> <Gold.Chemscore.Hbond.Weighted>
-9.9402

> <Gold.Chemscore.Metal.Weighted>
-0.0000

> <Gold.Chemscore.Lipo.Weighted>
-2.8564

> <Gold.Chemscore.Internal_Hbond.Weighted>
0.0000

> <Gold.Chemscore.DEClash.Weighted>
1.7062

> <Gold.Chemscore.DEInternal.Weighted>
0.1126

> <Gold.Chemscore.Rot.Weighted>
10.3936

> <Gold.Chemscore.Internal.Correction.Weighted>
   9.000000E+99

> <Gold.Protein.RotatedTorsions>
[ 6907 6896 6895 6894 ] final   -1.13 input  -60.11 | X-H torsion
[ 7974 7965 7964 7962 ] final  -51.47 input  175.53 | X-H torsion
[ 8008 7997 7996 7995 ] final   18.43 input   59.86 | X-H torsion
[ 10167 10162 10161 10158 ] final  -61.60 input  -65.29 | X-H torsion
[ 10718 10713 10712 10709 ] final -155.02 input   66.30 | X-H torsion
[ 10763 10752 10751 10750 ] final  -81.77 input  -60.55 | X-H torsion
[ 11005 11000 10999 10996 ] final   86.11 input  -57.11 | X-H torsion

> <Gold.Protein.ActiveResidues>
 VAL166  LYS551  ARG553  GLY616  TRP617  ASP618  TYR619  PRO620  LYS621  CYS622 
 ASP623  PHE694  ASN695  SER759  ASP760  ASP761  ALA762  ILE779  LEU786  VAL792 
 PHE793  MET794  SER795  GLU796  ALA797  LYS798  CYS799  TRP800  GLU811  SER814 

> <Gold.Protein.RotatedAtoms>
  151.5510  135.1067  159.9949 H   0  0  0  0  0  0  0  0  0  0  0  0  # atno 6907 bound_to 6896
  152.4491  133.7590  159.6747 H   0  0  0  0  0  0  0  0  0  0  0  0  # atno 6908 bound_to 6896
  150.8415  133.7862  159.3083 H   0  0  0  0  0  0  0  0  0  0  0  0  # atno 6909 bound_to 6896
  145.9186  140.7853  142.9659 H   0  0  0  0  0  0  0  0  0  0  0  0  # atno 7974 bound_to 7965
  154.9059  140.3007  155.5292 H   0  0  0  0  0  0  0  0  0  0  0  0  # atno 8008 bound_to 7997
  156.3017  140.2398  156.4027 H   0  0  0  0  0  0  0  0  0  0  0  0  # atno 8009 bound_to 7997
  154.8474  140.0411  157.1571 H   0  0  0  0  0  0  0  0  0  0  0  0  # atno 8010 bound_to 7997
  140.5995  143.2358  151.5961 H   0  0  0  0  0  0  0  0  0  0  0  0  # atno 10167 bound_to 10162
  156.5072  130.8418  151.2632 H   0  0  0  0  0  0  0  0  0  0  0  0  # atno 10718 bound_to 10713
  154.5676  135.5614  153.7065 H   0  0  0  0  0  0  0  0  0  0  0  0  # atno 10763 bound_to 10752
  153.0038  135.6289  154.2158 H   0  0  0  0  0  0  0  0  0  0  0  0  # atno 10764 bound_to 10752
  154.2097  135.2874  155.2942 H   0  0  0  0  0  0  0  0  0  0  0  0  # atno 10765 bound_to 10752
  139.8953  134.8333  156.2676 H   0  0  0  0  0  0  0  0  0  0  0  0  # atno 11005 bound_to 11000
  144.6750  140.1939  143.7394 LP  0  0  0  0  0  0  0  0  0  0  0  0  # atno 17320 bound_to 7965
  145.8579  139.2208  143.1734 LP  0  0  0  0  0  0  0  0  0  0  0  0  # atno 17321 bound_to 7965
  139.5281  144.2998  152.1083 LP  0  0  0  0  0  0  0  0  0  0  0  0  # atno 17342 bound_to 10162
  140.2176  144.4499  150.6357 LP  0  0  0  0  0  0  0  0  0  0  0  0  # atno 17343 bound_to 10162
  157.7455  130.9962  150.2770 LP  0  0  0  0  0  0  0  0  0  0  0  0  # atno 17370 bound_to 10713
  156.3275  130.3795  149.7520 LP  0  0  0  0  0  0  0  0  0  0  0  0  # atno 17371 bound_to 10713
  141.0122  133.7089  156.1130 LP  0  0  0  0  0  0  0  0  0  0  0  0  # atno 17394 bound_to 11000
  140.7351  134.4211  157.5561 LP  0  0  0  0  0  0  0  0  0  0  0  0  # atno 17395 bound_to 11000

$$$$
