AV-unprocessed.smi:2114|AV-procd|sdf|8619|dock4
  -GOLD-   2272011363D 1   1.00000     0.00000
 Structure written by MMmdl.
 47 48  0  0  0  0  0  0  0  0  1 V2000
  153.2559  133.2935  165.5146 C   0  0  0  0  0  0  0  0  0  0  0  0
  154.2481  133.8186  164.6509 O   0  0  0  0  0  0  0  0  0  0  0  0
  153.9399  135.1266  164.1966 C   0  0  0  0  0  0  0  0  0  0  0  0
  154.8643  135.5025  163.0256 C   0  0  2  0  0  0  0  0  0  0  0  0
  156.3099  135.7141  163.4961 C   0  0  0  0  0  0  0  0  0  0  0  0
  154.3931  136.7244  162.3781 N   0  0  0  0  0  0  0  0  0  0  0  0
  153.9650  136.8246  161.1085 C   0  0  0  0  0  0  0  0  0  0  0  0
  153.9500  135.8828  160.3160 O   0  0  0  0  0  0  0  0  0  0  0  0
  153.5518  138.2008  160.6736 C   0  0  0  0  0  0  0  0  0  0  0  0
  154.0060  139.3587  161.3417 C   0  0  0  0  0  0  0  0  0  0  0  0
  153.5659  140.6215  160.9011 C   0  0  0  0  0  0  0  0  0  0  0  0
  152.6744  140.6987  159.8055 C   0  0  0  0  0  0  0  0  0  0  0  0
  152.2248  141.9552  159.3471 N   0  0  0  0  0  0  0  0  0  0  0  0
  150.9954  141.9343  158.5596 C   0  0  0  0  0  0  0  0  0  0  0  0
  150.7779  143.2790  157.8384 C   0  0  2  0  0  0  0  0  0  0  0  0
  151.6939  143.4728  156.6167 C   0  0  0  0  0  0  0  0  0  0  0  0
  150.8792  144.3607  158.7676 O   0  0  0  0  0  0  0  0  0  0  0  0
  152.1047  144.4099  159.4972 C   0  0  1  0  0  0  0  0  0  0  0  0
  152.0468  145.6150  160.4418 C   0  0  0  0  0  0  0  0  0  0  0  0
  152.3022  143.0897  160.2629 C   0  0  0  0  0  0  0  0  0  0  0  0
  152.2252  139.5851  159.1770 N   0  0  0  0  0  0  0  0  0  0  0  0
  152.6499  138.3764  159.6026 C   0  0  0  0  0  0  0  0  0  0  0  0
  153.5413  132.2906  165.8320 H   0  0  0  0  0  0  0  0  0  0  0  0
  152.2909  133.2252  165.0107 H   0  0  0  0  0  0  0  0  0  0  0  0
  153.1430  133.9104  166.4069 H   0  0  0  0  0  0  0  0  0  0  0  0
  152.8940  135.1874  163.8904 H   0  0  0  0  0  0  0  0  0  0  0  0
  154.0791  135.8311  165.0183 H   0  0  0  0  0  0  0  0  0  0  0  0
  154.8720  134.6801  162.3079 H   0  0  0  0  0  0  0  0  0  0  0  0
  156.7065  134.8119  163.9627 H   0  0  0  0  0  0  0  0  0  0  0  0
  156.3774  136.5224  164.2252 H   0  0  0  0  0  0  0  0  0  0  0  0
  156.9627  135.9641  162.6591 H   0  0  0  0  0  0  0  0  0  0  0  0
  154.3888  137.5614  162.9422 H   0  0  0  0  0  0  0  0  0  0  0  0
  154.6775  139.2925  162.1853 H   0  0  0  0  0  0  0  0  0  0  0  0
  153.9007  141.5099  161.4152 H   0  0  0  0  0  0  0  0  0  0  0  0
  150.9902  141.1266  157.8288 H   0  0  0  0  0  0  0  0  0  0  0  0
  150.1620  141.7451  159.2375 H   0  0  0  0  0  0  0  0  0  0  0  0
  149.7526  143.2932  157.4679 H   0  0  0  0  0  0  0  0  0  0  0  0
  151.5001  142.7076  155.8649 H   0  0  0  0  0  0  0  0  0  0  0  0
  152.7503  143.4086  156.8766 H   0  0  0  0  0  0  0  0  0  0  0  0
  151.5213  144.4433  156.1512 H   0  0  0  0  0  0  0  0  0  0  0  0
  152.9364  144.5614  158.8089 H   0  0  0  0  0  0  0  0  0  0  0  0
  152.9676  145.7070  161.0183 H   0  0  0  0  0  0  0  0  0  0  0  0
  151.2186  145.5252  161.1453 H   0  0  0  0  0  0  0  0  0  0  0  0
  151.9106  146.5415  159.8833 H   0  0  0  0  0  0  0  0  0  0  0  0
  151.5375  142.9812  161.0334 H   0  0  0  0  0  0  0  0  0  0  0  0
  153.2711  143.1051  160.7639 H   0  0  0  0  0  0  0  0  0  0  0  0
  152.2571  137.5271  159.0629 H   0  0  0  0  0  0  0  0  0  0  0  0
  1  2  1  0  0  0  0
  1 23  1  0  0  0  0
  1 24  1  0  0  0  0
  1 25  1  0  0  0  0
  2  3  1  0  0  0  0
  3  4  1  0  0  0  0
  3 26  1  0  0  0  0
  3 27  1  0  0  0  0
  4  5  1  0  0  0  0
  4  6  1  0  0  0  0
  4 28  1  0  0  0  0
  5 29  1  0  0  0  0
  5 30  1  0  0  0  0
  5 31  1  0  0  0  0
  6  7  1  0  0  0  0
  6 32  1  0  0  0  0
  7  8  2  0  0  0  0
  7  9  1  0  0  0  0
  9 22  1  0  0  0  0
  9 10  2  0  0  0  0
 10 11  1  0  0  0  0
 10 33  1  0  0  0  0
 11 12  2  0  0  0  0
 11 34  1  0  0  0  0
 12 13  1  0  0  0  0
 12 21  1  0  0  0  0
 13 20  1  0  0  0  0
 13 14  1  0  0  0  0
 14 15  1  0  0  0  0
 14 35  1  0  0  0  0
 14 36  1  0  0  0  0
 15 16  1  0  0  0  0
 15 17  1  0  0  0  0
 15 37  1  0  0  0  0
 16 38  1  0  0  0  0
 16 39  1  0  0  0  0
 16 40  1  0  0  0  0
 17 18  1  0  0  0  0
 18 19  1  0  0  0  0
 18 20  1  0  0  0  0
 18 41  1  0  0  0  0
 19 42  1  0  0  0  0
 19 43  1  0  0  0  0
 19 44  1  0  0  0  0
 20 45  1  0  0  0  0
 20 46  1  0  0  0  0
 21 22  2  0  0  0  0
 22 47  1  0  0  0  0
M  END
> <s_m_source_file>
AV-unprocessed.smi

> <i_m_source_file_index>
2114

> <i_lp_mmshare_version>
43012

> <i_f3d_flags>
0

> <s_epik_input>
W0NIM11PW0NIMl1bQ0BIXShbQ0gzXSlbTkhdQyg9TyljMVtjSF1bY0hdYyhuW2NIXTEpTjJbQ0gyXVtDQEBIXShbQ0gzXSlPW0NAQEhdKFtDSDNdKVtDSDJdMg==

> <s_epik_cmdline>
J2VwaWtfcHl0aG9uJywgJy1waCcsICc3LjAnLCAnLXRuJywgJzgnLCAnLW1hJywgJzIwMCcsICctbWV0YWxfYmluZGluZycsICctaW1hZScsICc8aW5maWxlLm1hZT4nLCAnLW9tYWUnLCAnPG91dGZpbGUubWFlPic=

> <r_lp_tautomer_probability>
1

> <r_epik_Ionization_Penalty>
1.92915e-05

> <r_epik_Ionization_Penalty_Charging>
0

> <r_epik_Ionization_Penalty_Neutral>
1.92915e-05

> <r_epik_State_Penalty>
-0

> <r_epik_Charging_Adjusted_Penalty>
0

> <i_epik_Tot_Q>
0

> <i_epik_Tot_abs_Q>
0

> <r_epik_Metal_State_Penalty>
-0

> <b_epik_Metal_Only>
0

> <s_lp_Force_Field>
OPLS_2005

> <r_lp_Energy>
21.9464

> <b_lp_Chiralities_Consistent>
1

> <s_lp_Variant>
AV-unprocessed.smi:2114-3

> <Gold.Version>
5.8.1

> <Gold.Id.Protein>
6NUR|6NUR_protein|mol2

> <Gold.PLP.Fitness>
39.1976

> <Gold.PLP.PLP>
-37.7059

> <Gold.PLP.part.hbond>
-1.0000

> <Gold.PLP.part.metal>
0.0000

> <Gold.PLP.part.buried>
-5.8938

> <Gold.PLP.part.nonpolar>
-30.7660

> <Gold.PLP.part.repulsive>
0.2223

> <Gold.PLP.ligand.clash>
0.0000

> <Gold.PLP.ligand.torsion>
0.9388

> <Gold.PLP.Chemscore.Hbond>
1.0000

> <Gold.PLP.Chemscore.CHOScore>
0.0000

> <Gold.PLP.Chemscore.Metal>
0.0000

> <Gold.Chemscore.Hbonds>
donor molecule, donor type, donor heavy atom, donor atom, acceptor molecule, acceptor atom, score
      P1  H  6896  6907       L1     8  1.00

> <Gold.PLP.Chemscore.Internal.Correction>
0.3694

> <Gold.Rescore>
     Score         DG    S(hbond)    S(metal)    S(lipo)     H(rot)  DE(clash)    DE(int)     intcor
     16.24     -18.83       1.00        0.00     118.90       1.52       1.82       0.77       ----

> <Gold.Chemscore.Fitness>
16.2406

> <Gold.Chemscore.DG>
-18.8285

> <Gold.Chemscore.ZeroCoef>
-5.4800

> <Gold.Chemscore.Hbond>
0.9985

> <Gold.Chemscore.Metal>
0.0000

> <Gold.Chemscore.Lipo>
118.9032

> <Gold.Chemscore.Internal_Hbond>
0.0000

> <Gold.Chemscore.DEClash>
1.8155

> <Gold.Chemscore.DEInternal>
0.7724

> <Gold.Chemscore.Rot>
1.5226

> <Gold.Chemscore.Internal.Correction>
   9.000000E+99

> <Gold.Chemscore.Hbonds>
donor molecule, donor type, donor heavy atom, donor atom, acceptor molecule, acceptor atom, score
      P1  H  6896  6907       L1     8  0.98

> <Gold.Chemscore.Hbond.Weighted>
-3.3348

> <Gold.Chemscore.Metal.Weighted>
-0.0000

> <Gold.Chemscore.Lipo.Weighted>
-13.9117

> <Gold.Chemscore.Internal_Hbond.Weighted>
0.0000

> <Gold.Chemscore.DEClash.Weighted>
1.8155

> <Gold.Chemscore.DEInternal.Weighted>
0.7724

> <Gold.Chemscore.Rot.Weighted>
3.8980

> <Gold.Chemscore.Internal.Correction.Weighted>
   9.000000E+99

> <Gold.Protein.RotatedTorsions>
[ 6907 6896 6895 6894 ] final   51.31 input  -60.11 | X-H torsion
[ 7974 7965 7964 7962 ] final  100.37 input  175.53 | X-H torsion
[ 8008 7997 7996 7995 ] final  -81.03 input   59.86 | X-H torsion
[ 10167 10162 10161 10158 ] final   10.56 input  -65.29 | X-H torsion
[ 10718 10713 10712 10709 ] final  -29.28 input   66.30 | X-H torsion
[ 10763 10752 10751 10750 ] final  -14.79 input  -60.55 | X-H torsion
[ 11005 11000 10999 10996 ] final   64.16 input  -57.11 | X-H torsion

> <Gold.Protein.ActiveResidues>
 VAL166  LYS551  ARG553  GLY616  TRP617  ASP618  TYR619  PRO620  LYS621  CYS622 
 ASP623  PHE694  ASN695  SER759  ASP760  ASP761  ALA762  ILE779  LEU786  VAL792 
 PHE793  MET794  SER795  GLU796  ALA797  LYS798  CYS799  TRP800  GLU811  SER814 

> <Gold.Protein.RotatedAtoms>
  152.3113  134.7493  160.0335 H   0  0  0  0  0  0  0  0  0  0  0  0  # atno 6907 bound_to 6896
  151.7973  133.3360  159.3525 H   0  0  0  0  0  0  0  0  0  0  0  0  # atno 6908 bound_to 6896
  150.7322  134.5717  159.5938 H   0  0  0  0  0  0  0  0  0  0  0  0  # atno 6909 bound_to 6896
  145.3865  139.2370  143.3375 H   0  0  0  0  0  0  0  0  0  0  0  0  # atno 7974 bound_to 7965
  154.5942  140.0654  156.9281 H   0  0  0  0  0  0  0  0  0  0  0  0  # atno 8008 bound_to 7997
  155.2242  140.3332  155.4293 H   0  0  0  0  0  0  0  0  0  0  0  0  # atno 8009 bound_to 7997
  156.2276  140.1826  156.7308 H   0  0  0  0  0  0  0  0  0  0  0  0  # atno 8010 bound_to 7997
  140.6187  143.8253  150.7148 H   0  0  0  0  0  0  0  0  0  0  0  0  # atno 10167 bound_to 10162
  156.4144  130.4414  149.7228 H   0  0  0  0  0  0  0  0  0  0  0  0  # atno 10718 bound_to 10713
  153.5335  135.7014  153.5671 H   0  0  0  0  0  0  0  0  0  0  0  0  # atno 10763 bound_to 10752
  153.3668  135.3955  155.1759 H   0  0  0  0  0  0  0  0  0  0  0  0  # atno 10764 bound_to 10752
  154.8682  135.3802  154.4834 H   0  0  0  0  0  0  0  0  0  0  0  0  # atno 10765 bound_to 10752
  139.9977  134.6492  155.9983 H   0  0  0  0  0  0  0  0  0  0  0  0  # atno 11005 bound_to 11000
  146.2818  140.4541  142.8773 LP  0  0  0  0  0  0  0  0  0  0  0  0  # atno 17320 bound_to 7965
  144.8470  140.6945  143.6192 LP  0  0  0  0  0  0  0  0  0  0  0  0  # atno 17321 bound_to 7965
  140.1838  143.4093  152.1914 LP  0  0  0  0  0  0  0  0  0  0  0  0  # atno 17342 bound_to 10162
  139.5420  144.7265  151.4704 LP  0  0  0  0  0  0  0  0  0  0  0  0  # atno 17343 bound_to 10162
  156.4194  130.7761  151.2778 LP  0  0  0  0  0  0  0  0  0  0  0  0  # atno 17370 bound_to 10713
  157.7507  131.0187  150.3638 LP  0  0  0  0  0  0  0  0  0  0  0  0  # atno 17371 bound_to 10713
  141.1617  133.6538  156.4342 LP  0  0  0  0  0  0  0  0  0  0  0  0  # atno 17394 bound_to 11000
  140.4787  134.6685  157.5161 LP  0  0  0  0  0  0  0  0  0  0  0  0  # atno 17395 bound_to 11000

$$$$
