AV-unprocessed.smi:69|AV-procd|sdf|646|dock8
  -GOLD-   2262016543D 1   1.00000     0.00000
 Structure written by MMmdl.
 32 34  0  0  0  0  0  0  0  0  1 V2000
  152.8465  142.9846  160.3682 N   0  0  0  0  0  0  0  0  0  0  0  0
  152.2847  142.3505  159.3300 C   0  0  0  0  0  0  0  0  0  0  0  0
  151.5698  143.0799  158.4417 N   0  0  0  0  0  0  0  0  0  0  0  0
  151.0004  142.4701  157.3969 C   0  0  0  0  0  0  0  0  0  0  0  0
  151.0269  141.1758  157.0692 N   0  0  0  0  0  0  0  0  0  0  0  0
  151.7495  140.4415  157.9651 C   0  0  0  0  0  0  0  0  0  0  0  0
  152.4058  140.9537  159.1186 C   0  0  0  0  0  0  0  0  0  0  0  0
  153.0405  139.9235  159.7992 N   0  0  0  0  0  0  0  0  0  0  0  0
  152.7720  138.8637  159.0846 C   0  0  0  0  0  0  0  0  0  0  0  0
  152.0068  139.0849  157.9600 N   0  0  0  0  0  0  0  0  0  0  0  0
  151.5547  138.0751  156.9502 C   0  0  1  0  0  0  0  0  0  0  0  0
  150.1832  138.2222  156.7587 O   0  0  0  0  0  0  0  0  0  0  0  0
  149.8716  137.9443  155.3991 C   0  0  1  0  0  0  0  0  0  0  0  0
  148.4931  138.5140  155.0212 C   0  0  0  0  0  0  0  0  0  0  0  0
  148.2644  138.3525  153.6375 O   0  0  0  0  0  0  0  0  0  0  0  0
  151.0678  138.5366  154.6385 C   0  0  1  0  0  0  0  0  0  0  0  0
  150.8893  139.9231  154.4034 O   0  0  0  0  0  0  0  0  0  0  0  0
  152.2382  138.2426  155.5757 C   0  0  1  0  0  0  0  0  0  0  0  0
  153.2741  139.2103  155.5123 O   0  0  0  0  0  0  0  0  0  0  0  0
  151.7658  137.1085  157.4104 H   0  0  0  0  0  0  0  0  0  0  0  0
  149.8827  136.8618  155.2571 H   0  0  0  0  0  0  0  0  0  0  0  0
  151.2045  138.0531  153.6707 H   0  0  0  0  0  0  0  0  0  0  0  0
  152.6665  137.2736  155.3157 H   0  0  0  0  0  0  0  0  0  0  0  0
  153.3859  142.4626  161.0440 H   0  0  0  0  0  0  0  0  0  0  0  0
  152.7334  143.9826  160.4698 H   0  0  0  0  0  0  0  0  0  0  0  0
  150.4453  143.1095  156.7267 H   0  0  0  0  0  0  0  0  0  0  0  0
  153.1331  137.8830  159.3578 H   0  0  0  0  0  0  0  0  0  0  0  0
  147.6962  138.0395  155.5948 H   0  0  0  0  0  0  0  0  0  0  0  0
  148.4566  139.5830  155.2334 H   0  0  0  0  0  0  0  0  0  0  0  0
  148.6299  137.5236  153.3684 H   0  0  0  0  0  0  0  0  0  0  0  0
  150.5785  140.3220  155.2020 H   0  0  0  0  0  0  0  0  0  0  0  0
  153.3122  139.5518  154.6321 H   0  0  0  0  0  0  0  0  0  0  0  0
  1  2  1  0  0  0  0
  1 24  1  0  0  0  0
  1 25  1  0  0  0  0
  2  7  1  0  0  0  0
  2  3  2  0  0  0  0
  3  4  1  0  0  0  0
  4  5  2  0  0  0  0
  4 26  1  0  0  0  0
  5  6  1  0  0  0  0
  6 10  1  0  0  0  0
  6  7  2  0  0  0  0
  7  8  1  0  0  0  0
  8  9  2  0  0  0  0
  9 10  1  0  0  0  0
  9 27  1  0  0  0  0
 10 11  1  0  0  0  0
 11 20  1  0  0  0  0
 11 18  1  0  0  0  0
 11 12  1  0  0  0  0
 12 13  1  0  0  0  0
 13 21  1  0  0  0  0
 13 14  1  0  0  0  0
 13 16  1  0  0  0  0
 14 15  1  0  0  0  0
 14 28  1  0  0  0  0
 14 29  1  0  0  0  0
 15 30  1  0  0  0  0
 16 22  1  0  0  0  0
 16 17  1  0  0  0  0
 16 18  1  0  0  0  0
 17 31  1  0  0  0  0
 18 23  1  0  0  0  0
 18 19  1  0  0  0  0
 19 32  1  0  0  0  0
M  END
> <s_m_source_file>
AV-unprocessed.smi

> <i_m_source_file_index>
69

> <i_lp_mmshare_version>
43012

> <i_f3d_flags>
0

> <s_epik_input>
bjFbY0hdbmMoW05IMl0pYyhjMTIpbltjSF1uMltDQEBIXTNPW0NASF0oW0NIMl1bT0hdKVtDQEBIXShbT0hdKVtDQEhdM1tPSF0=

> <s_epik_cmdline>
J2VwaWtfcHl0aG9uJywgJy1waCcsICc3LjAnLCAnLXRuJywgJzgnLCAnLW1hJywgJzIwMCcsICctbWV0YWxfYmluZGluZycsICctaW1hZScsICc8aW5maWxlLm1hZT4nLCAnLW9tYWUnLCAnPG91dGZpbGUubWFlPic=

> <r_lp_tautomer_probability>
1

> <r_epik_Ionization_Penalty>
0.000428445

> <r_epik_Ionization_Penalty_Charging>
0

> <r_epik_Ionization_Penalty_Neutral>
0.000428445

> <r_epik_State_Penalty>
-0

> <r_epik_Charging_Adjusted_Penalty>
0

> <i_epik_Tot_Q>
0

> <i_epik_Tot_abs_Q>
0

> <r_epik_Metal_State_Penalty>
-0

> <b_epik_Metal_Only>
0

> <s_epik_Chemistry_Notes>
This compound contains an acetal/aminal-like group ( X-CH(R)-Y where X, Y are N, S, or O) that may be acid/base labile, releasing an aldehyde.

> <s_lp_Force_Field>
OPLS_2005

> <r_lp_Energy>
45.7014

> <b_lp_Chiralities_Consistent>
1

> <s_lp_Variant>
AV-unprocessed.smi:69-4

> <Gold.Version>
5.8.1

> <Gold.Id.Protein>
6NUR|6NUR_protein|mol2

> <Gold.PLP.Fitness>
36.7775

> <Gold.PLP.PLP>
-25.5066

> <Gold.PLP.part.hbond>
-3.1270

> <Gold.PLP.part.metal>
0.0000

> <Gold.PLP.part.buried>
-7.4651

> <Gold.PLP.part.nonpolar>
-16.2402

> <Gold.PLP.part.repulsive>
0.1220

> <Gold.PLP.ligand.clash>
0.0000

> <Gold.PLP.ligand.torsion>
0.1836

> <Gold.PLP.Chemscore.Hbond>
2.8785

> <Gold.PLP.Chemscore.CHOScore>
1.0000

> <Gold.PLP.Chemscore.Metal>
0.0000

> <Gold.Chemscore.Hbonds>
donor molecule, donor type, donor heavy atom, donor atom, acceptor molecule, acceptor atom, score
      L1  H    15    30       P1  7948  0.94
      P1  H  7989  7998       L1    17  0.94
      P1  H  7997  8010       L1    19  0.99
      L1  C     4    26       P1  8028  1.00

> <Gold.PLP.Chemscore.Internal.Correction>
0.0026

> <Gold.Rescore>
     Score         DG    S(hbond)    S(metal)    S(lipo)     H(rot)  DE(clash)    DE(int)     intcor
      6.66      -7.42       2.63        0.00      29.72       4.03       0.00       0.76       ----

> <Gold.Chemscore.Fitness>
6.6608

> <Gold.Chemscore.DG>
-7.4181

> <Gold.Chemscore.ZeroCoef>
-5.4800

> <Gold.Chemscore.Hbond>
2.6261

> <Gold.Chemscore.Metal>
0.0000

> <Gold.Chemscore.Lipo>
29.7245

> <Gold.Chemscore.Internal_Hbond>
0.0000

> <Gold.Chemscore.DEClash>
0.0000

> <Gold.Chemscore.DEInternal>
0.7573

> <Gold.Chemscore.Rot>
4.0277

> <Gold.Chemscore.Internal.Correction>
   9.000000E+99

> <Gold.Chemscore.Hbonds>
donor molecule, donor type, donor heavy atom, donor atom, acceptor molecule, acceptor atom, score
      L1  H    15    30       P1  7948  0.87
      P1  H  7989  7998       L1    17  0.79
      P1  H  7997  8010       L1    19  0.37

> <Gold.Chemscore.Hbond.Weighted>
-8.7713

> <Gold.Chemscore.Metal.Weighted>
-0.0000

> <Gold.Chemscore.Lipo.Weighted>
-3.4778

> <Gold.Chemscore.Internal_Hbond.Weighted>
0.0000

> <Gold.Chemscore.DEClash.Weighted>
0.0000

> <Gold.Chemscore.DEInternal.Weighted>
0.7573

> <Gold.Chemscore.Rot.Weighted>
10.3110

> <Gold.Chemscore.Internal.Correction.Weighted>
   9.000000E+99

> <Gold.Protein.RotatedTorsions>
[ 6907 6896 6895 6894 ] final  -81.67 input  -60.11 | X-H torsion
[ 7974 7965 7964 7962 ] final  160.69 input  175.53 | X-H torsion
[ 8008 7997 7996 7995 ] final   77.20 input   59.86 | X-H torsion
[ 10167 10162 10161 10158 ] final   77.43 input  -65.29 | X-H torsion
[ 10718 10713 10712 10709 ] final  -40.02 input   66.30 | X-H torsion
[ 10763 10752 10751 10750 ] final  -62.76 input  -60.55 | X-H torsion
[ 11005 11000 10999 10996 ] final   89.49 input  -57.11 | X-H torsion

> <Gold.Protein.ActiveResidues>
 VAL166  LYS551  ARG553  GLY616  TRP617  ASP618  TYR619  PRO620  LYS621  CYS622 
 ASP623  PHE694  ASN695  SER759  ASP760  ASP761  ALA762  ILE779  LEU786  VAL792 
 PHE793  MET794  SER795  GLU796  ALA797  LYS798  CYS799  TRP800  GLU811  SER814 

> <Gold.Protein.RotatedAtoms>
  150.6908  134.3782  159.5021 H   0  0  0  0  0  0  0  0  0  0  0  0  # atno 6907 bound_to 6896
  152.1588  134.8926  160.0552 H   0  0  0  0  0  0  0  0  0  0  0  0  # atno 6908 bound_to 6896
  151.9996  133.3786  159.4213 H   0  0  0  0  0  0  0  0  0  0  0  0  # atno 6909 bound_to 6896
  144.7724  139.7792  143.6292 H   0  0  0  0  0  0  0  0  0  0  0  0  # atno 7974 bound_to 7965
  155.8382  140.3463  155.5615 H   0  0  0  0  0  0  0  0  0  0  0  0  # atno 8008 bound_to 7997
  155.8169  140.0907  157.1891 H   0  0  0  0  0  0  0  0  0  0  0  0  # atno 8009 bound_to 7997
  154.4004  140.1437  156.3440 H   0  0  0  0  0  0  0  0  0  0  0  0  # atno 8010 bound_to 7997
  139.9817  144.5822  150.7895 H   0  0  0  0  0  0  0  0  0  0  0  0  # atno 10167 bound_to 10162
  156.2859  130.4222  149.8288 H   0  0  0  0  0  0  0  0  0  0  0  0  # atno 10718 bound_to 10713
  154.3048  135.6227  153.5440 H   0  0  0  0  0  0  0  0  0  0  0  0  # atno 10763 bound_to 10752
  152.9836  135.5687  154.5243 H   0  0  0  0  0  0  0  0  0  0  0  0  # atno 10764 bound_to 10752
  154.4881  135.2866  155.1494 H   0  0  0  0  0  0  0  0  0  0  0  0  # atno 10765 bound_to 10752
  139.8874  134.8554  156.3149 H   0  0  0  0  0  0  0  0  0  0  0  0  # atno 11005 bound_to 11000
  146.1880  139.5105  142.9823 LP  0  0  0  0  0  0  0  0  0  0  0  0  # atno 17320 bound_to 7965
  145.6285  141.0309  143.1876 LP  0  0  0  0  0  0  0  0  0  0  0  0  # atno 17321 bound_to 7965
  140.7487  143.2926  151.3290 LP  0  0  0  0  0  0  0  0  0  0  0  0  # atno 17342 bound_to 10162
  139.6405  144.0548  152.2550 LP  0  0  0  0  0  0  0  0  0  0  0  0  # atno 17343 bound_to 10162
  156.5719  130.8428  151.3359 LP  0  0  0  0  0  0  0  0  0  0  0  0  # atno 17370 bound_to 10713
  157.7328  130.9721  150.1948 LP  0  0  0  0  0  0  0  0  0  0  0  0  # atno 17371 bound_to 10713
  140.9826  133.7258  156.0694 LP  0  0  0  0  0  0  0  0  0  0  0  0  # atno 17394 bound_to 11000
  140.7730  134.3811  157.5504 LP  0  0  0  0  0  0  0  0  0  0  0  0  # atno 17395 bound_to 11000

$$$$
