AV-unprocessed.smi:1799|AV-procd|sdf|7261|dock3
  -GOLD-   22720 8513D 1   1.00000     0.00000
 Structure written by MMmdl.
 41 42  0  0  0  0  0  0  0  0  2 V2000
  146.4004  137.4211  153.5150 C   0  0  0  0  0  0  0  0  0  0  0  0
  147.1792  138.7179  153.2028 C   0  0  0  0  0  0  0  0  0  0  0  0
  146.7884  139.1311  151.7704 C   0  0  0  0  0  0  0  0  0  0  0  0
  146.7972  139.8791  154.1545 C   0  0  0  0  0  0  0  0  0  0  0  0
  147.4548  139.8287  155.5476 C   0  0  0  0  0  0  0  0  0  0  0  0
  146.8534  138.8478  156.4490 N   0  0  0  0  0  0  0  0  0  0  0  0
  147.2892  138.5531  157.6827 C   0  0  0  0  0  0  0  0  0  0  0  0
  148.2698  139.0876  158.2002 O   0  0  0  0  0  0  0  0  0  0  0  0
  146.5174  137.6159  158.2603 N   0  0  0  0  0  0  0  0  0  0  0  0
  146.6199  137.0786  159.5708 C   0  0  0  0  0  0  0  0  0  0  0  0
  147.5338  137.4779  160.4692 N   0  0  0  0  0  0  0  0  0  0  0  0
  147.4098  136.7980  161.6737 N   0  0  0  0  0  0  0  0  0  0  0  0
  146.4085  135.9141  161.6368 C   0  0  0  0  0  0  0  0  0  0  0  0
  145.5193  135.8254  160.1260 S   0  0  0  0  0  0  0  0  0  0  0  0
  148.9736  139.6324  155.4111 C   0  0  0  0  0  0  0  0  0  0  0  0
  149.4091  138.4702  154.4807 C   0  0  0  0  0  0  0  0  0  0  0  0
  150.8928  138.6800  154.1198 C   0  0  0  0  0  0  0  0  0  0  0  0
  149.3156  137.0943  155.1768 C   0  0  0  0  0  0  0  0  0  0  0  0
  148.6514  138.4876  153.1971 N   0  3  0  0  0  0  0  0  0  0  0  0
  145.3311  137.5649  153.3560 H   0  0  0  0  0  0  0  0  0  0  0  0
  146.5064  137.0815  154.5398 H   0  0  0  0  0  0  0  0  0  0  0  0
  146.7156  136.6034  152.8656 H   0  0  0  0  0  0  0  0  0  0  0  0
  145.7200  139.3372  151.6933 H   0  0  0  0  0  0  0  0  0  0  0  0
  147.0226  138.3468  151.0493 H   0  0  0  0  0  0  0  0  0  0  0  0
  147.3164  140.0312  151.4529 H   0  0  0  0  0  0  0  0  0  0  0  0
  147.1105  140.8179  153.6949 H   0  0  0  0  0  0  0  0  0  0  0  0
  145.7125  139.9566  154.2389 H   0  0  0  0  0  0  0  0  0  0  0  0
  147.3030  140.8015  156.0191 H   0  0  0  0  0  0  0  0  0  0  0  0
  146.0454  138.3504  156.1040 H   0  0  0  0  0  0  0  0  0  0  0  0
  145.7560  137.2552  157.7048 H   0  0  0  0  0  0  0  0  0  0  0  0
  146.1921  135.3105  162.5057 H   0  0  0  0  0  0  0  0  0  0  0  0
  149.3762  140.5643  155.0106 H   0  0  0  0  0  0  0  0  0  0  0  0
  149.4300  139.5238  156.3962 H   0  0  0  0  0  0  0  0  0  0  0  0
  151.5225  138.6987  155.0105 H   0  0  0  0  0  0  0  0  0  0  0  0
  151.0486  139.6217  153.5920 H   0  0  0  0  0  0  0  0  0  0  0  0
  151.2638  137.8828  153.4740 H   0  0  0  0  0  0  0  0  0  0  0  0
  150.0056  137.0391  156.0197 H   0  0  0  0  0  0  0  0  0  0  0  0
  149.5776  136.2857  154.4935 H   0  0  0  0  0  0  0  0  0  0  0  0
  148.3332  136.8723  155.5799 H   0  0  0  0  0  0  0  0  0  0  0  0
  148.8495  137.6387  152.6870 H   0  0  0  0  0  0  0  0  0  0  0  0
  149.0390  139.2572  152.6700 H   0  0  0  0  0  0  0  0  0  0  0  0
  1  2  1  0  0  0  0
  1 20  1  0  0  0  0
  1 21  1  0  0  0  0
  1 22  1  0  0  0  0
  2 19  1  0  0  0  0
  2  3  1  0  0  0  0
  2  4  1  0  0  0  0
  3 23  1  0  0  0  0
  3 24  1  0  0  0  0
  3 25  1  0  0  0  0
  4  5  1  0  0  0  0
  4 26  1  0  0  0  0
  4 27  1  0  0  0  0
  5  6  1  0  0  0  0
  5 15  1  0  0  0  0
  5 28  1  0  0  0  0
  6  7  1  0  0  0  0
  6 29  1  0  0  0  0
  7  8  2  0  0  0  0
  7  9  1  0  0  0  0
  9 10  1  0  0  0  0
  9 30  1  0  0  0  0
 10 14  1  0  0  0  0
 10 11  2  0  0  0  0
 11 12  1  0  0  0  0
 12 13  2  0  0  0  0
 13 14  1  0  0  0  0
 13 31  1  0  0  0  0
 15 16  1  0  0  0  0
 15 32  1  0  0  0  0
 15 33  1  0  0  0  0
 16 17  1  0  0  0  0
 16 18  1  0  0  0  0
 16 19  1  0  0  0  0
 17 34  1  0  0  0  0
 17 35  1  0  0  0  0
 17 36  1  0  0  0  0
 18 37  1  0  0  0  0
 18 38  1  0  0  0  0
 18 39  1  0  0  0  0
 19 40  1  0  0  0  0
 19 41  1  0  0  0  0
M  CHG  1  19   1
M  END
> <s_m_source_file>
AV-unprocessed.smi

> <i_m_source_file_index>
1799

> <i_lp_mmshare_version>
43012

> <i_f3d_flags>
0

> <s_epik_input>
W0NIM11DMShbQ0gzXSlbQ0gyXVtDSF0oW0NIMl1DKFtDSDNdKShbQ0gzXSlbTkhdMSlbTkhdQyg9TylbTkhdYzJubltjSF1zMg==

> <s_epik_cmdline>
J2VwaWtfcHl0aG9uJywgJy1waCcsICc3LjAnLCAnLXRuJywgJzgnLCAnLW1hJywgJzIwMCcsICctbWV0YWxfYmluZGluZycsICctaW1hZScsICc8aW5maWxlLm1hZT4nLCAnLW9tYWUnLCAnPG91dGZpbGUubWFlPic=

> <r_lp_tautomer_probability>
1

> <r_epik_Ionization_Penalty>
0.000698711

> <r_epik_Ionization_Penalty_Charging>
0.000101406

> <r_epik_Ionization_Penalty_Neutral>
0.000597305

> <r_epik_State_Penalty>
-0

> <r_epik_Charging_Adjusted_Penalty>
0.000101406

> <i_epik_Tot_Q>
1

> <i_epik_Tot_abs_Q>
1

> <r_epik_Metal_State_Penalty>
0.237927

> <b_epik_Metal_Only>
0

> <s_lp_Force_Field>
OPLS_2005

> <r_lp_Energy>
25.55

> <b_lp_Chiralities_Consistent>
1

> <s_lp_Variant>
AV-unprocessed.smi:1799-1

> <Gold.Version>
5.8.1

> <Gold.Id.Protein>
6NUR|6NUR_protein|mol2

> <Gold.PLP.Fitness>
33.3769

> <Gold.PLP.PLP>
-21.5463

> <Gold.PLP.part.hbond>
-6.0820

> <Gold.PLP.part.metal>
0.0000

> <Gold.PLP.part.buried>
-1.8036

> <Gold.PLP.part.nonpolar>
-14.2550

> <Gold.PLP.part.repulsive>
0.1405

> <Gold.PLP.ligand.clash>
0.0000

> <Gold.PLP.ligand.torsion>
0.0576

> <Gold.PLP.Chemscore.Hbond>
3.9760

> <Gold.PLP.Chemscore.CHOScore>
0.0000

> <Gold.PLP.Chemscore.Metal>
0.0000

> <Gold.Chemscore.Hbonds>
donor molecule, donor type, donor heavy atom, donor atom, acceptor molecule, acceptor atom, score
      L1  H    19    40       P1  7948  2.00
      L1  H    19    41       P1  7957  1.00
      P1  H  6934  6947       L1    11  0.96

> <Gold.PLP.Chemscore.Internal.Correction>
0.0178

> <Gold.Rescore>
     Score         DG    S(hbond)    S(metal)    S(lipo)     H(rot)  DE(clash)    DE(int)     intcor
     15.60     -18.15       2.71        0.00      52.81       1.00       0.01       2.54       ----

> <Gold.Chemscore.Fitness>
15.6011

> <Gold.Chemscore.DG>
-18.1512

> <Gold.Chemscore.ZeroCoef>
-5.4800

> <Gold.Chemscore.Hbond>
2.7104

> <Gold.Chemscore.Metal>
0.0000

> <Gold.Chemscore.Lipo>
52.8061

> <Gold.Chemscore.Internal_Hbond>
0.0000

> <Gold.Chemscore.DEClash>
0.0053

> <Gold.Chemscore.DEInternal>
2.5448

> <Gold.Chemscore.Rot>
1.0000

> <Gold.Chemscore.Internal.Correction>
   9.000000E+99

> <Gold.Chemscore.Hbonds>
donor molecule, donor type, donor heavy atom, donor atom, acceptor molecule, acceptor atom, score
      L1  H    19    40       P1  7948  0.99
      L1  H    19    41       P1  7957  0.96
      P1  H  6934  6947       L1    11  0.22

> <Gold.Chemscore.Hbond.Weighted>
-9.0529

> <Gold.Chemscore.Metal.Weighted>
-0.0000

> <Gold.Chemscore.Lipo.Weighted>
-6.1783

> <Gold.Chemscore.Internal_Hbond.Weighted>
0.0000

> <Gold.Chemscore.DEClash.Weighted>
0.0053

> <Gold.Chemscore.DEInternal.Weighted>
2.5448

> <Gold.Chemscore.Rot.Weighted>
2.5600

> <Gold.Chemscore.Internal.Correction.Weighted>
   9.000000E+99

> <Gold.Protein.RotatedTorsions>
[ 6907 6896 6895 6894 ] final  -55.09 input  -60.11 | X-H torsion
[ 7974 7965 7964 7962 ] final -107.96 input  175.53 | X-H torsion
[ 8008 7997 7996 7995 ] final  -30.22 input   59.86 | X-H torsion
[ 10167 10162 10161 10158 ] final   93.17 input  -65.29 | X-H torsion
[ 10718 10713 10712 10709 ] final  -52.05 input   66.30 | X-H torsion
[ 10763 10752 10751 10750 ] final -125.83 input  -60.55 | X-H torsion
[ 11005 11000 10999 10996 ] final  153.87 input  -57.11 | X-H torsion

> <Gold.Protein.ActiveResidues>
 VAL166  LYS551  ARG553  GLY616  TRP617  ASP618  TYR619  PRO620  LYS621  CYS622 
 ASP623  PHE694  ASN695  SER759  ASP760  ASP761  ALA762  ILE779  LEU786  VAL792 
 PHE793  MET794  SER795  GLU796  ALA797  LYS798  CYS799  TRP800  GLU811  SER814 

> <Gold.Protein.RotatedAtoms>
  150.8282  134.7522  159.6830 H   0  0  0  0  0  0  0  0  0  0  0  0  # atno 6907 bound_to 6896
  152.4390  134.5626  159.9908 H   0  0  0  0  0  0  0  0  0  0  0  0  # atno 6908 bound_to 6896
  151.5793  133.3342  159.3041 H   0  0  0  0  0  0  0  0  0  0  0  0  # atno 6909 bound_to 6896
  145.1989  140.9047  143.3381 H   0  0  0  0  0  0  0  0  0  0  0  0  # atno 7974 bound_to 7965
  154.4259  140.1797  156.1373 H   0  0  0  0  0  0  0  0  0  0  0  0  # atno 8008 bound_to 7997
  156.0020  140.3359  155.6830 H   0  0  0  0  0  0  0  0  0  0  0  0  # atno 8009 bound_to 7997
  155.6229  140.0662  157.2663 H   0  0  0  0  0  0  0  0  0  0  0  0  # atno 8010 bound_to 7997
  139.8205  144.6733  150.9524 H   0  0  0  0  0  0  0  0  0  0  0  0  # atno 10167 bound_to 10162
  156.1655  130.4149  149.9726 H   0  0  0  0  0  0  0  0  0  0  0  0  # atno 10718 bound_to 10713
  154.8740  135.4016  154.3331 H   0  0  0  0  0  0  0  0  0  0  0  0  # atno 10763 bound_to 10752
  153.4142  135.7021  153.6344 H   0  0  0  0  0  0  0  0  0  0  0  0  # atno 10764 bound_to 10752
  153.5033  135.3723  155.2521 H   0  0  0  0  0  0  0  0  0  0  0  0  # atno 10765 bound_to 10752
  140.1437  134.8721  157.2365 H   0  0  0  0  0  0  0  0  0  0  0  0  # atno 11005 bound_to 11000
  144.9968  139.3637  143.6187 LP  0  0  0  0  0  0  0  0  0  0  0  0  # atno 17320 bound_to 7965
  146.3421  139.9173  142.8771 LP  0  0  0  0  0  0  0  0  0  0  0  0  # atno 17321 bound_to 7965
  140.7813  143.4096  151.1015 LP  0  0  0  0  0  0  0  0  0  0  0  0  # atno 17342 bound_to 10162
  139.7757  143.8429  152.3129 LP  0  0  0  0  0  0  0  0  0  0  0  0  # atno 17343 bound_to 10162
  156.7542  130.9127  151.3639 LP  0  0  0  0  0  0  0  0  0  0  0  0  # atno 17370 bound_to 10713
  157.6765  130.9099  150.0162 LP  0  0  0  0  0  0  0  0  0  0  0  0  # atno 17371 bound_to 10713
  140.2690  134.3482  155.7380 LP  0  0  0  0  0  0  0  0  0  0  0  0  # atno 17394 bound_to 11000
  141.2189  133.7412  156.9194 LP  0  0  0  0  0  0  0  0  0  0  0  0  # atno 17395 bound_to 11000

$$$$
