AV-unprocessed.smi:1308|AV-procd|sdf|5443|dock5
  -GOLD-   22720 5 13D 1   1.00000     0.00000
 Structure written by MMmdl.
 44 44  0  0  0  0  0  0  0  0  2 V2000
  156.0893  139.4971  163.5228 C   0  0  0  0  0  0  0  0  0  0  0  0
  155.2115  140.2558  162.5508 C   0  0  0  0  0  0  0  0  0  0  0  0
  154.5652  141.2797  162.9599 N   0  0  0  0  0  0  0  0  0  0  0  0
  153.7547  141.9911  162.0595 C   0  0  0  0  0  0  0  0  0  0  0  0
  153.0509  143.2114  162.6271 C   0  0  0  0  0  0  0  0  0  0  0  0
  153.6395  141.6049  160.7560 C   0  0  0  0  0  0  0  0  0  0  0  0
  152.7985  142.3658  159.7291 C   0  0  0  0  0  0  0  0  0  0  0  0
  151.7437  141.5201  159.0156 C   0  0  0  0  0  0  0  0  0  0  0  0
  151.6784  140.3101  159.2301 O   0  0  0  0  0  0  0  0  0  0  0  0
  150.9012  142.1866  158.2074 N   0  0  0  0  0  0  0  0  0  0  0  0
  149.6616  141.6873  157.6098 C   0  0  1  0  0  0  0  0  0  0  0  0
  148.4231  142.4268  158.1461 C   0  0  0  0  0  0  0  0  0  0  0  0
  149.7277  141.6773  156.0653 C   0  0  0  0  0  0  0  0  0  0  0  0
  148.3684  141.4073  155.3851 C   0  0  0  0  0  0  0  0  0  0  0  0
  148.4780  140.7210  154.0093 C   0  0  0  0  0  0  0  0  0  0  0  0
  147.1234  140.6331  153.2870 C   0  0  0  0  0  0  0  0  0  0  0  0
  149.1076  139.3262  154.1479 C   0  0  0  0  0  0  0  0  0  0  0  0
  154.3998  140.4178  160.3255 C   0  0  0  0  0  0  0  0  0  0  0  0
  154.3444  140.0347  159.1576 O   0  0  0  0  0  0  0  0  0  0  0  0
  155.1640  139.7828  161.2587 N   0  5  0  0  0  0  0  0  0  0  0  0
  156.1495  140.0115  164.4828 H   0  0  0  0  0  0  0  0  0  0  0  0
  157.0999  139.3999  163.1248 H   0  0  0  0  0  0  0  0  0  0  0  0
  155.6864  138.4984  163.6929 H   0  0  0  0  0  0  0  0  0  0  0  0
  151.9721  143.1325  162.4929 H   0  0  0  0  0  0  0  0  0  0  0  0
  153.3996  144.1179  162.1320 H   0  0  0  0  0  0  0  0  0  0  0  0
  153.2478  143.3196  163.6943 H   0  0  0  0  0  0  0  0  0  0  0  0
  152.3068  143.2285  160.1790 H   0  0  0  0  0  0  0  0  0  0  0  0
  153.4685  142.7892  158.9805 H   0  0  0  0  0  0  0  0  0  0  0  0
  151.0719  143.1763  158.0969 H   0  0  0  0  0  0  0  0  0  0  0  0
  149.5802  140.6507  157.9383 H   0  0  0  0  0  0  0  0  0  0  0  0
  147.5067  141.9461  157.8034 H   0  0  0  0  0  0  0  0  0  0  0  0
  148.3903  143.4636  157.8122 H   0  0  0  0  0  0  0  0  0  0  0  0
  148.4061  142.4253  159.2364 H   0  0  0  0  0  0  0  0  0  0  0  0
  150.1132  142.6397  155.7289 H   0  0  0  0  0  0  0  0  0  0  0  0
  150.4527  140.9335  155.7336 H   0  0  0  0  0  0  0  0  0  0  0  0
  147.7679  140.7662  156.0300 H   0  0  0  0  0  0  0  0  0  0  0  0
  147.8106  142.3399  155.2929 H   0  0  0  0  0  0  0  0  0  0  0  0
  149.1514  141.3148  153.3896 H   0  0  0  0  0  0  0  0  0  0  0  0
  146.3930  140.0819  153.8803 H   0  0  0  0  0  0  0  0  0  0  0  0
  147.2236  140.1240  152.3282 H   0  0  0  0  0  0  0  0  0  0  0  0
  146.7114  141.6212  153.0833 H   0  0  0  0  0  0  0  0  0  0  0  0
  148.4905  138.6714  154.7635 H   0  0  0  0  0  0  0  0  0  0  0  0
  150.0943  139.3829  154.6092 H   0  0  0  0  0  0  0  0  0  0  0  0
  149.2303  138.8512  153.1743 H   0  0  0  0  0  0  0  0  0  0  0  0
  1  2  1  0  0  0  0
  1 21  1  0  0  0  0
  1 22  1  0  0  0  0
  1 23  1  0  0  0  0
  2 20  1  0  0  0  0
  2  3  2  0  0  0  0
  3  4  1  0  0  0  0
  4  5  1  0  0  0  0
  4  6  2  0  0  0  0
  5 24  1  0  0  0  0
  5 25  1  0  0  0  0
  5 26  1  0  0  0  0
  6  7  1  0  0  0  0
  6 18  1  0  0  0  0
  7  8  1  0  0  0  0
  7 27  1  0  0  0  0
  7 28  1  0  0  0  0
  8  9  2  0  0  0  0
  8 10  1  0  0  0  0
 10 11  1  0  0  0  0
 10 29  1  0  0  0  0
 11 12  1  0  0  0  0
 11 13  1  0  0  0  0
 11 30  1  0  0  0  0
 12 31  1  0  0  0  0
 12 32  1  0  0  0  0
 12 33  1  0  0  0  0
 13 14  1  0  0  0  0
 13 34  1  0  0  0  0
 13 35  1  0  0  0  0
 14 15  1  0  0  0  0
 14 36  1  0  0  0  0
 14 37  1  0  0  0  0
 15 16  1  0  0  0  0
 15 17  1  0  0  0  0
 15 38  1  0  0  0  0
 16 39  1  0  0  0  0
 16 40  1  0  0  0  0
 16 41  1  0  0  0  0
 17 42  1  0  0  0  0
 17 43  1  0  0  0  0
 17 44  1  0  0  0  0
 18 19  2  0  0  0  0
 18 20  1  0  0  0  0
M  CHG  1  20  -1
M  END
> <s_m_source_file>
AV-unprocessed.smi

> <i_m_source_file_index>
1308

> <i_lp_mmshare_version>
43012

> <i_f3d_flags>
0

> <s_epik_input>
W0NIM11jMW5jKFtDSDNdKWMoYyg9TylbbkhdMSlbQ0gyXUMoPU8pW05IXVtDQEhdKFtDSDNdKVtDSDJdW0NIMl1bQ0hdKFtDSDNdKVtDSDNd

> <s_epik_cmdline>
J2VwaWtfcHl0aG9uJywgJy1waCcsICc3LjAnLCAnLXRuJywgJzgnLCAnLW1hJywgJzIwMCcsICctbWV0YWxfYmluZGluZycsICctaW1hZScsICc8aW5maWxlLm1hZT4nLCAnLW9tYWUnLCAnPG91dGZpbGUubWFlPic=

> <r_lp_tautomer_probability>
0.839158

> <r_epik_Ionization_Penalty>
6.61719

> <r_epik_Ionization_Penalty_Charging>
7.20681e-08

> <r_epik_Ionization_Penalty_Neutral>
6.61719

> <r_epik_State_Penalty>
4.43758

> <r_epik_Charging_Adjusted_Penalty>
4.43758

> <i_epik_Tot_Q>
-1

> <i_epik_Tot_abs_Q>
1

> <r_epik_Metal_State_Penalty>
0.801586

> <b_epik_Metal_Only>
1

> <s_lp_Force_Field>
OPLS_2005

> <r_lp_Energy>
8.11692

> <b_lp_Chiralities_Consistent>
1

> <s_lp_Variant>
AV-unprocessed.smi:1308-6

> <Gold.Version>
5.8.1

> <Gold.Id.Protein>
6NUR|6NUR_protein|mol2

> <Gold.PLP.Fitness>
40.4477

> <Gold.PLP.PLP>
-38.0478

> <Gold.PLP.part.hbond>
-2.0000

> <Gold.PLP.part.metal>
0.0000

> <Gold.PLP.part.buried>
-1.1294

> <Gold.PLP.part.nonpolar>
-34.3473

> <Gold.PLP.part.repulsive>
0.0552

> <Gold.PLP.ligand.clash>
0.0000

> <Gold.PLP.ligand.torsion>
0.3553

> <Gold.PLP.Chemscore.Hbond>
1.0000

> <Gold.PLP.Chemscore.CHOScore>
0.0000

> <Gold.PLP.Chemscore.Metal>
0.0000

> <Gold.Chemscore.Hbonds>
donor molecule, donor type, donor heavy atom, donor atom, acceptor molecule, acceptor atom, score
      P1  H  7997  8010       L1    19  1.00

> <Gold.PLP.Chemscore.Internal.Correction>
0.1105

> <Gold.Rescore>
     Score         DG    S(hbond)    S(metal)    S(lipo)     H(rot)  DE(clash)    DE(int)     intcor
     12.39     -13.74       0.95        0.00      85.22       1.91       0.01       1.34       ----

> <Gold.Chemscore.Fitness>
12.3885

> <Gold.Chemscore.DG>
-13.7420

> <Gold.Chemscore.ZeroCoef>
-5.4800

> <Gold.Chemscore.Hbond>
0.9537

> <Gold.Chemscore.Metal>
0.0000

> <Gold.Chemscore.Lipo>
85.2213

> <Gold.Chemscore.Internal_Hbond>
0.0000

> <Gold.Chemscore.DEClash>
0.0133

> <Gold.Chemscore.DEInternal>
1.3402

> <Gold.Chemscore.Rot>
1.9118

> <Gold.Chemscore.Internal.Correction>
   9.000000E+99

> <Gold.Chemscore.Hbonds>
donor molecule, donor type, donor heavy atom, donor atom, acceptor molecule, acceptor atom, score
      P1  H  7997  8010       L1    19  0.93

> <Gold.Chemscore.Hbond.Weighted>
-3.1854

> <Gold.Chemscore.Metal.Weighted>
-0.0000

> <Gold.Chemscore.Lipo.Weighted>
-9.9709

> <Gold.Chemscore.Internal_Hbond.Weighted>
0.0000

> <Gold.Chemscore.DEClash.Weighted>
0.0133

> <Gold.Chemscore.DEInternal.Weighted>
1.3402

> <Gold.Chemscore.Rot.Weighted>
4.8943

> <Gold.Chemscore.Internal.Correction.Weighted>
   9.000000E+99

> <Gold.Protein.RotatedTorsions>
[ 6907 6896 6895 6894 ] final  170.27 input  -60.11 | X-H torsion
[ 7974 7965 7964 7962 ] final  154.39 input  175.53 | X-H torsion
[ 8008 7997 7996 7995 ] final    0.96 input   59.86 | X-H torsion
[ 10167 10162 10161 10158 ] final  -90.53 input  -65.29 | X-H torsion
[ 10718 10713 10712 10709 ] final  -47.02 input   66.30 | X-H torsion
[ 10763 10752 10751 10750 ] final  155.42 input  -60.55 | X-H torsion
[ 11005 11000 10999 10996 ] final  101.26 input  -57.11 | X-H torsion

> <Gold.Protein.ActiveResidues>
 VAL166  LYS551  ARG553  GLY616  TRP617  ASP618  TYR619  PRO620  LYS621  CYS622 
 ASP623  PHE694  ASN695  SER759  ASP760  ASP761  ALA762  ILE779  LEU786  VAL792 
 PHE793  MET794  SER795  GLU796  ALA797  LYS798  CYS799  TRP800  GLU811  SER814 

> <Gold.Protein.RotatedAtoms>
  151.8188  133.3391  159.3577 H   0  0  0  0  0  0  0  0  0  0  0  0  # atno 6907 bound_to 6896
  150.7301  134.5594  159.5844 H   0  0  0  0  0  0  0  0  0  0  0  0  # atno 6908 bound_to 6896
  152.3021  134.7599  160.0406 H   0  0  0  0  0  0  0  0  0  0  0  0  # atno 6909 bound_to 6896
  144.8092  139.6927  143.6149 H   0  0  0  0  0  0  0  0  0  0  0  0  # atno 7974 bound_to 7965
  154.6742  140.2618  155.6975 H   0  0  0  0  0  0  0  0  0  0  0  0  # atno 8008 bound_to 7997
  156.2671  140.2823  156.1185 H   0  0  0  0  0  0  0  0  0  0  0  0  # atno 8009 bound_to 7997
  155.1124  140.0376  157.2718 H   0  0  0  0  0  0  0  0  0  0  0  0  # atno 8010 bound_to 7997
  140.3539  143.2876  151.9693 H   0  0  0  0  0  0  0  0  0  0  0  0  # atno 10167 bound_to 10162
  156.2125  130.4161  149.9096 H   0  0  0  0  0  0  0  0  0  0  0  0  # atno 10718 bound_to 10713
  154.1680  135.2806  155.3089 H   0  0  0  0  0  0  0  0  0  0  0  0  # atno 10763 bound_to 10752
  154.6096  135.5503  153.7463 H   0  0  0  0  0  0  0  0  0  0  0  0  # atno 10764 bound_to 10752
  153.0173  135.6412  154.1821 H   0  0  0  0  0  0  0  0  0  0  0  0  # atno 10765 bound_to 10752
  139.8773  134.9175  156.4880 H   0  0  0  0  0  0  0  0  0  0  0  0  # atno 11005 bound_to 11000
  146.2388  139.5959  142.9505 LP  0  0  0  0  0  0  0  0  0  0  0  0  # atno 17320 bound_to 7965
  145.5365  141.0424  143.2354 LP  0  0  0  0  0  0  0  0  0  0  0  0  # atno 17321 bound_to 7965
  139.4822  144.6052  151.7535 LP  0  0  0  0  0  0  0  0  0  0  0  0  # atno 17342 bound_to 10162
  140.5192  144.0905  150.6017 LP  0  0  0  0  0  0  0  0  0  0  0  0  # atno 17343 bound_to 10162
  156.6770  130.8843  151.3570 LP  0  0  0  0  0  0  0  0  0  0  0  0  # atno 17370 bound_to 10713
  157.7046  130.9370  150.0890 LP  0  0  0  0  0  0  0  0  0  0  0  0  # atno 17371 bound_to 10713
  140.8679  133.8010  155.9333 LP  0  0  0  0  0  0  0  0  0  0  0  0  # atno 17394 bound_to 11000
  140.8983  134.2410  157.5056 LP  0  0  0  0  0  0  0  0  0  0  0  0  # atno 17395 bound_to 11000

$$$$
