AV-unprocessed.smi:1107|AV-procd|sdf|4783|dock1
  -GOLD-   22720 3323D 1   1.00000     0.00000
 Structure written by MMmdl.
 49 50  0  0  0  0  0  0  0  0  2 V2000
  150.9861  142.7209  156.8923 C   0  0  0  0  0  0  0  0  0  0  0  0
  151.1566  141.3727  156.2265 C   0  0  0  0  0  0  0  0  0  0  0  0
  150.0641  140.9851  155.4683 N   0  0  0  0  0  0  0  0  0  0  0  0
  150.1273  139.7657  154.8175 C   0  0  0  0  0  0  0  0  0  0  0  0
  148.8855  139.4093  154.0197 C   0  0  0  0  0  0  0  0  0  0  0  0
  151.2249  138.9737  154.9166 C   0  0  0  0  0  0  0  0  0  0  0  0
  151.3320  137.6094  154.2332 C   0  0  0  0  0  0  0  0  0  0  0  0
  150.8448  136.3917  155.0269 C   0  0  0  0  0  0  0  0  0  0  0  0
  151.2667  136.2062  156.1672 O   0  0  0  0  0  0  0  0  0  0  0  0
  149.9429  135.5873  154.4388 N   0  0  0  0  0  0  0  0  0  0  0  0
  149.3103  134.4115  155.0344 C   0  0  2  0  0  0  0  0  0  0  0  0
  150.3618  133.6305  155.8338 C   0  0  0  0  0  0  0  0  0  0  0  0
  148.6572  133.5268  153.9480 C   0  0  0  0  0  0  0  0  0  0  0  0
  147.6015  134.2365  153.1806 N   0  3  0  0  0  0  0  0  0  0  0  0
  146.9234  133.3654  152.1868 C   0  0  0  0  0  0  0  0  0  0  0  0
  145.9611  134.1812  151.3068 C   0  0  0  0  0  0  0  0  0  0  0  0
  144.9375  134.9381  152.1634 C   0  0  0  0  0  0  0  0  0  0  0  0
  145.6607  135.7982  153.2083 C   0  0  0  0  0  0  0  0  0  0  0  0
  146.6252  134.9457  154.0489 C   0  0  0  0  0  0  0  0  0  0  0  0
  152.3586  139.4371  155.7508 C   0  0  0  0  0  0  0  0  0  0  0  0
  153.3682  138.7499  155.9005 O   0  0  0  0  0  0  0  0  0  0  0  0
  152.2459  140.6839  156.3865 N   0  0  0  0  0  0  0  0  0  0  0  0
  149.2300  141.5453  155.3654 H   0  0  0  0  0  0  0  0  0  0  0  0
  151.8693  142.9823  157.4766 H   0  0  0  0  0  0  0  0  0  0  0  0
  150.1258  142.7085  157.5621 H   0  0  0  0  0  0  0  0  0  0  0  0
  150.8316  143.4980  156.1431 H   0  0  0  0  0  0  0  0  0  0  0  0
  149.1244  139.3308  152.9591 H   0  0  0  0  0  0  0  0  0  0  0  0
  148.1050  140.1632  154.1317 H   0  0  0  0  0  0  0  0  0  0  0  0
  148.4787  138.4544  154.3543 H   0  0  0  0  0  0  0  0  0  0  0  0
  152.3636  137.4297  153.9278 H   0  0  0  0  0  0  0  0  0  0  0  0
  150.7702  137.6343  153.2994 H   0  0  0  0  0  0  0  0  0  0  0  0
  149.6614  135.8186  153.4966 H   0  0  0  0  0  0  0  0  0  0  0  0
  148.5467  134.7327  155.7440 H   0  0  0  0  0  0  0  0  0  0  0  0
  149.9199  132.7572  156.3145 H   0  0  0  0  0  0  0  0  0  0  0  0
  150.7996  134.2498  156.6173 H   0  0  0  0  0  0  0  0  0  0  0  0
  151.1726  133.2825  155.1929 H   0  0  0  0  0  0  0  0  0  0  0  0
  149.4425  133.2052  153.2620 H   0  0  0  0  0  0  0  0  0  0  0  0
  148.2465  132.6147  154.3842 H   0  0  0  0  0  0  0  0  0  0  0  0
  147.6663  132.8852  151.5487 H   0  0  0  0  0  0  0  0  0  0  0  0
  146.3843  132.5704  152.7042 H   0  0  0  0  0  0  0  0  0  0  0  0
  146.5300  134.8907  150.7042 H   0  0  0  0  0  0  0  0  0  0  0  0
  145.4465  133.5233  150.6058 H   0  0  0  0  0  0  0  0  0  0  0  0
  144.3051  135.5632  151.5323 H   0  0  0  0  0  0  0  0  0  0  0  0
  144.2772  134.2279  152.6628 H   0  0  0  0  0  0  0  0  0  0  0  0
  146.2163  136.5935  152.7095 H   0  0  0  0  0  0  0  0  0  0  0  0
  144.9333  136.2879  153.8564 H   0  0  0  0  0  0  0  0  0  0  0  0
  146.0665  134.2195  154.6414 H   0  0  0  0  0  0  0  0  0  0  0  0
  147.1474  135.5917  154.7541 H   0  0  0  0  0  0  0  0  0  0  0  0
  148.0802  134.9461  152.6441 H   0  0  0  0  0  0  0  0  0  0  0  0
  1 24  1  0  0  0  0
  1 25  1  0  0  0  0
  1 26  1  0  0  0  0
  1  2  1  0  0  0  0
  2  3  1  0  0  0  0
  2 22  2  0  0  0  0
  3  4  1  0  0  0  0
  3 23  1  0  0  0  0
  4  6  2  0  0  0  0
  4  5  1  0  0  0  0
  5 27  1  0  0  0  0
  5 28  1  0  0  0  0
  5 29  1  0  0  0  0
  6 20  1  0  0  0  0
  6  7  1  0  0  0  0
  7  8  1  0  0  0  0
  7 30  1  0  0  0  0
  7 31  1  0  0  0  0
  8  9  2  0  0  0  0
  8 10  1  0  0  0  0
 10 11  1  0  0  0  0
 10 32  1  0  0  0  0
 11 12  1  0  0  0  0
 11 13  1  0  0  0  0
 11 33  1  0  0  0  0
 12 34  1  0  0  0  0
 12 35  1  0  0  0  0
 12 36  1  0  0  0  0
 13 14  1  0  0  0  0
 13 37  1  0  0  0  0
 13 38  1  0  0  0  0
 14 19  1  0  0  0  0
 14 15  1  0  0  0  0
 14 49  1  0  0  0  0
 15 16  1  0  0  0  0
 15 39  1  0  0  0  0
 15 40  1  0  0  0  0
 16 17  1  0  0  0  0
 16 41  1  0  0  0  0
 16 42  1  0  0  0  0
 17 18  1  0  0  0  0
 17 43  1  0  0  0  0
 17 44  1  0  0  0  0
 18 19  1  0  0  0  0
 18 45  1  0  0  0  0
 18 46  1  0  0  0  0
 19 47  1  0  0  0  0
 19 48  1  0  0  0  0
 20 21  2  0  0  0  0
 20 22  1  0  0  0  0
M  CHG  1  14   1
M  END
> <s_m_source_file>
AV-unprocessed.smi

> <i_m_source_file_index>
1107

> <i_lp_mmshare_version>
43012

> <i_f3d_flags>
0

> <s_epik_input>
W0NIM11jMW5jKFtDSDNdKWMoYyg9TylbbkhdMSlbQ0gyXUMoPU8pW05IXVtDQEhdKFtDSDNdKVtDSDJdTjJbQ0gyXVtDSDJdW0NIMl1bQ0gyXVtDSDJdMg==

> <s_epik_cmdline>
J2VwaWtfcHl0aG9uJywgJy1waCcsICc3LjAnLCAnLXRuJywgJzgnLCAnLW1hJywgJzIwMCcsICctbWV0YWxfYmluZGluZycsICctaW1hZScsICc8aW5maWxlLm1hZT4nLCAnLW9tYWUnLCAnPG91dGZpbGUubWFlPic=

> <r_lp_tautomer_probability>
0.156392

> <r_epik_Ionization_Penalty>
0.0190033

> <r_epik_Ionization_Penalty_Charging>
0.0189172

> <r_epik_Ionization_Penalty_Neutral>
8.60838e-05

> <r_epik_State_Penalty>
1.15342

> <r_epik_Charging_Adjusted_Penalty>
1.17233

> <i_epik_Tot_Q>
1

> <i_epik_Tot_abs_Q>
1

> <r_epik_Metal_State_Penalty>
1.34593

> <b_epik_Metal_Only>
0

> <s_lp_Force_Field>
OPLS_2005

> <r_lp_Energy>
27.2894

> <b_lp_Chiralities_Consistent>
1

> <s_lp_Variant>
AV-unprocessed.smi:1107-3

> <Gold.Version>
5.8.1

> <Gold.Id.Protein>
6NUR|6NUR_protein|mol2

> <Gold.PLP.Fitness>
46.5425

> <Gold.PLP.PLP>
-37.2577

> <Gold.PLP.part.hbond>
-3.6559

> <Gold.PLP.part.metal>
0.0000

> <Gold.PLP.part.buried>
-2.6726

> <Gold.PLP.part.nonpolar>
-31.6771

> <Gold.PLP.part.repulsive>
0.1732

> <Gold.PLP.ligand.clash>
0.0000

> <Gold.PLP.ligand.torsion>
0.7018

> <Gold.PLP.Chemscore.Hbond>
3.5180

> <Gold.PLP.Chemscore.CHOScore>
0.0000

> <Gold.PLP.Chemscore.Metal>
0.0000

> <Gold.Chemscore.Hbonds>
donor molecule, donor type, donor heavy atom, donor atom, acceptor molecule, acceptor atom, score
      L1  H    10    32       P1  7948  0.85
      L1  H    14    49       P1  7948  2.00
      P1  H  7997  8010       L1    21  0.53

> <Gold.PLP.Chemscore.Internal.Correction>
0.1345

> <Gold.Rescore>
     Score         DG    S(hbond)    S(metal)    S(lipo)     H(rot)  DE(clash)    DE(int)     intcor
     13.21     -15.29       2.32        0.00      61.10       1.98       0.01       2.08       ----

> <Gold.Chemscore.Fitness>
13.2065

> <Gold.Chemscore.DG>
-15.2891

> <Gold.Chemscore.ZeroCoef>
-5.4800

> <Gold.Chemscore.Hbond>
2.3170

> <Gold.Chemscore.Metal>
0.0000

> <Gold.Chemscore.Lipo>
61.0994

> <Gold.Chemscore.Internal_Hbond>
0.0000

> <Gold.Chemscore.DEClash>
0.0057

> <Gold.Chemscore.DEInternal>
2.0769

> <Gold.Chemscore.Rot>
1.9837

> <Gold.Chemscore.Internal.Correction>
   9.000000E+99

> <Gold.Chemscore.Hbonds>
donor molecule, donor type, donor heavy atom, donor atom, acceptor molecule, acceptor atom, score
      L1  H    10    32       P1  7948  0.15
      L1  H    14    49       P1  7948  0.85
      P1  H  7997  8010       L1    21  0.12

> <Gold.Chemscore.Hbond.Weighted>
-7.7388

> <Gold.Chemscore.Metal.Weighted>
-0.0000

> <Gold.Chemscore.Lipo.Weighted>
-7.1486

> <Gold.Chemscore.Internal_Hbond.Weighted>
0.0000

> <Gold.Chemscore.DEClash.Weighted>
0.0057

> <Gold.Chemscore.DEInternal.Weighted>
2.0769

> <Gold.Chemscore.Rot.Weighted>
5.0783

> <Gold.Chemscore.Internal.Correction.Weighted>
   9.000000E+99

> <Gold.Protein.RotatedTorsions>
[ 6907 6896 6895 6894 ] final   97.50 input  -60.11 | X-H torsion
[ 7974 7965 7964 7962 ] final   34.26 input  175.53 | X-H torsion
[ 8008 7997 7996 7995 ] final   49.49 input   59.86 | X-H torsion
[ 10167 10162 10161 10158 ] final -141.67 input  -65.29 | X-H torsion
[ 10718 10713 10712 10709 ] final   29.66 input   66.30 | X-H torsion
[ 10763 10752 10751 10750 ] final   56.14 input  -60.55 | X-H torsion
[ 11005 11000 10999 10996 ] final   -3.77 input  -57.11 | X-H torsion

> <Gold.Protein.ActiveResidues>
 VAL166  LYS551  ARG553  GLY616  TRP617  ASP618  TYR619  PRO620  LYS621  CYS622 
 ASP623  PHE694  ASN695  SER759  ASP760  ASP761  ALA762  ILE779  LEU786  VAL792 
 PHE793  MET794  SER795  GLU796  ALA797  LYS798  CYS799  TRP800  GLU811  SER814 

> <Gold.Protein.RotatedAtoms>
  152.5422  134.0723  159.8199 H   0  0  0  0  0  0  0  0  0  0  0  0  # atno 6907 bound_to 6896
  151.0836  133.5363  159.2626 H   0  0  0  0  0  0  0  0  0  0  0  0  # atno 6908 bound_to 6896
  151.2181  135.0516  159.8992 H   0  0  0  0  0  0  0  0  0  0  0  0  # atno 6909 bound_to 6896
  146.1365  139.6292  142.9192 H   0  0  0  0  0  0  0  0  0  0  0  0  # atno 7974 bound_to 7965
  155.4031  140.3439  155.4258 H   0  0  0  0  0  0  0  0  0  0  0  0  # atno 8008 bound_to 7997
  156.1492  140.1566  156.8829 H   0  0  0  0  0  0  0  0  0  0  0  0  # atno 8009 bound_to 7997
  154.5037  140.0808  156.7832 H   0  0  0  0  0  0  0  0  0  0  0  0  # atno 8010 bound_to 7997
  139.8162  143.7635  152.2665 H   0  0  0  0  0  0  0  0  0  0  0  0  # atno 10167 bound_to 10162
  157.2495  130.7108  149.6398 H   0  0  0  0  0  0  0  0  0  0  0  0  # atno 10718 bound_to 10713
  152.9827  135.5686  154.5181 H   0  0  0  0  0  0  0  0  0  0  0  0  # atno 10763 bound_to 10752
  154.4674  135.2783  155.1670 H   0  0  0  0  0  0  0  0  0  0  0  0  # atno 10764 bound_to 10752
  154.3233  135.6264  153.5571 H   0  0  0  0  0  0  0  0  0  0  0  0  # atno 10765 bound_to 10752
  140.6729  133.9220  155.8506 H   0  0  0  0  0  0  0  0  0  0  0  0  # atno 11005 bound_to 11000
  145.5144  141.0434  143.2470 LP  0  0  0  0  0  0  0  0  0  0  0  0  # atno 17320 bound_to 7965
  144.7745  139.6660  143.7180 LP  0  0  0  0  0  0  0  0  0  0  0  0  # atno 17321 bound_to 7965
  139.7799  144.7448  151.0103 LP  0  0  0  0  0  0  0  0  0  0  0  0  # atno 17342 bound_to 10162
  140.7815  143.4553  151.0355 LP  0  0  0  0  0  0  0  0  0  0  0  0  # atno 17343 bound_to 10162
  155.9667  130.4432  150.5412 LP  0  0  0  0  0  0  0  0  0  0  0  0  # atno 17370 bound_to 10713
  157.3293  131.0696  151.1873 LP  0  0  0  0  0  0  0  0  0  0  0  0  # atno 17371 bound_to 10713
  141.0378  134.0665  157.3939 LP  0  0  0  0  0  0  0  0  0  0  0  0  # atno 17394 bound_to 11000
  139.8976  135.0151  156.7107 LP  0  0  0  0  0  0  0  0  0  0  0  0  # atno 17395 bound_to 11000

$$$$
