AV-unprocessed.smi:2705|AV-procd|sdf|10443|dock4
  -GOLD-   2272014483D 1   1.00000     0.00000
 Structure written by MMmdl.
 36 37  0  0  0  0  0  0  0  0  1 V2000
  152.9334  144.0408  158.4429 C   0  0  0  0  0  0  0  0  0  0  0  0
  152.5355  142.9240  159.4356 C   0  0  0  0  0  0  0  0  0  0  0  0
  151.8280  141.8575  158.7131 N   0  0  0  0  0  0  0  0  0  0  0  0
  150.5768  141.8622  158.2179 C   0  0  0  0  0  0  0  0  0  0  0  0
  149.8175  142.8290  158.2664 O   0  0  0  0  0  0  0  0  0  0  0  0
  150.1033  140.5565  157.5812 C   0  0  0  0  0  0  0  0  0  0  0  0
  149.9787  140.7031  156.1428 N   0  0  0  0  0  0  0  0  0  0  0  0
  149.3289  141.6063  155.4049 C   0  0  0  0  0  0  0  0  0  0  0  0
  149.4820  141.3813  154.1091 N   0  0  0  0  0  0  0  0  0  0  0  0
  150.2856  140.2538  154.0789 N   0  0  0  0  0  0  0  0  0  0  0  0
  150.5838  139.8471  155.2824 N   0  0  0  0  0  0  0  0  0  0  0  0
  153.8392  142.2939  159.9894 C   0  0  0  0  0  0  0  0  0  0  0  0
  153.6840  141.4240  161.2502 C   0  0  0  0  0  0  0  0  0  0  0  0
  153.8403  142.2356  162.5480 C   0  0  0  0  0  0  0  0  0  0  0  0
  152.6700  143.1793  162.8637 C   0  0  0  0  0  0  0  0  0  0  0  0
  152.3174  144.1719  161.7411 C   0  0  0  0  0  0  0  0  0  0  0  0
  151.6128  143.4949  160.5513 C   0  0  0  0  0  0  0  0  0  0  0  0
  153.5125  144.8212  158.9371 H   0  0  0  0  0  0  0  0  0  0  0  0
  152.0665  144.5272  157.9957 H   0  0  0  0  0  0  0  0  0  0  0  0
  153.5441  143.6486  157.6287 H   0  0  0  0  0  0  0  0  0  0  0  0
  152.3491  141.0000  158.6012 H   0  0  0  0  0  0  0  0  0  0  0  0
  150.8073  139.7536  157.8059 H   0  0  0  0  0  0  0  0  0  0  0  0
  149.1361  140.2628  157.9913 H   0  0  0  0  0  0  0  0  0  0  0  0
  148.7548  142.4248  155.8139 H   0  0  0  0  0  0  0  0  0  0  0  0
  154.2942  141.6881  159.2038 H   0  0  0  0  0  0  0  0  0  0  0  0
  154.5767  143.0723  160.1901 H   0  0  0  0  0  0  0  0  0  0  0  0
  152.7440  140.8711  161.2405 H   0  0  0  0  0  0  0  0  0  0  0  0
  154.4717  140.6698  161.2377 H   0  0  0  0  0  0  0  0  0  0  0  0
  153.9549  141.5430  163.3824 H   0  0  0  0  0  0  0  0  0  0  0  0
  154.7692  142.8061  162.5128 H   0  0  0  0  0  0  0  0  0  0  0  0
  151.7885  142.5929  163.1255 H   0  0  0  0  0  0  0  0  0  0  0  0
  152.9222  143.7437  163.7621 H   0  0  0  0  0  0  0  0  0  0  0  0
  151.6311  144.9082  162.1607 H   0  0  0  0  0  0  0  0  0  0  0  0
  153.1937  144.7356  161.4199 H   0  0  0  0  0  0  0  0  0  0  0  0
  150.9310  144.2204  160.1054 H   0  0  0  0  0  0  0  0  0  0  0  0
  150.9615  142.7098  160.9392 H   0  0  0  0  0  0  0  0  0  0  0  0
  1  2  1  0  0  0  0
  1 18  1  0  0  0  0
  1 19  1  0  0  0  0
  1 20  1  0  0  0  0
  2 17  1  0  0  0  0
  2  3  1  0  0  0  0
  2 12  1  0  0  0  0
  3  4  1  0  0  0  0
  3 21  1  0  0  0  0
  4  5  2  0  0  0  0
  4  6  1  0  0  0  0
  6  7  1  0  0  0  0
  6 22  1  0  0  0  0
  6 23  1  0  0  0  0
  7 11  1  0  0  0  0
  7  8  1  0  0  0  0
  8  9  2  0  0  0  0
  8 24  1  0  0  0  0
  9 10  1  0  0  0  0
 10 11  2  0  0  0  0
 12 13  1  0  0  0  0
 12 25  1  0  0  0  0
 12 26  1  0  0  0  0
 13 14  1  0  0  0  0
 13 27  1  0  0  0  0
 13 28  1  0  0  0  0
 14 15  1  0  0  0  0
 14 29  1  0  0  0  0
 14 30  1  0  0  0  0
 15 16  1  0  0  0  0
 15 31  1  0  0  0  0
 15 32  1  0  0  0  0
 16 17  1  0  0  0  0
 16 33  1  0  0  0  0
 16 34  1  0  0  0  0
 17 35  1  0  0  0  0
 17 36  1  0  0  0  0
M  END
> <s_m_source_file>
AV-unprocessed.smi

> <i_m_source_file_index>
2705

> <i_lp_mmshare_version>
43012

> <i_f3d_flags>
0

> <s_epik_input>
W0NIMl0xW0NIMl1bQ0gyXVtDSDJdW0NIMl1bQ0gyXUMxKFtDSDNdKVtOSF1DKD1PKVtDSDJdbjJbY0hdbm5uMg==

> <s_epik_cmdline>
J2VwaWtfcHl0aG9uJywgJy1waCcsICc3LjAnLCAnLXRuJywgJzgnLCAnLW1hJywgJzIwMCcsICctbWV0YWxfYmluZGluZycsICctaW1hZScsICc8aW5maWxlLm1hZT4nLCAnLW9tYWUnLCAnPG91dGZpbGUubWFlPic=

> <r_lp_tautomer_probability>
1

> <r_epik_Ionization_Penalty>
4.39395e-07

> <r_epik_Ionization_Penalty_Charging>
0

> <r_epik_Ionization_Penalty_Neutral>
4.39395e-07

> <r_epik_State_Penalty>
-0

> <r_epik_Charging_Adjusted_Penalty>
0

> <i_epik_Tot_Q>
0

> <i_epik_Tot_abs_Q>
0

> <r_epik_Metal_State_Penalty>
-0

> <b_epik_Metal_Only>
0

> <s_lp_Force_Field>
OPLS_2005

> <r_lp_Energy>
20.5987

> <b_lp_Chiralities_Consistent>
1

> <s_lp_Variant>
AV-unprocessed.smi:2705-1

> <Gold.Version>
5.8.1

> <Gold.Id.Protein>
6NUR|6NUR_protein|mol2

> <Gold.PLP.Fitness>
42.7489

> <Gold.PLP.PLP>
-35.6295

> <Gold.PLP.part.hbond>
-2.9687

> <Gold.PLP.part.metal>
0.0000

> <Gold.PLP.part.buried>
-0.7721

> <Gold.PLP.part.nonpolar>
-32.6967

> <Gold.PLP.part.repulsive>
1.4411

> <Gold.PLP.ligand.clash>
0.0000

> <Gold.PLP.ligand.torsion>
0.3452

> <Gold.PLP.Chemscore.Hbond>
1.6006

> <Gold.PLP.Chemscore.CHOScore>
1.0000

> <Gold.PLP.Chemscore.Metal>
0.0000

> <Gold.Chemscore.Hbonds>
donor molecule, donor type, donor heavy atom, donor atom, acceptor molecule, acceptor atom, score
      P1  H  7989  7998       L1    10  0.94
      P1  H  8011  8017       L1     9  0.63
      L1  C     8    24       P1  8028  1.00

> <Gold.PLP.Chemscore.Internal.Correction>
0.0080

> <Gold.Rescore>
     Score         DG    S(hbond)    S(metal)    S(lipo)     H(rot)  DE(clash)    DE(int)     intcor
     11.17     -14.73       0.78        0.00      98.56       1.91       2.17       1.39       ----

> <Gold.Chemscore.Fitness>
11.1699

> <Gold.Chemscore.DG>
-14.7276

> <Gold.Chemscore.ZeroCoef>
-5.4800

> <Gold.Chemscore.Hbond>
0.7769

> <Gold.Chemscore.Metal>
0.0000

> <Gold.Chemscore.Lipo>
98.5612

> <Gold.Chemscore.Internal_Hbond>
0.0000

> <Gold.Chemscore.DEClash>
2.1711

> <Gold.Chemscore.DEInternal>
1.3866

> <Gold.Chemscore.Rot>
1.9058

> <Gold.Chemscore.Internal.Correction>
   9.000000E+99

> <Gold.Chemscore.Hbonds>
donor molecule, donor type, donor heavy atom, donor atom, acceptor molecule, acceptor atom, score
      P1  H  7989  7998       L1    10  0.14
      P1  H  8011  8017       L1     9  0.36

> <Gold.Chemscore.Hbond.Weighted>
-2.5947

> <Gold.Chemscore.Metal.Weighted>
-0.0000

> <Gold.Chemscore.Lipo.Weighted>
-11.5317

> <Gold.Chemscore.Internal_Hbond.Weighted>
0.0000

> <Gold.Chemscore.DEClash.Weighted>
2.1711

> <Gold.Chemscore.DEInternal.Weighted>
1.3866

> <Gold.Chemscore.Rot.Weighted>
4.8788

> <Gold.Chemscore.Internal.Correction.Weighted>
   9.000000E+99

> <Gold.Protein.RotatedTorsions>
[ 6907 6896 6895 6894 ] final  127.16 input  -60.11 | X-H torsion
[ 7974 7965 7964 7962 ] final  -31.17 input  175.53 | X-H torsion
[ 8008 7997 7996 7995 ] final   56.48 input   59.86 | X-H torsion
[ 10167 10162 10161 10158 ] final   67.76 input  -65.29 | X-H torsion
[ 10718 10713 10712 10709 ] final -163.67 input   66.30 | X-H torsion
[ 10763 10752 10751 10750 ] final   49.92 input  -60.55 | X-H torsion
[ 11005 11000 10999 10996 ] final  129.51 input  -57.11 | X-H torsion

> <Gold.Protein.ActiveResidues>
 VAL166  LYS551  ARG553  GLY616  TRP617  ASP618  TYR619  PRO620  LYS621  CYS622 
 ASP623  PHE694  ASN695  SER759  ASP760  ASP761  ALA762  ILE779  LEU786  VAL792 
 PHE793  MET794  SER795  GLU796  ALA797  LYS798  CYS799  TRP800  GLU811  SER814 

> <Gold.Protein.RotatedAtoms>
  152.3838  133.6582  159.6181 H   0  0  0  0  0  0  0  0  0  0  0  0  # atno 6907 bound_to 6896
  150.7762  133.9070  159.3367 H   0  0  0  0  0  0  0  0  0  0  0  0  # atno 6908 bound_to 6896
  151.6870  135.0954  160.0278 H   0  0  0  0  0  0  0  0  0  0  0  0  # atno 6909 bound_to 6896
  146.1087  140.5634  142.8787 H   0  0  0  0  0  0  0  0  0  0  0  0  # atno 7974 bound_to 7965
  155.5182  140.3479  155.4401 H   0  0  0  0  0  0  0  0  0  0  0  0  # atno 8008 bound_to 7997
  156.0803  140.1385  156.9748 H   0  0  0  0  0  0  0  0  0  0  0  0  # atno 8009 bound_to 7997
  154.4576  140.0947  156.6777 H   0  0  0  0  0  0  0  0  0  0  0  0  # atno 8010 bound_to 7997
  140.0860  144.5029  150.7130 H   0  0  0  0  0  0  0  0  0  0  0  0  # atno 10167 bound_to 10162
  156.6280  130.8917  151.2971 H   0  0  0  0  0  0  0  0  0  0  0  0  # atno 10718 bound_to 10713
  152.9785  135.5896  154.4168 H   0  0  0  0  0  0  0  0  0  0  0  0  # atno 10763 bound_to 10752
  154.3797  135.2767  155.2220 H   0  0  0  0  0  0  0  0  0  0  0  0  # atno 10764 bound_to 10752
  154.4140  135.6075  153.6024 H   0  0  0  0  0  0  0  0  0  0  0  0  # atno 10765 bound_to 10752
  139.9619  134.9600  156.9158 H   0  0  0  0  0  0  0  0  0  0  0  0  # atno 11005 bound_to 11000
  144.7493  140.5150  143.6813 LP  0  0  0  0  0  0  0  0  0  0  0  0  # atno 17320 bound_to 7965
  145.5707  139.1483  143.3290 LP  0  0  0  0  0  0  0  0  0  0  0  0  # atno 17321 bound_to 7965
  140.7053  143.2463  151.4744 LP  0  0  0  0  0  0  0  0  0  0  0  0  # atno 17342 bound_to 10162
  139.5752  144.1836  152.1893 LP  0  0  0  0  0  0  0  0  0  0  0  0  # atno 17343 bound_to 10162
  157.7208  130.9556  150.1433 LP  0  0  0  0  0  0  0  0  0  0  0  0  # atno 17370 bound_to 10713
  156.2258  130.3678  149.8502 LP  0  0  0  0  0  0  0  0  0  0  0  0  # atno 17371 bound_to 10713
  140.5481  134.0654  155.7361 LP  0  0  0  0  0  0  0  0  0  0  0  0  # atno 17394 bound_to 11000
  141.1297  133.9323  157.2562 LP  0  0  0  0  0  0  0  0  0  0  0  0  # atno 17395 bound_to 11000

$$$$
