AV-unprocessed.smi:152|AV-procd|sdf|1248|dock7
  -GOLD-   2262018473D 1   1.00000     0.00000
 Structure written by MMmdl.
 58 61  0  0  0  0  0  0  0  0  2 V2000
  153.8170  140.8004  161.3211 C   0  0  0  0  0  0  0  0  0  0  0  0
  152.6684  140.9361  160.3111 C   0  0  0  0  0  0  0  0  0  0  0  0
  152.5142  142.3262  159.8146 N   0  3  2  0  0  0  0  0  0  0  0  0
  151.7584  143.2263  160.7133 C   0  0  0  0  0  0  0  0  0  0  0  0
  151.1346  144.3105  159.8232 C   0  0  0  0  0  0  0  0  0  0  0  0
  151.6575  144.0191  158.4160 C   0  0  0  0  0  0  0  0  0  0  0  0
  151.9900  142.5232  158.4407 C   0  0  2  0  0  0  0  0  0  0  0  0
  150.7490  141.6448  158.1225 C   0  0  0  0  0  0  0  0  0  0  0  0
  151.0771  140.4376  157.3646 N   0  0  0  0  0  0  0  0  0  0  0  0
  150.6692  140.4148  155.9670 C   0  0  0  0  0  0  0  0  0  0  0  0
  150.8843  139.2416  157.9710 C   0  0  0  0  0  0  0  0  0  0  0  0
  151.9422  138.5492  158.4708 N   0  0  0  0  0  0  0  0  0  0  0  0
  151.7476  137.3718  159.0727 C   0  0  0  0  0  0  0  0  0  0  0  0
  150.6020  136.7186  159.2776 N   0  0  0  0  0  0  0  0  0  0  0  0
  149.5384  137.4131  158.7808 C   0  0  0  0  0  0  0  0  0  0  0  0
  149.5918  138.6707  158.1177 C   0  0  0  0  0  0  0  0  0  0  0  0
  148.3162  139.0641  157.7352 N   0  0  0  0  0  0  0  0  0  0  0  0
  147.5494  138.0930  158.1501 C   0  0  0  0  0  0  0  0  0  0  0  0
  148.1985  137.0663  158.7995 N   0  0  0  0  0  0  0  0  0  0  0  0
  147.5916  135.8683  159.3594 C   0  0  0  0  0  0  0  0  0  0  0  0
  146.7599  136.1164  160.6482 C   0  0  0  0  0  0  0  0  0  0  0  0
  147.5689  136.8569  161.5426 O   0  0  0  0  0  0  0  0  0  0  0  0
  145.4624  136.9218  160.4226 C   0  0  0  0  0  0  0  0  0  0  0  0
  144.4026  136.0771  159.6953 C   0  0  0  0  0  0  0  0  0  0  0  0
  144.1322  134.8957  160.4426 O   0  0  0  0  0  0  0  0  0  0  0  0
  145.2690  134.0508  160.5905 C   0  0  0  0  0  0  0  0  0  0  0  0
  146.3877  134.7932  161.3454 C   0  0  0  0  0  0  0  0  0  0  0  0
  153.8617  139.7865  161.7186 H   0  0  0  0  0  0  0  0  0  0  0  0
  153.6843  141.4804  162.1630 H   0  0  0  0  0  0  0  0  0  0  0  0
  154.7843  141.0146  160.8668 H   0  0  0  0  0  0  0  0  0  0  0  0
  152.7950  140.2379  159.4835 H   0  0  0  0  0  0  0  0  0  0  0  0
  151.7393  140.6507  160.8060 H   0  0  0  0  0  0  0  0  0  0  0  0
  150.9733  142.6787  161.2372 H   0  0  0  0  0  0  0  0  0  0  0  0
  152.4274  143.6499  161.4631 H   0  0  0  0  0  0  0  0  0  0  0  0
  150.0472  144.2257  159.8434 H   0  0  0  0  0  0  0  0  0  0  0  0
  151.3928  145.3177  160.1520 H   0  0  0  0  0  0  0  0  0  0  0  0
  150.9511  144.3024  157.6350 H   0  0  0  0  0  0  0  0  0  0  0  0
  152.5720  144.5892  158.2465 H   0  0  0  0  0  0  0  0  0  0  0  0
  152.7904  142.3083  157.7324 H   0  0  0  0  0  0  0  0  0  0  0  0
  150.2396  141.3402  159.0365 H   0  0  0  0  0  0  0  0  0  0  0  0
  150.0227  142.2270  157.5544 H   0  0  0  0  0  0  0  0  0  0  0  0
  151.0967  139.5621  155.4384 H   0  0  0  0  0  0  0  0  0  0  0  0
  151.0036  141.3197  155.4596 H   0  0  0  0  0  0  0  0  0  0  0  0
  149.5831  140.3601  155.8855 H   0  0  0  0  0  0  0  0  0  0  0  0
  152.6366  136.8834  159.4437 H   0  0  0  0  0  0  0  0  0  0  0  0
  146.4798  138.1020  157.9982 H   0  0  0  0  0  0  0  0  0  0  0  0
  146.9759  135.4190  158.5810 H   0  0  0  0  0  0  0  0  0  0  0  0
  148.3858  135.1479  159.5597 H   0  0  0  0  0  0  0  0  0  0  0  0
  147.7742  136.3106  162.2858 H   0  0  0  0  0  0  0  0  0  0  0  0
  145.0500  137.2244  161.3864 H   0  0  0  0  0  0  0  0  0  0  0  0
  145.6531  137.8479  159.8814 H   0  0  0  0  0  0  0  0  0  0  0  0
  143.4785  136.6464  159.5955 H   0  0  0  0  0  0  0  0  0  0  0  0
  144.7231  135.8186  158.6855 H   0  0  0  0  0  0  0  0  0  0  0  0
  144.9718  133.1629  161.1485 H   0  0  0  0  0  0  0  0  0  0  0  0
  145.6076  133.7048  159.6135 H   0  0  0  0  0  0  0  0  0  0  0  0
  147.2638  134.1519  161.4490 H   0  0  0  0  0  0  0  0  0  0  0  0
  146.0377  134.9977  162.3587 H   0  0  0  0  0  0  0  0  0  0  0  0
  153.4461  142.7151  159.7889 H   0  0  0  0  0  0  0  0  0  0  0  0
  1  2  1  0  0  0  0
  1 28  1  0  0  0  0
  1 29  1  0  0  0  0
  1 30  1  0  0  0  0
  2  3  1  0  0  0  0
  2 31  1  0  0  0  0
  2 32  1  0  0  0  0
  3  7  1  0  0  0  0
  3  4  1  0  0  0  0
  3 58  1  0  0  0  0
  4  5  1  0  0  0  0
  4 33  1  0  0  0  0
  4 34  1  0  0  0  0
  5  6  1  0  0  0  0
  5 35  1  0  0  0  0
  5 36  1  0  0  0  0
  6  7  1  0  0  0  0
  6 37  1  0  0  0  0
  6 38  1  0  0  0  0
  7  8  1  0  0  0  0
  7 39  1  0  0  0  0
  8  9  1  0  0  0  0
  8 40  1  0  0  0  0
  8 41  1  0  0  0  0
  9 10  1  0  0  0  0
  9 11  1  0  0  0  0
 10 42  1  0  0  0  0
 10 43  1  0  0  0  0
 10 44  1  0  0  0  0
 11 16  1  0  0  0  0
 11 12  2  0  0  0  0
 12 13  1  0  0  0  0
 13 14  2  0  0  0  0
 13 45  1  0  0  0  0
 14 15  1  0  0  0  0
 15 19  1  0  0  0  0
 15 16  2  0  0  0  0
 16 17  1  0  0  0  0
 17 18  2  0  0  0  0
 18 19  1  0  0  0  0
 18 46  1  0  0  0  0
 19 20  1  0  0  0  0
 20 21  1  0  0  0  0
 20 47  1  0  0  0  0
 20 48  1  0  0  0  0
 21 27  1  0  0  0  0
 21 22  1  0  0  0  0
 21 23  1  0  0  0  0
 22 49  1  0  0  0  0
 23 24  1  0  0  0  0
 23 50  1  0  0  0  0
 23 51  1  0  0  0  0
 24 25  1  0  0  0  0
 24 52  1  0  0  0  0
 24 53  1  0  0  0  0
 25 26  1  0  0  0  0
 26 27  1  0  0  0  0
 26 54  1  0  0  0  0
 26 55  1  0  0  0  0
 27 56  1  0  0  0  0
 27 57  1  0  0  0  0
M  CHG  1   3   1
M  END
> <s_m_source_file>
AV-unprocessed.smi

> <i_m_source_file_index>
152

> <i_lp_mmshare_version>
43012

> <i_f3d_flags>
0

> <s_epik_input>
W0NIM11bQ0gyXU4xW0NIMl1bQ0gyXVtDSDJdW0NASF0xW0NIMl1OKFtDSDNdKWMobltjSF1uMiljKGMyMyluW2NIXW4zW0NIMl1DNChbT0hdKVtDSDJdW0NIMl1PW0NIMl1bQ0gyXTQ=

> <s_epik_cmdline>
J2VwaWtfcHl0aG9uJywgJy1waCcsICc3LjAnLCAnLXRuJywgJzgnLCAnLW1hJywgJzIwMCcsICctbWV0YWxfYmluZGluZycsICctaW1hZScsICc8aW5maWxlLm1hZT4nLCAnLW9tYWUnLCAnPG91dGZpbGUubWFlPic=

> <r_lp_tautomer_probability>
1

> <r_epik_Ionization_Penalty>
0.00152183

> <r_epik_Ionization_Penalty_Charging>
0.00112577

> <r_epik_Ionization_Penalty_Neutral>
0.000396066

> <r_epik_State_Penalty>
-0

> <r_epik_Charging_Adjusted_Penalty>
0.00112577

> <i_epik_Tot_Q>
1

> <i_epik_Tot_abs_Q>
1

> <r_epik_Metal_State_Penalty>
-0

> <b_epik_Metal_Only>
0

> <s_lp_Force_Field>
OPLS_2005

> <r_lp_Energy>
47.1196

> <b_lp_Chiralities_Consistent>
1

> <s_lp_Variant>
AV-unprocessed.smi:152-3

> <Gold.Version>
5.8.1

> <Gold.Id.Protein>
6NUR|6NUR_protein|mol2

> <Gold.PLP.Fitness>
48.9666

> <Gold.PLP.PLP>
-46.7708

> <Gold.PLP.part.hbond>
-2.4789

> <Gold.PLP.part.metal>
0.0000

> <Gold.PLP.part.buried>
-5.0281

> <Gold.PLP.part.nonpolar>
-39.7491

> <Gold.PLP.part.repulsive>
0.0575

> <Gold.PLP.ligand.clash>
0.0000

> <Gold.PLP.ligand.torsion>
1.9294

> <Gold.PLP.Chemscore.Hbond>
1.7963

> <Gold.PLP.Chemscore.CHOScore>
0.0000

> <Gold.PLP.Chemscore.Metal>
0.0000

> <Gold.Chemscore.Hbonds>
donor molecule, donor type, donor heavy atom, donor atom, acceptor molecule, acceptor atom, score
      P1  H  6896  6907       L1    14  1.00
      P1  H  6931  6943       L1    22  0.75
      P1  H  6934  6947       L1    22  0.32

> <Gold.PLP.Chemscore.Internal.Correction>
0.6659

> <Gold.Rescore>
     Score         DG    S(hbond)    S(metal)    S(lipo)     H(rot)  DE(clash)    DE(int)     intcor
     15.40     -17.59       1.92        0.00     108.68       2.73       0.25       1.94       ----

> <Gold.Chemscore.Fitness>
15.3960

> <Gold.Chemscore.DG>
-17.5935

> <Gold.Chemscore.ZeroCoef>
-5.4800

> <Gold.Chemscore.Hbond>
1.9160

> <Gold.Chemscore.Metal>
0.0000

> <Gold.Chemscore.Lipo>
108.6765

> <Gold.Chemscore.Internal_Hbond>
0.0000

> <Gold.Chemscore.DEClash>
0.2536

> <Gold.Chemscore.DEInternal>
1.9439

> <Gold.Chemscore.Rot>
2.7348

> <Gold.Chemscore.Internal.Correction>
   9.000000E+99

> <Gold.Chemscore.Hbonds>
donor molecule, donor type, donor heavy atom, donor atom, acceptor molecule, acceptor atom, score
      P1  H  6896  6907       L1    14  0.55
      P1  H  6931  6943       L1    22  0.10
      P1  H  6934  6947       L1    22  0.14

> <Gold.Chemscore.Hbond.Weighted>
-6.3994

> <Gold.Chemscore.Metal.Weighted>
-0.0000

> <Gold.Chemscore.Lipo.Weighted>
-12.7151

> <Gold.Chemscore.Internal_Hbond.Weighted>
0.0000

> <Gold.Chemscore.DEClash.Weighted>
0.2536

> <Gold.Chemscore.DEInternal.Weighted>
1.9439

> <Gold.Chemscore.Rot.Weighted>
7.0010

> <Gold.Chemscore.Internal.Correction.Weighted>
   9.000000E+99

> <Gold.Protein.RotatedTorsions>
[ 6907 6896 6895 6894 ] final  -31.10 input  -60.11 | X-H torsion
[ 7974 7965 7964 7962 ] final  148.27 input  175.53 | X-H torsion
[ 8008 7997 7996 7995 ] final   88.25 input   59.86 | X-H torsion
[ 10167 10162 10161 10158 ] final   -2.60 input  -65.29 | X-H torsion
[ 10718 10713 10712 10709 ] final    7.58 input   66.30 | X-H torsion
[ 10763 10752 10751 10750 ] final   91.13 input  -60.55 | X-H torsion
[ 11005 11000 10999 10996 ] final   86.76 input  -57.11 | X-H torsion

> <Gold.Protein.ActiveResidues>
 VAL166  LYS551  ARG553  GLY616  TRP617  ASP618  TYR619  PRO620  LYS621  CYS622 
 ASP623  PHE694  ASN695  SER759  ASP760  ASP761  ALA762  ILE779  LEU786  VAL792 
 PHE793  MET794  SER795  GLU796  ALA797  LYS798  CYS799  TRP800  GLU811  SER814 

> <Gold.Protein.RotatedAtoms>
  151.0966  134.9948  159.8428 H   0  0  0  0  0  0  0  0  0  0  0  0  # atno 6907 bound_to 6896
  152.5433  134.2001  159.8718 H   0  0  0  0  0  0  0  0  0  0  0  0  # atno 6908 bound_to 6896
  151.2041  133.4550  159.2630 H   0  0  0  0  0  0  0  0  0  0  0  0  # atno 6909 bound_to 6896
  144.8527  139.6132  143.5966 H   0  0  0  0  0  0  0  0  0  0  0  0  # atno 7974 bound_to 7965
  155.9854  140.3373  155.6702 H   0  0  0  0  0  0  0  0  0  0  0  0  # atno 8008 bound_to 7997
  155.6493  140.0704  157.2610 H   0  0  0  0  0  0  0  0  0  0  0  0  # atno 8009 bound_to 7997
  154.4204  140.1728  156.1644 H   0  0  0  0  0  0  0  0  0  0  0  0  # atno 8010 bound_to 7997
  140.6857  143.6638  150.8244 H   0  0  0  0  0  0  0  0  0  0  0  0  # atno 10167 bound_to 10162
  156.9390  130.5854  149.5652 H   0  0  0  0  0  0  0  0  0  0  0  0  # atno 10718 bound_to 10713
  153.2050  135.4408  155.0312 H   0  0  0  0  0  0  0  0  0  0  0  0  # atno 10763 bound_to 10752
  154.8168  135.3319  154.7155 H   0  0  0  0  0  0  0  0  0  0  0  0  # atno 10764 bound_to 10752
  153.7597  135.6992  153.4984 H   0  0  0  0  0  0  0  0  0  0  0  0  # atno 10765 bound_to 10752
  139.8936  134.8377  156.2765 H   0  0  0  0  0  0  0  0  0  0  0  0  # atno 11005 bound_to 11000
  146.2798  139.6847  142.9237 LP  0  0  0  0  0  0  0  0  0  0  0  0  # atno 17320 bound_to 7965
  145.4468  141.0426  143.2827 LP  0  0  0  0  0  0  0  0  0  0  0  0  # atno 17321 bound_to 7965
  140.0344  143.5410  152.2746 LP  0  0  0  0  0  0  0  0  0  0  0  0  # atno 17342 bound_to 10162
  139.6214  144.7630  151.2731 LP  0  0  0  0  0  0  0  0  0  0  0  0  # atno 17343 bound_to 10162
  156.0413  130.5495  150.8777 LP  0  0  0  0  0  0  0  0  0  0  0  0  # atno 17370 bound_to 10713
  157.5797  131.0946  150.9290 LP  0  0  0  0  0  0  0  0  0  0  0  0  # atno 17371 bound_to 10713
  141.0067  133.7120  156.1045 LP  0  0  0  0  0  0  0  0  0  0  0  0  # atno 17394 bound_to 11000
  140.7424  134.4135  157.5553 LP  0  0  0  0  0  0  0  0  0  0  0  0  # atno 17395 bound_to 11000

$$$$
