AV-unprocessed.smi:1199|AV-procd|sdf|5018|dock6
  -GOLD-   22720 4 33D 1   1.00000     0.00000
 Structure written by MMmdl.
 41 42  0  0  0  0  0  0  0  0  1 V2000
  145.6767  138.2017  154.5228 C   0  0  0  0  0  0  0  0  0  0  0  0
  146.4330  136.8746  154.3777 C   0  0  2  0  0  0  0  0  0  0  0  0
  147.8854  136.9923  154.8923 C   0  0  0  0  0  0  0  0  0  0  0  0
  148.4367  135.7787  155.4986 N   0  0  0  0  0  0  0  0  0  0  0  0
  147.8987  135.5101  156.8293 C   0  0  0  0  0  0  0  0  0  0  0  0
  148.4787  134.2141  157.4208 C   0  0  0  0  0  0  0  0  0  0  0  0
  149.8996  134.3024  157.4596 O   0  0  0  0  0  0  0  0  0  0  0  0
  150.4721  134.5344  156.1763 C   0  0  0  0  0  0  0  0  0  0  0  0
  149.8915  135.8273  155.5763 C   0  0  0  0  0  0  0  0  0  0  0  0
  146.4397  136.4725  152.9721 N   0  0  0  0  0  0  0  0  0  0  0  0
  145.3738  136.0484  152.2753 C   0  0  0  0  0  0  0  0  0  0  0  0
  144.2203  136.0791  152.7055 O   0  0  0  0  0  0  0  0  0  0  0  0
  145.6563  135.4896  150.8759 C   0  0  0  0  0  0  0  0  0  0  0  0
  145.4054  134.0430  150.8073 N   0  0  0  0  0  0  0  0  0  0  0  0
  144.2884  133.6940  150.0638 N   0  0  0  0  0  0  0  0  0  0  0  0
  143.9445  132.4548  149.9613 C   0  0  0  0  0  0  0  0  0  0  0  0
  142.8288  132.1538  149.2197 O   0  0  0  0  0  0  0  0  0  0  0  0
  144.7076  131.4097  150.6075 C   0  0  0  0  0  0  0  0  0  0  0  0
  145.7998  131.7584  151.3222 C   0  0  0  0  0  0  0  0  0  0  0  0
  146.2212  133.1538  151.4549 C   0  0  0  0  0  0  0  0  0  0  0  0
  147.2162  133.4991  152.0924 O   0  0  0  0  0  0  0  0  0  0  0  0
  142.2339  132.8746  149.3590 H   0  0  0  0  0  0  0  0  0  0  0  0
  145.6470  138.5225  155.5644 H   0  0  0  0  0  0  0  0  0  0  0  0
  144.6465  138.1058  154.1784 H   0  0  0  0  0  0  0  0  0  0  0  0
  146.1493  138.9961  153.9439 H   0  0  0  0  0  0  0  0  0  0  0  0
  145.8991  136.1392  154.9805 H   0  0  0  0  0  0  0  0  0  0  0  0
  148.5125  137.2722  154.0445 H   0  0  0  0  0  0  0  0  0  0  0  0
  147.9575  137.8198  155.5994 H   0  0  0  0  0  0  0  0  0  0  0  0
  148.1218  136.3452  157.4949 H   0  0  0  0  0  0  0  0  0  0  0  0
  146.8142  135.4226  156.7933 H   0  0  0  0  0  0  0  0  0  0  0  0
  148.1024  134.0561  158.4314 H   0  0  0  0  0  0  0  0  0  0  0  0
  148.1759  133.3503  156.8264 H   0  0  0  0  0  0  0  0  0  0  0  0
  151.5545  134.6152  156.2775 H   0  0  0  0  0  0  0  0  0  0  0  0
  150.2736  133.6827  155.5240 H   0  0  0  0  0  0  0  0  0  0  0  0
  150.3111  135.9803  154.5813 H   0  0  0  0  0  0  0  0  0  0  0  0
  150.2016  136.6804  156.1816 H   0  0  0  0  0  0  0  0  0  0  0  0
  147.3430  136.4167  152.5246 H   0  0  0  0  0  0  0  0  0  0  0  0
  145.0256  136.0236  150.1631 H   0  0  0  0  0  0  0  0  0  0  0  0
  146.6850  135.7039  150.5794 H   0  0  0  0  0  0  0  0  0  0  0  0
  144.4032  130.3775  150.5148 H   0  0  0  0  0  0  0  0  0  0  0  0
  146.3783  130.9881  151.8110 H   0  0  0  0  0  0  0  0  0  0  0  0
  1  2  1  0  0  0  0
  1 23  1  0  0  0  0
  1 24  1  0  0  0  0
  1 25  1  0  0  0  0
  2  3  1  0  0  0  0
  2 10  1  0  0  0  0
  2 26  1  0  0  0  0
  3  4  1  0  0  0  0
  3 27  1  0  0  0  0
  3 28  1  0  0  0  0
  4  9  1  0  0  0  0
  4  5  1  0  0  0  0
  5  6  1  0  0  0  0
  5 29  1  0  0  0  0
  5 30  1  0  0  0  0
  6  7  1  0  0  0  0
  6 31  1  0  0  0  0
  6 32  1  0  0  0  0
  7  8  1  0  0  0  0
  8  9  1  0  0  0  0
  8 33  1  0  0  0  0
  8 34  1  0  0  0  0
  9 35  1  0  0  0  0
  9 36  1  0  0  0  0
 10 11  1  0  0  0  0
 10 37  1  0  0  0  0
 11 12  2  0  0  0  0
 11 13  1  0  0  0  0
 13 38  1  0  0  0  0
 13 39  1  0  0  0  0
 13 14  1  0  0  0  0
 14 15  1  0  0  0  0
 14 20  1  0  0  0  0
 15 16  2  0  0  0  0
 16 17  1  0  0  0  0
 16 18  1  0  0  0  0
 17 22  1  0  0  0  0
 18 40  1  0  0  0  0
 18 19  2  0  0  0  0
 19 41  1  0  0  0  0
 19 20  1  0  0  0  0
 20 21  2  0  0  0  0
M  END
> <s_m_source_file>
AV-unprocessed.smi

> <i_m_source_file_index>
1199

> <i_lp_mmshare_version>
43012

> <i_f3d_flags>
0

> <s_epik_input>
W0NIMl0xW0NIMl1PW0NIMl1bQ0gyXU4xW0NIMl1bQ0BASF0oW0NIM10pW05IXUMoPU8pW0NIMl1uMltuSF1jKD1PKVtjSF1bY0hdYzI9Tw==

> <s_epik_cmdline>
J2VwaWtfcHl0aG9uJywgJy1waCcsICc3LjAnLCAnLXRuJywgJzgnLCAnLW1hJywgJzIwMCcsICctbWV0YWxfYmluZGluZycsICctaW1hZScsICc8aW5maWxlLm1hZT4nLCAnLW9tYWUnLCAnPG91dGZpbGUubWFlPic=

> <r_epik_Ionization_Penalty>
2.36432

> <r_epik_Ionization_Penalty_Charging>
3.67277e-08

> <r_epik_Ionization_Penalty_Neutral>
2.36432

> <r_epik_State_Penalty>
1.96081

> <r_epik_Charging_Adjusted_Penalty>
1.96081

> <i_epik_Tot_Q>
0

> <i_epik_Tot_abs_Q>
0

> <r_epik_Metal_State_Penalty>
1.96081

> <b_epik_Metal_Only>
0

> <s_lp_Force_Field>
OPLS_2005

> <r_lp_Energy>
35.6953

> <b_lp_Chiralities_Consistent>
1

> <s_lp_Variant>
AV-unprocessed.smi:1199-5

> <Gold.Version>
5.8.1

> <Gold.Id.Protein>
6NUR|6NUR_protein|mol2

> <Gold.PLP.Fitness>
39.3621

> <Gold.PLP.PLP>
-29.1985

> <Gold.PLP.part.hbond>
-5.0000

> <Gold.PLP.part.metal>
0.0000

> <Gold.PLP.part.buried>
-7.3313

> <Gold.PLP.part.nonpolar>
-18.4784

> <Gold.PLP.part.repulsive>
0.5710

> <Gold.PLP.ligand.clash>
0.0000

> <Gold.PLP.ligand.torsion>
0.8248

> <Gold.PLP.Chemscore.Hbond>
3.9260

> <Gold.PLP.Chemscore.CHOScore>
0.0000

> <Gold.PLP.Chemscore.Metal>
0.0000

> <Gold.Chemscore.Hbonds>
donor molecule, donor type, donor heavy atom, donor atom, acceptor molecule, acceptor atom, score
      L1  H    10    37       P1  7948  1.00
      L1  H    17    22       P1 10186  1.00
      P1  H  6896  6907       L1     7  0.94
      P1  H 10785 10796       L1    17  0.83

> <Gold.PLP.Chemscore.Internal.Correction>
0.0352

> <Gold.Rescore>
     Score         DG    S(hbond)    S(metal)    S(lipo)     H(rot)  DE(clash)    DE(int)     intcor
     12.71     -13.64       3.29        0.00      40.31       2.94       0.02       0.91       ----

> <Gold.Chemscore.Fitness>
12.7120

> <Gold.Chemscore.DG>
-13.6447

> <Gold.Chemscore.ZeroCoef>
-5.4800

> <Gold.Chemscore.Hbond>
3.2887

> <Gold.Chemscore.Metal>
0.0000

> <Gold.Chemscore.Lipo>
40.3114

> <Gold.Chemscore.Internal_Hbond>
0.0000

> <Gold.Chemscore.DEClash>
0.0207

> <Gold.Chemscore.DEInternal>
0.9120

> <Gold.Chemscore.Rot>
2.9437

> <Gold.Chemscore.Internal.Correction>
   9.000000E+99

> <Gold.Chemscore.Hbonds>
donor molecule, donor type, donor heavy atom, donor atom, acceptor molecule, acceptor atom, score
      L1  H    10    37       P1  7948  1.00
      L1  H    17    22       P1 10186  0.98
      P1  H  6896  6907       L1     7  0.74
      P1  H 10785 10796       L1    17  0.25

> <Gold.Chemscore.Hbond.Weighted>
-10.9842

> <Gold.Chemscore.Metal.Weighted>
-0.0000

> <Gold.Chemscore.Lipo.Weighted>
-4.7164

> <Gold.Chemscore.Internal_Hbond.Weighted>
0.0000

> <Gold.Chemscore.DEClash.Weighted>
0.0207

> <Gold.Chemscore.DEInternal.Weighted>
0.9120

> <Gold.Chemscore.Rot.Weighted>
7.5359

> <Gold.Chemscore.Internal.Correction.Weighted>
   9.000000E+99

> <Gold.Protein.RotatedTorsions>
[ 6907 6896 6895 6894 ] final -102.14 input  -60.11 | X-H torsion
[ 7974 7965 7964 7962 ] final  142.23 input  175.53 | X-H torsion
[ 8008 7997 7996 7995 ] final -130.89 input   59.86 | X-H torsion
[ 10167 10162 10161 10158 ] final -112.60 input  -65.29 | X-H torsion
[ 10718 10713 10712 10709 ] final -133.16 input   66.30 | X-H torsion
[ 10763 10752 10751 10750 ] final    4.19 input  -60.55 | X-H torsion
[ 11005 11000 10999 10996 ] final  -19.23 input  -57.11 | X-H torsion

> <Gold.Protein.ActiveResidues>
 VAL166  LYS551  ARG553  GLY616  TRP617  ASP618  TYR619  PRO620  LYS621  CYS622 
 ASP623  PHE694  ASN695  SER759  ASP760  ASP761  ALA762  ILE779  LEU786  VAL792 
 PHE793  MET794  SER795  GLU796  ALA797  LYS798  CYS799  TRP800  GLU811  SER814 

> <Gold.Protein.RotatedAtoms>
  150.7184  134.0626  159.3836 H   0  0  0  0  0  0  0  0  0  0  0  0  # atno 6907 bound_to 6896
  151.8606  135.0523  160.0478 H   0  0  0  0  0  0  0  0  0  0  0  0  # atno 6908 bound_to 6896
  152.2720  133.5355  159.5481 H   0  0  0  0  0  0  0  0  0  0  0  0  # atno 6909 bound_to 6896
  144.9026  139.5402  143.5746 H   0  0  0  0  0  0  0  0  0  0  0  0  # atno 7974 bound_to 7965
  155.3032  140.0454  157.3030 H   0  0  0  0  0  0  0  0  0  0  0  0  # atno 8008 bound_to 7997
  154.5475  140.2307  155.8506 H   0  0  0  0  0  0  0  0  0  0  0  0  # atno 8009 bound_to 7997
  156.1937  140.3044  155.9390 H   0  0  0  0  0  0  0  0  0  0  0  0  # atno 8010 bound_to 7997
  140.1209  143.4444  152.1691 H   0  0  0  0  0  0  0  0  0  0  0  0  # atno 10167 bound_to 10162
  156.2420  130.7102  151.0967 H   0  0  0  0  0  0  0  0  0  0  0  0  # atno 10718 bound_to 10713
  153.2742  135.6935  153.7449 H   0  0  0  0  0  0  0  0  0  0  0  0  # atno 10763 bound_to 10752
  153.6461  135.3385  155.3087 H   0  0  0  0  0  0  0  0  0  0  0  0  # atno 10764 bound_to 10752
  154.8474  135.4443  154.1775 H   0  0  0  0  0  0  0  0  0  0  0  0  # atno 10765 bound_to 10752
  140.8347  133.7971  155.9795 H   0  0  0  0  0  0  0  0  0  0  0  0  # atno 11005 bound_to 11000
  146.3116  139.7768  142.9015 LP  0  0  0  0  0  0  0  0  0  0  0  0  # atno 17320 bound_to 7965
  145.3591  141.0322  143.3295 LP  0  0  0  0  0  0  0  0  0  0  0  0  # atno 17321 bound_to 7965
  139.5569  144.7379  151.4268 LP  0  0  0  0  0  0  0  0  0  0  0  0  # atno 17342 bound_to 10162
  140.6872  143.7946  150.7203 LP  0  0  0  0  0  0  0  0  0  0  0  0  # atno 17343 bound_to 10162
  157.7179  131.0699  150.6253 LP  0  0  0  0  0  0  0  0  0  0  0  0  # atno 17370 bound_to 10713
  156.6327  130.4436  149.5781 LP  0  0  0  0  0  0  0  0  0  0  0  0  # atno 17371 bound_to 10713
  140.8961  134.2436  157.5068 LP  0  0  0  0  0  0  0  0  0  0  0  0  # atno 17394 bound_to 11000
  139.8704  134.9684  156.4631 LP  0  0  0  0  0  0  0  0  0  0  0  0  # atno 17395 bound_to 11000

$$$$
