AV-unprocessed.smi:1802|AV-procd|sdf|7271|dock1
  -GOLD-   22720 8523D 1   1.00000     0.00000
 Structure written by MMmdl.
 41 42  0  0  0  0  0  0  0  0  2 V2000
  144.1742  135.1948  151.0282 C   0  0  0  0  0  0  0  0  0  0  0  0
  145.2520  134.1074  150.9142 C   0  0  2  0  0  0  0  0  0  0  0  0
  144.6600  132.7823  150.4054 C   0  0  0  0  0  0  0  0  0  0  0  0
  145.7535  131.7108  150.3223 C   0  0  0  0  0  0  0  0  0  0  0  0
  146.4654  131.5486  151.6742 C   0  0  0  0  0  0  0  0  0  0  0  0
  147.0318  132.8405  152.1417 N   0  3  2  0  0  0  0  0  0  0  0  0
  147.8379  132.6784  153.3784 C   0  0  0  0  0  0  0  0  0  0  0  0
  149.2840  132.2370  153.0930 C   0  0  0  0  0  0  0  0  0  0  0  0
  150.3079  133.0575  153.8953 C   0  0  0  0  0  0  0  0  0  0  0  0
  150.1204  134.4920  153.7092 N   0  0  0  0  0  0  0  0  0  0  0  0
  150.7978  135.4449  154.3660 C   0  0  0  0  0  0  0  0  0  0  0  0
  151.6421  135.2010  155.2286 O   0  0  0  0  0  0  0  0  0  0  0  0
  150.4327  136.6733  153.9584 N   0  0  0  0  0  0  0  0  0  0  0  0
  150.9367  137.9288  154.3907 C   0  0  0  0  0  0  0  0  0  0  0  0
  150.3322  139.1004  154.1380 N   0  0  0  0  0  0  0  0  0  0  0  0
  151.0321  140.1726  154.6756 N   0  0  0  0  0  0  0  0  0  0  0  0
  152.1356  139.7683  155.3109 C   0  0  0  0  0  0  0  0  0  0  0  0
  152.4280  138.0378  155.3147 S   0  0  0  0  0  0  0  0  0  0  0  0
  145.9801  133.8877  152.2564 C   0  0  0  0  0  0  0  0  0  0  0  0
  143.4008  134.9145  151.7439 H   0  0  0  0  0  0  0  0  0  0  0  0
  143.6905  135.3696  150.0668 H   0  0  0  0  0  0  0  0  0  0  0  0
  144.6038  136.1418  151.3562 H   0  0  0  0  0  0  0  0  0  0  0  0
  145.9873  134.4507  150.1848 H   0  0  0  0  0  0  0  0  0  0  0  0
  143.8669  132.4461  151.0750 H   0  0  0  0  0  0  0  0  0  0  0  0
  144.2025  132.9223  149.4253 H   0  0  0  0  0  0  0  0  0  0  0  0
  145.3198  130.7594  150.0131 H   0  0  0  0  0  0  0  0  0  0  0  0
  146.4792  131.9843  149.5551 H   0  0  0  0  0  0  0  0  0  0  0  0
  145.7714  131.1622  152.4225 H   0  0  0  0  0  0  0  0  0  0  0  0
  147.2621  130.8109  151.5698 H   0  0  0  0  0  0  0  0  0  0  0  0
  147.8215  133.6037  153.9565 H   0  0  0  0  0  0  0  0  0  0  0  0
  147.3748  131.9160  154.0065 H   0  0  0  0  0  0  0  0  0  0  0  0
  149.3975  131.1796  153.3363 H   0  0  0  0  0  0  0  0  0  0  0  0
  149.5040  132.3352  152.0304 H   0  0  0  0  0  0  0  0  0  0  0  0
  150.2483  132.8105  154.9568 H   0  0  0  0  0  0  0  0  0  0  0  0
  151.3194  132.8059  153.5755 H   0  0  0  0  0  0  0  0  0  0  0  0
  149.4440  134.7782  153.0161 H   0  0  0  0  0  0  0  0  0  0  0  0
  149.7208  136.7166  153.2442 H   0  0  0  0  0  0  0  0  0  0  0  0
  152.7820  140.4947  155.7805 H   0  0  0  0  0  0  0  0  0  0  0  0
  146.4242  134.8311  152.5720 H   0  0  0  0  0  0  0  0  0  0  0  0
  145.2667  133.6019  153.0310 H   0  0  0  0  0  0  0  0  0  0  0  0
  147.6713  133.1433  151.4208 H   0  0  0  0  0  0  0  0  0  0  0  0
  1  2  1  0  0  0  0
  1 20  1  0  0  0  0
  1 21  1  0  0  0  0
  1 22  1  0  0  0  0
  2 19  1  0  0  0  0
  2  3  1  0  0  0  0
  2 23  1  0  0  0  0
  3  4  1  0  0  0  0
  3 24  1  0  0  0  0
  3 25  1  0  0  0  0
  4  5  1  0  0  0  0
  4 26  1  0  0  0  0
  4 27  1  0  0  0  0
  5  6  1  0  0  0  0
  5 28  1  0  0  0  0
  5 29  1  0  0  0  0
  6  7  1  0  0  0  0
  6 19  1  0  0  0  0
  6 41  1  0  0  0  0
  7  8  1  0  0  0  0
  7 30  1  0  0  0  0
  7 31  1  0  0  0  0
  8  9  1  0  0  0  0
  8 32  1  0  0  0  0
  8 33  1  0  0  0  0
  9 10  1  0  0  0  0
  9 34  1  0  0  0  0
  9 35  1  0  0  0  0
 10 11  1  0  0  0  0
 10 36  1  0  0  0  0
 11 12  2  0  0  0  0
 11 13  1  0  0  0  0
 13 14  1  0  0  0  0
 13 37  1  0  0  0  0
 14 18  1  0  0  0  0
 14 15  2  0  0  0  0
 15 16  1  0  0  0  0
 16 17  2  0  0  0  0
 17 18  1  0  0  0  0
 17 38  1  0  0  0  0
 19 39  1  0  0  0  0
 19 40  1  0  0  0  0
M  CHG  1   6   1
M  END
> <s_m_source_file>
AV-unprocessed.smi

> <i_m_source_file_index>
1802

> <i_lp_mmshare_version>
43012

> <i_f3d_flags>
0

> <s_epik_input>
W0NIM11bQ0BASF0xW0NIMl1bQ0gyXVtDSDJdTihbQ0gyXTEpW0NIMl1bQ0gyXVtDSDJdW05IXUMoPU8pW05IXWMybm5bY0hdczI=

> <s_epik_cmdline>
J2VwaWtfcHl0aG9uJywgJy1waCcsICc3LjAnLCAnLXRuJywgJzgnLCAnLW1hJywgJzIwMCcsICctbWV0YWxfYmluZGluZycsICctaW1hZScsICc8aW5maWxlLm1hZT4nLCAnLW9tYWUnLCAnPG91dGZpbGUubWFlPic=

> <r_lp_tautomer_probability>
1

> <r_epik_Ionization_Penalty>
0.00272894

> <r_epik_Ionization_Penalty_Charging>
0.000288442

> <r_epik_Ionization_Penalty_Neutral>
0.0024405

> <r_epik_State_Penalty>
-0

> <r_epik_Charging_Adjusted_Penalty>
0.000288442

> <i_epik_Tot_Q>
1

> <i_epik_Tot_abs_Q>
1

> <r_epik_Metal_State_Penalty>
0.350525

> <b_epik_Metal_Only>
0

> <s_lp_Force_Field>
OPLS_2005

> <r_lp_Energy>
15.5864

> <b_lp_Chiralities_Consistent>
1

> <s_lp_Variant>
AV-unprocessed.smi:1802-1

> <Gold.Version>
5.8.1

> <Gold.Id.Protein>
6NUR|6NUR_protein|mol2

> <Gold.PLP.Fitness>
45.3564

> <Gold.PLP.PLP>
-35.9688

> <Gold.PLP.part.hbond>
-5.3888

> <Gold.PLP.part.metal>
0.0000

> <Gold.PLP.part.buried>
-4.5353

> <Gold.PLP.part.nonpolar>
-26.6427

> <Gold.PLP.part.repulsive>
0.4150

> <Gold.PLP.ligand.clash>
0.0000

> <Gold.PLP.ligand.torsion>
0.7247

> <Gold.PLP.Chemscore.Hbond>
3.5720

> <Gold.PLP.Chemscore.CHOScore>
0.0000

> <Gold.PLP.Chemscore.Metal>
0.0000

> <Gold.Chemscore.Hbonds>
donor molecule, donor type, donor heavy atom, donor atom, acceptor molecule, acceptor atom, score
      L1  H    10    36       P1  7948  0.13
      L1  H    13    37       P1  7948  1.00
      P1  H  7989  7998       L1    16  0.91
      P1  H 10752 10765       L1    12  0.72

> <Gold.PLP.Chemscore.Internal.Correction>
0.1209

> <Gold.Rescore>
     Score         DG    S(hbond)    S(metal)    S(lipo)     H(rot)  DE(clash)    DE(int)     intcor
     13.24     -14.97       1.97        0.00      68.21       1.98       0.00       1.72       ----

> <Gold.Chemscore.Fitness>
13.2436

> <Gold.Chemscore.DG>
-14.9668

> <Gold.Chemscore.ZeroCoef>
-5.4800

> <Gold.Chemscore.Hbond>
1.9680

> <Gold.Chemscore.Metal>
0.0000

> <Gold.Chemscore.Lipo>
68.2118

> <Gold.Chemscore.Internal_Hbond>
0.0000

> <Gold.Chemscore.DEClash>
0.0015

> <Gold.Chemscore.DEInternal>
1.7217

> <Gold.Chemscore.Rot>
1.9793

> <Gold.Chemscore.Internal.Correction>
   9.000000E+99

> <Gold.Chemscore.Hbonds>
donor molecule, donor type, donor heavy atom, donor atom, acceptor molecule, acceptor atom, score
      L1  H    13    37       P1  7948  0.38
      P1  H  7989  7998       L1    16  0.11
      P1  H 10752 10765       L1    12  0.65

> <Gold.Chemscore.Hbond.Weighted>
-6.5730

> <Gold.Chemscore.Metal.Weighted>
-0.0000

> <Gold.Chemscore.Lipo.Weighted>
-7.9808

> <Gold.Chemscore.Internal_Hbond.Weighted>
0.0000

> <Gold.Chemscore.DEClash.Weighted>
0.0015

> <Gold.Chemscore.DEInternal.Weighted>
1.7217

> <Gold.Chemscore.Rot.Weighted>
5.0670

> <Gold.Chemscore.Internal.Correction.Weighted>
   9.000000E+99

> <Gold.Protein.RotatedTorsions>
[ 6907 6896 6895 6894 ] final  -12.29 input  -60.11 | X-H torsion
[ 7974 7965 7964 7962 ] final  152.38 input  175.53 | X-H torsion
[ 8008 7997 7996 7995 ] final  109.62 input   59.86 | X-H torsion
[ 10167 10162 10161 10158 ] final  129.52 input  -65.29 | X-H torsion
[ 10718 10713 10712 10709 ] final  179.72 input   66.30 | X-H torsion
[ 10763 10752 10751 10750 ] final -159.44 input  -60.55 | X-H torsion
[ 11005 11000 10999 10996 ] final  -85.67 input  -57.11 | X-H torsion

> <Gold.Protein.ActiveResidues>
 VAL166  LYS551  ARG553  GLY616  TRP617  ASP618  TYR619  PRO620  LYS621  CYS622 
 ASP623  PHE694  ASN695  SER759  ASP760  ASP761  ALA762  ILE779  LEU786  VAL792 
 PHE793  MET794  SER795  GLU796  ALA797  LYS798  CYS799  TRP800  GLU811  SER814 

> <Gold.Protein.RotatedAtoms>
  151.3728  135.0925  159.9470 H   0  0  0  0  0  0  0  0  0  0  0  0  # atno 6907 bound_to 6896
  152.5130  133.9148  159.7516 H   0  0  0  0  0  0  0  0  0  0  0  0  # atno 6908 bound_to 6896
  150.9565  133.6437  159.2791 H   0  0  0  0  0  0  0  0  0  0  0  0  # atno 6909 bound_to 6896
  144.8226  139.6661  143.6094 H   0  0  0  0  0  0  0  0  0  0  0  0  # atno 7974 bound_to 7965
  156.1993  140.3054  155.9492 H   0  0  0  0  0  0  0  0  0  0  0  0  # atno 8008 bound_to 7997
  155.2992  140.0445  157.3045 H   0  0  0  0  0  0  0  0  0  0  0  0  # atno 8009 bound_to 7997
  154.5549  140.2303  155.8434 H   0  0  0  0  0  0  0  0  0  0  0  0  # atno 8010 bound_to 7997
  139.5474  144.6784  151.4431 H   0  0  0  0  0  0  0  0  0  0  0  0  # atno 10167 bound_to 10162
  156.8715  130.9785  151.3072 H   0  0  0  0  0  0  0  0  0  0  0  0  # atno 10718 bound_to 10713
  154.7474  135.3083  154.8619 H   0  0  0  0  0  0  0  0  0  0  0  0  # atno 10763 bound_to 10752
  153.9416  135.6774  153.4748 H   0  0  0  0  0  0  0  0  0  0  0  0  # atno 10764 bound_to 10752
  153.1071  135.4884  154.8896 H   0  0  0  0  0  0  0  0  0  0  0  0  # atno 10765 bound_to 10752
  141.1639  133.7412  156.9049 H   0  0  0  0  0  0  0  0  0  0  0  0  # atno 11005 bound_to 11000
  146.2532  139.6244  142.9413 LP  0  0  0  0  0  0  0  0  0  0  0  0  # atno 17320 bound_to 7965
  145.5071  141.0436  143.2508 LP  0  0  0  0  0  0  0  0  0  0  0  0  # atno 17321 bound_to 7965
  140.6726  143.8260  150.7018 LP  0  0  0  0  0  0  0  0  0  0  0  0  # atno 17342 bound_to 10162
  140.1689  143.4211  152.2015 LP  0  0  0  0  0  0  0  0  0  0  0  0  # atno 17343 bound_to 10162
  157.6193  130.8642  149.9081 LP  0  0  0  0  0  0  0  0  0  0  0  0  # atno 17370 bound_to 10713
  156.0724  130.3683  150.0748 LP  0  0  0  0  0  0  0  0  0  0  0  0  # atno 17371 bound_to 10713
  140.1557  134.9200  157.2650 LP  0  0  0  0  0  0  0  0  0  0  0  0  # atno 17394 bound_to 11000
  140.2670  134.3504  155.7386 LP  0  0  0  0  0  0  0  0  0  0  0  0  # atno 17395 bound_to 11000

$$$$
