AV-unprocessed.smi:3262|AV-procd|sdf|12485|dock1
  -GOLD-   2272018383D 1   1.00000     0.00000
 Structure written by MMmdl.
 40 41  0  0  0  0  0  0  0  0  2 V2000
  153.1773  139.1713  157.5088 O   0  0  0  0  0  0  0  0  0  0  0  0
  152.2123  139.9326  157.4186 C   0  0  0  0  0  0  0  0  0  0  0  0
  151.4154  139.9398  156.3348 N   0  0  0  0  0  0  0  0  0  0  0  0
  151.5585  139.0624  155.1784 C   0  0  0  0  0  0  0  0  0  0  0  0
  150.2444  138.3191  154.8689 C   0  0  0  0  0  0  0  0  0  0  0  0
  149.1361  139.1723  154.2660 C   0  0  0  0  0  0  0  0  0  0  0  0
  148.9400  140.5440  154.5554 C   0  0  0  0  0  0  0  0  0  0  0  0
  147.8804  141.2377  153.9341 C   0  0  0  0  0  0  0  0  0  0  0  0
  147.0369  140.5525  153.0363 C   0  0  0  0  0  0  0  0  0  0  0  0
  147.2751  139.1871  152.7821 C   0  0  0  0  0  0  0  0  0  0  0  0
  148.3003  138.5576  153.3970 N   0  3  0  0  0  0  0  0  0  0  0  0
  151.9026  140.8585  158.3653 N   0  0  0  0  0  0  0  0  0  0  0  0
  152.6801  141.0657  159.6067 C   0  0  0  0  0  0  0  0  0  0  0  0
  152.7731  142.5297  160.0884 C   0  0  0  0  0  0  0  0  0  0  0  0
  153.0943  143.5520  158.9824 C   0  0  0  0  0  0  0  0  0  0  0  0
  151.8422  144.0631  158.2502 C   0  0  0  0  0  0  0  0  0  0  0  0
  151.1237  143.0100  157.3922 C   0  0  0  0  0  0  0  0  0  0  0  0
  150.7397  141.7381  158.1696 C   0  0  0  0  0  0  0  0  0  0  0  0
  150.6564  140.6056  156.3130 H   0  0  0  0  0  0  0  0  0  0  0  0
  151.8501  139.6794  154.3279 H   0  0  0  0  0  0  0  0  0  0  0  0
  152.3728  138.3570  155.3526 H   0  0  0  0  0  0  0  0  0  0  0  0
  150.4416  137.4974  154.1792 H   0  0  0  0  0  0  0  0  0  0  0  0
  149.8626  137.8663  155.7852 H   0  0  0  0  0  0  0  0  0  0  0  0
  149.5841  141.0738  155.2409 H   0  0  0  0  0  0  0  0  0  0  0  0
  147.7171  142.2848  154.1436 H   0  0  0  0  0  0  0  0  0  0  0  0
  146.2206  141.0664  152.5500 H   0  0  0  0  0  0  0  0  0  0  0  0
  146.6820  138.5840  152.1105 H   0  0  0  0  0  0  0  0  0  0  0  0
  152.2552  140.4441  160.3957 H   0  0  0  0  0  0  0  0  0  0  0  0
  153.7107  140.7321  159.4787 H   0  0  0  0  0  0  0  0  0  0  0  0
  151.8599  142.8200  160.6090 H   0  0  0  0  0  0  0  0  0  0  0  0
  153.5559  142.5793  160.8463 H   0  0  0  0  0  0  0  0  0  0  0  0
  153.5808  144.4117  159.4447 H   0  0  0  0  0  0  0  0  0  0  0  0
  153.8181  143.1433  158.2761 H   0  0  0  0  0  0  0  0  0  0  0  0
  151.1423  144.4738  158.9788 H   0  0  0  0  0  0  0  0  0  0  0  0
  152.1243  144.8988  157.6089 H   0  0  0  0  0  0  0  0  0  0  0  0
  150.2172  143.4614  156.9881 H   0  0  0  0  0  0  0  0  0  0  0  0
  151.7371  142.7537  156.5273 H   0  0  0  0  0  0  0  0  0  0  0  0
  149.9559  141.2082  157.6253 H   0  0  0  0  0  0  0  0  0  0  0  0
  150.2788  141.9918  159.1248 H   0  0  0  0  0  0  0  0  0  0  0  0
  148.4531  137.5692  153.1950 H   0  0  0  0  0  0  0  0  0  0  0  0
  1  2  2  0  0  0  0
  2  3  1  0  0  0  0
  2 12  1  0  0  0  0
  3  4  1  0  0  0  0
  3 19  1  0  0  0  0
  4  5  1  0  0  0  0
  4 20  1  0  0  0  0
  4 21  1  0  0  0  0
  5  6  1  0  0  0  0
  5 22  1  0  0  0  0
  5 23  1  0  0  0  0
  6 11  1  0  0  0  0
  6  7  2  0  0  0  0
  7  8  1  0  0  0  0
  7 24  1  0  0  0  0
  8  9  2  0  0  0  0
  8 25  1  0  0  0  0
  9 10  1  0  0  0  0
  9 26  1  0  0  0  0
 10 11  2  0  0  0  0
 10 27  1  0  0  0  0
 11 40  1  0  0  0  0
 12 18  1  0  0  0  0
 12 13  1  0  0  0  0
 13 14  1  0  0  0  0
 13 28  1  0  0  0  0
 13 29  1  0  0  0  0
 14 15  1  0  0  0  0
 14 30  1  0  0  0  0
 14 31  1  0  0  0  0
 15 16  1  0  0  0  0
 15 32  1  0  0  0  0
 15 33  1  0  0  0  0
 16 17  1  0  0  0  0
 16 34  1  0  0  0  0
 16 35  1  0  0  0  0
 17 18  1  0  0  0  0
 17 36  1  0  0  0  0
 17 37  1  0  0  0  0
 18 38  1  0  0  0  0
 18 39  1  0  0  0  0
M  CHG  1  11   1
M  END
> <s_m_source_file>
AV-unprocessed.smi

> <i_m_source_file_index>
3262

> <i_lp_mmshare_version>
43012

> <i_f3d_flags>
0

> <s_epik_input>
W0NIMl0xW0NIMl1bQ0gyXVtDSDJdW0NIMl1bQ0gyXU4xQyg9TylbTkhdW0NIMl1bQ0gyXWMyW2NIXVtjSF1bY0hdW2NIXW4y

> <s_epik_cmdline>
J2VwaWtfcHl0aG9uJywgJy1waCcsICc3LjAnLCAnLXRuJywgJzgnLCAnLW1hJywgJzIwMCcsICctbWV0YWxfYmluZGluZycsICctaW1hZScsICc8aW5maWxlLm1hZT4nLCAnLW9tYWUnLCAnPG91dGZpbGUubWFlPic=

> <r_epik_Ionization_Penalty>
1.55113

> <r_epik_Ionization_Penalty_Charging>
1.55107

> <r_epik_Ionization_Penalty_Neutral>
5.98909e-05

> <r_epik_State_Penalty>
1.64529

> <r_epik_Charging_Adjusted_Penalty>
3.19637

> <i_epik_Tot_Q>
1

> <i_epik_Tot_abs_Q>
1

> <r_epik_Metal_State_Penalty>
1.68744

> <b_epik_Metal_Only>
0

> <s_lp_Force_Field>
OPLS_2005

> <r_lp_Energy>
39.791

> <b_lp_Chiralities_Consistent>
1

> <s_lp_Variant>
AV-unprocessed.smi:3262-2

> <Gold.Version>
5.8.1

> <Gold.Id.Protein>
6NUR|6NUR_protein|mol2

> <Gold.PLP.Fitness>
47.9241

> <Gold.PLP.PLP>
-43.1901

> <Gold.PLP.part.hbond>
-3.0000

> <Gold.PLP.part.metal>
0.0000

> <Gold.PLP.part.buried>
-1.8475

> <Gold.PLP.part.nonpolar>
-38.8014

> <Gold.PLP.part.repulsive>
0.1655

> <Gold.PLP.ligand.clash>
3.3403

> <Gold.PLP.ligand.torsion>
0.4308

> <Gold.PLP.Chemscore.Hbond>
2.9760

> <Gold.PLP.Chemscore.CHOScore>
0.0000

> <Gold.PLP.Chemscore.Metal>
0.0000

> <Gold.Chemscore.Hbonds>
donor molecule, donor type, donor heavy atom, donor atom, acceptor molecule, acceptor atom, score
      L1  H    11    40       P1  7948  1.82
      P1  H  7997  8010       L1     1  0.98

> <Gold.PLP.Chemscore.Internal.Correction>
0.0079

> <Gold.Rescore>
     Score         DG    S(hbond)    S(metal)    S(lipo)     H(rot)  DE(clash)    DE(int)     intcor
     20.34     -20.75       1.80        0.00     108.34       1.34       0.01       0.40       ----

> <Gold.Chemscore.Fitness>
20.3358

> <Gold.Chemscore.DG>
-20.7471

> <Gold.Chemscore.ZeroCoef>
-5.4800

> <Gold.Chemscore.Hbond>
1.8042

> <Gold.Chemscore.Metal>
0.0000

> <Gold.Chemscore.Lipo>
108.3365

> <Gold.Chemscore.Internal_Hbond>
0.0000

> <Gold.Chemscore.DEClash>
0.0106

> <Gold.Chemscore.DEInternal>
0.4007

> <Gold.Chemscore.Rot>
1.3415

> <Gold.Chemscore.Internal.Correction>
   9.000000E+99

> <Gold.Chemscore.Hbonds>
donor molecule, donor type, donor heavy atom, donor atom, acceptor molecule, acceptor atom, score
      L1  H    11    40       P1  7948  0.89
      P1  H  7997  8010       L1     1  0.73

> <Gold.Chemscore.Hbond.Weighted>
-6.0259

> <Gold.Chemscore.Metal.Weighted>
-0.0000

> <Gold.Chemscore.Lipo.Weighted>
-12.6754

> <Gold.Chemscore.Internal_Hbond.Weighted>
0.0000

> <Gold.Chemscore.DEClash.Weighted>
0.0106

> <Gold.Chemscore.DEInternal.Weighted>
0.4007

> <Gold.Chemscore.Rot.Weighted>
3.4342

> <Gold.Chemscore.Internal.Correction.Weighted>
   9.000000E+99

> <Gold.Protein.RotatedTorsions>
[ 6907 6896 6895 6894 ] final   20.67 input  -60.11 | X-H torsion
[ 7974 7965 7964 7962 ] final  176.35 input  175.53 | X-H torsion
[ 8008 7997 7996 7995 ] final   24.98 input   59.86 | X-H torsion
[ 10167 10162 10161 10158 ] final  -62.65 input  -65.29 | X-H torsion
[ 10718 10713 10712 10709 ] final   -0.56 input   66.30 | X-H torsion
[ 10763 10752 10751 10750 ] final  -18.61 input  -60.55 | X-H torsion
[ 11005 11000 10999 10996 ] final  -45.30 input  -57.11 | X-H torsion

> <Gold.Protein.ActiveResidues>
 VAL166  LYS551  ARG553  GLY616  TRP617  ASP618  TYR619  PRO620  LYS621  CYS622 
 ASP623  PHE694  ASN695  SER759  ASP760  ASP761  ALA762  ILE779  LEU786  VAL792 
 PHE793  MET794  SER795  GLU796  ALA797  LYS798  CYS799  TRP800  GLU811  SER814 

> <Gold.Protein.RotatedAtoms>
  151.8999  135.0382  160.0505 H   0  0  0  0  0  0  0  0  0  0  0  0  # atno 6907 bound_to 6896
  152.2367  133.5097  159.5255 H   0  0  0  0  0  0  0  0  0  0  0  0  # atno 6908 bound_to 6896
  150.7041  134.1061  159.4026 H   0  0  0  0  0  0  0  0  0  0  0  0  # atno 6909 bound_to 6896
  144.7186  140.0084  143.6440 H   0  0  0  0  0  0  0  0  0  0  0  0  # atno 7974 bound_to 7965
  155.0047  140.3129  155.4853 H   0  0  0  0  0  0  0  0  0  0  0  0  # atno 8008 bound_to 7997
  156.2919  140.2225  156.5099 H   0  0  0  0  0  0  0  0  0  0  0  0  # atno 8009 bound_to 7997
  154.7587  140.0460  157.0943 H   0  0  0  0  0  0  0  0  0  0  0  0  # atno 8010 bound_to 7997
  140.5924  143.2344  151.6110 H   0  0  0  0  0  0  0  0  0  0  0  0  # atno 10167 bound_to 10162
  156.8186  130.5448  149.5700 H   0  0  0  0  0  0  0  0  0  0  0  0  # atno 10718 bound_to 10713
  153.5919  135.7002  153.5420 H   0  0  0  0  0  0  0  0  0  0  0  0  # atno 10763 bound_to 10752
  153.3171  135.4084  155.1385 H   0  0  0  0  0  0  0  0  0  0  0  0  # atno 10764 bound_to 10752
  154.8599  135.3686  154.5451 H   0  0  0  0  0  0  0  0  0  0  0  0  # atno 10765 bound_to 10752
  141.0507  133.6744  156.2994 H   0  0  0  0  0  0  0  0  0  0  0  0  # atno 11005 bound_to 11000
  146.0278  139.3308  143.0773 LP  0  0  0  0  0  0  0  0  0  0  0  0  # atno 17320 bound_to 7965
  145.8489  140.9540  143.0760 LP  0  0  0  0  0  0  0  0  0  0  0  0  # atno 17321 bound_to 7965
  139.5236  144.3128  152.0978 LP  0  0  0  0  0  0  0  0  0  0  0  0  # atno 17342 bound_to 10162
  140.2295  144.4383  150.6306 LP  0  0  0  0  0  0  0  0  0  0  0  0  # atno 17343 bound_to 10162
  156.1002  130.5963  150.9881 LP  0  0  0  0  0  0  0  0  0  0  0  0  # atno 17370 bound_to 10713
  157.6469  131.0903  150.8135 LP  0  0  0  0  0  0  0  0  0  0  0  0  # atno 17371 bound_to 10713
  140.6061  134.5505  157.5526 LP  0  0  0  0  0  0  0  0  0  0  0  0  # atno 17394 bound_to 11000
  139.9348  134.7896  156.0833 LP  0  0  0  0  0  0  0  0  0  0  0  0  # atno 17395 bound_to 11000

$$$$
