AV-unprocessed.smi:1292|AV-procd|sdf|5398|dock2
  -GOLD-   22720 4553D 1   1.00000     0.00000
 Structure written by MMmdl.
 39 40  0  0  0  0  0  0  0  0  2 V2000
  148.0329  139.8117  157.0675 C   0  0  0  0  0  0  0  0  0  0  0  0
  149.1654  139.0173  156.4020 C   0  0  1  0  0  0  0  0  0  0  0  0
  149.5687  139.6361  155.0567 C   0  0  0  0  0  0  0  0  0  0  0  0
  150.6914  138.8069  154.4289 C   0  0  0  0  0  0  0  0  0  0  0  0
  151.8939  138.6938  155.3776 C   0  0  0  0  0  0  0  0  0  0  0  0
  151.4943  138.1505  156.6953 N   0  0  0  0  0  0  0  0  0  0  0  0
  152.7531  137.5564  157.7383 S   0  0  0  0  0  0  0  0  0  0  0  0
  152.0696  136.8648  158.8433 O   0  0  0  0  0  0  0  0  0  0  0  0
  153.6574  136.7611  156.8912 O   0  0  0  0  0  0  0  0  0  0  0  0
  153.3739  138.9960  158.1588 N   0  5  0  0  0  0  0  0  0  0  0  0
  152.6493  139.8449  159.0916 C   0  0  0  0  0  0  0  0  0  0  0  0
  153.4519  141.1250  159.4307 C   0  0  0  0  0  0  0  0  0  0  0  0
  152.7065  142.4449  159.2490 C   0  0  0  0  0  0  0  0  0  0  0  0
  152.7446  143.4414  160.2515 C   0  0  0  0  0  0  0  0  0  0  0  0
  152.0495  144.6460  160.0318 C   0  0  0  0  0  0  0  0  0  0  0  0
  151.3372  144.8094  158.8284 C   0  0  0  0  0  0  0  0  0  0  0  0
  151.3500  143.7544  157.8948 C   0  0  0  0  0  0  0  0  0  0  0  0
  152.0093  142.5942  158.0964 N   0  0  0  0  0  0  0  0  0  0  0  0
  150.3895  138.8973  157.3321 C   0  0  0  0  0  0  0  0  0  0  0  0
  148.3427  140.8339  157.2878 H   0  0  0  0  0  0  0  0  0  0  0  0
  147.7265  139.3472  158.0052 H   0  0  0  0  0  0  0  0  0  0  0  0
  147.1557  139.8604  156.4219 H   0  0  0  0  0  0  0  0  0  0  0  0
  148.7911  138.0100  156.2117 H   0  0  0  0  0  0  0  0  0  0  0  0
  148.7124  139.6722  154.3824 H   0  0  0  0  0  0  0  0  0  0  0  0
  149.9020  140.6647  155.1996 H   0  0  0  0  0  0  0  0  0  0  0  0
  150.3225  137.8089  154.1881 H   0  0  0  0  0  0  0  0  0  0  0  0
  151.0041  139.2567  153.4863 H   0  0  0  0  0  0  0  0  0  0  0  0
  152.6522  138.0609  154.9180 H   0  0  0  0  0  0  0  0  0  0  0  0
  152.3533  139.6718  155.5248 H   0  0  0  0  0  0  0  0  0  0  0  0
  151.6948  140.1496  158.6615 H   0  0  0  0  0  0  0  0  0  0  0  0
  152.3923  139.3257  160.0158 H   0  0  0  0  0  0  0  0  0  0  0  0
  153.8227  141.0636  160.4551 H   0  0  0  0  0  0  0  0  0  0  0  0
  154.3416  141.1572  158.8010 H   0  0  0  0  0  0  0  0  0  0  0  0
  153.3053  143.2901  161.1619 H   0  0  0  0  0  0  0  0  0  0  0  0
  152.0645  145.4318  160.7724 H   0  0  0  0  0  0  0  0  0  0  0  0
  150.7951  145.7207  158.6247 H   0  0  0  0  0  0  0  0  0  0  0  0
  150.8131  143.8438  156.9620 H   0  0  0  0  0  0  0  0  0  0  0  0
  150.7531  139.8841  157.6216 H   0  0  0  0  0  0  0  0  0  0  0  0
  150.0860  138.3919  158.2485 H   0  0  0  0  0  0  0  0  0  0  0  0
  1  2  1  0  0  0  0
  1 20  1  0  0  0  0
  1 21  1  0  0  0  0
  1 22  1  0  0  0  0
  2 19  1  0  0  0  0
  2  3  1  0  0  0  0
  2 23  1  0  0  0  0
  3  4  1  0  0  0  0
  3 24  1  0  0  0  0
  3 25  1  0  0  0  0
  4  5  1  0  0  0  0
  4 26  1  0  0  0  0
  4 27  1  0  0  0  0
  5  6  1  0  0  0  0
  5 28  1  0  0  0  0
  5 29  1  0  0  0  0
  6  7  1  0  0  0  0
  6 19  1  0  0  0  0
  7  8  2  0  0  0  0
  7  9  2  0  0  0  0
  7 10  1  0  0  0  0
 10 11  1  0  0  0  0
 11 12  1  0  0  0  0
 11 30  1  0  0  0  0
 11 31  1  0  0  0  0
 12 13  1  0  0  0  0
 12 32  1  0  0  0  0
 12 33  1  0  0  0  0
 13 18  1  0  0  0  0
 13 14  2  0  0  0  0
 14 15  1  0  0  0  0
 14 34  1  0  0  0  0
 15 16  2  0  0  0  0
 15 35  1  0  0  0  0
 16 17  1  0  0  0  0
 16 36  1  0  0  0  0
 17 18  2  0  0  0  0
 17 37  1  0  0  0  0
 19 38  1  0  0  0  0
 19 39  1  0  0  0  0
M  CHG  1  10  -1
M  END
> <s_m_source_file>
AV-unprocessed.smi

> <i_m_source_file_index>
1292

> <i_lp_mmshare_version>
43012

> <i_f3d_flags>
0

> <s_epik_input>
W0NIM11bQ0BASF0xW0NIMl1bQ0gyXVtDSDJdTihbQ0gyXTEpUyg9TykoPU8pW05IXVtDSDJdW0NIMl1jMltjSF1bY0hdW2NIXVtjSF1uMg==

> <s_epik_cmdline>
J2VwaWtfcHl0aG9uJywgJy1waCcsICc3LjAnLCAnLXRuJywgJzgnLCAnLW1hJywgJzIwMCcsICctbWV0YWxfYmluZGluZycsICctaW1hZScsICc8aW5maWxlLm1hZT4nLCAnLW9tYWUnLCAnPG91dGZpbGUubWFlPic=

> <r_epik_Ionization_Penalty>
2.02944

> <r_epik_Ionization_Penalty_Charging>
1.95606

> <r_epik_Ionization_Penalty_Neutral>
0.0733799

> <r_epik_State_Penalty>
2.47711

> <r_epik_Charging_Adjusted_Penalty>
4.43317

> <i_epik_Tot_Q>
-1

> <i_epik_Tot_abs_Q>
1

> <r_epik_Metal_State_Penalty>
0.729901

> <b_epik_Metal_Only>
0

> <s_lp_Force_Field>
OPLS_2005

> <r_lp_Energy>
9.691

> <b_lp_Chiralities_Consistent>
1

> <s_lp_Variant>
AV-unprocessed.smi:1292-4

> <Gold.Version>
5.8.1

> <Gold.Id.Protein>
6NUR|6NUR_protein|mol2

> <Gold.PLP.Fitness>
48.1522

> <Gold.PLP.PLP>
-35.7738

> <Gold.PLP.part.hbond>
-3.0000

> <Gold.PLP.part.metal>
0.0000

> <Gold.PLP.part.buried>
-4.7221

> <Gold.PLP.part.nonpolar>
-28.8637

> <Gold.PLP.part.repulsive>
0.0228

> <Gold.PLP.ligand.clash>
0.0000

> <Gold.PLP.ligand.torsion>
1.3301

> <Gold.PLP.Chemscore.Hbond>
3.4786

> <Gold.PLP.Chemscore.CHOScore>
1.0000

> <Gold.PLP.Chemscore.Metal>
0.0000

> <Gold.Chemscore.Hbonds>
donor molecule, donor type, donor heavy atom, donor atom, acceptor molecule, acceptor atom, score
      P1  H  6896  6909       L1     8  0.73
      P1  H  7997  8008       L1    10  2.00
      P1  H 10752 10763       L1     9  0.86
      L1  C    17    37       P1  8028  1.00

> <Gold.PLP.Chemscore.Internal.Correction>
1.6028

> <Gold.Rescore>
     Score         DG    S(hbond)    S(metal)    S(lipo)     H(rot)  DE(clash)    DE(int)     intcor
     20.55     -21.71       2.51        0.00      98.13       1.42       0.00       1.16       ----

> <Gold.Chemscore.Fitness>
20.5458

> <Gold.Chemscore.DG>
-21.7104

> <Gold.Chemscore.ZeroCoef>
-5.4800

> <Gold.Chemscore.Hbond>
2.5114

> <Gold.Chemscore.Metal>
0.0000

> <Gold.Chemscore.Lipo>
98.1327

> <Gold.Chemscore.Internal_Hbond>
0.0000

> <Gold.Chemscore.DEClash>
0.0000

> <Gold.Chemscore.DEInternal>
1.1646

> <Gold.Chemscore.Rot>
1.4216

> <Gold.Chemscore.Internal.Correction>
   9.000000E+99

> <Gold.Chemscore.Hbonds>
donor molecule, donor type, donor heavy atom, donor atom, acceptor molecule, acceptor atom, score
      P1  H  6896  6909       L1     8  0.70
      P1  H  7997  8008       L1    10  0.81
      P1  H 10752 10763       L1     9  0.81

> <Gold.Chemscore.Hbond.Weighted>
-8.3880

> <Gold.Chemscore.Metal.Weighted>
-0.0000

> <Gold.Chemscore.Lipo.Weighted>
-11.4815

> <Gold.Chemscore.Internal_Hbond.Weighted>
0.0000

> <Gold.Chemscore.DEClash.Weighted>
0.0000

> <Gold.Chemscore.DEInternal.Weighted>
1.1646

> <Gold.Chemscore.Rot.Weighted>
3.6392

> <Gold.Chemscore.Internal.Correction.Weighted>
   9.000000E+99

> <Gold.Protein.RotatedTorsions>
[ 6907 6896 6895 6894 ] final  123.76 input  -60.11 | X-H torsion
[ 7974 7965 7964 7962 ] final  175.61 input  175.53 | X-H torsion
[ 8008 7997 7996 7995 ] final  -85.06 input   59.86 | X-H torsion
[ 10167 10162 10161 10158 ] final  -53.16 input  -65.29 | X-H torsion
[ 10718 10713 10712 10709 ] final  167.53 input   66.30 | X-H torsion
[ 10763 10752 10751 10750 ] final  126.11 input  -60.55 | X-H torsion
[ 11005 11000 10999 10996 ] final -104.47 input  -57.11 | X-H torsion

> <Gold.Protein.ActiveResidues>
 VAL166  LYS551  ARG553  GLY616  TRP617  ASP618  TYR619  PRO620  LYS621  CYS622 
 ASP623  PHE694  ASN695  SER759  ASP760  ASP761  ALA762  ILE779  LEU786  VAL792 
 PHE793  MET794  SER795  GLU796  ALA797  LYS798  CYS799  TRP800  GLU811  SER814 

> <Gold.Protein.RotatedAtoms>
  152.4135  133.7000  159.6418 H   0  0  0  0  0  0  0  0  0  0  0  0  # atno 6907 bound_to 6896
  150.8013  133.8582  159.3233 H   0  0  0  0  0  0  0  0  0  0  0  0  # atno 6908 bound_to 6896
  151.6318  135.1024  160.0175 H   0  0  0  0  0  0  0  0  0  0  0  0  # atno 6909 bound_to 6896
  144.7198  139.9973  143.6440 H   0  0  0  0  0  0  0  0  0  0  0  0  # atno 7974 bound_to 7965
  154.6366  140.0596  156.9796 H   0  0  0  0  0  0  0  0  0  0  0  0  # atno 8008 bound_to 7997
  155.1582  140.3280  155.4398 H   0  0  0  0  0  0  0  0  0  0  0  0  # atno 8009 bound_to 7997
  156.2510  140.1935  156.6691 H   0  0  0  0  0  0  0  0  0  0  0  0  # atno 8010 bound_to 7997
  140.6500  143.2559  151.4751 H   0  0  0  0  0  0  0  0  0  0  0  0  # atno 10167 bound_to 10162
  157.0502  131.0311  151.2683 H   0  0  0  0  0  0  0  0  0  0  0  0  # atno 10718 bound_to 10713
  153.6880  135.3303  155.3195 H   0  0  0  0  0  0  0  0  0  0  0  0  # atno 10763 bound_to 10752
  154.8448  135.4425  154.1537 H   0  0  0  0  0  0  0  0  0  0  0  0  # atno 10764 bound_to 10752
  153.2571  135.6987  153.7694 H   0  0  0  0  0  0  0  0  0  0  0  0  # atno 10765 bound_to 10752
  141.1099  133.8726  157.1615 H   0  0  0  0  0  0  0  0  0  0  0  0  # atno 11005 bound_to 11000
  146.0363  139.3381  143.0724 LP  0  0  0  0  0  0  0  0  0  0  0  0  # atno 17320 bound_to 7965
  145.8390  140.9591  143.0809 LP  0  0  0  0  0  0  0  0  0  0  0  0  # atno 17321 bound_to 7965
  139.5714  144.1920  152.1841 LP  0  0  0  0  0  0  0  0  0  0  0  0  # atno 17342 bound_to 10162
  140.1218  144.5367  150.6858 LP  0  0  0  0  0  0  0  0  0  0  0  0  # atno 17343 bound_to 10162
  157.5036  130.7895  149.7630 LP  0  0  0  0  0  0  0  0  0  0  0  0  # atno 17370 bound_to 10713
  156.0010  130.3880  150.2607 LP  0  0  0  0  0  0  0  0  0  0  0  0  # atno 17371 bound_to 10713
  139.9987  135.0036  157.0141 LP  0  0  0  0  0  0  0  0  0  0  0  0  # atno 17394 bound_to 11000
  140.4804  134.1295  155.7216 LP  0  0  0  0  0  0  0  0  0  0  0  0  # atno 17395 bound_to 11000

$$$$
