AV-unprocessed.smi:688|AV-procd|sdf|3357|dock1
  -GOLD-   22720 0333D 1   1.00000     0.00000
 Structure written by MMmdl.
 35 36  0  0  0  0  0  0  0  0  2 V2000
  149.6670  132.1378  156.4283 O   0  0  0  0  0  0  0  0  0  0  0  0
  149.7438  133.3601  156.3147 C   0  0  0  0  0  0  0  0  0  0  0  0
  150.0329  134.1806  157.3665 N   0  5  0  0  0  0  0  0  0  0  0  0
  150.1155  135.5427  157.2621 C   0  0  0  0  0  0  0  0  0  0  0  0
  150.3780  136.2604  158.2271 O   0  0  0  0  0  0  0  0  0  0  0  0
  149.8976  136.1254  156.0452 N   0  0  0  0  0  0  0  0  0  0  0  0
  149.9521  137.5848  155.8494 C   0  0  0  0  0  0  0  0  0  0  0  0
  150.9962  138.0046  154.7893 C   0  0  1  0  0  0  0  0  0  0  0  0
  150.3800  137.9635  153.5187 O   0  0  0  0  0  0  0  0  0  0  0  0
  151.5764  139.4146  155.0140 C   0  0  0  0  0  0  0  0  0  0  0  0
  150.7953  140.0846  155.9945 O   0  0  0  0  0  0  0  0  0  0  0  0
  151.3623  140.0545  157.2966 C   0  0  0  0  0  0  0  0  0  0  0  0
  151.5807  141.4451  157.8706 C   0  0  0  0  0  0  0  0  0  0  0  0
  152.1758  141.5986  159.1406 C   0  0  0  0  0  0  0  0  0  0  0  0
  152.3676  142.8841  159.6822 C   0  0  0  0  0  0  0  0  0  0  0  0
  151.9628  144.0216  158.9573 C   0  0  0  0  0  0  0  0  0  0  0  0
  152.1826  145.5960  159.6272 Cl  0  0  0  0  0  0  0  0  0  0  0  0
  151.3740  143.8726  157.6865 C   0  0  0  0  0  0  0  0  0  0  0  0
  151.1869  142.5870  157.1419 C   0  0  0  0  0  0  0  0  0  0  0  0
  149.6042  135.3231  154.9282 C   0  0  0  0  0  0  0  0  0  0  0  0
  149.5141  133.9818  155.0126 C   0  0  0  0  0  0  0  0  0  0  0  0
  149.1265  133.0255  153.6269 Cl  0  0  0  0  0  0  0  0  0  0  0  0
  148.9621  137.9367  155.5528 H   0  0  0  0  0  0  0  0  0  0  0  0
  150.1603  138.0924  156.7923 H   0  0  0  0  0  0  0  0  0  0  0  0
  151.8058  137.2741  154.7818 H   0  0  0  0  0  0  0  0  0  0  0  0
  149.9875  137.1111  153.4075 H   0  0  0  0  0  0  0  0  0  0  0  0
  152.6250  139.3851  155.3144 H   0  0  0  0  0  0  0  0  0  0  0  0
  151.5498  139.9752  154.0819 H   0  0  0  0  0  0  0  0  0  0  0  0
  150.6738  139.5239  157.9544 H   0  0  0  0  0  0  0  0  0  0  0  0
  152.2923  139.4833  157.2898 H   0  0  0  0  0  0  0  0  0  0  0  0
  152.4773  140.7301  159.7081 H   0  0  0  0  0  0  0  0  0  0  0  0
  152.8140  142.9949  160.6596 H   0  0  0  0  0  0  0  0  0  0  0  0
  151.0622  144.7439  157.1295 H   0  0  0  0  0  0  0  0  0  0  0  0
  150.7312  142.4814  156.1682 H   0  0  0  0  0  0  0  0  0  0  0  0
  149.4437  135.8624  154.0062 H   0  0  0  0  0  0  0  0  0  0  0  0
  1  2  2  0  0  0  0
  2 21  1  0  0  0  0
  2  3  1  0  0  0  0
  3  4  1  0  0  0  0
  4  5  2  0  0  0  0
  4  6  1  0  0  0  0
  6  7  1  0  0  0  0
  6 20  1  0  0  0  0
  7  8  1  0  0  0  0
  7 23  1  0  0  0  0
  7 24  1  0  0  0  0
  8  9  1  0  0  0  0
  8 10  1  0  0  0  0
  8 25  1  0  0  0  0
  9 26  1  0  0  0  0
 10 11  1  0  0  0  0
 10 27  1  0  0  0  0
 10 28  1  0  0  0  0
 11 12  1  0  0  0  0
 12 13  1  0  0  0  0
 12 29  1  0  0  0  0
 12 30  1  0  0  0  0
 13 19  1  0  0  0  0
 13 14  2  0  0  0  0
 14 15  1  0  0  0  0
 14 31  1  0  0  0  0
 15 16  2  0  0  0  0
 15 32  1  0  0  0  0
 16 17  1  0  0  0  0
 16 18  1  0  0  0  0
 18 19  2  0  0  0  0
 18 33  1  0  0  0  0
 19 34  1  0  0  0  0
 20 21  2  0  0  0  0
 20 35  1  0  0  0  0
 21 22  1  0  0  0  0
M  CHG  1   3  -1
M  END
> <s_m_source_file>
AV-unprocessed.smi

> <i_m_source_file_index>
688

> <i_lp_mmshare_version>
43012

> <i_f3d_flags>
0

> <s_epik_input>
Tz1jMVtuSF1jKD1PKW4oW2NIXWMxQ2wpW0NIMl1bQ0BIXShbT0hdKVtDSDJdT1tDSDJdYzJbY0hdW2NIXWMoQ2wpW2NIXVtjSF0y

> <s_epik_cmdline>
J2VwaWtfcHl0aG9uJywgJy1waCcsICc3LjAnLCAnLXRuJywgJzgnLCAnLW1hJywgJzIwMCcsICctbWV0YWxfYmluZGluZycsICctaW1hZScsICc8aW5maWxlLm1hZT4nLCAnLW9tYWUnLCAnPG91dGZpbGUubWFlPic=

> <r_epik_Ionization_Penalty>
1.82111

> <r_epik_Ionization_Penalty_Charging>
5.03334e-08

> <r_epik_Ionization_Penalty_Neutral>
1.82111

> <r_epik_State_Penalty>
1.93633

> <r_epik_Charging_Adjusted_Penalty>
1.93633

> <i_epik_Tot_Q>
-1

> <i_epik_Tot_abs_Q>
1

> <r_epik_Metal_State_Penalty>
0.0147818

> <b_epik_Metal_Only>
0

> <s_lp_Force_Field>
OPLS_2005

> <r_lp_Energy>
20.5354

> <b_lp_Chiralities_Consistent>
1

> <s_lp_Variant>
AV-unprocessed.smi:688-4

> <Gold.Version>
5.8.1

> <Gold.Id.Protein>
6NUR|6NUR_protein|mol2

> <Gold.PLP.Fitness>
50.1737

> <Gold.PLP.PLP>
-42.8181

> <Gold.PLP.part.hbond>
-4.3114

> <Gold.PLP.part.metal>
0.0000

> <Gold.PLP.part.buried>
-3.0697

> <Gold.PLP.part.nonpolar>
-36.4430

> <Gold.PLP.part.repulsive>
0.0000

> <Gold.PLP.ligand.clash>
0.0000

> <Gold.PLP.ligand.torsion>
1.6627

> <Gold.PLP.Chemscore.Hbond>
2.4506

> <Gold.PLP.Chemscore.CHOScore>
1.0000

> <Gold.PLP.Chemscore.Metal>
0.0000

> <Gold.Chemscore.Hbonds>
donor molecule, donor type, donor heavy atom, donor atom, acceptor molecule, acceptor atom, score
      L1  H     9    26       P1  7948  0.66
      P1  H  6896  6908       L1     3  1.63
      P1  H  6896  6909       L1     5  0.04
      L1  C    20    35       P1  7948  1.00

> <Gold.PLP.Chemscore.Internal.Correction>
0.3293

> <Gold.Rescore>
     Score         DG    S(hbond)    S(metal)    S(lipo)     H(rot)  DE(clash)    DE(int)     intcor
     13.35     -15.27       1.26        0.00     110.21       2.85       0.26       1.66       ----

> <Gold.Chemscore.Fitness>
13.3474

> <Gold.Chemscore.DG>
-15.2715

> <Gold.Chemscore.ZeroCoef>
-5.4800

> <Gold.Chemscore.Hbond>
1.2586

> <Gold.Chemscore.Metal>
0.0000

> <Gold.Chemscore.Lipo>
110.2097

> <Gold.Chemscore.Internal_Hbond>
0.0000

> <Gold.Chemscore.DEClash>
0.2615

> <Gold.Chemscore.DEInternal>
1.6626

> <Gold.Chemscore.Rot>
2.8542

> <Gold.Chemscore.Internal.Correction>
   9.000000E+99

> <Gold.Chemscore.Hbonds>
donor molecule, donor type, donor heavy atom, donor atom, acceptor molecule, acceptor atom, score
      L1  H     9    26       P1  7948  0.18
      P1  H  6896  6908       L1     3  0.27
      P1  H  6896  6909       L1     5  0.04

> <Gold.Chemscore.Hbond.Weighted>
-4.2036

> <Gold.Chemscore.Metal.Weighted>
-0.0000

> <Gold.Chemscore.Lipo.Weighted>
-12.8945

> <Gold.Chemscore.Internal_Hbond.Weighted>
0.0000

> <Gold.Chemscore.DEClash.Weighted>
0.2615

> <Gold.Chemscore.DEInternal.Weighted>
1.6626

> <Gold.Chemscore.Rot.Weighted>
7.3067

> <Gold.Chemscore.Internal.Correction.Weighted>
   9.000000E+99

> <Gold.Protein.RotatedTorsions>
[ 6907 6896 6895 6894 ] final  121.75 input  -60.11 | X-H torsion
[ 7974 7965 7964 7962 ] final -139.23 input  175.53 | X-H torsion
[ 8008 7997 7996 7995 ] final   35.21 input   59.86 | X-H torsion
[ 10167 10162 10161 10158 ] final  -32.55 input  -65.29 | X-H torsion
[ 10718 10713 10712 10709 ] final -101.34 input   66.30 | X-H torsion
[ 10763 10752 10751 10750 ] final -117.97 input  -60.55 | X-H torsion
[ 11005 11000 10999 10996 ] final   82.19 input  -57.11 | X-H torsion

> <Gold.Protein.ActiveResidues>
 VAL166  LYS551  ARG553  GLY616  TRP617  ASP618  TYR619  PRO620  LYS621  CYS622 
 ASP623  PHE694  ASN695  SER759  ASP760  ASP761  ALA762  ILE779  LEU786  VAL792 
 PHE793  MET794  SER795  GLU796  ALA797  LYS798  CYS799  TRP800  GLU811  SER814 

> <Gold.Protein.RotatedAtoms>
  152.4297  133.7257  159.6558 H   0  0  0  0  0  0  0  0  0  0  0  0  # atno 6907 bound_to 6896
  150.8176  133.8299  159.3159 H   0  0  0  0  0  0  0  0  0  0  0  0  # atno 6908 bound_to 6896
  151.5991  135.1050  160.0108 H   0  0  0  0  0  0  0  0  0  0  0  0  # atno 6909 bound_to 6896
  144.8693  140.6342  143.5277 H   0  0  0  0  0  0  0  0  0  0  0  0  # atno 7974 bound_to 7965
  155.1674  140.3289  155.4399 H   0  0  0  0  0  0  0  0  0  0  0  0  # atno 8008 bound_to 7997
  156.2522  140.1949  156.6730 H   0  0  0  0  0  0  0  0  0  0  0  0  # atno 8009 bound_to 7997
  154.6361  140.0576  156.9777 H   0  0  0  0  0  0  0  0  0  0  0  0  # atno 8010 bound_to 7997
  140.7219  143.3686  151.1821 H   0  0  0  0  0  0  0  0  0  0  0  0  # atno 10167 bound_to 10162
  156.0191  130.5369  150.6949 H   0  0  0  0  0  0  0  0  0  0  0  0  # atno 10718 bound_to 10713
  154.8572  135.4291  154.2064 H   0  0  0  0  0  0  0  0  0  0  0  0  # atno 10763 bound_to 10752
  153.3099  135.6975  153.7131 H   0  0  0  0  0  0  0  0  0  0  0  0  # atno 10764 bound_to 10752
  153.6228  135.3499  155.2990 H   0  0  0  0  0  0  0  0  0  0  0  0  # atno 10765 bound_to 10752
  139.9072  134.8053  156.2141 H   0  0  0  0  0  0  0  0  0  0  0  0  # atno 11005 bound_to 11000
  145.4160  139.1572  143.4100 LP  0  0  0  0  0  0  0  0  0  0  0  0  # atno 17320 bound_to 7965
  146.2919  140.4268  142.8736 LP  0  0  0  0  0  0  0  0  0  0  0  0  # atno 17321 bound_to 7965
  139.7253  143.9158  152.3000 LP  0  0  0  0  0  0  0  0  0  0  0  0  # atno 17342 bound_to 10162
  139.8929  144.6955  150.8751 LP  0  0  0  0  0  0  0  0  0  0  0  0  # atno 17343 bound_to 10162
  157.4622  131.0884  151.0733 LP  0  0  0  0  0  0  0  0  0  0  0  0  # atno 17370 bound_to 10713
  157.1218  130.6065  149.5507 LP  0  0  0  0  0  0  0  0  0  0  0  0  # atno 17371 bound_to 10713
  141.0447  133.6919  156.1661 LP  0  0  0  0  0  0  0  0  0  0  0  0  # atno 17394 bound_to 11000
  140.6902  134.4673  157.5588 LP  0  0  0  0  0  0  0  0  0  0  0  0  # atno 17395 bound_to 11000

$$$$
