AV-unprocessed.smi:1653|AV-procd|sdf|6641|dock9
  -GOLD-   22720 7343D 1   1.00000     0.00000
 Structure written by MMmdl.
 41 42  0  0  0  0  0  0  0  0  3 V2000
  145.9943  141.5543  158.9778 N   0  0  0  0  0  0  0  0  0  0  0  0
  146.6097  141.5625  157.9978 C   0  0  0  0  0  0  0  0  0  0  0  0
  147.3955  141.5742  156.7481 C   0  0  0  0  0  0  0  0  0  0  0  0
  148.6639  142.2812  156.9603 N   0  0  0  0  0  0  0  0  0  0  0  0
  149.6288  141.9729  157.8422 C   0  0  0  0  0  0  0  0  0  0  0  0
  149.5723  141.0042  158.5998 O   0  0  0  0  0  0  0  0  0  0  0  0
  150.8553  142.8954  157.8434 C   0  0  0  0  0  0  0  0  0  0  0  0
  151.8496  142.5320  158.8674 N   0  0  0  0  0  0  0  0  0  0  0  0
  152.0379  143.4407  159.9255 C   0  0  0  0  0  0  0  0  0  0  0  0
  152.9221  143.2120  160.9069 C   0  0  0  0  0  0  0  0  0  0  0  0
  153.6899  141.9917  160.8635 C   0  0  0  0  0  0  0  0  0  0  0  0
  153.5278  141.1039  159.8554 C   0  0  0  0  0  0  0  0  0  0  0  0
  154.3237  139.8983  159.8763 N   0  3  0  0  0  0  0  0  0  0  0  0
  154.9729  139.6341  160.8837 O   0  0  0  0  0  0  0  0  0  0  0  0
  154.3338  139.1855  158.8773 O   0  5  0  0  0  0  0  0  0  0  0  0
  152.5612  141.3660  158.7690 C   0  0  0  0  0  0  0  0  0  0  0  0
  152.3974  140.5976  157.8191 O   0  0  0  0  0  0  0  0  0  0  0  0
  147.6285  140.1049  156.2975 C   0  0  0  0  0  0  0  0  0  0  0  0
  148.6005  139.9114  155.1144 C   0  0  0  0  0  0  0  0  0  0  0  0
  147.9755  140.0167  153.7126 C   0  0  0  0  0  0  0  0  0  0  0  0
  146.9053  141.1032  153.5123 C   0  0  0  0  0  0  0  0  0  0  0  0
  147.1402  142.4143  154.2784 C   0  0  0  0  0  0  0  0  0  0  0  0
  146.5756  142.3737  155.7117 C   0  0  0  0  0  0  0  0  0  0  0  0
  148.8151  143.0946  156.3816 H   0  0  0  0  0  0  0  0  0  0  0  0
  151.3000  142.8669  156.8477 H   0  0  0  0  0  0  0  0  0  0  0  0
  150.5373  143.9307  157.9828 H   0  0  0  0  0  0  0  0  0  0  0  0
  151.4298  144.3328  159.8816 H   0  0  0  0  0  0  0  0  0  0  0  0
  153.0575  143.9236  161.7080 H   0  0  0  0  0  0  0  0  0  0  0  0
  154.3939  141.7920  161.6584 H   0  0  0  0  0  0  0  0  0  0  0  0
  148.0311  139.5501  157.1457 H   0  0  0  0  0  0  0  0  0  0  0  0
  146.6755  139.6225  156.0767 H   0  0  0  0  0  0  0  0  0  0  0  0
  149.4396  140.6018  155.1882 H   0  0  0  0  0  0  0  0  0  0  0  0
  149.0517  138.9221  155.1966 H   0  0  0  0  0  0  0  0  0  0  0  0
  148.7820  140.1760  152.9960 H   0  0  0  0  0  0  0  0  0  0  0  0
  147.5356  139.0556  153.4441 H   0  0  0  0  0  0  0  0  0  0  0  0
  146.8465  141.3216  152.4454 H   0  0  0  0  0  0  0  0  0  0  0  0
  145.9258  140.7012  153.7742 H   0  0  0  0  0  0  0  0  0  0  0  0
  148.1932  142.6967  154.2650 H   0  0  0  0  0  0  0  0  0  0  0  0
  146.6166  143.2077  153.7441 H   0  0  0  0  0  0  0  0  0  0  0  0
  145.5546  141.9901  155.6808 H   0  0  0  0  0  0  0  0  0  0  0  0
  146.4794  143.4003  156.0691 H   0  0  0  0  0  0  0  0  0  0  0  0
  1  2  3  0  0  0  0
  2  3  1  0  0  0  0
  3 23  1  0  0  0  0
  3  4  1  0  0  0  0
  3 18  1  0  0  0  0
  4  5  1  0  0  0  0
  4 24  1  0  0  0  0
  5  6  2  0  0  0  0
  5  7  1  0  0  0  0
  7  8  1  0  0  0  0
  7 25  1  0  0  0  0
  7 26  1  0  0  0  0
  8 16  1  0  0  0  0
  8  9  1  0  0  0  0
  9 10  2  0  0  0  0
  9 27  1  0  0  0  0
 10 11  1  0  0  0  0
 10 28  1  0  0  0  0
 11 12  2  0  0  0  0
 11 29  1  0  0  0  0
 12 13  1  0  0  0  0
 12 16  1  0  0  0  0
 13 14  2  0  0  0  0
 13 15  1  0  0  0  0
 16 17  2  0  0  0  0
 18 19  1  0  0  0  0
 18 30  1  0  0  0  0
 18 31  1  0  0  0  0
 19 20  1  0  0  0  0
 19 32  1  0  0  0  0
 19 33  1  0  0  0  0
 20 21  1  0  0  0  0
 20 34  1  0  0  0  0
 20 35  1  0  0  0  0
 21 22  1  0  0  0  0
 21 36  1  0  0  0  0
 21 37  1  0  0  0  0
 22 23  1  0  0  0  0
 22 38  1  0  0  0  0
 22 39  1  0  0  0  0
 23 40  1  0  0  0  0
 23 41  1  0  0  0  0
M  CHG  1  13   1
M  CHG  1  15  -1
M  END
> <s_m_source_file>
AV-unprocessed.smi

> <i_m_source_file_index>
1653

> <i_lp_mmshare_version>
43012

> <i_f3d_flags>
0

> <s_epik_input>
W0NIMl0xW0NIMl1bQ0gyXVtDSDJdW0NIMl1bQ0gyXUMxKEMjTilbTkhdQyg9TylbQ0gyXW4yW2NIXVtjSF1bY0hdYyhbTitdKD1PKVtPLV0pYzI9Tw==

> <s_epik_cmdline>
J2VwaWtfcHl0aG9uJywgJy1waCcsICc3LjAnLCAnLXRuJywgJzgnLCAnLW1hJywgJzIwMCcsICctbWV0YWxfYmluZGluZycsICctaW1hZScsICc8aW5maWxlLm1hZT4nLCAnLW9tYWUnLCAnPG91dGZpbGUubWFlPic=

> <r_lp_tautomer_probability>
1

> <r_epik_Ionization_Penalty>
4.51252e-07

> <r_epik_Ionization_Penalty_Charging>
1.09758e-10

> <r_epik_Ionization_Penalty_Neutral>
4.51142e-07

> <r_epik_State_Penalty>
-0

> <r_epik_Charging_Adjusted_Penalty>
1.09758e-10

> <i_epik_Tot_Q>
0

> <i_epik_Tot_abs_Q>
2

> <r_epik_Metal_State_Penalty>
-0

> <b_epik_Metal_Only>
0

> <s_lp_Force_Field>
OPLS_2005

> <r_lp_Energy>
31.6459

> <b_lp_Chiralities_Consistent>
1

> <s_lp_Variant>
AV-unprocessed.smi:1653-1

> <Gold.Version>
5.8.1

> <Gold.Id.Protein>
6NUR|6NUR_protein|mol2

> <Gold.PLP.Fitness>
45.9152

> <Gold.PLP.PLP>
-37.9205

> <Gold.PLP.part.hbond>
-4.1153

> <Gold.PLP.part.metal>
0.0000

> <Gold.PLP.part.buried>
-2.7012

> <Gold.PLP.part.nonpolar>
-31.6079

> <Gold.PLP.part.repulsive>
0.0269

> <Gold.PLP.ligand.clash>
0.0000

> <Gold.PLP.ligand.torsion>
0.1224

> <Gold.PLP.Chemscore.Hbond>
2.7410

> <Gold.PLP.Chemscore.CHOScore>
0.0000

> <Gold.PLP.Chemscore.Metal>
0.0000

> <Gold.Chemscore.Hbonds>
donor molecule, donor type, donor heavy atom, donor atom, acceptor molecule, acceptor atom, score
      L1  H     4    24       P1  8028  1.00
      P1  H  6934  6946       L1     1  0.76
      P1  H  7997  8010       L1    15  1.00

> <Gold.PLP.Chemscore.Internal.Correction>
0.0164

> <Gold.Rescore>
     Score         DG    S(hbond)    S(metal)    S(lipo)     H(rot)  DE(clash)    DE(int)     intcor
     16.43     -19.66       2.63        0.00      81.79       1.63       0.12       3.11       ----

> <Gold.Chemscore.Fitness>
16.4336

> <Gold.Chemscore.DG>
-19.6636

> <Gold.Chemscore.ZeroCoef>
-5.4800

> <Gold.Chemscore.Hbond>
2.6297

> <Gold.Chemscore.Metal>
0.0000

> <Gold.Chemscore.Lipo>
81.7939

> <Gold.Chemscore.Internal_Hbond>
0.0000

> <Gold.Chemscore.DEClash>
0.1229

> <Gold.Chemscore.DEInternal>
3.1071

> <Gold.Chemscore.Rot>
1.6287

> <Gold.Chemscore.Internal.Correction>
   9.000000E+99

> <Gold.Chemscore.Hbonds>
donor molecule, donor type, donor heavy atom, donor atom, acceptor molecule, acceptor atom, score
      L1  H     4    24       P1  8028  0.98
      P1  H  6934  6946       L1     1  0.68
      P1  H  7997  8010       L1    15  0.93

> <Gold.Chemscore.Hbond.Weighted>
-8.7831

> <Gold.Chemscore.Metal.Weighted>
-0.0000

> <Gold.Chemscore.Lipo.Weighted>
-9.5699

> <Gold.Chemscore.Internal_Hbond.Weighted>
0.0000

> <Gold.Chemscore.DEClash.Weighted>
0.1229

> <Gold.Chemscore.DEInternal.Weighted>
3.1071

> <Gold.Chemscore.Rot.Weighted>
4.1694

> <Gold.Chemscore.Internal.Correction.Weighted>
   9.000000E+99

> <Gold.Protein.RotatedTorsions>
[ 6907 6896 6895 6894 ] final  138.96 input  -60.11 | X-H torsion
[ 7974 7965 7964 7962 ] final -163.39 input  175.53 | X-H torsion
[ 8008 7997 7996 7995 ] final   25.25 input   59.86 | X-H torsion
[ 10167 10162 10161 10158 ] final  -18.97 input  -65.29 | X-H torsion
[ 10718 10713 10712 10709 ] final   32.47 input   66.30 | X-H torsion
[ 10763 10752 10751 10750 ] final   16.20 input  -60.55 | X-H torsion
[ 11005 11000 10999 10996 ] final  -20.66 input  -57.11 | X-H torsion

> <Gold.Protein.ActiveResidues>
 VAL166  LYS551  ARG553  GLY616  TRP617  ASP618  TYR619  PRO620  LYS621  CYS622 
 ASP623  PHE694  ASN695  SER759  ASP760  ASP761  ALA762  ILE779  LEU786  VAL792 
 PHE793  MET794  SER795  GLU796  ALA797  LYS798  CYS799  TRP800  GLU811  SER814 

> <Gold.Protein.RotatedAtoms>
  152.2605  133.5293  159.5378 H   0  0  0  0  0  0  0  0  0  0  0  0  # atno 6907 bound_to 6896
  150.7123  134.0836  159.3915 H   0  0  0  0  0  0  0  0  0  0  0  0  # atno 6908 bound_to 6896
  151.8754  135.0474  160.0534 H   0  0  0  0  0  0  0  0  0  0  0  0  # atno 6909 bound_to 6896
  144.7327  140.3113  143.6187 H   0  0  0  0  0  0  0  0  0  0  0  0  # atno 7974 bound_to 7965
  155.0088  140.3134  155.4838 H   0  0  0  0  0  0  0  0  0  0  0  0  # atno 8008 bound_to 7997
  156.2912  140.2218  156.5143 H   0  0  0  0  0  0  0  0  0  0  0  0  # atno 8009 bound_to 7997
  154.7553  140.0463  157.0916 H   0  0  0  0  0  0  0  0  0  0  0  0  # atno 8010 bound_to 7997
  140.7264  143.4864  151.0049 H   0  0  0  0  0  0  0  0  0  0  0  0  # atno 10167 bound_to 10162
  157.2857  130.7277  149.6581 H   0  0  0  0  0  0  0  0  0  0  0  0  # atno 10718 bound_to 10713
  153.1453  135.6768  153.8965 H   0  0  0  0  0  0  0  0  0  0  0  0  # atno 10763 bound_to 10752
  153.8408  135.3105  155.3427 H   0  0  0  0  0  0  0  0  0  0  0  0  # atno 10764 bound_to 10752
  154.7820  135.4883  153.9949 H   0  0  0  0  0  0  0  0  0  0  0  0  # atno 10765 bound_to 10752
  140.8486  133.7873  155.9940 H   0  0  0  0  0  0  0  0  0  0  0  0  # atno 11005 bound_to 11000
  145.7662  139.1841  143.2239 LP  0  0  0  0  0  0  0  0  0  0  0  0  # atno 17320 bound_to 7965
  146.0947  140.7614  142.9578 LP  0  0  0  0  0  0  0  0  0  0  0  0  # atno 17321 bound_to 7965
  139.8566  143.7369  152.3175 LP  0  0  0  0  0  0  0  0  0  0  0  0  # atno 17342 bound_to 10162
  139.7569  144.7518  151.0421 LP  0  0  0  0  0  0  0  0  0  0  0  0  # atno 17343 bound_to 10162
  155.9665  130.4324  150.4963 LP  0  0  0  0  0  0  0  0  0  0  0  0  # atno 17370 bound_to 10713
  157.2916  131.0627  151.2130 LP  0  0  0  0  0  0  0  0  0  0  0  0  # atno 17371 bound_to 10713
  140.8815  134.2605  157.5141 LP  0  0  0  0  0  0  0  0  0  0  0  0  # atno 17394 bound_to 11000
  139.8704  134.9617  156.4406 LP  0  0  0  0  0  0  0  0  0  0  0  0  # atno 17395 bound_to 11000

$$$$
