AV-unprocessed.smi:701|AV-procd|sdf|3415|dock4
  -GOLD-   22720 0403D 1   1.00000     0.00000
 Structure written by MMmdl.
 48 50  0  0  0  0  0  0  0  0  2 V2000
  148.0205  135.8191  158.5764 C   0  0  0  0  0  0  0  0  0  0  0  0
  147.6543  137.2824  158.3207 C   0  0  0  0  0  0  0  0  0  0  0  0
  148.6355  137.8555  157.4733 O   0  0  0  0  0  0  0  0  0  0  0  0
  149.7244  138.4187  158.1857 C   0  0  1  0  0  0  0  0  0  0  0  0
  150.6762  137.3895  158.8014 C   0  0  0  0  0  0  0  0  0  0  0  0
  151.8268  138.3036  158.3659 C   0  0  2  0  0  0  0  0  0  0  0  0
  152.1942  139.2429  159.4257 N   0  0  0  0  0  0  0  0  0  0  0  0
  153.1230  140.2013  159.3109 C   0  0  0  0  0  0  0  0  0  0  0  0
  153.7948  140.3747  158.2937 O   0  0  0  0  0  0  0  0  0  0  0  0
  153.3461  141.0788  160.5482 C   0  0  0  0  0  0  0  0  0  0  0  0
  152.8751  142.4570  160.3436 N   0  0  0  0  0  0  0  0  0  0  0  0
  153.1078  143.0518  159.0911 C   0  0  0  0  0  0  0  0  0  0  0  0
  152.7060  144.3073  158.8157 C   0  0  0  0  0  0  0  0  0  0  0  0
  152.0123  145.0542  159.8576 C   0  0  0  0  0  0  0  0  0  0  0  0
  151.6430  146.2037  159.6255 O   0  0  0  0  0  0  0  0  0  0  0  0
  151.8053  144.4312  161.0548 N   0  5  0  0  0  0  0  0  0  0  0  0
  152.2175  143.1529  161.3200 C   0  0  0  0  0  0  0  0  0  0  0  0
  152.0184  142.6081  162.4067 O   0  0  0  0  0  0  0  0  0  0  0  0
  150.8879  138.9197  157.2887 C   0  0  0  0  0  0  0  0  0  0  0  0
  151.0383  138.2502  155.9018 C   0  0  0  0  0  0  0  0  0  0  0  0
  150.0530  138.7664  154.8361 C   0  0  0  0  0  0  0  0  0  0  0  0
  150.1177  140.2908  154.6985 C   0  0  0  0  0  0  0  0  0  0  0  0
  149.9420  140.9696  156.0603 C   0  0  0  0  0  0  0  0  0  0  0  0
  150.9703  140.4456  157.0744 C   0  0  0  0  0  0  0  0  0  0  0  0
  147.2870  135.3407  159.2254 H   0  0  0  0  0  0  0  0  0  0  0  0
  148.9959  135.7378  159.0566 H   0  0  0  0  0  0  0  0  0  0  0  0
  148.0581  135.2574  157.6426 H   0  0  0  0  0  0  0  0  0  0  0  0
  146.6708  137.3419  157.8523 H   0  0  0  0  0  0  0  0  0  0  0  0
  147.6047  137.8248  159.2657 H   0  0  0  0  0  0  0  0  0  0  0  0
  149.4100  139.1773  158.9060 H   0  0  0  0  0  0  0  0  0  0  0  0
  150.5658  137.2527  159.8779 H   0  0  0  0  0  0  0  0  0  0  0  0
  150.6730  136.4339  158.2754 H   0  0  0  0  0  0  0  0  0  0  0  0
  152.6740  137.7613  157.9422 H   0  0  0  0  0  0  0  0  0  0  0  0
  151.6895  139.1733  160.2973 H   0  0  0  0  0  0  0  0  0  0  0  0
  152.8579  140.6382  161.4199 H   0  0  0  0  0  0  0  0  0  0  0  0
  154.4112  141.0695  160.7828 H   0  0  0  0  0  0  0  0  0  0  0  0
  153.6213  142.4286  158.3739 H   0  0  0  0  0  0  0  0  0  0  0  0
  152.8898  144.7489  157.8475 H   0  0  0  0  0  0  0  0  0  0  0  0
  152.0540  138.4048  155.5350 H   0  0  0  0  0  0  0  0  0  0  0  0
  150.9248  137.1688  155.9828 H   0  0  0  0  0  0  0  0  0  0  0  0
  150.2730  138.3008  153.8752 H   0  0  0  0  0  0  0  0  0  0  0  0
  149.0354  138.4689  155.0871 H   0  0  0  0  0  0  0  0  0  0  0  0
  151.0790  140.5776  154.2705 H   0  0  0  0  0  0  0  0  0  0  0  0
  149.3524  140.6376  154.0035 H   0  0  0  0  0  0  0  0  0  0  0  0
  150.0450  142.0494  155.9514 H   0  0  0  0  0  0  0  0  0  0  0  0
  148.9332  140.7899  156.4345 H   0  0  0  0  0  0  0  0  0  0  0  0
  150.8128  140.9775  158.0130 H   0  0  0  0  0  0  0  0  0  0  0  0
  151.9732  140.7212  156.7451 H   0  0  0  0  0  0  0  0  0  0  0  0
  1  2  1  0  0  0  0
  1 25  1  0  0  0  0
  1 26  1  0  0  0  0
  1 27  1  0  0  0  0
  2  3  1  0  0  0  0
  2 28  1  0  0  0  0
  2 29  1  0  0  0  0
  3  4  1  0  0  0  0
  4 19  1  0  0  0  0
  4  5  1  0  0  0  0
  4 30  1  0  0  0  0
  5  6  1  0  0  0  0
  5 31  1  0  0  0  0
  5 32  1  0  0  0  0
  6  7  1  0  0  0  0
  6 19  1  0  0  0  0
  6 33  1  0  0  0  0
  7  8  1  0  0  0  0
  7 34  1  0  0  0  0
  8  9  2  0  0  0  0
  8 10  1  0  0  0  0
 10 11  1  0  0  0  0
 10 35  1  0  0  0  0
 10 36  1  0  0  0  0
 11 17  1  0  0  0  0
 11 12  1  0  0  0  0
 12 13  2  0  0  0  0
 12 37  1  0  0  0  0
 13 14  1  0  0  0  0
 13 38  1  0  0  0  0
 14 15  2  0  0  0  0
 14 16  1  0  0  0  0
 16 17  1  0  0  0  0
 17 18  2  0  0  0  0
 19 24  1  0  0  0  0
 19 20  1  0  0  0  0
 20 21  1  0  0  0  0
 20 39  1  0  0  0  0
 20 40  1  0  0  0  0
 21 22  1  0  0  0  0
 21 41  1  0  0  0  0
 21 42  1  0  0  0  0
 22 23  1  0  0  0  0
 22 43  1  0  0  0  0
 22 44  1  0  0  0  0
 23 24  1  0  0  0  0
 23 45  1  0  0  0  0
 23 46  1  0  0  0  0
 24 47  1  0  0  0  0
 24 48  1  0  0  0  0
M  CHG  1  16  -1
M  END
> <s_m_source_file>
AV-unprocessed.smi

> <i_m_source_file_index>
701

> <i_lp_mmshare_version>
43012

> <i_f3d_flags>
0

> <s_epik_input>
W0NIMl0xW0NIMl1bQ0gyXVtDSDJdW0NIMl1DMTJbQ0BIXShPW0NIMl1bQ0gzXSlbQ0gyXVtDQEhdMltOSF1DKD1PKVtDSDJdbjNbY0hdW2NIXWMoPU8pW25IXWMzPU8=

> <s_epik_cmdline>
J2VwaWtfcHl0aG9uJywgJy1waCcsICc3LjAnLCAnLXRuJywgJzgnLCAnLW1hJywgJzIwMCcsICctbWV0YWxfYmluZGluZycsICctaW1hZScsICc8aW5maWxlLm1hZT4nLCAnLW9tYWUnLCAnPG91dGZpbGUubWFlPic=

> <r_lp_tautomer_probability>
0.999537

> <r_epik_Ionization_Penalty>
3.12423

> <r_epik_Ionization_Penalty_Charging>
2.92877e-08

> <r_epik_Ionization_Penalty_Neutral>
3.12423

> <r_epik_State_Penalty>
3.12332

> <r_epik_Charging_Adjusted_Penalty>
3.12332

> <i_epik_Tot_Q>
-1

> <i_epik_Tot_abs_Q>
1

> <r_epik_Metal_State_Penalty>
0.463873

> <b_epik_Metal_Only>
1

> <s_lp_Force_Field>
OPLS_2005

> <r_lp_Energy>
37.69

> <b_lp_Chiralities_Consistent>
1

> <s_lp_Variant>
AV-unprocessed.smi:701-8

> <Gold.Version>
5.8.1

> <Gold.Id.Protein>
6NUR|6NUR_protein|mol2

> <Gold.PLP.Fitness>
41.2973

> <Gold.PLP.PLP>
-37.6617

> <Gold.PLP.part.hbond>
-3.3169

> <Gold.PLP.part.metal>
0.0000

> <Gold.PLP.part.buried>
-1.3995

> <Gold.PLP.part.nonpolar>
-36.8091

> <Gold.PLP.part.repulsive>
2.4646

> <Gold.PLP.ligand.clash>
0.0000

> <Gold.PLP.ligand.torsion>
0.7329

> <Gold.PLP.Chemscore.Hbond>
1.5893

> <Gold.PLP.Chemscore.CHOScore>
0.0000

> <Gold.PLP.Chemscore.Metal>
0.0000

> <Gold.Chemscore.Hbonds>
donor molecule, donor type, donor heavy atom, donor atom, acceptor molecule, acceptor atom, score
      P1  H  6933  6945       L1    18  0.70
      P1  H  7997  8008       L1     9  0.73

> <Gold.PLP.Chemscore.Internal.Correction>
0.3335

> <Gold.Rescore>
     Score         DG    S(hbond)    S(metal)    S(lipo)     H(rot)  DE(clash)    DE(int)     intcor
     10.12     -15.95       1.82        0.00      82.18       2.04       3.92       1.90       ----

> <Gold.Chemscore.Fitness>
10.1230

> <Gold.Chemscore.DG>
-15.9489

> <Gold.Chemscore.ZeroCoef>
-5.4800

> <Gold.Chemscore.Hbond>
1.8190

> <Gold.Chemscore.Metal>
0.0000

> <Gold.Chemscore.Lipo>
82.1836

> <Gold.Chemscore.Internal_Hbond>
0.0000

> <Gold.Chemscore.DEClash>
3.9215

> <Gold.Chemscore.DEInternal>
1.9044

> <Gold.Chemscore.Rot>
2.0399

> <Gold.Chemscore.Internal.Correction>
   9.000000E+99

> <Gold.Chemscore.Hbonds>
donor molecule, donor type, donor heavy atom, donor atom, acceptor molecule, acceptor atom, score
      P1  H  6933  6945       L1    18  0.35
      P1  H  7997  8008       L1     9  0.70

> <Gold.Chemscore.Hbond.Weighted>
-6.0756

> <Gold.Chemscore.Metal.Weighted>
-0.0000

> <Gold.Chemscore.Lipo.Weighted>
-9.6155

> <Gold.Chemscore.Internal_Hbond.Weighted>
0.0000

> <Gold.Chemscore.DEClash.Weighted>
3.9215

> <Gold.Chemscore.DEInternal.Weighted>
1.9044

> <Gold.Chemscore.Rot.Weighted>
5.2222

> <Gold.Chemscore.Internal.Correction.Weighted>
   9.000000E+99

> <Gold.Protein.RotatedTorsions>
[ 6907 6896 6895 6894 ] final  172.24 input  -60.11 | X-H torsion
[ 7974 7965 7964 7962 ] final  -70.66 input  175.53 | X-H torsion
[ 8008 7997 7996 7995 ] final  -91.88 input   59.86 | X-H torsion
[ 10167 10162 10161 10158 ] final -102.83 input  -65.29 | X-H torsion
[ 10718 10713 10712 10709 ] final  -29.04 input   66.30 | X-H torsion
[ 10763 10752 10751 10750 ] final  -17.53 input  -60.55 | X-H torsion
[ 11005 11000 10999 10996 ] final  170.94 input  -57.11 | X-H torsion

> <Gold.Protein.ActiveResidues>
 VAL166  LYS551  ARG553  GLY616  TRP617  ASP618  TYR619  PRO620  LYS621  CYS622 
 ASP623  PHE694  ASN695  SER759  ASP760  ASP761  ALA762  ILE779  LEU786  VAL792 
 PHE793  MET794  SER795  GLU796  ALA797  LYS798  CYS799  TRP800  GLU811  SER814 

> <Gold.Protein.RotatedAtoms>
  151.7874  133.3356  159.3488 H   0  0  0  0  0  0  0  0  0  0  0  0  # atno 6907 bound_to 6896
  150.7404  134.5874  159.5979 H   0  0  0  0  0  0  0  0  0  0  0  0  # atno 6908 bound_to 6896
  152.3234  134.7353  160.0359 H   0  0  0  0  0  0  0  0  0  0  0  0  # atno 6909 bound_to 6896
  145.6881  140.9163  143.0796 H   0  0  0  0  0  0  0  0  0  0  0  0  # atno 7974 bound_to 7965
  154.7161  140.0515  157.0596 H   0  0  0  0  0  0  0  0  0  0  0  0  # atno 8008 bound_to 7997
  155.0489  140.3177  155.4680 H   0  0  0  0  0  0  0  0  0  0  0  0  # atno 8009 bound_to 7997
  156.2803  140.2119  156.5614 H   0  0  0  0  0  0  0  0  0  0  0  0  # atno 8010 bound_to 7997
  140.2265  143.3637  152.0924 H   0  0  0  0  0  0  0  0  0  0  0  0  # atno 10167 bound_to 10162
  156.4176  130.4420  149.7207 H   0  0  0  0  0  0  0  0  0  0  0  0  # atno 10718 bound_to 10713
  153.5753  135.7006  153.5487 H   0  0  0  0  0  0  0  0  0  0  0  0  # atno 10763 bound_to 10752
  153.3308  135.4048  155.1494 H   0  0  0  0  0  0  0  0  0  0  0  0  # atno 10764 bound_to 10752
  154.8626  135.3718  154.5278 H   0  0  0  0  0  0  0  0  0  0  0  0  # atno 10765 bound_to 10752
  140.3136  134.7496  157.4010 H   0  0  0  0  0  0  0  0  0  0  0  0  # atno 11005 bound_to 11000
  144.7005  139.8785  143.7445 LP  0  0  0  0  0  0  0  0  0  0  0  0  # atno 17320 bound_to 7965
  146.0906  139.3896  143.0408 LP  0  0  0  0  0  0  0  0  0  0  0  0  # atno 17321 bound_to 7965
  139.5125  144.6918  151.5739 LP  0  0  0  0  0  0  0  0  0  0  0  0  # atno 17342 bound_to 10162
  140.6216  143.9247  150.6531 LP  0  0  0  0  0  0  0  0  0  0  0  0  # atno 17343 bound_to 10162
  156.4161  130.7746  151.2761 LP  0  0  0  0  0  0  0  0  0  0  0  0  # atno 17370 bound_to 10713
  157.7508  131.0197  150.3677 LP  0  0  0  0  0  0  0  0  0  0  0  0  # atno 17371 bound_to 10713
  140.1003  134.5482  155.8359 LP  0  0  0  0  0  0  0  0  0  0  0  0  # atno 17394 bound_to 11000
  141.2102  133.6693  156.6496 LP  0  0  0  0  0  0  0  0  0  0  0  0  # atno 17395 bound_to 11000

$$$$
