AV-unprocessed.smi:1066|AV-procd|sdf|4669|dock6
  -GOLD-   22720 3183D 1   1.00000     0.00000
 Structure written by MMmdl.
 38 40  0  0  0  0  0  0  0  0  2 V2000
  150.0010  130.9640  154.8023 C   0  0  0  0  0  0  0  0  0  0  0  0
  149.9042  132.0444  155.8411 C   0  0  0  0  0  0  0  0  0  0  0  0
  150.1371  131.7401  157.1111 N   0  0  0  0  0  0  0  0  0  0  0  0
  149.9666  132.9233  157.8389 O   0  0  0  0  0  0  0  0  0  0  0  0
  149.6364  133.8891  156.9518 C   0  0  0  0  0  0  0  0  0  0  0  0
  149.3136  135.5080  157.4322 Cl  0  0  0  0  0  0  0  0  0  0  0  0
  149.5750  133.4219  155.6705 C   0  0  0  0  0  0  0  0  0  0  0  0
  149.2365  134.1583  154.3987 C   0  0  0  0  0  0  0  0  0  0  0  0
  147.7360  134.0505  154.1296 C   0  0  0  0  0  0  0  0  0  0  0  0
  147.0320  133.3324  154.8384 O   0  0  0  0  0  0  0  0  0  0  0  0
  147.2567  134.7786  153.1095 N   0  0  0  0  0  0  0  0  0  0  0  0
  145.8508  134.8540  152.7308 C   0  0  1  0  0  0  0  0  0  0  0  0
  145.5990  135.5175  151.3739 C   0  0  0  0  0  0  0  0  0  0  0  0
  144.3253  134.8397  150.8415 C   0  0  0  0  0  0  0  0  0  0  0  0
  144.0190  133.7179  151.7594 N   0  3  1  0  0  0  0  0  0  0  0  0
  143.4730  132.5184  151.0900 C   0  0  0  0  0  0  0  0  0  0  0  0
  144.5212  131.4829  150.7594 C   0  0  0  0  0  0  0  0  0  0  0  0
  143.9439  132.3539  149.6649 C   0  0  0  0  0  0  0  0  0  0  0  0
  145.2418  133.4679  152.5427 C   0  0  0  0  0  0  0  0  0  0  0  0
  149.7200  131.3305  153.8153 H   0  0  0  0  0  0  0  0  0  0  0  0
  149.3414  130.1296  155.0417 H   0  0  0  0  0  0  0  0  0  0  0  0
  151.0178  130.5765  154.7341 H   0  0  0  0  0  0  0  0  0  0  0  0
  149.5123  135.2118  154.4580 H   0  0  0  0  0  0  0  0  0  0  0  0
  149.7849  133.7524  153.5480 H   0  0  0  0  0  0  0  0  0  0  0  0
  147.9093  135.3372  152.5780 H   0  0  0  0  0  0  0  0  0  0  0  0
  145.2892  135.3834  153.5034 H   0  0  0  0  0  0  0  0  0  0  0  0
  145.4925  136.5995  151.4572 H   0  0  0  0  0  0  0  0  0  0  0  0
  146.4282  135.3190  150.6926 H   0  0  0  0  0  0  0  0  0  0  0  0
  143.4811  135.5294  150.8209 H   0  0  0  0  0  0  0  0  0  0  0  0
  144.4886  134.4845  149.8227 H   0  0  0  0  0  0  0  0  0  0  0  0
  142.4691  132.2138  151.3808 H   0  0  0  0  0  0  0  0  0  0  0  0
  145.5487  131.6738  151.0643 H   0  0  0  0  0  0  0  0  0  0  0  0
  144.2180  130.4380  150.7765 H   0  0  0  0  0  0  0  0  0  0  0  0
  143.2607  131.8818  148.9617 H   0  0  0  0  0  0  0  0  0  0  0  0
  144.5884  133.1231  149.2422 H   0  0  0  0  0  0  0  0  0  0  0  0
  145.9184  132.8254  151.9753 H   0  0  0  0  0  0  0  0  0  0  0  0
  145.0178  132.9757  153.4899 H   0  0  0  0  0  0  0  0  0  0  0  0
  143.3240  134.0568  152.4092 H   0  0  0  0  0  0  0  0  0  0  0  0
  1  2  1  0  0  0  0
  1 20  1  0  0  0  0
  1 21  1  0  0  0  0
  1 22  1  0  0  0  0
  2  7  1  0  0  0  0
  2  3  2  0  0  0  0
  3  4  1  0  0  0  0
  4  5  1  0  0  0  0
  5  6  1  0  0  0  0
  5  7  2  0  0  0  0
  7  8  1  0  0  0  0
  8  9  1  0  0  0  0
  8 23  1  0  0  0  0
  8 24  1  0  0  0  0
  9 10  2  0  0  0  0
  9 11  1  0  0  0  0
 11 12  1  0  0  0  0
 11 25  1  0  0  0  0
 12 19  1  0  0  0  0
 12 13  1  0  0  0  0
 12 26  1  0  0  0  0
 13 14  1  0  0  0  0
 13 27  1  0  0  0  0
 13 28  1  0  0  0  0
 14 15  1  0  0  0  0
 14 29  1  0  0  0  0
 14 30  1  0  0  0  0
 15 16  1  0  0  0  0
 15 19  1  0  0  0  0
 15 38  1  0  0  0  0
 16 18  1  0  0  0  0
 16 17  1  0  0  0  0
 16 31  1  0  0  0  0
 17 18  1  0  0  0  0
 17 32  1  0  0  0  0
 17 33  1  0  0  0  0
 18 34  1  0  0  0  0
 18 35  1  0  0  0  0
 19 36  1  0  0  0  0
 19 37  1  0  0  0  0
M  CHG  1  15   1
M  END
> <s_m_source_file>
AV-unprocessed.smi

> <i_m_source_file_index>
1066

> <i_lp_mmshare_version>
43012

> <i_f3d_flags>
0

> <s_epik_input>
W0NIM11jMW5vYyhDbCljMVtDSDJdQyg9TylbTkhdW0NAQEhdMltDSDJdW0NIMl1OKFtDSDJdMilbQ0hdM1tDSDJdW0NIMl0z

> <s_epik_cmdline>
J2VwaWtfcHl0aG9uJywgJy1waCcsICc3LjAnLCAnLXRuJywgJzgnLCAnLW1hJywgJzIwMCcsICctbWV0YWxfYmluZGluZycsICctaW1hZScsICc8aW5maWxlLm1hZT4nLCAnLW9tYWUnLCAnPG91dGZpbGUubWFlPic=

> <r_epik_Ionization_Penalty>
0.00108138

> <r_epik_Ionization_Penalty_Charging>
0.00108128

> <r_epik_Ionization_Penalty_Neutral>
9.66632e-08

> <r_epik_State_Penalty>
0.000708577

> <r_epik_Charging_Adjusted_Penalty>
0.00178986

> <i_epik_Tot_Q>
1

> <i_epik_Tot_abs_Q>
1

> <r_epik_Metal_State_Penalty>
-0

> <b_epik_Metal_Only>
0

> <s_lp_Force_Field>
OPLS_2005

> <r_lp_Energy>
30.6816

> <b_lp_Chiralities_Consistent>
1

> <s_lp_Variant>
AV-unprocessed.smi:1066-2

> <Gold.Version>
5.8.1

> <Gold.Id.Protein>
6NUR|6NUR_protein|mol2

> <Gold.PLP.Fitness>
35.8612

> <Gold.PLP.PLP>
-31.4231

> <Gold.PLP.part.hbond>
-1.9922

> <Gold.PLP.part.metal>
0.0000

> <Gold.PLP.part.buried>
-4.9609

> <Gold.PLP.part.nonpolar>
-26.0324

> <Gold.PLP.part.repulsive>
0.0365

> <Gold.PLP.ligand.clash>
0.0000

> <Gold.PLP.ligand.torsion>
1.3790

> <Gold.PLP.Chemscore.Hbond>
1.9750

> <Gold.PLP.Chemscore.CHOScore>
0.0000

> <Gold.PLP.Chemscore.Metal>
0.0000

> <Gold.Chemscore.Hbonds>
donor molecule, donor type, donor heavy atom, donor atom, acceptor molecule, acceptor atom, score
      L1  H    11    25       P1  7948  0.99
      P1  H  6896  6907       L1     4  1.00

> <Gold.PLP.Chemscore.Internal.Correction>
1.2710

> <Gold.Rescore>
     Score         DG    S(hbond)    S(metal)    S(lipo)     H(rot)  DE(clash)    DE(int)     intcor
     15.65     -17.09       1.97        0.00      77.28       1.57       0.01       1.42       ----

> <Gold.Chemscore.Fitness>
15.6521

> <Gold.Chemscore.DG>
-17.0863

> <Gold.Chemscore.ZeroCoef>
-5.4800

> <Gold.Chemscore.Hbond>
1.9720

> <Gold.Chemscore.Metal>
0.0000

> <Gold.Chemscore.Lipo>
77.2817

> <Gold.Chemscore.Internal_Hbond>
0.0000

> <Gold.Chemscore.DEClash>
0.0095

> <Gold.Chemscore.DEInternal>
1.4247

> <Gold.Chemscore.Rot>
1.5711

> <Gold.Chemscore.Internal.Correction>
   9.000000E+99

> <Gold.Chemscore.Hbonds>
donor molecule, donor type, donor heavy atom, donor atom, acceptor molecule, acceptor atom, score
      L1  H    11    25       P1  7948  0.92
      P1  H  6896  6907       L1     4  0.65

> <Gold.Chemscore.Hbond.Weighted>
-6.5864

> <Gold.Chemscore.Metal.Weighted>
-0.0000

> <Gold.Chemscore.Lipo.Weighted>
-9.0420

> <Gold.Chemscore.Internal_Hbond.Weighted>
0.0000

> <Gold.Chemscore.DEClash.Weighted>
0.0095

> <Gold.Chemscore.DEInternal.Weighted>
1.4247

> <Gold.Chemscore.Rot.Weighted>
4.0221

> <Gold.Chemscore.Internal.Correction.Weighted>
   9.000000E+99

> <Gold.Protein.RotatedTorsions>
[ 6907 6896 6895 6894 ] final -124.93 input  -60.11 | X-H torsion
[ 7974 7965 7964 7962 ] final   72.52 input  175.53 | X-H torsion
[ 8008 7997 7996 7995 ] final   18.73 input   59.86 | X-H torsion
[ 10167 10162 10161 10158 ] final   97.14 input  -65.29 | X-H torsion
[ 10718 10713 10712 10709 ] final -134.96 input   66.30 | X-H torsion
[ 10763 10752 10751 10750 ] final  -47.78 input  -60.55 | X-H torsion
[ 11005 11000 10999 10996 ] final -154.20 input  -57.11 | X-H torsion

> <Gold.Protein.ActiveResidues>
 VAL166  LYS551  ARG553  GLY616  TRP617  ASP618  TYR619  PRO620  LYS621  CYS622 
 ASP623  PHE694  ASN695  SER759  ASP760  ASP761  ALA762  ILE779  LEU786  VAL792 
 PHE793  MET794  SER795  GLU796  ALA797  LYS798  CYS799  TRP800  GLU811  SER814 

> <Gold.Protein.RotatedAtoms>
  150.8817  133.7363  159.2929 H   0  0  0  0  0  0  0  0  0  0  0  0  # atno 6907 bound_to 6896
  151.4942  135.1057  159.9821 H   0  0  0  0  0  0  0  0  0  0  0  0  # atno 6908 bound_to 6896
  152.4764  133.8102  159.7055 H   0  0  0  0  0  0  0  0  0  0  0  0  # atno 6909 bound_to 6896
  145.7523  139.2765  143.1424 H   0  0  0  0  0  0  0  0  0  0  0  0  # atno 7974 bound_to 7965
  154.9103  140.3013  155.5270 H   0  0  0  0  0  0  0  0  0  0  0  0  # atno 8008 bound_to 7997
  156.3015  140.2390  156.4076 H   0  0  0  0  0  0  0  0  0  0  0  0  # atno 8009 bound_to 7997
  154.8432  140.0413  157.1544 H   0  0  0  0  0  0  0  0  0  0  0  0  # atno 8010 bound_to 7997
  139.7829  144.6881  150.9998 H   0  0  0  0  0  0  0  0  0  0  0  0  # atno 10167 bound_to 10162
  156.2610  130.7210  151.1144 H   0  0  0  0  0  0  0  0  0  0  0  0  # atno 10718 bound_to 10713
  154.0670  135.6610  153.4819 H   0  0  0  0  0  0  0  0  0  0  0  0  # atno 10763 bound_to 10752
  153.0405  135.5148  154.7604 H   0  0  0  0  0  0  0  0  0  0  0  0  # atno 10764 bound_to 10752
  154.6658  135.3022  154.9775 H   0  0  0  0  0  0  0  0  0  0  0  0  # atno 10765 bound_to 10752
  140.6999  134.3949  157.5211 H   0  0  0  0  0  0  0  0  0  0  0  0  # atno 11005 bound_to 11000
  146.0345  140.8226  142.9859 LP  0  0  0  0  0  0  0  0  0  0  0  0  # atno 17320 bound_to 7965
  144.6847  140.2817  143.7291 LP  0  0  0  0  0  0  0  0  0  0  0  0  # atno 17321 bound_to 7965
  140.7819  143.4464  151.0477 LP  0  0  0  0  0  0  0  0  0  0  0  0  # atno 17342 bound_to 10162
  139.8143  143.7907  152.3173 LP  0  0  0  0  0  0  0  0  0  0  0  0  # atno 17343 bound_to 10162
  157.7250  131.0656  150.5970 LP  0  0  0  0  0  0  0  0  0  0  0  0  # atno 17370 bound_to 10713
  156.6057  130.4366  149.5879 LP  0  0  0  0  0  0  0  0  0  0  0  0  # atno 17371 bound_to 10713
  139.8900  134.8817  156.2394 LP  0  0  0  0  0  0  0  0  0  0  0  0  # atno 17394 bound_to 11000
  141.0172  133.7062  156.1208 LP  0  0  0  0  0  0  0  0  0  0  0  0  # atno 17395 bound_to 11000

$$$$
