AV-unprocessed.smi:973|AV-procd|sdf|4299|dock3
  -GOLD-   22720 2203D 1   1.00000     0.00000
 Structure written by MMmdl.
 41 42  0  0  0  0  0  0  0  0  1 V2000
  138.0752  140.4703  154.1398 C   0  0  0  0  0  0  0  0  0  0  0  0
  138.8431  139.2524  153.8678 N   0  0  0  0  0  0  0  0  0  0  0  0
  138.1725  138.0226  153.9789 C   0  0  0  0  0  0  0  0  0  0  0  0
  138.7960  136.8584  153.7511 C   0  0  0  0  0  0  0  0  0  0  0  0
  140.1916  136.8876  153.3842 C   0  0  0  0  0  0  0  0  0  0  0  0
  140.8609  138.0634  153.2812 C   0  0  0  0  0  0  0  0  0  0  0  0
  142.2151  138.1803  152.9219 N   0  0  0  0  0  0  0  0  0  0  0  0
  143.1526  137.2207  152.8140 C   0  0  0  0  0  0  0  0  0  0  0  0
  142.9897  136.0235  153.0498 O   0  0  0  0  0  0  0  0  0  0  0  0
  144.3272  137.7405  152.4297 N   0  0  0  0  0  0  0  0  0  0  0  0
  145.5619  136.9847  152.2536 C   0  0  0  0  0  0  0  0  0  0  0  0
  145.5895  136.2454  150.9042 C   0  0  0  0  0  0  0  0  0  0  0  0
  145.5678  134.7342  151.0649 C   0  0  0  0  0  0  0  0  0  0  0  0
  146.4890  134.0823  151.8009 C   0  0  0  0  0  0  0  0  0  0  0  0
  146.5276  132.5747  151.9798 C   0  0  0  0  0  0  0  0  0  0  0  0
  145.6298  131.8414  150.9691 C   0  0  0  0  0  0  0  0  0  0  0  0
  144.2749  132.5445  150.8217 C   0  0  0  0  0  0  0  0  0  0  0  0
  144.4465  133.9968  150.3410 C   0  0  0  0  0  0  0  0  0  0  0  0
  140.1627  139.3409  153.5242 C   0  0  0  0  0  0  0  0  0  0  0  0
  140.7251  140.4347  153.4288 O   0  0  0  0  0  0  0  0  0  0  0  0
  137.0312  140.2659  154.3794 H   0  0  0  0  0  0  0  0  0  0  0  0
  138.0847  141.1329  153.2732 H   0  0  0  0  0  0  0  0  0  0  0  0
  138.5031  141.0100  154.9858 H   0  0  0  0  0  0  0  0  0  0  0  0
  137.1308  138.0841  154.2582 H   0  0  0  0  0  0  0  0  0  0  0  0
  138.2678  135.9206  153.8415 H   0  0  0  0  0  0  0  0  0  0  0  0
  140.6681  135.9422  153.1812 H   0  0  0  0  0  0  0  0  0  0  0  0
  142.5253  139.1284  152.7658 H   0  0  0  0  0  0  0  0  0  0  0  0
  144.3753  138.7349  152.2616 H   0  0  0  0  0  0  0  0  0  0  0  0
  146.3912  137.6892  152.3158 H   0  0  0  0  0  0  0  0  0  0  0  0
  145.6898  136.2808  153.0780 H   0  0  0  0  0  0  0  0  0  0  0  0
  144.7346  136.5522  150.2996 H   0  0  0  0  0  0  0  0  0  0  0  0
  146.4793  136.5247  150.3389 H   0  0  0  0  0  0  0  0  0  0  0  0
  147.2593  134.6397  152.3142 H   0  0  0  0  0  0  0  0  0  0  0  0
  147.5562  132.2267  151.8822 H   0  0  0  0  0  0  0  0  0  0  0  0
  146.2109  132.3489  152.9984 H   0  0  0  0  0  0  0  0  0  0  0  0
  146.1240  131.8105  149.9971 H   0  0  0  0  0  0  0  0  0  0  0  0
  145.4898  130.8049  151.2776 H   0  0  0  0  0  0  0  0  0  0  0  0
  143.6362  131.9962  150.1286 H   0  0  0  0  0  0  0  0  0  0  0  0
  143.7622  132.5382  151.7844 H   0  0  0  0  0  0  0  0  0  0  0  0
  143.5084  134.5367  150.4738 H   0  0  0  0  0  0  0  0  0  0  0  0
  144.6667  134.0046  149.2731 H   0  0  0  0  0  0  0  0  0  0  0  0
  1  2  1  0  0  0  0
  1 21  1  0  0  0  0
  1 22  1  0  0  0  0
  1 23  1  0  0  0  0
  2 19  1  0  0  0  0
  2  3  1  0  0  0  0
  3  4  2  0  0  0  0
  3 24  1  0  0  0  0
  4  5  1  0  0  0  0
  4 25  1  0  0  0  0
  5  6  2  0  0  0  0
  5 26  1  0  0  0  0
  6  7  1  0  0  0  0
  6 19  1  0  0  0  0
  7  8  1  0  0  0  0
  7 27  1  0  0  0  0
  8  9  2  0  0  0  0
  8 10  1  0  0  0  0
 10 11  1  0  0  0  0
 10 28  1  0  0  0  0
 11 12  1  0  0  0  0
 11 29  1  0  0  0  0
 11 30  1  0  0  0  0
 12 13  1  0  0  0  0
 12 31  1  0  0  0  0
 12 32  1  0  0  0  0
 13 18  1  0  0  0  0
 13 14  2  0  0  0  0
 14 15  1  0  0  0  0
 14 33  1  0  0  0  0
 15 16  1  0  0  0  0
 15 34  1  0  0  0  0
 15 35  1  0  0  0  0
 16 17  1  0  0  0  0
 16 36  1  0  0  0  0
 16 37  1  0  0  0  0
 17 18  1  0  0  0  0
 17 38  1  0  0  0  0
 17 39  1  0  0  0  0
 18 40  1  0  0  0  0
 18 41  1  0  0  0  0
 19 20  2  0  0  0  0
M  END
> <s_m_source_file>
AV-unprocessed.smi

> <i_m_source_file_index>
973

> <i_lp_mmshare_version>
43012

> <i_f3d_flags>
0

> <s_epik_input>
W0NIM11uMVtjSF1bY0hdW2NIXWMoYzE9TylbTkhdQyg9TylbTkhdW0NIMl1bQ0gyXUMyPVtDSF1bQ0gyXVtDSDJdW0NIMl1bQ0gyXTI=

> <s_epik_cmdline>
J2VwaWtfcHl0aG9uJywgJy1waCcsICc3LjAnLCAnLXRuJywgJzgnLCAnLW1hJywgJzIwMCcsICctbWV0YWxfYmluZGluZycsICctaW1hZScsICc8aW5maWxlLm1hZT4nLCAnLW9tYWUnLCAnPG91dGZpbGUubWFlPic=

> <r_lp_tautomer_probability>
1

> <r_epik_Ionization_Penalty>
2.5397e-05

> <r_epik_Ionization_Penalty_Charging>
4.7783e-06

> <r_epik_Ionization_Penalty_Neutral>
2.06187e-05

> <r_epik_State_Penalty>
-0

> <r_epik_Charging_Adjusted_Penalty>
4.7783e-06

> <i_epik_Tot_Q>
0

> <i_epik_Tot_abs_Q>
0

> <r_epik_Metal_State_Penalty>
-0

> <b_epik_Metal_Only>
0

> <s_lp_Force_Field>
OPLS_2005

> <r_lp_Energy>
20.1854

> <b_lp_Chiralities_Consistent>
1

> <s_lp_Variant>
AV-unprocessed.smi:973-1

> <Gold.Version>
5.8.1

> <Gold.Id.Protein>
6NUR|6NUR_protein|mol2

> <Gold.PLP.Fitness>
44.8064

> <Gold.PLP.PLP>
-39.8979

> <Gold.PLP.part.hbond>
-3.0000

> <Gold.PLP.part.metal>
0.0000

> <Gold.PLP.part.buried>
-4.5796

> <Gold.PLP.part.nonpolar>
-33.4038

> <Gold.PLP.part.repulsive>
2.2042

> <Gold.PLP.ligand.clash>
0.0000

> <Gold.PLP.ligand.torsion>
0.5473

> <Gold.PLP.Chemscore.Hbond>
2.0000

> <Gold.PLP.Chemscore.CHOScore>
0.0000

> <Gold.PLP.Chemscore.Metal>
0.0000

> <Gold.Chemscore.Hbonds>
donor molecule, donor type, donor heavy atom, donor atom, acceptor molecule, acceptor atom, score
      L1  H     7    27       P1 10175  1.00
      L1  H    10    28       P1 10175  1.00

> <Gold.PLP.Chemscore.Internal.Correction>
0.0030

> <Gold.Rescore>
     Score         DG    S(hbond)    S(metal)    S(lipo)     H(rot)  DE(clash)    DE(int)     intcor
     17.12     -18.59       1.95        0.00      87.03       1.40       0.05       1.41       ----

> <Gold.Chemscore.Fitness>
17.1245

> <Gold.Chemscore.DG>
-18.5922

> <Gold.Chemscore.ZeroCoef>
-5.4800

> <Gold.Chemscore.Hbond>
1.9472

> <Gold.Chemscore.Metal>
0.0000

> <Gold.Chemscore.Lipo>
87.0256

> <Gold.Chemscore.Internal_Hbond>
0.0000

> <Gold.Chemscore.DEClash>
0.0531

> <Gold.Chemscore.DEInternal>
1.4146

> <Gold.Chemscore.Rot>
1.3958

> <Gold.Chemscore.Internal.Correction>
   9.000000E+99

> <Gold.Chemscore.Hbonds>
donor molecule, donor type, donor heavy atom, donor atom, acceptor molecule, acceptor atom, score
      L1  H     7    27       P1 10175  0.99
      L1  H    10    28       P1 10175  0.94

> <Gold.Chemscore.Hbond.Weighted>
-6.5035

> <Gold.Chemscore.Metal.Weighted>
-0.0000

> <Gold.Chemscore.Lipo.Weighted>
-10.1820

> <Gold.Chemscore.Internal_Hbond.Weighted>
0.0000

> <Gold.Chemscore.DEClash.Weighted>
0.0531

> <Gold.Chemscore.DEInternal.Weighted>
1.4146

> <Gold.Chemscore.Rot.Weighted>
3.5733

> <Gold.Chemscore.Internal.Correction.Weighted>
   9.000000E+99

> <Gold.Protein.RotatedTorsions>
[ 6907 6896 6895 6894 ] final -139.48 input  -60.11 | X-H torsion
[ 7974 7965 7964 7962 ] final  131.07 input  175.53 | X-H torsion
[ 8008 7997 7996 7995 ] final  -12.71 input   59.86 | X-H torsion
[ 10167 10162 10161 10158 ] final  162.57 input  -65.29 | X-H torsion
[ 10718 10713 10712 10709 ] final -151.70 input   66.30 | X-H torsion
[ 10763 10752 10751 10750 ] final  144.97 input  -60.55 | X-H torsion
[ 11005 11000 10999 10996 ] final  144.42 input  -57.11 | X-H torsion

> <Gold.Protein.ActiveResidues>
 VAL166  LYS551  ARG553  GLY616  TRP617  ASP618  TYR619  PRO620  LYS621  CYS622 
 ASP623  PHE694  ASN695  SER759  ASP760  ASP761  ALA762  ILE779  LEU786  VAL792 
 PHE793  MET794  SER795  GLU796  ALA797  LYS798  CYS799  TRP800  GLU811  SER814 

> <Gold.Protein.RotatedAtoms>
  151.0483  133.5646  159.2644 H   0  0  0  0  0  0  0  0  0  0  0  0  # atno 6907 bound_to 6896
  151.2667  135.0670  159.9128 H   0  0  0  0  0  0  0  0  0  0  0  0  # atno 6908 bound_to 6896
  152.5377  134.0220  159.8040 H   0  0  0  0  0  0  0  0  0  0  0  0  # atno 6909 bound_to 6896
  145.0111  139.4219  143.5244 H   0  0  0  0  0  0  0  0  0  0  0  0  # atno 7974 bound_to 7965
  154.5354  140.2269  155.8732 H   0  0  0  0  0  0  0  0  0  0  0  0  # atno 8008 bound_to 7997
  156.1805  140.3101  155.9103 H   0  0  0  0  0  0  0  0  0  0  0  0  # atno 8009 bound_to 7997
  155.3366  140.0448  157.3034 H   0  0  0  0  0  0  0  0  0  0  0  0  # atno 8010 bound_to 7997
  139.4862  144.4424  151.8935 H   0  0  0  0  0  0  0  0  0  0  0  0  # atno 10167 bound_to 10162
  156.4628  130.8221  151.2452 H   0  0  0  0  0  0  0  0  0  0  0  0  # atno 10718 bound_to 10713
  153.9976  135.2926  155.3406 H   0  0  0  0  0  0  0  0  0  0  0  0  # atno 10763 bound_to 10752
  154.7178  135.5122  153.8768 H   0  0  0  0  0  0  0  0  0  0  0  0  # atno 10764 bound_to 10752
  153.0780  135.6670  154.0221 H   0  0  0  0  0  0  0  0  0  0  0  0  # atno 10765 bound_to 10752
  140.0631  134.9194  157.1218 H   0  0  0  0  0  0  0  0  0  0  0  0  # atno 11005 bound_to 11000
  146.3470  139.9556  142.8723 LP  0  0  0  0  0  0  0  0  0  0  0  0  # atno 17320 bound_to 7965
  145.2021  140.9859  143.4149 LP  0  0  0  0  0  0  0  0  0  0  0  0  # atno 17321 bound_to 7965
  140.3877  144.2656  150.5902 LP  0  0  0  0  0  0  0  0  0  0  0  0  # atno 17342 bound_to 10162
  140.5175  143.2274  151.8440 LP  0  0  0  0  0  0  0  0  0  0  0  0  # atno 17343 bound_to 10162
  157.7497  131.0102  150.3295 LP  0  0  0  0  0  0  0  0  0  0  0  0  # atno 17370 bound_to 10713
  156.3699  130.3861  149.7184 LP  0  0  0  0  0  0  0  0  0  0  0  0  # atno 17371 bound_to 10713
  140.3740  134.2359  155.7175 LP  0  0  0  0  0  0  0  0  0  0  0  0  # atno 17394 bound_to 11000
  141.1981  133.8043  157.0596 LP  0  0  0  0  0  0  0  0  0  0  0  0  # atno 17395 bound_to 11000

$$$$
