AV-unprocessed.smi:671|AV-procd|sdf|3273|dock1
  -GOLD-   22720 0233D 1   1.00000     0.00000
 Structure written by MMmdl.
 49 50  0  0  0  0  0  0  0  0  1 V2000
  147.3981  141.1063  153.0910 C   0  0  0  0  0  0  0  0  0  0  0  0
  146.8009  141.7789  154.2946 C   0  0  0  0  0  0  0  0  0  0  0  0
  145.7614  142.5810  154.1376 N   0  0  0  0  0  0  0  0  0  0  0  0
  145.4787  143.0254  155.3785 N   0  0  0  0  0  0  0  0  0  0  0  0
  144.3724  143.9434  155.5688 C   0  0  0  0  0  0  0  0  0  0  0  0
  146.3393  142.4999  156.3228 C   0  0  0  0  0  0  0  0  0  0  0  0
  146.2318  142.8392  157.7747 C   0  0  0  0  0  0  0  0  0  0  0  0
  147.2147  141.6847  155.6562 C   0  0  0  0  0  0  0  0  0  0  0  0
  148.3592  140.8717  156.2044 C   0  0  0  0  0  0  0  0  0  0  0  0
  149.7111  141.2476  155.5573 C   0  0  2  0  0  0  0  0  0  0  0  0
  150.7806  140.1620  155.7548 C   0  0  0  0  0  0  0  0  0  0  0  0
  150.2126  142.5090  156.1087 N   0  0  0  0  0  0  0  0  0  0  0  0
  150.8265  142.7149  157.2887 C   0  0  0  0  0  0  0  0  0  0  0  0
  151.0283  141.7994  158.0840 O   0  0  0  0  0  0  0  0  0  0  0  0
  151.1755  143.9911  157.5218 N   0  0  0  0  0  0  0  0  0  0  0  0
  151.8431  144.4866  158.7213 C   0  0  2  0  0  0  0  0  0  0  0  0
  153.1641  143.7268  158.9433 C   0  0  0  0  0  0  0  0  0  0  0  0
  152.9334  142.8244  160.1547 C   0  0  0  0  0  0  0  0  0  0  0  0
  151.9335  143.6013  161.0040 C   0  0  0  0  0  0  0  0  0  0  0  0
  150.9840  144.2370  159.9825 C   0  0  1  0  0  0  0  0  0  0  0  0
  150.2768  145.4936  160.5095 C   0  0  0  0  0  0  0  0  0  0  0  0
  147.6810  140.0778  153.3127 H   0  0  0  0  0  0  0  0  0  0  0  0
  148.2931  141.6310  152.7577 H   0  0  0  0  0  0  0  0  0  0  0  0
  146.6983  141.0790  152.2553 H   0  0  0  0  0  0  0  0  0  0  0  0
  143.5522  143.4284  156.0693 H   0  0  0  0  0  0  0  0  0  0  0  0
  144.0198  144.3247  154.6096 H   0  0  0  0  0  0  0  0  0  0  0  0
  144.6933  144.7854  156.1827 H   0  0  0  0  0  0  0  0  0  0  0  0
  146.8362  142.1684  158.3843 H   0  0  0  0  0  0  0  0  0  0  0  0
  145.2007  142.7587  158.1196 H   0  0  0  0  0  0  0  0  0  0  0  0
  146.5726  143.8582  157.9583 H   0  0  0  0  0  0  0  0  0  0  0  0
  148.4158  141.0159  157.2835 H   0  0  0  0  0  0  0  0  0  0  0  0
  148.1797  139.8042  156.0743 H   0  0  0  0  0  0  0  0  0  0  0  0
  149.5731  141.3708  154.4820 H   0  0  0  0  0  0  0  0  0  0  0  0
  150.4817  139.2199  155.2951 H   0  0  0  0  0  0  0  0  0  0  0  0
  150.9642  139.9724  156.8129 H   0  0  0  0  0  0  0  0  0  0  0  0
  151.7270  140.4570  155.3006 H   0  0  0  0  0  0  0  0  0  0  0  0
  150.0300  143.3311  155.5514 H   0  0  0  0  0  0  0  0  0  0  0  0
  150.9623  144.6736  156.8094 H   0  0  0  0  0  0  0  0  0  0  0  0
  152.0732  145.5481  158.6094 H   0  0  0  0  0  0  0  0  0  0  0  0
  153.4954  143.1646  158.0691 H   0  0  0  0  0  0  0  0  0  0  0  0
  153.9531  144.4428  159.1773 H   0  0  0  0  0  0  0  0  0  0  0  0
  152.4901  141.8806  159.8350 H   0  0  0  0  0  0  0  0  0  0  0  0
  153.8551  142.5973  160.6912 H   0  0  0  0  0  0  0  0  0  0  0  0
  151.4129  142.9668  161.7219 H   0  0  0  0  0  0  0  0  0  0  0  0
  152.4592  144.3758  161.5646 H   0  0  0  0  0  0  0  0  0  0  0  0
  150.2213  143.4911  159.7499 H   0  0  0  0  0  0  0  0  0  0  0  0
  150.9931  146.2742  160.7677 H   0  0  0  0  0  0  0  0  0  0  0  0
  149.6923  145.2677  161.4017 H   0  0  0  0  0  0  0  0  0  0  0  0
  149.5956  145.9004  159.7618 H   0  0  0  0  0  0  0  0  0  0  0  0
  1  2  1  0  0  0  0
  1 22  1  0  0  0  0
  1 23  1  0  0  0  0
  1 24  1  0  0  0  0
  2  8  1  0  0  0  0
  2  3  2  0  0  0  0
  3  4  1  0  0  0  0
  4  5  1  0  0  0  0
  4  6  1  0  0  0  0
  5 25  1  0  0  0  0
  5 26  1  0  0  0  0
  5 27  1  0  0  0  0
  6  7  1  0  0  0  0
  6  8  2  0  0  0  0
  7 28  1  0  0  0  0
  7 29  1  0  0  0  0
  7 30  1  0  0  0  0
  8  9  1  0  0  0  0
  9 10  1  0  0  0  0
  9 31  1  0  0  0  0
  9 32  1  0  0  0  0
 10 11  1  0  0  0  0
 10 12  1  0  0  0  0
 10 33  1  0  0  0  0
 11 34  1  0  0  0  0
 11 35  1  0  0  0  0
 11 36  1  0  0  0  0
 12 13  1  0  0  0  0
 12 37  1  0  0  0  0
 13 14  2  0  0  0  0
 13 15  1  0  0  0  0
 15 16  1  0  0  0  0
 15 38  1  0  0  0  0
 16 20  1  0  0  0  0
 16 17  1  0  0  0  0
 16 39  1  0  0  0  0
 17 18  1  0  0  0  0
 17 40  1  0  0  0  0
 17 41  1  0  0  0  0
 18 19  1  0  0  0  0
 18 42  1  0  0  0  0
 18 43  1  0  0  0  0
 19 20  1  0  0  0  0
 19 44  1  0  0  0  0
 19 45  1  0  0  0  0
 20 21  1  0  0  0  0
 20 46  1  0  0  0  0
 21 47  1  0  0  0  0
 21 48  1  0  0  0  0
 21 49  1  0  0  0  0
M  END
> <s_m_source_file>
AV-unprocessed.smi

> <i_m_source_file_index>
671

> <i_lp_mmshare_version>
43012

> <i_f3d_flags>
0

> <s_epik_input>
W0NIM11jMW5uKFtDSDNdKWMoW0NIM10pYzFbQ0gyXVtDQEhdKFtDSDNdKVtOSF1DKD1PKVtOSF1bQ0BASF0yW0NIMl1bQ0gyXVtDSDJdW0NASF0yW0NIM10=

> <s_epik_cmdline>
J2VwaWtfcHl0aG9uJywgJy1waCcsICc3LjAnLCAnLXRuJywgJzgnLCAnLW1hJywgJzIwMCcsICctbWV0YWxfYmluZGluZycsICctaW1hZScsICc8aW5maWxlLm1hZT4nLCAnLW9tYWUnLCAnPG91dGZpbGUubWFlPic=

> <r_lp_tautomer_probability>
1

> <r_epik_Ionization_Penalty>
0.0126855

> <r_epik_Ionization_Penalty_Charging>
0

> <r_epik_Ionization_Penalty_Neutral>
0.0126855

> <r_epik_State_Penalty>
0.00977547

> <r_epik_Charging_Adjusted_Penalty>
0.00977547

> <i_epik_Tot_Q>
0

> <i_epik_Tot_abs_Q>
0

> <r_epik_Metal_State_Penalty>
0.00957132

> <b_epik_Metal_Only>
0

> <s_lp_Force_Field>
OPLS_2005

> <r_lp_Energy>
21.9144

> <b_lp_Chiralities_Consistent>
1

> <s_lp_Variant>
AV-unprocessed.smi:671-1

> <Gold.Version>
5.8.1

> <Gold.Id.Protein>
6NUR|6NUR_protein|mol2

> <Gold.PLP.Fitness>
43.6235

> <Gold.PLP.PLP>
-40.7630

> <Gold.PLP.part.hbond>
-2.0000

> <Gold.PLP.part.metal>
0.0000

> <Gold.PLP.part.buried>
-5.1105

> <Gold.PLP.part.nonpolar>
-34.8225

> <Gold.PLP.part.repulsive>
0.3730

> <Gold.PLP.ligand.clash>
0.0000

> <Gold.PLP.ligand.torsion>
0.3709

> <Gold.PLP.Chemscore.Hbond>
1.1878

> <Gold.PLP.Chemscore.CHOScore>
0.0000

> <Gold.PLP.Chemscore.Metal>
0.0000

> <Gold.Chemscore.Hbonds>
donor molecule, donor type, donor heavy atom, donor atom, acceptor molecule, acceptor atom, score
      L1  H    12    37       P1  8028  0.72
      L1  H    15    38       P1  8028  0.12

> <Gold.PLP.Chemscore.Internal.Correction>
0.0388

> <Gold.Rescore>
     Score         DG    S(hbond)    S(metal)    S(lipo)     H(rot)  DE(clash)    DE(int)     intcor
     14.70     -19.01       1.38        0.00     107.99       1.45       0.40       3.91       ----

> <Gold.Chemscore.Fitness>
14.7040

> <Gold.Chemscore.DG>
-19.0143

> <Gold.Chemscore.ZeroCoef>
-5.4800

> <Gold.Chemscore.Hbond>
1.3807

> <Gold.Chemscore.Metal>
0.0000

> <Gold.Chemscore.Lipo>
107.9872

> <Gold.Chemscore.Internal_Hbond>
0.0000

> <Gold.Chemscore.DEClash>
0.3992

> <Gold.Chemscore.DEInternal>
3.9110

> <Gold.Chemscore.Rot>
1.4499

> <Gold.Chemscore.Internal.Correction>
   9.000000E+99

> <Gold.Chemscore.Hbonds>
donor molecule, donor type, donor heavy atom, donor atom, acceptor molecule, acceptor atom, score
      L1  H    12    37       P1  8028  0.72
      L1  H    15    38       P1  8028  0.11

> <Gold.Chemscore.Hbond.Weighted>
-4.6116

> <Gold.Chemscore.Metal.Weighted>
-0.0000

> <Gold.Chemscore.Lipo.Weighted>
-12.6345

> <Gold.Chemscore.Internal_Hbond.Weighted>
0.0000

> <Gold.Chemscore.DEClash.Weighted>
0.3992

> <Gold.Chemscore.DEInternal.Weighted>
3.9110

> <Gold.Chemscore.Rot.Weighted>
3.7118

> <Gold.Chemscore.Internal.Correction.Weighted>
   9.000000E+99

> <Gold.Protein.RotatedTorsions>
[ 6907 6896 6895 6894 ] final -170.64 input  -60.11 | X-H torsion
[ 7974 7965 7964 7962 ] final   52.65 input  175.53 | X-H torsion
[ 8008 7997 7996 7995 ] final -120.58 input   59.86 | X-H torsion
[ 10167 10162 10161 10158 ] final   53.42 input  -65.29 | X-H torsion
[ 10718 10713 10712 10709 ] final  -87.37 input   66.30 | X-H torsion
[ 10763 10752 10751 10750 ] final   -1.93 input  -60.55 | X-H torsion
[ 11005 11000 10999 10996 ] final   74.86 input  -57.11 | X-H torsion

> <Gold.Protein.ActiveResidues>
 VAL166  LYS551  ARG553  GLY616  TRP617  ASP618  TYR619  PRO620  LYS621  CYS622 
 ASP623  PHE694  ASN695  SER759  ASP760  ASP761  ALA762  ILE779  LEU786  VAL792 
 PHE793  MET794  SER795  GLU796  ALA797  LYS798  CYS799  TRP800  GLU811  SER814 

> <Gold.Protein.RotatedAtoms>
  151.5110  133.3485  159.2884 H   0  0  0  0  0  0  0  0  0  0  0  0  # atno 6907 bound_to 6896
  150.8712  134.8088  159.7167 H   0  0  0  0  0  0  0  0  0  0  0  0  # atno 6908 bound_to 6896
  152.4699  134.4994  159.9772 H   0  0  0  0  0  0  0  0  0  0  0  0  # atno 6909 bound_to 6896
  145.9792  139.4225  143.0143 H   0  0  0  0  0  0  0  0  0  0  0  0  # atno 7974 bound_to 7965
  155.1342  140.0400  157.2782 H   0  0  0  0  0  0  0  0  0  0  0  0  # atno 8008 bound_to 7997
  154.6520  140.2571  155.7177 H   0  0  0  0  0  0  0  0  0  0  0  0  # atno 8009 bound_to 7997
  156.2581  140.2834  156.0958 H   0  0  0  0  0  0  0  0  0  0  0  0  # atno 8010 bound_to 7997
  140.2409  144.3585  150.6380 H   0  0  0  0  0  0  0  0  0  0  0  0  # atno 10167 bound_to 10162
  155.9986  130.4797  150.4857 H   0  0  0  0  0  0  0  0  0  0  0  0  # atno 10718 bound_to 10713
  153.3514  135.6986  153.6786 H   0  0  0  0  0  0  0  0  0  0  0  0  # atno 10763 bound_to 10752
  153.5511  135.3553  155.2760 H   0  0  0  0  0  0  0  0  0  0  0  0  # atno 10764 bound_to 10752
  154.8654  135.4226  154.2750 H   0  0  0  0  0  0  0  0  0  0  0  0  # atno 10765 bound_to 10752
  139.9371  134.7469  156.1200 H   0  0  0  0  0  0  0  0  0  0  0  0  # atno 11005 bound_to 11000
  145.7795  140.9862  143.1107 LP  0  0  0  0  0  0  0  0  0  0  0  0  # atno 17320 bound_to 7965
  144.6857  139.9546  143.7479 LP  0  0  0  0  0  0  0  0  0  0  0  0  # atno 17321 bound_to 7965
  140.6114  143.2170  151.6878 LP  0  0  0  0  0  0  0  0  0  0  0  0  # atno 17342 bound_to 10162
  139.5078  144.3635  152.0539 LP  0  0  0  0  0  0  0  0  0  0  0  0  # atno 17343 bound_to 10162
  157.2857  131.0616  151.2167 LP  0  0  0  0  0  0  0  0  0  0  0  0  # atno 17370 bound_to 10713
  157.3198  130.6931  149.6262 LP  0  0  0  0  0  0  0  0  0  0  0  0  # atno 17371 bound_to 10713
  141.0989  133.6685  156.2709 LP  0  0  0  0  0  0  0  0  0  0  0  0  # atno 17394 bound_to 11000
  140.6048  134.5518  157.5524 LP  0  0  0  0  0  0  0  0  0  0  0  0  # atno 17395 bound_to 11000

$$$$
