AV-unprocessed.smi:1510|AV-procd|sdf|6094|dock5
  -GOLD-   22720 6223D 1   1.00000     0.00000
 Structure written by MMmdl.
 32 33  0  0  0  0  0  0  0  0  2 V2000
  151.2145  136.9028  159.6714 O   0  0  0  0  0  0  0  0  0  0  0  0
  150.3202  137.6316  159.2390 C   0  0  0  0  0  0  0  0  0  0  0  0
  148.9067  137.0856  158.9824 C   0  0  0  0  0  0  0  0  0  0  0  0
  148.3385  136.3422  160.1167 N   0  0  0  0  0  0  0  0  0  0  0  0
  147.9204  137.1905  161.2295 N   0  5  0  0  0  0  0  0  0  0  0  0
  147.3587  136.6157  162.3259 C   0  0  0  0  0  0  0  0  0  0  0  0
  146.9665  137.2659  163.2921 O   0  0  0  0  0  0  0  0  0  0  0  0
  147.2255  135.1684  162.3476 C   0  0  0  0  0  0  0  0  0  0  0  0
  147.6453  134.4079  161.3173 C   0  0  0  0  0  0  0  0  0  0  0  0
  148.2493  134.9812  160.1208 C   0  0  0  0  0  0  0  0  0  0  0  0
  148.6470  134.2914  159.1817 O   0  0  0  0  0  0  0  0  0  0  0  0
  150.5069  138.9273  158.9445 N   0  0  0  0  0  0  0  0  0  0  0  0
  151.7585  139.6616  159.0992 C   0  0  0  0  0  0  0  0  0  0  0  0
  151.5167  141.1634  159.3278 C   0  0  2  0  0  0  0  0  0  0  0  0
  151.3730  141.9996  158.0550 C   0  0  0  0  0  0  0  0  0  0  0  0
  151.7825  143.3697  158.5434 C   0  0  0  0  0  0  0  0  0  0  0  0
  152.9219  143.0277  159.4985 C   0  0  0  0  0  0  0  0  0  0  0  0
  152.6195  141.7380  160.0252 O   0  0  0  0  0  0  0  0  0  0  0  0
  148.2411  137.9113  158.7241 H   0  0  0  0  0  0  0  0  0  0  0  0
  148.9482  136.4540  158.0932 H   0  0  0  0  0  0  0  0  0  0  0  0
  146.7826  134.6925  163.2101 H   0  0  0  0  0  0  0  0  0  0  0  0
  147.5283  133.3361  161.3771 H   0  0  0  0  0  0  0  0  0  0  0  0
  149.7173  139.4460  158.5886 H   0  0  0  0  0  0  0  0  0  0  0  0
  152.2798  139.2442  159.9607 H   0  0  0  0  0  0  0  0  0  0  0  0
  152.4160  139.5052  158.2423 H   0  0  0  0  0  0  0  0  0  0  0  0
  150.6320  141.3060  159.9507 H   0  0  0  0  0  0  0  0  0  0  0  0
  152.0677  141.6564  157.2869 H   0  0  0  0  0  0  0  0  0  0  0  0
  150.3650  141.9757  157.6401 H   0  0  0  0  0  0  0  0  0  0  0  0
  152.0855  144.0411  157.7396 H   0  0  0  0  0  0  0  0  0  0  0  0
  150.9597  143.8345  159.0881 H   0  0  0  0  0  0  0  0  0  0  0  0
  153.8666  142.9657  158.9568 H   0  0  0  0  0  0  0  0  0  0  0  0
  153.0348  143.7660  160.2927 H   0  0  0  0  0  0  0  0  0  0  0  0
  1  2  2  0  0  0  0
  2  3  1  0  0  0  0
  2 12  1  0  0  0  0
  3 19  1  0  0  0  0
  3 20  1  0  0  0  0
  3  4  1  0  0  0  0
  4  5  1  0  0  0  0
  4 10  1  0  0  0  0
  5  6  1  0  0  0  0
  6  7  2  0  0  0  0
  6  8  1  0  0  0  0
  8 21  1  0  0  0  0
  8  9  2  0  0  0  0
  9 22  1  0  0  0  0
  9 10  1  0  0  0  0
 10 11  2  0  0  0  0
 12 13  1  0  0  0  0
 12 23  1  0  0  0  0
 13 14  1  0  0  0  0
 13 24  1  0  0  0  0
 13 25  1  0  0  0  0
 14 18  1  0  0  0  0
 14 15  1  0  0  0  0
 14 26  1  0  0  0  0
 15 16  1  0  0  0  0
 15 27  1  0  0  0  0
 15 28  1  0  0  0  0
 16 17  1  0  0  0  0
 16 29  1  0  0  0  0
 16 30  1  0  0  0  0
 17 18  1  0  0  0  0
 17 31  1  0  0  0  0
 17 32  1  0  0  0  0
M  CHG  1   5  -1
M  END
> <s_m_source_file>
AV-unprocessed.smi

> <i_m_source_file_index>
1510

> <i_lp_mmshare_version>
43012

> <i_f3d_flags>
0

> <s_epik_input>
TzFbQ0gyXVtDSDJdW0NIMl1bQ0BIXTFbQ0gyXVtOSF1DKD1PKVtDSDJdbjJbbkhdYyg9TylbY0hdW2NIXWMyPU8=

> <s_epik_cmdline>
J2VwaWtfcHl0aG9uJywgJy1waCcsICc3LjAnLCAnLXRuJywgJzgnLCAnLW1hJywgJzIwMCcsICctbWV0YWxfYmluZGluZycsICctaW1hZScsICc8aW5maWxlLm1hZT4nLCAnLW9tYWUnLCAnPG91dGZpbGUubWFlPic=

> <r_lp_tautomer_probability>
1

> <r_epik_Ionization_Penalty>
0.0970799

> <r_epik_Ionization_Penalty_Charging>
0.0970799

> <r_epik_Ionization_Penalty_Neutral>
2.6859e-08

> <r_epik_State_Penalty>
0.0341592

> <r_epik_Charging_Adjusted_Penalty>
0.131239

> <i_epik_Tot_Q>
-1

> <i_epik_Tot_abs_Q>
1

> <r_epik_Metal_State_Penalty>
0.0341592

> <b_epik_Metal_Only>
0

> <s_lp_Force_Field>
OPLS_2005

> <r_lp_Energy>
32.5095

> <b_lp_Chiralities_Consistent>
1

> <s_lp_Variant>
AV-unprocessed.smi:1510-1

> <Gold.Version>
5.8.1

> <Gold.Id.Protein>
6NUR|6NUR_protein|mol2

> <Gold.PLP.Fitness>
46.0671

> <Gold.PLP.PLP>
-32.1467

> <Gold.PLP.part.hbond>
-4.2206

> <Gold.PLP.part.metal>
0.0000

> <Gold.PLP.part.buried>
-3.8173

> <Gold.PLP.part.nonpolar>
-25.5295

> <Gold.PLP.part.repulsive>
0.1933

> <Gold.PLP.ligand.clash>
0.0000

> <Gold.PLP.ligand.torsion>
0.7473

> <Gold.PLP.Chemscore.Hbond>
5.1342

> <Gold.PLP.Chemscore.CHOScore>
0.0000

> <Gold.PLP.Chemscore.Metal>
0.0000

> <Gold.Chemscore.Hbonds>
donor molecule, donor type, donor heavy atom, donor atom, acceptor molecule, acceptor atom, score
      P1  H  6896  6908       L1    11  0.73
      P1  H  6896  6909       L1     1  0.99
      P1  H  6931  6943       L1     5  2.00
      P1  H  6934  6947       L1     5  1.47

> <Gold.PLP.Chemscore.Internal.Correction>
0.0122

> <Gold.Rescore>
     Score         DG    S(hbond)    S(metal)    S(lipo)     H(rot)  DE(clash)    DE(int)     intcor
     14.98     -16.02       2.58        0.00      61.18       2.05       0.26       0.78       ----

> <Gold.Chemscore.Fitness>
14.9817

> <Gold.Chemscore.DG>
-16.0182

> <Gold.Chemscore.ZeroCoef>
-5.4800

> <Gold.Chemscore.Hbond>
2.5804

> <Gold.Chemscore.Metal>
0.0000

> <Gold.Chemscore.Lipo>
61.1810

> <Gold.Chemscore.Internal_Hbond>
0.0000

> <Gold.Chemscore.DEClash>
0.2600

> <Gold.Chemscore.DEInternal>
0.7766

> <Gold.Chemscore.Rot>
2.0463

> <Gold.Chemscore.Internal.Correction>
   9.000000E+99

> <Gold.Chemscore.Hbonds>
donor molecule, donor type, donor heavy atom, donor atom, acceptor molecule, acceptor atom, score
      P1  H  6896  6908       L1    11  0.53
      P1  H  6896  6909       L1     1  0.94
      P1  H  6931  6943       L1     5  0.37
      P1  H  6934  6947       L1     5  0.55

> <Gold.Chemscore.Hbond.Weighted>
-8.6186

> <Gold.Chemscore.Metal.Weighted>
-0.0000

> <Gold.Chemscore.Lipo.Weighted>
-7.1582

> <Gold.Chemscore.Internal_Hbond.Weighted>
0.0000

> <Gold.Chemscore.DEClash.Weighted>
0.2600

> <Gold.Chemscore.DEInternal.Weighted>
0.7766

> <Gold.Chemscore.Rot.Weighted>
5.2386

> <Gold.Chemscore.Internal.Correction.Weighted>
   9.000000E+99

> <Gold.Protein.RotatedTorsions>
[ 6907 6896 6895 6894 ] final  129.68 input  -60.11 | X-H torsion
[ 7974 7965 7964 7962 ] final  132.08 input  175.53 | X-H torsion
[ 8008 7997 7996 7995 ] final   29.38 input   59.86 | X-H torsion
[ 10167 10162 10161 10158 ] final -103.29 input  -65.29 | X-H torsion
[ 10718 10713 10712 10709 ] final  138.13 input   66.30 | X-H torsion
[ 10763 10752 10751 10750 ] final  -31.89 input  -60.55 | X-H torsion
[ 11005 11000 10999 10996 ] final   -0.27 input  -57.11 | X-H torsion

> <Gold.Protein.ActiveResidues>
 VAL166  LYS551  ARG553  GLY616  TRP617  ASP618  TYR619  PRO620  LYS621  CYS622 
 ASP623  PHE694  ASN695  SER759  ASP760  ASP761  ALA762  ILE779  LEU786  VAL792 
 PHE793  MET794  SER795  GLU796  ALA797  LYS798  CYS799  TRP800  GLU811  SER814 

> <Gold.Protein.RotatedAtoms>
  152.3600  133.6285  159.6007 H   0  0  0  0  0  0  0  0  0  0  0  0  # atno 6907 bound_to 6896
  150.7594  133.9439  159.3473 H   0  0  0  0  0  0  0  0  0  0  0  0  # atno 6908 bound_to 6896
  151.7278  135.0882  160.0346 H   0  0  0  0  0  0  0  0  0  0  0  0  # atno 6909 bound_to 6896
  145.0006  139.4316  143.5294 H   0  0  0  0  0  0  0  0  0  0  0  0  # atno 7974 bound_to 7965
  155.0737  140.3203  155.4623 H   0  0  0  0  0  0  0  0  0  0  0  0  # atno 8008 bound_to 7997
  156.2784  140.2107  156.5809 H   0  0  0  0  0  0  0  0  0  0  0  0  # atno 8009 bound_to 7997
  154.7034  140.0505  157.0468 H   0  0  0  0  0  0  0  0  0  0  0  0  # atno 8010 bound_to 7997
  140.2216  143.3672  152.0965 H   0  0  0  0  0  0  0  0  0  0  0  0  # atno 10167 bound_to 10162
  157.4286  131.1046  151.0275 H   0  0  0  0  0  0  0  0  0  0  0  0  # atno 10718 bound_to 10713
  153.8048  135.6887  153.4850 H   0  0  0  0  0  0  0  0  0  0  0  0  # atno 10763 bound_to 10752
  153.1666  135.4559  154.9843 H   0  0  0  0  0  0  0  0  0  0  0  0  # atno 10764 bound_to 10752
  154.7992  135.3331  154.7533 H   0  0  0  0  0  0  0  0  0  0  0  0  # atno 10765 bound_to 10752
  140.6344  133.9546  155.8291 H   0  0  0  0  0  0  0  0  0  0  0  0  # atno 11005 bound_to 11000
  146.3451  139.9392  142.8743 LP  0  0  0  0  0  0  0  0  0  0  0  0  # atno 17320 bound_to 7965
  145.2159  140.9915  143.4074 LP  0  0  0  0  0  0  0  0  0  0  0  0  # atno 17321 bound_to 7965
  139.5142  144.6944  151.5670 LP  0  0  0  0  0  0  0  0  0  0  0  0  # atno 17342 bound_to 10162
  140.6251  143.9184  150.6558 LP  0  0  0  0  0  0  0  0  0  0  0  0  # atno 17343 bound_to 10162
  157.1179  130.6049  149.5498 LP  0  0  0  0  0  0  0  0  0  0  0  0  # atno 17370 bound_to 10713
  155.9905  130.4957  150.7261 LP  0  0  0  0  0  0  0  0  0  0  0  0  # atno 17371 bound_to 10713
  141.0652  134.0287  157.3603 LP  0  0  0  0  0  0  0  0  0  0  0  0  # atno 17394 bound_to 11000
  139.9104  135.0189  156.7666 LP  0  0  0  0  0  0  0  0  0  0  0  0  # atno 17395 bound_to 11000

$$$$
