AV-unprocessed.smi:265|AV-procd|sdf|2022|dock1
  -GOLD-   2262021223D 1   1.00000     0.00000
 Structure written by MMmdl.
 52 56  0  0  0  0  0  0  0  0  1 V2000
  152.5977  141.0210  159.0612 C   0  0  0  0  0  0  0  0  0  0  0  0
  151.6790  142.2449  159.2004 C   0  0  1  0  0  0  0  0  0  0  0  0
  152.3894  143.2221  159.9582 O   0  0  0  0  0  0  0  0  0  0  0  0
  152.0223  144.5151  159.5104 C   0  0  0  0  0  0  0  0  0  0  0  0
  151.9170  144.3241  158.0053 C   0  0  0  0  0  0  0  0  0  0  0  0
  151.2568  142.9542  157.8825 C   0  0  2  0  0  0  0  0  0  0  0  0
  149.8522  143.1444  157.9285 O   0  0  0  0  0  0  0  0  0  0  0  0
  151.5927  142.2129  156.5616 C   0  0  0  0  0  0  0  0  0  0  0  0
  151.2179  140.8066  156.5745 N   0  0  0  0  0  0  0  0  0  0  0  0
  150.2263  140.2260  157.3328 C   0  0  0  0  0  0  0  0  0  0  0  0
  150.0812  138.9396  157.1690 N   0  0  0  0  0  0  0  0  0  0  0  0
  151.0494  138.6045  156.2294 C   0  0  0  0  0  0  0  0  0  0  0  0
  151.4476  137.3872  155.6066 C   0  0  0  0  0  0  0  0  0  0  0  0
  150.8396  136.1999  155.8591 N   0  0  0  0  0  0  0  0  0  0  0  0
  151.6995  135.1916  156.4746 C   0  0  0  0  0  0  0  0  0  0  0  0
  151.0937  133.7895  156.3129 C   0  0  0  0  0  0  0  0  0  0  0  0
  149.6489  133.7274  156.8349 C   0  0  1  0  0  0  0  0  0  0  0  0
  149.6294  133.8740  158.2489 O   0  0  0  0  0  0  0  0  0  0  0  0
  148.3458  133.6473  158.8343 C   0  0  0  0  0  0  0  0  0  0  0  0
  147.2284  134.4278  158.1169 C   0  0  0  0  0  0  0  0  0  0  0  0
  146.1355  134.5714  158.6603 O   0  0  0  0  0  0  0  0  0  0  0  0
  147.4759  134.8971  156.8834 N   0  0  0  0  0  0  0  0  0  0  0  0
  148.7833  134.8574  156.2362 C   0  0  1  0  0  0  0  0  0  0  0  0
  149.4696  136.2322  156.3726 C   0  0  0  0  0  0  0  0  0  0  0  0
  152.4842  137.4461  154.7278 N   0  0  0  0  0  0  0  0  0  0  0  0
  153.0857  138.6107  154.4686 C   0  0  0  0  0  0  0  0  0  0  0  0
  152.8167  139.8177  154.9689 N   0  0  0  0  0  0  0  0  0  0  0  0
  151.7812  139.7669  155.8545 C   0  0  0  0  0  0  0  0  0  0  0  0
  149.2288  132.7531  156.5772 H   0  0  0  0  0  0  0  0  0  0  0  0
  148.6260  134.6519  155.1767 H   0  0  0  0  0  0  0  0  0  0  0  0
  152.1157  140.2208  158.4995 H   0  0  0  0  0  0  0  0  0  0  0  0
  152.8534  140.6200  160.0421 H   0  0  0  0  0  0  0  0  0  0  0  0
  153.5316  141.2775  158.5605 H   0  0  0  0  0  0  0  0  0  0  0  0
  150.7985  141.9506  159.7749 H   0  0  0  0  0  0  0  0  0  0  0  0
  151.0603  144.7964  159.9414 H   0  0  0  0  0  0  0  0  0  0  0  0
  152.7621  145.2645  159.7919 H   0  0  0  0  0  0  0  0  0  0  0  0
  151.3719  145.1263  157.5059 H   0  0  0  0  0  0  0  0  0  0  0  0
  152.9235  144.2945  157.5867 H   0  0  0  0  0  0  0  0  0  0  0  0
  149.6285  143.8579  157.3507 H   0  0  0  0  0  0  0  0  0  0  0  0
  151.0863  142.6829  155.7183 H   0  0  0  0  0  0  0  0  0  0  0  0
  152.6617  142.2750  156.3531 H   0  0  0  0  0  0  0  0  0  0  0  0
  149.6073  140.7919  158.0140 H   0  0  0  0  0  0  0  0  0  0  0  0
  152.7014  135.2017  156.0473 H   0  0  0  0  0  0  0  0  0  0  0  0
  151.8118  135.4280  157.5337 H   0  0  0  0  0  0  0  0  0  0  0  0
  151.1037  133.5186  155.2564 H   0  0  0  0  0  0  0  0  0  0  0  0
  151.7114  133.0518  156.8259 H   0  0  0  0  0  0  0  0  0  0  0  0
  148.1126  132.5826  158.7971 H   0  0  0  0  0  0  0  0  0  0  0  0
  148.3796  133.9337  159.8856 H   0  0  0  0  0  0  0  0  0  0  0  0
  146.7329  135.3765  156.3961 H   0  0  0  0  0  0  0  0  0  0  0  0
  149.4950  136.5368  157.4203 H   0  0  0  0  0  0  0  0  0  0  0  0
  148.8862  136.9815  155.8349 H   0  0  0  0  0  0  0  0  0  0  0  0
  153.8983  138.5693  153.7583 H   0  0  0  0  0  0  0  0  0  0  0  0
  1  2  1  0  0  0  0
  1 31  1  0  0  0  0
  1 32  1  0  0  0  0
  1 33  1  0  0  0  0
  2  6  1  0  0  0  0
  2  3  1  0  0  0  0
  2 34  1  0  0  0  0
  3  4  1  0  0  0  0
  4  5  1  0  0  0  0
  4 35  1  0  0  0  0
  4 36  1  0  0  0  0
  5  6  1  0  0  0  0
  5 37  1  0  0  0  0
  5 38  1  0  0  0  0
  6  7  1  0  0  0  0
  6  8  1  0  0  0  0
  7 39  1  0  0  0  0
  8  9  1  0  0  0  0
  8 40  1  0  0  0  0
  8 41  1  0  0  0  0
  9 28  1  0  0  0  0
  9 10  1  0  0  0  0
 10 11  2  0  0  0  0
 10 42  1  0  0  0  0
 11 12  1  0  0  0  0
 12 28  2  0  0  0  0
 12 13  1  0  0  0  0
 13 14  1  0  0  0  0
 13 25  2  0  0  0  0
 14 24  1  0  0  0  0
 14 15  1  0  0  0  0
 15 16  1  0  0  0  0
 15 43  1  0  0  0  0
 15 44  1  0  0  0  0
 16 17  1  0  0  0  0
 16 45  1  0  0  0  0
 16 46  1  0  0  0  0
 17 29  1  0  0  0  0
 17 23  1  0  0  0  0
 17 18  1  0  0  0  0
 18 19  1  0  0  0  0
 19 20  1  0  0  0  0
 19 47  1  0  0  0  0
 19 48  1  0  0  0  0
 20 21  2  0  0  0  0
 20 22  1  0  0  0  0
 22 23  1  0  0  0  0
 22 49  1  0  0  0  0
 23 30  1  0  0  0  0
 23 24  1  0  0  0  0
 24 50  1  0  0  0  0
 24 51  1  0  0  0  0
 25 26  1  0  0  0  0
 26 27  2  0  0  0  0
 26 52  1  0  0  0  0
 27 28  1  0  0  0  0
M  END
> <s_m_source_file>
AV-unprocessed.smi

> <i_m_source_file_index>
265

> <i_lp_mmshare_version>
43012

> <i_f3d_flags>
0

> <s_epik_input>
W0NIMl0xW0NIMl1PW0NAQEhdKFtDSDNdKVtDQEBdMShbT0hdKVtDSDJdbihbY0hdbjIpYyhjMjMpbltjSF1uYzNOKFtDSDJdW0NIMl00KVtDSDJdW0NAQEhdKFtDQEhdNDUpW05IXUMoPU8pW0NIMl1PNQ==

> <s_epik_cmdline>
J2VwaWtfcHl0aG9uJywgJy1waCcsICc3LjAnLCAnLXRuJywgJzgnLCAnLW1hJywgJzIwMCcsICctbWV0YWxfYmluZGluZycsICctaW1hZScsICc8aW5maWxlLm1hZT4nLCAnLW9tYWUnLCAnPG91dGZpbGUubWFlPic=

> <r_lp_tautomer_probability>
1

> <r_epik_Ionization_Penalty>
0.00221504

> <r_epik_Ionization_Penalty_Charging>
0

> <r_epik_Ionization_Penalty_Neutral>
0.00221504

> <r_epik_State_Penalty>
-0

> <r_epik_Charging_Adjusted_Penalty>
0

> <i_epik_Tot_Q>
0

> <i_epik_Tot_abs_Q>
0

> <r_epik_Metal_State_Penalty>
-0

> <b_epik_Metal_Only>
0

> <s_lp_Force_Field>
OPLS_2005

> <r_lp_Energy>
44.6863

> <b_lp_Chiralities_Consistent>
1

> <s_lp_Variant>
AV-unprocessed.smi:265-8

> <Gold.Version>
5.8.1

> <Gold.Id.Protein>
6NUR|6NUR_protein|mol2

> <Gold.PLP.Fitness>
49.6467

> <Gold.PLP.PLP>
-38.2980

> <Gold.PLP.part.hbond>
-4.9810

> <Gold.PLP.part.metal>
0.0000

> <Gold.PLP.part.buried>
-6.5799

> <Gold.PLP.part.nonpolar>
-26.7617

> <Gold.PLP.part.repulsive>
0.1741

> <Gold.PLP.ligand.clash>
0.0000

> <Gold.PLP.ligand.torsion>
0.8215

> <Gold.PLP.Chemscore.Hbond>
4.2025

> <Gold.PLP.Chemscore.CHOScore>
0.0000

> <Gold.PLP.Chemscore.Metal>
0.0000

> <Gold.Chemscore.Hbonds>
donor molecule, donor type, donor heavy atom, donor atom, acceptor molecule, acceptor atom, score
      L1  H     7    39       P1  8028  1.00
      P1  H  6896  6908       L1    18  1.00
      P1  H  7989  7998       L1    27  0.25
      P1  H  7997  8009       L1    27  1.00
      P1  H 10752 10765       L1    25  0.61

> <Gold.PLP.Chemscore.Internal.Correction>
0.3842

> <Gold.Rescore>
     Score         DG    S(hbond)    S(metal)    S(lipo)     H(rot)  DE(clash)    DE(int)     intcor
     14.51     -20.11       3.06        0.00      86.85       2.25       1.62       3.99       ----

> <Gold.Chemscore.Fitness>
14.5056

> <Gold.Chemscore.DG>
-20.1132

> <Gold.Chemscore.ZeroCoef>
-5.4800

> <Gold.Chemscore.Hbond>
3.0598

> <Gold.Chemscore.Metal>
0.0000

> <Gold.Chemscore.Lipo>
86.8501

> <Gold.Chemscore.Internal_Hbond>
0.0000

> <Gold.Chemscore.DEClash>
1.6197

> <Gold.Chemscore.DEInternal>
3.9878

> <Gold.Chemscore.Rot>
2.2453

> <Gold.Chemscore.Internal.Correction>
   9.000000E+99

> <Gold.Chemscore.Hbonds>
donor molecule, donor type, donor heavy atom, donor atom, acceptor molecule, acceptor atom, score
      L1  H     7    39       P1  8028  0.56
      P1  H  6896  6908       L1    18  0.83
      P1  H  7989  7998       L1    27  0.02
      P1  H  7997  8009       L1    27  0.23
      P1  H 10752 10765       L1    25  0.34

> <Gold.Chemscore.Hbond.Weighted>
-10.2196

> <Gold.Chemscore.Metal.Weighted>
-0.0000

> <Gold.Chemscore.Lipo.Weighted>
-10.1615

> <Gold.Chemscore.Internal_Hbond.Weighted>
0.0000

> <Gold.Chemscore.DEClash.Weighted>
1.6197

> <Gold.Chemscore.DEInternal.Weighted>
3.9878

> <Gold.Chemscore.Rot.Weighted>
5.7479

> <Gold.Chemscore.Internal.Correction.Weighted>
   9.000000E+99

> <Gold.Protein.RotatedTorsions>
[ 6907 6896 6895 6894 ] final  117.46 input  -60.11 | X-H torsion
[ 7974 7965 7964 7962 ] final -106.11 input  175.53 | X-H torsion
[ 8008 7997 7996 7995 ] final -140.90 input   59.86 | X-H torsion
[ 10167 10162 10161 10158 ] final  -12.87 input  -65.29 | X-H torsion
[ 10718 10713 10712 10709 ] final  163.14 input   66.30 | X-H torsion
[ 10763 10752 10751 10750 ] final  167.04 input  -60.55 | X-H torsion
[ 11005 11000 10999 10996 ] final  168.72 input  -57.11 | X-H torsion

> <Gold.Protein.ActiveResidues>
 VAL166  LYS551  ARG553  GLY616  TRP617  ASP618  TYR619  PRO620  LYS621  CYS622 
 ASP623  PHE694  ASN695  SER759  ASP760  ASP761  ALA762  ILE779  LEU786  VAL792 
 PHE793  MET794  SER795  GLU796  ALA797  LYS798  CYS799  TRP800  GLU811  SER814 

> <Gold.Protein.RotatedAtoms>
  152.4610  133.7822  159.6856 H   0  0  0  0  0  0  0  0  0  0  0  0  # atno 6907 bound_to 6896
  150.8554  133.7713  159.3017 H   0  0  0  0  0  0  0  0  0  0  0  0  # atno 6908 bound_to 6896
  151.5296  135.1071  159.9951 H   0  0  0  0  0  0  0  0  0  0  0  0  # atno 6909 bound_to 6896
  145.2219  140.9138  143.3254 H   0  0  0  0  0  0  0  0  0  0  0  0  # atno 7974 bound_to 7965
  155.4689  140.0551  157.2982 H   0  0  0  0  0  0  0  0  0  0  0  0  # atno 8008 bound_to 7997
  154.4706  140.2039  155.9957 H   0  0  0  0  0  0  0  0  0  0  0  0  # atno 8009 bound_to 7997
  156.1050  140.3213  155.7998 H   0  0  0  0  0  0  0  0  0  0  0  0  # atno 8010 bound_to 7997
  140.7170  143.5486  150.9327 H   0  0  0  0  0  0  0  0  0  0  0  0  # atno 10167 bound_to 10162
  157.1126  131.0472  151.2450 H   0  0  0  0  0  0  0  0  0  0  0  0  # atno 10718 bound_to 10713
  154.3479  135.2753  155.2388 H   0  0  0  0  0  0  0  0  0  0  0  0  # atno 10763 bound_to 10752
  154.4630  135.5902  153.6272 H   0  0  0  0  0  0  0  0  0  0  0  0  # atno 10764 bound_to 10752
  152.9852  135.6069  154.3687 H   0  0  0  0  0  0  0  0  0  0  0  0  # atno 10765 bound_to 10752
  140.2902  134.7679  157.3832 H   0  0  0  0  0  0  0  0  0  0  0  0  # atno 11005 bound_to 11000
  144.9757  139.3834  143.6287 LP  0  0  0  0  0  0  0  0  0  0  0  0  # atno 17320 bound_to 7965
  146.3374  139.8875  142.8814 LP  0  0  0  0  0  0  0  0  0  0  0  0  # atno 17321 bound_to 7965
  139.9210  143.6606  152.3097 LP  0  0  0  0  0  0  0  0  0  0  0  0  # atno 17342 bound_to 10162
  139.7023  144.7633  151.1252 LP  0  0  0  0  0  0  0  0  0  0  0  0  # atno 17343 bound_to 10162
  157.4546  130.7618  149.7181 LP  0  0  0  0  0  0  0  0  0  0  0  0  # atno 17370 bound_to 10713
  155.9847  130.3989  150.3300 LP  0  0  0  0  0  0  0  0  0  0  0  0  # atno 17371 bound_to 10713
  140.1202  134.5229  155.8190 LP  0  0  0  0  0  0  0  0  0  0  0  0  # atno 17394 bound_to 11000
  141.2147  133.6754  156.6852 LP  0  0  0  0  0  0  0  0  0  0  0  0  # atno 17395 bound_to 11000

$$$$
