AV-unprocessed.smi:2520|AV-procd|sdf|9911|dock10
  -GOLD-   2272013543D 1   1.00000     0.00000
 Structure written by MMmdl.
 41 44  0  0  0  0  0  0  0  0  1 V2000
  145.6289  138.3799  153.8389 O   0  0  0  0  0  0  0  0  0  0  0  0
  146.4916  137.7859  153.1947 C   0  0  0  0  0  0  0  0  0  0  0  0
  147.7791  138.1905  153.2162 N   0  0  0  0  0  0  0  0  0  0  0  0
  148.4134  139.2721  153.8941 C   0  0  0  0  0  0  0  0  0  0  0  0
  147.6007  140.4104  154.0827 C   0  0  0  0  0  0  0  0  0  0  0  0
  148.1522  141.5266  154.7343 C   0  0  0  0  0  0  0  0  0  0  0  0
  149.4899  141.4309  155.1536 C   0  0  0  0  0  0  0  0  0  0  0  0
  150.2351  140.3235  154.9489 N   0  0  0  0  0  0  0  0  0  0  0  0
  149.7024  139.2662  154.3275 N   0  0  0  0  0  0  0  0  0  0  0  0
  146.2202  136.7093  152.4404 N   0  0  0  0  0  0  0  0  0  0  0  0
  144.8934  136.1345  152.2580 C   0  0  2  0  0  0  0  0  0  0  0  0
  144.2455  135.7223  153.5899 C   0  0  1  0  0  0  0  0  0  0  0  0
  143.0133  136.4364  154.0737 C   0  0  0  0  0  0  0  0  0  0  0  0
  141.8797  135.5387  153.5692 C   0  0  0  0  0  0  0  0  0  0  0  0
  142.4568  134.7976  152.4960 O   0  0  0  0  0  0  0  0  0  0  0  0
  143.7879  134.4581  152.8777 C   0  0  1  0  0  0  0  0  0  0  0  0
  144.8921  134.6521  151.8164 C   0  0  0  0  0  0  0  0  0  0  0  0
  146.1480  133.7989  152.0177 C   0  0  0  0  0  0  0  0  0  0  0  0
  145.9173  132.4993  151.2456 C   0  0  0  0  0  0  0  0  0  0  0  0
  144.9435  132.8633  150.1204 C   0  0  0  0  0  0  0  0  0  0  0  0
  144.5419  134.3217  150.3681 C   0  0  0  0  0  0  0  0  0  0  0  0
  148.4096  137.6008  152.6930 H   0  0  0  0  0  0  0  0  0  0  0  0
  146.5769  140.4305  153.7383 H   0  0  0  0  0  0  0  0  0  0  0  0
  147.5724  142.4214  154.9059 H   0  0  0  0  0  0  0  0  0  0  0  0
  149.9710  142.2544  155.6602 H   0  0  0  0  0  0  0  0  0  0  0  0
  146.9828  136.2732  151.9417 H   0  0  0  0  0  0  0  0  0  0  0  0
  144.2215  136.7449  151.6501 H   0  0  0  0  0  0  0  0  0  0  0  0
  144.9807  135.5007  154.3659 H   0  0  0  0  0  0  0  0  0  0  0  0
  142.9882  136.5432  155.1584 H   0  0  0  0  0  0  0  0  0  0  0  0
  142.9444  137.4329  153.6367 H   0  0  0  0  0  0  0  0  0  0  0  0
  141.5646  134.8449  154.3499 H   0  0  0  0  0  0  0  0  0  0  0  0
  141.0071  136.1051  153.2435 H   0  0  0  0  0  0  0  0  0  0  0  0
  143.8528  133.5538  153.4847 H   0  0  0  0  0  0  0  0  0  0  0  0
  147.0237  134.2990  151.6024 H   0  0  0  0  0  0  0  0  0  0  0  0
  146.3622  133.6069  153.0696 H   0  0  0  0  0  0  0  0  0  0  0  0
  146.8500  132.0789  150.8683 H   0  0  0  0  0  0  0  0  0  0  0  0
  145.4606  131.7553  151.8996 H   0  0  0  0  0  0  0  0  0  0  0  0
  145.3992  132.7450  149.1368 H   0  0  0  0  0  0  0  0  0  0  0  0
  144.0690  132.2127  150.1573 H   0  0  0  0  0  0  0  0  0  0  0  0
  143.4886  134.4871  150.1413 H   0  0  0  0  0  0  0  0  0  0  0  0
  145.1077  134.9696  149.6973 H   0  0  0  0  0  0  0  0  0  0  0  0
  1  2  2  0  0  0  0
  2  3  1  0  0  0  0
  2 10  1  0  0  0  0
  3  4  1  0  0  0  0
  3 22  1  0  0  0  0
  4  9  1  0  0  0  0
  4  5  2  0  0  0  0
  5  6  1  0  0  0  0
  5 23  1  0  0  0  0
  6  7  2  0  0  0  0
  6 24  1  0  0  0  0
  7  8  1  0  0  0  0
  7 25  1  0  0  0  0
  8  9  2  0  0  0  0
 10 11  1  0  0  0  0
 10 26  1  0  0  0  0
 11 17  1  0  0  0  0
 11 12  1  0  0  0  0
 11 27  1  0  0  0  0
 12 16  1  0  0  0  0
 12 13  1  0  0  0  0
 12 28  1  0  0  0  0
 13 14  1  0  0  0  0
 13 29  1  0  0  0  0
 13 30  1  0  0  0  0
 14 15  1  0  0  0  0
 14 31  1  0  0  0  0
 14 32  1  0  0  0  0
 15 16  1  0  0  0  0
 16 17  1  0  0  0  0
 16 33  1  0  0  0  0
 17 21  1  0  0  0  0
 17 18  1  0  0  0  0
 18 19  1  0  0  0  0
 18 34  1  0  0  0  0
 18 35  1  0  0  0  0
 19 20  1  0  0  0  0
 19 36  1  0  0  0  0
 19 37  1  0  0  0  0
 20 21  1  0  0  0  0
 20 38  1  0  0  0  0
 20 39  1  0  0  0  0
 21 40  1  0  0  0  0
 21 41  1  0  0  0  0
M  END
> <s_m_source_file>
AV-unprocessed.smi

> <i_m_source_file_index>
2520

> <i_lp_mmshare_version>
43012

> <i_f3d_flags>
0

> <s_epik_input>
bjFuW2NIXVtjSF1bY0hdYzFbTkhdQyg9TylbTkhdW0NAQEhdMltDQEBIXShbQ0gyXVtDSDJdTzMpW0NASF0zQzI0W0NIMl1bQ0gyXVtDSDJdW0NIMl00

> <s_epik_cmdline>
J2VwaWtfcHl0aG9uJywgJy1waCcsICc3LjAnLCAnLXRuJywgJzgnLCAnLW1hJywgJzIwMCcsICctbWV0YWxfYmluZGluZycsICctaW1hZScsICc8aW5maWxlLm1hZT4nLCAnLW9tYWUnLCAnPG91dGZpbGUubWFlPic=

> <r_lp_tautomer_probability>
1

> <r_epik_Ionization_Penalty>
0.00552561

> <r_epik_Ionization_Penalty_Charging>
0

> <r_epik_Ionization_Penalty_Neutral>
0.00552561

> <r_epik_State_Penalty>
-0

> <r_epik_Charging_Adjusted_Penalty>
0

> <i_epik_Tot_Q>
0

> <i_epik_Tot_abs_Q>
0

> <r_epik_Metal_State_Penalty>
-0

> <b_epik_Metal_Only>
0

> <s_lp_Force_Field>
OPLS_2005

> <r_lp_Energy>
61.2745

> <b_lp_Chiralities_Consistent>
1

> <s_lp_Variant>
AV-unprocessed.smi:2520-5

> <Gold.Version>
5.8.1

> <Gold.Id.Protein>
6NUR|6NUR_protein|mol2

> <Gold.PLP.Fitness>
42.4134

> <Gold.PLP.PLP>
-31.8901

> <Gold.PLP.part.hbond>
-3.5508

> <Gold.PLP.part.metal>
0.0000

> <Gold.PLP.part.buried>
-4.4486

> <Gold.PLP.part.nonpolar>
-25.9847

> <Gold.PLP.part.repulsive>
1.8738

> <Gold.PLP.ligand.clash>
0.0000

> <Gold.PLP.ligand.torsion>
0.3589

> <Gold.PLP.Chemscore.Hbond>
2.7920

> <Gold.PLP.Chemscore.CHOScore>
0.8933

> <Gold.PLP.Chemscore.Metal>
0.0000

> <Gold.Chemscore.Hbonds>
donor molecule, donor type, donor heavy atom, donor atom, acceptor molecule, acceptor atom, score
      L1  H     3    22       P1  7948  1.00
      L1  H    10    26       P1  7948  0.86
      P1  H  7989  7998       L1     8  0.82
      L1  C     7    25       P1  8028  0.49

> <Gold.PLP.Chemscore.Internal.Correction>
0.1854

> <Gold.Rescore>
     Score         DG    S(hbond)    S(metal)    S(lipo)     H(rot)  DE(clash)    DE(int)     intcor
     16.21     -17.96       2.01        0.00      71.21       1.00       0.11       1.64       ----

> <Gold.Chemscore.Fitness>
16.2081

> <Gold.Chemscore.DG>
-17.9564

> <Gold.Chemscore.ZeroCoef>
-5.4800

> <Gold.Chemscore.Hbond>
2.0075

> <Gold.Chemscore.Metal>
0.0000

> <Gold.Chemscore.Lipo>
71.2092

> <Gold.Chemscore.Internal_Hbond>
0.0000

> <Gold.Chemscore.DEClash>
0.1089

> <Gold.Chemscore.DEInternal>
1.6394

> <Gold.Chemscore.Rot>
1.0000

> <Gold.Chemscore.Internal.Correction>
   9.000000E+99

> <Gold.Chemscore.Hbonds>
donor molecule, donor type, donor heavy atom, donor atom, acceptor molecule, acceptor atom, score
      L1  H     3    22       P1  7948  0.99
      L1  H    10    26       P1  7948  0.84
      P1  H  7989  7998       L1     8  0.09

> <Gold.Chemscore.Hbond.Weighted>
-6.7049

> <Gold.Chemscore.Metal.Weighted>
-0.0000

> <Gold.Chemscore.Lipo.Weighted>
-8.3315

> <Gold.Chemscore.Internal_Hbond.Weighted>
0.0000

> <Gold.Chemscore.DEClash.Weighted>
0.1089

> <Gold.Chemscore.DEInternal.Weighted>
1.6394

> <Gold.Chemscore.Rot.Weighted>
2.5600

> <Gold.Chemscore.Internal.Correction.Weighted>
   9.000000E+99

> <Gold.Protein.RotatedTorsions>
[ 6907 6896 6895 6894 ] final   12.69 input  -60.11 | X-H torsion
[ 7974 7965 7964 7962 ] final -106.48 input  175.53 | X-H torsion
[ 8008 7997 7996 7995 ] final    5.40 input   59.86 | X-H torsion
[ 10167 10162 10161 10158 ] final  117.93 input  -65.29 | X-H torsion
[ 10718 10713 10712 10709 ] final    6.25 input   66.30 | X-H torsion
[ 10763 10752 10751 10750 ] final  157.13 input  -60.55 | X-H torsion
[ 11005 11000 10999 10996 ] final -109.11 input  -57.11 | X-H torsion

> <Gold.Protein.ActiveResidues>
 VAL166  LYS551  ARG553  GLY616  TRP617  ASP618  TYR619  PRO620  LYS621  CYS622 
 ASP623  PHE694  ASN695  SER759  ASP760  ASP761  ALA762  ILE779  LEU786  VAL792 
 PHE793  MET794  SER795  GLU796  ALA797  LYS798  CYS799  TRP800  GLU811  SER814 

> <Gold.Protein.RotatedAtoms>
  151.7744  135.0778  160.0364 H   0  0  0  0  0  0  0  0  0  0  0  0  # atno 6907 bound_to 6896
  152.3266  133.5908  159.5789 H   0  0  0  0  0  0  0  0  0  0  0  0  # atno 6908 bound_to 6896
  150.7399  133.9847  159.3629 H   0  0  0  0  0  0  0  0  0  0  0  0  # atno 6909 bound_to 6896
  145.2173  140.9120  143.3280 H   0  0  0  0  0  0  0  0  0  0  0  0  # atno 7974 bound_to 7965
  154.7278  140.2724  155.6483 H   0  0  0  0  0  0  0  0  0  0  0  0  # atno 8008 bound_to 7997
  156.2841  140.2721  156.1895 H   0  0  0  0  0  0  0  0  0  0  0  0  # atno 8009 bound_to 7997
  155.0421  140.0371  157.2503 H   0  0  0  0  0  0  0  0  0  0  0  0  # atno 8010 bound_to 7997
  139.6146  144.7089  151.2769 H   0  0  0  0  0  0  0  0  0  0  0  0  # atno 10167 bound_to 10162
  156.9194  130.5785  149.5647 H   0  0  0  0  0  0  0  0  0  0  0  0  # atno 10718 bound_to 10713
  154.1954  135.2793  155.3008 H   0  0  0  0  0  0  0  0  0  0  0  0  # atno 10763 bound_to 10752
  154.5896  135.5564  153.7268 H   0  0  0  0  0  0  0  0  0  0  0  0  # atno 10764 bound_to 10752
  153.0101  135.6365  154.2092 H   0  0  0  0  0  0  0  0  0  0  0  0  # atno 10765 bound_to 10752
  141.0865  133.9129  157.2173 H   0  0  0  0  0  0  0  0  0  0  0  0  # atno 11005 bound_to 11000
  144.9799  139.3794  143.6267 LP  0  0  0  0  0  0  0  0  0  0  0  0  # atno 17320 bound_to 7965
  146.3384  139.8935  142.8805 LP  0  0  0  0  0  0  0  0  0  0  0  0  # atno 17321 bound_to 7965
  140.7342  143.6773  150.8031 LP  0  0  0  0  0  0  0  0  0  0  0  0  # atno 17342 bound_to 10162
  140.0373  143.5382  152.2733 LP  0  0  0  0  0  0  0  0  0  0  0  0  # atno 17343 bound_to 10162
  156.0498  130.5569  150.8964 LP  0  0  0  0  0  0  0  0  0  0  0  0  # atno 17370 bound_to 10713
  157.5917  131.0944  150.9107 LP  0  0  0  0  0  0  0  0  0  0  0  0  # atno 17371 bound_to 10713
  139.9684  135.0135  156.9449 LP  0  0  0  0  0  0  0  0  0  0  0  0  # atno 17394 bound_to 11000
  140.5350  134.0776  155.7326 LP  0  0  0  0  0  0  0  0  0  0  0  0  # atno 17395 bound_to 11000

$$$$
