AV-unprocessed.smi:1175|AV-procd|sdf|4951|dock10
  -GOLD-   22720 3543D 1   1.00000     0.00000
 Structure written by MMmdl.
 36 37  0  0  0  0  0  0  0  0  1 V2000
  149.7669  135.8209  158.6152 O   0  0  0  0  0  0  0  0  0  0  0  0
  149.3414  136.9620  158.8010 C   0  0  0  0  0  0  0  0  0  0  0  0
  148.0399  137.1998  159.5803 C   0  0  0  0  0  0  0  0  0  0  0  0
  147.6991  136.0989  160.4973 N   0  0  0  0  0  0  0  0  0  0  0  0
  147.4080  134.8479  159.9182 C   0  0  0  0  0  0  0  0  0  0  0  0
  147.0745  133.7636  160.6446 C   0  0  0  0  0  0  0  0  0  0  0  0
  146.8242  132.4112  159.9955 C   0  0  0  0  0  0  0  0  0  0  0  0
  146.6263  131.4668  160.9153 F   0  0  0  0  0  0  0  0  0  0  0  0
  145.7393  132.4729  159.2249 F   0  0  0  0  0  0  0  0  0  0  0  0
  147.8547  132.0439  159.2328 F   0  0  0  0  0  0  0  0  0  0  0  0
  147.0582  133.9321  162.0843 C   0  0  0  0  0  0  0  0  0  0  0  0
  147.3456  135.1183  162.6549 C   0  0  0  0  0  0  0  0  0  0  0  0
  147.6874  136.2933  161.8502 C   0  0  0  0  0  0  0  0  0  0  0  0
  147.9481  137.3835  162.3600 O   0  0  0  0  0  0  0  0  0  0  0  0
  149.9527  138.0606  158.3322 N   0  0  0  0  0  0  0  0  0  0  0  0
  151.1941  138.0782  157.5651 C   0  0  0  0  0  0  0  0  0  0  0  0
  151.0002  138.7029  156.1706 C   0  0  1  0  0  0  0  0  0  0  0  0
  149.6083  138.5116  155.6036 C   0  0  0  0  0  0  0  0  0  0  0  0
  149.5560  139.5764  154.5109 C   0  0  0  0  0  0  0  0  0  0  0  0
  150.4271  140.6213  154.9366 O   0  0  0  0  0  0  0  0  0  0  0  0
  151.1230  140.2264  156.1143 C   0  0  0  0  0  0  0  0  0  0  0  0
  148.1154  138.1378  160.1335 H   0  0  0  0  0  0  0  0  0  0  0  0
  147.2368  137.3593  158.8593 H   0  0  0  0  0  0  0  0  0  0  0  0
  147.4836  134.8235  158.8408 H   0  0  0  0  0  0  0  0  0  0  0  0
  146.8082  133.0935  162.7174 H   0  0  0  0  0  0  0  0  0  0  0  0
  147.3229  135.2072  163.7312 H   0  0  0  0  0  0  0  0  0  0  0  0
  149.5288  138.9559  158.5283 H   0  0  0  0  0  0  0  0  0  0  0  0
  151.9195  138.6663  158.1276 H   0  0  0  0  0  0  0  0  0  0  0  0
  151.6158  137.0748  157.4839 H   0  0  0  0  0  0  0  0  0  0  0  0
  151.7188  138.2667  155.4743 H   0  0  0  0  0  0  0  0  0  0  0  0
  149.4339  137.5047  155.2230 H   0  0  0  0  0  0  0  0  0  0  0  0
  148.8557  138.7232  156.3645 H   0  0  0  0  0  0  0  0  0  0  0  0
  149.9318  139.1756  153.5689 H   0  0  0  0  0  0  0  0  0  0  0  0
  148.5442  139.9460  154.3416 H   0  0  0  0  0  0  0  0  0  0  0  0
  150.6324  140.6858  156.9735 H   0  0  0  0  0  0  0  0  0  0  0  0
  152.1591  140.5648  156.0956 H   0  0  0  0  0  0  0  0  0  0  0  0
  1  2  2  0  0  0  0
  2  3  1  0  0  0  0
  2 15  1  0  0  0  0
  3  4  1  0  0  0  0
  3 22  1  0  0  0  0
  3 23  1  0  0  0  0
  4 13  1  0  0  0  0
  4  5  1  0  0  0  0
  5  6  2  0  0  0  0
  5 24  1  0  0  0  0
  6  7  1  0  0  0  0
  6 11  1  0  0  0  0
  7  8  1  0  0  0  0
  7  9  1  0  0  0  0
  7 10  1  0  0  0  0
 11 12  2  0  0  0  0
 11 25  1  0  0  0  0
 12 13  1  0  0  0  0
 12 26  1  0  0  0  0
 13 14  2  0  0  0  0
 15 16  1  0  0  0  0
 15 27  1  0  0  0  0
 16 17  1  0  0  0  0
 16 28  1  0  0  0  0
 16 29  1  0  0  0  0
 17 21  1  0  0  0  0
 17 18  1  0  0  0  0
 17 30  1  0  0  0  0
 18 19  1  0  0  0  0
 18 31  1  0  0  0  0
 18 32  1  0  0  0  0
 19 20  1  0  0  0  0
 19 33  1  0  0  0  0
 19 34  1  0  0  0  0
 20 21  1  0  0  0  0
 21 35  1  0  0  0  0
 21 36  1  0  0  0  0
M  END
> <s_m_source_file>
AV-unprocessed.smi

> <i_m_source_file_index>
1175

> <i_lp_mmshare_version>
43012

> <i_f3d_flags>
0

> <s_epik_input>
W0NIMl0xT1tDSDJdW0NIMl1bQ0BIXTFbQ0gyXVtOSF1DKD1PKVtDSDJdbjJbY0hdYyhDKEYpKEYpRilbY0hdW2NIXWMyPU8=

> <s_epik_cmdline>
J2VwaWtfcHl0aG9uJywgJy1waCcsICc3LjAnLCAnLXRuJywgJzgnLCAnLW1hJywgJzIwMCcsICctbWV0YWxfYmluZGluZycsICctaW1hZScsICc8aW5maWxlLm1hZT4nLCAnLW9tYWUnLCAnPG91dGZpbGUubWFlPic=

> <r_lp_tautomer_probability>
1

> <r_epik_Ionization_Penalty>
3.67963e-08

> <r_epik_Ionization_Penalty_Charging>
1.809e-08

> <r_epik_Ionization_Penalty_Neutral>
1.87063e-08

> <r_epik_State_Penalty>
-0

> <r_epik_Charging_Adjusted_Penalty>
1.809e-08

> <i_epik_Tot_Q>
0

> <i_epik_Tot_abs_Q>
0

> <r_epik_Metal_State_Penalty>
-0

> <b_epik_Metal_Only>
0

> <s_lp_Force_Field>
OPLS_2005

> <r_lp_Energy>
29.657

> <b_lp_Chiralities_Consistent>
1

> <s_lp_Variant>
AV-unprocessed.smi:1175-2

> <Gold.Version>
5.8.1

> <Gold.Id.Protein>
6NUR|6NUR_protein|mol2

> <Gold.PLP.Fitness>
43.3895

> <Gold.PLP.PLP>
-34.8907

> <Gold.PLP.part.hbond>
-3.9137

> <Gold.PLP.part.metal>
0.0000

> <Gold.PLP.part.buried>
-4.0015

> <Gold.PLP.part.nonpolar>
-27.3054

> <Gold.PLP.part.repulsive>
0.2280

> <Gold.PLP.ligand.clash>
0.0000

> <Gold.PLP.ligand.torsion>
0.7472

> <Gold.PLP.Chemscore.Hbond>
3.3120

> <Gold.PLP.Chemscore.CHOScore>
0.0000

> <Gold.PLP.Chemscore.Metal>
0.0000

> <Gold.Chemscore.Hbonds>
donor molecule, donor type, donor heavy atom, donor atom, acceptor molecule, acceptor atom, score
      P1  H  6896  6907       L1     1  1.00
      P1  H  6931  6943       L1    14  0.70
      P1  H  6934  6947       L1    14  0.14
      P1  H  7989  7998       L1    20  0.93

> <Gold.PLP.Chemscore.Internal.Correction>
0.0573

> <Gold.Rescore>
     Score         DG    S(hbond)    S(metal)    S(lipo)     H(rot)  DE(clash)    DE(int)     intcor
     17.00     -19.08       3.45        0.00      58.50       1.87       0.00       2.08       ----

> <Gold.Chemscore.Fitness>
16.9973

> <Gold.Chemscore.DG>
-19.0757

> <Gold.Chemscore.ZeroCoef>
-5.4800

> <Gold.Chemscore.Hbond>
3.4531

> <Gold.Chemscore.Metal>
0.0000

> <Gold.Chemscore.Lipo>
58.5006

> <Gold.Chemscore.Internal_Hbond>
0.0000

> <Gold.Chemscore.DEClash>
0.0000

> <Gold.Chemscore.DEInternal>
2.0784

> <Gold.Chemscore.Rot>
1.8681

> <Gold.Chemscore.Internal.Correction>
   9.000000E+99

> <Gold.Chemscore.Hbonds>
donor molecule, donor type, donor heavy atom, donor atom, acceptor molecule, acceptor atom, score
      P1  H  6896  6907       L1     1  1.00
      P1  H  6931  6943       L1    14  0.68
      P1  H  6934  6947       L1    14  0.10
      P1  H  7989  7998       L1    20  0.36

> <Gold.Chemscore.Hbond.Weighted>
-11.5333

> <Gold.Chemscore.Metal.Weighted>
-0.0000

> <Gold.Chemscore.Lipo.Weighted>
-6.8446

> <Gold.Chemscore.Internal_Hbond.Weighted>
0.0000

> <Gold.Chemscore.DEClash.Weighted>
0.0000

> <Gold.Chemscore.DEInternal.Weighted>
2.0784

> <Gold.Chemscore.Rot.Weighted>
4.7822

> <Gold.Chemscore.Internal.Correction.Weighted>
   9.000000E+99

> <Gold.Protein.RotatedTorsions>
[ 6907 6896 6895 6894 ] final  -56.06 input  -60.11 | X-H torsion
[ 7974 7965 7964 7962 ] final   97.81 input  175.53 | X-H torsion
[ 8008 7997 7996 7995 ] final  -93.89 input   59.86 | X-H torsion
[ 10167 10162 10161 10158 ] final   71.40 input  -65.29 | X-H torsion
[ 10718 10713 10712 10709 ] final -105.97 input   66.30 | X-H torsion
[ 10763 10752 10751 10750 ] final  110.35 input  -60.55 | X-H torsion
[ 11005 11000 10999 10996 ] final  122.81 input  -57.11 | X-H torsion

> <Gold.Protein.ActiveResidues>
 VAL166  LYS551  ARG553  GLY616  TRP617  ASP618  TYR619  PRO620  LYS621  CYS622 
 ASP623  PHE694  ASN695  SER759  ASP760  ASP761  ALA762  ILE779  LEU786  VAL792 
 PHE793  MET794  SER795  GLU796  ALA797  LYS798  CYS799  TRP800  GLU811  SER814 

> <Gold.Protein.RotatedAtoms>
  150.8199  134.7400  159.6762 H   0  0  0  0  0  0  0  0  0  0  0  0  # atno 6907 bound_to 6896
  152.4315  134.5765  159.9946 H   0  0  0  0  0  0  0  0  0  0  0  0  # atno 6908 bound_to 6896
  151.5952  133.3325  159.3072 H   0  0  0  0  0  0  0  0  0  0  0  0  # atno 6909 bound_to 6896
  145.4205  139.2322  143.3199 H   0  0  0  0  0  0  0  0  0  0  0  0  # atno 7974 bound_to 7965
  154.7414  140.0494  157.0814 H   0  0  0  0  0  0  0  0  0  0  0  0  # atno 8008 bound_to 7997
  155.0173  140.3143  155.4787 H   0  0  0  0  0  0  0  0  0  0  0  0  # atno 8009 bound_to 7997
  156.2865  140.2173  156.5290 H   0  0  0  0  0  0  0  0  0  0  0  0  # atno 8010 bound_to 7997
  140.0466  144.5346  150.7394 H   0  0  0  0  0  0  0  0  0  0  0  0  # atno 10167 bound_to 10162
  156.0369  130.5590  150.7614 H   0  0  0  0  0  0  0  0  0  0  0  0  # atno 10718 bound_to 10713
  153.4478  135.3751  155.2266 H   0  0  0  0  0  0  0  0  0  0  0  0  # atno 10763 bound_to 10752
  154.8755  135.3878  154.4075 H   0  0  0  0  0  0  0  0  0  0  0  0  # atno 10764 bound_to 10752
  153.4630  135.7087  153.6102 H   0  0  0  0  0  0  0  0  0  0  0  0  # atno 10765 bound_to 10752
  139.9285  134.9641  156.8165 H   0  0  0  0  0  0  0  0  0  0  0  0  # atno 11005 bound_to 11000
  146.2659  140.4929  142.8834 LP  0  0  0  0  0  0  0  0  0  0  0  0  # atno 17320 bound_to 7965
  144.8248  140.6611  143.6329 LP  0  0  0  0  0  0  0  0  0  0  0  0  # atno 17321 bound_to 7965
  140.7236  143.2613  151.4196 LP  0  0  0  0  0  0  0  0  0  0  0  0  # atno 17342 bound_to 10162
  139.5980  144.1356  152.2166 LP  0  0  0  0  0  0  0  0  0  0  0  0  # atno 17343 bound_to 10162
  157.5133  131.0927  151.0171 LP  0  0  0  0  0  0  0  0  0  0  0  0  # atno 17370 bound_to 10713
  157.0521  130.5791  149.5372 LP  0  0  0  0  0  0  0  0  0  0  0  0  # atno 17371 bound_to 10713
  140.6269  133.9942  155.7644 LP  0  0  0  0  0  0  0  0  0  0  0  0  # atno 17394 bound_to 11000
  141.0858  133.9993  157.3315 LP  0  0  0  0  0  0  0  0  0  0  0  0  # atno 17395 bound_to 11000

$$$$
