AV-unprocessed.smi:3240|AV-procd|sdf|12383|dock9
  -GOLD-   2272018243D 1   1.00000     0.00000
 Structure written by MMmdl.
 43 44  0  0  0  0  0  0  0  0  1 V2000
  151.0736  145.3448  159.7393 C   0  0  0  0  0  0  0  0  0  0  0  0
  151.8947  144.1577  160.1521 C   0  0  0  0  0  0  0  0  0  0  0  0
  152.2214  143.7375  161.4728 C   0  0  0  0  0  0  0  0  0  0  0  0
  152.9658  142.6441  161.4956 N   0  0  0  0  0  0  0  0  0  0  0  0
  153.1475  142.3315  160.1944 N   0  0  0  0  0  0  0  0  0  0  0  0
  153.9367  141.1655  159.8295 C   0  0  0  0  0  0  0  0  0  0  0  0
  153.1083  140.0369  159.1651 C   0  0  2  0  0  0  0  0  0  0  0  0
  153.5854  138.6372  159.5832 C   0  0  0  0  0  0  0  0  0  0  0  0
  153.0933  140.1251  157.7010 N   0  0  0  0  0  0  0  0  0  0  0  0
  152.3276  139.0865  157.0075 C   0  0  0  0  0  0  0  0  0  0  0  0
  151.5175  139.6490  155.8178 C   0  0  0  0  0  0  0  0  0  0  0  0
  152.4503  140.1601  154.8823 O   0  0  0  0  0  0  0  0  0  0  0  0
  150.7500  138.4956  155.1291 C   0  0  0  0  0  0  0  0  0  0  0  0
  149.8361  138.9744  153.9866 C   0  0  0  0  0  0  0  0  0  0  0  0
  148.8608  140.0561  154.4705 C   0  0  0  0  0  0  0  0  0  0  0  0
  149.6185  141.2339  155.0979 C   0  0  0  0  0  0  0  0  0  0  0  0
  150.5325  140.7675  156.2452 C   0  0  0  0  0  0  0  0  0  0  0  0
  152.5048  143.2246  159.3630 C   0  0  0  0  0  0  0  0  0  0  0  0
  151.3614  146.2427  160.2864 H   0  0  0  0  0  0  0  0  0  0  0  0
  150.0117  145.1816  159.9235 H   0  0  0  0  0  0  0  0  0  0  0  0
  151.1859  145.5668  158.6777 H   0  0  0  0  0  0  0  0  0  0  0  0
  151.9395  144.1922  162.4109 H   0  0  0  0  0  0  0  0  0  0  0  0
  154.7226  141.4853  159.1433 H   0  0  0  0  0  0  0  0  0  0  0  0
  154.4586  140.8096  160.7172 H   0  0  0  0  0  0  0  0  0  0  0  0
  152.0831  140.1388  159.5229 H   0  0  0  0  0  0  0  0  0  0  0  0
  153.6126  138.5403  160.6689 H   0  0  0  0  0  0  0  0  0  0  0  0
  154.5850  138.4209  159.2045 H   0  0  0  0  0  0  0  0  0  0  0  0
  152.9156  137.8658  159.2017 H   0  0  0  0  0  0  0  0  0  0  0  0
  154.0462  140.1263  157.3504 H   0  0  0  0  0  0  0  0  0  0  0  0
  152.9992  138.3029  156.6542 H   0  0  0  0  0  0  0  0  0  0  0  0
  151.6368  138.6089  157.7013 H   0  0  0  0  0  0  0  0  0  0  0  0
  152.9444  139.4367  154.5284 H   0  0  0  0  0  0  0  0  0  0  0  0
  151.4493  137.7488  154.7506 H   0  0  0  0  0  0  0  0  0  0  0  0
  150.1352  137.9822  155.8699 H   0  0  0  0  0  0  0  0  0  0  0  0
  150.4397  139.3648  153.1665 H   0  0  0  0  0  0  0  0  0  0  0  0
  149.2792  138.1292  153.5808 H   0  0  0  0  0  0  0  0  0  0  0  0
  148.2492  140.4065  153.6386 H   0  0  0  0  0  0  0  0  0  0  0  0
  148.1742  139.6297  155.2031 H   0  0  0  0  0  0  0  0  0  0  0  0
  150.2121  141.7365  154.3333 H   0  0  0  0  0  0  0  0  0  0  0  0
  148.9090  141.9738  155.4694 H   0  0  0  0  0  0  0  0  0  0  0  0
  149.9084  140.4012  157.0611 H   0  0  0  0  0  0  0  0  0  0  0  0
  151.0731  141.6278  156.6413 H   0  0  0  0  0  0  0  0  0  0  0  0
  152.5381  143.1253  158.2884 H   0  0  0  0  0  0  0  0  0  0  0  0
  1  2  1  0  0  0  0
  1 19  1  0  0  0  0
  1 20  1  0  0  0  0
  1 21  1  0  0  0  0
  2 18  2  0  0  0  0
  2  3  1  0  0  0  0
  3  4  2  0  0  0  0
  3 22  1  0  0  0  0
  4  5  1  0  0  0  0
  5  6  1  0  0  0  0
  5 18  1  0  0  0  0
  6  7  1  0  0  0  0
  6 23  1  0  0  0  0
  6 24  1  0  0  0  0
  7  8  1  0  0  0  0
  7  9  1  0  0  0  0
  7 25  1  0  0  0  0
  8 26  1  0  0  0  0
  8 27  1  0  0  0  0
  8 28  1  0  0  0  0
  9 10  1  0  0  0  0
  9 29  1  0  0  0  0
 10 11  1  0  0  0  0
 10 30  1  0  0  0  0
 10 31  1  0  0  0  0
 11 17  1  0  0  0  0
 11 12  1  0  0  0  0
 11 13  1  0  0  0  0
 12 32  1  0  0  0  0
 13 14  1  0  0  0  0
 13 33  1  0  0  0  0
 13 34  1  0  0  0  0
 14 15  1  0  0  0  0
 14 35  1  0  0  0  0
 14 36  1  0  0  0  0
 15 16  1  0  0  0  0
 15 37  1  0  0  0  0
 15 38  1  0  0  0  0
 16 17  1  0  0  0  0
 16 39  1  0  0  0  0
 16 40  1  0  0  0  0
 17 41  1  0  0  0  0
 17 42  1  0  0  0  0
 18 43  1  0  0  0  0
M  END
> <s_m_source_file>
AV-unprocessed.smi

> <i_m_source_file_index>
3240

> <i_lp_mmshare_version>
43012

> <i_f3d_flags>
0

> <s_epik_input>
W0NIM11jMVtjSF1ubihbY0hdMSlbQ0gyXVtDQEhdKFtDSDNdKVtOSF1bQ0gyXUMyKFtPSF0pW0NIMl1bQ0gyXVtDSDJdW0NIMl1bQ0gyXTI=

> <s_epik_cmdline>
J2VwaWtfcHl0aG9uJywgJy1waCcsICc3LjAnLCAnLXRuJywgJzgnLCAnLW1hJywgJzIwMCcsICctbWV0YWxfYmluZGluZycsICctaW1hZScsICc8aW5maWxlLm1hZT4nLCAnLW9tYWUnLCAnPG91dGZpbGUubWFlPic=

> <r_lp_tautomer_probability>
1

> <r_epik_Ionization_Penalty>
2.35969

> <r_epik_Ionization_Penalty_Charging>
0

> <r_epik_Ionization_Penalty_Neutral>
2.35969

> <r_epik_State_Penalty>
2.51455

> <r_epik_Charging_Adjusted_Penalty>
2.51455

> <i_epik_Tot_Q>
0

> <i_epik_Tot_abs_Q>
0

> <r_epik_Metal_State_Penalty>
2.51446

> <b_epik_Metal_Only>
0

> <s_lp_Force_Field>
OPLS_2005

> <r_lp_Energy>
22.0798

> <b_lp_Chiralities_Consistent>
1

> <s_lp_Variant>
AV-unprocessed.smi:3240-3

> <Gold.Version>
5.8.1

> <Gold.Id.Protein>
6NUR|6NUR_protein|mol2

> <Gold.PLP.Fitness>
45.5546

> <Gold.PLP.PLP>
-45.3207

> <Gold.PLP.part.hbond>
-2.7246

> <Gold.PLP.part.metal>
0.0000

> <Gold.PLP.part.buried>
-4.0289

> <Gold.PLP.part.nonpolar>
-38.3229

> <Gold.PLP.part.repulsive>
0.0515

> <Gold.PLP.ligand.clash>
0.0000

> <Gold.PLP.ligand.torsion>
0.8156

> <Gold.PLP.Chemscore.Hbond>
0.5952

> <Gold.PLP.Chemscore.CHOScore>
0.0000

> <Gold.PLP.Chemscore.Metal>
0.0000

> <Gold.Chemscore.Hbonds>
donor molecule, donor type, donor heavy atom, donor atom, acceptor molecule, acceptor atom, score
      P1  H  7989  7998       L1    12  0.54

> <Gold.PLP.Chemscore.Internal.Correction>
0.0795

> <Gold.Rescore>
     Score         DG    S(hbond)    S(metal)    S(lipo)     H(rot)  DE(clash)    DE(int)     intcor
     15.47     -16.12       0.83        0.00     112.13       2.04       0.03       0.62       ----

> <Gold.Chemscore.Fitness>
15.4701

> <Gold.Chemscore.DG>
-16.1219

> <Gold.Chemscore.ZeroCoef>
-5.4800

> <Gold.Chemscore.Hbond>
0.8255

> <Gold.Chemscore.Metal>
0.0000

> <Gold.Chemscore.Lipo>
112.1300

> <Gold.Chemscore.Internal_Hbond>
0.0000

> <Gold.Chemscore.DEClash>
0.0310

> <Gold.Chemscore.DEInternal>
0.6208

> <Gold.Chemscore.Rot>
2.0447

> <Gold.Chemscore.Internal.Correction>
   9.000000E+99

> <Gold.Chemscore.Hbonds>
donor molecule, donor type, donor heavy atom, donor atom, acceptor molecule, acceptor atom, score
      P1  H  7989  7998       L1    12  0.21

> <Gold.Chemscore.Hbond.Weighted>
-2.7571

> <Gold.Chemscore.Metal.Weighted>
-0.0000

> <Gold.Chemscore.Lipo.Weighted>
-13.1192

> <Gold.Chemscore.Internal_Hbond.Weighted>
0.0000

> <Gold.Chemscore.DEClash.Weighted>
0.0310

> <Gold.Chemscore.DEInternal.Weighted>
0.6208

> <Gold.Chemscore.Rot.Weighted>
5.2344

> <Gold.Chemscore.Internal.Correction.Weighted>
   9.000000E+99

> <Gold.Protein.RotatedTorsions>
[ 6907 6896 6895 6894 ] final  -42.96 input  -60.11 | X-H torsion
[ 7974 7965 7964 7962 ] final   -8.63 input  175.53 | X-H torsion
[ 8008 7997 7996 7995 ] final  178.14 input   59.86 | X-H torsion
[ 10167 10162 10161 10158 ] final  133.25 input  -65.29 | X-H torsion
[ 10718 10713 10712 10709 ] final   20.75 input   66.30 | X-H torsion
[ 10763 10752 10751 10750 ] final  -81.33 input  -60.55 | X-H torsion
[ 11005 11000 10999 10996 ] final  170.43 input  -57.11 | X-H torsion

> <Gold.Protein.ActiveResidues>
 VAL166  LYS551  ARG553  GLY616  TRP617  ASP618  TYR619  PRO620  LYS621  CYS622 
 ASP623  PHE694  ASN695  SER759  ASP760  ASP761  ALA762  ILE779  LEU786  VAL792 
 PHE793  MET794  SER795  GLU796  ALA797  LYS798  CYS799  TRP800  GLU811  SER814 

> <Gold.Protein.RotatedAtoms>
  150.9494  134.8895  159.7661 H   0  0  0  0  0  0  0  0  0  0  0  0  # atno 6907 bound_to 6896
  152.5113  134.3829  159.9367 H   0  0  0  0  0  0  0  0  0  0  0  0  # atno 6908 bound_to 6896
  151.3845  133.3769  159.2748 H   0  0  0  0  0  0  0  0  0  0  0  0  # atno 6909 bound_to 6896
  146.2275  140.2496  142.8347 H   0  0  0  0  0  0  0  0  0  0  0  0  # atno 7974 bound_to 7965
  156.0579  140.1341  156.9975 H   0  0  0  0  0  0  0  0  0  0  0  0  # atno 8008 bound_to 7997
  154.4467  140.0997  156.6544 H   0  0  0  0  0  0  0  0  0  0  0  0  # atno 8009 bound_to 7997
  155.5423  140.3461  155.4452 H   0  0  0  0  0  0  0  0  0  0  0  0  # atno 8010 bound_to 7997
  139.5305  144.6624  151.4969 H   0  0  0  0  0  0  0  0  0  0  0  0  # atno 10167 bound_to 10162
  157.1289  130.6582  149.5946 H   0  0  0  0  0  0  0  0  0  0  0  0  # atno 10718 bound_to 10713
  154.5623  135.5630  153.7018 H   0  0  0  0  0  0  0  0  0  0  0  0  # atno 10763 bound_to 10752
  153.0022  135.6277  154.2228 H   0  0  0  0  0  0  0  0  0  0  0  0  # atno 10764 bound_to 10752
  154.2166  135.2871  155.2919 H   0  0  0  0  0  0  0  0  0  0  0  0  # atno 10765 bound_to 10752
  140.3082  134.7539  157.3970 H   0  0  0  0  0  0  0  0  0  0  0  0  # atno 11005 bound_to 11000
  144.9421  140.8090  143.5624 LP  0  0  0  0  0  0  0  0  0  0  0  0  # atno 17320 bound_to 7965
  145.2449  139.2056  143.4973 LP  0  0  0  0  0  0  0  0  0  0  0  0  # atno 17321 bound_to 7965
  140.6479  143.8756  150.6756 LP  0  0  0  0  0  0  0  0  0  0  0  0  # atno 17342 bound_to 10162
  140.2112  143.3882  152.1717 LP  0  0  0  0  0  0  0  0  0  0  0  0  # atno 17343 bound_to 10162
  155.9812  130.4818  150.6815 LP  0  0  0  0  0  0  0  0  0  0  0  0  # atno 17370 bound_to 10713
  157.4410  131.0861  151.0943 LP  0  0  0  0  0  0  0  0  0  0  0  0  # atno 17371 bound_to 10713
  140.1048  134.5424  155.8319 LP  0  0  0  0  0  0  0  0  0  0  0  0  # atno 17394 bound_to 11000
  141.2114  133.6706  156.6578 LP  0  0  0  0  0  0  0  0  0  0  0  0  # atno 17395 bound_to 11000

$$$$
