AV-unprocessed.smi:2773|AV-procd|sdf|10679|dock4
  -GOLD-   2272015123D 1   1.00000     0.00000
 Structure written by MMmdl.
 30 31  0  0  0  0  0  0  0  0  1 V2000
  147.6943  138.9591  153.5237 C   0  0  0  0  0  0  0  0  0  0  0  0
  147.9824  140.4089  153.8486 C   0  0  1  0  0  0  0  0  0  0  0  0
  146.8452  141.3761  154.0401 C   0  0  0  0  0  0  0  0  0  0  0  0
  147.6929  140.9705  155.2258 C   0  0  2  0  0  0  0  0  0  0  0  0
  148.5745  141.9698  155.7507 N   0  0  0  0  0  0  0  0  0  0  0  0
  149.4007  141.8738  156.8084 C   0  0  0  0  0  0  0  0  0  0  0  0
  149.4489  140.8462  157.4823 O   0  0  0  0  0  0  0  0  0  0  0  0
  150.1123  142.9906  157.0622 N   0  0  0  0  0  0  0  0  0  0  0  0
  151.0862  143.2048  158.0731 C   0  0  0  0  0  0  0  0  0  0  0  0
  151.2561  144.5510  158.4649 C   0  0  0  0  0  0  0  0  0  0  0  0
  152.2007  144.8681  159.4593 C   0  0  0  0  0  0  0  0  0  0  0  0
  152.9542  143.8308  160.0365 C   0  0  0  0  0  0  0  0  0  0  0  0
  152.7277  142.5114  159.5900 C   0  0  0  0  0  0  0  0  0  0  0  0
  153.5044  141.3317  160.1578 C   0  0  0  0  0  0  0  0  0  0  0  0
  154.7958  141.3875  159.8298 F   0  0  0  0  0  0  0  0  0  0  0  0
  153.4075  141.3266  161.4872 F   0  0  0  0  0  0  0  0  0  0  0  0
  152.9989  140.1923  159.6851 F   0  0  0  0  0  0  0  0  0  0  0  0
  151.8183  142.2120  158.6350 N   0  0  0  0  0  0  0  0  0  0  0  0
  146.8068  138.6113  154.0535 H   0  0  0  0  0  0  0  0  0  0  0  0
  148.5393  138.3356  153.8157 H   0  0  0  0  0  0  0  0  0  0  0  0
  147.5283  138.8416  152.4528 H   0  0  0  0  0  0  0  0  0  0  0  0
  148.8625  140.8022  153.3425 H   0  0  0  0  0  0  0  0  0  0  0  0
  146.9716  142.3807  153.6406 H   0  0  0  0  0  0  0  0  0  0  0  0
  145.8310  140.9839  153.9946 H   0  0  0  0  0  0  0  0  0  0  0  0
  147.1986  140.3063  155.9333 H   0  0  0  0  0  0  0  0  0  0  0  0
  148.5226  142.8747  155.3053 H   0  0  0  0  0  0  0  0  0  0  0  0
  149.9453  143.7733  156.4473 H   0  0  0  0  0  0  0  0  0  0  0  0
  150.6695  145.3367  158.0110 H   0  0  0  0  0  0  0  0  0  0  0  0
  152.3450  145.8914  159.7730 H   0  0  0  0  0  0  0  0  0  0  0  0
  153.6854  144.0509  160.8001 H   0  0  0  0  0  0  0  0  0  0  0  0
  1  2  1  0  0  0  0
  1 19  1  0  0  0  0
  1 20  1  0  0  0  0
  1 21  1  0  0  0  0
  2  4  1  0  0  0  0
  2  3  1  0  0  0  0
  2 22  1  0  0  0  0
  3  4  1  0  0  0  0
  3 23  1  0  0  0  0
  3 24  1  0  0  0  0
  4  5  1  0  0  0  0
  4 25  1  0  0  0  0
  5  6  1  0  0  0  0
  5 26  1  0  0  0  0
  6  7  2  0  0  0  0
  6  8  1  0  0  0  0
  8  9  1  0  0  0  0
  8 27  1  0  0  0  0
  9 18  1  0  0  0  0
  9 10  2  0  0  0  0
 10 11  1  0  0  0  0
 10 28  1  0  0  0  0
 11 12  2  0  0  0  0
 11 29  1  0  0  0  0
 12 13  1  0  0  0  0
 12 30  1  0  0  0  0
 13 14  1  0  0  0  0
 13 18  2  0  0  0  0
 14 15  1  0  0  0  0
 14 16  1  0  0  0  0
 14 17  1  0  0  0  0
M  END
> <s_m_source_file>
AV-unprocessed.smi

> <i_m_source_file_index>
2773

> <i_lp_mmshare_version>
43012

> <i_f3d_flags>
0

> <s_epik_input>
W0NIM11bQ0BASF0xW0NIMl1bQ0BIXTFbTkhdQyg9TylbTkhdYzJbY0hdW2NIXVtjSF1jKG4yKUMoRikoRilG

> <s_epik_cmdline>
J2VwaWtfcHl0aG9uJywgJy1waCcsICc3LjAnLCAnLXRuJywgJzgnLCAnLW1hJywgJzIwMCcsICctbWV0YWxfYmluZGluZycsICctaW1hZScsICc8aW5maWxlLm1hZT4nLCAnLW9tYWUnLCAnPG91dGZpbGUubWFlPic=

> <r_lp_tautomer_probability>
1

> <r_epik_Ionization_Penalty>
4.04275e-05

> <r_epik_Ionization_Penalty_Charging>
0

> <r_epik_Ionization_Penalty_Neutral>
4.04275e-05

> <r_epik_State_Penalty>
-0

> <r_epik_Charging_Adjusted_Penalty>
0

> <i_epik_Tot_Q>
0

> <i_epik_Tot_abs_Q>
0

> <r_epik_Metal_State_Penalty>
-0

> <b_epik_Metal_Only>
0

> <s_lp_Force_Field>
OPLS_2005

> <r_lp_Energy>
31.9266

> <b_lp_Chiralities_Consistent>
1

> <s_lp_Variant>
AV-unprocessed.smi:2773-4

> <Gold.Version>
5.8.1

> <Gold.Id.Protein>
6NUR|6NUR_protein|mol2

> <Gold.PLP.Fitness>
42.9995

> <Gold.PLP.PLP>
-38.0981

> <Gold.PLP.part.hbond>
-1.9534

> <Gold.PLP.part.metal>
0.0000

> <Gold.PLP.part.buried>
-3.4307

> <Gold.PLP.part.nonpolar>
-32.5043

> <Gold.PLP.part.repulsive>
0.1380

> <Gold.PLP.ligand.clash>
0.0000

> <Gold.PLP.ligand.torsion>
0.3027

> <Gold.PLP.Chemscore.Hbond>
1.8240

> <Gold.PLP.Chemscore.CHOScore>
0.0000

> <Gold.PLP.Chemscore.Metal>
0.0000

> <Gold.Chemscore.Hbonds>
donor molecule, donor type, donor heavy atom, donor atom, acceptor molecule, acceptor atom, score
      L1  H     5    26       P1  8028  0.83
      L1  H     8    27       P1  8028  0.99

> <Gold.PLP.Chemscore.Internal.Correction>
0.0350

> <Gold.Rescore>
     Score         DG    S(hbond)    S(metal)    S(lipo)     H(rot)  DE(clash)    DE(int)     intcor
     17.39     -18.72       1.89        0.00      81.23       1.00       0.04       1.29       ----

> <Gold.Chemscore.Fitness>
17.3918

> <Gold.Chemscore.DG>
-18.7209

> <Gold.Chemscore.ZeroCoef>
-5.4800

> <Gold.Chemscore.Hbond>
1.8853

> <Gold.Chemscore.Metal>
0.0000

> <Gold.Chemscore.Lipo>
81.2312

> <Gold.Chemscore.Internal_Hbond>
0.0000

> <Gold.Chemscore.DEClash>
0.0387

> <Gold.Chemscore.DEInternal>
1.2904

> <Gold.Chemscore.Rot>
1.0000

> <Gold.Chemscore.Internal.Correction>
   9.000000E+99

> <Gold.Chemscore.Hbonds>
donor molecule, donor type, donor heavy atom, donor atom, acceptor molecule, acceptor atom, score
      L1  H     5    26       P1  8028  0.83
      L1  H     8    27       P1  8028  0.94

> <Gold.Chemscore.Hbond.Weighted>
-6.2968

> <Gold.Chemscore.Metal.Weighted>
-0.0000

> <Gold.Chemscore.Lipo.Weighted>
-9.5040

> <Gold.Chemscore.Internal_Hbond.Weighted>
0.0000

> <Gold.Chemscore.DEClash.Weighted>
0.0387

> <Gold.Chemscore.DEInternal.Weighted>
1.2904

> <Gold.Chemscore.Rot.Weighted>
2.5600

> <Gold.Chemscore.Internal.Correction.Weighted>
   9.000000E+99

> <Gold.Protein.RotatedTorsions>
[ 6907 6896 6895 6894 ] final  139.05 input  -60.11 | X-H torsion
[ 7974 7965 7964 7962 ] final -164.84 input  175.53 | X-H torsion
[ 8008 7997 7996 7995 ] final  -85.70 input   59.86 | X-H torsion
[ 10167 10162 10161 10158 ] final -146.87 input  -65.29 | X-H torsion
[ 10718 10713 10712 10709 ] final  -81.45 input   66.30 | X-H torsion
[ 10763 10752 10751 10750 ] final  112.94 input  -60.55 | X-H torsion
[ 11005 11000 10999 10996 ] final -110.19 input  -57.11 | X-H torsion

> <Gold.Protein.ActiveResidues>
 VAL166  LYS551  ARG553  GLY616  TRP617  ASP618  TYR619  PRO620  LYS621  CYS622 
 ASP623  PHE694  ASN695  SER759  ASP760  ASP761  ALA762  ILE779  LEU786  VAL792 
 PHE793  MET794  SER795  GLU796  ALA797  LYS798  CYS799  TRP800  GLU811  SER814 

> <Gold.Protein.RotatedAtoms>
  152.2594  133.5284  159.5372 H   0  0  0  0  0  0  0  0  0  0  0  0  # atno 6907 bound_to 6896
  150.7120  134.0850  159.3920 H   0  0  0  0  0  0  0  0  0  0  0  0  # atno 6908 bound_to 6896
  151.8768  135.0469  160.0535 H   0  0  0  0  0  0  0  0  0  0  0  0  # atno 6909 bound_to 6896
  144.7286  140.2901  143.6222 H   0  0  0  0  0  0  0  0  0  0  0  0  # atno 7974 bound_to 7965
  154.6437  140.0588  156.9875 H   0  0  0  0  0  0  0  0  0  0  0  0  # atno 8008 bound_to 7997
  155.1478  140.3271  155.4419 H   0  0  0  0  0  0  0  0  0  0  0  0  # atno 8009 bound_to 7997
  156.2543  140.1953  156.6591 H   0  0  0  0  0  0  0  0  0  0  0  0  # atno 8010 bound_to 7997
  139.7674  143.8288  152.2618 H   0  0  0  0  0  0  0  0  0  0  0  0  # atno 10167 bound_to 10162
  156.0050  130.4604  150.3954 H   0  0  0  0  0  0  0  0  0  0  0  0  # atno 10718 bound_to 10713
  153.4852  135.3671  155.2463 H   0  0  0  0  0  0  0  0  0  0  0  0  # atno 10763 bound_to 10752
  154.8754  135.3964  154.3654 H   0  0  0  0  0  0  0  0  0  0  0  0  # atno 10764 bound_to 10752
  153.4264  135.7081  153.6325 H   0  0  0  0  0  0  0  0  0  0  0  0  # atno 10765 bound_to 10752
  141.0805  133.9227  157.2298 H   0  0  0  0  0  0  0  0  0  0  0  0  # atno 11005 bound_to 11000
  145.7864  139.1910  143.2128 LP  0  0  0  0  0  0  0  0  0  0  0  0  # atno 17320 bound_to 7965
  146.0792  140.7783  142.9650 LP  0  0  0  0  0  0  0  0  0  0  0  0  # atno 17321 bound_to 7965
  139.8312  144.7253  150.9448 LP  0  0  0  0  0  0  0  0  0  0  0  0  # atno 17342 bound_to 10162
  140.7811  143.4068  151.1058 LP  0  0  0  0  0  0  0  0  0  0  0  0  # atno 17343 bound_to 10162
  157.2026  131.0441  151.2642 LP  0  0  0  0  0  0  0  0  0  0  0  0  # atno 17370 bound_to 10713
  157.3962  130.7308  149.6733 LP  0  0  0  0  0  0  0  0  0  0  0  0  # atno 17371 bound_to 10713
  139.9619  135.0152  156.9284 LP  0  0  0  0  0  0  0  0  0  0  0  0  # atno 17394 bound_to 11000
  140.5478  134.0657  155.7360 LP  0  0  0  0  0  0  0  0  0  0  0  0  # atno 17395 bound_to 11000

$$$$
