AV-unprocessed.smi:3215|AV-procd|sdf|12285|dock3
  -GOLD-   2272018123D 1   1.00000     0.00000
 Structure written by MMmdl.
 38 39  0  0  0  0  0  0  0  0  2 V2000
  146.9869  140.2912  153.2114 C   0  0  0  0  0  0  0  0  0  0  0  0
  147.8605  140.8021  154.3209 C   0  0  0  0  0  0  0  0  0  0  0  0
  147.4570  141.3446  155.5740 C   0  0  0  0  0  0  0  0  0  0  0  0
  148.4806  141.7017  156.3323 N   0  0  0  0  0  0  0  0  0  0  0  0
  149.5700  141.3960  155.5962 N   0  0  0  0  0  0  0  0  0  0  0  0
  150.8980  141.6600  156.1226 C   0  0  0  0  0  0  0  0  0  0  0  0
  150.8719  142.1379  157.5846 C   0  0  0  0  0  0  0  0  0  0  0  0
  150.6088  143.5882  157.6727 N   0  3  0  0  0  0  0  0  0  0  0  0
  151.7859  144.3992  158.0440 C   0  0  0  0  0  0  0  0  0  0  0  0
  151.7452  144.8425  159.5135 C   0  0  0  0  0  0  0  0  0  0  0  0
  151.2141  145.9136  159.8122 O   0  0  0  0  0  0  0  0  0  0  0  0
  152.3005  144.0347  160.4400 N   0  0  0  0  0  0  0  0  0  0  0  0
  152.9238  142.7513  160.1219 C   0  0  0  0  0  0  0  0  0  0  0  0
  153.1767  142.0700  161.4666 C   0  0  0  0  0  0  0  0  0  0  0  0
  153.2894  143.2249  162.4518 C   0  0  0  0  0  0  0  0  0  0  0  0
  152.3646  144.2987  161.8772 C   0  0  0  0  0  0  0  0  0  0  0  0
  149.2242  140.8625  154.3726 C   0  0  0  0  0  0  0  0  0  0  0  0
  145.9283  140.3629  153.4625 H   0  0  0  0  0  0  0  0  0  0  0  0
  147.1931  139.2446  152.9866 H   0  0  0  0  0  0  0  0  0  0  0  0
  147.1371  140.8539  152.2901 H   0  0  0  0  0  0  0  0  0  0  0  0
  146.4558  141.4882  155.9526 H   0  0  0  0  0  0  0  0  0  0  0  0
  151.4972  140.7527  156.0329 H   0  0  0  0  0  0  0  0  0  0  0  0
  151.3723  142.4119  155.4908 H   0  0  0  0  0  0  0  0  0  0  0  0
  150.0953  141.6011  158.1305 H   0  0  0  0  0  0  0  0  0  0  0  0
  151.8193  141.9097  158.0752 H   0  0  0  0  0  0  0  0  0  0  0  0
  150.2778  143.9071  156.7729 H   0  0  0  0  0  0  0  0  0  0  0  0
  152.6892  143.8144  157.8664 H   0  0  0  0  0  0  0  0  0  0  0  0
  151.8277  145.2813  157.4037 H   0  0  0  0  0  0  0  0  0  0  0  0
  152.2936  142.1354  159.4782 H   0  0  0  0  0  0  0  0  0  0  0  0
  153.8653  142.9332  159.6016 H   0  0  0  0  0  0  0  0  0  0  0  0
  152.3185  141.4499  161.7292 H   0  0  0  0  0  0  0  0  0  0  0  0
  154.0602  141.4310  161.4584 H   0  0  0  0  0  0  0  0  0  0  0  0
  153.0264  142.9396  163.4708 H   0  0  0  0  0  0  0  0  0  0  0  0
  154.3160  143.5939  162.4623 H   0  0  0  0  0  0  0  0  0  0  0  0
  152.7409  145.2973  162.1028 H   0  0  0  0  0  0  0  0  0  0  0  0
  151.3638  144.2057  162.3018 H   0  0  0  0  0  0  0  0  0  0  0  0
  149.9689  140.5673  153.6475 H   0  0  0  0  0  0  0  0  0  0  0  0
  149.8820  143.7485  158.3556 H   0  0  0  0  0  0  0  0  0  0  0  0
  1  2  1  0  0  0  0
  1 18  1  0  0  0  0
  1 19  1  0  0  0  0
  1 20  1  0  0  0  0
  2 17  2  0  0  0  0
  2  3  1  0  0  0  0
  3  4  2  0  0  0  0
  3 21  1  0  0  0  0
  4  5  1  0  0  0  0
  5  6  1  0  0  0  0
  5 17  1  0  0  0  0
  6  7  1  0  0  0  0
  6 22  1  0  0  0  0
  6 23  1  0  0  0  0
  7  8  1  0  0  0  0
  7 24  1  0  0  0  0
  7 25  1  0  0  0  0
  8  9  1  0  0  0  0
  8 26  1  0  0  0  0
  8 38  1  0  0  0  0
  9 10  1  0  0  0  0
  9 27  1  0  0  0  0
  9 28  1  0  0  0  0
 10 11  2  0  0  0  0
 10 12  1  0  0  0  0
 12 16  1  0  0  0  0
 12 13  1  0  0  0  0
 13 14  1  0  0  0  0
 13 29  1  0  0  0  0
 13 30  1  0  0  0  0
 14 15  1  0  0  0  0
 14 31  1  0  0  0  0
 14 32  1  0  0  0  0
 15 16  1  0  0  0  0
 15 33  1  0  0  0  0
 15 34  1  0  0  0  0
 16 35  1  0  0  0  0
 16 36  1  0  0  0  0
 17 37  1  0  0  0  0
M  CHG  1   8   1
M  END
> <s_m_source_file>
AV-unprocessed.smi

> <i_m_source_file_index>
3215

> <i_lp_mmshare_version>
43012

> <i_f3d_flags>
0

> <s_epik_input>
W0NIM11jMVtjSF1ubihbY0hdMSlbQ0gyXVtDSDJdW05IXVtDSDJdQyg9TylOMltDSDJdW0NIMl1bQ0gyXVtDSDJdMg==

> <s_epik_cmdline>
J2VwaWtfcHl0aG9uJywgJy1waCcsICc3LjAnLCAnLXRuJywgJzgnLCAnLW1hJywgJzIwMCcsICctbWV0YWxfYmluZGluZycsICctaW1hZScsICc8aW5maWxlLm1hZT4nLCAnLW9tYWUnLCAnPG91dGZpbGUubWFlPic=

> <r_lp_tautomer_probability>
1

> <r_epik_Ionization_Penalty>
0.203173

> <r_epik_Ionization_Penalty_Charging>
0.203168

> <r_epik_Ionization_Penalty_Neutral>
4.79177e-06

> <r_epik_State_Penalty>
0.193773

> <r_epik_Charging_Adjusted_Penalty>
0.396942

> <i_epik_Tot_Q>
1

> <i_epik_Tot_abs_Q>
1

> <r_epik_Metal_State_Penalty>
0.194058

> <b_epik_Metal_Only>
0

> <s_lp_Force_Field>
OPLS_2005

> <r_lp_Energy>
25.9096

> <b_lp_Chiralities_Consistent>
1

> <s_lp_Variant>
AV-unprocessed.smi:3215-1

> <Gold.Version>
5.8.1

> <Gold.Id.Protein>
6NUR|6NUR_protein|mol2

> <Gold.PLP.Fitness>
53.0396

> <Gold.PLP.PLP>
-46.3058

> <Gold.PLP.part.hbond>
-1.0000

> <Gold.PLP.part.metal>
0.0000

> <Gold.PLP.part.buried>
-3.2305

> <Gold.PLP.part.nonpolar>
-40.5554

> <Gold.PLP.part.repulsive>
0.6817

> <Gold.PLP.ligand.clash>
0.0000

> <Gold.PLP.ligand.torsion>
1.1692

> <Gold.PLP.Chemscore.Hbond>
2.0000

> <Gold.PLP.Chemscore.CHOScore>
0.9991

> <Gold.PLP.Chemscore.Metal>
0.0000

> <Gold.Chemscore.Hbonds>
donor molecule, donor type, donor heavy atom, donor atom, acceptor molecule, acceptor atom, score
      L1  H     8    26       P1  8028  2.00
      L1  C    17    37       P1  7957  0.88

> <Gold.PLP.Chemscore.Internal.Correction>
0.0749

> <Gold.Rescore>
     Score         DG    S(hbond)    S(metal)    S(lipo)     H(rot)  DE(clash)    DE(int)     intcor
     14.26     -15.64       0.88        0.00     101.37       1.81       0.13       1.25       ----

> <Gold.Chemscore.Fitness>
14.2629

> <Gold.Chemscore.DG>
-15.6428

> <Gold.Chemscore.ZeroCoef>
-5.4800

> <Gold.Chemscore.Hbond>
0.8818

> <Gold.Chemscore.Metal>
0.0000

> <Gold.Chemscore.Lipo>
101.3741

> <Gold.Chemscore.Internal_Hbond>
0.0000

> <Gold.Chemscore.DEClash>
0.1297

> <Gold.Chemscore.DEInternal>
1.2502

> <Gold.Chemscore.Rot>
1.8137

> <Gold.Chemscore.Internal.Correction>
   9.000000E+99

> <Gold.Chemscore.Hbonds>
donor molecule, donor type, donor heavy atom, donor atom, acceptor molecule, acceptor atom, score
      L1  H     8    26       P1  8028  0.94

> <Gold.Chemscore.Hbond.Weighted>
-2.9451

> <Gold.Chemscore.Metal.Weighted>
-0.0000

> <Gold.Chemscore.Lipo.Weighted>
-11.8608

> <Gold.Chemscore.Internal_Hbond.Weighted>
0.0000

> <Gold.Chemscore.DEClash.Weighted>
0.1297

> <Gold.Chemscore.DEInternal.Weighted>
1.2502

> <Gold.Chemscore.Rot.Weighted>
4.6431

> <Gold.Chemscore.Internal.Correction.Weighted>
   9.000000E+99

> <Gold.Protein.RotatedTorsions>
[ 6907 6896 6895 6894 ] final  163.96 input  -60.11 | X-H torsion
[ 7974 7965 7964 7962 ] final   77.83 input  175.53 | X-H torsion
[ 8008 7997 7996 7995 ] final  -43.07 input   59.86 | X-H torsion
[ 10167 10162 10161 10158 ] final   87.40 input  -65.29 | X-H torsion
[ 10718 10713 10712 10709 ] final  152.76 input   66.30 | X-H torsion
[ 10763 10752 10751 10750 ] final    0.86 input  -60.55 | X-H torsion
[ 11005 11000 10999 10996 ] final   98.60 input  -57.11 | X-H torsion

> <Gold.Protein.ActiveResidues>
 VAL166  LYS551  ARG553  GLY616  TRP617  ASP618  TYR619  PRO620  LYS621  CYS622 
 ASP623  PHE694  ASN695  SER759  ASP760  ASP761  ALA762  ILE779  LEU786  VAL792 
 PHE793  MET794  SER795  GLU796  ALA797  LYS798  CYS799  TRP800  GLU811  SER814 

> <Gold.Protein.RotatedAtoms>
  151.9173  133.3576  159.3884 H   0  0  0  0  0  0  0  0  0  0  0  0  # atno 6907 bound_to 6896
  150.7045  134.4671  159.5417 H   0  0  0  0  0  0  0  0  0  0  0  0  # atno 6908 bound_to 6896
  152.2288  134.8342  160.0527 H   0  0  0  0  0  0  0  0  0  0  0  0  # atno 6909 bound_to 6896
  145.6850  139.2535  143.1792 H   0  0  0  0  0  0  0  0  0  0  0  0  # atno 7974 bound_to 7965
  154.3997  140.1457  156.3459 H   0  0  0  0  0  0  0  0  0  0  0  0  # atno 8008 bound_to 7997
  155.8314  140.3465  155.5553 H   0  0  0  0  0  0  0  0  0  0  0  0  # atno 8009 bound_to 7997
  155.8184  140.0894  157.1853 H   0  0  0  0  0  0  0  0  0  0  0  0  # atno 8010 bound_to 7997
  139.8778  144.6457  150.8877 H   0  0  0  0  0  0  0  0  0  0  0  0  # atno 10167 bound_to 10162
  157.2536  131.0784  151.1713 H   0  0  0  0  0  0  0  0  0  0  0  0  # atno 10718 bound_to 10713
  153.3154  135.6965  153.7078 H   0  0  0  0  0  0  0  0  0  0  0  0  # atno 10763 bound_to 10752
  153.5939  135.3474  155.2921 H   0  0  0  0  0  0  0  0  0  0  0  0  # atno 10764 bound_to 10752
  154.8585  135.4324  154.2303 H   0  0  0  0  0  0  0  0  0  0  0  0  # atno 10765 bound_to 10752
  139.8772  134.9057  156.4481 H   0  0  0  0  0  0  0  0  0  0  0  0  # atno 11005 bound_to 11000
  146.0931  140.7632  142.9585 LP  0  0  0  0  0  0  0  0  0  0  0  0  # atno 17320 bound_to 7965
  144.7014  140.3669  143.7153 LP  0  0  0  0  0  0  0  0  0  0  0  0  # atno 17321 bound_to 7965
  140.7750  143.3610  151.1827 LP  0  0  0  0  0  0  0  0  0  0  0  0  # atno 17342 bound_to 10162
  139.7224  143.9202  152.2990 LP  0  0  0  0  0  0  0  0  0  0  0  0  # atno 17343 bound_to 10162
  157.3251  130.6957  149.6292 LP  0  0  0  0  0  0  0  0  0  0  0  0  # atno 17370 bound_to 10713
  155.9665  130.4324  150.4961 LP  0  0  0  0  0  0  0  0  0  0  0  0  # atno 17371 bound_to 10713
  140.8952  133.7819  155.9617 LP  0  0  0  0  0  0  0  0  0  0  0  0  # atno 17394 bound_to 11000
  140.8711  134.2725  157.5190 LP  0  0  0  0  0  0  0  0  0  0  0  0  # atno 17395 bound_to 11000

$$$$
