AV-unprocessed.smi:1522|AV-procd|sdf|6137|dock6
  -GOLD-   22720 6283D 1   1.00000     0.00000
 Structure written by MMmdl.
 34 35  0  0  0  0  0  0  0  0  3 V2000
  147.2300  138.9543  153.1978 C   0  0  0  0  0  0  0  0  0  0  0  0
  147.6682  138.0642  154.3834 C   0  0  1  0  0  0  0  0  0  0  0  0
  146.7175  136.8538  154.5407 C   0  0  0  0  0  0  0  0  0  0  0  0
  146.8260  135.9321  153.4167 N   0  0  0  0  0  0  0  0  0  0  0  0
  146.0570  134.8529  153.2262 C   0  0  0  0  0  0  0  0  0  0  0  0
  145.1723  134.5788  154.0402 O   0  0  0  0  0  0  0  0  0  0  0  0
  146.3633  134.1601  152.1067 N   0  5  0  0  0  0  0  0  0  0  0  0
  145.4240  133.4175  151.4980 C   0  0  0  0  0  0  0  0  0  0  0  0
  145.7302  132.4713  150.5959 N   0  0  0  0  0  0  0  0  0  0  0  0
  144.6145  131.8167  150.0916 N   0  0  0  0  0  0  0  0  0  0  0  0
  143.4904  132.2834  150.6348 C   0  0  0  0  0  0  0  0  0  0  0  0
  143.6926  133.5614  151.8143 S   0  0  0  0  0  0  0  0  0  0  0  0
  149.0797  137.6095  154.2227 N   0  3  0  0  0  0  0  0  0  0  0  0
  150.0918  138.6837  154.1187 C   0  0  0  0  0  0  0  0  0  0  0  0
  151.4174  138.0135  154.4597 C   0  0  0  0  0  0  0  0  0  0  0  0
  151.0308  137.0286  155.5567 C   0  0  0  0  0  0  0  0  0  0  0  0
  149.5670  136.6697  155.2650 C   0  0  0  0  0  0  0  0  0  0  0  0
  146.1971  139.2867  153.3015 H   0  0  0  0  0  0  0  0  0  0  0  0
  147.3082  138.4175  152.2517 H   0  0  0  0  0  0  0  0  0  0  0  0
  147.8319  139.8592  153.1199 H   0  0  0  0  0  0  0  0  0  0  0  0
  147.6145  138.6645  155.2933 H   0  0  0  0  0  0  0  0  0  0  0  0
  146.9432  136.3188  155.4647 H   0  0  0  0  0  0  0  0  0  0  0  0
  145.6777  137.1754  154.6062 H   0  0  0  0  0  0  0  0  0  0  0  0
  147.5393  136.1229  152.7283 H   0  0  0  0  0  0  0  0  0  0  0  0
  142.5370  131.8696  150.3426 H   0  0  0  0  0  0  0  0  0  0  0  0
  150.1090  139.1368  153.1270 H   0  0  0  0  0  0  0  0  0  0  0  0
  149.8762  139.4655  154.8494 H   0  0  0  0  0  0  0  0  0  0  0  0
  151.7941  137.4733  153.5900 H   0  0  0  0  0  0  0  0  0  0  0  0
  152.1837  138.7221  154.7756 H   0  0  0  0  0  0  0  0  0  0  0  0
  151.6816  136.1539  155.5793 H   0  0  0  0  0  0  0  0  0  0  0  0
  151.1009  137.5175  156.5294 H   0  0  0  0  0  0  0  0  0  0  0  0
  148.9832  136.7465  156.1834 H   0  0  0  0  0  0  0  0  0  0  0  0
  149.4745  135.6476  154.8964 H   0  0  0  0  0  0  0  0  0  0  0  0
  149.1269  137.1028  153.3502 H   0  0  0  0  0  0  0  0  0  0  0  0
  1  2  1  0  0  0  0
  1 18  1  0  0  0  0
  1 19  1  0  0  0  0
  1 20  1  0  0  0  0
  2  3  1  0  0  0  0
  2 13  1  0  0  0  0
  2 21  1  0  0  0  0
  3  4  1  0  0  0  0
  3 22  1  0  0  0  0
  3 23  1  0  0  0  0
  4  5  1  0  0  0  0
  4 24  1  0  0  0  0
  5  6  2  0  0  0  0
  5  7  1  0  0  0  0
  7  8  1  0  0  0  0
  8 12  1  0  0  0  0
  8  9  2  0  0  0  0
  9 10  1  0  0  0  0
 10 11  2  0  0  0  0
 11 12  1  0  0  0  0
 11 25  1  0  0  0  0
 13 17  1  0  0  0  0
 13 14  1  0  0  0  0
 13 34  1  0  0  0  0
 14 15  1  0  0  0  0
 14 26  1  0  0  0  0
 14 27  1  0  0  0  0
 15 16  1  0  0  0  0
 15 28  1  0  0  0  0
 15 29  1  0  0  0  0
 16 17  1  0  0  0  0
 16 30  1  0  0  0  0
 16 31  1  0  0  0  0
 17 32  1  0  0  0  0
 17 33  1  0  0  0  0
M  CHG  1   7  -1
M  CHG  1  13   1
M  END
> <s_m_source_file>
AV-unprocessed.smi

> <i_m_source_file_index>
1522

> <i_lp_mmshare_version>
43012

> <i_f3d_flags>
0

> <s_epik_input>
W0NIMl0xW0NIMl1bQ0gyXVtDSDJdTjFbQ0BIXShbQ0gzXSlbQ0gyXVtOSF1DKD1PKVtOSF1jMm5uW2NIXXMy

> <s_epik_cmdline>
J2VwaWtfcHl0aG9uJywgJy1waCcsICc3LjAnLCAnLXRuJywgJzgnLCAnLW1hJywgJzIwMCcsICctbWV0YWxfYmluZGluZycsICctaW1hZScsICc8aW5maWxlLm1hZT4nLCAnLW9tYWUnLCAnPG91dGZpbGUubWFlPic=

> <r_lp_tautomer_probability>
1

> <r_epik_Ionization_Penalty>
3.04208

> <r_epik_Ionization_Penalty_Charging>
3.00964

> <r_epik_Ionization_Penalty_Neutral>
0.0324455

> <r_epik_State_Penalty>
3.0051

> <r_epik_Charging_Adjusted_Penalty>
6.01474

> <i_epik_Tot_Q>
0

> <i_epik_Tot_abs_Q>
2

> <r_epik_Metal_State_Penalty>
0.454155

> <b_epik_Metal_Only>
1

> <s_lp_Force_Field>
OPLS_2005

> <r_lp_Energy>
23.3187

> <b_lp_Chiralities_Consistent>
1

> <s_lp_Variant>
AV-unprocessed.smi:1522-4

> <Gold.Version>
5.8.1

> <Gold.Id.Protein>
6NUR|6NUR_protein|mol2

> <Gold.PLP.Fitness>
36.2498

> <Gold.PLP.PLP>
-24.6698

> <Gold.PLP.part.hbond>
-2.1509

> <Gold.PLP.part.metal>
0.0000

> <Gold.PLP.part.buried>
-5.4687

> <Gold.PLP.part.nonpolar>
-18.0920

> <Gold.PLP.part.repulsive>
0.5226

> <Gold.PLP.ligand.clash>
0.0000

> <Gold.PLP.ligand.torsion>
0.2531

> <Gold.PLP.Chemscore.Hbond>
3.0000

> <Gold.PLP.Chemscore.CHOScore>
1.0000

> <Gold.PLP.Chemscore.Metal>
0.0000

> <Gold.Chemscore.Hbonds>
donor molecule, donor type, donor heavy atom, donor atom, acceptor molecule, acceptor atom, score
      L1  H     4    24       P1  7948  1.00
      L1  H    13    34       P1  7948  2.00
      L1  C    11    25       P1 10952  1.00

> <Gold.PLP.Chemscore.Internal.Correction>
0.0861

> <Gold.Rescore>
     Score         DG    S(hbond)    S(metal)    S(lipo)     H(rot)  DE(clash)    DE(int)     intcor
     13.49     -13.94       1.98        0.00      52.50       1.68       0.00       0.45       ----

> <Gold.Chemscore.Fitness>
13.4866

> <Gold.Chemscore.DG>
-13.9401

> <Gold.Chemscore.ZeroCoef>
-5.4800

> <Gold.Chemscore.Hbond>
1.9788

> <Gold.Chemscore.Metal>
0.0000

> <Gold.Chemscore.Lipo>
52.4960

> <Gold.Chemscore.Internal_Hbond>
0.0000

> <Gold.Chemscore.DEClash>
0.0013

> <Gold.Chemscore.DEInternal>
0.4521

> <Gold.Chemscore.Rot>
1.6762

> <Gold.Chemscore.Internal.Correction>
   9.000000E+99

> <Gold.Chemscore.Hbonds>
donor molecule, donor type, donor heavy atom, donor atom, acceptor molecule, acceptor atom, score
      L1  H     4    24       P1  7948  1.00
      L1  H    13    34       P1  7948  1.00

> <Gold.Chemscore.Hbond.Weighted>
-6.6090

> <Gold.Chemscore.Metal.Weighted>
-0.0000

> <Gold.Chemscore.Lipo.Weighted>
-6.1420

> <Gold.Chemscore.Internal_Hbond.Weighted>
0.0000

> <Gold.Chemscore.DEClash.Weighted>
0.0013

> <Gold.Chemscore.DEInternal.Weighted>
0.4521

> <Gold.Chemscore.Rot.Weighted>
4.2910

> <Gold.Chemscore.Internal.Correction.Weighted>
   9.000000E+99

> <Gold.Protein.RotatedTorsions>
[ 6907 6896 6895 6894 ] final  100.62 input  -60.11 | X-H torsion
[ 7974 7965 7964 7962 ] final -139.71 input  175.53 | X-H torsion
[ 8008 7997 7996 7995 ] final   59.98 input   59.86 | X-H torsion
[ 10167 10162 10161 10158 ] final  159.32 input  -65.29 | X-H torsion
[ 10718 10713 10712 10709 ] final   89.98 input   66.30 | X-H torsion
[ 10763 10752 10751 10750 ] final  136.52 input  -60.55 | X-H torsion
[ 11005 11000 10999 10996 ] final -115.01 input  -57.11 | X-H torsion

> <Gold.Protein.ActiveResidues>
 VAL166  LYS551  ARG553  GLY616  TRP617  ASP618  TYR619  PRO620  LYS621  CYS622 
 ASP623  PHE694  ASN695  SER759  ASP760  ASP761  ALA762  ILE779  LEU786  VAL792 
 PHE793  MET794  SER795  GLU796  ALA797  LYS798  CYS799  TRP800  GLU811  SER814 

> <Gold.Protein.RotatedAtoms>
  152.5368  134.0250  159.7998 H   0  0  0  0  0  0  0  0  0  0  0  0  # atno 6907 bound_to 6896
  151.0430  133.5682  159.2656 H   0  0  0  0  0  0  0  0  0  0  0  0  # atno 6908 bound_to 6896
  151.2644  135.0672  159.9164 H   0  0  0  0  0  0  0  0  0  0  0  0  # atno 6909 bound_to 6896
  144.8655  140.6286  143.5301 H   0  0  0  0  0  0  0  0  0  0  0  0  # atno 7974 bound_to 7965
  155.5750  140.3490  155.4525 H   0  0  0  0  0  0  0  0  0  0  0  0  # atno 8008 bound_to 7997
  156.0416  140.1297  157.0175 H   0  0  0  0  0  0  0  0  0  0  0  0  # atno 8009 bound_to 7997
  154.4394  140.1023  156.6230 H   0  0  0  0  0  0  0  0  0  0  0  0  # atno 8010 bound_to 7997
  139.4832  144.4741  151.8535 H   0  0  0  0  0  0  0  0  0  0  0  0  # atno 10167 bound_to 10162
  157.6957  131.0353  150.3508 H   0  0  0  0  0  0  0  0  0  0  0  0  # atno 10718 bound_to 10713
  153.8579  135.3071  155.3436 H   0  0  0  0  0  0  0  0  0  0  0  0  # atno 10763 bound_to 10752
  154.7862  135.4808  153.9954 H   0  0  0  0  0  0  0  0  0  0  0  0  # atno 10764 bound_to 10752
  153.1479  135.6837  153.9020 H   0  0  0  0  0  0  0  0  0  0  0  0  # atno 10765 bound_to 10752
  141.0515  133.9680  157.2828 H   0  0  0  0  0  0  0  0  0  0  0  0  # atno 11005 bound_to 11000
  145.4231  139.1561  143.4063 LP  0  0  0  0  0  0  0  0  0  0  0  0  # atno 17320 bound_to 7965
  146.2892  140.4342  142.8746 LP  0  0  0  0  0  0  0  0  0  0  0  0  # atno 17321 bound_to 7965
  140.4212  144.2240  150.5887 LP  0  0  0  0  0  0  0  0  0  0  0  0  # atno 17342 bound_to 10162
  140.4872  143.2359  151.8871 LP  0  0  0  0  0  0  0  0  0  0  0  0  # atno 17343 bound_to 10162
  156.3956  130.3906  149.6997 LP  0  0  0  0  0  0  0  0  0  0  0  0  # atno 17370 bound_to 10713
  156.4332  130.7825  151.2845 LP  0  0  0  0  0  0  0  0  0  0  0  0  # atno 17371 bound_to 10713
  139.9354  135.0197  156.8539 LP  0  0  0  0  0  0  0  0  0  0  0  0  # atno 17394 bound_to 11000
  140.6046  134.0139  155.7551 LP  0  0  0  0  0  0  0  0  0  0  0  0  # atno 17395 bound_to 11000

$$$$
