AV-unprocessed.smi:38|AV-procd|sdf|341|dock5
  -GOLD-   2262016173D 1   1.00000     0.00000
 Structure written by MMmdl.
 28 29  0  0  0  0  0  0  0  0  1 V2000
  151.1924  145.3734  158.6780 O   0  0  0  0  0  0  0  0  0  0  0  0
  151.3559  144.1782  158.4410 C   0  0  0  0  0  0  0  0  0  0  0  0
  150.7488  143.5936  157.3253 N   0  0  0  0  0  0  0  0  0  0  0  0
  150.8580  142.2531  156.9507 C   0  0  0  0  0  0  0  0  0  0  0  0
  150.2911  141.8534  155.9347 O   0  0  0  0  0  0  0  0  0  0  0  0
  151.6407  141.4154  157.7762 N   0  0  0  0  0  0  0  0  0  0  0  0
  151.7944  139.9532  157.4254 C   0  0  1  0  0  0  0  0  0  0  0  0
  150.4313  139.2646  157.3456 C   0  0  0  0  0  0  0  0  0  0  0  0
  150.6354  138.3372  156.1660 C   0  0  1  0  0  0  0  0  0  0  0  0
  149.4011  138.0125  155.5598 O   0  0  0  0  0  0  0  0  0  0  0  0
  151.5328  139.1773  155.2533 C   0  0  2  0  0  0  0  0  0  0  0  0
  152.3643  138.3380  154.2713 C   0  0  0  0  0  0  0  0  0  0  0  0
  151.6199  137.2193  153.8392 O   0  0  0  0  0  0  0  0  0  0  0  0
  152.3986  139.8477  156.1696 O   0  0  0  0  0  0  0  0  0  0  0  0
  152.2714  141.9554  158.8892 C   0  0  0  0  0  0  0  0  0  0  0  0
  152.1611  143.2587  159.2395 C   0  0  0  0  0  0  0  0  0  0  0  0
  152.8032  143.7100  160.3304 F   0  0  0  0  0  0  0  0  0  0  0  0
  150.1864  144.1932  156.7393 H   0  0  0  0  0  0  0  0  0  0  0  0
  152.4690  139.4968  158.1513 H   0  0  0  0  0  0  0  0  0  0  0  0
  151.1503  137.4302  156.4868 H   0  0  0  0  0  0  0  0  0  0  0  0
  150.9254  139.9142  154.7244 H   0  0  0  0  0  0  0  0  0  0  0  0
  150.1886  138.7528  158.2772 H   0  0  0  0  0  0  0  0  0  0  0  0
  149.6558  140.0024  157.1305 H   0  0  0  0  0  0  0  0  0  0  0  0
  149.0767  138.7764  155.1077 H   0  0  0  0  0  0  0  0  0  0  0  0
  152.6896  138.9325  153.4169 H   0  0  0  0  0  0  0  0  0  0  0  0
  153.2605  137.9619  154.7654 H   0  0  0  0  0  0  0  0  0  0  0  0
  151.3437  137.3680  152.9479 H   0  0  0  0  0  0  0  0  0  0  0  0
  152.8848  141.3202  159.5100 H   0  0  0  0  0  0  0  0  0  0  0  0
  1  2  2  0  0  0  0
  2 16  1  0  0  0  0
  2  3  1  0  0  0  0
  3 18  1  0  0  0  0
  3  4  1  0  0  0  0
  4  5  2  0  0  0  0
  4  6  1  0  0  0  0
  6  7  1  0  0  0  0
  6 15  1  0  0  0  0
  7 19  1  0  0  0  0
  7 14  1  0  0  0  0
  7  8  1  0  0  0  0
  8  9  1  0  0  0  0
  8 22  1  0  0  0  0
  8 23  1  0  0  0  0
  9 20  1  0  0  0  0
  9 10  1  0  0  0  0
  9 11  1  0  0  0  0
 10 24  1  0  0  0  0
 11 21  1  0  0  0  0
 11 12  1  0  0  0  0
 11 14  1  0  0  0  0
 12 13  1  0  0  0  0
 12 25  1  0  0  0  0
 12 26  1  0  0  0  0
 13 27  1  0  0  0  0
 15 16  2  0  0  0  0
 15 28  1  0  0  0  0
 16 17  1  0  0  0  0
M  END
> <s_m_source_file>
AV-unprocessed.smi

> <i_m_source_file_index>
38

> <i_lp_mmshare_version>
43012

> <i_f3d_flags>
0

> <s_epik_input>
Tz1jMVtuSF1jKD1PKW4oW2NIXWMxRilbQ0BIXTJbQ0gyXVtDQEhdKFtPSF0pW0NASF0oTzIpW0NIMl1bT0hd

> <s_epik_cmdline>
J2VwaWtfcHl0aG9uJywgJy1waCcsICc3LjAnLCAnLXRuJywgJzgnLCAnLW1hJywgJzIwMCcsICctbWV0YWxfYmluZGluZycsICctaW1hZScsICc8aW5maWxlLm1hZT4nLCAnLW9tYWUnLCAnPG91dGZpbGUubWFlPic=

> <r_lp_tautomer_probability>
0.999537

> <r_epik_Ionization_Penalty>
0.0357432

> <r_epik_Ionization_Penalty_Charging>
0.0357431

> <r_epik_Ionization_Penalty_Neutral>
1.19946e-07

> <r_epik_State_Penalty>
0.0298169

> <r_epik_Charging_Adjusted_Penalty>
0.06556

> <i_epik_Tot_Q>
0

> <i_epik_Tot_abs_Q>
0

> <r_epik_Metal_State_Penalty>
2.348

> <b_epik_Metal_Only>
0

> <s_epik_Chemistry_Notes>
This compound contains an acetal/aminal-like group ( X-CH(R)-Y where X, Y are N, S, or O) that may be acid/base labile, releasing an aldehyde.

> <s_lp_Force_Field>
OPLS_2005

> <r_lp_Energy>
27.15

> <b_lp_Chiralities_Consistent>
1

> <s_lp_Variant>
AV-unprocessed.smi:38-7

> <Gold.Version>
5.8.1

> <Gold.Id.Protein>
6NUR|6NUR_protein|mol2

> <Gold.PLP.Fitness>
42.6269

> <Gold.PLP.PLP>
-32.2596

> <Gold.PLP.part.hbond>
-4.6090

> <Gold.PLP.part.metal>
0.0000

> <Gold.PLP.part.buried>
-5.4007

> <Gold.PLP.part.nonpolar>
-21.9616

> <Gold.PLP.part.repulsive>
0.2354

> <Gold.PLP.ligand.clash>
0.0000

> <Gold.PLP.ligand.torsion>
0.3204

> <Gold.PLP.Chemscore.Hbond>
3.6661

> <Gold.PLP.Chemscore.CHOScore>
0.0000

> <Gold.PLP.Chemscore.Metal>
0.0000

> <Gold.Chemscore.Hbonds>
donor molecule, donor type, donor heavy atom, donor atom, acceptor molecule, acceptor atom, score
      L1  H     3    18       P1  8028  1.00
      L1  H    13    27       P1  7949  0.54
      P1  H  7997  8008       L1    14  1.00
      P1  H 10752 10765       L1    13  0.83

> <Gold.PLP.Chemscore.Internal.Correction>
0.0097

> <Gold.Rescore>
     Score         DG    S(hbond)    S(metal)    S(lipo)     H(rot)  DE(clash)    DE(int)     intcor
      9.97     -12.41       2.69        0.00      46.26       2.91       0.03       2.41       ----

> <Gold.Chemscore.Fitness>
9.9708

> <Gold.Chemscore.DG>
-12.4103

> <Gold.Chemscore.ZeroCoef>
-5.4800

> <Gold.Chemscore.Hbond>
2.6879

> <Gold.Chemscore.Metal>
0.0000

> <Gold.Chemscore.Lipo>
46.2649

> <Gold.Chemscore.Internal_Hbond>
0.0000

> <Gold.Chemscore.DEClash>
0.0294

> <Gold.Chemscore.DEInternal>
2.4102

> <Gold.Chemscore.Rot>
2.9141

> <Gold.Chemscore.Internal.Correction>
   9.000000E+99

> <Gold.Chemscore.Hbonds>
donor molecule, donor type, donor heavy atom, donor atom, acceptor molecule, acceptor atom, score
      L1  H     3    18       P1  8028  0.98
      L1  H    13    27       P1  7949  0.38
      P1  H  7997  8008       L1    14  0.42
      P1  H 10752 10765       L1    13  0.15

> <Gold.Chemscore.Hbond.Weighted>
-8.9774

> <Gold.Chemscore.Metal.Weighted>
-0.0000

> <Gold.Chemscore.Lipo.Weighted>
-5.4130

> <Gold.Chemscore.Internal_Hbond.Weighted>
0.0000

> <Gold.Chemscore.DEClash.Weighted>
0.0294

> <Gold.Chemscore.DEInternal.Weighted>
2.4102

> <Gold.Chemscore.Rot.Weighted>
7.4601

> <Gold.Chemscore.Internal.Correction.Weighted>
   9.000000E+99

> <Gold.Protein.RotatedTorsions>
[ 6907 6896 6895 6894 ] final  176.43 input  -60.11 | X-H torsion
[ 7974 7965 7964 7962 ] final   33.66 input  175.53 | X-H torsion
[ 8008 7997 7996 7995 ] final  -55.24 input   59.86 | X-H torsion
[ 10167 10162 10161 10158 ] final   17.23 input  -65.29 | X-H torsion
[ 10718 10713 10712 10709 ] final  -40.29 input   66.30 | X-H torsion
[ 10763 10752 10751 10750 ] final  136.21 input  -60.55 | X-H torsion
[ 11005 11000 10999 10996 ] final  110.06 input  -57.11 | X-H torsion

> <Gold.Protein.ActiveResidues>
 VAL166  LYS551  ARG553  GLY616  TRP617  ASP618  TYR619  PRO620  LYS621  CYS622 
 ASP623  PHE694  ASN695  SER759  ASP760  ASP761  ALA762  ILE779  LEU786  VAL792 
 PHE793  MET794  SER795  GLU796  ALA797  LYS798  CYS799  TRP800  GLU811  SER814 

> <Gold.Protein.RotatedAtoms>
  151.7202  133.3314  159.3313 H   0  0  0  0  0  0  0  0  0  0  0  0  # atno 6907 bound_to 6896
  150.7656  134.6454  159.6269 H   0  0  0  0  0  0  0  0  0  0  0  0  # atno 6908 bound_to 6896
  152.3656  134.6811  160.0244 H   0  0  0  0  0  0  0  0  0  0  0  0  # atno 6909 bound_to 6896
  146.1405  139.6368  142.9166 H   0  0  0  0  0  0  0  0  0  0  0  0  # atno 7974 bound_to 7965
  154.4188  140.1157  156.5445 H   0  0  0  0  0  0  0  0  0  0  0  0  # atno 8008 bound_to 7997
  155.6473  140.3496  155.4717 H   0  0  0  0  0  0  0  0  0  0  0  0  # atno 8009 bound_to 7997
  155.9821  140.1162  157.0706 H   0  0  0  0  0  0  0  0  0  0  0  0  # atno 8010 bound_to 7997
  140.5741  143.9107  150.6736 H   0  0  0  0  0  0  0  0  0  0  0  0  # atno 10167 bound_to 10162
  156.2829  130.4219  149.8318 H   0  0  0  0  0  0  0  0  0  0  0  0  # atno 10718 bound_to 10713
  153.8527  135.3077  155.3433 H   0  0  0  0  0  0  0  0  0  0  0  0  # atno 10763 bound_to 10752
  154.7884  135.4797  154.0000 H   0  0  0  0  0  0  0  0  0  0  0  0  # atno 10764 bound_to 10752
  153.1508  135.6843  153.8978 H   0  0  0  0  0  0  0  0  0  0  0  0  # atno 10765 bound_to 10752
  139.8874  134.9474  156.6222 H   0  0  0  0  0  0  0  0  0  0  0  0  # atno 11005 bound_to 11000
  145.5057  141.0436  143.2516 LP  0  0  0  0  0  0  0  0  0  0  0  0  # atno 17320 bound_to 7965
  144.7787  139.6572  143.7163 LP  0  0  0  0  0  0  0  0  0  0  0  0  # atno 17321 bound_to 7965
  140.2589  143.3538  152.1340 LP  0  0  0  0  0  0  0  0  0  0  0  0  # atno 17342 bound_to 10162
  139.5133  144.6930  151.5708 LP  0  0  0  0  0  0  0  0  0  0  0  0  # atno 17343 bound_to 10162
  156.5758  130.8444  151.3369 LP  0  0  0  0  0  0  0  0  0  0  0  0  # atno 17370 bound_to 10713
  157.7320  130.9708  150.1906 LP  0  0  0  0  0  0  0  0  0  0  0  0  # atno 17371 bound_to 10713
  140.7731  133.8722  155.8507 LP  0  0  0  0  0  0  0  0  0  0  0  0  # atno 17394 bound_to 11000
  140.9825  134.1386  157.4481 LP  0  0  0  0  0  0  0  0  0  0  0  0  # atno 17395 bound_to 11000

$$$$
