AV-unprocessed.smi:114|AV-procd|sdf|1118|dock2
  -GOLD-   2262018243D 1   1.00000     0.00000
 Structure written by MMmdl.
 32 34  0  0  0  0  0  0  0  0  1 V2000
  143.4432  145.3508  155.3611 N   0  0  0  0  0  0  0  0  0  0  0  0
  144.2803  144.7773  154.4850 C   0  0  0  0  0  0  0  0  0  0  0  0
  144.3878  145.3171  153.2486 N   0  0  0  0  0  0  0  0  0  0  0  0
  145.2122  144.7750  152.3438 C   0  0  0  0  0  0  0  0  0  0  0  0
  145.2585  145.3798  151.1335 F   0  0  0  0  0  0  0  0  0  0  0  0
  145.9958  143.7033  152.5015 N   0  0  0  0  0  0  0  0  0  0  0  0
  145.8919  143.1558  153.7469 C   0  0  0  0  0  0  0  0  0  0  0  0
  145.0569  143.6335  154.7924 C   0  0  0  0  0  0  0  0  0  0  0  0
  145.2024  142.8347  155.9187 N   0  0  0  0  0  0  0  0  0  0  0  0
  146.0761  141.9350  155.5535 C   0  0  0  0  0  0  0  0  0  0  0  0
  146.5476  142.0562  154.2646 N   0  0  0  0  0  0  0  0  0  0  0  0
  147.5517  141.1847  153.5757 C   0  0  1  0  0  0  0  0  0  0  0  0
  148.7240  141.1791  154.3274 O   0  0  0  0  0  0  0  0  0  0  0  0
  149.3308  139.8958  154.2324 C   0  0  1  0  0  0  0  0  0  0  0  0
  150.3474  139.6792  155.3675 C   0  0  0  0  0  0  0  0  0  0  0  0
  151.6226  140.1393  154.9722 O   0  0  0  0  0  0  0  0  0  0  0  0
  148.1282  138.9400  154.2248 C   0  0  1  0  0  0  0  0  0  0  0  0
  147.6989  138.6469  155.5433 O   0  0  0  0  0  0  0  0  0  0  0  0
  147.0864  139.7205  153.4248 C   0  0  1  0  0  0  0  0  0  0  0  0
  145.7492  139.4514  153.8157 O   0  0  0  0  0  0  0  0  0  0  0  0
  147.7246  141.6709  152.6147 H   0  0  0  0  0  0  0  0  0  0  0  0
  149.8285  139.8208  153.2632 H   0  0  0  0  0  0  0  0  0  0  0  0
  148.3735  137.9947  153.7398 H   0  0  0  0  0  0  0  0  0  0  0  0
  147.1867  139.4666  152.3687 H   0  0  0  0  0  0  0  0  0  0  0  0
  143.3461  144.9658  156.2897 H   0  0  0  0  0  0  0  0  0  0  0  0
  142.9111  146.1654  155.0910 H   0  0  0  0  0  0  0  0  0  0  0  0
  146.4072  141.1537  156.2221 H   0  0  0  0  0  0  0  0  0  0  0  0
  150.0315  140.1788  156.2841 H   0  0  0  0  0  0  0  0  0  0  0  0
  150.4413  138.6161  155.5910 H   0  0  0  0  0  0  0  0  0  0  0  0
  152.2767  139.5767  155.3576 H   0  0  0  0  0  0  0  0  0  0  0  0
  147.2348  137.8236  155.5287 H   0  0  0  0  0  0  0  0  0  0  0  0
  145.1675  139.9240  153.2401 H   0  0  0  0  0  0  0  0  0  0  0  0
  1  2  1  0  0  0  0
  1 25  1  0  0  0  0
  1 26  1  0  0  0  0
  2  8  1  0  0  0  0
  2  3  2  0  0  0  0
  3  4  1  0  0  0  0
  4  5  1  0  0  0  0
  4  6  2  0  0  0  0
  6  7  1  0  0  0  0
  7 11  1  0  0  0  0
  7  8  2  0  0  0  0
  8  9  1  0  0  0  0
  9 10  2  0  0  0  0
 10 11  1  0  0  0  0
 10 27  1  0  0  0  0
 11 12  1  0  0  0  0
 12 21  1  0  0  0  0
 12 19  1  0  0  0  0
 12 13  1  0  0  0  0
 13 14  1  0  0  0  0
 14 22  1  0  0  0  0
 14 15  1  0  0  0  0
 14 17  1  0  0  0  0
 15 16  1  0  0  0  0
 15 28  1  0  0  0  0
 15 29  1  0  0  0  0
 16 30  1  0  0  0  0
 17 23  1  0  0  0  0
 17 18  1  0  0  0  0
 17 19  1  0  0  0  0
 18 31  1  0  0  0  0
 19 24  1  0  0  0  0
 19 20  1  0  0  0  0
 20 32  1  0  0  0  0
M  END
> <s_m_source_file>
AV-unprocessed.smi

> <i_m_source_file_index>
114

> <i_lp_mmshare_version>
43012

> <i_f3d_flags>
0

> <s_epik_input>
RmMobjEpbmMoW05IMl0pYyhjMTIpbltjSF1uMltDQEBIXTNPW0NASF0oW0NIMl1bT0hdKVtDQEBIXShbT0hdKVtDQEBIXTNbT0hd

> <s_epik_cmdline>
J2VwaWtfcHl0aG9uJywgJy1waCcsICc3LjAnLCAnLXRuJywgJzgnLCAnLW1hJywgJzIwMCcsICctbWV0YWxfYmluZGluZycsICctaW1hZScsICc8aW5maWxlLm1hZT4nLCAnLW9tYWUnLCAnPG91dGZpbGUubWFlPic=

> <r_lp_tautomer_probability>
1

> <r_epik_Ionization_Penalty>
1.13199e-05

> <r_epik_Ionization_Penalty_Charging>
0

> <r_epik_Ionization_Penalty_Neutral>
1.13199e-05

> <r_epik_State_Penalty>
-0

> <r_epik_Charging_Adjusted_Penalty>
0

> <i_epik_Tot_Q>
0

> <i_epik_Tot_abs_Q>
0

> <r_epik_Metal_State_Penalty>
-0

> <b_epik_Metal_Only>
0

> <s_epik_Chemistry_Notes>
This compound contains an acetal/aminal-like group ( X-CH(R)-Y where X, Y are N, S, or O) that may be acid/base labile, releasing an aldehyde.

> <s_lp_Force_Field>
OPLS_2005

> <r_lp_Energy>
48.1785

> <b_lp_Chiralities_Consistent>
1

> <s_lp_Variant>
AV-unprocessed.smi:114-12

> <Gold.Version>
5.8.1

> <Gold.Id.Protein>
6NUR|6NUR_protein|mol2

> <Gold.PLP.Fitness>
36.9913

> <Gold.PLP.PLP>
-31.8048

> <Gold.PLP.part.hbond>
-2.9105

> <Gold.PLP.part.metal>
0.0000

> <Gold.PLP.part.buried>
-1.4801

> <Gold.PLP.part.nonpolar>
-29.4538

> <Gold.PLP.part.repulsive>
0.5285

> <Gold.PLP.ligand.clash>
0.0000

> <Gold.PLP.ligand.torsion>
0.3480

> <Gold.PLP.Chemscore.Hbond>
1.9600

> <Gold.PLP.Chemscore.CHOScore>
0.0000

> <Gold.PLP.Chemscore.Metal>
0.0000

> <Gold.Chemscore.Hbonds>
donor molecule, donor type, donor heavy atom, donor atom, acceptor molecule, acceptor atom, score
      L1  H    20    32       P1 10175  1.00
      P1  H  7989  7998       L1    16  1.00

> <Gold.PLP.Chemscore.Internal.Correction>
0.0024

> <Gold.Rescore>
     Score         DG    S(hbond)    S(metal)    S(lipo)     H(rot)  DE(clash)    DE(int)     intcor
      3.43      -4.80       1.95        0.00      26.56       4.03       0.73       0.65       ----

> <Gold.Chemscore.Fitness>
3.4252

> <Gold.Chemscore.DG>
-4.8000

> <Gold.Chemscore.ZeroCoef>
-5.4800

> <Gold.Chemscore.Hbond>
1.9533

> <Gold.Chemscore.Metal>
0.0000

> <Gold.Chemscore.Lipo>
26.5556

> <Gold.Chemscore.Internal_Hbond>
0.0000

> <Gold.Chemscore.DEClash>
0.7254

> <Gold.Chemscore.DEInternal>
0.6494

> <Gold.Chemscore.Rot>
4.0277

> <Gold.Chemscore.Internal.Correction>
   9.000000E+99

> <Gold.Chemscore.Hbonds>
donor molecule, donor type, donor heavy atom, donor atom, acceptor molecule, acceptor atom, score
      L1  H    20    32       P1 10175  1.00
      P1  H  7989  7998       L1    16  0.85

> <Gold.Chemscore.Hbond.Weighted>
-6.5240

> <Gold.Chemscore.Metal.Weighted>
-0.0000

> <Gold.Chemscore.Lipo.Weighted>
-3.1070

> <Gold.Chemscore.Internal_Hbond.Weighted>
0.0000

> <Gold.Chemscore.DEClash.Weighted>
0.7254

> <Gold.Chemscore.DEInternal.Weighted>
0.6494

> <Gold.Chemscore.Rot.Weighted>
10.3110

> <Gold.Chemscore.Internal.Correction.Weighted>
   9.000000E+99

> <Gold.Protein.RotatedTorsions>
[ 6907 6896 6895 6894 ] final   99.58 input  -60.11 | X-H torsion
[ 7974 7965 7964 7962 ] final   55.88 input  175.53 | X-H torsion
[ 8008 7997 7996 7995 ] final   21.65 input   59.86 | X-H torsion
[ 10167 10162 10161 10158 ] final   28.47 input  -65.29 | X-H torsion
[ 10718 10713 10712 10709 ] final  -83.41 input   66.30 | X-H torsion
[ 10763 10752 10751 10750 ] final -165.43 input  -60.55 | X-H torsion
[ 11005 11000 10999 10996 ] final -123.58 input  -57.11 | X-H torsion

> <Gold.Protein.ActiveResidues>
 VAL166  LYS551  ARG553  GLY616  TRP617  ASP618  TYR619  PRO620  LYS621  CYS622 
 ASP623  PHE694  ASN695  SER759  ASP760  ASP761  ALA762  ILE779  LEU786  VAL792 
 PHE793  MET794  SER795  GLU796  ALA797  LYS798  CYS799  TRP800  GLU811  SER814 

> <Gold.Protein.RotatedAtoms>
  152.5389  134.0406  159.8065 H   0  0  0  0  0  0  0  0  0  0  0  0  # atno 6907 bound_to 6896
  151.0563  133.5574  159.2645 H   0  0  0  0  0  0  0  0  0  0  0  0  # atno 6908 bound_to 6896
  151.2489  135.0623  159.9108 H   0  0  0  0  0  0  0  0  0  0  0  0  # atno 6909 bound_to 6896
  145.9457  139.3928  143.0336 H   0  0  0  0  0  0  0  0  0  0  0  0  # atno 7974 bound_to 7965
  154.9537  140.3069  155.5063 H   0  0  0  0  0  0  0  0  0  0  0  0  # atno 8008 bound_to 7997
  156.2984  140.2314  156.4555 H   0  0  0  0  0  0  0  0  0  0  0  0  # atno 8009 bound_to 7997
  154.8030  140.0433  157.1275 H   0  0  0  0  0  0  0  0  0  0  0  0  # atno 8010 bound_to 7997
  140.4850  144.0557  150.6277 H   0  0  0  0  0  0  0  0  0  0  0  0  # atno 10167 bound_to 10162
  156.0019  130.4665  150.4254 H   0  0  0  0  0  0  0  0  0  0  0  0  # atno 10718 bound_to 10713
  154.6932  135.2974  154.9449 H   0  0  0  0  0  0  0  0  0  0  0  0  # atno 10763 bound_to 10752
  154.0406  135.6658  153.4793 H   0  0  0  0  0  0  0  0  0  0  0  0  # atno 10764 bound_to 10752
  153.0627  135.5106  154.8035 H   0  0  0  0  0  0  0  0  0  0  0  0  # atno 10765 bound_to 10752
  140.9908  134.0541  157.3656 H   0  0  0  0  0  0  0  0  0  0  0  0  # atno 11005 bound_to 11000
  145.8239  140.9665  143.0884 LP  0  0  0  0  0  0  0  0  0  0  0  0  # atno 17320 bound_to 7965
  144.6787  140.0077  143.7484 LP  0  0  0  0  0  0  0  0  0  0  0  0  # atno 17321 bound_to 7965
  140.3809  143.2803  152.0171 LP  0  0  0  0  0  0  0  0  0  0  0  0  # atno 17342 bound_to 10162
  139.4840  144.6155  151.7354 LP  0  0  0  0  0  0  0  0  0  0  0  0  # atno 17343 bound_to 10162
  157.2307  131.0503  151.2494 LP  0  0  0  0  0  0  0  0  0  0  0  0  # atno 17370 bound_to 10713
  157.3714  130.7183  149.6567 LP  0  0  0  0  0  0  0  0  0  0  0  0  # atno 17371 bound_to 10713
  139.8991  135.0157  156.7181 LP  0  0  0  0  0  0  0  0  0  0  0  0  # atno 17394 bound_to 11000
  140.7043  133.9279  155.8044 LP  0  0  0  0  0  0  0  0  0  0  0  0  # atno 17395 bound_to 11000

$$$$
