AV-unprocessed.smi:855|AV-procd|sdf|3956|dock2
  -GOLD-   22720 1423D 1   1.00000     0.00000
 Structure written by MMmdl.
 36 37  0  0  0  0  0  0  0  0  2 V2000
  151.7186  141.0573  158.1696 C   0  0  0  0  0  0  0  0  0  0  0  0
  151.3819  140.4273  156.8616 C   0  0  0  0  0  0  0  0  0  0  0  0
  150.2017  140.0355  156.2947 C   0  0  0  0  0  0  0  0  0  0  0  0
  150.6083  139.5156  155.0371 C   0  0  0  0  0  0  0  0  0  0  0  0
  149.6575  138.9963  154.1215 N   0  0  0  0  0  0  0  0  0  0  0  0
  148.5373  139.5931  153.6794 C   0  0  0  0  0  0  0  0  0  0  0  0
  148.1539  140.7169  154.0057 O   0  0  0  0  0  0  0  0  0  0  0  0
  147.8675  138.8065  152.8244 N   0  0  0  0  0  0  0  0  0  0  0  0
  146.6221  139.1712  152.1591 C   0  0  0  0  0  0  0  0  0  0  0  0
  146.2512  138.1666  151.0518 C   0  0  0  0  0  0  0  0  0  0  0  0
  146.0202  136.8077  151.5938 N   0  3  0  0  0  0  0  0  0  0  0  0
  145.0841  136.7336  152.7422 C   0  0  0  0  0  0  0  0  0  0  0  0
  144.1833  135.5133  152.5067 C   0  0  0  0  0  0  0  0  0  0  0  0
  144.8777  134.7298  151.3975 C   0  0  0  0  0  0  0  0  0  0  0  0
  145.5669  135.8245  150.5898 C   0  0  0  0  0  0  0  0  0  0  0  0
  151.9181  139.5815  154.8538 N   0  0  0  0  0  0  0  0  0  0  0  0
  152.4207  140.1651  156.0227 O   0  0  0  0  0  0  0  0  0  0  0  0
  150.8562  141.5817  158.5817 H   0  0  0  0  0  0  0  0  0  0  0  0
  152.5287  141.7781  158.0575 H   0  0  0  0  0  0  0  0  0  0  0  0
  152.0332  140.3034  158.8911 H   0  0  0  0  0  0  0  0  0  0  0  0
  149.2096  140.1118  156.7144 H   0  0  0  0  0  0  0  0  0  0  0  0
  149.8510  138.0710  153.7683 H   0  0  0  0  0  0  0  0  0  0  0  0
  148.2530  137.8984  152.6089 H   0  0  0  0  0  0  0  0  0  0  0  0
  145.8179  139.2450  152.8933 H   0  0  0  0  0  0  0  0  0  0  0  0
  146.7517  140.1692  151.7407 H   0  0  0  0  0  0  0  0  0  0  0  0
  145.3690  138.5027  150.5048 H   0  0  0  0  0  0  0  0  0  0  0  0
  147.0655  138.1104  150.3278 H   0  0  0  0  0  0  0  0  0  0  0  0
  145.6619  136.6254  153.6605 H   0  0  0  0  0  0  0  0  0  0  0  0
  144.4788  137.6365  152.8368 H   0  0  0  0  0  0  0  0  0  0  0  0
  144.0340  134.9196  153.4091 H   0  0  0  0  0  0  0  0  0  0  0  0
  143.2025  135.8435  152.1613 H   0  0  0  0  0  0  0  0  0  0  0  0
  145.6232  134.0587  151.8265 H   0  0  0  0  0  0  0  0  0  0  0  0
  144.1866  134.1324  150.8020 H   0  0  0  0  0  0  0  0  0  0  0  0
  144.8468  136.2904  149.9145 H   0  0  0  0  0  0  0  0  0  0  0  0
  146.3970  135.4466  149.9919 H   0  0  0  0  0  0  0  0  0  0  0  0
  146.9093  136.4656  151.9298 H   0  0  0  0  0  0  0  0  0  0  0  0
  1  2  1  0  0  0  0
  1 18  1  0  0  0  0
  1 19  1  0  0  0  0
  1 20  1  0  0  0  0
  2 17  1  0  0  0  0
  2  3  2  0  0  0  0
  3  4  1  0  0  0  0
  3 21  1  0  0  0  0
  4  5  1  0  0  0  0
  4 16  2  0  0  0  0
  5  6  1  0  0  0  0
  5 22  1  0  0  0  0
  6  7  2  0  0  0  0
  6  8  1  0  0  0  0
  8  9  1  0  0  0  0
  8 23  1  0  0  0  0
  9 10  1  0  0  0  0
  9 24  1  0  0  0  0
  9 25  1  0  0  0  0
 10 11  1  0  0  0  0
 10 26  1  0  0  0  0
 10 27  1  0  0  0  0
 11 15  1  0  0  0  0
 11 12  1  0  0  0  0
 11 36  1  0  0  0  0
 12 13  1  0  0  0  0
 12 28  1  0  0  0  0
 12 29  1  0  0  0  0
 13 14  1  0  0  0  0
 13 30  1  0  0  0  0
 13 31  1  0  0  0  0
 14 15  1  0  0  0  0
 14 32  1  0  0  0  0
 14 33  1  0  0  0  0
 15 34  1  0  0  0  0
 15 35  1  0  0  0  0
 16 17  1  0  0  0  0
M  CHG  1  11   1
M  END
> <s_m_source_file>
AV-unprocessed.smi

> <i_m_source_file_index>
855

> <i_lp_mmshare_version>
43012

> <i_f3d_flags>
0

> <s_epik_input>
W0NIM11jMVtjSF1jKG5vMSlbTkhdQyg9TylbTkhdW0NIMl1bQ0gyXU4yW0NIMl1bQ0gyXVtDSDJdW0NIMl0y

> <s_epik_cmdline>
J2VwaWtfcHl0aG9uJywgJy1waCcsICc3LjAnLCAnLXRuJywgJzgnLCAnLW1hJywgJzIwMCcsICctbWV0YWxfYmluZGluZycsICctaW1hZScsICc8aW5maWxlLm1hZT4nLCAnLW9tYWUnLCAnPG91dGZpbGUubWFlPic=

> <r_epik_Ionization_Penalty>
0.00243703

> <r_epik_Ionization_Penalty_Charging>
0.00240122

> <r_epik_Ionization_Penalty_Neutral>
3.58091e-05

> <r_epik_State_Penalty>
0.00166069

> <r_epik_Charging_Adjusted_Penalty>
0.00406191

> <i_epik_Tot_Q>
1

> <i_epik_Tot_abs_Q>
1

> <r_epik_Metal_State_Penalty>
0.021664

> <b_epik_Metal_Only>
0

> <s_lp_Force_Field>
OPLS_2005

> <r_lp_Energy>
23.058

> <b_lp_Chiralities_Consistent>
1

> <s_lp_Variant>
AV-unprocessed.smi:855-1

> <Gold.Version>
5.8.1

> <Gold.Id.Protein>
6NUR|6NUR_protein|mol2

> <Gold.PLP.Fitness>
38.6550

> <Gold.PLP.PLP>
-25.8206

> <Gold.PLP.part.hbond>
-5.5523

> <Gold.PLP.part.metal>
0.0000

> <Gold.PLP.part.buried>
2.8291

> <Gold.PLP.part.nonpolar>
-24.5171

> <Gold.PLP.part.repulsive>
0.3547

> <Gold.PLP.ligand.clash>
0.0000

> <Gold.PLP.ligand.torsion>
0.5426

> <Gold.PLP.Chemscore.Hbond>
4.6344

> <Gold.PLP.Chemscore.CHOScore>
0.0000

> <Gold.PLP.Chemscore.Metal>
0.0000

> <Gold.Chemscore.Hbonds>
donor molecule, donor type, donor heavy atom, donor atom, acceptor molecule, acceptor atom, score
      L1  H     8    23       P1  7948  1.00
      L1  H    11    36       P1  7948  1.98
      P1  H  7989  7998       L1    16  0.48
      P1  H  7997  8009       L1    17  1.00

> <Gold.PLP.Chemscore.Internal.Correction>
0.0165

> <Gold.Rescore>
     Score         DG    S(hbond)    S(metal)    S(lipo)     H(rot)  DE(clash)    DE(int)     intcor
     14.18     -18.28       2.99        0.00      59.09       1.60       2.63       1.46       ----

> <Gold.Chemscore.Fitness>
14.1831

> <Gold.Chemscore.DG>
-18.2779

> <Gold.Chemscore.ZeroCoef>
-5.4800

> <Gold.Chemscore.Hbond>
2.9895

> <Gold.Chemscore.Metal>
0.0000

> <Gold.Chemscore.Lipo>
59.0929

> <Gold.Chemscore.Internal_Hbond>
0.0000

> <Gold.Chemscore.DEClash>
2.6309

> <Gold.Chemscore.DEInternal>
1.4639

> <Gold.Chemscore.Rot>
1.6019

> <Gold.Chemscore.Internal.Correction>
   9.000000E+99

> <Gold.Chemscore.Hbonds>
donor molecule, donor type, donor heavy atom, donor atom, acceptor molecule, acceptor atom, score
      L1  H     8    23       P1  7948  0.99
      L1  H    11    36       P1  7948  0.90
      P1  H  7989  7998       L1    16  0.02
      P1  H  7997  8009       L1    17  0.78

> <Gold.Chemscore.Hbond.Weighted>
-9.9850

> <Gold.Chemscore.Metal.Weighted>
-0.0000

> <Gold.Chemscore.Lipo.Weighted>
-6.9139

> <Gold.Chemscore.Internal_Hbond.Weighted>
0.0000

> <Gold.Chemscore.DEClash.Weighted>
2.6309

> <Gold.Chemscore.DEInternal.Weighted>
1.4639

> <Gold.Chemscore.Rot.Weighted>
4.1009

> <Gold.Chemscore.Internal.Correction.Weighted>
   9.000000E+99

> <Gold.Protein.RotatedTorsions>
[ 6907 6896 6895 6894 ] final   74.21 input  -60.11 | X-H torsion
[ 7974 7965 7964 7962 ] final  -48.09 input  175.53 | X-H torsion
[ 8008 7997 7996 7995 ] final -144.03 input   59.86 | X-H torsion
[ 10167 10162 10161 10158 ] final   59.50 input  -65.29 | X-H torsion
[ 10718 10713 10712 10709 ] final -128.91 input   66.30 | X-H torsion
[ 10763 10752 10751 10750 ] final  -92.17 input  -60.55 | X-H torsion
[ 11005 11000 10999 10996 ] final -102.57 input  -57.11 | X-H torsion

> <Gold.Protein.ActiveResidues>
 VAL166  LYS551  ARG553  GLY616  TRP617  ASP618  TYR619  PRO620  LYS621  CYS622 
 ASP623  PHE694  ASN695  SER759  ASP760  ASP761  ALA762  ILE779  LEU786  VAL792 
 PHE793  MET794  SER795  GLU796  ALA797  LYS798  CYS799  TRP800  GLU811  SER814 

> <Gold.Protein.RotatedAtoms>
  152.4964  134.4305  159.9510 H   0  0  0  0  0  0  0  0  0  0  0  0  # atno 6907 bound_to 6896
  151.4283  133.3672  159.2773 H   0  0  0  0  0  0  0  0  0  0  0  0  # atno 6908 bound_to 6896
  150.9173  134.8613  159.7525 H   0  0  0  0  0  0  0  0  0  0  0  0  # atno 6909 bound_to 6896
  145.9548  140.7537  142.9487 H   0  0  0  0  0  0  0  0  0  0  0  0  # atno 7974 bound_to 7965
  155.5203  140.0591  157.2908 H   0  0  0  0  0  0  0  0  0  0  0  0  # atno 8008 bound_to 7997
  154.4520  140.1954  156.0437 H   0  0  0  0  0  0  0  0  0  0  0  0  # atno 8009 bound_to 7997
  156.0723  140.3258  155.7595 H   0  0  0  0  0  0  0  0  0  0  0  0  # atno 8010 bound_to 7997
  140.1757  144.4232  150.6639 H   0  0  0  0  0  0  0  0  0  0  0  0  # atno 10167 bound_to 10162
  156.1996  130.6849  151.0523 H   0  0  0  0  0  0  0  0  0  0  0  0  # atno 10718 bound_to 10713
  154.6834  135.5241  153.8294 H   0  0  0  0  0  0  0  0  0  0  0  0  # atno 10763 bound_to 10752
  153.0580  135.6558  154.0539 H   0  0  0  0  0  0  0  0  0  0  0  0  # atno 10764 bound_to 10752
  154.0423  135.2976  155.3333 H   0  0  0  0  0  0  0  0  0  0  0  0  # atno 10765 bound_to 10752
  141.1184  133.8569  157.1376 H   0  0  0  0  0  0  0  0  0  0  0  0  # atno 11005 bound_to 11000
  144.6803  140.2493  143.7333 LP  0  0  0  0  0  0  0  0  0  0  0  0  # atno 17320 bound_to 7965
  145.8122  139.2008  143.1986 LP  0  0  0  0  0  0  0  0  0  0  0  0  # atno 17321 bound_to 7965
  140.6553  143.2236  151.5983 LP  0  0  0  0  0  0  0  0  0  0  0  0  # atno 17342 bound_to 10162
  139.5318  144.2894  152.1164 LP  0  0  0  0  0  0  0  0  0  0  0  0  # atno 17343 bound_to 10162
  157.6978  131.0787  150.6915 LP  0  0  0  0  0  0  0  0  0  0  0  0  # atno 17370 bound_to 10713
  156.6972  130.4612  149.5583 LP  0  0  0  0  0  0  0  0  0  0  0  0  # atno 17371 bound_to 10713
  140.0122  134.9983  157.0418 LP  0  0  0  0  0  0  0  0  0  0  0  0  # atno 17394 bound_to 11000
  140.4580  134.1513  155.7188 LP  0  0  0  0  0  0  0  0  0  0  0  0  # atno 17395 bound_to 11000

$$$$
