AV-unprocessed.smi:1947|AV-procd|sdf|7870|dock3
  -GOLD-   2272010 23D 1   1.00000     0.00000
 Structure written by MMmdl.
 38 39  0  0  0  0  0  0  0  0  2 V2000
  151.7582  144.3284  157.8347 C   0  0  0  0  0  0  0  0  0  0  0  0
  152.4356  144.0082  159.1756 C   0  0  1  0  0  0  0  0  0  0  0  0
  151.6255  144.5622  160.3651 C   0  0  0  0  0  0  0  0  0  0  0  0
  152.3352  144.2991  161.7024 C   0  0  0  0  0  0  0  0  0  0  0  0
  152.6367  142.8047  161.8895 C   0  0  0  0  0  0  0  0  0  0  0  0
  153.4431  142.2438  160.7052 C   0  0  0  0  0  0  0  0  0  0  0  0
  152.7397  142.5002  159.3595 C   0  0  1  0  0  0  0  0  0  0  0  0
  151.5333  141.7478  159.3650 O   0  0  0  0  0  0  0  0  0  0  0  0
  151.6807  140.3658  159.0769 C   0  0  0  0  0  0  0  0  0  0  0  0
  152.1197  140.2023  157.6137 C   0  0  0  0  0  0  0  0  0  0  0  0
  150.9698  139.9734  156.7437 N   0  0  0  0  0  0  0  0  0  0  0  0
  151.0215  139.6040  155.4555 C   0  0  0  0  0  0  0  0  0  0  0  0
  152.1089  139.5269  154.8787 O   0  0  0  0  0  0  0  0  0  0  0  0
  149.8117  139.3262  154.9190 N   0  5  0  0  0  0  0  0  0  0  0  0
  149.0409  140.3270  154.4623 C   0  0  0  0  0  0  0  0  0  0  0  0
  149.5345  141.5485  154.2014 N   0  0  0  0  0  0  0  0  0  0  0  0
  148.5732  142.4398  153.7447 N   0  0  0  0  0  0  0  0  0  0  0  0
  147.3752  141.8615  153.6629 C   0  0  0  0  0  0  0  0  0  0  0  0
  147.3132  140.1758  154.1331 S   0  0  0  0  0  0  0  0  0  0  0  0
  150.7601  143.8942  157.7777 H   0  0  0  0  0  0  0  0  0  0  0  0
  152.3409  143.9450  156.9968 H   0  0  0  0  0  0  0  0  0  0  0  0
  151.6530  145.4046  157.6976 H   0  0  0  0  0  0  0  0  0  0  0  0
  153.3949  144.5279  159.1686 H   0  0  0  0  0  0  0  0  0  0  0  0
  151.4658  145.6339  160.2423 H   0  0  0  0  0  0  0  0  0  0  0  0
  150.6342  144.1084  160.3833 H   0  0  0  0  0  0  0  0  0  0  0  0
  153.2651  144.8678  161.7403 H   0  0  0  0  0  0  0  0  0  0  0  0
  151.7183  144.6595  162.5260 H   0  0  0  0  0  0  0  0  0  0  0  0
  153.1848  142.6498  162.8190 H   0  0  0  0  0  0  0  0  0  0  0  0
  151.7001  142.2544  161.9894 H   0  0  0  0  0  0  0  0  0  0  0  0
  154.4308  142.7061  160.6910 H   0  0  0  0  0  0  0  0  0  0  0  0
  153.6072  141.1744  160.8410 H   0  0  0  0  0  0  0  0  0  0  0  0
  153.4026  142.1588  158.5620 H   0  0  0  0  0  0  0  0  0  0  0  0
  152.4108  139.8972  159.7378 H   0  0  0  0  0  0  0  0  0  0  0  0
  150.7260  139.8653  159.2431 H   0  0  0  0  0  0  0  0  0  0  0  0
  152.6103  141.1161  157.2784 H   0  0  0  0  0  0  0  0  0  0  0  0
  152.8551  139.4024  157.5157 H   0  0  0  0  0  0  0  0  0  0  0  0
  150.0571  140.0327  157.1702 H   0  0  0  0  0  0  0  0  0  0  0  0
  146.5235  142.4301  153.3213 H   0  0  0  0  0  0  0  0  0  0  0  0
  1  2  1  0  0  0  0
  1 20  1  0  0  0  0
  1 21  1  0  0  0  0
  1 22  1  0  0  0  0
  2  7  1  0  0  0  0
  2  3  1  0  0  0  0
  2 23  1  0  0  0  0
  3  4  1  0  0  0  0
  3 24  1  0  0  0  0
  3 25  1  0  0  0  0
  4  5  1  0  0  0  0
  4 26  1  0  0  0  0
  4 27  1  0  0  0  0
  5  6  1  0  0  0  0
  5 28  1  0  0  0  0
  5 29  1  0  0  0  0
  6  7  1  0  0  0  0
  6 30  1  0  0  0  0
  6 31  1  0  0  0  0
  7  8  1  0  0  0  0
  7 32  1  0  0  0  0
  8  9  1  0  0  0  0
  9 10  1  0  0  0  0
  9 33  1  0  0  0  0
  9 34  1  0  0  0  0
 10 11  1  0  0  0  0
 10 35  1  0  0  0  0
 10 36  1  0  0  0  0
 11 12  1  0  0  0  0
 11 37  1  0  0  0  0
 12 13  2  0  0  0  0
 12 14  1  0  0  0  0
 14 15  1  0  0  0  0
 15 19  1  0  0  0  0
 15 16  2  0  0  0  0
 16 17  1  0  0  0  0
 17 18  2  0  0  0  0
 18 19  1  0  0  0  0
 18 38  1  0  0  0  0
M  CHG  1  14  -1
M  END
> <s_m_source_file>
AV-unprocessed.smi

> <i_m_source_file_index>
1947

> <i_lp_mmshare_version>
43012

> <i_f3d_flags>
0

> <s_epik_input>
W0NIM11bQ0BASF0xW0NIMl1bQ0gyXVtDSDJdW0NIMl1bQ0BIXTFPW0NIMl1bQ0gyXVtOSF1DKD1PKVtOSF1jMm5uW2NIXXMy

> <s_epik_cmdline>
J2VwaWtfcHl0aG9uJywgJy1waCcsICc3LjAnLCAnLXRuJywgJzgnLCAnLW1hJywgJzIwMCcsICctbWV0YWxfYmluZGluZycsICctaW1hZScsICc8aW5maWxlLm1hZT4nLCAnLW9tYWUnLCAnPG91dGZpbGUubWFlPic=

> <r_lp_tautomer_probability>
1

> <r_epik_Ionization_Penalty>
3.35961

> <r_epik_Ionization_Penalty_Charging>
3.31977

> <r_epik_Ionization_Penalty_Neutral>
0.0398394

> <r_epik_State_Penalty>
3.31759

> <r_epik_Charging_Adjusted_Penalty>
6.63736

> <i_epik_Tot_Q>
-1

> <i_epik_Tot_abs_Q>
1

> <r_epik_Metal_State_Penalty>
0.484557

> <b_epik_Metal_Only>
1

> <s_lp_Force_Field>
OPLS_2005

> <r_lp_Energy>
8.55413

> <b_lp_Chiralities_Consistent>
1

> <s_lp_Variant>
AV-unprocessed.smi:1947-6

> <Gold.Version>
5.8.1

> <Gold.Id.Protein>
6NUR|6NUR_protein|mol2

> <Gold.PLP.Fitness>
47.6865

> <Gold.PLP.PLP>
-44.1799

> <Gold.PLP.part.hbond>
-4.1617

> <Gold.PLP.part.metal>
0.0000

> <Gold.PLP.part.buried>
-5.9067

> <Gold.PLP.part.nonpolar>
-37.2032

> <Gold.PLP.part.repulsive>
5.1088

> <Gold.PLP.ligand.clash>
0.0000

> <Gold.PLP.ligand.torsion>
1.2801

> <Gold.PLP.Chemscore.Hbond>
1.9866

> <Gold.PLP.Chemscore.CHOScore>
0.0000

> <Gold.PLP.Chemscore.Metal>
0.0000

> <Gold.Chemscore.Hbonds>
donor molecule, donor type, donor heavy atom, donor atom, acceptor molecule, acceptor atom, score
      P1  H  7989  7998       L1    13  0.65
      P1  H  8022  8030       L1    17  0.25

> <Gold.PLP.Chemscore.Internal.Correction>
0.1070

> <Gold.Rescore>
     Score         DG    S(hbond)    S(metal)    S(lipo)     H(rot)  DE(clash)    DE(int)     intcor
     15.32     -19.03       1.74        0.00     107.69       1.90       2.23       1.49       ----

> <Gold.Chemscore.Fitness>
15.3166

> <Gold.Chemscore.DG>
-19.0285

> <Gold.Chemscore.ZeroCoef>
-5.4800

> <Gold.Chemscore.Hbond>
1.7392

> <Gold.Chemscore.Metal>
0.0000

> <Gold.Chemscore.Lipo>
107.6870

> <Gold.Chemscore.Internal_Hbond>
0.0000

> <Gold.Chemscore.DEClash>
2.2250

> <Gold.Chemscore.DEInternal>
1.4869

> <Gold.Chemscore.Rot>
1.8984

> <Gold.Chemscore.Internal.Correction>
   9.000000E+99

> <Gold.Chemscore.Hbonds>
donor molecule, donor type, donor heavy atom, donor atom, acceptor molecule, acceptor atom, score
      P1  H  7989  7998       L1    13  0.08
      P1  H  8022  8030       L1    17  0.24

> <Gold.Chemscore.Hbond.Weighted>
-5.8089

> <Gold.Chemscore.Metal.Weighted>
-0.0000

> <Gold.Chemscore.Lipo.Weighted>
-12.5994

> <Gold.Chemscore.Internal_Hbond.Weighted>
0.0000

> <Gold.Chemscore.DEClash.Weighted>
2.2250

> <Gold.Chemscore.DEInternal.Weighted>
1.4869

> <Gold.Chemscore.Rot.Weighted>
4.8598

> <Gold.Chemscore.Internal.Correction.Weighted>
   9.000000E+99

> <Gold.Protein.RotatedTorsions>
[ 6907 6896 6895 6894 ] final   61.98 input  -60.11 | X-H torsion
[ 7974 7965 7964 7962 ] final   -2.39 input  175.53 | X-H torsion
[ 8008 7997 7996 7995 ] final  -31.31 input   59.86 | X-H torsion
[ 10167 10162 10161 10158 ] final  178.86 input  -65.29 | X-H torsion
[ 10718 10713 10712 10709 ] final  126.98 input   66.30 | X-H torsion
[ 10763 10752 10751 10750 ] final   63.48 input  -60.55 | X-H torsion
[ 11005 11000 10999 10996 ] final -123.86 input  -57.11 | X-H torsion

> <Gold.Protein.ActiveResidues>
 VAL166  LYS551  ARG553  GLY616  TRP617  ASP618  TYR619  PRO620  LYS621  CYS622 
 ASP623  PHE694  ASN695  SER759  ASP760  ASP761  ALA762  ILE779  LEU786  VAL792 
 PHE793  MET794  SER795  GLU796  ALA797  LYS798  CYS799  TRP800  GLU811  SER814 

> <Gold.Protein.RotatedAtoms>
  152.4134  134.6084  160.0018 H   0  0  0  0  0  0  0  0  0  0  0  0  # atno 6907 bound_to 6896
  151.6254  133.3330  159.3105 H   0  0  0  0  0  0  0  0  0  0  0  0  # atno 6908 bound_to 6896
  150.8024  134.7166  159.6679 H   0  0  0  0  0  0  0  0  0  0  0  0  # atno 6909 bound_to 6896
  146.2405  140.1564  142.8333 H   0  0  0  0  0  0  0  0  0  0  0  0  # atno 7974 bound_to 7965
  154.4218  140.1768  156.1547 H   0  0  0  0  0  0  0  0  0  0  0  0  # atno 8008 bound_to 7997
  155.9887  140.3371  155.6707 H   0  0  0  0  0  0  0  0  0  0  0  0  # atno 8009 bound_to 7997
  155.6402  140.0679  157.2611 H   0  0  0  0  0  0  0  0  0  0  0  0  # atno 8010 bound_to 7997
  139.5312  144.2629  152.0692 H   0  0  0  0  0  0  0  0  0  0  0  0  # atno 10167 bound_to 10162
  157.5372  131.1097  150.8916 H   0  0  0  0  0  0  0  0  0  0  0  0  # atno 10718 bound_to 10713
  153.0019  135.5428  154.6358 H   0  0  0  0  0  0  0  0  0  0  0  0  # atno 10763 bound_to 10752
  154.5625  135.2835  155.0908 H   0  0  0  0  0  0  0  0  0  0  0  0  # atno 10764 bound_to 10752
  154.2105  135.6468  153.5166 H   0  0  0  0  0  0  0  0  0  0  0  0  # atno 10765 bound_to 10752
  140.9886  134.0571  157.3681 H   0  0  0  0  0  0  0  0  0  0  0  0  # atno 11005 bound_to 11000
  145.0125  140.8726  143.5215 LP  0  0  0  0  0  0  0  0  0  0  0  0  # atno 17320 bound_to 7965
  145.1600  139.2464  143.5396 LP  0  0  0  0  0  0  0  0  0  0  0  0  # atno 17321 bound_to 7965
  140.2093  144.4579  150.6393 LP  0  0  0  0  0  0  0  0  0  0  0  0  # atno 17342 bound_to 10162
  140.6491  143.2220  151.6119 LP  0  0  0  0  0  0  0  0  0  0  0  0  # atno 17343 bound_to 10162
  156.9479  130.5409  149.5281 LP  0  0  0  0  0  0  0  0  0  0  0  0  # atno 17370 bound_to 10713
  156.0468  130.5543  150.8899 LP  0  0  0  0  0  0  0  0  0  0  0  0  # atno 17371 bound_to 10713
  139.8982  135.0153  156.7137 LP  0  0  0  0  0  0  0  0  0  0  0  0  # atno 17394 bound_to 11000
  140.7075  133.9252  155.8063 LP  0  0  0  0  0  0  0  0  0  0  0  0  # atno 17395 bound_to 11000

$$$$
