AV-unprocessed.smi:671|AV-procd|sdf|3287|dock10
  -GOLD-   22720 0243D 1   1.00000     0.00000
 Structure written by MMmdl.
 50 51  0  0  0  0  0  0  0  0  2 V2000
  146.7370  142.2504  154.0303 C   0  0  0  0  0  0  0  0  0  0  0  0
  147.9377  141.5748  154.6030 C   0  0  0  0  0  0  0  0  0  0  0  0
  148.6644  142.0504  155.6492 N   0  3  0  0  0  0  0  0  0  0  0  0
  149.6763  141.2159  155.9269 N   0  0  0  0  0  0  0  0  0  0  0  0
  150.5856  141.5436  157.0254 C   0  0  0  0  0  0  0  0  0  0  0  0
  149.6628  140.1553  155.0703 C   0  0  0  0  0  0  0  0  0  0  0  0
  150.6531  139.0366  155.1024 C   0  0  0  0  0  0  0  0  0  0  0  0
  148.5607  140.3776  154.2332 C   0  0  0  0  0  0  0  0  0  0  0  0
  148.0995  139.4920  153.1101 C   0  0  0  0  0  0  0  0  0  0  0  0
  146.7968  138.7298  153.4379 C   0  0  2  0  0  0  0  0  0  0  0  0
  146.5328  138.6340  154.9485 C   0  0  0  0  0  0  0  0  0  0  0  0
  146.8528  137.3762  152.8810 N   0  0  0  0  0  0  0  0  0  0  0  0
  145.8762  136.4507  152.8448 C   0  0  0  0  0  0  0  0  0  0  0  0
  144.7592  136.6689  153.3090 O   0  0  0  0  0  0  0  0  0  0  0  0
  146.2258  135.2899  152.2648 N   0  0  0  0  0  0  0  0  0  0  0  0
  145.3656  134.1200  152.1162 C   0  0  1  0  0  0  0  0  0  0  0  0
  144.1994  134.4295  151.1575 C   0  0  0  0  0  0  0  0  0  0  0  0
  144.4267  133.5712  149.9124 C   0  0  0  0  0  0  0  0  0  0  0  0
  145.1946  132.3592  150.4283 C   0  0  0  0  0  0  0  0  0  0  0  0
  146.1355  132.9352  151.4907 C   0  0  2  0  0  0  0  0  0  0  0  0
  146.6106  131.8936  152.5134 C   0  0  0  0  0  0  0  0  0  0  0  0
  145.8637  141.6039  154.1185 H   0  0  0  0  0  0  0  0  0  0  0  0
  146.8980  142.4733  152.9753 H   0  0  0  0  0  0  0  0  0  0  0  0
  146.5315  143.1839  154.5552 H   0  0  0  0  0  0  0  0  0  0  0  0
  150.8690  140.6274  157.5440 H   0  0  0  0  0  0  0  0  0  0  0  0
  150.0947  142.2170  157.7293 H   0  0  0  0  0  0  0  0  0  0  0  0
  151.4761  142.0232  156.6185 H   0  0  0  0  0  0  0  0  0  0  0  0
  150.5738  138.4153  154.2113 H   0  0  0  0  0  0  0  0  0  0  0  0
  150.4791  138.4093  155.9767 H   0  0  0  0  0  0  0  0  0  0  0  0
  151.6676  139.4321  155.1547 H   0  0  0  0  0  0  0  0  0  0  0  0
  147.9487  140.1073  152.2225 H   0  0  0  0  0  0  0  0  0  0  0  0
  148.8793  138.7846  152.8279 H   0  0  0  0  0  0  0  0  0  0  0  0
  145.9501  139.2576  152.9957 H   0  0  0  0  0  0  0  0  0  0  0  0
  146.4057  139.6205  155.3937 H   0  0  0  0  0  0  0  0  0  0  0  0
  147.3544  138.1374  155.4659 H   0  0  0  0  0  0  0  0  0  0  0  0
  145.6224  138.0689  155.1516 H   0  0  0  0  0  0  0  0  0  0  0  0
  147.7283  137.1172  152.4490 H   0  0  0  0  0  0  0  0  0  0  0  0
  147.1656  135.2074  151.9063 H   0  0  0  0  0  0  0  0  0  0  0  0
  144.9443  133.8372  153.0831 H   0  0  0  0  0  0  0  0  0  0  0  0
  143.2610  134.1364  151.6301 H   0  0  0  0  0  0  0  0  0  0  0  0
  144.1120  135.4880  150.9080 H   0  0  0  0  0  0  0  0  0  0  0  0
  143.4952  133.2990  149.4152 H   0  0  0  0  0  0  0  0  0  0  0  0
  145.0403  134.1155  149.1942 H   0  0  0  0  0  0  0  0  0  0  0  0
  144.4970  131.6548  150.8842 H   0  0  0  0  0  0  0  0  0  0  0  0
  145.7285  131.8333  149.6362 H   0  0  0  0  0  0  0  0  0  0  0  0
  147.0113  133.3211  150.9651 H   0  0  0  0  0  0  0  0  0  0  0  0
  145.7717  131.4653  153.0630 H   0  0  0  0  0  0  0  0  0  0  0  0
  147.2907  132.3402  153.2390 H   0  0  0  0  0  0  0  0  0  0  0  0
  147.1396  131.0767  152.0227 H   0  0  0  0  0  0  0  0  0  0  0  0
  148.5217  142.8971  156.1854 H   0  0  0  0  0  0  0  0  0  0  0  0
  1  2  1  0  0  0  0
  1 22  1  0  0  0  0
  1 23  1  0  0  0  0
  1 24  1  0  0  0  0
  2  8  1  0  0  0  0
  2  3  2  0  0  0  0
  3  4  1  0  0  0  0
  3 50  1  0  0  0  0
  4  5  1  0  0  0  0
  4  6  1  0  0  0  0
  5 25  1  0  0  0  0
  5 26  1  0  0  0  0
  5 27  1  0  0  0  0
  6  7  1  0  0  0  0
  6  8  2  0  0  0  0
  7 28  1  0  0  0  0
  7 29  1  0  0  0  0
  7 30  1  0  0  0  0
  8  9  1  0  0  0  0
  9 10  1  0  0  0  0
  9 31  1  0  0  0  0
  9 32  1  0  0  0  0
 10 11  1  0  0  0  0
 10 12  1  0  0  0  0
 10 33  1  0  0  0  0
 11 34  1  0  0  0  0
 11 35  1  0  0  0  0
 11 36  1  0  0  0  0
 12 13  1  0  0  0  0
 12 37  1  0  0  0  0
 13 14  2  0  0  0  0
 13 15  1  0  0  0  0
 15 16  1  0  0  0  0
 15 38  1  0  0  0  0
 16 20  1  0  0  0  0
 16 17  1  0  0  0  0
 16 39  1  0  0  0  0
 17 18  1  0  0  0  0
 17 40  1  0  0  0  0
 17 41  1  0  0  0  0
 18 19  1  0  0  0  0
 18 42  1  0  0  0  0
 18 43  1  0  0  0  0
 19 20  1  0  0  0  0
 19 44  1  0  0  0  0
 19 45  1  0  0  0  0
 20 21  1  0  0  0  0
 20 46  1  0  0  0  0
 21 47  1  0  0  0  0
 21 48  1  0  0  0  0
 21 49  1  0  0  0  0
M  CHG  1   3   1
M  END
> <s_m_source_file>
AV-unprocessed.smi

> <i_m_source_file_index>
671

> <i_lp_mmshare_version>
43012

> <i_f3d_flags>
0

> <s_epik_input>
W0NIM11jMW5uKFtDSDNdKWMoW0NIM10pYzFbQ0gyXVtDQEhdKFtDSDNdKVtOSF1DKD1PKVtOSF1bQ0BASF0yW0NIMl1bQ0gyXVtDSDJdW0NASF0yW0NIM10=

> <s_epik_cmdline>
J2VwaWtfcHl0aG9uJywgJy1waCcsICc3LjAnLCAnLXRuJywgJzgnLCAnLW1hJywgJzIwMCcsICctbWV0YWxfYmluZGluZycsICctaW1hZScsICc8aW5maWxlLm1hZT4nLCAnLW9tYWUnLCAnPG91dGZpbGUubWFlPic=

> <r_lp_tautomer_probability>
1

> <r_epik_Ionization_Penalty>
2.28705

> <r_epik_Ionization_Penalty_Charging>
2.28698

> <r_epik_Ionization_Penalty_Neutral>
6.23157e-05

> <r_epik_State_Penalty>
2.43671

> <r_epik_Charging_Adjusted_Penalty>
4.72369

> <i_epik_Tot_Q>
1

> <i_epik_Tot_abs_Q>
1

> <r_epik_Metal_State_Penalty>
2.44911

> <b_epik_Metal_Only>
0

> <s_lp_Force_Field>
OPLS_2005

> <r_lp_Energy>
34.681

> <b_lp_Chiralities_Consistent>
1

> <s_lp_Variant>
AV-unprocessed.smi:671-15

> <Gold.Version>
5.8.1

> <Gold.Id.Protein>
6NUR|6NUR_protein|mol2

> <Gold.PLP.Fitness>
46.6891

> <Gold.PLP.PLP>
-37.8326

> <Gold.PLP.part.hbond>
-2.9175

> <Gold.PLP.part.metal>
0.0000

> <Gold.PLP.part.buried>
1.2184

> <Gold.PLP.part.nonpolar>
-35.7569

> <Gold.PLP.part.repulsive>
0.3218

> <Gold.PLP.ligand.clash>
0.0000

> <Gold.PLP.ligand.torsion>
0.7257

> <Gold.PLP.Chemscore.Hbond>
3.4320

> <Gold.PLP.Chemscore.CHOScore>
0.0000

> <Gold.PLP.Chemscore.Metal>
0.0000

> <Gold.Chemscore.Hbonds>
donor molecule, donor type, donor heavy atom, donor atom, acceptor molecule, acceptor atom, score
      L1  H     3    50       P1  8028  1.15
      L1  H    12    37       P1  7948  1.00
      L1  H    15    38       P1  7948  0.85

> <Gold.PLP.Chemscore.Internal.Correction>
0.0119

> <Gold.Rescore>
     Score         DG    S(hbond)    S(metal)    S(lipo)     H(rot)  DE(clash)    DE(int)     intcor
     18.92     -21.53       2.55        0.00      97.45       1.51       1.85       0.76       ----

> <Gold.Chemscore.Fitness>
18.9172

> <Gold.Chemscore.DG>
-21.5282

> <Gold.Chemscore.ZeroCoef>
-5.4800

> <Gold.Chemscore.Hbond>
2.5452

> <Gold.Chemscore.Metal>
0.0000

> <Gold.Chemscore.Lipo>
97.4528

> <Gold.Chemscore.Internal_Hbond>
0.0000

> <Gold.Chemscore.DEClash>
1.8472

> <Gold.Chemscore.DEInternal>
0.7637

> <Gold.Chemscore.Rot>
1.5057

> <Gold.Chemscore.Internal.Correction>
   9.000000E+99

> <Gold.Chemscore.Hbonds>
donor molecule, donor type, donor heavy atom, donor atom, acceptor molecule, acceptor atom, score
      L1  H     3    50       P1  8028  0.55
      L1  H    12    37       P1  7948  0.99
      L1  H    15    38       P1  7948  0.78

> <Gold.Chemscore.Hbond.Weighted>
-8.5009

> <Gold.Chemscore.Metal.Weighted>
-0.0000

> <Gold.Chemscore.Lipo.Weighted>
-11.4020

> <Gold.Chemscore.Internal_Hbond.Weighted>
0.0000

> <Gold.Chemscore.DEClash.Weighted>
1.8472

> <Gold.Chemscore.DEInternal.Weighted>
0.7637

> <Gold.Chemscore.Rot.Weighted>
3.8547

> <Gold.Chemscore.Internal.Correction.Weighted>
   9.000000E+99

> <Gold.Protein.RotatedTorsions>
[ 6907 6896 6895 6894 ] final  -36.03 input  -60.11 | X-H torsion
[ 7974 7965 7964 7962 ] final  -43.89 input  175.53 | X-H torsion
[ 8008 7997 7996 7995 ] final  123.69 input   59.86 | X-H torsion
[ 10167 10162 10161 10158 ] final -111.34 input  -65.29 | X-H torsion
[ 10718 10713 10712 10709 ] final   21.84 input   66.30 | X-H torsion
[ 10763 10752 10751 10750 ] final  169.01 input  -60.55 | X-H torsion
[ 11005 11000 10999 10996 ] final  123.07 input  -57.11 | X-H torsion

> <Gold.Protein.ActiveResidues>
 VAL166  LYS551  ARG553  GLY616  TRP617  ASP618  TYR619  PRO620  LYS621  CYS622 
 ASP623  PHE694  ASN695  SER759  ASP760  ASP761  ALA762  ILE779  LEU786  VAL792 
 PHE793  MET794  SER795  GLU796  ALA797  LYS798  CYS799  TRP800  GLU811  SER814 

> <Gold.Protein.RotatedAtoms>
  151.0323  134.9548  159.8117 H   0  0  0  0  0  0  0  0  0  0  0  0  # atno 6907 bound_to 6896
  152.5348  134.2764  159.9001 H   0  0  0  0  0  0  0  0  0  0  0  0  # atno 6908 bound_to 6896
  151.2774  133.4183  159.2659 H   0  0  0  0  0  0  0  0  0  0  0  0  # atno 6909 bound_to 6896
  145.9974  140.7113  142.9287 H   0  0  0  0  0  0  0  0  0  0  0  0  # atno 7974 bound_to 7965
  156.2775  140.2757  156.1669 H   0  0  0  0  0  0  0  0  0  0  0  0  # atno 8008 bound_to 7997
  155.0696  140.0387  157.2622 H   0  0  0  0  0  0  0  0  0  0  0  0  # atno 8009 bound_to 7997
  154.7051  140.2657  155.6688 H   0  0  0  0  0  0  0  0  0  0  0  0  # atno 8010 bound_to 7997
  140.1347  143.4331  152.1603 H   0  0  0  0  0  0  0  0  0  0  0  0  # atno 10167 bound_to 10162
  157.1440  130.6645  149.5990 H   0  0  0  0  0  0  0  0  0  0  0  0  # atno 10718 bound_to 10713
  154.3770  135.2753  155.2234 H   0  0  0  0  0  0  0  0  0  0  0  0  # atno 10763 bound_to 10752
  154.4357  135.5966  153.6100 H   0  0  0  0  0  0  0  0  0  0  0  0  # atno 10764 bound_to 10752
  152.9836  135.6006  154.4008 H   0  0  0  0  0  0  0  0  0  0  0  0  # atno 10765 bound_to 10752
  139.9296  134.9641  156.8205 H   0  0  0  0  0  0  0  0  0  0  0  0  # atno 11005 bound_to 11000
  144.6908  140.3174  143.7238 LP  0  0  0  0  0  0  0  0  0  0  0  0  # atno 17320 bound_to 7965
  145.7539  139.1802  143.2306 LP  0  0  0  0  0  0  0  0  0  0  0  0  # atno 17321 bound_to 7965
  139.5502  144.7331  151.4459 LP  0  0  0  0  0  0  0  0  0  0  0  0  # atno 17342 bound_to 10162
  140.6796  143.8111  150.7104 LP  0  0  0  0  0  0  0  0  0  0  0  0  # atno 17343 bound_to 10162
  155.9783  130.4767  150.6647 LP  0  0  0  0  0  0  0  0  0  0  0  0  # atno 17370 bound_to 10713
  157.4281  131.0845  151.1066 LP  0  0  0  0  0  0  0  0  0  0  0  0  # atno 17371 bound_to 10713
  140.6238  133.9969  155.7630 LP  0  0  0  0  0  0  0  0  0  0  0  0  # atno 17394 bound_to 11000
  141.0877  133.9965  157.3288 LP  0  0  0  0  0  0  0  0  0  0  0  0  # atno 17395 bound_to 11000

$$$$
