AV-unprocessed.smi:3323|AV-procd|sdf|12777|dock2
  -GOLD-   2272019123D 1   1.00000     0.00000
 Structure written by MMmdl.
 37 38  0  0  0  0  0  0  0  0  1 V2000
  146.0872  142.9231  154.5393 C   0  0  0  0  0  0  0  0  0  0  0  0
  146.7688  141.6911  153.9346 C   0  0  2  0  0  0  0  0  0  0  0  0
  146.1090  140.3792  154.4024 C   0  0  0  0  0  0  0  0  0  0  0  0
  146.8459  139.1429  153.8490 C   0  0  1  0  0  0  0  0  0  0  0  0
  146.6140  138.8825  152.3418 C   0  0  0  0  0  0  0  0  0  0  0  0
  146.7821  137.4746  151.9910 N   0  0  0  0  0  0  0  0  0  0  0  0
  145.7894  136.6140  151.7217 C   0  0  0  0  0  0  0  0  0  0  0  0
  144.5998  136.9285  151.7234 O   0  0  0  0  0  0  0  0  0  0  0  0
  146.2737  135.3889  151.4532 N   0  0  0  0  0  0  0  0  0  0  0  0
  145.5721  134.1897  151.1487 C   0  0  0  0  0  0  0  0  0  0  0  0
  144.1615  134.0677  151.0976 C   0  0  0  0  0  0  0  0  0  0  0  0
  143.5980  132.8126  150.7960 C   0  0  0  0  0  0  0  0  0  0  0  0
  144.4614  131.7250  150.5626 C   0  0  0  0  0  0  0  0  0  0  0  0
  145.8059  131.8239  150.6163 N   0  0  0  0  0  0  0  0  0  0  0  0
  146.3388  133.0300  150.9054 C   0  0  0  0  0  0  0  0  0  0  0  0
  148.3407  139.2795  154.1892 C   0  0  0  0  0  0  0  0  0  0  0  0
  148.9001  140.6463  153.7546 C   0  0  0  0  0  0  0  0  0  0  0  0
  148.1356  141.6968  154.3366 O   0  0  0  0  0  0  0  0  0  0  0  0
  145.0387  142.9738  154.2449 H   0  0  0  0  0  0  0  0  0  0  0  0
  146.5709  143.8404  154.2033 H   0  0  0  0  0  0  0  0  0  0  0  0
  146.1293  142.9035  155.6287 H   0  0  0  0  0  0  0  0  0  0  0  0
  146.7151  141.7714  152.8480 H   0  0  0  0  0  0  0  0  0  0  0  0
  146.1330  140.3429  155.4924 H   0  0  0  0  0  0  0  0  0  0  0  0
  145.0539  140.3642  154.1312 H   0  0  0  0  0  0  0  0  0  0  0  0
  146.4674  138.2681  154.3798 H   0  0  0  0  0  0  0  0  0  0  0  0
  145.6378  139.2492  152.0231 H   0  0  0  0  0  0  0  0  0  0  0  0
  147.3444  139.4470  151.7617 H   0  0  0  0  0  0  0  0  0  0  0  0
  147.7297  137.1276  151.9609 H   0  0  0  0  0  0  0  0  0  0  0  0
  147.2799  135.3081  151.4433 H   0  0  0  0  0  0  0  0  0  0  0  0
  143.4993  134.8962  151.2910 H   0  0  0  0  0  0  0  0  0  0  0  0
  142.5266  132.6859  150.7481 H   0  0  0  0  0  0  0  0  0  0  0  0
  144.0613  130.7490  150.3309 H   0  0  0  0  0  0  0  0  0  0  0  0
  147.4177  133.0697  150.9428 H   0  0  0  0  0  0  0  0  0  0  0  0
  148.4725  139.1751  155.2670 H   0  0  0  0  0  0  0  0  0  0  0  0
  148.9149  138.4723  153.7335 H   0  0  0  0  0  0  0  0  0  0  0  0
  149.9346  140.7456  154.0836 H   0  0  0  0  0  0  0  0  0  0  0  0
  148.9068  140.7451  152.6685 H   0  0  0  0  0  0  0  0  0  0  0  0
  1  2  1  0  0  0  0
  1 19  1  0  0  0  0
  1 20  1  0  0  0  0
  1 21  1  0  0  0  0
  2 18  1  0  0  0  0
  2  3  1  0  0  0  0
  2 22  1  0  0  0  0
  3  4  1  0  0  0  0
  3 23  1  0  0  0  0
  3 24  1  0  0  0  0
  4  5  1  0  0  0  0
  4 16  1  0  0  0  0
  4 25  1  0  0  0  0
  5  6  1  0  0  0  0
  5 26  1  0  0  0  0
  5 27  1  0  0  0  0
  6  7  1  0  0  0  0
  6 28  1  0  0  0  0
  7  8  2  0  0  0  0
  7  9  1  0  0  0  0
  9 10  1  0  0  0  0
  9 29  1  0  0  0  0
 10 15  1  0  0  0  0
 10 11  2  0  0  0  0
 11 12  1  0  0  0  0
 11 30  1  0  0  0  0
 12 13  2  0  0  0  0
 12 31  1  0  0  0  0
 13 14  1  0  0  0  0
 13 32  1  0  0  0  0
 14 15  2  0  0  0  0
 15 33  1  0  0  0  0
 16 17  1  0  0  0  0
 16 34  1  0  0  0  0
 16 35  1  0  0  0  0
 17 18  1  0  0  0  0
 17 36  1  0  0  0  0
 17 37  1  0  0  0  0
M  END
> <s_m_source_file>
AV-unprocessed.smi

> <i_m_source_file_index>
3323

> <i_lp_mmshare_version>
43012

> <i_f3d_flags>
0

> <s_epik_input>
W0NIM11bQ0BASF0xW0NIMl1bQ0BIXShbQ0gyXVtDSDJdTzEpW0NIMl1bTkhdQyg9TylbTkhdYzJbY0hdW2NIXVtjSF1uW2NIXTI=

> <s_epik_cmdline>
J2VwaWtfcHl0aG9uJywgJy1waCcsICc3LjAnLCAnLXRuJywgJzgnLCAnLW1hJywgJzIwMCcsICctbWV0YWxfYmluZGluZycsICctaW1hZScsICc8aW5maWxlLm1hZT4nLCAnLW9tYWUnLCAnPG91dGZpbGUubWFlPic=

> <r_epik_Ionization_Penalty>
0.00485293

> <r_epik_Ionization_Penalty_Charging>
0

> <r_epik_Ionization_Penalty_Neutral>
0.00485293

> <r_epik_State_Penalty>
0.00349083

> <r_epik_Charging_Adjusted_Penalty>
0.00349083

> <i_epik_Tot_Q>
0

> <i_epik_Tot_abs_Q>
0

> <r_epik_Metal_State_Penalty>
-0

> <b_epik_Metal_Only>
0

> <s_lp_Force_Field>
OPLS_2005

> <r_lp_Energy>
13.5955

> <b_lp_Chiralities_Consistent>
1

> <s_lp_Variant>
AV-unprocessed.smi:3323-1

> <Gold.Version>
5.8.1

> <Gold.Id.Protein>
6NUR|6NUR_protein|mol2

> <Gold.PLP.Fitness>
36.5001

> <Gold.PLP.PLP>
-30.4981

> <Gold.PLP.part.hbond>
-1.9562

> <Gold.PLP.part.metal>
0.0000

> <Gold.PLP.part.buried>
-2.7304

> <Gold.PLP.part.nonpolar>
-28.4281

> <Gold.PLP.part.repulsive>
2.0981

> <Gold.PLP.ligand.clash>
0.0000

> <Gold.PLP.ligand.torsion>
0.3590

> <Gold.PLP.Chemscore.Hbond>
1.9120

> <Gold.PLP.Chemscore.CHOScore>
0.3265

> <Gold.PLP.Chemscore.Metal>
0.0000

> <Gold.Chemscore.Hbonds>
donor molecule, donor type, donor heavy atom, donor atom, acceptor molecule, acceptor atom, score
      L1  H     6    28       P1  7948  0.93
      L1  H     9    29       P1  7948  0.91
      L1  C    15    33       P1 10747  0.32

> <Gold.PLP.Chemscore.Internal.Correction>
0.0045

> <Gold.Rescore>
     Score         DG    S(hbond)    S(metal)    S(lipo)     H(rot)  DE(clash)    DE(int)     intcor
     15.00     -16.71       1.91        0.00      68.40       1.23       0.30       1.41       ----

> <Gold.Chemscore.Fitness>
14.9981

> <Gold.Chemscore.DG>
-16.7060

> <Gold.Chemscore.ZeroCoef>
-5.4800

> <Gold.Chemscore.Hbond>
1.9058

> <Gold.Chemscore.Metal>
0.0000

> <Gold.Chemscore.Lipo>
68.3967

> <Gold.Chemscore.Internal_Hbond>
0.0000

> <Gold.Chemscore.DEClash>
0.3000

> <Gold.Chemscore.DEInternal>
1.4079

> <Gold.Chemscore.Rot>
1.2273

> <Gold.Chemscore.Internal.Correction>
   9.000000E+99

> <Gold.Chemscore.Hbonds>
donor molecule, donor type, donor heavy atom, donor atom, acceptor molecule, acceptor atom, score
      L1  H     6    28       P1  7948  0.88
      L1  H     9    29       P1  7948  0.79

> <Gold.Chemscore.Hbond.Weighted>
-6.3654

> <Gold.Chemscore.Metal.Weighted>
-0.0000

> <Gold.Chemscore.Lipo.Weighted>
-8.0024

> <Gold.Chemscore.Internal_Hbond.Weighted>
0.0000

> <Gold.Chemscore.DEClash.Weighted>
0.3000

> <Gold.Chemscore.DEInternal.Weighted>
1.4079

> <Gold.Chemscore.Rot.Weighted>
3.1418

> <Gold.Chemscore.Internal.Correction.Weighted>
   9.000000E+99

> <Gold.Protein.RotatedTorsions>
[ 6907 6896 6895 6894 ] final   -4.60 input  -60.11 | X-H torsion
[ 7974 7965 7964 7962 ] final  101.65 input  175.53 | X-H torsion
[ 8008 7997 7996 7995 ] final  170.64 input   59.86 | X-H torsion
[ 10167 10162 10161 10158 ] final   -6.57 input  -65.29 | X-H torsion
[ 10718 10713 10712 10709 ] final  175.21 input   66.30 | X-H torsion
[ 10763 10752 10751 10750 ] final -176.04 input  -60.55 | X-H torsion
[ 11005 11000 10999 10996 ] final   28.12 input  -57.11 | X-H torsion

> <Gold.Protein.ActiveResidues>
 VAL166  LYS551  ARG553  GLY616  TRP617  ASP618  TYR619  PRO620  LYS621  CYS622 
 ASP623  PHE694  ASN695  SER759  ASP760  ASP761  ALA762  ILE779  LEU786  VAL792 
 PHE793  MET794  SER795  GLU796  ALA797  LYS798  CYS799  TRP800  GLU811  SER814 

> <Gold.Protein.RotatedAtoms>
  151.4950  135.1059  159.9813 H   0  0  0  0  0  0  0  0  0  0  0  0  # atno 6907 bound_to 6896
  152.4725  133.8059  159.6988 H   0  0  0  0  0  0  0  0  0  0  0  0  # atno 6908 bound_to 6896
  150.8743  133.7398  159.2977 H   0  0  0  0  0  0  0  0  0  0  0  0  # atno 6909 bound_to 6896
  145.3695  139.2401  143.3463 H   0  0  0  0  0  0  0  0  0  0  0  0  # atno 7974 bound_to 7965
  156.1346  140.1532  156.9013 H   0  0  0  0  0  0  0  0  0  0  0  0  # atno 8008 bound_to 7997
  154.4937  140.0844  156.7690 H   0  0  0  0  0  0  0  0  0  0  0  0  # atno 8009 bound_to 7997
  155.4192  140.3422  155.4272 H   0  0  0  0  0  0  0  0  0  0  0  0  # atno 8010 bound_to 7997
  140.7001  143.6179  150.8641 H   0  0  0  0  0  0  0  0  0  0  0  0  # atno 10167 bound_to 10162
  156.9383  130.9993  151.2973 H   0  0  0  0  0  0  0  0  0  0  0  0  # atno 10718 bound_to 10713
  154.5772  135.2833  155.0769 H   0  0  0  0  0  0  0  0  0  0  0  0  # atno 10763 bound_to 10752
  154.2119  135.6406  153.5122 H   0  0  0  0  0  0  0  0  0  0  0  0  # atno 10764 bound_to 10752
  153.0076  135.5494  154.6414 H   0  0  0  0  0  0  0  0  0  0  0  0  # atno 10765 bound_to 10752
  140.3190  134.2565  155.7720 H   0  0  0  0  0  0  0  0  0  0  0  0  # atno 11005 bound_to 11000
  146.2891  140.4344  142.8746 LP  0  0  0  0  0  0  0  0  0  0  0  0  # atno 17320 bound_to 7965
  144.8586  140.7107  143.6122 LP  0  0  0  0  0  0  0  0  0  0  0  0  # atno 17321 bound_to 7965
  139.9900  143.5857  152.2913 LP  0  0  0  0  0  0  0  0  0  0  0  0  # atno 17342 bound_to 10162
  139.6509  144.7660  151.2150 LP  0  0  0  0  0  0  0  0  0  0  0  0  # atno 17343 bound_to 10162
  157.5802  130.8371  149.8511 LP  0  0  0  0  0  0  0  0  0  0  0  0  # atno 17370 bound_to 10713
  156.0416  130.3737  150.1422 LP  0  0  0  0  0  0  0  0  0  0  0  0  # atno 17371 bound_to 10713
  141.2091  133.7759  157.0018 LP  0  0  0  0  0  0  0  0  0  0  0  0  # atno 17394 bound_to 11000
  140.0958  134.9565  157.1848 LP  0  0  0  0  0  0  0  0  0  0  0  0  # atno 17395 bound_to 11000

$$$$
