AV-unprocessed.smi:1839|AV-procd|sdf|7485|dock5
  -GOLD-   22720 9183D 1   1.00000     0.00000
 Structure written by MMmdl.
 46 47  0  0  0  0  0  0  0  0  1 V2000
  149.8839  140.5507  156.5691 C   0  0  0  0  0  0  0  0  0  0  0  0
  150.2053  141.4167  157.7037 N   0  0  0  0  0  0  0  0  0  0  0  0
  149.0746  142.2203  158.1840 C   0  0  0  0  0  0  0  0  0  0  0  0
  151.3548  141.2340  158.4005 C   0  0  0  0  0  0  0  0  0  0  0  0
  151.9655  140.1635  158.3843 O   0  0  0  0  0  0  0  0  0  0  0  0
  151.7725  142.2841  159.1471 N   0  0  0  0  0  0  0  0  0  0  0  0
  151.6459  143.6783  158.6985 C   0  0  0  0  0  0  0  0  0  0  0  0
  151.2160  144.5630  159.8813 C   0  0  0  0  0  0  0  0  0  0  0  0
  152.1990  144.4213  161.0558 C   0  0  0  0  0  0  0  0  0  0  0  0
  152.4260  142.9382  161.4250 C   0  0  2  0  0  0  0  0  0  0  0  0
  153.4918  142.7955  162.5195 C   0  0  0  0  0  0  0  0  0  0  0  0
  154.3359  141.9013  162.4520 O   0  0  0  0  0  0  0  0  0  0  0  0
  153.4391  143.6816  163.5258 N   0  0  0  0  0  0  0  0  0  0  0  0
  154.3507  143.7122  164.6637 C   0  0  0  0  0  0  0  0  0  0  0  0
  154.7023  142.2955  165.1490 C   0  0  0  0  0  0  0  0  0  0  0  0
  155.1235  142.2781  166.6061 C   0  0  0  0  0  0  0  0  0  0  0  0
  155.1042  143.4615  167.3748 C   0  0  0  0  0  0  0  0  0  0  0  0
  155.4946  143.3907  168.7260 C   0  0  0  0  0  0  0  0  0  0  0  0
  155.8865  142.1454  169.2543 C   0  0  0  0  0  0  0  0  0  0  0  0
  155.8686  141.0215  168.4044 C   0  0  0  0  0  0  0  0  0  0  0  0
  155.4953  141.0783  167.1076 N   0  0  0  0  0  0  0  0  0  0  0  0
  152.8154  142.1286  160.1678 C   0  0  0  0  0  0  0  0  0  0  0  0
  150.7660  140.3417  155.9618 H   0  0  0  0  0  0  0  0  0  0  0  0
  149.1476  141.0169  155.9131 H   0  0  0  0  0  0  0  0  0  0  0  0
  149.4757  139.6013  156.9179 H   0  0  0  0  0  0  0  0  0  0  0  0
  149.0740  142.3255  159.2700 H   0  0  0  0  0  0  0  0  0  0  0  0
  148.1224  141.7605  157.9163 H   0  0  0  0  0  0  0  0  0  0  0  0
  149.0955  143.2156  157.7404 H   0  0  0  0  0  0  0  0  0  0  0  0
  152.6098  144.0155  158.3139 H   0  0  0  0  0  0  0  0  0  0  0  0
  150.9441  143.7914  157.8717 H   0  0  0  0  0  0  0  0  0  0  0  0
  151.1579  145.6057  159.5676 H   0  0  0  0  0  0  0  0  0  0  0  0
  150.2140  144.2822  160.2070 H   0  0  0  0  0  0  0  0  0  0  0  0
  153.1466  144.8860  160.7782 H   0  0  0  0  0  0  0  0  0  0  0  0
  151.8255  144.9746  161.9183 H   0  0  0  0  0  0  0  0  0  0  0  0
  151.4845  142.5376  161.8061 H   0  0  0  0  0  0  0  0  0  0  0  0
  152.7135  144.3835  163.5034 H   0  0  0  0  0  0  0  0  0  0  0  0
  155.2561  144.2620  164.4016 H   0  0  0  0  0  0  0  0  0  0  0  0
  153.8688  144.2721  165.4657 H   0  0  0  0  0  0  0  0  0  0  0  0
  153.8457  141.6322  165.0193 H   0  0  0  0  0  0  0  0  0  0  0  0
  155.5069  141.8764  164.5433 H   0  0  0  0  0  0  0  0  0  0  0  0
  154.7952  144.4012  166.9407 H   0  0  0  0  0  0  0  0  0  0  0  0
  155.4927  144.2749  169.3461 H   0  0  0  0  0  0  0  0  0  0  0  0
  156.1928  142.0537  170.2859 H   0  0  0  0  0  0  0  0  0  0  0  0
  156.1618  140.0509  168.7765 H   0  0  0  0  0  0  0  0  0  0  0  0
  152.9469  141.0802  160.4438 H   0  0  0  0  0  0  0  0  0  0  0  0
  153.7711  142.4660  159.7623 H   0  0  0  0  0  0  0  0  0  0  0  0
  1  2  1  0  0  0  0
  1 23  1  0  0  0  0
  1 24  1  0  0  0  0
  1 25  1  0  0  0  0
  2  3  1  0  0  0  0
  2  4  1  0  0  0  0
  3 26  1  0  0  0  0
  3 27  1  0  0  0  0
  3 28  1  0  0  0  0
  4  5  2  0  0  0  0
  4  6  1  0  0  0  0
  6 22  1  0  0  0  0
  6  7  1  0  0  0  0
  7  8  1  0  0  0  0
  7 29  1  0  0  0  0
  7 30  1  0  0  0  0
  8  9  1  0  0  0  0
  8 31  1  0  0  0  0
  8 32  1  0  0  0  0
  9 10  1  0  0  0  0
  9 33  1  0  0  0  0
  9 34  1  0  0  0  0
 10 11  1  0  0  0  0
 10 22  1  0  0  0  0
 10 35  1  0  0  0  0
 11 12  2  0  0  0  0
 11 13  1  0  0  0  0
 13 14  1  0  0  0  0
 13 36  1  0  0  0  0
 14 15  1  0  0  0  0
 14 37  1  0  0  0  0
 14 38  1  0  0  0  0
 15 16  1  0  0  0  0
 15 39  1  0  0  0  0
 15 40  1  0  0  0  0
 16 21  1  0  0  0  0
 16 17  2  0  0  0  0
 17 18  1  0  0  0  0
 17 41  1  0  0  0  0
 18 19  2  0  0  0  0
 18 42  1  0  0  0  0
 19 20  1  0  0  0  0
 19 43  1  0  0  0  0
 20 21  2  0  0  0  0
 20 44  1  0  0  0  0
 22 45  1  0  0  0  0
 22 46  1  0  0  0  0
M  END
> <s_m_source_file>
AV-unprocessed.smi

> <i_m_source_file_index>
1839

> <i_lp_mmshare_version>
43012

> <i_f3d_flags>
0

> <s_epik_input>
W0NIM11OKFtDSDNdKUMoPU8pTjFbQ0gyXVtDSDJdW0NIMl1bQ0BIXShbQ0gyXTEpQyg9TylbTkhdW0NIMl1bQ0gyXWMyW2NIXVtjSF1bY0hdW2NIXW4y

> <s_epik_cmdline>
J2VwaWtfcHl0aG9uJywgJy1waCcsICc3LjAnLCAnLXRuJywgJzgnLCAnLW1hJywgJzIwMCcsICctbWV0YWxfYmluZGluZycsICctaW1hZScsICc8aW5maWxlLm1hZT4nLCAnLW9tYWUnLCAnPG91dGZpbGUubWFlPic=

> <r_epik_Ionization_Penalty>
0.0268631

> <r_epik_Ionization_Penalty_Charging>
0

> <r_epik_Ionization_Penalty_Neutral>
0.0268631

> <r_epik_State_Penalty>
0.0219025

> <r_epik_Charging_Adjusted_Penalty>
0.0219025

> <i_epik_Tot_Q>
0

> <i_epik_Tot_abs_Q>
0

> <r_epik_Metal_State_Penalty>
0.0209511

> <b_epik_Metal_Only>
0

> <s_lp_Force_Field>
OPLS_2005

> <r_lp_Energy>
47.8256

> <b_lp_Chiralities_Consistent>
1

> <s_lp_Variant>
AV-unprocessed.smi:1839-2

> <Gold.Version>
5.8.1

> <Gold.Id.Protein>
6NUR|6NUR_protein|mol2

> <Gold.PLP.Fitness>
45.3895

> <Gold.PLP.PLP>
-46.8451

> <Gold.PLP.part.hbond>
-1.0000

> <Gold.PLP.part.metal>
0.0000

> <Gold.PLP.part.buried>
-6.5577

> <Gold.PLP.part.nonpolar>
-38.8144

> <Gold.PLP.part.repulsive>
0.1309

> <Gold.PLP.ligand.clash>
0.0000

> <Gold.PLP.ligand.torsion>
1.3877

> <Gold.PLP.Chemscore.Hbond>
0.0000

> <Gold.PLP.Chemscore.CHOScore>
0.0000

> <Gold.PLP.Chemscore.Metal>
0.0000

> <Gold.PLP.Chemscore.Internal.Correction>
1.3197

> <Gold.Rescore>
     Score         DG    S(hbond)    S(metal)    S(lipo)     H(rot)  DE(clash)    DE(int)     intcor
     10.53     -15.31       0.00        0.00     117.15       1.52       0.72       4.06       ----

> <Gold.Chemscore.Fitness>
10.5297

> <Gold.Chemscore.DG>
-15.3073

> <Gold.Chemscore.ZeroCoef>
-5.4800

> <Gold.Chemscore.Hbond>
0.0000

> <Gold.Chemscore.Metal>
0.0000

> <Gold.Chemscore.Lipo>
117.1528

> <Gold.Chemscore.Internal_Hbond>
0.0000

> <Gold.Chemscore.DEClash>
0.7169

> <Gold.Chemscore.DEInternal>
4.0607

> <Gold.Chemscore.Rot>
1.5155

> <Gold.Chemscore.Internal.Correction>
   9.000000E+99

> <Gold.Chemscore.Hbond.Weighted>
-0.0000

> <Gold.Chemscore.Metal.Weighted>
-0.0000

> <Gold.Chemscore.Lipo.Weighted>
-13.7069

> <Gold.Chemscore.Internal_Hbond.Weighted>
0.0000

> <Gold.Chemscore.DEClash.Weighted>
0.7169

> <Gold.Chemscore.DEInternal.Weighted>
4.0607

> <Gold.Chemscore.Rot.Weighted>
3.8796

> <Gold.Chemscore.Internal.Correction.Weighted>
   9.000000E+99

> <Gold.Protein.RotatedTorsions>
[ 6907 6896 6895 6894 ] final   56.44 input  -60.11 | X-H torsion
[ 7974 7965 7964 7962 ] final -134.14 input  175.53 | X-H torsion
[ 8008 7997 7996 7995 ] final   38.86 input   59.86 | X-H torsion
[ 10167 10162 10161 10158 ] final   47.73 input  -65.29 | X-H torsion
[ 10718 10713 10712 10709 ] final  -85.04 input   66.30 | X-H torsion
[ 10763 10752 10751 10750 ] final   72.10 input  -60.55 | X-H torsion
[ 11005 11000 10999 10996 ] final  -99.15 input  -57.11 | X-H torsion

> <Gold.Protein.ActiveResidues>
 VAL166  LYS551  ARG553  GLY616  TRP617  ASP618  TYR619  PRO620  LYS621  CYS622 
 ASP623  PHE694  ASN695  SER759  ASP760  ASP761  ALA762  ILE779  LEU786  VAL792 
 PHE793  MET794  SER795  GLU796  ALA797  LYS798  CYS799  TRP800  GLU811  SER814 

> <Gold.Protein.RotatedAtoms>
  152.3636  134.6837  160.0198 H   0  0  0  0  0  0  0  0  0  0  0  0  # atno 6907 bound_to 6896
  151.7152  133.3307  159.3309 H   0  0  0  0  0  0  0  0  0  0  0  0  # atno 6908 bound_to 6896
  150.7622  134.6431  159.6292 H   0  0  0  0  0  0  0  0  0  0  0  0  # atno 6909 bound_to 6896
  144.9129  140.6918  143.5013 H   0  0  0  0  0  0  0  0  0  0  0  0  # atno 7974 bound_to 7965
  155.2271  140.3335  155.4308 H   0  0  0  0  0  0  0  0  0  0  0  0  # atno 8008 bound_to 7997
  156.2310  140.1850  156.7289 H   0  0  0  0  0  0  0  0  0  0  0  0  # atno 8009 bound_to 7997
  154.5978  140.0628  156.9312 H   0  0  0  0  0  0  0  0  0  0  0  0  # atno 8010 bound_to 7997
  140.3006  144.2939  150.6220 H   0  0  0  0  0  0  0  0  0  0  0  0  # atno 10167 bound_to 10162
  156.0000  130.4718  150.4501 H   0  0  0  0  0  0  0  0  0  0  0  0  # atno 10718 bound_to 10713
  153.0438  135.5112  154.7692 H   0  0  0  0  0  0  0  0  0  0  0  0  # atno 10763 bound_to 10752
  154.6609  135.2938  154.9870 H   0  0  0  0  0  0  0  0  0  0  0  0  # atno 10764 bound_to 10752
  154.0722  135.6676  153.4878 H   0  0  0  0  0  0  0  0  0  0  0  0  # atno 10765 bound_to 10752
  141.1319  133.8300  157.0934 H   0  0  0  0  0  0  0  0  0  0  0  0  # atno 11005 bound_to 11000
  145.3424  139.1728  143.4478 LP  0  0  0  0  0  0  0  0  0  0  0  0  # atno 17320 bound_to 7965
  146.3167  140.3466  142.8652 LP  0  0  0  0  0  0  0  0  0  0  0  0  # atno 17321 bound_to 7965
  140.5654  143.2187  151.7692 LP  0  0  0  0  0  0  0  0  0  0  0  0  # atno 17342 bound_to 10162
  139.4916  144.4290  151.9893 LP  0  0  0  0  0  0  0  0  0  0  0  0  # atno 17343 bound_to 10162
  157.2535  131.0551  151.2364 LP  0  0  0  0  0  0  0  0  0  0  0  0  # atno 17370 bound_to 10713
  157.3505  130.7079  149.6438 LP  0  0  0  0  0  0  0  0  0  0  0  0  # atno 17371 bound_to 10713
  140.0378  134.9869  157.0904 LP  0  0  0  0  0  0  0  0  0  0  0  0  # atno 17394 bound_to 11000
  140.4183  134.1908  155.7164 LP  0  0  0  0  0  0  0  0  0  0  0  0  # atno 17395 bound_to 11000

$$$$
