AV-unprocessed.smi:2848|AV-procd|sdf|10955|dock1
  -GOLD-   2272015413D 1   1.00000     0.00000
 Structure written by MMmdl.
 27 28  0  0  0  0  0  0  0  0  2 V2000
  147.2275  142.2794  154.1521 Cl  0  0  0  0  0  0  0  0  0  0  0  0
  148.2559  140.8904  154.2072 C   0  0  0  0  0  0  0  0  0  0  0  0
  147.8968  139.7390  153.4766 C   0  0  0  0  0  0  0  0  0  0  0  0
  148.6868  138.6449  153.5086 N   0  3  0  0  0  0  0  0  0  0  0  0
  149.8324  138.5939  154.2204 C   0  0  0  0  0  0  0  0  0  0  0  0
  150.2451  139.7138  154.9705 C   0  0  0  0  0  0  0  0  0  0  0  0
  149.4492  140.8868  154.9713 C   0  0  0  0  0  0  0  0  0  0  0  0
  149.8006  142.0327  155.7011 N   0  0  0  0  0  0  0  0  0  0  0  0
  151.0585  142.1114  156.4294 C   0  0  0  0  0  0  0  0  0  0  0  0
  150.9803  143.0198  157.6399 C   0  0  0  0  0  0  0  0  0  0  0  0
  150.0506  142.9126  158.6117 C   0  0  0  0  0  0  0  0  0  0  0  0
  150.0409  143.6940  159.7392 O   0  0  0  0  0  0  0  0  0  0  0  0
  151.2441  144.4224  159.9587 C   0  0  0  0  0  0  0  0  0  0  0  0
  151.7656  145.0126  158.6381 C   0  0  0  0  0  0  0  0  0  0  0  0
  151.9546  143.9902  157.6641 O   0  0  0  0  0  0  0  0  0  0  0  0
  147.0054  139.6613  152.8713 H   0  0  0  0  0  0  0  0  0  0  0  0
  150.3815  137.6648  154.1699 H   0  0  0  0  0  0  0  0  0  0  0  0
  151.1642  139.6530  155.5337 H   0  0  0  0  0  0  0  0  0  0  0  0
  149.2803  142.8870  155.5559 H   0  0  0  0  0  0  0  0  0  0  0  0
  151.3441  141.1178  156.7756 H   0  0  0  0  0  0  0  0  0  0  0  0
  151.8434  142.4669  155.7604 H   0  0  0  0  0  0  0  0  0  0  0  0
  149.2646  142.1718  158.6244 H   0  0  0  0  0  0  0  0  0  0  0  0
  151.0557  145.2149  160.6831 H   0  0  0  0  0  0  0  0  0  0  0  0
  151.9897  143.7578  160.3973 H   0  0  0  0  0  0  0  0  0  0  0  0
  151.0606  145.7480  158.2480 H   0  0  0  0  0  0  0  0  0  0  0  0
  152.7111  145.5305  158.7991 H   0  0  0  0  0  0  0  0  0  0  0  0
  148.4062  137.8230  152.9729 H   0  0  0  0  0  0  0  0  0  0  0  0
  1  2  1  0  0  0  0
  2  7  1  0  0  0  0
  2  3  2  0  0  0  0
  3  4  1  0  0  0  0
  3 16  1  0  0  0  0
  4  5  2  0  0  0  0
  4 27  1  0  0  0  0
  5  6  1  0  0  0  0
  5 17  1  0  0  0  0
  6  7  2  0  0  0  0
  6 18  1  0  0  0  0
  7  8  1  0  0  0  0
  8  9  1  0  0  0  0
  8 19  1  0  0  0  0
  9 10  1  0  0  0  0
  9 20  1  0  0  0  0
  9 21  1  0  0  0  0
 10 15  1  0  0  0  0
 10 11  2  0  0  0  0
 11 12  1  0  0  0  0
 11 22  1  0  0  0  0
 12 13  1  0  0  0  0
 13 14  1  0  0  0  0
 13 23  1  0  0  0  0
 13 24  1  0  0  0  0
 14 15  1  0  0  0  0
 14 25  1  0  0  0  0
 14 26  1  0  0  0  0
M  CHG  1   4   1
M  END
> <s_m_source_file>
AV-unprocessed.smi

> <i_m_source_file_index>
2848

> <i_lp_mmshare_version>
43012

> <i_f3d_flags>
0

> <s_epik_input>
Q2xjMVtjSF1uW2NIXVtjSF1jMVtOSF1bQ0gyXUMyPVtDSF1PW0NIMl1bQ0gyXU8y

> <s_epik_cmdline>
J2VwaWtfcHl0aG9uJywgJy1waCcsICc3LjAnLCAnLXRuJywgJzgnLCAnLW1hJywgJzIwMCcsICctbWV0YWxfYmluZGluZycsICctaW1hZScsICc8aW5maWxlLm1hZT4nLCAnLW9tYWUnLCAnPG91dGZpbGUubWFlPic=

> <r_lp_tautomer_probability>
1

> <r_epik_Ionization_Penalty>
0.0834524

> <r_epik_Ionization_Penalty_Charging>
0.0831652

> <r_epik_Ionization_Penalty_Neutral>
0.000287151

> <r_epik_State_Penalty>
0.0738416

> <r_epik_Charging_Adjusted_Penalty>
0.157007

> <i_epik_Tot_Q>
1

> <i_epik_Tot_abs_Q>
1

> <r_epik_Metal_State_Penalty>
2.9007

> <b_epik_Metal_Only>
0

> <s_lp_Force_Field>
OPLS_2005

> <r_lp_Energy>
8.04075

> <b_lp_Chiralities_Consistent>
1

> <s_lp_Variant>
AV-unprocessed.smi:2848-1

> <Gold.Version>
5.8.1

> <Gold.Id.Protein>
6NUR|6NUR_protein|mol2

> <Gold.PLP.Fitness>
42.7129

> <Gold.PLP.PLP>
-34.1801

> <Gold.PLP.part.hbond>
-4.0000

> <Gold.PLP.part.metal>
0.0000

> <Gold.PLP.part.buried>
-1.9823

> <Gold.PLP.part.nonpolar>
-27.9621

> <Gold.PLP.part.repulsive>
0.4372

> <Gold.PLP.ligand.clash>
0.0000

> <Gold.PLP.ligand.torsion>
0.2365

> <Gold.PLP.Chemscore.Hbond>
3.0000

> <Gold.PLP.Chemscore.CHOScore>
0.0000

> <Gold.PLP.Chemscore.Metal>
0.0000

> <Gold.Chemscore.Hbonds>
donor molecule, donor type, donor heavy atom, donor atom, acceptor molecule, acceptor atom, score
      L1  H     4    27       P1  7948  1.89
      L1  H     8    19       P1  8028  1.00

> <Gold.PLP.Chemscore.Internal.Correction>
0.0058

> <Gold.Rescore>
     Score         DG    S(hbond)    S(metal)    S(lipo)     H(rot)  DE(clash)    DE(int)     intcor
     18.69     -18.99       1.96        0.00      86.26       1.22       0.10       0.20       ----

> <Gold.Chemscore.Fitness>
18.6910

> <Gold.Chemscore.DG>
-18.9894

> <Gold.Chemscore.ZeroCoef>
-5.4800

> <Gold.Chemscore.Hbond>
1.9587

> <Gold.Chemscore.Metal>
0.0000

> <Gold.Chemscore.Lipo>
86.2582

> <Gold.Chemscore.Internal_Hbond>
0.0000

> <Gold.Chemscore.DEClash>
0.0998

> <Gold.Chemscore.DEInternal>
0.1986

> <Gold.Chemscore.Rot>
1.2206

> <Gold.Chemscore.Internal.Correction>
   9.000000E+99

> <Gold.Chemscore.Hbonds>
donor molecule, donor type, donor heavy atom, donor atom, acceptor molecule, acceptor atom, score
      L1  H     4    27       P1  7948  0.87
      L1  H     8    19       P1  8028  0.99

> <Gold.Chemscore.Hbond.Weighted>
-6.5419

> <Gold.Chemscore.Metal.Weighted>
-0.0000

> <Gold.Chemscore.Lipo.Weighted>
-10.0922

> <Gold.Chemscore.Internal_Hbond.Weighted>
0.0000

> <Gold.Chemscore.DEClash.Weighted>
0.0998

> <Gold.Chemscore.DEInternal.Weighted>
0.1986

> <Gold.Chemscore.Rot.Weighted>
3.1247

> <Gold.Chemscore.Internal.Correction.Weighted>
   9.000000E+99

> <Gold.Protein.RotatedTorsions>
[ 6907 6896 6895 6894 ] final  -93.13 input  -60.11 | X-H torsion
[ 7974 7965 7964 7962 ] final  -55.85 input  175.53 | X-H torsion
[ 8008 7997 7996 7995 ] final  101.70 input   59.86 | X-H torsion
[ 10167 10162 10161 10158 ] final   78.99 input  -65.29 | X-H torsion
[ 10718 10713 10712 10709 ] final    7.56 input   66.30 | X-H torsion
[ 10763 10752 10751 10750 ] final  174.03 input  -60.55 | X-H torsion
[ 11005 11000 10999 10996 ] final  -69.70 input  -57.11 | X-H torsion

> <Gold.Protein.ActiveResidues>
 VAL166  LYS551  ARG553  GLY616  TRP617  ASP618  TYR619  PRO620  LYS621  CYS622 
 ASP623  PHE694  ASN695  SER759  ASP760  ASP761  ALA762  ILE779  LEU786  VAL792 
 PHE793  MET794  SER795  GLU796  ALA797  LYS798  CYS799  TRP800  GLU811  SER814 

> <Gold.Protein.RotatedAtoms>
  150.6917  134.2014  159.4323 H   0  0  0  0  0  0  0  0  0  0  0  0  # atno 6907 bound_to 6896
  151.9980  134.9941  160.0573 H   0  0  0  0  0  0  0  0  0  0  0  0  # atno 6908 bound_to 6896
  152.1605  133.4544  159.4895 H   0  0  0  0  0  0  0  0  0  0  0  0  # atno 6909 bound_to 6896
  145.8694  140.8227  142.9896 H   0  0  0  0  0  0  0  0  0  0  0  0  # atno 7974 bound_to 7965
  156.1324  140.3193  155.8369 H   0  0  0  0  0  0  0  0  0  0  0  0  # atno 8008 bound_to 7997
  155.4307  140.0518  157.3036 H   0  0  0  0  0  0  0  0  0  0  0  0  # atno 8009 bound_to 7997
  154.4910  140.2092  155.9562 H   0  0  0  0  0  0  0  0  0  0  0  0  # atno 8010 bound_to 7997
  139.9651  144.5934  150.8036 H   0  0  0  0  0  0  0  0  0  0  0  0  # atno 10167 bound_to 10162
  156.9388  130.5853  149.5652 H   0  0  0  0  0  0  0  0  0  0  0  0  # atno 10718 bound_to 10713
  154.4483  135.2764  155.1799 H   0  0  0  0  0  0  0  0  0  0  0  0  # atno 10763 bound_to 10752
  154.3637  135.6124  153.5707 H   0  0  0  0  0  0  0  0  0  0  0  0  # atno 10764 bound_to 10752
  152.9845  135.5840  154.4822 H   0  0  0  0  0  0  0  0  0  0  0  0  # atno 10765 bound_to 10752
  141.1559  133.6771  156.6639 H   0  0  0  0  0  0  0  0  0  0  0  0  # atno 11005 bound_to 11000
  144.6726  140.1216  143.7449 LP  0  0  0  0  0  0  0  0  0  0  0  0  # atno 17320 bound_to 7965
  145.9155  139.2513  143.1412 LP  0  0  0  0  0  0  0  0  0  0  0  0  # atno 17321 bound_to 7965
  140.7540  143.3020  151.3057 LP  0  0  0  0  0  0  0  0  0  0  0  0  # atno 17342 bound_to 10162
  139.6524  144.0338  152.2636 LP  0  0  0  0  0  0  0  0  0  0  0  0  # atno 17343 bound_to 10162
  156.0414  130.5496  150.8779 LP  0  0  0  0  0  0  0  0  0  0  0  0  # atno 17370 bound_to 10713
  157.5799  131.0946  150.9288 LP  0  0  0  0  0  0  0  0  0  0  0  0  # atno 17371 bound_to 10713
  140.3226  134.7995  157.4264 LP  0  0  0  0  0  0  0  0  0  0  0  0  # atno 17394 bound_to 11000
  140.1084  134.5379  155.8288 LP  0  0  0  0  0  0  0  0  0  0  0  0  # atno 17395 bound_to 11000

$$$$
