AV-unprocessed.smi:470|AV-procd|sdf|2657|dock5
  -GOLD-   2262023 73D 1   1.00000     0.00000
 Structure written by MMmdl.
 32 33  0  0  0  0  0  0  0  0  2 V2000
  152.8660  138.7430  154.9937 N   0  0  0  0  0  0  0  0  0  0  0  0
  151.7963  138.0080  154.6752 C   0  0  0  0  0  0  0  0  0  0  0  0
  151.7054  136.8186  154.9728 O   0  0  0  0  0  0  0  0  0  0  0  0
  150.6603  138.7093  153.9259 C   0  0  0  0  0  0  0  0  0  0  0  0
  150.1023  139.8344  154.7486 C   0  0  0  0  0  0  0  0  0  0  0  0
  149.1293  140.7258  154.3773 C   0  0  0  0  0  0  0  0  0  0  0  0
  148.7963  141.8769  155.6390 S   0  0  0  0  0  0  0  0  0  0  0  0
  150.0253  141.1121  156.6480 C   0  0  0  0  0  0  0  0  0  0  0  0
  150.3552  141.5005  157.8919 N   0  5  0  0  0  0  0  0  0  0  0  0
  150.4794  142.7985  158.2913 C   0  0  0  0  0  0  0  0  0  0  0  0
  149.5444  143.4952  158.6813 O   0  0  0  0  0  0  0  0  0  0  0  0
  151.9060  143.4241  158.2387 C   0  0  1  0  0  0  0  0  0  0  0  0
  151.9083  144.9041  158.6975 C   0  0  0  0  0  0  0  0  0  0  0  0
  152.0007  145.0698  160.2040 C   0  0  0  0  0  0  0  0  0  0  0  0
  152.4155  144.1000  161.0353 C   0  0  0  0  0  0  0  0  0  0  0  0
  152.8341  142.7173  160.5722 C   0  0  0  0  0  0  0  0  0  0  0  0
  152.9599  142.6133  159.0356 C   0  0  0  0  0  0  0  0  0  0  0  0
  150.5780  140.0539  156.0444 N   0  0  0  0  0  0  0  0  0  0  0  0
  153.6466  138.3160  155.4701 H   0  0  0  0  0  0  0  0  0  0  0  0
  152.8966  139.7197  154.7377 H   0  0  0  0  0  0  0  0  0  0  0  0
  151.0331  139.0835  152.9717 H   0  0  0  0  0  0  0  0  0  0  0  0
  149.8860  137.9786  153.6883 H   0  0  0  0  0  0  0  0  0  0  0  0
  148.5936  140.7775  153.4414 H   0  0  0  0  0  0  0  0  0  0  0  0
  152.2709  143.3996  157.2130 H   0  0  0  0  0  0  0  0  0  0  0  0
  152.7475  145.4339  158.2463 H   0  0  0  0  0  0  0  0  0  0  0  0
  151.0073  145.4145  158.3579 H   0  0  0  0  0  0  0  0  0  0  0  0
  151.7334  146.0377  160.6020 H   0  0  0  0  0  0  0  0  0  0  0  0
  152.4531  144.2868  162.0982 H   0  0  0  0  0  0  0  0  0  0  0  0
  153.7859  142.4591  161.0367 H   0  0  0  0  0  0  0  0  0  0  0  0
  152.1062  141.9994  160.9497 H   0  0  0  0  0  0  0  0  0  0  0  0
  152.9405  141.5648  158.7353 H   0  0  0  0  0  0  0  0  0  0  0  0
  153.9468  142.9795  158.7501 H   0  0  0  0  0  0  0  0  0  0  0  0
  1  2  1  0  0  0  0
  1 19  1  0  0  0  0
  1 20  1  0  0  0  0
  2  3  2  0  0  0  0
  2  4  1  0  0  0  0
  4  5  1  0  0  0  0
  4 21  1  0  0  0  0
  4 22  1  0  0  0  0
  5 18  1  0  0  0  0
  5  6  2  0  0  0  0
  6  7  1  0  0  0  0
  6 23  1  0  0  0  0
  7  8  1  0  0  0  0
  8  9  1  0  0  0  0
  8 18  2  0  0  0  0
  9 10  1  0  0  0  0
 10 11  2  0  0  0  0
 10 12  1  0  0  0  0
 12 17  1  0  0  0  0
 12 13  1  0  0  0  0
 12 24  1  0  0  0  0
 13 14  1  0  0  0  0
 13 25  1  0  0  0  0
 13 26  1  0  0  0  0
 14 15  2  0  0  0  0
 14 27  1  0  0  0  0
 15 16  1  0  0  0  0
 15 28  1  0  0  0  0
 16 17  1  0  0  0  0
 16 29  1  0  0  0  0
 16 30  1  0  0  0  0
 17 31  1  0  0  0  0
 17 32  1  0  0  0  0
M  CHG  1   9  -1
M  END
> <s_m_source_file>
AV-unprocessed.smi

> <i_m_source_file_index>
470

> <i_lp_mmshare_version>
43012

> <i_f3d_flags>
0

> <s_epik_input>
W05IMl1DKD1PKVtDSDJdYzFbY0hdc2MobjEpW05IXUMoPU8pW0NAQEhdMltDSDJdW0NIXT1bQ0hdW0NIMl1bQ0gyXTI=

> <s_epik_cmdline>
J2VwaWtfcHl0aG9uJywgJy1waCcsICc3LjAnLCAnLXRuJywgJzgnLCAnLW1hJywgJzIwMCcsICctbWV0YWxfYmluZGluZycsICctaW1hZScsICc8aW5maWxlLm1hZT4nLCAnLW9tYWUnLCAnPG91dGZpbGUubWFlPic=

> <r_lp_tautomer_probability>
1

> <r_epik_Ionization_Penalty>
4.98985

> <r_epik_Ionization_Penalty_Charging>
4.63309

> <r_epik_Ionization_Penalty_Neutral>
0.356756

> <r_epik_State_Penalty>
4.63286

> <r_epik_Charging_Adjusted_Penalty>
9.26595

> <i_epik_Tot_Q>
-1

> <i_epik_Tot_abs_Q>
1

> <r_epik_Metal_State_Penalty>
0.88943

> <b_epik_Metal_Only>
1

> <s_lp_Force_Field>
OPLS_2005

> <r_lp_Energy>
8.68361

> <b_lp_Chiralities_Consistent>
1

> <s_lp_Variant>
AV-unprocessed.smi:470-4

> <Gold.Version>
5.8.1

> <Gold.Id.Protein>
6NUR|6NUR_protein|mol2

> <Gold.PLP.Fitness>
44.4551

> <Gold.PLP.PLP>
-40.5848

> <Gold.PLP.part.hbond>
-1.0000

> <Gold.PLP.part.metal>
0.0000

> <Gold.PLP.part.buried>
-3.4741

> <Gold.PLP.part.nonpolar>
-36.4577

> <Gold.PLP.part.repulsive>
0.6345

> <Gold.PLP.ligand.clash>
0.0000

> <Gold.PLP.ligand.torsion>
1.0926

> <Gold.PLP.Chemscore.Hbond>
1.0000

> <Gold.PLP.Chemscore.CHOScore>
1.0000

> <Gold.PLP.Chemscore.Metal>
0.0000

> <Gold.Chemscore.Hbonds>
donor molecule, donor type, donor heavy atom, donor atom, acceptor molecule, acceptor atom, score
      P1  H 10752 10764       L1     3  0.86
      L1  C     6    23       P1  7957  0.73

> <Gold.PLP.Chemscore.Internal.Correction>
0.0554

> <Gold.Rescore>
     Score         DG    S(hbond)    S(metal)    S(lipo)     H(rot)  DE(clash)    DE(int)     intcor
     13.56     -15.72       0.84        0.00     104.32       1.87       0.80       1.35       ----

> <Gold.Chemscore.Fitness>
13.5624

> <Gold.Chemscore.DG>
-15.7172

> <Gold.Chemscore.ZeroCoef>
-5.4800

> <Gold.Chemscore.Hbond>
0.8433

> <Gold.Chemscore.Metal>
0.0000

> <Gold.Chemscore.Lipo>
104.3156

> <Gold.Chemscore.Internal_Hbond>
0.0000

> <Gold.Chemscore.DEClash>
0.8029

> <Gold.Chemscore.DEInternal>
1.3519

> <Gold.Chemscore.Rot>
1.8689

> <Gold.Chemscore.Internal.Correction>
   9.000000E+99

> <Gold.Chemscore.Hbonds>
donor molecule, donor type, donor heavy atom, donor atom, acceptor molecule, acceptor atom, score
      P1  H 10752 10764       L1     3  0.85

> <Gold.Chemscore.Hbond.Weighted>
-2.8167

> <Gold.Chemscore.Metal.Weighted>
-0.0000

> <Gold.Chemscore.Lipo.Weighted>
-12.2049

> <Gold.Chemscore.Internal_Hbond.Weighted>
0.0000

> <Gold.Chemscore.DEClash.Weighted>
0.8029

> <Gold.Chemscore.DEInternal.Weighted>
1.3519

> <Gold.Chemscore.Rot.Weighted>
4.7844

> <Gold.Chemscore.Internal.Correction.Weighted>
   9.000000E+99

> <Gold.Protein.RotatedTorsions>
[ 6907 6896 6895 6894 ] final  153.27 input  -60.11 | X-H torsion
[ 7974 7965 7964 7962 ] final  -11.16 input  175.53 | X-H torsion
[ 8008 7997 7996 7995 ] final  -92.03 input   59.86 | X-H torsion
[ 10167 10162 10161 10158 ] final -104.52 input  -65.29 | X-H torsion
[ 10718 10713 10712 10709 ] final -139.25 input   66.30 | X-H torsion
[ 10763 10752 10751 10750 ] final  -38.67 input  -60.55 | X-H torsion
[ 11005 11000 10999 10996 ] final -175.61 input  -57.11 | X-H torsion

> <Gold.Protein.ActiveResidues>
 VAL166  LYS551  ARG553  GLY616  TRP617  ASP618  TYR619  PRO620  LYS621  CYS622 
 ASP623  PHE694  ASN695  SER759  ASP760  ASP761  ALA762  ILE779  LEU786  VAL792 
 PHE793  MET794  SER795  GLU796  ALA797  LYS798  CYS799  TRP800  GLU811  SER814 

> <Gold.Protein.RotatedAtoms>
  152.0750  133.4125  159.4475 H   0  0  0  0  0  0  0  0  0  0  0  0  # atno 6907 bound_to 6896
  150.6863  134.3047  159.4730 H   0  0  0  0  0  0  0  0  0  0  0  0  # atno 6908 bound_to 6896
  152.0883  134.9424  160.0623 H   0  0  0  0  0  0  0  0  0  0  0  0  # atno 6909 bound_to 6896
  146.2197  140.2870  142.8366 H   0  0  0  0  0  0  0  0  0  0  0  0  # atno 7974 bound_to 7965
  154.7181  140.0513  157.0614 H   0  0  0  0  0  0  0  0  0  0  0  0  # atno 8008 bound_to 7997
  155.0464  140.3174  155.4688 H   0  0  0  0  0  0  0  0  0  0  0  0  # atno 8009 bound_to 7997
  156.2809  140.2123  156.5589 H   0  0  0  0  0  0  0  0  0  0  0  0  # atno 8010 bound_to 7997
  140.2084  143.3765  152.1071 H   0  0  0  0  0  0  0  0  0  0  0  0  # atno 10167 bound_to 10162
  156.3086  130.7469  151.1539 H   0  0  0  0  0  0  0  0  0  0  0  0  # atno 10718 bound_to 10713
  153.9168  135.6786  153.4749 H   0  0  0  0  0  0  0  0  0  0  0  0  # atno 10763 bound_to 10752
  153.1049  135.4810  154.8931 H   0  0  0  0  0  0  0  0  0  0  0  0  # atno 10764 bound_to 10752
  154.7499  135.3182  154.8533 H   0  0  0  0  0  0  0  0  0  0  0  0  # atno 10765 bound_to 10752
  140.4613  134.6252  157.4844 H   0  0  0  0  0  0  0  0  0  0  0  0  # atno 11005 bound_to 11000
  144.9155  140.7807  143.5781 LP  0  0  0  0  0  0  0  0  0  0  0  0  # atno 17320 bound_to 7965
  145.2803  139.1921  143.4794 LP  0  0  0  0  0  0  0  0  0  0  0  0  # atno 17321 bound_to 7965
  139.5190  144.7013  151.5485 LP  0  0  0  0  0  0  0  0  0  0  0  0  # atno 17342 bound_to 10162
  140.6341  143.9018  150.6631 LP  0  0  0  0  0  0  0  0  0  0  0  0  # atno 17343 bound_to 10162
  157.7385  131.0539  150.5288 LP  0  0  0  0  0  0  0  0  0  0  0  0  # atno 17370 bound_to 10713
  156.5425  130.4211  149.6147 LP  0  0  0  0  0  0  0  0  0  0  0  0  # atno 17371 bound_to 10713
  139.9943  134.6935  155.9636 LP  0  0  0  0  0  0  0  0  0  0  0  0  # atno 17394 bound_to 11000
  141.1620  133.6538  156.4350 LP  0  0  0  0  0  0  0  0  0  0  0  0  # atno 17395 bound_to 11000

$$$$
