AV-unprocessed.smi:1494|AV-procd|sdf|6052|dock5
  -GOLD-   22720 6173D 1   1.00000     0.00000
 Structure written by MMmdl.
 30 31  0  0  0  0  0  0  0  0  1 V2000
  151.2381  141.4655  157.5326 O   0  0  0  0  0  0  0  0  0  0  0  0
  150.6897  142.4149  156.9736 C   0  0  0  0  0  0  0  0  0  0  0  0
  151.0255  143.6941  157.1913 N   0  0  0  0  0  0  0  0  0  0  0  0
  152.0607  144.1446  158.1140 C   0  0  0  0  0  0  0  0  0  0  0  0
  151.7011  143.8078  159.5585 C   0  0  0  0  0  0  0  0  0  0  0  0
  151.9878  144.8235  160.6753 C   0  0  0  0  0  0  0  0  0  0  0  0
  152.2981  143.6457  161.6024 C   0  0  0  0  0  0  0  0  0  0  0  0
  152.5688  142.8144  160.3453 C   0  0  0  0  0  0  0  0  0  0  0  0
  149.7004  142.3232  156.0684 N   0  0  0  0  0  0  0  0  0  0  0  0
  149.0766  141.1592  155.5423 C   0  0  0  0  0  0  0  0  0  0  0  0
  147.9175  141.1671  154.7284 C   0  0  0  0  0  0  0  0  0  0  0  0
  147.4057  139.9403  154.2633 C   0  0  0  0  0  0  0  0  0  0  0  0
  148.0731  138.7529  154.6213 C   0  0  0  0  0  0  0  0  0  0  0  0
  149.1863  138.7314  155.3840 N   0  0  0  0  0  0  0  0  0  0  0  0
  149.6711  139.9113  155.8261 C   0  0  0  0  0  0  0  0  0  0  0  0
  150.5244  144.4104  156.6863 H   0  0  0  0  0  0  0  0  0  0  0  0
  153.0224  143.7059  157.8440 H   0  0  0  0  0  0  0  0  0  0  0  0
  152.1732  145.2221  157.9918 H   0  0  0  0  0  0  0  0  0  0  0  0
  150.6591  143.4891  159.6349 H   0  0  0  0  0  0  0  0  0  0  0  0
  152.8637  145.4419  160.4718 H   0  0  0  0  0  0  0  0  0  0  0  0
  151.1298  145.4273  160.9723 H   0  0  0  0  0  0  0  0  0  0  0  0
  153.1622  143.7897  162.2519 H   0  0  0  0  0  0  0  0  0  0  0  0
  151.4236  143.3020  162.1573 H   0  0  0  0  0  0  0  0  0  0  0  0
  152.1815  141.7957  160.3782 H   0  0  0  0  0  0  0  0  0  0  0  0
  153.6181  142.8359  160.0455 H   0  0  0  0  0  0  0  0  0  0  0  0
  149.3973  143.1946  155.6585 H   0  0  0  0  0  0  0  0  0  0  0  0
  147.4188  142.0793  154.4415 H   0  0  0  0  0  0  0  0  0  0  0  0
  146.5224  139.9112  153.6429 H   0  0  0  0  0  0  0  0  0  0  0  0
  147.7060  137.7957  154.2818 H   0  0  0  0  0  0  0  0  0  0  0  0
  150.5639  139.8557  156.4322 H   0  0  0  0  0  0  0  0  0  0  0  0
  1  2  2  0  0  0  0
  2  3  1  0  0  0  0
  2  9  1  0  0  0  0
  3  4  1  0  0  0  0
  3 16  1  0  0  0  0
  4  5  1  0  0  0  0
  4 17  1  0  0  0  0
  4 18  1  0  0  0  0
  5  8  1  0  0  0  0
  5  6  1  0  0  0  0
  5 19  1  0  0  0  0
  6  7  1  0  0  0  0
  6 20  1  0  0  0  0
  6 21  1  0  0  0  0
  7  8  1  0  0  0  0
  7 22  1  0  0  0  0
  7 23  1  0  0  0  0
  8 24  1  0  0  0  0
  8 25  1  0  0  0  0
  9 10  1  0  0  0  0
  9 26  1  0  0  0  0
 10 15  1  0  0  0  0
 10 11  2  0  0  0  0
 11 12  1  0  0  0  0
 11 27  1  0  0  0  0
 12 13  2  0  0  0  0
 12 28  1  0  0  0  0
 13 14  1  0  0  0  0
 13 29  1  0  0  0  0
 14 15  2  0  0  0  0
 15 30  1  0  0  0  0
M  END
> <s_m_source_file>
AV-unprocessed.smi

> <i_m_source_file_index>
1494

> <i_lp_mmshare_version>
43012

> <i_f3d_flags>
0

> <s_epik_input>
W0NIMl0xW0NIMl1bQ0gyXVtDSF0xW0NIMl1bTkhdQyg9TylbTkhdYzJbY0hdW2NIXVtjSF1uW2NIXTI=

> <s_epik_cmdline>
J2VwaWtfcHl0aG9uJywgJy1waCcsICc3LjAnLCAnLXRuJywgJzgnLCAnLW1hJywgJzIwMCcsICctbWV0YWxfYmluZGluZycsICctaW1hZScsICc8aW5maWxlLm1hZT4nLCAnLW9tYWUnLCAnPG91dGZpbGUubWFlPic=

> <r_epik_Ionization_Penalty>
0.00485471

> <r_epik_Ionization_Penalty_Charging>
0

> <r_epik_Ionization_Penalty_Neutral>
0.00485471

> <r_epik_State_Penalty>
0.00349083

> <r_epik_Charging_Adjusted_Penalty>
0.00349083

> <i_epik_Tot_Q>
0

> <i_epik_Tot_abs_Q>
0

> <r_epik_Metal_State_Penalty>
-0

> <b_epik_Metal_Only>
0

> <s_lp_Force_Field>
OPLS_2005

> <r_lp_Energy>
15.2707

> <b_lp_Chiralities_Consistent>
1

> <s_lp_Variant>
AV-unprocessed.smi:1494-1

> <Gold.Version>
5.8.1

> <Gold.Id.Protein>
6NUR|6NUR_protein|mol2

> <Gold.PLP.Fitness>
44.4313

> <Gold.PLP.PLP>
-36.9624

> <Gold.PLP.part.hbond>
-2.0000

> <Gold.PLP.part.metal>
0.0000

> <Gold.PLP.part.buried>
-3.6273

> <Gold.PLP.part.nonpolar>
-32.5897

> <Gold.PLP.part.repulsive>
0.2997

> <Gold.PLP.ligand.clash>
0.0000

> <Gold.PLP.ligand.torsion>
0.6862

> <Gold.PLP.Chemscore.Hbond>
1.9280

> <Gold.PLP.Chemscore.CHOScore>
1.0000

> <Gold.PLP.Chemscore.Metal>
0.0000

> <Gold.Chemscore.Hbonds>
donor molecule, donor type, donor heavy atom, donor atom, acceptor molecule, acceptor atom, score
      L1  H     3    16       P1  8028  0.88
      L1  H     9    26       P1  8028  1.00

> <Gold.PLP.Chemscore.Internal.Correction>
0.0574

> <Gold.Rescore>
     Score         DG    S(hbond)    S(metal)    S(lipo)     H(rot)  DE(clash)    DE(int)     intcor
     17.60     -19.61       1.94        0.00      91.71       1.20       0.06       1.95       ----

> <Gold.Chemscore.Fitness>
17.5981

> <Gold.Chemscore.DG>
-19.6150

> <Gold.Chemscore.ZeroCoef>
-5.4800

> <Gold.Chemscore.Hbond>
1.9404

> <Gold.Chemscore.Metal>
0.0000

> <Gold.Chemscore.Lipo>
91.7076

> <Gold.Chemscore.Internal_Hbond>
0.0000

> <Gold.Chemscore.DEClash>
0.0646

> <Gold.Chemscore.DEInternal>
1.9523

> <Gold.Chemscore.Rot>
1.2015

> <Gold.Chemscore.Internal.Correction>
   9.000000E+99

> <Gold.Chemscore.Hbonds>
donor molecule, donor type, donor heavy atom, donor atom, acceptor molecule, acceptor atom, score
      L1  H     3    16       P1  8028  0.84
      L1  H     9    26       P1  8028  0.98

> <Gold.Chemscore.Hbond.Weighted>
-6.4810

> <Gold.Chemscore.Metal.Weighted>
-0.0000

> <Gold.Chemscore.Lipo.Weighted>
-10.7298

> <Gold.Chemscore.Internal_Hbond.Weighted>
0.0000

> <Gold.Chemscore.DEClash.Weighted>
0.0646

> <Gold.Chemscore.DEInternal.Weighted>
1.9523

> <Gold.Chemscore.Rot.Weighted>
3.0758

> <Gold.Chemscore.Internal.Correction.Weighted>
   9.000000E+99

> <Gold.Protein.RotatedTorsions>
[ 6907 6896 6895 6894 ] final -168.88 input  -60.11 | X-H torsion
[ 7974 7965 7964 7962 ] final -106.56 input  175.53 | X-H torsion
[ 8008 7997 7996 7995 ] final   46.97 input   59.86 | X-H torsion
[ 10167 10162 10161 10158 ] final  -81.00 input  -65.29 | X-H torsion
[ 10718 10713 10712 10709 ] final  -26.95 input   66.30 | X-H torsion
[ 10763 10752 10751 10750 ] final    8.47 input  -60.55 | X-H torsion
[ 11005 11000 10999 10996 ] final -106.09 input  -57.11 | X-H torsion

> <Gold.Protein.ActiveResidues>
 VAL166  LYS551  ARG553  GLY616  TRP617  ASP618  TYR619  PRO620  LYS621  CYS622 
 ASP623  PHE694  ASN695  SER759  ASP760  ASP761  ALA762  ILE779  LEU786  VAL792 
 PHE793  MET794  SER795  GLU796  ALA797  LYS798  CYS799  TRP800  GLU811  SER814 

> <Gold.Protein.RotatedAtoms>
  151.4827  133.3543  159.2840 H   0  0  0  0  0  0  0  0  0  0  0  0  # atno 6907 bound_to 6896
  150.8886  134.8289  159.7288 H   0  0  0  0  0  0  0  0  0  0  0  0  # atno 6908 bound_to 6896
  152.4809  134.4734  159.9694 H   0  0  0  0  0  0  0  0  0  0  0  0  # atno 6909 bound_to 6896
  145.2163  140.9116  143.3285 H   0  0  0  0  0  0  0  0  0  0  0  0  # atno 7974 bound_to 7965
  155.3613  140.3419  155.4241 H   0  0  0  0  0  0  0  0  0  0  0  0  # atno 8008 bound_to 7997
  156.1712  140.1632  156.8478 H   0  0  0  0  0  0  0  0  0  0  0  0  # atno 8009 bound_to 7997
  154.5235  140.0761  156.8198 H   0  0  0  0  0  0  0  0  0  0  0  0  # atno 8010 bound_to 7997
  140.4452  143.2501  151.8569 H   0  0  0  0  0  0  0  0  0  0  0  0  # atno 10167 bound_to 10162
  156.4446  130.4471  149.7030 H   0  0  0  0  0  0  0  0  0  0  0  0  # atno 10718 bound_to 10713
  153.2246  135.6885  153.7960 H   0  0  0  0  0  0  0  0  0  0  0  0  # atno 10763 bound_to 10752
  153.7146  135.3277  155.3254 H   0  0  0  0  0  0  0  0  0  0  0  0  # atno 10764 bound_to 10752
  154.8286  135.4598  154.1108 H   0  0  0  0  0  0  0  0  0  0  0  0  # atno 10765 bound_to 10752
  141.1021  133.8864  157.1814 H   0  0  0  0  0  0  0  0  0  0  0  0  # atno 11005 bound_to 11000
  144.9808  139.3785  143.6263 LP  0  0  0  0  0  0  0  0  0  0  0  0  # atno 17320 bound_to 7965
  146.3386  139.8947  142.8803 LP  0  0  0  0  0  0  0  0  0  0  0  0  # atno 17321 bound_to 7965
  139.4792  144.5184  151.8836 LP  0  0  0  0  0  0  0  0  0  0  0  0  # atno 17342 bound_to 10162
  140.4272  144.2164  150.5887 LP  0  0  0  0  0  0  0  0  0  0  0  0  # atno 17343 bound_to 10162
  156.3881  130.7613  151.2612 LP  0  0  0  0  0  0  0  0  0  0  0  0  # atno 17370 bound_to 10713
  157.7505  131.0276  150.4011 LP  0  0  0  0  0  0  0  0  0  0  0  0  # atno 17371 bound_to 10713
  139.9877  135.0076  156.9901 LP  0  0  0  0  0  0  0  0  0  0  0  0  # atno 17394 bound_to 11000
  140.4995  134.1112  155.7247 LP  0  0  0  0  0  0  0  0  0  0  0  0  # atno 17395 bound_to 11000

$$$$
