AV-unprocessed.smi:3244|AV-procd|sdf|12399|dock9
  -GOLD-   2272018273D 1   1.00000     0.00000
 Structure written by MMmdl.
 41 42  0  0  0  0  0  0  0  0  2 V2000
  153.6725  141.0267  161.1570 C   0  0  0  0  0  0  0  0  0  0  0  0
  153.6981  141.3272  159.6494 C   0  0  0  0  0  0  0  0  0  0  0  0
  152.5019  142.0624  159.2103 N   0  0  0  0  0  0  0  0  0  0  0  0
  151.6199  141.5798  158.2984 C   0  0  0  0  0  0  0  0  0  0  0  0
  151.6295  140.4024  157.9344 O   0  0  0  0  0  0  0  0  0  0  0  0
  150.5724  142.5284  157.6874 C   0  0  0  0  0  0  0  0  0  0  0  0
  150.2128  142.1786  156.2934 N   0  3  0  0  0  0  0  0  0  0  0  0
  149.1384  141.1690  156.1269 C   0  0  1  0  0  0  0  0  0  0  0  0
  147.7462  141.7718  156.3809 C   0  0  0  0  0  0  0  0  0  0  0  0
  149.2109  140.5481  154.7160 C   0  0  0  0  0  0  0  0  0  0  0  0
  150.3112  139.6110  154.5543 N   0  0  0  0  0  0  0  0  0  0  0  0
  150.2700  138.3222  154.0640 C   0  0  0  0  0  0  0  0  0  0  0  0
  151.5391  137.8222  154.1248 C   0  0  0  0  0  0  0  0  0  0  0  0
  152.2958  138.8866  154.6886 C   0  0  0  0  0  0  0  0  0  0  0  0
  151.5572  139.9531  154.9495 N   0  0  0  0  0  0  0  0  0  0  0  0
  152.4812  143.4270  159.6687 C   0  0  0  0  0  0  0  0  0  0  0  0
  152.3141  143.7024  161.1482 C   0  0  0  0  0  0  0  0  0  0  0  0
  151.2029  144.0575  160.1943 C   0  0  0  0  0  0  0  0  0  0  0  0
  154.5604  140.4669  161.4517 H   0  0  0  0  0  0  0  0  0  0  0  0
  152.8029  140.4250  161.4221 H   0  0  0  0  0  0  0  0  0  0  0  0
  153.6428  141.9334  161.7595 H   0  0  0  0  0  0  0  0  0  0  0  0
  154.6110  141.8606  159.3876 H   0  0  0  0  0  0  0  0  0  0  0  0
  153.7706  140.3814  159.1104 H   0  0  0  0  0  0  0  0  0  0  0  0
  149.6585  142.4607  158.2753 H   0  0  0  0  0  0  0  0  0  0  0  0
  150.9099  143.5640  157.7358 H   0  0  0  0  0  0  0  0  0  0  0  0
  149.9699  143.0224  155.7937 H   0  0  0  0  0  0  0  0  0  0  0  0
  149.2993  140.3736  156.8560 H   0  0  0  0  0  0  0  0  0  0  0  0
  146.9644  141.0289  156.2205 H   0  0  0  0  0  0  0  0  0  0  0  0
  147.5476  142.6108  155.7129 H   0  0  0  0  0  0  0  0  0  0  0  0
  147.6421  142.1269  157.4061 H   0  0  0  0  0  0  0  0  0  0  0  0
  148.2853  140.0166  154.4905 H   0  0  0  0  0  0  0  0  0  0  0  0
  149.3107  141.3322  153.9638 H   0  0  0  0  0  0  0  0  0  0  0  0
  149.3524  137.8720  153.7148 H   0  0  0  0  0  0  0  0  0  0  0  0
  151.8747  136.8419  153.8201 H   0  0  0  0  0  0  0  0  0  0  0  0
  153.3512  138.9148  154.9165 H   0  0  0  0  0  0  0  0  0  0  0  0
  153.1463  144.1025  159.1334 H   0  0  0  0  0  0  0  0  0  0  0  0
  152.1510  142.8539  161.8102 H   0  0  0  0  0  0  0  0  0  0  0  0
  152.8923  144.5200  161.5739 H   0  0  0  0  0  0  0  0  0  0  0  0
  151.0414  145.1123  159.9824 H   0  0  0  0  0  0  0  0  0  0  0  0
  150.3000  143.4526  160.2517 H   0  0  0  0  0  0  0  0  0  0  0  0
  151.0412  141.7851  155.8702 H   0  0  0  0  0  0  0  0  0  0  0  0
  1  2  1  0  0  0  0
  1 19  1  0  0  0  0
  1 20  1  0  0  0  0
  1 21  1  0  0  0  0
  2  3  1  0  0  0  0
  2 22  1  0  0  0  0
  2 23  1  0  0  0  0
  3  4  1  0  0  0  0
  3 16  1  0  0  0  0
  4  5  2  0  0  0  0
  4  6  1  0  0  0  0
  6  7  1  0  0  0  0
  6 24  1  0  0  0  0
  6 25  1  0  0  0  0
  7  8  1  0  0  0  0
  7 26  1  0  0  0  0
  7 41  1  0  0  0  0
  8  9  1  0  0  0  0
  8 10  1  0  0  0  0
  8 27  1  0  0  0  0
  9 28  1  0  0  0  0
  9 29  1  0  0  0  0
  9 30  1  0  0  0  0
 10 11  1  0  0  0  0
 10 31  1  0  0  0  0
 10 32  1  0  0  0  0
 11 15  1  0  0  0  0
 11 12  1  0  0  0  0
 12 13  2  0  0  0  0
 12 33  1  0  0  0  0
 13 14  1  0  0  0  0
 13 34  1  0  0  0  0
 14 15  2  0  0  0  0
 14 35  1  0  0  0  0
 16 18  1  0  0  0  0
 16 17  1  0  0  0  0
 16 36  1  0  0  0  0
 17 18  1  0  0  0  0
 17 37  1  0  0  0  0
 17 38  1  0  0  0  0
 18 39  1  0  0  0  0
 18 40  1  0  0  0  0
M  CHG  1   7   1
M  END
> <s_m_source_file>
AV-unprocessed.smi

> <i_m_source_file_index>
3244

> <i_lp_mmshare_version>
43012

> <i_f3d_flags>
0

> <s_epik_input>
W0NIMl0xW0NIMl1bQ0hdMU4oW0NIMl1bQ0gzXSlDKD1PKVtDSDJdW05IXVtDQEhdKFtDSDNdKVtDSDJdbjJbY0hdW2NIXVtjSF1uMg==

> <s_epik_cmdline>
J2VwaWtfcHl0aG9uJywgJy1waCcsICc3LjAnLCAnLXRuJywgJzgnLCAnLW1hJywgJzIwMCcsICctbWV0YWxfYmluZGluZycsICctaW1hZScsICc8aW5maWxlLm1hZT4nLCAnLW9tYWUnLCAnPG91dGZpbGUubWFlPic=

> <r_lp_tautomer_probability>
1

> <r_epik_Ionization_Penalty>
0.115625

> <r_epik_Ionization_Penalty_Charging>
0.115622

> <r_epik_Ionization_Penalty_Neutral>
3.43793e-06

> <r_epik_State_Penalty>
0.105255

> <r_epik_Charging_Adjusted_Penalty>
0.220877

> <i_epik_Tot_Q>
1

> <i_epik_Tot_abs_Q>
1

> <r_epik_Metal_State_Penalty>
0.105264

> <b_epik_Metal_Only>
0

> <s_lp_Force_Field>
OPLS_2005

> <r_lp_Energy>
36.1392

> <b_lp_Chiralities_Consistent>
1

> <s_lp_Variant>
AV-unprocessed.smi:3244-2

> <Gold.Version>
5.8.1

> <Gold.Id.Protein>
6NUR|6NUR_protein|mol2

> <Gold.PLP.Fitness>
51.3306

> <Gold.PLP.PLP>
-43.4795

> <Gold.PLP.part.hbond>
-2.0000

> <Gold.PLP.part.metal>
0.0000

> <Gold.PLP.part.buried>
-5.1243

> <Gold.PLP.part.nonpolar>
-37.4040

> <Gold.PLP.part.repulsive>
0.1294

> <Gold.PLP.ligand.clash>
0.0000

> <Gold.PLP.ligand.torsion>
1.1919

> <Gold.PLP.Chemscore.Hbond>
2.3000

> <Gold.PLP.Chemscore.CHOScore>
0.9818

> <Gold.PLP.Chemscore.Metal>
0.0000

> <Gold.Chemscore.Hbonds>
donor molecule, donor type, donor heavy atom, donor atom, acceptor molecule, acceptor atom, score
      L1  H     7    26       P1  8028  2.00
      P1  H  7989  7998       L1    15  0.35
      L1  C    12    33       P1  7948  0.98

> <Gold.PLP.Chemscore.Internal.Correction>
0.3895

> <Gold.Rescore>
     Score         DG    S(hbond)    S(metal)    S(lipo)     H(rot)  DE(clash)    DE(int)     intcor
     16.14     -17.76       1.83        0.00      97.51       2.04       0.03       1.59       ----

> <Gold.Chemscore.Fitness>
16.1422

> <Gold.Chemscore.DG>
-17.7604

> <Gold.Chemscore.ZeroCoef>
-5.4800

> <Gold.Chemscore.Hbond>
1.8276

> <Gold.Chemscore.Metal>
0.0000

> <Gold.Chemscore.Lipo>
97.5115

> <Gold.Chemscore.Internal_Hbond>
0.0000

> <Gold.Chemscore.DEClash>
0.0331

> <Gold.Chemscore.DEInternal>
1.5851

> <Gold.Chemscore.Rot>
2.0440

> <Gold.Chemscore.Internal.Correction>
   9.000000E+99

> <Gold.Chemscore.Hbonds>
donor molecule, donor type, donor heavy atom, donor atom, acceptor molecule, acceptor atom, score
      L1  H     7    26       P1  8028  0.89

> <Gold.Chemscore.Hbond.Weighted>
-6.1041

> <Gold.Chemscore.Metal.Weighted>
-0.0000

> <Gold.Chemscore.Lipo.Weighted>
-11.4088

> <Gold.Chemscore.Internal_Hbond.Weighted>
0.0000

> <Gold.Chemscore.DEClash.Weighted>
0.0331

> <Gold.Chemscore.DEInternal.Weighted>
1.5851

> <Gold.Chemscore.Rot.Weighted>
5.2325

> <Gold.Chemscore.Internal.Correction.Weighted>
   9.000000E+99

> <Gold.Protein.RotatedTorsions>
[ 6907 6896 6895 6894 ] final   29.14 input  -60.11 | X-H torsion
[ 7974 7965 7964 7962 ] final   18.90 input  175.53 | X-H torsion
[ 8008 7997 7996 7995 ] final   70.60 input   59.86 | X-H torsion
[ 10167 10162 10161 10158 ] final  100.34 input  -65.29 | X-H torsion
[ 10718 10713 10712 10709 ] final   -5.66 input   66.30 | X-H torsion
[ 10763 10752 10751 10750 ] final  -99.31 input  -60.55 | X-H torsion
[ 11005 11000 10999 10996 ] final  166.12 input  -57.11 | X-H torsion

> <Gold.Protein.ActiveResidues>
 VAL166  LYS551  ARG553  GLY616  TRP617  ASP618  TYR619  PRO620  LYS621  CYS622 
 ASP623  PHE694  ASN695  SER759  ASP760  ASP761  ALA762  ILE779  LEU786  VAL792 
 PHE793  MET794  SER795  GLU796  ALA797  LYS798  CYS799  TRP800  GLU811  SER814 

> <Gold.Protein.RotatedAtoms>
  152.0272  134.9789  160.0571 H   0  0  0  0  0  0  0  0  0  0  0  0  # atno 6907 bound_to 6896
  152.1279  133.4386  159.4715 H   0  0  0  0  0  0  0  0  0  0  0  0  # atno 6908 bound_to 6896
  150.6854  134.2374  159.4502 H   0  0  0  0  0  0  0  0  0  0  0  0  # atno 6909 bound_to 6896
  146.2168  139.8390  142.8645 H   0  0  0  0  0  0  0  0  0  0  0  0  # atno 7974 bound_to 7965
  155.7412  140.3490  155.5105 H   0  0  0  0  0  0  0  0  0  0  0  0  # atno 8008 bound_to 7997
  155.9092  140.1047  157.1313 H   0  0  0  0  0  0  0  0  0  0  0  0  # atno 8009 bound_to 7997
  154.4053  140.1271  156.4522 H   0  0  0  0  0  0  0  0  0  0  0  0  # atno 8010 bound_to 7997
  139.7536  144.6976  151.0396 H   0  0  0  0  0  0  0  0  0  0  0  0  # atno 10167 bound_to 10162
  156.7433  130.5216  149.5819 H   0  0  0  0  0  0  0  0  0  0  0  0  # atno 10718 bound_to 10713
  154.7487  135.4977  153.9250 H   0  0  0  0  0  0  0  0  0  0  0  0  # atno 10763 bound_to 10752
  153.1120  135.6711  153.9492 H   0  0  0  0  0  0  0  0  0  0  0  0  # atno 10764 bound_to 10752
  153.9249  135.3084  155.3426 H   0  0  0  0  0  0  0  0  0  0  0  0  # atno 10765 bound_to 10752
  140.2632  134.7886  157.3608 H   0  0  0  0  0  0  0  0  0  0  0  0  # atno 11005 bound_to 11000
  145.2918  141.0169  143.3658 LP  0  0  0  0  0  0  0  0  0  0  0  0  # atno 17320 bound_to 7965
  144.9071  139.4575  143.6604 LP  0  0  0  0  0  0  0  0  0  0  0  0  # atno 17321 bound_to 7965
  140.7800  143.4780  151.0057 LP  0  0  0  0  0  0  0  0  0  0  0  0  # atno 17342 bound_to 10162
  139.8467  143.7492  152.3179 LP  0  0  0  0  0  0  0  0  0  0  0  0  # atno 17343 bound_to 10162
  156.1450  130.6271  151.0519 LP  0  0  0  0  0  0  0  0  0  0  0  0  # atno 17370 bound_to 10713
  157.6809  131.0838  150.7372 LP  0  0  0  0  0  0  0  0  0  0  0  0  # atno 17371 bound_to 10713
  140.1445  134.4929  155.8007 LP  0  0  0  0  0  0  0  0  0  0  0  0  # atno 17394 bound_to 11000
  141.2187  133.6838  156.7269 LP  0  0  0  0  0  0  0  0  0  0  0  0  # atno 17395 bound_to 11000

$$$$
