AV-unprocessed.smi:2788|AV-procd|sdf|10761|dock4
  -GOLD-   2272015193D 1   1.00000     0.00000
 Structure written by MMmdl.
 47 48  0  0  0  0  0  0  0  0  1 V2000
  147.6037  136.0434  161.1604 C   0  0  0  0  0  0  0  0  0  0  0  0
  148.2273  135.3042  160.0117 C   0  0  0  0  0  0  0  0  0  0  0  0
  148.0724  133.9944  159.9178 N   0  0  0  0  0  0  0  0  0  0  0  0
  148.7393  133.6124  158.7501 O   0  0  0  0  0  0  0  0  0  0  0  0
  149.2745  134.7205  158.1788 C   0  0  0  0  0  0  0  0  0  0  0  0
  150.0087  134.5170  156.8970 C   0  0  0  0  0  0  0  0  0  0  0  0
  148.9911  135.8289  158.9298 C   0  0  0  0  0  0  0  0  0  0  0  0
  149.3623  137.2672  158.6707 C   0  0  0  0  0  0  0  0  0  0  0  0
  150.8732  137.3628  158.4680 C   0  0  0  0  0  0  0  0  0  0  0  0
  151.5777  136.3682  158.6344 O   0  0  0  0  0  0  0  0  0  0  0  0
  151.3448  138.5800  158.1401 N   0  0  0  0  0  0  0  0  0  0  0  0
  152.7407  139.0212  157.9947 C   0  0  2  0  0  0  0  0  0  0  0  0
  153.1095  138.8033  156.5086 C   0  0  0  0  0  0  0  0  0  0  0  0
  153.6696  138.1371  158.8775 C   0  0  0  0  0  0  0  0  0  0  0  0
  155.0209  138.5556  158.8278 O   0  0  0  0  0  0  0  0  0  0  0  0
  152.8627  140.5381  158.3906 C   0  0  0  0  0  0  0  0  0  0  0  0
  152.7386  140.8110  159.9152 C   0  0  0  0  0  0  0  0  0  0  0  0
  152.9936  142.2873  160.2558 C   0  0  0  0  0  0  0  0  0  0  0  0
  152.0427  143.2086  159.4801 C   0  0  0  0  0  0  0  0  0  0  0  0
  152.1499  142.9584  157.9698 C   0  0  0  0  0  0  0  0  0  0  0  0
  151.8984  141.4808  157.6259 C   0  0  0  0  0  0  0  0  0  0  0  0
  146.6715  136.5184  160.8548 H   0  0  0  0  0  0  0  0  0  0  0  0
  148.2672  136.8236  161.5332 H   0  0  0  0  0  0  0  0  0  0  0  0
  147.3803  135.3766  161.9938 H   0  0  0  0  0  0  0  0  0  0  0  0
  150.5486  135.4173  156.6048 H   0  0  0  0  0  0  0  0  0  0  0  0
  149.3151  134.2658  156.0943 H   0  0  0  0  0  0  0  0  0  0  0  0
  150.7305  133.7055  156.9884 H   0  0  0  0  0  0  0  0  0  0  0  0
  148.8558  137.6581  157.7875 H   0  0  0  0  0  0  0  0  0  0  0  0
  149.0698  137.9152  159.4975 H   0  0  0  0  0  0  0  0  0  0  0  0
  150.6534  139.3059  158.0232 H   0  0  0  0  0  0  0  0  0  0  0  0
  154.1517  139.0488  156.3064 H   0  0  0  0  0  0  0  0  0  0  0  0
  152.4916  139.4016  155.8399 H   0  0  0  0  0  0  0  0  0  0  0  0
  152.9690  137.7631  156.2130 H   0  0  0  0  0  0  0  0  0  0  0  0
  153.3639  138.1746  159.9224 H   0  0  0  0  0  0  0  0  0  0  0  0
  153.6210  137.0894  158.5815 H   0  0  0  0  0  0  0  0  0  0  0  0
  155.5273  138.0027  159.4028 H   0  0  0  0  0  0  0  0  0  0  0  0
  153.8671  140.8546  158.1070 H   0  0  0  0  0  0  0  0  0  0  0  0
  151.7453  140.5362  160.2692 H   0  0  0  0  0  0  0  0  0  0  0  0
  153.4436  140.2070  160.4846 H   0  0  0  0  0  0  0  0  0  0  0  0
  152.8720  142.4466  161.3277 H   0  0  0  0  0  0  0  0  0  0  0  0
  154.0276  142.5434  160.0212 H   0  0  0  0  0  0  0  0  0  0  0  0
  151.0169  143.0375  159.8088 H   0  0  0  0  0  0  0  0  0  0  0  0
  152.2701  144.2516  159.7025 H   0  0  0  0  0  0  0  0  0  0  0  0
  151.4366  143.5894  157.4391 H   0  0  0  0  0  0  0  0  0  0  0  0
  153.1406  143.2517  157.6199 H   0  0  0  0  0  0  0  0  0  0  0  0
  152.0078  141.3610  156.5492 H   0  0  0  0  0  0  0  0  0  0  0  0
  150.8626  141.2369  157.8620 H   0  0  0  0  0  0  0  0  0  0  0  0
  1  2  1  0  0  0  0
  1 22  1  0  0  0  0
  1 23  1  0  0  0  0
  1 24  1  0  0  0  0
  2  7  1  0  0  0  0
  2  3  2  0  0  0  0
  3  4  1  0  0  0  0
  4  5  1  0  0  0  0
  5  6  1  0  0  0  0
  5  7  2  0  0  0  0
  6 25  1  0  0  0  0
  6 26  1  0  0  0  0
  6 27  1  0  0  0  0
  7  8  1  0  0  0  0
  8  9  1  0  0  0  0
  8 28  1  0  0  0  0
  8 29  1  0  0  0  0
  9 10  2  0  0  0  0
  9 11  1  0  0  0  0
 11 12  1  0  0  0  0
 11 30  1  0  0  0  0
 12 13  1  0  0  0  0
 12 14  1  0  0  0  0
 12 16  1  0  0  0  0
 13 31  1  0  0  0  0
 13 32  1  0  0  0  0
 13 33  1  0  0  0  0
 14 15  1  0  0  0  0
 14 34  1  0  0  0  0
 14 35  1  0  0  0  0
 15 36  1  0  0  0  0
 16 21  1  0  0  0  0
 16 17  1  0  0  0  0
 16 37  1  0  0  0  0
 17 18  1  0  0  0  0
 17 38  1  0  0  0  0
 17 39  1  0  0  0  0
 18 19  1  0  0  0  0
 18 40  1  0  0  0  0
 18 41  1  0  0  0  0
 19 20  1  0  0  0  0
 19 42  1  0  0  0  0
 19 43  1  0  0  0  0
 20 21  1  0  0  0  0
 20 44  1  0  0  0  0
 20 45  1  0  0  0  0
 21 46  1  0  0  0  0
 21 47  1  0  0  0  0
M  END
> <s_m_source_file>
AV-unprocessed.smi

> <i_m_source_file_index>
2788

> <i_lp_mmshare_version>
43012

> <i_f3d_flags>
0

> <s_epik_input>
W0NIM11jMW5vYyhbQ0gzXSljMVtDSDJdQyg9TylbTkhdW0NAQF0oW0NIM10pKFtDSDJdW09IXSlbQ0hdMltDSDJdW0NIMl1bQ0gyXVtDSDJdW0NIMl0y

> <s_epik_cmdline>
J2VwaWtfcHl0aG9uJywgJy1waCcsICc3LjAnLCAnLXRuJywgJzgnLCAnLW1hJywgJzIwMCcsICctbWV0YWxfYmluZGluZycsICctaW1hZScsICc8aW5maWxlLm1hZT4nLCAnLW9tYWUnLCAnPG91dGZpbGUubWFlPic=

> <r_lp_tautomer_probability>
1

> <r_epik_Ionization_Penalty>
1.3408e-07

> <r_epik_Ionization_Penalty_Charging>
0

> <r_epik_Ionization_Penalty_Neutral>
1.3408e-07

> <r_epik_State_Penalty>
-0

> <r_epik_Charging_Adjusted_Penalty>
0

> <i_epik_Tot_Q>
0

> <i_epik_Tot_abs_Q>
0

> <r_epik_Metal_State_Penalty>
-0

> <b_epik_Metal_Only>
0

> <s_lp_Force_Field>
OPLS_2005

> <r_lp_Energy>
14.1961

> <b_lp_Chiralities_Consistent>
1

> <s_lp_Variant>
AV-unprocessed.smi:2788-2

> <Gold.Version>
5.8.1

> <Gold.Id.Protein>
6NUR|6NUR_protein|mol2

> <Gold.PLP.Fitness>
38.4804

> <Gold.PLP.PLP>
-34.3576

> <Gold.PLP.part.hbond>
-2.0000

> <Gold.PLP.part.metal>
0.0000

> <Gold.PLP.part.buried>
-4.5253

> <Gold.PLP.part.nonpolar>
-28.7287

> <Gold.PLP.part.repulsive>
0.0989

> <Gold.PLP.ligand.clash>
0.0000

> <Gold.PLP.ligand.torsion>
0.7439

> <Gold.PLP.Chemscore.Hbond>
1.8480

> <Gold.PLP.Chemscore.CHOScore>
0.0000

> <Gold.PLP.Chemscore.Metal>
0.0000

> <Gold.Chemscore.Hbonds>
donor molecule, donor type, donor heavy atom, donor atom, acceptor molecule, acceptor atom, score
      P1  H  6896  6908       L1    10  0.59
      P1  H  7997  8010       L1    15  0.83

> <Gold.PLP.Chemscore.Internal.Correction>
0.0665

> <Gold.Rescore>
     Score         DG    S(hbond)    S(metal)    S(lipo)     H(rot)  DE(clash)    DE(int)     intcor
     14.01     -17.53       1.77        0.00     101.48       2.24       0.41       3.11       ----

> <Gold.Chemscore.Fitness>
14.0096

> <Gold.Chemscore.DG>
-17.5257

> <Gold.Chemscore.ZeroCoef>
-5.4800

> <Gold.Chemscore.Hbond>
1.7653

> <Gold.Chemscore.Metal>
0.0000

> <Gold.Chemscore.Lipo>
101.4783

> <Gold.Chemscore.Internal_Hbond>
0.0000

> <Gold.Chemscore.DEClash>
0.4096

> <Gold.Chemscore.DEInternal>
3.1065

> <Gold.Chemscore.Rot>
2.2357

> <Gold.Chemscore.Internal.Correction>
   9.000000E+99

> <Gold.Chemscore.Hbonds>
donor molecule, donor type, donor heavy atom, donor atom, acceptor molecule, acceptor atom, score
      P1  H  6896  6908       L1    10  0.60
      P1  H  7997  8010       L1    15  0.32

> <Gold.Chemscore.Hbond.Weighted>
-5.8962

> <Gold.Chemscore.Metal.Weighted>
-0.0000

> <Gold.Chemscore.Lipo.Weighted>
-11.8730

> <Gold.Chemscore.Internal_Hbond.Weighted>
0.0000

> <Gold.Chemscore.DEClash.Weighted>
0.4096

> <Gold.Chemscore.DEInternal.Weighted>
3.1065

> <Gold.Chemscore.Rot.Weighted>
5.7235

> <Gold.Chemscore.Internal.Correction.Weighted>
   9.000000E+99

> <Gold.Protein.RotatedTorsions>
[ 6907 6896 6895 6894 ] final -145.89 input  -60.11 | X-H torsion
[ 7974 7965 7964 7962 ] final   53.65 input  175.53 | X-H torsion
[ 8008 7997 7996 7995 ] final    5.99 input   59.86 | X-H torsion
[ 10167 10162 10161 10158 ] final  -68.91 input  -65.29 | X-H torsion
[ 10718 10713 10712 10709 ] final    7.22 input   66.30 | X-H torsion
[ 10763 10752 10751 10750 ] final  177.87 input  -60.55 | X-H torsion
[ 11005 11000 10999 10996 ] final  100.45 input  -57.11 | X-H torsion

> <Gold.Protein.ActiveResidues>
 VAL166  LYS551  ARG553  GLY616  TRP617  ASP618  TYR619  PRO620  LYS621  CYS622 
 ASP623  PHE694  ASN695  SER759  ASP760  ASP761  ALA762  ILE779  LEU786  VAL792 
 PHE793  MET794  SER795  GLU796  ALA797  LYS798  CYS799  TRP800  GLU811  SER814 

> <Gold.Protein.RotatedAtoms>
  151.1341  133.5016  159.2598 H   0  0  0  0  0  0  0  0  0  0  0  0  # atno 6907 bound_to 6896
  151.1726  135.0324  159.8768 H   0  0  0  0  0  0  0  0  0  0  0  0  # atno 6908 bound_to 6896
  152.5460  134.1202  159.8449 H   0  0  0  0  0  0  0  0  0  0  0  0  # atno 6909 bound_to 6896
  145.9690  139.4131  143.0202 H   0  0  0  0  0  0  0  0  0  0  0  0  # atno 7974 bound_to 7965
  154.7353  140.2738  155.6420 H   0  0  0  0  0  0  0  0  0  0  0  0  # atno 8008 bound_to 7997
  156.2860  140.2707  156.1991 H   0  0  0  0  0  0  0  0  0  0  0  0  # atno 8009 bound_to 7997
  155.0328  140.0371  157.2470 H   0  0  0  0  0  0  0  0  0  0  0  0  # atno 8010 bound_to 7997
  140.5471  143.2313  151.6981 H   0  0  0  0  0  0  0  0  0  0  0  0  # atno 10167 bound_to 10162
  156.9338  130.5835  149.5650 H   0  0  0  0  0  0  0  0  0  0  0  0  # atno 10718 bound_to 10713
  154.5001  135.2783  155.1427 H   0  0  0  0  0  0  0  0  0  0  0  0  # atno 10763 bound_to 10752
  154.3064  135.6238  153.5450 H   0  0  0  0  0  0  0  0  0  0  0  0  # atno 10764 bound_to 10752
  152.9901  135.5709  154.5442 H   0  0  0  0  0  0  0  0  0  0  0  0  # atno 10765 bound_to 10752
  139.8771  134.9141  156.4759 H   0  0  0  0  0  0  0  0  0  0  0  0  # atno 11005 bound_to 11000
  145.7933  140.9804  143.1037 LP  0  0  0  0  0  0  0  0  0  0  0  0  # atno 17320 bound_to 7965
  144.6832  139.9710  143.7482 LP  0  0  0  0  0  0  0  0  0  0  0  0  # atno 17321 bound_to 7965
  139.5012  144.3877  152.0311 LP  0  0  0  0  0  0  0  0  0  0  0  0  # atno 17342 bound_to 10162
  140.2991  144.3667  150.6065 LP  0  0  0  0  0  0  0  0  0  0  0  0  # atno 17343 bound_to 10162
  156.0435  130.5515  150.8827 LP  0  0  0  0  0  0  0  0  0  0  0  0  # atno 17370 bound_to 10713
  157.5830  131.0946  150.9241 LP  0  0  0  0  0  0  0  0  0  0  0  0  # atno 17371 bound_to 10713
  140.8762  133.7951  155.9418 LP  0  0  0  0  0  0  0  0  0  0  0  0  # atno 17394 bound_to 11000
  140.8901  134.2506  157.5099 LP  0  0  0  0  0  0  0  0  0  0  0  0  # atno 17395 bound_to 11000

$$$$
