AV-unprocessed.smi:3236|AV-procd|sdf|12362|dock3
  -GOLD-   2272018223D 1   1.00000     0.00000
 Structure written by MMmdl.
 40 41  0  0  0  0  0  0  0  0  1 V2000
  152.9758  143.8557  163.1410 C   0  0  0  0  0  0  0  0  0  0  0  0
  153.1327  143.5370  161.6479 C   0  0  0  0  0  0  0  0  0  0  0  0
  152.0219  144.1970  160.8027 C   0  0  0  0  0  0  0  0  0  0  0  0
  152.1339  143.7907  159.3221 C   0  0  0  0  0  0  0  0  0  0  0  0
  152.0840  142.3251  159.2296 N   0  0  0  0  0  0  0  0  0  0  0  0
  151.0610  141.6009  158.7131 C   0  0  0  0  0  0  0  0  0  0  0  0
  150.0716  142.1343  158.2063 O   0  0  0  0  0  0  0  0  0  0  0  0
  151.1416  140.0650  158.7544 C   0  0  0  0  0  0  0  0  0  0  0  0
  150.6962  139.4294  157.5082 N   0  0  0  0  0  0  0  0  0  0  0  0
  151.4124  139.9725  156.3628 C   0  0  0  0  0  0  0  0  0  0  0  0
  150.7050  139.5773  155.0556 C   0  0  0  0  0  0  0  0  0  0  0  0
  149.4671  140.3084  154.8515 N   0  0  0  0  0  0  0  0  0  0  0  0
  148.5147  140.1237  153.8715 C   0  0  0  0  0  0  0  0  0  0  0  0
  147.5322  141.0486  154.0806 C   0  0  0  0  0  0  0  0  0  0  0  0
  147.9793  141.7634  155.2269 C   0  0  0  0  0  0  0  0  0  0  0  0
  149.1369  141.3168  155.6876 N   0  0  0  0  0  0  0  0  0  0  0  0
  153.2432  141.7055  159.8845 C   0  0  0  0  0  0  0  0  0  0  0  0
  153.1888  142.0158  161.3915 C   0  0  0  0  0  0  0  0  0  0  0  0
  152.0388  143.4609  163.5347 H   0  0  0  0  0  0  0  0  0  0  0  0
  152.9832  144.9319  163.3153 H   0  0  0  0  0  0  0  0  0  0  0  0
  153.7901  143.4226  163.7223 H   0  0  0  0  0  0  0  0  0  0  0  0
  154.0848  143.9582  161.3218 H   0  0  0  0  0  0  0  0  0  0  0  0
  151.0424  143.9045  161.1840 H   0  0  0  0  0  0  0  0  0  0  0  0
  152.0782  145.2822  160.8935 H   0  0  0  0  0  0  0  0  0  0  0  0
  151.3632  144.2960  158.7428 H   0  0  0  0  0  0  0  0  0  0  0  0
  153.0810  144.1426  158.9106 H   0  0  0  0  0  0  0  0  0  0  0  0
  152.1724  139.7701  158.9568 H   0  0  0  0  0  0  0  0  0  0  0  0
  150.5206  139.7062  159.5765 H   0  0  0  0  0  0  0  0  0  0  0  0
  149.7024  139.5460  157.3699 H   0  0  0  0  0  0  0  0  0  0  0  0
  151.4446  141.0599  156.4431 H   0  0  0  0  0  0  0  0  0  0  0  0
  152.4445  139.6187  156.3563 H   0  0  0  0  0  0  0  0  0  0  0  0
  151.3584  139.7436  154.1981 H   0  0  0  0  0  0  0  0  0  0  0  0
  150.4742  138.5112  155.0667 H   0  0  0  0  0  0  0  0  0  0  0  0
  148.6165  139.3607  153.1139 H   0  0  0  0  0  0  0  0  0  0  0  0
  146.6327  141.1938  153.5014 H   0  0  0  0  0  0  0  0  0  0  0  0
  147.5002  142.5879  155.7339 H   0  0  0  0  0  0  0  0  0  0  0  0
  153.2920  140.6266  159.7315 H   0  0  0  0  0  0  0  0  0  0  0  0
  154.1603  142.1071  159.4511 H   0  0  0  0  0  0  0  0  0  0  0  0
  154.0579  141.5840  161.8890 H   0  0  0  0  0  0  0  0  0  0  0  0
  152.3119  141.5342  161.8273 H   0  0  0  0  0  0  0  0  0  0  0  0
  1  2  1  0  0  0  0
  1 19  1  0  0  0  0
  1 20  1  0  0  0  0
  1 21  1  0  0  0  0
  2 18  1  0  0  0  0
  2  3  1  0  0  0  0
  2 22  1  0  0  0  0
  3  4  1  0  0  0  0
  3 23  1  0  0  0  0
  3 24  1  0  0  0  0
  4  5  1  0  0  0  0
  4 25  1  0  0  0  0
  4 26  1  0  0  0  0
  5  6  1  0  0  0  0
  5 17  1  0  0  0  0
  6  7  2  0  0  0  0
  6  8  1  0  0  0  0
  8  9  1  0  0  0  0
  8 27  1  0  0  0  0
  8 28  1  0  0  0  0
  9 10  1  0  0  0  0
  9 29  1  0  0  0  0
 10 11  1  0  0  0  0
 10 30  1  0  0  0  0
 10 31  1  0  0  0  0
 11 12  1  0  0  0  0
 11 32  1  0  0  0  0
 11 33  1  0  0  0  0
 12 16  1  0  0  0  0
 12 13  1  0  0  0  0
 13 14  2  0  0  0  0
 13 34  1  0  0  0  0
 14 15  1  0  0  0  0
 14 35  1  0  0  0  0
 15 16  2  0  0  0  0
 15 36  1  0  0  0  0
 17 18  1  0  0  0  0
 17 37  1  0  0  0  0
 17 38  1  0  0  0  0
 18 39  1  0  0  0  0
 18 40  1  0  0  0  0
M  END
> <s_m_source_file>
AV-unprocessed.smi

> <i_m_source_file_index>
3236

> <i_lp_mmshare_version>
43012

> <i_f3d_flags>
0

> <s_epik_input>
W0NIM11bQ0hdMVtDSDJdW0NIMl1OKFtDSDJdW0NIMl0xKUMoPU8pW0NIMl1bTkhdW0NIMl1bQ0gyXW4yW2NIXVtjSF1bY0hdbjI=

> <s_epik_cmdline>
J2VwaWtfcHl0aG9uJywgJy1waCcsICc3LjAnLCAnLXRuJywgJzgnLCAnLW1hJywgJzIwMCcsICctbWV0YWxfYmluZGluZycsICctaW1hZScsICc8aW5maWxlLm1hZT4nLCAnLW9tYWUnLCAnPG91dGZpbGUubWFlPic=

> <r_lp_tautomer_probability>
1

> <r_epik_Ionization_Penalty>
0.778591

> <r_epik_Ionization_Penalty_Charging>
0

> <r_epik_Ionization_Penalty_Neutral>
0.778591

> <r_epik_State_Penalty>
0.806071

> <r_epik_Charging_Adjusted_Penalty>
0.806071

> <i_epik_Tot_Q>
0

> <i_epik_Tot_abs_Q>
0

> <r_epik_Metal_State_Penalty>
0.80479

> <b_epik_Metal_Only>
0

> <s_lp_Force_Field>
OPLS_2005

> <r_lp_Energy>
26.1059

> <b_lp_Chiralities_Consistent>
1

> <s_lp_Variant>
AV-unprocessed.smi:3236-2

> <Gold.Version>
5.8.1

> <Gold.Id.Protein>
6NUR|6NUR_protein|mol2

> <Gold.PLP.Fitness>
41.5499

> <Gold.PLP.PLP>
-37.9912

> <Gold.PLP.part.hbond>
0.0000

> <Gold.PLP.part.metal>
0.0000

> <Gold.PLP.part.buried>
1.8007

> <Gold.PLP.part.nonpolar>
-38.9248

> <Gold.PLP.part.repulsive>
0.1941

> <Gold.PLP.ligand.clash>
0.0000

> <Gold.PLP.ligand.torsion>
0.3946

> <Gold.PLP.Chemscore.Hbond>
0.0000

> <Gold.PLP.Chemscore.CHOScore>
1.4323

> <Gold.PLP.Chemscore.Metal>
0.0000

> <Gold.Chemscore.Hbonds>
donor molecule, donor type, donor heavy atom, donor atom, acceptor molecule, acceptor atom, score
      L1  C    13    34       P1  7957  0.72
      L1  C    15    36       P1  8028  0.67

> <Gold.PLP.Chemscore.Internal.Correction>
0.0510

> <Gold.Rescore>
     Score         DG    S(hbond)    S(metal)    S(lipo)     H(rot)  DE(clash)    DE(int)     intcor
     10.69     -13.13       0.00        0.00     103.24       1.73       0.27       2.17       ----

> <Gold.Chemscore.Fitness>
10.6853

> <Gold.Chemscore.DG>
-13.1309

> <Gold.Chemscore.ZeroCoef>
-5.4800

> <Gold.Chemscore.Hbond>
0.0000

> <Gold.Chemscore.Metal>
0.0000

> <Gold.Chemscore.Lipo>
103.2370

> <Gold.Chemscore.Internal_Hbond>
0.0000

> <Gold.Chemscore.DEClash>
0.2720

> <Gold.Chemscore.DEInternal>
2.1736

> <Gold.Chemscore.Rot>
1.7296

> <Gold.Chemscore.Internal.Correction>
   9.000000E+99

> <Gold.Chemscore.Hbond.Weighted>
-0.0000

> <Gold.Chemscore.Metal.Weighted>
-0.0000

> <Gold.Chemscore.Lipo.Weighted>
-12.0787

> <Gold.Chemscore.Internal_Hbond.Weighted>
0.0000

> <Gold.Chemscore.DEClash.Weighted>
0.2720

> <Gold.Chemscore.DEInternal.Weighted>
2.1736

> <Gold.Chemscore.Rot.Weighted>
4.4278

> <Gold.Chemscore.Internal.Correction.Weighted>
   9.000000E+99

> <Gold.Protein.RotatedTorsions>
[ 6907 6896 6895 6894 ] final  116.04 input  -60.11 | X-H torsion
[ 7974 7965 7964 7962 ] final  129.48 input  175.53 | X-H torsion
[ 8008 7997 7996 7995 ] final  111.40 input   59.86 | X-H torsion
[ 10167 10162 10161 10158 ] final  169.37 input  -65.29 | X-H torsion
[ 10718 10713 10712 10709 ] final -132.55 input   66.30 | X-H torsion
[ 10763 10752 10751 10750 ] final  142.70 input  -60.55 | X-H torsion
[ 11005 11000 10999 10996 ] final   96.83 input  -57.11 | X-H torsion

> <Gold.Protein.ActiveResidues>
 VAL166  LYS551  ARG553  GLY616  TRP617  ASP618  TYR619  PRO620  LYS621  CYS622 
 ASP623  PHE694  ASN695  SER759  ASP760  ASP761  ALA762  ILE779  LEU786  VAL792 
 PHE793  MET794  SER795  GLU796  ALA797  LYS798  CYS799  TRP800  GLU811  SER814 

> <Gold.Protein.RotatedAtoms>
  152.4703  133.8016  159.6955 H   0  0  0  0  0  0  0  0  0  0  0  0  # atno 6907 bound_to 6896
  150.8689  133.7524  159.2974 H   0  0  0  0  0  0  0  0  0  0  0  0  # atno 6908 bound_to 6896
  151.5065  135.1067  159.9895 H   0  0  0  0  0  0  0  0  0  0  0  0  # atno 6909 bound_to 6896
  145.0282  139.4070  143.5163 H   0  0  0  0  0  0  0  0  0  0  0  0  # atno 7974 bound_to 7965
  156.2121  140.3020  155.9756 H   0  0  0  0  0  0  0  0  0  0  0  0  # atno 8008 bound_to 7997
  155.2698  140.0433  157.3023 H   0  0  0  0  0  0  0  0  0  0  0  0  # atno 8009 bound_to 7997
  154.5714  140.2349  155.8194 H   0  0  0  0  0  0  0  0  0  0  0  0  # atno 8010 bound_to 7997
  139.4990  144.3713  151.9721 H   0  0  0  0  0  0  0  0  0  0  0  0  # atno 10167 bound_to 10162
  156.2357  130.7065  151.0905 H   0  0  0  0  0  0  0  0  0  0  0  0  # atno 10718 bound_to 10713
  153.9602  135.2961  155.3434 H   0  0  0  0  0  0  0  0  0  0  0  0  # atno 10763 bound_to 10752
  154.7379  135.5038  153.9076 H   0  0  0  0  0  0  0  0  0  0  0  0  # atno 10764 bound_to 10752
  153.0950  135.6718  153.9890 H   0  0  0  0  0  0  0  0  0  0  0  0  # atno 10765 bound_to 10752
  139.8779  134.8971  156.4217 H   0  0  0  0  0  0  0  0  0  0  0  0  # atno 11005 bound_to 11000
  146.3495  139.9817  142.8695 LP  0  0  0  0  0  0  0  0  0  0  0  0  # atno 17320 bound_to 7965
  145.1806  140.9765  143.4269 LP  0  0  0  0  0  0  0  0  0  0  0  0  # atno 17321 bound_to 7965
  140.3149  144.3495  150.6024 LP  0  0  0  0  0  0  0  0  0  0  0  0  # atno 17342 bound_to 10162
  140.5769  143.2176  151.7499 LP  0  0  0  0  0  0  0  0  0  0  0  0  # atno 17343 bound_to 10162
  157.7153  131.0713  150.6349 LP  0  0  0  0  0  0  0  0  0  0  0  0  # atno 17370 bound_to 10713
  156.6419  130.4461  149.5749 LP  0  0  0  0  0  0  0  0  0  0  0  0  # atno 17371 bound_to 10713
  140.9129  133.7699  155.9813 LP  0  0  0  0  0  0  0  0  0  0  0  0  # atno 17394 bound_to 11000
  140.8526  134.2935  157.5269 LP  0  0  0  0  0  0  0  0  0  0  0  0  # atno 17395 bound_to 11000

$$$$
