AV-unprocessed.smi:2934|AV-procd|sdf|11255|dock4
  -GOLD-   2272016143D 1   1.00000     0.00000
 Structure written by MMmdl.
 44 45  0  0  0  0  0  0  0  0  2 V2000
  150.2969  141.6950  155.6687 C   0  0  0  0  0  0  0  0  0  0  0  0
  151.3168  141.4160  156.6838 N   0  0  0  0  0  0  0  0  0  0  0  0
  151.8903  140.1832  156.7011 C   0  0  0  0  0  0  0  0  0  0  0  0
  152.9711  139.9575  157.2483 O   0  0  0  0  0  0  0  0  0  0  0  0
  151.2008  139.2234  156.0538 N   0  0  0  0  0  0  0  0  0  0  0  0
  151.5763  137.8138  155.9588 C   0  0  0  0  0  0  0  0  0  0  0  0
  150.8519  137.0817  154.8107 C   0  0  0  0  0  0  0  0  0  0  0  0
  150.2199  135.7499  155.2297 C   0  0  0  0  0  0  0  0  0  0  0  0
  150.5099  135.2422  156.3132 O   0  0  0  0  0  0  0  0  0  0  0  0
  149.3470  135.2042  154.3698 N   0  0  0  0  0  0  0  0  0  0  0  0
  148.6442  133.9405  154.5757 C   0  0  0  0  0  0  0  0  0  0  0  0
  149.5925  132.7454  154.3616 C   0  0  0  0  0  0  0  0  0  0  0  0
  148.8417  131.7678  153.4561 C   0  0  0  0  0  0  0  0  0  0  0  0
  147.9438  132.6594  152.6049 C   0  0  0  0  0  0  0  0  0  0  0  0
  147.4938  133.7617  153.5644 C   0  0  0  0  0  0  0  0  0  0  0  0
  151.6253  142.4610  157.6072 C   0  0  0  0  0  0  0  0  0  0  0  0
  152.5157  142.2630  158.6907 C   0  0  0  0  0  0  0  0  0  0  0  0
  152.7945  143.3307  159.5682 C   0  0  0  0  0  0  0  0  0  0  0  0
  152.1835  144.5814  159.3488 C   0  0  0  0  0  0  0  0  0  0  0  0
  151.3113  144.7331  158.2529 C   0  0  0  0  0  0  0  0  0  0  0  0
  151.0708  143.6851  157.4345 N   0  3  0  0  0  0  0  0  0  0  0  0
  149.9502  142.7284  155.7095 H   0  0  0  0  0  0  0  0  0  0  0  0
  149.4293  141.0483  155.8073 H   0  0  0  0  0  0  0  0  0  0  0  0
  150.6902  141.5311  154.6643 H   0  0  0  0  0  0  0  0  0  0  0  0
  150.3320  139.4863  155.6117 H   0  0  0  0  0  0  0  0  0  0  0  0
  152.6517  137.7731  155.7846 H   0  0  0  0  0  0  0  0  0  0  0  0
  151.4086  137.2876  156.9002 H   0  0  0  0  0  0  0  0  0  0  0  0
  150.0678  137.7211  154.4028 H   0  0  0  0  0  0  0  0  0  0  0  0
  151.5533  136.9081  153.9935 H   0  0  0  0  0  0  0  0  0  0  0  0
  149.1607  135.6933  153.5063 H   0  0  0  0  0  0  0  0  0  0  0  0
  148.2434  133.9039  155.5906 H   0  0  0  0  0  0  0  0  0  0  0  0
  150.5057  133.0639  153.8560 H   0  0  0  0  0  0  0  0  0  0  0  0
  149.8914  132.2827  155.3027 H   0  0  0  0  0  0  0  0  0  0  0  0
  149.5113  131.1498  152.8573 H   0  0  0  0  0  0  0  0  0  0  0  0
  148.2268  131.1019  154.0630 H   0  0  0  0  0  0  0  0  0  0  0  0
  148.5244  133.0946  151.7903 H   0  0  0  0  0  0  0  0  0  0  0  0
  147.1065  132.1163  152.1655 H   0  0  0  0  0  0  0  0  0  0  0  0
  146.5992  133.4325  154.0945 H   0  0  0  0  0  0  0  0  0  0  0  0
  147.2310  134.6791  153.0358 H   0  0  0  0  0  0  0  0  0  0  0  0
  152.9878  141.3040  158.8479 H   0  0  0  0  0  0  0  0  0  0  0  0
  153.4714  143.1917  160.3983 H   0  0  0  0  0  0  0  0  0  0  0  0
  152.3837  145.4129  160.0088 H   0  0  0  0  0  0  0  0  0  0  0  0
  150.8031  145.6543  158.0072 H   0  0  0  0  0  0  0  0  0  0  0  0
  150.4354  143.8239  156.6480 H   0  0  0  0  0  0  0  0  0  0  0  0
  1  2  1  0  0  0  0
  1 22  1  0  0  0  0
  1 23  1  0  0  0  0
  1 24  1  0  0  0  0
  2  3  1  0  0  0  0
  2 16  1  0  0  0  0
  3  4  2  0  0  0  0
  3  5  1  0  0  0  0
  5  6  1  0  0  0  0
  5 25  1  0  0  0  0
  6  7  1  0  0  0  0
  6 26  1  0  0  0  0
  6 27  1  0  0  0  0
  7  8  1  0  0  0  0
  7 28  1  0  0  0  0
  7 29  1  0  0  0  0
  8  9  2  0  0  0  0
  8 10  1  0  0  0  0
 10 11  1  0  0  0  0
 10 30  1  0  0  0  0
 11 15  1  0  0  0  0
 11 12  1  0  0  0  0
 11 31  1  0  0  0  0
 12 13  1  0  0  0  0
 12 32  1  0  0  0  0
 12 33  1  0  0  0  0
 13 14  1  0  0  0  0
 13 34  1  0  0  0  0
 13 35  1  0  0  0  0
 14 15  1  0  0  0  0
 14 36  1  0  0  0  0
 14 37  1  0  0  0  0
 15 38  1  0  0  0  0
 15 39  1  0  0  0  0
 16 21  1  0  0  0  0
 16 17  2  0  0  0  0
 17 18  1  0  0  0  0
 17 40  1  0  0  0  0
 18 19  2  0  0  0  0
 18 41  1  0  0  0  0
 19 20  1  0  0  0  0
 19 42  1  0  0  0  0
 20 21  2  0  0  0  0
 20 43  1  0  0  0  0
 21 44  1  0  0  0  0
M  CHG  1  21   1
M  END
> <s_m_source_file>
AV-unprocessed.smi

> <i_m_source_file_index>
2934

> <i_lp_mmshare_version>
43012

> <i_f3d_flags>
0

> <s_epik_input>
bjFbY0hdW2NIXVtjSF1bY0hdYzFOKFtDSDNdKUMoPU8pW05IXVtDSDJdW0NIMl1DKD1PKVtOSF1bQ0hdMltDSDJdW0NIMl1bQ0gyXVtDSDJdMg==

> <s_epik_cmdline>
J2VwaWtfcHl0aG9uJywgJy1waCcsICc3LjAnLCAnLXRuJywgJzgnLCAnLW1hJywgJzIwMCcsICctbWV0YWxfYmluZGluZycsICctaW1hZScsICc8aW5maWxlLm1hZT4nLCAnLW9tYWUnLCAnPG91dGZpbGUubWFlPic=

> <r_epik_Ionization_Penalty>
0.416827

> <r_epik_Ionization_Penalty_Charging>
0.416808

> <r_epik_Ionization_Penalty_Neutral>
1.8964e-05

> <r_epik_State_Penalty>
0.417222

> <r_epik_Charging_Adjusted_Penalty>
0.83403

> <i_epik_Tot_Q>
1

> <i_epik_Tot_abs_Q>
1

> <r_epik_Metal_State_Penalty>
0.655167

> <b_epik_Metal_Only>
0

> <s_lp_Force_Field>
OPLS_2005

> <r_lp_Energy>
36.0061

> <b_lp_Chiralities_Consistent>
1

> <s_lp_Variant>
AV-unprocessed.smi:2934-2

> <Gold.Version>
5.8.1

> <Gold.Id.Protein>
6NUR|6NUR_protein|mol2

> <Gold.PLP.Fitness>
51.2028

> <Gold.PLP.PLP>
-42.3225

> <Gold.PLP.part.hbond>
-3.0000

> <Gold.PLP.part.metal>
0.0000

> <Gold.PLP.part.buried>
-4.3564

> <Gold.PLP.part.nonpolar>
-34.7891

> <Gold.PLP.part.repulsive>
0.1055

> <Gold.PLP.ligand.clash>
3.2268

> <Gold.PLP.ligand.torsion>
0.9716

> <Gold.PLP.Chemscore.Hbond>
4.0000

> <Gold.PLP.Chemscore.CHOScore>
0.0000

> <Gold.PLP.Chemscore.Metal>
0.0000

> <Gold.Chemscore.Hbonds>
donor molecule, donor type, donor heavy atom, donor atom, acceptor molecule, acceptor atom, score
      L1  H    10    30       P1  7948  1.00
      L1  H    21    44       P1  8028  2.00
      P1  H  7997  8008       L1     4  1.00

> <Gold.PLP.Chemscore.Internal.Correction>
2.0504

> <Gold.Rescore>
     Score         DG    S(hbond)    S(metal)    S(lipo)     H(rot)  DE(clash)    DE(int)     intcor
     19.08     -21.37       2.91        0.00      91.34       1.76       0.00       2.29       ----

> <Gold.Chemscore.Fitness>
19.0813

> <Gold.Chemscore.DG>
-21.3700

> <Gold.Chemscore.ZeroCoef>
-5.4800

> <Gold.Chemscore.Hbond>
2.9091

> <Gold.Chemscore.Metal>
0.0000

> <Gold.Chemscore.Lipo>
91.3441

> <Gold.Chemscore.Internal_Hbond>
0.0000

> <Gold.Chemscore.DEClash>
0.0004

> <Gold.Chemscore.DEInternal>
2.2883

> <Gold.Chemscore.Rot>
1.7631

> <Gold.Chemscore.Internal.Correction>
   9.000000E+99

> <Gold.Chemscore.Hbonds>
donor molecule, donor type, donor heavy atom, donor atom, acceptor molecule, acceptor atom, score
      L1  H    10    30       P1  7948  0.65
      L1  H    21    44       P1  8028  0.91
      P1  H  7997  8008       L1     4  0.93

> <Gold.Chemscore.Hbond.Weighted>
-9.7163

> <Gold.Chemscore.Metal.Weighted>
-0.0000

> <Gold.Chemscore.Lipo.Weighted>
-10.6873

> <Gold.Chemscore.Internal_Hbond.Weighted>
0.0000

> <Gold.Chemscore.DEClash.Weighted>
0.0004

> <Gold.Chemscore.DEInternal.Weighted>
2.2883

> <Gold.Chemscore.Rot.Weighted>
4.5135

> <Gold.Chemscore.Internal.Correction.Weighted>
   9.000000E+99

> <Gold.Protein.RotatedTorsions>
[ 6907 6896 6895 6894 ] final   92.35 input  -60.11 | X-H torsion
[ 7974 7965 7964 7962 ] final   -3.61 input  175.53 | X-H torsion
[ 8008 7997 7996 7995 ] final  -73.20 input   59.86 | X-H torsion
[ 10167 10162 10161 10158 ] final -174.06 input  -65.29 | X-H torsion
[ 10718 10713 10712 10709 ] final   29.03 input   66.30 | X-H torsion
[ 10763 10752 10751 10750 ] final   66.98 input  -60.55 | X-H torsion
[ 11005 11000 10999 10996 ] final  -67.02 input  -57.11 | X-H torsion

> <Gold.Protein.ActiveResidues>
 VAL166  LYS551  ARG553  GLY616  TRP617  ASP618  TYR619  PRO620  LYS621  CYS622 
 ASP623  PHE694  ASN695  SER759  ASP760  ASP761  ALA762  ILE779  LEU786  VAL792 
 PHE793  MET794  SER795  GLU796  ALA797  LYS798  CYS799  TRP800  GLU811  SER814 

> <Gold.Protein.RotatedAtoms>
  152.5452  134.1515  159.8520 H   0  0  0  0  0  0  0  0  0  0  0  0  # atno 6907 bound_to 6896
  151.1542  133.4880  159.2602 H   0  0  0  0  0  0  0  0  0  0  0  0  # atno 6908 bound_to 6896
  151.1440  135.0205  159.8693 H   0  0  0  0  0  0  0  0  0  0  0  0  # atno 6909 bound_to 6896
  146.2387  140.1746  142.8332 H   0  0  0  0  0  0  0  0  0  0  0  0  # atno 7974 bound_to 7965
  154.5228  140.0783  156.8203 H   0  0  0  0  0  0  0  0  0  0  0  0  # atno 8008 bound_to 7997
  155.3540  140.3414  155.4221 H   0  0  0  0  0  0  0  0  0  0  0  0  # atno 8009 bound_to 7997
  156.1699  140.1616  156.8452 H   0  0  0  0  0  0  0  0  0  0  0  0  # atno 8010 bound_to 7997
  139.5654  144.1768  152.1304 H   0  0  0  0  0  0  0  0  0  0  0  0  # atno 10167 bound_to 10162
  157.2412  130.7070  149.6359 H   0  0  0  0  0  0  0  0  0  0  0  0  # atno 10718 bound_to 10713
  153.0165  135.5300  154.6909 H   0  0  0  0  0  0  0  0  0  0  0  0  # atno 10763 bound_to 10752
  154.6044  135.2871  155.0503 H   0  0  0  0  0  0  0  0  0  0  0  0  # atno 10764 bound_to 10752
  154.1548  135.6557  153.5024 H   0  0  0  0  0  0  0  0  0  0  0  0  # atno 10765 bound_to 10752
  141.1497  133.6710  156.6228 H   0  0  0  0  0  0  0  0  0  0  0  0  # atno 11005 bound_to 11000
  144.9983  140.8609  143.5297 LP  0  0  0  0  0  0  0  0  0  0  0  0  # atno 17320 bound_to 7965
  145.1762  139.2377  143.5316 LP  0  0  0  0  0  0  0  0  0  0  0  0  # atno 17321 bound_to 7965
  140.1289  144.5306  150.6815 LP  0  0  0  0  0  0  0  0  0  0  0  0  # atno 17342 bound_to 10162
  140.6937  143.2391  151.5059 LP  0  0  0  0  0  0  0  0  0  0  0  0  # atno 17343 bound_to 10162
  155.9670  130.4457  150.5514 LP  0  0  0  0  0  0  0  0  0  0  0  0  # atno 17370 bound_to 10713
  157.3377  131.0711  151.1812 LP  0  0  0  0  0  0  0  0  0  0  0  0  # atno 17371 bound_to 10713
  140.3527  134.7755  157.4478 LP  0  0  0  0  0  0  0  0  0  0  0  0  # atno 17394 bound_to 11000
  140.0848  134.5682  155.8503 LP  0  0  0  0  0  0  0  0  0  0  0  0  # atno 17395 bound_to 11000

$$$$
