AV-unprocessed.smi:1603|AV-procd|sdf|6445|dock1
  -GOLD-   22720 7 93D 1   1.00000     0.00000
 Structure written by MMmdl.
 44 46  0  0  0  0  0  0  0  0  1 V2000
  153.8252  138.7708  158.9093 O   0  0  0  0  0  0  0  0  0  0  0  0
  153.3467  139.8910  159.0898 C   0  0  0  0  0  0  0  0  0  0  0  0
  153.6810  140.7353  160.2471 C   0  0  0  0  0  0  0  0  0  0  0  0
  154.6919  140.1975  161.2563 C   0  0  0  0  0  0  0  0  0  0  0  0
  154.3886  138.9587  161.6473 F   0  0  0  0  0  0  0  0  0  0  0  0
  155.9143  140.1702  160.7242 F   0  0  0  0  0  0  0  0  0  0  0  0
  154.7274  140.9702  162.3429 F   0  0  0  0  0  0  0  0  0  0  0  0
  153.1061  141.9543  160.3882 C   0  0  0  0  0  0  0  0  0  0  0  0
  152.1546  142.4320  159.4059 C   0  0  0  0  0  0  0  0  0  0  0  0
  151.4645  143.7621  159.5091 C   0  0  0  0  0  0  0  0  0  0  0  0
  151.4688  144.7638  158.3768 C   0  0  0  0  0  0  0  0  0  0  0  0
  152.2426  145.0502  159.6433 C   0  0  0  0  0  0  0  0  0  0  0  0
  151.8713  141.6942  158.3860 N   0  0  0  0  0  0  0  0  0  0  0  0
  152.4588  140.4551  158.2178 N   0  0  0  0  0  0  0  0  0  0  0  0
  152.0305  139.7639  156.9930 C   0  0  0  0  0  0  0  0  0  0  0  0
  150.7166  140.3396  156.4190 C   0  0  2  0  0  0  0  0  0  0  0  0
  149.7673  140.3367  157.4667 O   0  0  0  0  0  0  0  0  0  0  0  0
  150.1500  139.5329  155.2283 C   0  0  0  0  0  0  0  0  0  0  0  0
  148.8119  139.9286  154.7905 N   0  0  0  0  0  0  0  0  0  0  0  0
  148.8109  141.2965  154.2832 C   0  0  0  0  0  0  0  0  0  0  0  0
  147.4120  141.7360  153.8176 C   0  0  0  0  0  0  0  0  0  0  0  0
  146.9353  140.8320  152.8264 O   0  0  0  0  0  0  0  0  0  0  0  0
  146.8769  139.4877  153.2924 C   0  0  0  0  0  0  0  0  0  0  0  0
  148.2720  139.0407  153.7633 C   0  0  0  0  0  0  0  0  0  0  0  0
  153.3433  142.5902  161.2280 H   0  0  0  0  0  0  0  0  0  0  0  0
  150.5453  143.6754  160.0857 H   0  0  0  0  0  0  0  0  0  0  0  0
  152.0467  144.5328  157.4838 H   0  0  0  0  0  0  0  0  0  0  0  0
  150.5564  145.3316  158.2064 H   0  0  0  0  0  0  0  0  0  0  0  0
  151.8454  145.8076  160.3160 H   0  0  0  0  0  0  0  0  0  0  0  0
  153.3285  144.9997  159.5874 H   0  0  0  0  0  0  0  0  0  0  0  0
  152.8059  139.7600  156.2252 H   0  0  0  0  0  0  0  0  0  0  0  0
  151.8823  138.7120  157.2457 H   0  0  0  0  0  0  0  0  0  0  0  0
  150.8826  141.3770  156.1242 H   0  0  0  0  0  0  0  0  0  0  0  0
  149.1619  139.6260  157.3208 H   0  0  0  0  0  0  0  0  0  0  0  0
  150.8180  139.6707  154.3798 H   0  0  0  0  0  0  0  0  0  0  0  0
  150.1822  138.4630  155.4411 H   0  0  0  0  0  0  0  0  0  0  0  0
  149.1624  141.9795  155.0573 H   0  0  0  0  0  0  0  0  0  0  0  0
  149.5103  141.3828  153.4500 H   0  0  0  0  0  0  0  0  0  0  0  0
  146.7168  141.7667  154.6581 H   0  0  0  0  0  0  0  0  0  0  0  0
  147.4506  142.7401  153.3956 H   0  0  0  0  0  0  0  0  0  0  0  0
  146.1521  139.4091  154.1044 H   0  0  0  0  0  0  0  0  0  0  0  0
  146.5251  138.8450  152.4855 H   0  0  0  0  0  0  0  0  0  0  0  0
  148.9495  139.0089  152.9086 H   0  0  0  0  0  0  0  0  0  0  0  0
  148.2018  138.0222  154.1446 H   0  0  0  0  0  0  0  0  0  0  0  0
  1  2  2  0  0  0  0
  2 14  1  0  0  0  0
  2  3  1  0  0  0  0
  3  4  1  0  0  0  0
  3  8  2  0  0  0  0
  4  5  1  0  0  0  0
  4  6  1  0  0  0  0
  4  7  1  0  0  0  0
  8  9  1  0  0  0  0
  8 25  1  0  0  0  0
  9 10  1  0  0  0  0
  9 13  2  0  0  0  0
 10 12  1  0  0  0  0
 10 11  1  0  0  0  0
 10 26  1  0  0  0  0
 11 12  1  0  0  0  0
 11 27  1  0  0  0  0
 11 28  1  0  0  0  0
 12 29  1  0  0  0  0
 12 30  1  0  0  0  0
 13 14  1  0  0  0  0
 14 15  1  0  0  0  0
 15 16  1  0  0  0  0
 15 31  1  0  0  0  0
 15 32  1  0  0  0  0
 16 17  1  0  0  0  0
 16 18  1  0  0  0  0
 16 33  1  0  0  0  0
 17 34  1  0  0  0  0
 18 19  1  0  0  0  0
 18 35  1  0  0  0  0
 18 36  1  0  0  0  0
 19 24  1  0  0  0  0
 19 20  1  0  0  0  0
 20 21  1  0  0  0  0
 20 37  1  0  0  0  0
 20 38  1  0  0  0  0
 21 22  1  0  0  0  0
 21 39  1  0  0  0  0
 21 40  1  0  0  0  0
 22 23  1  0  0  0  0
 23 24  1  0  0  0  0
 23 41  1  0  0  0  0
 23 42  1  0  0  0  0
 24 43  1  0  0  0  0
 24 44  1  0  0  0  0
M  END
> <s_m_source_file>
AV-unprocessed.smi

> <i_m_source_file_index>
1603

> <i_lp_mmshare_version>
43012

> <i_f3d_flags>
0

> <s_epik_input>
Tz1jMWMoQyhGKShGKUYpW2NIXWMoW0NIXTJbQ0gyXVtDSDJdMilubjFbQ0gyXVtDQEhdKFtPSF0pW0NIMl1OM1tDSDJdW0NIMl1PW0NIMl1bQ0gyXTM=

> <s_epik_cmdline>
J2VwaWtfcHl0aG9uJywgJy1waCcsICc3LjAnLCAnLXRuJywgJzgnLCAnLW1hJywgJzIwMCcsICctbWV0YWxfYmluZGluZycsICctaW1hZScsICc8aW5maWxlLm1hZT4nLCAnLW9tYWUnLCAnPG91dGZpbGUubWFlPic=

> <r_lp_tautomer_probability>
1

> <r_epik_Ionization_Penalty>
0.450313

> <r_epik_Ionization_Penalty_Charging>
7.22079e-10

> <r_epik_Ionization_Penalty_Neutral>
0.450313

> <r_epik_State_Penalty>
0.45306

> <r_epik_Charging_Adjusted_Penalty>
0.45306

> <i_epik_Tot_Q>
0

> <i_epik_Tot_abs_Q>
0

> <r_epik_Metal_State_Penalty>
0.45306

> <b_epik_Metal_Only>
0

> <s_lp_Force_Field>
OPLS_2005

> <r_lp_Energy>
49.46

> <b_lp_Chiralities_Consistent>
1

> <s_lp_Variant>
AV-unprocessed.smi:1603-3

> <Gold.Version>
5.8.1

> <Gold.Id.Protein>
6NUR|6NUR_protein|mol2

> <Gold.PLP.Fitness>
44.2861

> <Gold.PLP.PLP>
-45.8337

> <Gold.PLP.part.hbond>
-0.0021

> <Gold.PLP.part.metal>
0.0000

> <Gold.PLP.part.buried>
-2.5408

> <Gold.PLP.part.nonpolar>
-43.2787

> <Gold.PLP.part.repulsive>
0.2949

> <Gold.PLP.ligand.clash>
0.9537

> <Gold.PLP.ligand.torsion>
0.7050

> <Gold.PLP.Chemscore.Hbond>
0.0000

> <Gold.PLP.Chemscore.CHOScore>
0.0000

> <Gold.PLP.Chemscore.Metal>
0.0000

> <Gold.PLP.Chemscore.Internal.Correction>
0.8162

> <Gold.Rescore>
     Score         DG    S(hbond)    S(metal)    S(lipo)     H(rot)  DE(clash)    DE(int)     intcor
     10.60     -13.10       0.00        0.00     118.26       2.43       0.34       2.17       ----

> <Gold.Chemscore.Fitness>
10.6005

> <Gold.Chemscore.DG>
-13.1025

> <Gold.Chemscore.ZeroCoef>
-5.4800

> <Gold.Chemscore.Hbond>
0.0000

> <Gold.Chemscore.Metal>
0.0000

> <Gold.Chemscore.Lipo>
118.2564

> <Gold.Chemscore.Internal_Hbond>
0.0000

> <Gold.Chemscore.DEClash>
0.3366

> <Gold.Chemscore.DEInternal>
2.1653

> <Gold.Chemscore.Rot>
2.4272

> <Gold.Chemscore.Internal.Correction>
   9.000000E+99

> <Gold.Chemscore.Hbond.Weighted>
-0.0000

> <Gold.Chemscore.Metal.Weighted>
-0.0000

> <Gold.Chemscore.Lipo.Weighted>
-13.8360

> <Gold.Chemscore.Internal_Hbond.Weighted>
0.0000

> <Gold.Chemscore.DEClash.Weighted>
0.3366

> <Gold.Chemscore.DEInternal.Weighted>
2.1653

> <Gold.Chemscore.Rot.Weighted>
6.2135

> <Gold.Chemscore.Internal.Correction.Weighted>
   9.000000E+99

> <Gold.Protein.RotatedTorsions>
[ 6907 6896 6895 6894 ] final  174.77 input  -60.11 | X-H torsion
[ 7974 7965 7964 7962 ] final  -40.98 input  175.53 | X-H torsion
[ 8008 7997 7996 7995 ] final   92.97 input   59.86 | X-H torsion
[ 10167 10162 10161 10158 ] final  -73.06 input  -65.29 | X-H torsion
[ 10718 10713 10712 10709 ] final  127.33 input   66.30 | X-H torsion
[ 10763 10752 10751 10750 ] final  169.45 input  -60.55 | X-H torsion
[ 11005 11000 10999 10996 ] final  -76.40 input  -57.11 | X-H torsion

> <Gold.Protein.ActiveResidues>
 VAL166  LYS551  ARG553  GLY616  TRP617  ASP618  TYR619  PRO620  LYS621  CYS622 
 ASP623  PHE694  ASN695  SER759  ASP760  ASP761  ALA762  ILE779  LEU786  VAL792 
 PHE793  MET794  SER795  GLU796  ALA797  LYS798  CYS799  TRP800  GLU811  SER814 

> <Gold.Protein.RotatedAtoms>
  151.7470  133.3325  159.3380 H   0  0  0  0  0  0  0  0  0  0  0  0  # atno 6907 bound_to 6896
  150.7550  134.6227  159.6154 H   0  0  0  0  0  0  0  0  0  0  0  0  # atno 6908 bound_to 6896
  152.3493  134.7029  160.0292 H   0  0  0  0  0  0  0  0  0  0  0  0  # atno 6909 bound_to 6896
  146.0254  140.6798  142.9158 H   0  0  0  0  0  0  0  0  0  0  0  0  # atno 7974 bound_to 7965
  156.0414  140.3319  155.7248 H   0  0  0  0  0  0  0  0  0  0  0  0  # atno 8008 bound_to 7997
  155.5738  140.0630  157.2817 H   0  0  0  0  0  0  0  0  0  0  0  0  # atno 8009 bound_to 7997
  154.4395  140.1856  156.0895 H   0  0  0  0  0  0  0  0  0  0  0  0  # atno 8010 bound_to 7997
  140.5141  143.2340  151.7542 H   0  0  0  0  0  0  0  0  0  0  0  0  # atno 10167 bound_to 10162
  157.5342  131.1098  150.8962 H   0  0  0  0  0  0  0  0  0  0  0  0  # atno 10718 bound_to 10713
  154.3833  135.2753  155.2198 H   0  0  0  0  0  0  0  0  0  0  0  0  # atno 10763 bound_to 10752
  154.4295  135.5980  153.6063 H   0  0  0  0  0  0  0  0  0  0  0  0  # atno 10764 bound_to 10752
  152.9834  135.5992  154.4079 H   0  0  0  0  0  0  0  0  0  0  0  0  # atno 10765 bound_to 10752
  141.1653  133.6982  156.7664 H   0  0  0  0  0  0  0  0  0  0  0  0  # atno 11005 bound_to 11000
  144.7007  140.3641  143.7158 LP  0  0  0  0  0  0  0  0  0  0  0  0  # atno 17320 bound_to 7965
  145.7126  139.1688  143.2530 LP  0  0  0  0  0  0  0  0  0  0  0  0  # atno 17321 bound_to 7965
  139.4904  144.4348  151.9831 LP  0  0  0  0  0  0  0  0  0  0  0  0  # atno 17342 bound_to 10162
  140.3442  144.3167  150.5961 LP  0  0  0  0  0  0  0  0  0  0  0  0  # atno 17343 bound_to 10162
  156.9534  130.5428  149.5283 LP  0  0  0  0  0  0  0  0  0  0  0  0  # atno 17370 bound_to 10713
  156.0445  130.5524  150.8849 LP  0  0  0  0  0  0  0  0  0  0  0  0  # atno 17371 bound_to 10713
  140.2496  134.8550  157.3654 LP  0  0  0  0  0  0  0  0  0  0  0  0  # atno 17394 bound_to 11000
  140.1715  134.4602  155.7828 LP  0  0  0  0  0  0  0  0  0  0  0  0  # atno 17395 bound_to 11000

$$$$
