AV-unprocessed.smi:1912|AV-procd|sdf|7748|dock6
  -GOLD-   22720 9483D 1   1.00000     0.00000
 Structure written by MMmdl.
 43 45  0  0  0  0  0  0  0  0  1 V2000
  150.7223  136.8141  155.4390 C   0  0  0  0  0  0  0  0  0  0  0  0
  151.2569  135.5860  155.9115 O   0  0  0  0  0  0  0  0  0  0  0  0
  150.6469  134.4155  155.5136 C   0  0  0  0  0  0  0  0  0  0  0  0
  151.1162  133.2212  156.0907 C   0  0  0  0  0  0  0  0  0  0  0  0
  150.5439  131.9819  155.7518 C   0  0  0  0  0  0  0  0  0  0  0  0
  149.4841  131.9083  154.8146 C   0  0  0  0  0  0  0  0  0  0  0  0
  148.8704  130.7252  154.4545 O   0  0  0  0  0  0  0  0  0  0  0  0
  149.6331  129.5283  154.4864 C   0  0  0  0  0  0  0  0  0  0  0  0
  149.0169  133.1039  154.2157 C   0  0  0  0  0  0  0  0  0  0  0  0
  147.8735  133.0515  153.2058 C   0  0  2  0  0  0  0  0  0  0  0  0
  148.2933  133.3037  151.8774 O   0  0  0  0  0  0  0  0  0  0  0  0
  146.7479  134.0305  153.5934 C   0  0  0  0  0  0  0  0  0  0  0  0
  145.8840  134.3666  152.4707 N   0  0  0  0  0  0  0  0  0  0  0  0
  145.4733  135.5978  152.0792 C   0  0  0  0  0  0  0  0  0  0  0  0
  145.8947  136.8381  152.8030 C   0  0  0  0  0  0  0  0  0  0  0  0
  144.6773  135.6330  151.0105 N   0  0  0  0  0  0  0  0  0  0  0  0
  144.5631  134.2976  150.6742 C   0  0  0  0  0  0  0  0  0  0  0  0
  143.8514  133.6725  149.6253 C   0  0  0  0  0  0  0  0  0  0  0  0
  143.8844  132.2702  149.4767 C   0  0  0  0  0  0  0  0  0  0  0  0
  144.6264  131.4745  150.3735 C   0  0  0  0  0  0  0  0  0  0  0  0
  145.3420  132.0770  151.4261 C   0  0  0  0  0  0  0  0  0  0  0  0
  145.3076  133.4771  151.5691 C   0  0  0  0  0  0  0  0  0  0  0  0
  149.5900  134.3456  154.5742 C   0  0  0  0  0  0  0  0  0  0  0  0
  151.3058  137.6404  155.8449 H   0  0  0  0  0  0  0  0  0  0  0  0
  149.6896  136.9506  155.7630 H   0  0  0  0  0  0  0  0  0  0  0  0
  150.7719  136.8784  154.3512 H   0  0  0  0  0  0  0  0  0  0  0  0
  151.9224  133.2556  156.8090 H   0  0  0  0  0  0  0  0  0  0  0  0
  150.9374  131.0988  156.2312 H   0  0  0  0  0  0  0  0  0  0  0  0
  149.0005  128.6928  154.1868 H   0  0  0  0  0  0  0  0  0  0  0  0
  150.0034  129.3173  155.4905 H   0  0  0  0  0  0  0  0  0  0  0  0
  150.4726  129.5719  153.7914 H   0  0  0  0  0  0  0  0  0  0  0  0
  147.4761  132.0368  153.1915 H   0  0  0  0  0  0  0  0  0  0  0  0
  148.7524  132.5414  151.5593 H   0  0  0  0  0  0  0  0  0  0  0  0
  146.1326  133.6033  154.3856 H   0  0  0  0  0  0  0  0  0  0  0  0
  147.1681  134.9498  154.0036 H   0  0  0  0  0  0  0  0  0  0  0  0
  145.4414  137.7194  152.3477 H   0  0  0  0  0  0  0  0  0  0  0  0
  146.9781  136.9508  152.7609 H   0  0  0  0  0  0  0  0  0  0  0  0
  145.5842  136.7952  153.8466 H   0  0  0  0  0  0  0  0  0  0  0  0
  143.2796  134.2733  148.9336 H   0  0  0  0  0  0  0  0  0  0  0  0
  143.3373  131.8029  148.6710 H   0  0  0  0  0  0  0  0  0  0  0  0
  144.6459  130.4012  150.2534 H   0  0  0  0  0  0  0  0  0  0  0  0
  145.9085  131.4701  152.1166 H   0  0  0  0  0  0  0  0  0  0  0  0
  149.2014  135.2436  154.1192 H   0  0  0  0  0  0  0  0  0  0  0  0
  1  2  1  0  0  0  0
  1 24  1  0  0  0  0
  1 25  1  0  0  0  0
  1 26  1  0  0  0  0
  2  3  1  0  0  0  0
  3 23  1  0  0  0  0
  3  4  2  0  0  0  0
  4  5  1  0  0  0  0
  4 27  1  0  0  0  0
  5  6  2  0  0  0  0
  5 28  1  0  0  0  0
  6  7  1  0  0  0  0
  6  9  1  0  0  0  0
  7  8  1  0  0  0  0
  8 29  1  0  0  0  0
  8 30  1  0  0  0  0
  8 31  1  0  0  0  0
  9 10  1  0  0  0  0
  9 23  2  0  0  0  0
 10 11  1  0  0  0  0
 10 12  1  0  0  0  0
 10 32  1  0  0  0  0
 11 33  1  0  0  0  0
 12 13  1  0  0  0  0
 12 34  1  0  0  0  0
 12 35  1  0  0  0  0
 13 22  1  0  0  0  0
 13 14  1  0  0  0  0
 14 15  1  0  0  0  0
 14 16  2  0  0  0  0
 15 36  1  0  0  0  0
 15 37  1  0  0  0  0
 15 38  1  0  0  0  0
 16 17  1  0  0  0  0
 17 22  2  0  0  0  0
 17 18  1  0  0  0  0
 18 19  2  0  0  0  0
 18 39  1  0  0  0  0
 19 20  1  0  0  0  0
 19 40  1  0  0  0  0
 20 21  2  0  0  0  0
 20 41  1  0  0  0  0
 21 22  1  0  0  0  0
 21 42  1  0  0  0  0
 23 43  1  0  0  0  0
M  END
> <s_m_source_file>
AV-unprocessed.smi

> <i_m_source_file_index>
1912

> <i_lp_mmshare_version>
43012

> <i_f3d_flags>
0

> <s_epik_input>
W0NIM11PYzFbY0hdW2NIXWMoT1tDSDNdKWMoW2NIXTEpW0NASF0oW09IXSlbQ0gyXW4oYyhuMilbQ0gzXSljKGMyMylbY0hdW2NIXVtjSF1bY0hdMw==

> <s_epik_cmdline>
J2VwaWtfcHl0aG9uJywgJy1waCcsICc3LjAnLCAnLXRuJywgJzgnLCAnLW1hJywgJzIwMCcsICctbWV0YWxfYmluZGluZycsICctaW1hZScsICc8aW5maWxlLm1hZT4nLCAnLW9tYWUnLCAnPG91dGZpbGUubWFlPic=

> <r_lp_tautomer_probability>
1

> <r_epik_Ionization_Penalty>
0.129663

> <r_epik_Ionization_Penalty_Charging>
0

> <r_epik_Ionization_Penalty_Neutral>
0.129663

> <r_epik_State_Penalty>
0.119073

> <r_epik_Charging_Adjusted_Penalty>
0.119073

> <i_epik_Tot_Q>
0

> <i_epik_Tot_abs_Q>
0

> <r_epik_Metal_State_Penalty>
0.000131867

> <b_epik_Metal_Only>
0

> <s_lp_Force_Field>
OPLS_2005

> <r_lp_Energy>
18.8247

> <b_lp_Chiralities_Consistent>
1

> <s_lp_Variant>
AV-unprocessed.smi:1912-1

> <Gold.Version>
5.8.1

> <Gold.Id.Protein>
6NUR|6NUR_protein|mol2

> <Gold.PLP.Fitness>
40.6561

> <Gold.PLP.PLP>
-36.6047

> <Gold.PLP.part.hbond>
-2.9872

> <Gold.PLP.part.metal>
0.0000

> <Gold.PLP.part.buried>
1.1757

> <Gold.PLP.part.nonpolar>
-35.6974

> <Gold.PLP.part.repulsive>
0.3196

> <Gold.PLP.ligand.clash>
0.0000

> <Gold.PLP.ligand.torsion>
0.9829

> <Gold.PLP.Chemscore.Hbond>
1.9833

> <Gold.PLP.Chemscore.CHOScore>
0.0000

> <Gold.PLP.Chemscore.Metal>
0.0000

> <Gold.Chemscore.Hbonds>
donor molecule, donor type, donor heavy atom, donor atom, acceptor molecule, acceptor atom, score
      L1  H    11    33       P1 10747  0.81
      P1  H 10752 10763       L1     2  0.83

> <Gold.PLP.Chemscore.Internal.Correction>
0.0674

> <Gold.Rescore>
     Score         DG    S(hbond)    S(metal)    S(lipo)     H(rot)  DE(clash)    DE(int)     intcor
     12.79     -17.21       1.35        0.00     109.17       2.17       2.63       1.78       ----

> <Gold.Chemscore.Fitness>
12.7931

> <Gold.Chemscore.DG>
-17.2084

> <Gold.Chemscore.ZeroCoef>
-5.4800

> <Gold.Chemscore.Hbond>
1.3499

> <Gold.Chemscore.Metal>
0.0000

> <Gold.Chemscore.Lipo>
109.1669

> <Gold.Chemscore.Internal_Hbond>
0.0000

> <Gold.Chemscore.DEClash>
2.6350

> <Gold.Chemscore.DEInternal>
1.7803

> <Gold.Chemscore.Rot>
2.1690

> <Gold.Chemscore.Internal.Correction>
   9.000000E+99

> <Gold.Chemscore.Hbonds>
donor molecule, donor type, donor heavy atom, donor atom, acceptor molecule, acceptor atom, score
      L1  H    11    33       P1 10747  0.76
      P1  H 10752 10763       L1     2  0.21

> <Gold.Chemscore.Hbond.Weighted>
-4.5085

> <Gold.Chemscore.Metal.Weighted>
-0.0000

> <Gold.Chemscore.Lipo.Weighted>
-12.7725

> <Gold.Chemscore.Internal_Hbond.Weighted>
0.0000

> <Gold.Chemscore.DEClash.Weighted>
2.6350

> <Gold.Chemscore.DEInternal.Weighted>
1.7803

> <Gold.Chemscore.Rot.Weighted>
5.5526

> <Gold.Chemscore.Internal.Correction.Weighted>
   9.000000E+99

> <Gold.Protein.RotatedTorsions>
[ 6907 6896 6895 6894 ] final -151.58 input  -60.11 | X-H torsion
[ 7974 7965 7964 7962 ] final  -15.95 input  175.53 | X-H torsion
[ 8008 7997 7996 7995 ] final  -60.89 input   59.86 | X-H torsion
[ 10167 10162 10161 10158 ] final  155.30 input  -65.29 | X-H torsion
[ 10718 10713 10712 10709 ] final   85.14 input   66.30 | X-H torsion
[ 10763 10752 10751 10750 ] final   95.82 input  -60.55 | X-H torsion
[ 11005 11000 10999 10996 ] final  -10.07 input  -57.11 | X-H torsion

> <Gold.Protein.ActiveResidues>
 VAL166  LYS551  ARG553  GLY616  TRP617  ASP618  TYR619  PRO620  LYS621  CYS622 
 ASP623  PHE694  ASN695  SER759  ASP760  ASP761  ALA762  ILE779  LEU786  VAL792 
 PHE793  MET794  SER795  GLU796  ALA797  LYS798  CYS799  TRP800  GLU811  SER814 

> <Gold.Protein.RotatedAtoms>
  151.2152  133.4533  159.2598 H   0  0  0  0  0  0  0  0  0  0  0  0  # atno 6907 bound_to 6896
  151.0938  134.9932  159.8426 H   0  0  0  0  0  0  0  0  0  0  0  0  # atno 6908 bound_to 6896
  152.5437  134.2084  159.8793 H   0  0  0  0  0  0  0  0  0  0  0  0  # atno 6909 bound_to 6896
  146.2009  140.3567  142.8424 H   0  0  0  0  0  0  0  0  0  0  0  0  # atno 7974 bound_to 7965
  154.4420  140.1030  156.6344 H   0  0  0  0  0  0  0  0  0  0  0  0  # atno 8008 bound_to 7997
  155.5570  140.3487  155.4463 H   0  0  0  0  0  0  0  0  0  0  0  0  # atno 8009 bound_to 7997
  156.0488  140.1299  157.0063 H   0  0  0  0  0  0  0  0  0  0  0  0  # atno 8010 bound_to 7997
  139.4821  144.5110  151.8024 H   0  0  0  0  0  0  0  0  0  0  0  0  # atno 10167 bound_to 10162
  157.6910  131.0162  150.2777 H   0  0  0  0  0  0  0  0  0  0  0  0  # atno 10718 bound_to 10713
  153.2577  135.4240  155.0862 H   0  0  0  0  0  0  0  0  0  0  0  0  # atno 10763 bound_to 10752
  154.8407  135.3441  154.6422 H   0  0  0  0  0  0  0  0  0  0  0  0  # atno 10764 bound_to 10752
  153.6842  135.7037  153.5166 H   0  0  0  0  0  0  0  0  0  0  0  0  # atno 10765 bound_to 10752
  140.7408  133.8671  155.8966 H   0  0  0  0  0  0  0  0  0  0  0  0  # atno 11005 bound_to 11000
  144.8682  140.7235  143.6064 LP  0  0  0  0  0  0  0  0  0  0  0  0  # atno 17320 bound_to 7965
  145.3486  139.1712  143.4446 LP  0  0  0  0  0  0  0  0  0  0  0  0  # atno 17321 bound_to 7965
  140.4614  144.1717  150.5906 LP  0  0  0  0  0  0  0  0  0  0  0  0  # atno 17342 bound_to 10162
  140.4481  143.2498  151.9384 LP  0  0  0  0  0  0  0  0  0  0  0  0  # atno 17343 bound_to 10162
  156.3329  130.3803  149.7475 LP  0  0  0  0  0  0  0  0  0  0  0  0  # atno 17370 bound_to 10713
  156.5009  130.8128  151.3132 LP  0  0  0  0  0  0  0  0  0  0  0  0  # atno 17371 bound_to 10713
  140.9838  134.1370  157.4471 LP  0  0  0  0  0  0  0  0  0  0  0  0  # atno 17394 bound_to 11000
  139.8806  135.0019  156.6094 LP  0  0  0  0  0  0  0  0  0  0  0  0  # atno 17395 bound_to 11000

$$$$
