AV-unprocessed.smi:2895|AV-procd|sdf|11133|dock4
  -GOLD-   2272016 03D 1   1.00000     0.00000
 Structure written by MMmdl.
 54 57  0  0  0  0  0  0  0  0  3 V2000
  150.0252  134.1235  154.7704 O   0  0  0  0  0  0  0  0  0  0  0  0
  148.9777  134.7711  154.7294 C   0  0  0  0  0  0  0  0  0  0  0  0
  148.9596  136.0977  154.9523 N   0  0  0  0  0  0  0  0  0  0  0  0
  150.1273  136.9165  155.2565 C   0  0  0  0  0  0  0  0  0  0  0  0
  149.9204  137.7422  156.5363 C   0  0  0  0  0  0  0  0  0  0  0  0
  149.8177  139.2273  156.2466 C   0  0  0  0  0  0  0  0  0  0  0  0
  149.9598  140.1718  157.2872 C   0  0  0  0  0  0  0  0  0  0  0  0
  149.8611  141.5459  156.9869 C   0  0  0  0  0  0  0  0  0  0  0  0
  149.6348  141.9424  155.7151 N   0  3  0  0  0  0  0  0  0  0  0  0
  149.4954  141.0720  154.6910 C   0  0  0  0  0  0  0  0  0  0  0  0
  149.5838  139.6855  154.9311 C   0  0  0  0  0  0  0  0  0  0  0  0
  147.7702  134.2181  154.4343 N   0  0  0  0  0  0  0  0  0  0  0  0
  146.5520  135.0253  154.1867 C   0  0  0  0  0  0  0  0  0  0  0  0
  145.2303  134.2632  154.3824 C   0  0  0  0  0  0  0  0  0  0  0  0
  145.2393  132.9391  153.7197 N   0  3  0  0  0  0  0  0  0  0  0  0
  145.2733  132.9638  152.2227 C   0  0  1  0  0  0  0  0  0  0  0  0
  144.9687  131.5734  151.6043 C   0  0  0  0  0  0  0  0  0  0  0  0
  143.8212  131.8574  150.6213 C   0  0  2  0  0  0  0  0  0  0  0  0
  144.3438  132.6929  149.4402 C   0  0  0  0  0  0  0  0  0  0  0  0
  144.5628  134.0748  150.0802 C   0  0  0  0  0  0  0  0  0  0  0  0
  144.1760  133.8382  151.5535 C   0  0  1  0  0  0  0  0  0  0  0  0
  143.0036  132.8751  151.4042 C   0  0  0  0  0  0  0  0  0  0  0  0
  146.3146  132.1221  154.3293 C   0  0  0  0  0  0  0  0  0  0  0  0
  147.7078  132.7632  154.1761 C   0  0  0  0  0  0  0  0  0  0  0  0
  148.0720  136.5756  154.8935 H   0  0  0  0  0  0  0  0  0  0  0  0
  151.0143  136.2870  155.3463 H   0  0  0  0  0  0  0  0  0  0  0  0
  150.3035  137.5801  154.4095 H   0  0  0  0  0  0  0  0  0  0  0  0
  149.0139  137.4179  157.0490 H   0  0  0  0  0  0  0  0  0  0  0  0
  150.7431  137.5738  157.2327 H   0  0  0  0  0  0  0  0  0  0  0  0
  150.1432  139.8496  158.3023 H   0  0  0  0  0  0  0  0  0  0  0  0
  149.9557  142.3338  157.7199 H   0  0  0  0  0  0  0  0  0  0  0  0
  149.3189  141.5074  153.7182 H   0  0  0  0  0  0  0  0  0  0  0  0
  149.4748  138.9849  154.1159 H   0  0  0  0  0  0  0  0  0  0  0  0
  146.5084  135.8960  154.8428 H   0  0  0  0  0  0  0  0  0  0  0  0
  146.6048  135.4113  153.1677 H   0  0  0  0  0  0  0  0  0  0  0  0
  145.0757  134.1017  155.4503 H   0  0  0  0  0  0  0  0  0  0  0  0
  144.3831  134.8721  154.0754 H   0  0  0  0  0  0  0  0  0  0  0  0
  146.2557  133.3096  151.8997 H   0  0  0  0  0  0  0  0  0  0  0  0
  145.8396  131.1374  151.1131 H   0  0  0  0  0  0  0  0  0  0  0  0
  144.6202  130.8604  152.3524 H   0  0  0  0  0  0  0  0  0  0  0  0
  143.2750  130.9639  150.3177 H   0  0  0  0  0  0  0  0  0  0  0  0
  145.2593  132.2798  149.0147 H   0  0  0  0  0  0  0  0  0  0  0  0
  143.6002  132.7520  148.6441 H   0  0  0  0  0  0  0  0  0  0  0  0
  145.5872  134.4310  149.9659 H   0  0  0  0  0  0  0  0  0  0  0  0
  143.9036  134.8140  149.6230 H   0  0  0  0  0  0  0  0  0  0  0  0
  143.9347  134.7734  152.0532 H   0  0  0  0  0  0  0  0  0  0  0  0
  142.1710  133.2914  150.8343 H   0  0  0  0  0  0  0  0  0  0  0  0
  142.6306  132.4943  152.3565 H   0  0  0  0  0  0  0  0  0  0  0  0
  146.0922  132.0085  155.3913 H   0  0  0  0  0  0  0  0  0  0  0  0
  146.3253  131.1090  153.9291 H   0  0  0  0  0  0  0  0  0  0  0  0
  148.0721  132.5943  153.1618 H   0  0  0  0  0  0  0  0  0  0  0  0
  148.3881  132.2165  154.8319 H   0  0  0  0  0  0  0  0  0  0  0  0
  144.3663  132.4943  153.9655 H   0  0  0  0  0  0  0  0  0  0  0  0
  149.5665  142.9415  155.5200 H   0  0  0  0  0  0  0  0  0  0  0  0
  1  2  2  0  0  0  0
  2  3  1  0  0  0  0
  2 12  1  0  0  0  0
  3  4  1  0  0  0  0
  3 25  1  0  0  0  0
  4  5  1  0  0  0  0
  4 26  1  0  0  0  0
  4 27  1  0  0  0  0
  5  6  1  0  0  0  0
  5 28  1  0  0  0  0
  5 29  1  0  0  0  0
  6 11  1  0  0  0  0
  6  7  2  0  0  0  0
  7  8  1  0  0  0  0
  7 30  1  0  0  0  0
  8  9  2  0  0  0  0
  8 31  1  0  0  0  0
  9 10  1  0  0  0  0
  9 54  1  0  0  0  0
 10 11  2  0  0  0  0
 10 32  1  0  0  0  0
 11 33  1  0  0  0  0
 12 24  1  0  0  0  0
 12 13  1  0  0  0  0
 13 14  1  0  0  0  0
 13 34  1  0  0  0  0
 13 35  1  0  0  0  0
 14 15  1  0  0  0  0
 14 36  1  0  0  0  0
 14 37  1  0  0  0  0
 15 16  1  0  0  0  0
 15 23  1  0  0  0  0
 15 53  1  0  0  0  0
 16 21  1  0  0  0  0
 16 17  1  0  0  0  0
 16 38  1  0  0  0  0
 17 18  1  0  0  0  0
 17 39  1  0  0  0  0
 17 40  1  0  0  0  0
 18 22  1  0  0  0  0
 18 19  1  0  0  0  0
 18 41  1  0  0  0  0
 19 20  1  0  0  0  0
 19 42  1  0  0  0  0
 19 43  1  0  0  0  0
 20 21  1  0  0  0  0
 20 44  1  0  0  0  0
 20 45  1  0  0  0  0
 21 22  1  0  0  0  0
 21 46  1  0  0  0  0
 22 47  1  0  0  0  0
 22 48  1  0  0  0  0
 23 24  1  0  0  0  0
 23 49  1  0  0  0  0
 23 50  1  0  0  0  0
 24 51  1  0  0  0  0
 24 52  1  0  0  0  0
M  CHG  1   9   1
M  CHG  1  15   1
M  END
> <s_m_source_file>
AV-unprocessed.smi

> <i_m_source_file_index>
2895

> <i_lp_mmshare_version>
43012

> <i_f3d_flags>
0

> <s_epik_input>
W0NIMl0xW0NIMl1bQ0BASF0oW0NIMl0yKVtDQEBIXShbQ0gyXVtDQEhdMTIpTihbQ0gyXVtDSDJdMylbQ0gyXVtDSDJdTjNDKD1PKVtOSF1bQ0gyXVtDSDJdYzRbY0hdW2NIXW5bY0hdW2NIXTQ=

> <s_epik_cmdline>
J2VwaWtfcHl0aG9uJywgJy1waCcsICc3LjAnLCAnLXRuJywgJzgnLCAnLW1hJywgJzIwMCcsICctbWV0YWxfYmluZGluZycsICctaW1hZScsICc8aW5maWxlLm1hZT4nLCAnLW9tYWUnLCAnPG91dGZpbGUubWFlPic=

> <r_epik_Ionization_Penalty>
1.44916

> <r_epik_Ionization_Penalty_Charging>
1.44913

> <r_epik_Ionization_Penalty_Neutral>
2.64641e-05

> <r_epik_State_Penalty>
1.53218

> <r_epik_Charging_Adjusted_Penalty>
2.98131

> <i_epik_Tot_Q>
2

> <i_epik_Tot_abs_Q>
2

> <r_epik_Metal_State_Penalty>
1.58241

> <b_epik_Metal_Only>
0

> <s_lp_Force_Field>
OPLS_2005

> <r_lp_Energy>
108.8

> <b_lp_Chiralities_Consistent>
1

> <s_lp_Variant>
AV-unprocessed.smi:2895-6

> <Gold.Version>
5.8.1

> <Gold.Id.Protein>
6NUR|6NUR_protein|mol2

> <Gold.PLP.Fitness>
44.5613

> <Gold.PLP.PLP>
-33.8845

> <Gold.PLP.part.hbond>
-2.9971

> <Gold.PLP.part.metal>
0.0000

> <Gold.PLP.part.buried>
-2.0323

> <Gold.PLP.part.nonpolar>
-29.3490

> <Gold.PLP.part.repulsive>
0.2931

> <Gold.PLP.ligand.clash>
0.1983

> <Gold.PLP.ligand.torsion>
0.6647

> <Gold.PLP.Chemscore.Hbond>
4.0000

> <Gold.PLP.Chemscore.CHOScore>
0.0000

> <Gold.PLP.Chemscore.Metal>
0.0000

> <Gold.Chemscore.Hbonds>
donor molecule, donor type, donor heavy atom, donor atom, acceptor molecule, acceptor atom, score
      L1  H     9    54       P1  8028  2.00
      L1  H    15    53       P1 10957  2.00

> <Gold.PLP.Chemscore.Internal.Correction>
0.2045

> <Gold.Rescore>
     Score         DG    S(hbond)    S(metal)    S(lipo)     H(rot)  DE(clash)    DE(int)     intcor
     18.37     -19.06       1.85        0.00      94.97       1.46       0.11       0.58       ----

> <Gold.Chemscore.Fitness>
18.3704

> <Gold.Chemscore.DG>
-19.0557

> <Gold.Chemscore.ZeroCoef>
-5.4800

> <Gold.Chemscore.Hbond>
1.8548

> <Gold.Chemscore.Metal>
0.0000

> <Gold.Chemscore.Lipo>
94.9683

> <Gold.Chemscore.Internal_Hbond>
0.0000

> <Gold.Chemscore.DEClash>
0.1052

> <Gold.Chemscore.DEInternal>
0.5801

> <Gold.Chemscore.Rot>
1.4572

> <Gold.Chemscore.Internal.Correction>
   9.000000E+99

> <Gold.Chemscore.Hbonds>
donor molecule, donor type, donor heavy atom, donor atom, acceptor molecule, acceptor atom, score
      L1  H     9    54       P1  8028  0.99
      L1  H    15    53       P1 10957  0.53

> <Gold.Chemscore.Hbond.Weighted>
-6.1949

> <Gold.Chemscore.Metal.Weighted>
-0.0000

> <Gold.Chemscore.Lipo.Weighted>
-11.1113

> <Gold.Chemscore.Internal_Hbond.Weighted>
0.0000

> <Gold.Chemscore.DEClash.Weighted>
0.1052

> <Gold.Chemscore.DEInternal.Weighted>
0.5801

> <Gold.Chemscore.Rot.Weighted>
3.7305

> <Gold.Chemscore.Internal.Correction.Weighted>
   9.000000E+99

> <Gold.Protein.RotatedTorsions>
[ 6907 6896 6895 6894 ] final   24.56 input  -60.11 | X-H torsion
[ 7974 7965 7964 7962 ] final  -48.56 input  175.53 | X-H torsion
[ 8008 7997 7996 7995 ] final  119.46 input   59.86 | X-H torsion
[ 10167 10162 10161 10158 ] final   51.46 input  -65.29 | X-H torsion
[ 10718 10713 10712 10709 ] final  159.06 input   66.30 | X-H torsion
[ 10763 10752 10751 10750 ] final   55.55 input  -60.55 | X-H torsion
[ 11005 11000 10999 10996 ] final   14.59 input  -57.11 | X-H torsion

> <Gold.Protein.ActiveResidues>
 VAL166  LYS551  ARG553  GLY616  TRP617  ASP618  TYR619  PRO620  LYS621  CYS622 
 ASP623  PHE694  ASN695  SER759  ASP760  ASP761  ALA762  ILE779  LEU786  VAL792 
 PHE793  MET794  SER795  GLU796  ALA797  LYS798  CYS799  TRP800  GLU811  SER814 

> <Gold.Protein.RotatedAtoms>
  151.9593  135.0131  160.0546 H   0  0  0  0  0  0  0  0  0  0  0  0  # atno 6907 bound_to 6896
  152.1883  133.4750  159.5003 H   0  0  0  0  0  0  0  0  0  0  0  0  # atno 6908 bound_to 6896
  150.6930  134.1662  159.4238 H   0  0  0  0  0  0  0  0  0  0  0  0  # atno 6909 bound_to 6896
  145.9499  140.7582  142.9510 H   0  0  0  0  0  0  0  0  0  0  0  0  # atno 7974 bound_to 7965
  156.2596  140.2852  156.0994 H   0  0  0  0  0  0  0  0  0  0  0  0  # atno 8008 bound_to 7997
  155.1376  140.0395  157.2808 H   0  0  0  0  0  0  0  0  0  0  0  0  # atno 8009 bound_to 7997
  154.6553  140.2554  155.7174 H   0  0  0  0  0  0  0  0  0  0  0  0  # atno 8010 bound_to 7997
  140.2617  144.3366  150.6316 H   0  0  0  0  0  0  0  0  0  0  0  0  # atno 10167 bound_to 10162
  157.1693  131.0606  151.2191 H   0  0  0  0  0  0  0  0  0  0  0  0  # atno 10718 bound_to 10713
  152.9818  135.5707  154.5085 H   0  0  0  0  0  0  0  0  0  0  0  0  # atno 10763 bound_to 10752
  154.4593  135.2781  155.1726 H   0  0  0  0  0  0  0  0  0  0  0  0  # atno 10764 bound_to 10752
  154.3321  135.6247  153.5610 H   0  0  0  0  0  0  0  0  0  0  0  0  # atno 10765 bound_to 10752
  140.4678  134.1062  155.7727 H   0  0  0  0  0  0  0  0  0  0  0  0  # atno 11005 bound_to 11000
  144.6794  140.2418  143.7343 LP  0  0  0  0  0  0  0  0  0  0  0  0  # atno 17320 bound_to 7965
  145.8185  139.2033  143.1951 LP  0  0  0  0  0  0  0  0  0  0  0  0  # atno 17321 bound_to 7965
  140.5961  143.2167  151.7162 LP  0  0  0  0  0  0  0  0  0  0  0  0  # atno 17342 bound_to 10162
  139.5015  144.3865  152.0323 LP  0  0  0  0  0  0  0  0  0  0  0  0  # atno 17343 bound_to 10162
  157.4058  130.7358  149.6801 LP  0  0  0  0  0  0  0  0  0  0  0  0  # atno 17370 bound_to 10713
  155.9741  130.4108  150.3951 LP  0  0  0  0  0  0  0  0  0  0  0  0  # atno 17371 bound_to 10713
  141.1591  133.8826  157.1896 LP  0  0  0  0  0  0  0  0  0  0  0  0  # atno 17394 bound_to 11000
  139.9904  135.0066  156.9962 LP  0  0  0  0  0  0  0  0  0  0  0  0  # atno 17395 bound_to 11000

$$$$
