AV-unprocessed.smi:2933|AV-procd|sdf|11252|dock3
  -GOLD-   2272016143D 1   1.00000     0.00000
 Structure written by MMmdl.
 49 51  0  0  0  0  0  0  0  0  1 V2000
  151.2505  138.0702  154.1722 C   0  0  0  0  0  0  0  0  0  0  0  0
  150.5039  139.2636  154.7416 C   0  0  0  0  0  0  0  0  0  0  0  0
  151.2119  140.0375  155.5931 N   0  0  0  0  0  0  0  0  0  0  0  0
  150.6243  141.1261  156.1463 C   0  0  0  0  0  0  0  0  0  0  0  0
  151.3828  141.9172  157.0360 N   0  0  0  0  0  0  0  0  0  0  0  0
  151.0228  143.3265  157.1793 C   0  0  0  0  0  0  0  0  0  0  0  0
  152.1239  144.0839  157.9402 C   0  0  0  0  0  0  0  0  0  0  0  0
  152.3615  143.4501  159.1928 O   0  0  0  0  0  0  0  0  0  0  0  0
  152.8159  142.1104  159.0306 C   0  0  0  0  0  0  0  0  0  0  0  0
  151.7472  141.2798  158.2989 C   0  0  0  0  0  0  0  0  0  0  0  0
  149.2853  141.4711  155.8527 C   0  0  0  0  0  0  0  0  0  0  0  0
  148.5456  140.6653  154.9674 C   0  0  0  0  0  0  0  0  0  0  0  0
  149.1559  139.5226  154.4004 C   0  0  0  0  0  0  0  0  0  0  0  0
  148.4903  138.6609  153.4848 N   0  0  0  0  0  0  0  0  0  0  0  0
  147.1784  138.6140  153.1978 C   0  0  0  0  0  0  0  0  0  0  0  0
  146.3172  139.3403  153.6940 O   0  0  0  0  0  0  0  0  0  0  0  0
  146.9110  137.6476  152.3078 N   0  0  0  0  0  0  0  0  0  0  0  0
  145.5848  137.3111  151.7973 C   0  0  2  0  0  0  0  0  0  0  0  0
  144.5783  137.2182  152.9553 C   0  0  0  0  0  0  0  0  0  0  0  0
  145.6679  136.0102  151.0016 C   0  0  0  0  0  0  0  0  0  0  0  0
  144.3937  135.3974  150.4000 C   0  0  0  0  0  0  0  0  0  0  0  0
  144.9829  134.0120  150.6792 C   0  0  0  0  0  0  0  0  0  0  0  0
  145.8753  134.6746  151.7322 C   0  0  0  0  0  0  0  0  0  0  0  0
  150.7429  137.1431  154.4399 H   0  0  0  0  0  0  0  0  0  0  0  0
  152.2714  138.0163  154.5527 H   0  0  0  0  0  0  0  0  0  0  0  0
  151.2993  138.1358  153.0850 H   0  0  0  0  0  0  0  0  0  0  0  0
  150.8819  143.7821  156.1984 H   0  0  0  0  0  0  0  0  0  0  0  0
  150.0761  143.4055  157.7156 H   0  0  0  0  0  0  0  0  0  0  0  0
  153.0459  144.1198  157.3576 H   0  0  0  0  0  0  0  0  0  0  0  0
  151.8180  145.1153  158.1151 H   0  0  0  0  0  0  0  0  0  0  0  0
  153.7593  142.0991  158.4821 H   0  0  0  0  0  0  0  0  0  0  0  0
  153.0149  141.6824  160.0131 H   0  0  0  0  0  0  0  0  0  0  0  0
  150.8541  141.1932  158.9188 H   0  0  0  0  0  0  0  0  0  0  0  0
  152.1260  140.2701  158.1475 H   0  0  0  0  0  0  0  0  0  0  0  0
  148.8143  142.3323  156.3025 H   0  0  0  0  0  0  0  0  0  0  0  0
  147.5297  140.9436  154.7332 H   0  0  0  0  0  0  0  0  0  0  0  0
  149.0635  137.9411  153.0697 H   0  0  0  0  0  0  0  0  0  0  0  0
  147.6824  137.0986  151.9576 H   0  0  0  0  0  0  0  0  0  0  0  0
  145.2543  138.1062  151.1262 H   0  0  0  0  0  0  0  0  0  0  0  0
  143.5771  136.9913  152.5882 H   0  0  0  0  0  0  0  0  0  0  0  0
  144.5182  138.1588  153.5039 H   0  0  0  0  0  0  0  0  0  0  0  0
  144.8582  136.4370  153.6629 H   0  0  0  0  0  0  0  0  0  0  0  0
  146.4195  136.0881  150.2125 H   0  0  0  0  0  0  0  0  0  0  0  0
  143.5021  135.6035  150.9950 H   0  0  0  0  0  0  0  0  0  0  0  0
  144.2339  135.6235  149.3454 H   0  0  0  0  0  0  0  0  0  0  0  0
  144.2735  133.2841  151.0741 H   0  0  0  0  0  0  0  0  0  0  0  0
  145.5479  133.6139  149.8348 H   0  0  0  0  0  0  0  0  0  0  0  0
  146.9060  134.3190  151.7485 H   0  0  0  0  0  0  0  0  0  0  0  0
  145.4300  134.6618  152.7284 H   0  0  0  0  0  0  0  0  0  0  0  0
  1  2  1  0  0  0  0
  1 24  1  0  0  0  0
  1 25  1  0  0  0  0
  1 26  1  0  0  0  0
  2 13  1  0  0  0  0
  2  3  2  0  0  0  0
  3  4  1  0  0  0  0
  4  5  1  0  0  0  0
  4 11  2  0  0  0  0
  5 10  1  0  0  0  0
  5  6  1  0  0  0  0
  6  7  1  0  0  0  0
  6 27  1  0  0  0  0
  6 28  1  0  0  0  0
  7  8  1  0  0  0  0
  7 29  1  0  0  0  0
  7 30  1  0  0  0  0
  8  9  1  0  0  0  0
  9 10  1  0  0  0  0
  9 31  1  0  0  0  0
  9 32  1  0  0  0  0
 10 33  1  0  0  0  0
 10 34  1  0  0  0  0
 11 12  1  0  0  0  0
 11 35  1  0  0  0  0
 12 13  2  0  0  0  0
 12 36  1  0  0  0  0
 13 14  1  0  0  0  0
 14 15  1  0  0  0  0
 14 37  1  0  0  0  0
 15 16  2  0  0  0  0
 15 17  1  0  0  0  0
 17 18  1  0  0  0  0
 17 38  1  0  0  0  0
 18 19  1  0  0  0  0
 18 20  1  0  0  0  0
 18 39  1  0  0  0  0
 19 40  1  0  0  0  0
 19 41  1  0  0  0  0
 19 42  1  0  0  0  0
 20 23  1  0  0  0  0
 20 21  1  0  0  0  0
 20 43  1  0  0  0  0
 21 22  1  0  0  0  0
 21 44  1  0  0  0  0
 21 45  1  0  0  0  0
 22 23  1  0  0  0  0
 22 46  1  0  0  0  0
 22 47  1  0  0  0  0
 23 48  1  0  0  0  0
 23 49  1  0  0  0  0
M  END
> <s_m_source_file>
AV-unprocessed.smi

> <i_m_source_file_index>
2933

> <i_lp_mmshare_version>
43012

> <i_f3d_flags>
0

> <s_epik_input>
W0NIMl0xW0NIMl1PW0NIMl1bQ0gyXU4xYyhuYzJbQ0gzXSlbY0hdW2NIXWMyW05IXUMoPU8pW05IXVtDQEhdKFtDSDNdKVtDSF0zW0NIMl1bQ0gyXVtDSDJdMw==

> <s_epik_cmdline>
J2VwaWtfcHl0aG9uJywgJy1waCcsICc3LjAnLCAnLXRuJywgJzgnLCAnLW1hJywgJzIwMCcsICctbWV0YWxfYmluZGluZycsICctaW1hZScsICc8aW5maWxlLm1hZT4nLCAnLW9tYWUnLCAnPG91dGZpbGUubWFlPic=

> <r_lp_tautomer_probability>
1

> <r_epik_Ionization_Penalty>
0.00789884

> <r_epik_Ionization_Penalty_Charging>
0

> <r_epik_Ionization_Penalty_Neutral>
0.00789884

> <r_epik_State_Penalty>
0.00589145

> <r_epik_Charging_Adjusted_Penalty>
0.00589145

> <i_epik_Tot_Q>
0

> <i_epik_Tot_abs_Q>
0

> <r_epik_Metal_State_Penalty>
-0

> <b_epik_Metal_Only>
0

> <s_lp_Force_Field>
OPLS_2005

> <r_lp_Energy>
30.1585

> <b_lp_Chiralities_Consistent>
1

> <s_lp_Variant>
AV-unprocessed.smi:2933-1

> <Gold.Version>
5.8.1

> <Gold.Id.Protein>
6NUR|6NUR_protein|mol2

> <Gold.PLP.Fitness>
47.7248

> <Gold.PLP.PLP>
-43.0896

> <Gold.PLP.part.hbond>
-3.4258

> <Gold.PLP.part.metal>
0.0000

> <Gold.PLP.part.buried>
-2.1582

> <Gold.PLP.part.nonpolar>
-39.1247

> <Gold.PLP.part.repulsive>
0.3960

> <Gold.PLP.ligand.clash>
0.0000

> <Gold.PLP.ligand.torsion>
0.6304

> <Gold.PLP.Chemscore.Hbond>
1.8056

> <Gold.PLP.Chemscore.CHOScore>
0.0000

> <Gold.PLP.Chemscore.Metal>
0.0000

> <Gold.Chemscore.Hbonds>
donor molecule, donor type, donor heavy atom, donor atom, acceptor molecule, acceptor atom, score
      L1  H    14    37       P1  7948  0.79
      L1  H    17    38       P1  7948  0.98

> <Gold.PLP.Chemscore.Internal.Correction>
0.4794

> <Gold.Rescore>
     Score         DG    S(hbond)    S(metal)    S(lipo)     H(rot)  DE(clash)    DE(int)     intcor
     17.27     -20.41       1.69        0.00     108.20       1.32       0.23       2.90       ----

> <Gold.Chemscore.Fitness>
17.2747

> <Gold.Chemscore.DG>
-20.4057

> <Gold.Chemscore.ZeroCoef>
-5.4800

> <Gold.Chemscore.Hbond>
1.6869

> <Gold.Chemscore.Metal>
0.0000

> <Gold.Chemscore.Lipo>
108.2015

> <Gold.Chemscore.Internal_Hbond>
0.0000

> <Gold.Chemscore.DEClash>
0.2278

> <Gold.Chemscore.DEInternal>
2.9031

> <Gold.Chemscore.Rot>
1.3157

> <Gold.Chemscore.Internal.Correction>
   9.000000E+99

> <Gold.Chemscore.Hbonds>
donor molecule, donor type, donor heavy atom, donor atom, acceptor molecule, acceptor atom, score
      L1  H    14    37       P1  7948  0.74
      L1  H    17    38       P1  7948  0.91

> <Gold.Chemscore.Hbond.Weighted>
-5.6343

> <Gold.Chemscore.Metal.Weighted>
-0.0000

> <Gold.Chemscore.Lipo.Weighted>
-12.6596

> <Gold.Chemscore.Internal_Hbond.Weighted>
0.0000

> <Gold.Chemscore.DEClash.Weighted>
0.2278

> <Gold.Chemscore.DEInternal.Weighted>
2.9031

> <Gold.Chemscore.Rot.Weighted>
3.3682

> <Gold.Chemscore.Internal.Correction.Weighted>
   9.000000E+99

> <Gold.Protein.RotatedTorsions>
[ 6907 6896 6895 6894 ] final    3.25 input  -60.11 | X-H torsion
[ 7974 7965 7964 7962 ] final  100.88 input  175.53 | X-H torsion
[ 8008 7997 7996 7995 ] final -172.97 input   59.86 | X-H torsion
[ 10167 10162 10161 10158 ] final -147.72 input  -65.29 | X-H torsion
[ 10718 10713 10712 10709 ] final -148.40 input   66.30 | X-H torsion
[ 10763 10752 10751 10750 ] final   -8.87 input  -60.55 | X-H torsion
[ 11005 11000 10999 10996 ] final  -95.24 input  -57.11 | X-H torsion

> <Gold.Protein.ActiveResidues>
 VAL166  LYS551  ARG553  GLY616  TRP617  ASP618  TYR619  PRO620  LYS621  CYS622 
 ASP623  PHE694  ASN695  SER759  ASP760  ASP761  ALA762  ILE779  LEU786  VAL792 
 PHE793  MET794  SER795  GLU796  ALA797  LYS798  CYS799  TRP800  GLU811  SER814 

> <Gold.Protein.RotatedAtoms>
  151.6220  135.1031  160.0103 H   0  0  0  0  0  0  0  0  0  0  0  0  # atno 6907 bound_to 6896
  152.4152  133.7023  159.6441 H   0  0  0  0  0  0  0  0  0  0  0  0  # atno 6908 bound_to 6896
  150.8041  133.8469  159.3235 H   0  0  0  0  0  0  0  0  0  0  0  0  # atno 6909 bound_to 6896
  145.3797  139.2382  143.3410 H   0  0  0  0  0  0  0  0  0  0  0  0  # atno 7974 bound_to 7965
  155.9514  140.1127  157.0974 H   0  0  0  0  0  0  0  0  0  0  0  0  # atno 8008 bound_to 7997
  154.4110  140.1200  156.5123 H   0  0  0  0  0  0  0  0  0  0  0  0  # atno 8009 bound_to 7997
  155.6837  140.3473  155.4868 H   0  0  0  0  0  0  0  0  0  0  0  0  # atno 8010 bound_to 7997
  139.7597  143.8396  152.2604 H   0  0  0  0  0  0  0  0  0  0  0  0  # atno 10167 bound_to 10162
  156.4197  130.8023  151.2245 H   0  0  0  0  0  0  0  0  0  0  0  0  # atno 10718 bound_to 10713
  153.4466  135.7014  153.6135 H   0  0  0  0  0  0  0  0  0  0  0  0  # atno 10763 bound_to 10752
  153.4487  135.3763  155.2271 H   0  0  0  0  0  0  0  0  0  0  0  0  # atno 10764 bound_to 10752
  154.8728  135.3991  154.3873 H   0  0  0  0  0  0  0  0  0  0  0  0  # atno 10765 bound_to 10752
  141.1447  133.8012  157.0408 H   0  0  0  0  0  0  0  0  0  0  0  0  # atno 11005 bound_to 11000
  146.2848  140.4462  142.8762 LP  0  0  0  0  0  0  0  0  0  0  0  0  # atno 17320 bound_to 7965
  144.8517  140.7010  143.6164 LP  0  0  0  0  0  0  0  0  0  0  0  0  # atno 17321 bound_to 7965
  139.8398  144.7215  150.9345 LP  0  0  0  0  0  0  0  0  0  0  0  0  # atno 17342 bound_to 10162
  140.7806  143.3993  151.1175 LP  0  0  0  0  0  0  0  0  0  0  0  0  # atno 17343 bound_to 10162
  157.7508  131.0232  150.3823 LP  0  0  0  0  0  0  0  0  0  0  0  0  # atno 17370 bound_to 10713
  156.4138  130.3939  149.6873 LP  0  0  0  0  0  0  0  0  0  0  0  0  # atno 17371 bound_to 10713
  140.0694  134.9711  157.1441 LP  0  0  0  0  0  0  0  0  0  0  0  0  # atno 17394 bound_to 11000
  140.3733  134.2367  155.7176 LP  0  0  0  0  0  0  0  0  0  0  0  0  # atno 17395 bound_to 11000

$$$$
