AV-unprocessed.smi:1827|AV-procd|sdf|7421|dock4
  -GOLD-   22720 9103D 1   1.00000     0.00000
 Structure written by MMmdl.
 44 45  0  0  0  0  0  0  0  0  2 V2000
  151.5852  138.2865  154.5955 C   0  0  0  0  0  0  0  0  0  0  0  0
  150.3519  139.1440  154.5224 C   0  0  0  0  0  0  0  0  0  0  0  0
  150.4704  140.4490  154.7301 N   0  0  0  0  0  0  0  0  0  0  0  0
  149.2280  140.9416  154.5367 N   0  0  0  0  0  0  0  0  0  0  0  0
  148.3007  139.9795  154.2056 C   0  0  0  0  0  0  0  0  0  0  0  0
  146.8703  140.3052  153.9329 C   0  0  0  0  0  0  0  0  0  0  0  0
  148.9963  138.8054  154.2180 C   0  0  0  0  0  0  0  0  0  0  0  0
  148.4382  137.5413  153.9027 N   0  0  0  0  0  0  0  0  0  0  0  0
  147.3287  136.9994  154.4269 C   0  0  0  0  0  0  0  0  0  0  0  0
  146.5961  137.5496  155.2483 O   0  0  0  0  0  0  0  0  0  0  0  0
  147.0967  135.7770  153.9273 N   0  0  0  0  0  0  0  0  0  0  0  0
  145.9602  134.9249  154.2770 C   0  0  2  0  0  0  0  0  0  0  0  0
  146.1217  133.4936  153.7260 C   0  0  0  0  0  0  0  0  0  0  0  0
  145.9753  133.4454  152.1955 C   0  0  0  0  0  0  0  0  0  0  0  0
  144.6766  134.0285  151.7644 N   0  3  2  0  0  0  0  0  0  0  0  0
  144.4250  133.8784  150.3077 C   0  0  0  0  0  0  0  0  0  0  0  0
  143.7628  132.5443  149.9483 C   0  0  0  0  0  0  0  0  0  0  0  0
  142.5453  132.6033  149.4040 N   0  0  0  0  0  0  0  0  0  0  0  0
  144.3298  131.4761  150.1715 O   0  0  0  0  0  0  0  0  0  0  0  0
  144.5295  135.4332  152.2234 C   0  0  0  0  0  0  0  0  0  0  0  0
  144.6481  135.5358  153.7553 C   0  0  0  0  0  0  0  0  0  0  0  0
  149.0325  141.9286  154.6257 H   0  0  0  0  0  0  0  0  0  0  0  0
  151.5309  137.4546  153.8935 H   0  0  0  0  0  0  0  0  0  0  0  0
  151.7164  137.8751  155.5962 H   0  0  0  0  0  0  0  0  0  0  0  0
  152.4828  138.8563  154.3532 H   0  0  0  0  0  0  0  0  0  0  0  0
  146.3312  139.4342  153.5605 H   0  0  0  0  0  0  0  0  0  0  0  0
  146.7881  141.0948  153.1858 H   0  0  0  0  0  0  0  0  0  0  0  0
  146.3723  140.6451  154.8412 H   0  0  0  0  0  0  0  0  0  0  0  0
  148.8762  137.0420  153.1428 H   0  0  0  0  0  0  0  0  0  0  0  0
  147.7472  135.4152  153.2454 H   0  0  0  0  0  0  0  0  0  0  0  0
  145.9014  134.8777  155.3660 H   0  0  0  0  0  0  0  0  0  0  0  0
  147.0817  133.0702  154.0236 H   0  0  0  0  0  0  0  0  0  0  0  0
  145.3617  132.8522  154.1742 H   0  0  0  0  0  0  0  0  0  0  0  0
  146.7958  133.9851  151.7200 H   0  0  0  0  0  0  0  0  0  0  0  0
  146.0501  132.4091  151.8645 H   0  0  0  0  0  0  0  0  0  0  0  0
  143.7457  134.6623  149.9702 H   0  0  0  0  0  0  0  0  0  0  0  0
  145.3547  134.0085  149.7512 H   0  0  0  0  0  0  0  0  0  0  0  0
  142.0627  131.7558  149.1421 H   0  0  0  0  0  0  0  0  0  0  0  0
  142.1092  133.5016  149.2497 H   0  0  0  0  0  0  0  0  0  0  0  0
  145.2831  136.0563  151.7396 H   0  0  0  0  0  0  0  0  0  0  0  0
  143.5567  135.8200  151.9174 H   0  0  0  0  0  0  0  0  0  0  0  0
  143.8058  135.0134  154.2112 H   0  0  0  0  0  0  0  0  0  0  0  0
  144.5635  136.5768  154.0699 H   0  0  0  0  0  0  0  0  0  0  0  0
  143.9497  133.5009  152.2276 H   0  0  0  0  0  0  0  0  0  0  0  0
  1  2  1  0  0  0  0
  1 23  1  0  0  0  0
  1 24  1  0  0  0  0
  1 25  1  0  0  0  0
  2  7  1  0  0  0  0
  2  3  2  0  0  0  0
  3  4  1  0  0  0  0
  4 22  1  0  0  0  0
  4  5  1  0  0  0  0
  5  6  1  0  0  0  0
  5  7  2  0  0  0  0
  6 26  1  0  0  0  0
  6 27  1  0  0  0  0
  6 28  1  0  0  0  0
  7  8  1  0  0  0  0
  8  9  1  0  0  0  0
  8 29  1  0  0  0  0
  9 10  2  0  0  0  0
  9 11  1  0  0  0  0
 11 12  1  0  0  0  0
 11 30  1  0  0  0  0
 12 21  1  0  0  0  0
 12 13  1  0  0  0  0
 12 31  1  0  0  0  0
 13 14  1  0  0  0  0
 13 32  1  0  0  0  0
 13 33  1  0  0  0  0
 14 15  1  0  0  0  0
 14 34  1  0  0  0  0
 14 35  1  0  0  0  0
 15 16  1  0  0  0  0
 15 20  1  0  0  0  0
 15 44  1  0  0  0  0
 16 17  1  0  0  0  0
 16 36  1  0  0  0  0
 16 37  1  0  0  0  0
 17 18  1  0  0  0  0
 17 19  2  0  0  0  0
 18 38  1  0  0  0  0
 18 39  1  0  0  0  0
 20 21  1  0  0  0  0
 20 40  1  0  0  0  0
 20 41  1  0  0  0  0
 21 42  1  0  0  0  0
 21 43  1  0  0  0  0
M  CHG  1  15   1
M  END
> <s_m_source_file>
AV-unprocessed.smi

> <i_m_source_file_index>
1827

> <i_lp_mmshare_version>
43012

> <i_f3d_flags>
0

> <s_epik_input>
W0NIM11jMW5bbkhdYyhbQ0gzXSljMVtOSF1DKD1PKVtOSF1bQ0hdMltDSDJdW0NIMl1OKFtDSDJdW0NIMl0yKVtDSDJdQyg9TylbTkgyXQ==

> <s_epik_cmdline>
J2VwaWtfcHl0aG9uJywgJy1waCcsICc3LjAnLCAnLXRuJywgJzgnLCAnLW1hJywgJzIwMCcsICctbWV0YWxfYmluZGluZycsICctaW1hZScsICc8aW5maWxlLm1hZT4nLCAnLW9tYWUnLCAnPG91dGZpbGUubWFlPic=

> <r_lp_tautomer_probability>
0.5

> <r_epik_Ionization_Penalty>
0.839233

> <r_epik_Ionization_Penalty_Charging>
0.838844

> <r_epik_Ionization_Penalty_Neutral>
0.000388936

> <r_epik_State_Penalty>
0.8734

> <r_epik_Charging_Adjusted_Penalty>
1.71224

> <i_epik_Tot_Q>
1

> <i_epik_Tot_abs_Q>
1

> <r_epik_Metal_State_Penalty>
0.890753

> <b_epik_Metal_Only>
0

> <s_lp_Force_Field>
OPLS_2005

> <r_lp_Energy>
15.6473

> <b_lp_Chiralities_Consistent>
1

> <s_lp_Variant>
AV-unprocessed.smi:1827-3

> <Gold.Version>
5.8.1

> <Gold.Id.Protein>
6NUR|6NUR_protein|mol2

> <Gold.PLP.Fitness>
43.1968

> <Gold.PLP.PLP>
-30.1735

> <Gold.PLP.part.hbond>
-5.6659

> <Gold.PLP.part.metal>
0.0000

> <Gold.PLP.part.buried>
-5.6495

> <Gold.PLP.part.nonpolar>
-19.8874

> <Gold.PLP.part.repulsive>
0.5859

> <Gold.PLP.ligand.clash>
0.0000

> <Gold.PLP.ligand.torsion>
0.9047

> <Gold.PLP.Chemscore.Hbond>
4.8254

> <Gold.PLP.Chemscore.CHOScore>
0.0000

> <Gold.PLP.Chemscore.Metal>
0.0000

> <Gold.Chemscore.Hbonds>
donor molecule, donor type, donor heavy atom, donor atom, acceptor molecule, acceptor atom, score
      L1  H     8    29       P1  7948  0.93
      L1  H    11    30       P1  7948  0.72
      L1  H    18    38       P1 10952  0.99
      L1  H    18    39       P1 10186  0.81
      P1  H  7989  7998       L1     3  1.00
      P1  H 10785 10796       L1    19  0.25

> <Gold.PLP.Chemscore.Internal.Correction>
0.3565

> <Gold.Rescore>
     Score         DG    S(hbond)    S(metal)    S(lipo)     H(rot)  DE(clash)    DE(int)     intcor
     18.52     -19.54       3.78        0.00      55.73       1.98       0.04       0.98       ----

> <Gold.Chemscore.Fitness>
18.5199

> <Gold.Chemscore.DG>
-19.5353

> <Gold.Chemscore.ZeroCoef>
-5.4800

> <Gold.Chemscore.Hbond>
3.7772

> <Gold.Chemscore.Metal>
0.0000

> <Gold.Chemscore.Lipo>
55.7315

> <Gold.Chemscore.Internal_Hbond>
0.0000

> <Gold.Chemscore.DEClash>
0.0387

> <Gold.Chemscore.DEInternal>
0.9767

> <Gold.Chemscore.Rot>
1.9848

> <Gold.Chemscore.Internal.Correction>
   9.000000E+99

> <Gold.Chemscore.Hbonds>
donor molecule, donor type, donor heavy atom, donor atom, acceptor molecule, acceptor atom, score
      L1  H     8    29       P1  7948  0.88
      L1  H    11    30       P1  7948  0.70
      L1  H    18    38       P1 10952  0.94
      L1  H    18    39       P1 10186  0.74
      P1  H  7989  7998       L1     3  0.25
      P1  H 10785 10796       L1    19  0.07

> <Gold.Chemscore.Hbond.Weighted>
-12.6157

> <Gold.Chemscore.Metal.Weighted>
-0.0000

> <Gold.Chemscore.Lipo.Weighted>
-6.5206

> <Gold.Chemscore.Internal_Hbond.Weighted>
0.0000

> <Gold.Chemscore.DEClash.Weighted>
0.0387

> <Gold.Chemscore.DEInternal.Weighted>
0.9767

> <Gold.Chemscore.Rot.Weighted>
5.0810

> <Gold.Chemscore.Internal.Correction.Weighted>
   9.000000E+99

> <Gold.Protein.RotatedTorsions>
[ 6907 6896 6895 6894 ] final  -55.31 input  -60.11 | X-H torsion
[ 7974 7965 7964 7962 ] final -118.22 input  175.53 | X-H torsion
[ 8008 7997 7996 7995 ] final  -63.95 input   59.86 | X-H torsion
[ 10167 10162 10161 10158 ] final -170.90 input  -65.29 | X-H torsion
[ 10718 10713 10712 10709 ] final -115.86 input   66.30 | X-H torsion
[ 10763 10752 10751 10750 ] final  -29.41 input  -60.55 | X-H torsion
[ 11005 11000 10999 10996 ] final -159.48 input  -57.11 | X-H torsion

> <Gold.Protein.ActiveResidues>
 VAL166  LYS551  ARG553  GLY616  TRP617  ASP618  TYR619  PRO620  LYS621  CYS622 
 ASP623  PHE694  ASN695  SER759  ASP760  ASP761  ALA762  ILE779  LEU786  VAL792 
 PHE793  MET794  SER795  GLU796  ALA797  LYS798  CYS799  TRP800  GLU811  SER814 

> <Gold.Protein.RotatedAtoms>
  150.8262  134.7494  159.6814 H   0  0  0  0  0  0  0  0  0  0  0  0  # atno 6907 bound_to 6896
  152.4373  134.5658  159.9917 H   0  0  0  0  0  0  0  0  0  0  0  0  # atno 6908 bound_to 6896
  151.5830  133.3338  159.3048 H   0  0  0  0  0  0  0  0  0  0  0  0  # atno 6909 bound_to 6896
  145.0763  140.8394  143.4065 H   0  0  0  0  0  0  0  0  0  0  0  0  # atno 7974 bound_to 7965
  154.4583  140.0964  156.6822 H   0  0  0  0  0  0  0  0  0  0  0  0  # atno 8008 bound_to 7997
  155.5070  140.3475  155.4363 H   0  0  0  0  0  0  0  0  0  0  0  0  # atno 8009 bound_to 7997
  156.0822  140.1376  156.9687 H   0  0  0  0  0  0  0  0  0  0  0  0  # atno 8010 bound_to 7997
  139.5834  144.1373  152.1544 H   0  0  0  0  0  0  0  0  0  0  0  0  # atno 10167 bound_to 10162
  156.0924  130.6104  150.8961 H   0  0  0  0  0  0  0  0  0  0  0  0  # atno 10718 bound_to 10713
  153.7642  135.6917  153.4919 H   0  0  0  0  0  0  0  0  0  0  0  0  # atno 10763 bound_to 10752
  153.1918  135.4468  155.0157 H   0  0  0  0  0  0  0  0  0  0  0  0  # atno 10764 bound_to 10752
  154.8142  135.3391  154.7155 H   0  0  0  0  0  0  0  0  0  0  0  0  # atno 10765 bound_to 10752
  140.6421  134.4540  157.5233 H   0  0  0  0  0  0  0  0  0  0  0  0  # atno 11005 bound_to 11000
  145.1232  139.2680  143.5578 LP  0  0  0  0  0  0  0  0  0  0  0  0  # atno 17320 bound_to 7965
  146.3530  140.0861  142.8615 LP  0  0  0  0  0  0  0  0  0  0  0  0  # atno 17321 bound_to 7965
  140.0931  144.5604  150.7041 LP  0  0  0  0  0  0  0  0  0  0  0  0  # atno 17342 bound_to 10162
  140.7109  143.2504  151.4584 LP  0  0  0  0  0  0  0  0  0  0  0  0  # atno 17343 bound_to 10162
  157.6077  131.0938  150.8850 LP  0  0  0  0  0  0  0  0  0  0  0  0  # atno 17370 bound_to 10713
  156.8996  130.5242  149.5283 LP  0  0  0  0  0  0  0  0  0  0  0  0  # atno 17371 bound_to 10713
  139.9076  134.8414  156.1646 LP  0  0  0  0  0  0  0  0  0  0  0  0  # atno 17394 bound_to 11000
  141.0599  133.6847  156.1933 LP  0  0  0  0  0  0  0  0  0  0  0  0  # atno 17395 bound_to 11000

$$$$
