AV-unprocessed.smi:1193|AV-procd|sdf|4989|dock2
  -GOLD-   22720 3583D 1   1.00000     0.00000
 Structure written by MMmdl.
 38 39  0  0  0  0  0  0  0  0  1 V2000
  151.9992  138.4512  154.6947 C   0  0  0  0  0  0  0  0  0  0  0  0
  150.6339  138.2828  154.3291 O   0  0  0  0  0  0  0  0  0  0  0  0
  149.7901  139.3749  154.4050 C   0  0  0  0  0  0  0  0  0  0  0  0
  150.2987  140.5529  154.8458 N   0  0  0  0  0  0  0  0  0  0  0  0
  149.4765  141.6193  154.9229 C   0  0  0  0  0  0  0  0  0  0  0  0
  148.1145  141.5684  154.5743 C   0  0  0  0  0  0  0  0  0  0  0  0
  147.5844  140.3476  154.1172 C   0  0  0  0  0  0  0  0  0  0  0  0
  148.4385  139.2223  154.0168 C   0  0  0  0  0  0  0  0  0  0  0  0
  148.0062  137.9380  153.5847 N   0  0  0  0  0  0  0  0  0  0  0  0
  146.8399  137.3165  153.8279 C   0  0  0  0  0  0  0  0  0  0  0  0
  145.9127  137.7729  154.4965 O   0  0  0  0  0  0  0  0  0  0  0  0
  146.7982  136.1178  153.2284 N   0  0  0  0  0  0  0  0  0  0  0  0
  145.6798  135.1795  153.2981 C   0  0  0  0  0  0  0  0  0  0  0  0
  144.9913  134.9486  151.9405 C   0  0  0  0  0  0  0  0  0  0  0  0
  144.3126  135.8444  151.4344 O   0  0  0  0  0  0  0  0  0  0  0  0
  145.1448  133.7467  151.3471 N   0  0  0  0  0  0  0  0  0  0  0  0
  145.9099  132.6206  151.8818 C   0  0  0  0  0  0  0  0  0  0  0  0
  145.5649  131.4272  150.9904 C   0  0  0  0  0  0  0  0  0  0  0  0
  145.1622  132.0572  149.6643 C   0  0  0  0  0  0  0  0  0  0  0  0
  144.5443  133.3984  150.0610 C   0  0  0  0  0  0  0  0  0  0  0  0
  152.5236  137.5034  154.5733 H   0  0  0  0  0  0  0  0  0  0  0  0
  152.0988  138.7529  155.7383 H   0  0  0  0  0  0  0  0  0  0  0  0
  152.4951  139.1869  154.0595 H   0  0  0  0  0  0  0  0  0  0  0  0
  149.9163  142.5391  155.2787 H   0  0  0  0  0  0  0  0  0  0  0  0
  147.4891  142.4446  154.6605 H   0  0  0  0  0  0  0  0  0  0  0  0
  146.5358  140.2978  153.8685 H   0  0  0  0  0  0  0  0  0  0  0  0
  148.6372  137.4632  152.9557 H   0  0  0  0  0  0  0  0  0  0  0  0
  147.6055  135.8224  152.6995 H   0  0  0  0  0  0  0  0  0  0  0  0
  146.0221  134.2297  153.7124 H   0  0  0  0  0  0  0  0  0  0  0  0
  144.9468  135.5837  153.9966 H   0  0  0  0  0  0  0  0  0  0  0  0
  146.9746  132.8499  151.8140 H   0  0  0  0  0  0  0  0  0  0  0  0
  145.6708  132.4117  152.9252 H   0  0  0  0  0  0  0  0  0  0  0  0
  146.3897  130.7210  150.8911 H   0  0  0  0  0  0  0  0  0  0  0  0
  144.7142  130.8897  151.4117 H   0  0  0  0  0  0  0  0  0  0  0  0
  146.0527  132.2290  149.0582 H   0  0  0  0  0  0  0  0  0  0  0  0
  144.4805  131.4318  149.0872 H   0  0  0  0  0  0  0  0  0  0  0  0
  143.4654  133.3005  150.1890 H   0  0  0  0  0  0  0  0  0  0  0  0
  144.7283  134.1601  149.3016 H   0  0  0  0  0  0  0  0  0  0  0  0
  1  2  1  0  0  0  0
  1 21  1  0  0  0  0
  1 22  1  0  0  0  0
  1 23  1  0  0  0  0
  2  3  1  0  0  0  0
  3  8  1  0  0  0  0
  3  4  2  0  0  0  0
  4  5  1  0  0  0  0
  5  6  2  0  0  0  0
  5 24  1  0  0  0  0
  6  7  1  0  0  0  0
  6 25  1  0  0  0  0
  7  8  2  0  0  0  0
  7 26  1  0  0  0  0
  8  9  1  0  0  0  0
  9 10  1  0  0  0  0
  9 27  1  0  0  0  0
 10 11  2  0  0  0  0
 10 12  1  0  0  0  0
 12 13  1  0  0  0  0
 12 28  1  0  0  0  0
 13 14  1  0  0  0  0
 13 29  1  0  0  0  0
 13 30  1  0  0  0  0
 14 15  2  0  0  0  0
 14 16  1  0  0  0  0
 16 20  1  0  0  0  0
 16 17  1  0  0  0  0
 17 18  1  0  0  0  0
 17 31  1  0  0  0  0
 17 32  1  0  0  0  0
 18 19  1  0  0  0  0
 18 33  1  0  0  0  0
 18 34  1  0  0  0  0
 19 20  1  0  0  0  0
 19 35  1  0  0  0  0
 19 36  1  0  0  0  0
 20 37  1  0  0  0  0
 20 38  1  0  0  0  0
M  END
> <s_m_source_file>
AV-unprocessed.smi

> <i_m_source_file_index>
1193

> <i_lp_mmshare_version>
43012

> <i_f3d_flags>
0

> <s_epik_input>
W0NIM11PYzFuW2NIXVtjSF1bY0hdYzFbTkhdQyg9TylbTkhdW0NIMl1DKD1PKU4yW0NIMl1bQ0gyXVtDSDJdW0NIMl0y

> <s_epik_cmdline>
J2VwaWtfcHl0aG9uJywgJy1waCcsICc3LjAnLCAnLXRuJywgJzgnLCAnLW1hJywgJzIwMCcsICctbWV0YWxfYmluZGluZycsICctaW1hZScsICc8aW5maWxlLm1hZT4nLCAnLW9tYWUnLCAnPG91dGZpbGUubWFlPic=

> <r_lp_tautomer_probability>
1

> <r_epik_Ionization_Penalty>
0.000141665

> <r_epik_Ionization_Penalty_Charging>
0

> <r_epik_Ionization_Penalty_Neutral>
0.000141665

> <r_epik_State_Penalty>
-0

> <r_epik_Charging_Adjusted_Penalty>
0

> <i_epik_Tot_Q>
0

> <i_epik_Tot_abs_Q>
0

> <r_epik_Metal_State_Penalty>
-0

> <b_epik_Metal_Only>
0

> <s_lp_Force_Field>
OPLS_2005

> <r_lp_Energy>
26.7485

> <b_lp_Chiralities_Consistent>
1

> <s_lp_Variant>
AV-unprocessed.smi:1193-1

> <Gold.Version>
5.8.1

> <Gold.Id.Protein>
6NUR|6NUR_protein|mol2

> <Gold.PLP.Fitness>
44.8227

> <Gold.PLP.PLP>
-33.8057

> <Gold.PLP.part.hbond>
-3.0000

> <Gold.PLP.part.metal>
0.0000

> <Gold.PLP.part.buried>
-5.1331

> <Gold.PLP.part.nonpolar>
-26.8881

> <Gold.PLP.part.repulsive>
0.9041

> <Gold.PLP.ligand.clash>
0.0000

> <Gold.PLP.ligand.torsion>
0.3996

> <Gold.PLP.Chemscore.Hbond>
2.9760

> <Gold.PLP.Chemscore.CHOScore>
0.9544

> <Gold.PLP.Chemscore.Metal>
0.0000

> <Gold.Chemscore.Hbonds>
donor molecule, donor type, donor heavy atom, donor atom, acceptor molecule, acceptor atom, score
      L1  H     9    27       P1  7948  1.00
      L1  H    12    28       P1  7948  0.99
      P1  H  7989  7998       L1     4  0.94
      L1  C     5    24       P1  8028  1.00

> <Gold.PLP.Chemscore.Internal.Correction>
0.0250

> <Gold.Rescore>
     Score         DG    S(hbond)    S(metal)    S(lipo)     H(rot)  DE(clash)    DE(int)     intcor
     16.57     -17.75       2.26        0.00      74.88       1.58       0.20       0.98       ----

> <Gold.Chemscore.Fitness>
16.5721

> <Gold.Chemscore.DG>
-17.7541

> <Gold.Chemscore.ZeroCoef>
-5.4800

> <Gold.Chemscore.Hbond>
2.2632

> <Gold.Chemscore.Metal>
0.0000

> <Gold.Chemscore.Lipo>
74.8790

> <Gold.Chemscore.Internal_Hbond>
0.0000

> <Gold.Chemscore.DEClash>
0.2030

> <Gold.Chemscore.DEInternal>
0.9790

> <Gold.Chemscore.Rot>
1.5804

> <Gold.Chemscore.Internal.Correction>
   9.000000E+99

> <Gold.Chemscore.Hbonds>
donor molecule, donor type, donor heavy atom, donor atom, acceptor molecule, acceptor atom, score
      L1  H     9    27       P1  7948  0.96
      L1  H    12    28       P1  7948  0.94
      P1  H  7989  7998       L1     4  0.19

> <Gold.Chemscore.Hbond.Weighted>
-7.5592

> <Gold.Chemscore.Metal.Weighted>
-0.0000

> <Gold.Chemscore.Lipo.Weighted>
-8.7608

> <Gold.Chemscore.Internal_Hbond.Weighted>
0.0000

> <Gold.Chemscore.DEClash.Weighted>
0.2030

> <Gold.Chemscore.DEInternal.Weighted>
0.9790

> <Gold.Chemscore.Rot.Weighted>
4.0459

> <Gold.Chemscore.Internal.Correction.Weighted>
   9.000000E+99

> <Gold.Protein.RotatedTorsions>
[ 6907 6896 6895 6894 ] final   97.39 input  -60.11 | X-H torsion
[ 7974 7965 7964 7962 ] final    8.25 input  175.53 | X-H torsion
[ 8008 7997 7996 7995 ] final  -50.63 input   59.86 | X-H torsion
[ 10167 10162 10161 10158 ] final   -9.78 input  -65.29 | X-H torsion
[ 10718 10713 10712 10709 ] final   74.76 input   66.30 | X-H torsion
[ 10763 10752 10751 10750 ] final  154.25 input  -60.55 | X-H torsion
[ 11005 11000 10999 10996 ] final -125.25 input  -57.11 | X-H torsion

> <Gold.Protein.ActiveResidues>
 VAL166  LYS551  ARG553  GLY616  TRP617  ASP618  TYR619  PRO620  LYS621  CYS622 
 ASP623  PHE694  ASN695  SER759  ASP760  ASP761  ALA762  ILE779  LEU786  VAL792 
 PHE793  MET794  SER795  GLU796  ALA797  LYS798  CYS799  TRP800  GLU811  SER814 

> <Gold.Protein.RotatedAtoms>
  152.5424  134.0740  159.8206 H   0  0  0  0  0  0  0  0  0  0  0  0  # atno 6907 bound_to 6896
  151.0851  133.5352  159.2625 H   0  0  0  0  0  0  0  0  0  0  0  0  # atno 6908 bound_to 6896
  151.2164  135.0510  159.8986 H   0  0  0  0  0  0  0  0  0  0  0  0  # atno 6909 bound_to 6896
  146.2418  139.9961  142.8420 H   0  0  0  0  0  0  0  0  0  0  0  0  # atno 7974 bound_to 7965
  154.4066  140.1267  156.4698 H   0  0  0  0  0  0  0  0  0  0  0  0  # atno 8008 bound_to 7997
  155.7191  140.3493  155.4988 H   0  0  0  0  0  0  0  0  0  0  0  0  # atno 8009 bound_to 7997
  155.9231  140.1056  157.1181 H   0  0  0  0  0  0  0  0  0  0  0  0  # atno 8010 bound_to 7997
  140.7096  143.5820  150.8982 H   0  0  0  0  0  0  0  0  0  0  0  0  # atno 10167 bound_to 10162
  157.6606  130.9693  150.1256 H   0  0  0  0  0  0  0  0  0  0  0  0  # atno 10718 bound_to 10713
  154.1494  135.2816  155.3139 H   0  0  0  0  0  0  0  0  0  0  0  0  # atno 10763 bound_to 10752
  154.6229  135.5461  153.7598 H   0  0  0  0  0  0  0  0  0  0  0  0  # atno 10764 bound_to 10752
  153.0226  135.6443  154.1638 H   0  0  0  0  0  0  0  0  0  0  0  0  # atno 10765 bound_to 10752
  140.9776  134.0718  157.3800 H   0  0  0  0  0  0  0  0  0  0  0  0  # atno 11005 bound_to 11000
  145.1458  140.9596  143.4462 LP  0  0  0  0  0  0  0  0  0  0  0  0  # atno 17320 bound_to 7965
  145.0252  139.3389  143.6052 LP  0  0  0  0  0  0  0  0  0  0  0  0  # atno 17321 bound_to 7965
  139.9546  143.6232  152.3019 LP  0  0  0  0  0  0  0  0  0  0  0  0  # atno 17342 bound_to 10162
  139.6763  144.7658  151.1689 LP  0  0  0  0  0  0  0  0  0  0  0  0  # atno 17343 bound_to 10162
  156.2116  130.3667  149.8663 LP  0  0  0  0  0  0  0  0  0  0  0  0  # atno 17370 bound_to 10713
  156.6540  130.8755  151.3536 LP  0  0  0  0  0  0  0  0  0  0  0  0  # atno 17371 bound_to 10713
  139.8937  135.0132  156.6912 LP  0  0  0  0  0  0  0  0  0  0  0  0  # atno 17394 bound_to 11000
  140.7235  133.9120  155.8162 LP  0  0  0  0  0  0  0  0  0  0  0  0  # atno 17395 bound_to 11000

$$$$
