AV-unprocessed.smi:1492|AV-procd|sdf|6036|dock4
  -GOLD-   22720 6143D 1   1.00000     0.00000
 Structure written by MMmdl.
 52 53  0  0  0  0  0  0  0  0  1 V2000
  142.7587  135.3860  153.4802 C   0  0  0  0  0  0  0  0  0  0  0  0
  143.5136  135.9313  152.2527 C   0  0  0  0  0  0  0  0  0  0  0  0
  144.9598  135.3904  151.9835 C   0  0  1  0  0  0  0  0  0  0  0  0
  145.4697  136.0028  150.6542 C   0  0  0  0  0  0  0  0  0  0  0  0
  145.8986  135.9071  153.1155 C   0  0  0  0  0  0  0  0  0  0  0  0
  146.2043  137.3224  152.9518 N   0  0  0  0  0  0  0  0  0  0  0  0
  147.0597  138.0190  153.7102 C   0  0  0  0  0  0  0  0  0  0  0  0
  147.6294  137.5542  154.6969 O   0  0  0  0  0  0  0  0  0  0  0  0
  147.3222  139.4587  153.2701 C   0  0  0  0  0  0  0  0  0  0  0  0
  148.3198  140.2238  154.1389 C   0  0  0  0  0  0  0  0  0  0  0  0
  149.5765  139.7631  154.4084 C   0  0  0  0  0  0  0  0  0  0  0  0
  150.1018  138.4419  153.8746 C   0  0  0  0  0  0  0  0  0  0  0  0
  150.4703  140.4901  155.2068 N   0  0  0  0  0  0  0  0  0  0  0  0
  150.0883  141.6251  155.6926 C   0  0  0  0  0  0  0  0  0  0  0  0
  150.9553  142.5012  156.5717 C   0  0  0  0  0  0  0  0  0  0  0  0
  148.8228  142.1561  155.4493 N   0  0  0  0  0  0  0  0  0  0  0  0
  147.8978  141.5263  154.6907 C   0  0  0  0  0  0  0  0  0  0  0  0
  146.7998  142.0442  154.4920 O   0  0  0  0  0  0  0  0  0  0  0  0
  144.9425  133.8952  151.9476 N   0  0  0  0  0  0  0  0  0  0  0  0
  146.2624  133.2485  151.9480 C   0  0  0  0  0  0  0  0  0  0  0  0
  146.1626  131.7159  152.0328 C   0  0  0  0  0  0  0  0  0  0  0  0
  145.3702  131.2257  150.9594 O   0  0  0  0  0  0  0  0  0  0  0  0
  144.0592  131.7751  150.9647 C   0  0  0  0  0  0  0  0  0  0  0  0
  144.1387  133.3079  150.8669 C   0  0  0  0  0  0  0  0  0  0  0  0
  148.5816  143.0505  155.8508 H   0  0  0  0  0  0  0  0  0  0  0  0
  141.8137  135.9149  153.6055 H   0  0  0  0  0  0  0  0  0  0  0  0
  143.3251  135.5161  154.4016 H   0  0  0  0  0  0  0  0  0  0  0  0
  142.5128  134.3294  153.3741 H   0  0  0  0  0  0  0  0  0  0  0  0
  142.8903  135.7532  151.3748 H   0  0  0  0  0  0  0  0  0  0  0  0
  143.5461  137.0136  152.3754 H   0  0  0  0  0  0  0  0  0  0  0  0
  145.5127  137.0904  150.7044 H   0  0  0  0  0  0  0  0  0  0  0  0
  144.8250  135.7531  149.8120 H   0  0  0  0  0  0  0  0  0  0  0  0
  146.4778  135.6700  150.4089 H   0  0  0  0  0  0  0  0  0  0  0  0
  145.4769  135.7405  154.1061 H   0  0  0  0  0  0  0  0  0  0  0  0
  146.8297  135.3395  153.1297 H   0  0  0  0  0  0  0  0  0  0  0  0
  145.7696  137.7917  152.1701 H   0  0  0  0  0  0  0  0  0  0  0  0
  147.6504  139.4532  152.2297 H   0  0  0  0  0  0  0  0  0  0  0  0
  146.3727  139.9941  153.2557 H   0  0  0  0  0  0  0  0  0  0  0  0
  150.0443  138.4151  152.7865 H   0  0  0  0  0  0  0  0  0  0  0  0
  149.5219  137.6101  154.2749 H   0  0  0  0  0  0  0  0  0  0  0  0
  151.1444  138.2875  154.1555 H   0  0  0  0  0  0  0  0  0  0  0  0
  151.2435  141.9588  157.4727 H   0  0  0  0  0  0  0  0  0  0  0  0
  150.4346  143.4111  156.8733 H   0  0  0  0  0  0  0  0  0  0  0  0
  151.8622  142.7871  156.0385 H   0  0  0  0  0  0  0  0  0  0  0  0
  146.8148  133.5138  151.0467 H   0  0  0  0  0  0  0  0  0  0  0  0
  146.8603  133.5744  152.7960 H   0  0  0  0  0  0  0  0  0  0  0  0
  147.1550  131.2687  151.9746 H   0  0  0  0  0  0  0  0  0  0  0  0
  145.7284  131.4095  152.9856 H   0  0  0  0  0  0  0  0  0  0  0  0
  143.5013  131.3709  150.1201 H   0  0  0  0  0  0  0  0  0  0  0  0
  143.5323  131.4724  151.8709 H   0  0  0  0  0  0  0  0  0  0  0  0
  143.1183  133.6842  150.8870 H   0  0  0  0  0  0  0  0  0  0  0  0
  144.5578  133.5758  149.8970 H   0  0  0  0  0  0  0  0  0  0  0  0
  1  2  1  0  0  0  0
  1 26  1  0  0  0  0
  1 27  1  0  0  0  0
  1 28  1  0  0  0  0
  2  3  1  0  0  0  0
  2 29  1  0  0  0  0
  2 30  1  0  0  0  0
  3  4  1  0  0  0  0
  3  5  1  0  0  0  0
  3 19  1  0  0  0  0
  4 31  1  0  0  0  0
  4 32  1  0  0  0  0
  4 33  1  0  0  0  0
  5  6  1  0  0  0  0
  5 34  1  0  0  0  0
  5 35  1  0  0  0  0
  6  7  1  0  0  0  0
  6 36  1  0  0  0  0
  7  8  2  0  0  0  0
  7  9  1  0  0  0  0
  9 10  1  0  0  0  0
  9 37  1  0  0  0  0
  9 38  1  0  0  0  0
 10 17  1  0  0  0  0
 10 11  2  0  0  0  0
 11 12  1  0  0  0  0
 11 13  1  0  0  0  0
 12 39  1  0  0  0  0
 12 40  1  0  0  0  0
 12 41  1  0  0  0  0
 13 14  2  0  0  0  0
 14 15  1  0  0  0  0
 14 16  1  0  0  0  0
 15 42  1  0  0  0  0
 15 43  1  0  0  0  0
 15 44  1  0  0  0  0
 16 25  1  0  0  0  0
 16 17  1  0  0  0  0
 17 18  2  0  0  0  0
 19 24  1  0  0  0  0
 19 20  1  0  0  0  0
 20 21  1  0  0  0  0
 20 45  1  0  0  0  0
 20 46  1  0  0  0  0
 21 22  1  0  0  0  0
 21 47  1  0  0  0  0
 21 48  1  0  0  0  0
 22 23  1  0  0  0  0
 23 24  1  0  0  0  0
 23 49  1  0  0  0  0
 23 50  1  0  0  0  0
 24 51  1  0  0  0  0
 24 52  1  0  0  0  0
M  END
> <s_m_source_file>
AV-unprocessed.smi

> <i_m_source_file_index>
1492

> <i_lp_mmshare_version>
43012

> <i_f3d_flags>
0

> <s_epik_input>
W0NIMl0xW0NIMl1PW0NIMl1bQ0gyXU4xW0NAQF0oW0NIM10pKFtDSDJdW0NIM10pW0NIMl1bTkhdQyg9TylbQ0gyXWMyYyhbQ0gzXSluYyhbQ0gzXSlbbkhdYzI9Tw==

> <s_epik_cmdline>
J2VwaWtfcHl0aG9uJywgJy1waCcsICc3LjAnLCAnLXRuJywgJzgnLCAnLW1hJywgJzIwMCcsICctbWV0YWxfYmluZGluZycsICctaW1hZScsICc8aW5maWxlLm1hZT4nLCAnLW9tYWUnLCAnPG91dGZpbGUubWFlPic=

> <r_lp_tautomer_probability>
0.839158

> <r_epik_Ionization_Penalty>
0.328652

> <r_epik_Ionization_Penalty_Charging>
0.000364731

> <r_epik_Ionization_Penalty_Neutral>
0.328288

> <r_epik_State_Penalty>
0.414451

> <r_epik_Charging_Adjusted_Penalty>
0.414816

> <i_epik_Tot_Q>
0

> <i_epik_Tot_abs_Q>
0

> <r_epik_Metal_State_Penalty>
0.592978

> <b_epik_Metal_Only>
0

> <s_lp_Force_Field>
OPLS_2005

> <r_lp_Energy>
47.024

> <b_lp_Chiralities_Consistent>
1

> <s_lp_Variant>
AV-unprocessed.smi:1492-1

> <Gold.Version>
5.8.1

> <Gold.Id.Protein>
6NUR|6NUR_protein|mol2

> <Gold.PLP.Fitness>
42.2285

> <Gold.PLP.PLP>
-38.8302

> <Gold.PLP.part.hbond>
-2.8148

> <Gold.PLP.part.metal>
0.0000

> <Gold.PLP.part.buried>
-1.6752

> <Gold.PLP.part.nonpolar>
-33.7982

> <Gold.PLP.part.repulsive>
0.6880

> <Gold.PLP.ligand.clash>
0.0169

> <Gold.PLP.ligand.torsion>
0.3466

> <Gold.PLP.Chemscore.Hbond>
1.2968

> <Gold.PLP.Chemscore.CHOScore>
0.0000

> <Gold.PLP.Chemscore.Metal>
0.0000

> <Gold.Chemscore.Hbonds>
donor molecule, donor type, donor heavy atom, donor atom, acceptor molecule, acceptor atom, score
      L1  H    16    25       P1  8028  0.83
      P1  H  7989  7998       L1    13  0.37

> <Gold.PLP.Chemscore.Internal.Correction>
0.2180

> <Gold.Rescore>
     Score         DG    S(hbond)    S(metal)    S(lipo)     H(rot)  DE(clash)    DE(int)     intcor
      9.21     -12.08       0.62        0.00      85.12       2.12       0.03       2.84       ----

> <Gold.Chemscore.Fitness>
9.2096

> <Gold.Chemscore.DG>
-12.0792

> <Gold.Chemscore.ZeroCoef>
-5.4800

> <Gold.Chemscore.Hbond>
0.6155

> <Gold.Chemscore.Metal>
0.0000

> <Gold.Chemscore.Lipo>
85.1207

> <Gold.Chemscore.Internal_Hbond>
0.0000

> <Gold.Chemscore.DEClash>
0.0323

> <Gold.Chemscore.DEInternal>
2.8373

> <Gold.Chemscore.Rot>
2.1155

> <Gold.Chemscore.Internal.Correction>
   9.000000E+99

> <Gold.Chemscore.Hbonds>
donor molecule, donor type, donor heavy atom, donor atom, acceptor molecule, acceptor atom, score
      L1  H    16    25       P1  8028  0.83
      P1  H  7989  7998       L1    13  0.01

> <Gold.Chemscore.Hbond.Weighted>
-2.0558

> <Gold.Chemscore.Metal.Weighted>
-0.0000

> <Gold.Chemscore.Lipo.Weighted>
-9.9591

> <Gold.Chemscore.Internal_Hbond.Weighted>
0.0000

> <Gold.Chemscore.DEClash.Weighted>
0.0323

> <Gold.Chemscore.DEInternal.Weighted>
2.8373

> <Gold.Chemscore.Rot.Weighted>
5.4157

> <Gold.Chemscore.Internal.Correction.Weighted>
   9.000000E+99

> <Gold.Protein.RotatedTorsions>
[ 6907 6896 6895 6894 ] final  101.70 input  -60.11 | X-H torsion
[ 7974 7965 7964 7962 ] final   58.63 input  175.53 | X-H torsion
[ 8008 7997 7996 7995 ] final -144.67 input   59.86 | X-H torsion
[ 10167 10162 10161 10158 ] final -102.41 input  -65.29 | X-H torsion
[ 10718 10713 10712 10709 ] final  122.86 input   66.30 | X-H torsion
[ 10763 10752 10751 10750 ] final  164.61 input  -60.55 | X-H torsion
[ 11005 11000 10999 10996 ] final   42.06 input  -57.11 | X-H torsion

> <Gold.Protein.ActiveResidues>
 VAL166  LYS551  ARG553  GLY616  TRP617  ASP618  TYR619  PRO620  LYS621  CYS622 
 ASP623  PHE694  ASN695  SER759  ASP760  ASP761  ALA762  ILE779  LEU786  VAL792 
 PHE793  MET794  SER795  GLU796  ALA797  LYS798  CYS799  TRP800  GLU811  SER814 

> <Gold.Protein.RotatedAtoms>
  152.5343  134.0087  159.7927 H   0  0  0  0  0  0  0  0  0  0  0  0  # atno 6907 bound_to 6896
  151.0293  133.5797  159.2669 H   0  0  0  0  0  0  0  0  0  0  0  0  # atno 6908 bound_to 6896
  151.2808  135.0720  159.9222 H   0  0  0  0  0  0  0  0  0  0  0  0  # atno 6909 bound_to 6896
  145.9161  139.3692  143.0506 H   0  0  0  0  0  0  0  0  0  0  0  0  # atno 7974 bound_to 7965
  155.5306  140.0599  157.2889 H   0  0  0  0  0  0  0  0  0  0  0  0  # atno 8008 bound_to 7997
  154.4485  140.1936  156.0536 H   0  0  0  0  0  0  0  0  0  0  0  0  # atno 8009 bound_to 7997
  156.0655  140.3267  155.7516 H   0  0  0  0  0  0  0  0  0  0  0  0  # atno 8010 bound_to 7997
  140.2310  143.3607  152.0887 H   0  0  0  0  0  0  0  0  0  0  0  0  # atno 10167 bound_to 10162
  157.5710  131.1083  150.8367 H   0  0  0  0  0  0  0  0  0  0  0  0  # atno 10718 bound_to 10713
  154.3115  135.2757  155.2564 H   0  0  0  0  0  0  0  0  0  0  0  0  # atno 10763 bound_to 10752
  154.4957  135.5822  153.6496 H   0  0  0  0  0  0  0  0  0  0  0  0  # atno 10764 bound_to 10752
  152.9887  135.6145  154.3292 H   0  0  0  0  0  0  0  0  0  0  0  0  # atno 10765 bound_to 10752
  140.1775  134.4145  155.8220 H   0  0  0  0  0  0  0  0  0  0  0  0  # atno 11005 bound_to 11000
  145.8610  140.9475  143.0700 LP  0  0  0  0  0  0  0  0  0  0  0  0  # atno 17320 bound_to 7965
  144.6748  140.0530  143.7478 LP  0  0  0  0  0  0  0  0  0  0  0  0  # atno 17321 bound_to 7965
  139.5110  144.6893  151.5802 LP  0  0  0  0  0  0  0  0  0  0  0  0  # atno 17342 bound_to 10162
  140.6185  143.9303  150.6507 LP  0  0  0  0  0  0  0  0  0  0  0  0  # atno 17343 bound_to 10162
  156.8839  130.5189  149.5289 LP  0  0  0  0  0  0  0  0  0  0  0  0  # atno 17370 bound_to 10713
  156.0755  130.5778  150.9466 LP  0  0  0  0  0  0  0  0  0  0  0  0  # atno 17371 bound_to 10713
  141.2221  133.6984  156.7872 LP  0  0  0  0  0  0  0  0  0  0  0  0  # atno 17394 bound_to 11000
  140.2306  134.8689  157.3472 LP  0  0  0  0  0  0  0  0  0  0  0  0  # atno 17395 bound_to 11000

$$$$
