AV-unprocessed.smi:2752|AV-procd|sdf|10606|dock7
  -GOLD-   2272015 63D 1   1.00000     0.00000
 Structure written by MMmdl.
 34 35  0  0  0  0  0  0  0  0  1 V2000
  149.5258  143.5530  158.8959 C   0  0  0  0  0  0  0  0  0  0  0  0
  150.5002  142.6194  159.3325 O   0  0  0  0  0  0  0  0  0  0  0  0
  151.7968  142.8437  158.7849 C   0  0  1  0  0  0  0  0  0  0  0  0
  152.5829  143.7631  159.7259 C   0  0  0  0  0  0  0  0  0  0  0  0
  153.0981  142.8273  160.8159 C   0  0  0  0  0  0  0  0  0  0  0  0
  153.4297  141.5222  160.0866 C   0  0  0  0  0  0  0  0  0  0  0  0
  152.6060  141.5267  158.7837 C   0  0  1  0  0  0  0  0  0  0  0  0
  151.7629  140.3372  158.6833 N   0  0  0  0  0  0  0  0  0  0  0  0
  151.7569  139.4909  157.6436 C   0  0  0  0  0  0  0  0  0  0  0  0
  152.4850  139.6220  156.6592 O   0  0  0  0  0  0  0  0  0  0  0  0
  150.8593  138.5062  157.8229 N   0  0  0  0  0  0  0  0  0  0  0  0
  150.5584  137.4239  156.9539 C   0  0  0  0  0  0  0  0  0  0  0  0
  149.6276  136.4893  157.4623 C   0  0  0  0  0  0  0  0  0  0  0  0
  149.2623  135.3777  156.6780 C   0  0  0  0  0  0  0  0  0  0  0  0
  149.8394  135.2309  155.4041 C   0  0  0  0  0  0  0  0  0  0  0  0
  149.5190  134.1788  154.6141 F   0  0  0  0  0  0  0  0  0  0  0  0
  150.7578  136.2055  154.9721 C   0  0  0  0  0  0  0  0  0  0  0  0
  151.1086  137.2710  155.7229 N   0  0  0  0  0  0  0  0  0  0  0  0
  148.5718  143.3338  159.3750 H   0  0  0  0  0  0  0  0  0  0  0  0
  149.3800  143.4882  157.8170 H   0  0  0  0  0  0  0  0  0  0  0  0
  149.8014  144.5765  159.1502 H   0  0  0  0  0  0  0  0  0  0  0  0
  151.7248  143.2487  157.7736 H   0  0  0  0  0  0  0  0  0  0  0  0
  153.4290  144.1942  159.1894 H   0  0  0  0  0  0  0  0  0  0  0  0
  151.9941  144.5884  160.1259 H   0  0  0  0  0  0  0  0  0  0  0  0
  153.9556  143.2379  161.3498 H   0  0  0  0  0  0  0  0  0  0  0  0
  152.3072  142.6490  161.5457 H   0  0  0  0  0  0  0  0  0  0  0  0
  154.4927  141.4923  159.8448 H   0  0  0  0  0  0  0  0  0  0  0  0
  153.2223  140.6585  160.7197 H   0  0  0  0  0  0  0  0  0  0  0  0
  153.3063  141.5415  157.9463 H   0  0  0  0  0  0  0  0  0  0  0  0
  151.1288  140.1622  159.4487 H   0  0  0  0  0  0  0  0  0  0  0  0
  150.3283  138.5353  158.6807 H   0  0  0  0  0  0  0  0  0  0  0  0
  149.1945  136.6189  158.4436 H   0  0  0  0  0  0  0  0  0  0  0  0
  148.5528  134.6526  157.0478 H   0  0  0  0  0  0  0  0  0  0  0  0
  151.2230  136.1288  154.0005 H   0  0  0  0  0  0  0  0  0  0  0  0
  1  2  1  0  0  0  0
  1 19  1  0  0  0  0
  1 20  1  0  0  0  0
  1 21  1  0  0  0  0
  2  3  1  0  0  0  0
  3  7  1  0  0  0  0
  3  4  1  0  0  0  0
  3 22  1  0  0  0  0
  4  5  1  0  0  0  0
  4 23  1  0  0  0  0
  4 24  1  0  0  0  0
  5  6  1  0  0  0  0
  5 25  1  0  0  0  0
  5 26  1  0  0  0  0
  6  7  1  0  0  0  0
  6 27  1  0  0  0  0
  6 28  1  0  0  0  0
  7  8  1  0  0  0  0
  7 29  1  0  0  0  0
  8  9  1  0  0  0  0
  8 30  1  0  0  0  0
  9 10  2  0  0  0  0
  9 11  1  0  0  0  0
 11 12  1  0  0  0  0
 11 31  1  0  0  0  0
 12 18  1  0  0  0  0
 12 13  2  0  0  0  0
 13 14  1  0  0  0  0
 13 32  1  0  0  0  0
 14 15  2  0  0  0  0
 14 33  1  0  0  0  0
 15 16  1  0  0  0  0
 15 17  1  0  0  0  0
 17 18  2  0  0  0  0
 17 34  1  0  0  0  0
M  END
> <s_m_source_file>
AV-unprocessed.smi

> <i_m_source_file_index>
2752

> <i_lp_mmshare_version>
43012

> <i_f3d_flags>
0

> <s_epik_input>
W0NIM11PW0NAQEhdMVtDSDJdW0NIMl1bQ0gyXVtDQEhdMVtOSF1DKD1PKVtOSF1jMltjSF1bY0hdYyhGKVtjSF1uMg==

> <s_epik_cmdline>
J2VwaWtfcHl0aG9uJywgJy1waCcsICc3LjAnLCAnLXRuJywgJzgnLCAnLW1hJywgJzIwMCcsICctbWV0YWxfYmluZGluZycsICctaW1hZScsICc8aW5maWxlLm1hZT4nLCAnLW9tYWUnLCAnPG91dGZpbGUubWFlPic=

> <r_lp_tautomer_probability>
1

> <r_epik_Ionization_Penalty>
3.49853e-05

> <r_epik_Ionization_Penalty_Charging>
0

> <r_epik_Ionization_Penalty_Neutral>
3.49853e-05

> <r_epik_State_Penalty>
-0

> <r_epik_Charging_Adjusted_Penalty>
0

> <i_epik_Tot_Q>
0

> <i_epik_Tot_abs_Q>
0

> <r_epik_Metal_State_Penalty>
-0

> <b_epik_Metal_Only>
0

> <s_lp_Force_Field>
OPLS_2005

> <r_lp_Energy>
23.7986

> <b_lp_Chiralities_Consistent>
1

> <s_lp_Variant>
AV-unprocessed.smi:2752-2

> <Gold.Version>
5.8.1

> <Gold.Id.Protein>
6NUR|6NUR_protein|mol2

> <Gold.PLP.Fitness>
32.8644

> <Gold.PLP.PLP>
-27.5934

> <Gold.PLP.part.hbond>
-2.0000

> <Gold.PLP.part.metal>
0.0000

> <Gold.PLP.part.buried>
-4.3381

> <Gold.PLP.part.nonpolar>
-21.9777

> <Gold.PLP.part.repulsive>
0.2574

> <Gold.PLP.ligand.clash>
0.0000

> <Gold.PLP.ligand.torsion>
0.3705

> <Gold.PLP.Chemscore.Hbond>
1.0000

> <Gold.PLP.Chemscore.CHOScore>
1.0000

> <Gold.PLP.Chemscore.Metal>
0.0000

> <Gold.Chemscore.Hbonds>
donor molecule, donor type, donor heavy atom, donor atom, acceptor molecule, acceptor atom, score
      P1  H  7997  8010       L1    10  1.00
      L1  C    17    34       P1  7949  1.00

> <Gold.PLP.Chemscore.Internal.Correction>
0.0120

> <Gold.Rescore>
     Score         DG    S(hbond)    S(metal)    S(lipo)     H(rot)  DE(clash)    DE(int)     intcor
     12.69     -14.36       1.00        0.00      75.49       1.28       0.05       1.62       ----

> <Gold.Chemscore.Fitness>
12.6879

> <Gold.Chemscore.DG>
-14.3642

> <Gold.Chemscore.ZeroCoef>
-5.4800

> <Gold.Chemscore.Hbond>
0.9981

> <Gold.Chemscore.Metal>
0.0000

> <Gold.Chemscore.Lipo>
75.4919

> <Gold.Chemscore.Internal_Hbond>
0.0000

> <Gold.Chemscore.DEClash>
0.0516

> <Gold.Chemscore.DEInternal>
1.6247

> <Gold.Chemscore.Rot>
1.2821

> <Gold.Chemscore.Internal.Correction>
   9.000000E+99

> <Gold.Chemscore.Hbonds>
donor molecule, donor type, donor heavy atom, donor atom, acceptor molecule, acceptor atom, score
      P1  H  7997  8010       L1    10  0.97

> <Gold.Chemscore.Hbond.Weighted>
-3.3338

> <Gold.Chemscore.Metal.Weighted>
-0.0000

> <Gold.Chemscore.Lipo.Weighted>
-8.8325

> <Gold.Chemscore.Internal_Hbond.Weighted>
0.0000

> <Gold.Chemscore.DEClash.Weighted>
0.0516

> <Gold.Chemscore.DEInternal.Weighted>
1.6247

> <Gold.Chemscore.Rot.Weighted>
3.2822

> <Gold.Chemscore.Internal.Correction.Weighted>
   9.000000E+99

> <Gold.Protein.RotatedTorsions>
[ 6907 6896 6895 6894 ] final  134.06 input  -60.11 | X-H torsion
[ 7974 7965 7964 7962 ] final   53.17 input  175.53 | X-H torsion
[ 8008 7997 7996 7995 ] final   55.16 input   59.86 | X-H torsion
[ 10167 10162 10161 10158 ] final  123.70 input  -65.29 | X-H torsion
[ 10718 10713 10712 10709 ] final -154.51 input   66.30 | X-H torsion
[ 10763 10752 10751 10750 ] final  -53.79 input  -60.55 | X-H torsion
[ 11005 11000 10999 10996 ] final   48.68 input  -57.11 | X-H torsion

> <Gold.Protein.ActiveResidues>
 VAL166  LYS551  ARG553  GLY616  TRP617  ASP618  TYR619  PRO620  LYS621  CYS622 
 ASP623  PHE694  ASN695  SER759  ASP760  ASP761  ALA762  ILE779  LEU786  VAL792 
 PHE793  MET794  SER795  GLU796  ALA797  LYS798  CYS799  TRP800  GLU811  SER814 

> <Gold.Protein.RotatedAtoms>
  152.3153  133.5796  159.5707 H   0  0  0  0  0  0  0  0  0  0  0  0  # atno 6907 bound_to 6896
  150.7343  134.0092  159.3672 H   0  0  0  0  0  0  0  0  0  0  0  0  # atno 6908 bound_to 6896
  151.7981  135.0717  160.0447 H   0  0  0  0  0  0  0  0  0  0  0  0  # atno 6909 bound_to 6896
  145.9739  139.4176  143.0173 H   0  0  0  0  0  0  0  0  0  0  0  0  # atno 7974 bound_to 7965
  155.4965  140.3473  155.4364 H   0  0  0  0  0  0  0  0  0  0  0  0  # atno 8008 bound_to 7997
  156.0942  140.1418  156.9580 H   0  0  0  0  0  0  0  0  0  0  0  0  # atno 8009 bound_to 7997
  154.4653  140.0920  156.6981 H   0  0  0  0  0  0  0  0  0  0  0  0  # atno 8010 bound_to 7997
  139.5784  144.6974  151.3593 H   0  0  0  0  0  0  0  0  0  0  0  0  # atno 10167 bound_to 10162
  156.5003  130.8388  151.2606 H   0  0  0  0  0  0  0  0  0  0  0  0  # atno 10718 bound_to 10713
  154.1645  135.6469  153.4994 H   0  0  0  0  0  0  0  0  0  0  0  0  # atno 10763 bound_to 10752
  153.0101  135.5369  154.6676 H   0  0  0  0  0  0  0  0  0  0  0  0  # atno 10764 bound_to 10752
  154.5999  135.2942  155.0519 H   0  0  0  0  0  0  0  0  0  0  0  0  # atno 10765 bound_to 10752
  140.1169  134.4880  155.8630 H   0  0  0  0  0  0  0  0  0  0  0  0  # atno 11005 bound_to 11000
  145.7866  140.9833  143.1071 LP  0  0  0  0  0  0  0  0  0  0  0  0  # atno 17320 bound_to 7965
  144.6844  139.9631  143.7480 LP  0  0  0  0  0  0  0  0  0  0  0  0  # atno 17321 bound_to 7965
  140.7065  143.7501  150.7490 LP  0  0  0  0  0  0  0  0  0  0  0  0  # atno 17342 bound_to 10162
  140.1027  143.4772  152.2416 LP  0  0  0  0  0  0  0  0  0  0  0  0  # atno 17343 bound_to 10162
  157.7463  130.9984  150.2851 LP  0  0  0  0  0  0  0  0  0  0  0  0  # atno 17370 bound_to 10713
  156.3339  130.3805  149.7467 LP  0  0  0  0  0  0  0  0  0  0  0  0  # atno 17371 bound_to 10713
  141.2143  133.6747  156.6814 LP  0  0  0  0  0  0  0  0  0  0  0  0  # atno 17394 bound_to 11000
  140.3016  134.8159  157.4102 LP  0  0  0  0  0  0  0  0  0  0  0  0  # atno 17395 bound_to 11000

$$$$
