AV-unprocessed.smi:648|AV-procd|sdf|3172|dock7
  -GOLD-   22720 0 93D 1   1.00000     0.00000
 Structure written by MMmdl.
 46 47  0  0  0  0  0  0  0  0  2 V2000
  141.8557  134.7839  153.2581 C   0  0  0  0  0  0  0  0  0  0  0  0
  143.1299  134.9136  152.4103 C   0  0  2  0  0  0  0  0  0  0  0  0
  143.4284  133.6025  151.6577 C   0  0  0  0  0  0  0  0  0  0  0  0
  144.6957  133.6637  150.7715 C   0  0  0  0  0  0  0  0  0  0  0  0
  145.0566  132.2252  150.3408 C   0  0  0  0  0  0  0  0  0  0  0  0
  144.4194  134.4511  149.4701 C   0  0  0  0  0  0  0  0  0  0  0  0
  145.8989  134.2325  151.5829 C   0  0  0  0  0  0  0  0  0  0  0  0
  145.6519  135.4890  152.4731 C   0  0  2  0  0  0  0  0  0  0  0  0
  145.5962  136.7786  151.6089 C   0  0  0  0  0  0  0  0  0  0  0  0
  146.8745  137.3672  151.4595 O   0  0  0  0  0  0  0  0  0  0  0  0
  146.8332  135.6762  153.3667 N   0  3  0  0  0  0  0  0  0  0  0  0
  146.7453  136.6355  154.4926 C   0  0  0  0  0  0  0  0  0  0  0  0
  148.0718  136.6868  155.2636 C   0  0  0  0  0  0  0  0  0  0  0  0
  148.7439  137.9596  155.0900 N   0  0  0  0  0  0  0  0  0  0  0  0
  149.7627  138.3056  154.3013 C   0  0  0  0  0  0  0  0  0  0  0  0
  150.1148  139.5790  154.4107 N   0  0  0  0  0  0  0  0  0  0  0  0
  149.2114  139.9863  155.3515 C   0  0  0  0  0  0  0  0  0  0  0  0
  148.3663  139.0535  155.7915 N   0  0  0  0  0  0  0  0  0  0  0  0
  144.3380  135.3012  153.2836 C   0  0  0  0  0  0  0  0  0  0  0  0
  141.9591  134.0087  154.0182 H   0  0  0  0  0  0  0  0  0  0  0  0
  140.9957  134.5289  152.6382 H   0  0  0  0  0  0  0  0  0  0  0  0
  141.6259  135.7204  153.7674 H   0  0  0  0  0  0  0  0  0  0  0  0
  142.9397  135.7049  151.6870 H   0  0  0  0  0  0  0  0  0  0  0  0
  143.5429  132.8053  152.3941 H   0  0  0  0  0  0  0  0  0  0  0  0
  142.5675  133.3195  151.0499 H   0  0  0  0  0  0  0  0  0  0  0  0
  145.9444  132.2116  149.7070 H   0  0  0  0  0  0  0  0  0  0  0  0
  144.2459  131.7598  149.7785 H   0  0  0  0  0  0  0  0  0  0  0  0
  145.2592  131.5837  151.1991 H   0  0  0  0  0  0  0  0  0  0  0  0
  145.3389  134.6418  148.9158 H   0  0  0  0  0  0  0  0  0  0  0  0
  143.9234  135.4028  149.6347 H   0  0  0  0  0  0  0  0  0  0  0  0
  143.7573  133.8911  148.8085 H   0  0  0  0  0  0  0  0  0  0  0  0
  146.2360  133.4265  152.2330 H   0  0  0  0  0  0  0  0  0  0  0  0
  146.7412  134.4134  150.9135 H   0  0  0  0  0  0  0  0  0  0  0  0
  145.2031  136.5597  150.6154 H   0  0  0  0  0  0  0  0  0  0  0  0
  144.9572  137.5442  152.0335 H   0  0  0  0  0  0  0  0  0  0  0  0
  147.5064  136.8372  151.9220 H   0  0  0  0  0  0  0  0  0  0  0  0
  147.0756  134.7702  153.7412 H   0  0  0  0  0  0  0  0  0  0  0  0
  146.5212  137.6310  154.1085 H   0  0  0  0  0  0  0  0  0  0  0  0
  145.9403  136.3610  155.1731 H   0  0  0  0  0  0  0  0  0  0  0  0
  147.9021  136.5280  156.3297 H   0  0  0  0  0  0  0  0  0  0  0  0
  148.7402  135.8933  154.9260 H   0  0  0  0  0  0  0  0  0  0  0  0
  150.2551  137.6151  153.6323 H   0  0  0  0  0  0  0  0  0  0  0  0
  149.1754  141.0000  155.7227 H   0  0  0  0  0  0  0  0  0  0  0  0
  144.1130  136.2016  153.8563 H   0  0  0  0  0  0  0  0  0  0  0  0
  144.4551  134.5040  154.0172 H   0  0  0  0  0  0  0  0  0  0  0  0
  147.5967  135.9825  152.7798 H   0  0  0  0  0  0  0  0  0  0  0  0
  1  2  1  0  0  0  0
  1 20  1  0  0  0  0
  1 21  1  0  0  0  0
  1 22  1  0  0  0  0
  2 19  1  0  0  0  0
  2  3  1  0  0  0  0
  2 23  1  0  0  0  0
  3  4  1  0  0  0  0
  3 24  1  0  0  0  0
  3 25  1  0  0  0  0
  4  5  1  0  0  0  0
  4  6  1  0  0  0  0
  4  7  1  0  0  0  0
  5 26  1  0  0  0  0
  5 27  1  0  0  0  0
  5 28  1  0  0  0  0
  6 29  1  0  0  0  0
  6 30  1  0  0  0  0
  6 31  1  0  0  0  0
  7  8  1  0  0  0  0
  7 32  1  0  0  0  0
  7 33  1  0  0  0  0
  8  9  1  0  0  0  0
  8 11  1  0  0  0  0
  8 19  1  0  0  0  0
  9 10  1  0  0  0  0
  9 34  1  0  0  0  0
  9 35  1  0  0  0  0
 10 36  1  0  0  0  0
 11 12  1  0  0  0  0
 11 37  1  0  0  0  0
 11 46  1  0  0  0  0
 12 13  1  0  0  0  0
 12 38  1  0  0  0  0
 12 39  1  0  0  0  0
 13 14  1  0  0  0  0
 13 40  1  0  0  0  0
 13 41  1  0  0  0  0
 14 18  1  0  0  0  0
 14 15  1  0  0  0  0
 15 16  2  0  0  0  0
 15 42  1  0  0  0  0
 16 17  1  0  0  0  0
 17 18  2  0  0  0  0
 17 43  1  0  0  0  0
 19 44  1  0  0  0  0
 19 45  1  0  0  0  0
M  CHG  1  11   1
M  END
> <s_m_source_file>
AV-unprocessed.smi

> <i_m_source_file_index>
648

> <i_lp_mmshare_version>
43012

> <i_f3d_flags>
0

> <s_epik_input>
W0NIM11DMShbQ0gzXSlbQ0gyXVtDQEBIXShbQ0gzXSlbQ0gyXVtDQF0oW0NIMl0xKShbQ0gyXVtPSF0pW05IXVtDSDJdW0NIMl1uMltjSF1uW2NIXW4y

> <s_epik_cmdline>
J2VwaWtfcHl0aG9uJywgJy1waCcsICc3LjAnLCAnLXRuJywgJzgnLCAnLW1hJywgJzIwMCcsICctbWV0YWxfYmluZGluZycsICctaW1hZScsICc8aW5maWxlLm1hZT4nLCAnLW9tYWUnLCAnPG91dGZpbGUubWFlPic=

> <r_lp_tautomer_probability>
1

> <r_epik_Ionization_Penalty>
0.00942316

> <r_epik_Ionization_Penalty_Charging>
0.00942185

> <r_epik_Ionization_Penalty_Neutral>
1.31257e-06

> <r_epik_State_Penalty>
0.00715409

> <r_epik_Charging_Adjusted_Penalty>
0.0165759

> <i_epik_Tot_Q>
1

> <i_epik_Tot_abs_Q>
1

> <r_epik_Metal_State_Penalty>
0.00715563

> <b_epik_Metal_Only>
0

> <s_lp_Force_Field>
OPLS_2005

> <r_lp_Energy>
31.5344

> <b_lp_Chiralities_Consistent>
1

> <s_lp_Variant>
AV-unprocessed.smi:648-3

> <Gold.Version>
5.8.1

> <Gold.Id.Protein>
6NUR|6NUR_protein|mol2

> <Gold.PLP.Fitness>
41.3365

> <Gold.PLP.PLP>
-27.0862

> <Gold.PLP.part.hbond>
-3.3589

> <Gold.PLP.part.metal>
0.0000

> <Gold.PLP.part.buried>
-2.3745

> <Gold.PLP.part.nonpolar>
-23.5880

> <Gold.PLP.part.repulsive>
0.9897

> <Gold.PLP.ligand.clash>
0.0000

> <Gold.PLP.ligand.torsion>
1.3555

> <Gold.PLP.Chemscore.Hbond>
4.6746

> <Gold.PLP.Chemscore.CHOScore>
0.9486

> <Gold.PLP.Chemscore.Metal>
0.0000

> <Gold.Chemscore.Hbonds>
donor molecule, donor type, donor heavy atom, donor atom, acceptor molecule, acceptor atom, score
      L1  H    10    36       P1  7948  0.85
      L1  H    11    46       P1  7948  2.00
      P1  H  7954  7966       L1    10  0.65
      P1  H  7989  7998       L1    16  0.62
      L1  C    15    42       P1  7948  0.83
      L1  C    15    42       P1  7949  0.08

> <Gold.PLP.Chemscore.Internal.Correction>
0.0919

> <Gold.Rescore>
     Score         DG    S(hbond)    S(metal)    S(lipo)     H(rot)  DE(clash)    DE(int)     intcor
     11.23     -13.83       2.86        0.00      59.33       3.17       1.26       1.34       ----

> <Gold.Chemscore.Fitness>
11.2350

> <Gold.Chemscore.DG>
-13.8344

> <Gold.Chemscore.ZeroCoef>
-5.4800

> <Gold.Chemscore.Hbond>
2.8565

> <Gold.Chemscore.Metal>
0.0000

> <Gold.Chemscore.Lipo>
59.3304

> <Gold.Chemscore.Internal_Hbond>
0.0000

> <Gold.Chemscore.DEClash>
1.2605

> <Gold.Chemscore.DEInternal>
1.3390

> <Gold.Chemscore.Rot>
3.1750

> <Gold.Chemscore.Internal.Correction>
   9.000000E+99

> <Gold.Chemscore.Hbonds>
donor molecule, donor type, donor heavy atom, donor atom, acceptor molecule, acceptor atom, score
      L1  H    10    36       P1  7948  0.81
      L1  H    11    46       P1  7948  1.00
      P1  H  7954  7966       L1    10  0.08
      P1  H  7989  7998       L1    16  0.60

> <Gold.Chemscore.Hbond.Weighted>
-9.5406

> <Gold.Chemscore.Metal.Weighted>
-0.0000

> <Gold.Chemscore.Lipo.Weighted>
-6.9417

> <Gold.Chemscore.Internal_Hbond.Weighted>
0.0000

> <Gold.Chemscore.DEClash.Weighted>
1.2605

> <Gold.Chemscore.DEInternal.Weighted>
1.3390

> <Gold.Chemscore.Rot.Weighted>
8.1279

> <Gold.Chemscore.Internal.Correction.Weighted>
   9.000000E+99

> <Gold.Protein.RotatedTorsions>
[ 6907 6896 6895 6894 ] final   75.08 input  -60.11 | X-H torsion
[ 7974 7965 7964 7962 ] final -172.78 input  175.53 | X-H torsion
[ 8008 7997 7996 7995 ] final  -78.39 input   59.86 | X-H torsion
[ 10167 10162 10161 10158 ] final  -20.10 input  -65.29 | X-H torsion
[ 10718 10713 10712 10709 ] final  -18.02 input   66.30 | X-H torsion
[ 10763 10752 10751 10750 ] final  -47.34 input  -60.55 | X-H torsion
[ 11005 11000 10999 10996 ] final  149.05 input  -57.11 | X-H torsion

> <Gold.Protein.ActiveResidues>
 VAL166  LYS551  ARG553  GLY616  TRP617  ASP618  TYR619  PRO620  LYS621  CYS622 
 ASP623  PHE694  ASN695  SER759  ASP760  ASP761  ALA762  ILE779  LEU786  VAL792 
 PHE793  MET794  SER795  GLU796  ALA797  LYS798  CYS799  TRP800  GLU811  SER814 

> <Gold.Protein.RotatedAtoms>
  152.5008  134.4175  159.9469 H   0  0  0  0  0  0  0  0  0  0  0  0  # atno 6907 bound_to 6896
  151.4146  133.3710  159.2756 H   0  0  0  0  0  0  0  0  0  0  0  0  # atno 6908 bound_to 6896
  150.9267  134.8705  159.7583 H   0  0  0  0  0  0  0  0  0  0  0  0  # atno 6909 bound_to 6896
  144.7143  140.1721  143.6366 H   0  0  0  0  0  0  0  0  0  0  0  0  # atno 7974 bound_to 7965
  154.5685  140.0695  156.8928 H   0  0  0  0  0  0  0  0  0  0  0  0  # atno 8008 bound_to 7997
  155.2678  140.3363  155.4249 H   0  0  0  0  0  0  0  0  0  0  0  0  # atno 8009 bound_to 7997
  156.2100  140.1755  156.7702 H   0  0  0  0  0  0  0  0  0  0  0  0  # atno 8010 bound_to 7997
  140.7273  143.4755  151.0188 H   0  0  0  0  0  0  0  0  0  0  0  0  # atno 10167 bound_to 10162
  156.5654  130.4736  149.6387 H   0  0  0  0  0  0  0  0  0  0  0  0  # atno 10718 bound_to 10713
  154.0597  135.6619  153.4810 H   0  0  0  0  0  0  0  0  0  0  0  0  # atno 10763 bound_to 10752
  153.0431  135.5132  154.7671 H   0  0  0  0  0  0  0  0  0  0  0  0  # atno 10764 bound_to 10752
  154.6703  135.3028  154.9717 H   0  0  0  0  0  0  0  0  0  0  0  0  # atno 10765 bound_to 10752
  140.1012  134.8982  157.1798 H   0  0  0  0  0  0  0  0  0  0  0  0  # atno 11005 bound_to 11000
  145.8934  139.2388  143.1536 LP  0  0  0  0  0  0  0  0  0  0  0  0  # atno 17320 bound_to 7965
  145.9881  140.8625  143.0080 LP  0  0  0  0  0  0  0  0  0  0  0  0  # atno 17321 bound_to 7965
  139.8450  143.7513  152.3179 LP  0  0  0  0  0  0  0  0  0  0  0  0  # atno 17342 bound_to 10162
  139.7675  144.7487  151.0272 LP  0  0  0  0  0  0  0  0  0  0  0  0  # atno 17343 bound_to 10162
  156.2762  130.7045  151.1856 LP  0  0  0  0  0  0  0  0  0  0  0  0  # atno 17370 bound_to 10713
  157.7360  131.0567  150.5440 LP  0  0  0  0  0  0  0  0  0  0  0  0  # atno 17371 bound_to 10713
  140.3218  134.2908  155.7245 LP  0  0  0  0  0  0  0  0  0  0  0  0  # atno 17394 bound_to 11000
  141.2106  133.7715  156.9921 LP  0  0  0  0  0  0  0  0  0  0  0  0  # atno 17395 bound_to 11000

$$$$
