AV-unprocessed.smi:2694|AV-procd|sdf|10406|dock2
  -GOLD-   2272014443D 1   1.00000     0.00000
 Structure written by MMmdl.
 42 44  0  0  0  0  0  0  0  0  1 V2000
  152.9392  138.8068  159.1948 O   0  0  0  0  0  0  0  0  0  0  0  0
  152.3315  139.8559  158.9798 C   0  0  0  0  0  0  0  0  0  0  0  0
  152.8067  141.1542  159.4582 C   0  0  0  0  0  0  0  0  0  0  0  0
  152.1072  142.2860  159.2041 C   0  0  0  0  0  0  0  0  0  0  0  0
  152.5656  143.6467  159.7102 C   0  0  0  0  0  0  0  0  0  0  0  0
  151.7154  144.2709  160.8290 C   0  0  0  0  0  0  0  0  0  0  0  0
  151.9277  145.6267  160.1464 C   0  0  0  0  0  0  0  0  0  0  0  0
  152.1777  144.8576  158.8445 C   0  0  0  0  0  0  0  0  0  0  0  0
  150.9065  142.2344  158.4866 N   0  0  0  0  0  0  0  0  0  0  0  0
  150.4640  141.0976  158.0524 C   0  0  0  0  0  0  0  0  0  0  0  0
  151.1594  139.8951  158.2817 N   0  0  0  0  0  0  0  0  0  0  0  0
  150.5481  138.6719  157.7374 C   0  0  0  0  0  0  0  0  0  0  0  0
  149.1181  138.4424  158.2764 C   0  0  1  0  0  0  0  0  0  0  0  0
  148.1759  138.5084  157.2245 O   0  0  0  0  0  0  0  0  0  0  0  0
  148.9484  137.0811  158.9729 C   0  0  0  0  0  0  0  0  0  0  0  0
  147.9729  137.1856  160.0026 O   0  0  0  0  0  0  0  0  0  0  0  0
  147.4587  136.0271  160.5458 C   0  0  0  0  0  0  0  0  0  0  0  0
  147.7878  134.7251  160.0892 C   0  0  0  0  0  0  0  0  0  0  0  0
  147.2216  133.5894  160.7001 C   0  0  0  0  0  0  0  0  0  0  0  0
  146.3215  133.7376  161.7709 C   0  0  0  0  0  0  0  0  0  0  0  0
  145.9870  135.0244  162.2301 C   0  0  0  0  0  0  0  0  0  0  0  0
  146.5522  136.1621  161.6212 C   0  0  0  0  0  0  0  0  0  0  0  0
  146.1233  137.7311  162.2032 Cl  0  0  0  0  0  0  0  0  0  0  0  0
  153.7280  141.2011  160.0202 H   0  0  0  0  0  0  0  0  0  0  0  0
  153.6286  143.6488  159.9587 H   0  0  0  0  0  0  0  0  0  0  0  0
  150.6705  143.9553  160.8106 H   0  0  0  0  0  0  0  0  0  0  0  0
  152.1446  144.1906  161.8281 H   0  0  0  0  0  0  0  0  0  0  0  0
  151.0514  146.2754  160.1338 H   0  0  0  0  0  0  0  0  0  0  0  0
  152.8152  146.1490  160.5077 H   0  0  0  0  0  0  0  0  0  0  0  0
  152.9836  145.2545  158.2266 H   0  0  0  0  0  0  0  0  0  0  0  0
  151.2620  144.7099  158.2687 H   0  0  0  0  0  0  0  0  0  0  0  0
  149.5326  141.0016  157.4919 H   0  0  0  0  0  0  0  0  0  0  0  0
  150.5498  138.6652  156.6452 H   0  0  0  0  0  0  0  0  0  0  0  0
  151.1753  137.8218  158.0123 H   0  0  0  0  0  0  0  0  0  0  0  0
  148.8554  139.2183  158.9964 H   0  0  0  0  0  0  0  0  0  0  0  0
  148.5567  138.9942  156.5090 H   0  0  0  0  0  0  0  0  0  0  0  0
  148.6074  136.3513  158.2368 H   0  0  0  0  0  0  0  0  0  0  0  0
  149.9052  136.7330  159.3664 H   0  0  0  0  0  0  0  0  0  0  0  0
  148.4740  134.5696  159.2708 H   0  0  0  0  0  0  0  0  0  0  0  0
  147.4793  132.6023  160.3455 H   0  0  0  0  0  0  0  0  0  0  0  0
  145.8881  132.8659  162.2389 H   0  0  0  0  0  0  0  0  0  0  0  0
  145.2952  135.1383  163.0520 H   0  0  0  0  0  0  0  0  0  0  0  0
  1  2  2  0  0  0  0
  2 11  1  0  0  0  0
  2  3  1  0  0  0  0
  3  4  2  0  0  0  0
  3 24  1  0  0  0  0
  4  5  1  0  0  0  0
  4  9  1  0  0  0  0
  5  8  1  0  0  0  0
  5  6  1  0  0  0  0
  5 25  1  0  0  0  0
  6  7  1  0  0  0  0
  6 26  1  0  0  0  0
  6 27  1  0  0  0  0
  7  8  1  0  0  0  0
  7 28  1  0  0  0  0
  7 29  1  0  0  0  0
  8 30  1  0  0  0  0
  8 31  1  0  0  0  0
  9 10  2  0  0  0  0
 10 11  1  0  0  0  0
 10 32  1  0  0  0  0
 11 12  1  0  0  0  0
 12 13  1  0  0  0  0
 12 33  1  0  0  0  0
 12 34  1  0  0  0  0
 13 14  1  0  0  0  0
 13 15  1  0  0  0  0
 13 35  1  0  0  0  0
 14 36  1  0  0  0  0
 15 16  1  0  0  0  0
 15 37  1  0  0  0  0
 15 38  1  0  0  0  0
 16 17  1  0  0  0  0
 17 22  1  0  0  0  0
 17 18  2  0  0  0  0
 18 19  1  0  0  0  0
 18 39  1  0  0  0  0
 19 20  2  0  0  0  0
 19 40  1  0  0  0  0
 20 21  1  0  0  0  0
 20 41  1  0  0  0  0
 21 22  2  0  0  0  0
 21 42  1  0  0  0  0
 22 23  1  0  0  0  0
M  END
> <s_m_source_file>
AV-unprocessed.smi

> <i_m_source_file_index>
2694

> <i_lp_mmshare_version>
43012

> <i_f3d_flags>
0

> <s_epik_input>
W0NIMl0xW0NIMl1bQ0gyXVtDSF0xYyhbY0hdYzI9TyluW2NIXW4yW0NIMl1bQ0BIXShbT0hdKVtDSDJdT2MzW2NIXVtjSF1bY0hdW2NIXWMzQ2w=

> <s_epik_cmdline>
J2VwaWtfcHl0aG9uJywgJy1waCcsICc3LjAnLCAnLXRuJywgJzgnLCAnLW1hJywgJzIwMCcsICctbWV0YWxfYmluZGluZycsICctaW1hZScsICc8aW5maWxlLm1hZT4nLCAnLW9tYWUnLCAnPG91dGZpbGUubWFlPic=

> <r_lp_tautomer_probability>
1

> <r_epik_Ionization_Penalty>
1.78212e-05

> <r_epik_Ionization_Penalty_Charging>
5.61663e-08

> <r_epik_Ionization_Penalty_Neutral>
1.7765e-05

> <r_epik_State_Penalty>
-0

> <r_epik_Charging_Adjusted_Penalty>
5.61663e-08

> <i_epik_Tot_Q>
0

> <i_epik_Tot_abs_Q>
0

> <r_epik_Metal_State_Penalty>
-0

> <b_epik_Metal_Only>
0

> <s_lp_Force_Field>
OPLS_2005

> <r_lp_Energy>
33.164

> <b_lp_Chiralities_Consistent>
1

> <s_lp_Variant>
AV-unprocessed.smi:2694-2

> <Gold.Version>
5.8.1

> <Gold.Id.Protein>
6NUR|6NUR_protein|mol2

> <Gold.PLP.Fitness>
52.3682

> <Gold.PLP.PLP>
-51.2704

> <Gold.PLP.part.hbond>
-2.0000

> <Gold.PLP.part.metal>
0.0000

> <Gold.PLP.part.buried>
-4.8284

> <Gold.PLP.part.nonpolar>
-45.2859

> <Gold.PLP.part.repulsive>
0.0340

> <Gold.PLP.ligand.clash>
0.0000

> <Gold.PLP.ligand.torsion>
1.6381

> <Gold.PLP.Chemscore.Hbond>
1.2806

> <Gold.PLP.Chemscore.CHOScore>
0.0000

> <Gold.PLP.Chemscore.Metal>
0.0000

> <Gold.Chemscore.Hbonds>
donor molecule, donor type, donor heavy atom, donor atom, acceptor molecule, acceptor atom, score
      P1  H  6931  6943       L1    16  0.03
      P1  H  6934  6947       L1    16  0.43

> <Gold.PLP.Chemscore.Internal.Correction>
0.5323

> <Gold.Rescore>
     Score         DG    S(hbond)    S(metal)    S(lipo)     H(rot)  DE(clash)    DE(int)     intcor
     16.40     -18.09       0.81        0.00     137.74       2.42       0.21       1.48       ----

> <Gold.Chemscore.Fitness>
16.4024

> <Gold.Chemscore.DG>
-18.0903

> <Gold.Chemscore.ZeroCoef>
-5.4800

> <Gold.Chemscore.Hbond>
0.8087

> <Gold.Chemscore.Metal>
0.0000

> <Gold.Chemscore.Lipo>
137.7433

> <Gold.Chemscore.Internal_Hbond>
0.0000

> <Gold.Chemscore.DEClash>
0.2074

> <Gold.Chemscore.DEInternal>
1.4805

> <Gold.Chemscore.Rot>
2.4245

> <Gold.Chemscore.Internal.Correction>
   9.000000E+99

> <Gold.Chemscore.Hbonds>
donor molecule, donor type, donor heavy atom, donor atom, acceptor molecule, acceptor atom, score
      P1  H  6931  6943       L1    16  0.02
      P1  H  6934  6947       L1    16  0.39

> <Gold.Chemscore.Hbond.Weighted>
-2.7009

> <Gold.Chemscore.Metal.Weighted>
-0.0000

> <Gold.Chemscore.Lipo.Weighted>
-16.1160

> <Gold.Chemscore.Internal_Hbond.Weighted>
0.0000

> <Gold.Chemscore.DEClash.Weighted>
0.2074

> <Gold.Chemscore.DEInternal.Weighted>
1.4805

> <Gold.Chemscore.Rot.Weighted>
6.2066

> <Gold.Chemscore.Internal.Correction.Weighted>
   9.000000E+99

> <Gold.Protein.RotatedTorsions>
[ 6907 6896 6895 6894 ] final -149.15 input  -60.11 | X-H torsion
[ 7974 7965 7964 7962 ] final  143.01 input  175.53 | X-H torsion
[ 8008 7997 7996 7995 ] final  -41.46 input   59.86 | X-H torsion
[ 10167 10162 10161 10158 ] final  -19.09 input  -65.29 | X-H torsion
[ 10718 10713 10712 10709 ] final  -77.43 input   66.30 | X-H torsion
[ 10763 10752 10751 10750 ] final  -71.00 input  -60.55 | X-H torsion
[ 11005 11000 10999 10996 ] final   23.42 input  -57.11 | X-H torsion

> <Gold.Protein.ActiveResidues>
 VAL166  LYS551  ARG553  GLY616  TRP617  ASP618  TYR619  PRO620  LYS621  CYS622 
 ASP623  PHE694  ASN695  SER759  ASP760  ASP761  ALA762  ILE779  LEU786  VAL792 
 PHE793  MET794  SER795  GLU796  ALA797  LYS798  CYS799  TRP800  GLU811  SER814 

> <Gold.Protein.RotatedAtoms>
  151.1800  133.4730  159.2593 H   0  0  0  0  0  0  0  0  0  0  0  0  # atno 6907 bound_to 6896
  151.1268  135.0109  159.8574 H   0  0  0  0  0  0  0  0  0  0  0  0  # atno 6908 bound_to 6896
  152.5458  134.1707  159.8648 H   0  0  0  0  0  0  0  0  0  0  0  0  # atno 6909 bound_to 6896
  144.8958  139.5493  143.5777 H   0  0  0  0  0  0  0  0  0  0  0  0  # atno 7974 bound_to 7965
  154.4004  140.1499  156.3195 H   0  0  0  0  0  0  0  0  0  0  0  0  # atno 8008 bound_to 7997
  155.8543  140.3456  155.5692 H   0  0  0  0  0  0  0  0  0  0  0  0  # atno 8009 bound_to 7997
  155.7950  140.0862  157.1979 H   0  0  0  0  0  0  0  0  0  0  0  0  # atno 8010 bound_to 7997
  140.7265  143.4853  151.0063 H   0  0  0  0  0  0  0  0  0  0  0  0  # atno 10167 bound_to 10162
  156.0145  130.4491  150.3343 H   0  0  0  0  0  0  0  0  0  0  0  0  # atno 10718 bound_to 10713
  154.4256  135.5976  153.6037 H   0  0  0  0  0  0  0  0  0  0  0  0  # atno 10763 bound_to 10752
  152.9796  135.5963  154.3901 H   0  0  0  0  0  0  0  0  0  0  0  0  # atno 10764 bound_to 10752
  154.3732  135.2841  155.2233 H   0  0  0  0  0  0  0  0  0  0  0  0  # atno 10765 bound_to 10752
  140.3698  134.2035  155.7667 H   0  0  0  0  0  0  0  0  0  0  0  0  # atno 11005 bound_to 11000
  146.3080  139.7648  142.9041 LP  0  0  0  0  0  0  0  0  0  0  0  0  # atno 17320 bound_to 7965
  145.3702  141.0341  143.3235 LP  0  0  0  0  0  0  0  0  0  0  0  0  # atno 17321 bound_to 7965
  139.8554  143.7384  152.3176 LP  0  0  0  0  0  0  0  0  0  0  0  0  # atno 17342 bound_to 10162
  139.7580  144.7515  151.0406 LP  0  0  0  0  0  0  0  0  0  0  0  0  # atno 17343 bound_to 10162
  157.1441  131.0304  151.2915 LP  0  0  0  0  0  0  0  0  0  0  0  0  # atno 17370 bound_to 10713
  157.4447  130.7564  149.7100 LP  0  0  0  0  0  0  0  0  0  0  0  0  # atno 17371 bound_to 10713
  141.1958  133.8097  157.0699 LP  0  0  0  0  0  0  0  0  0  0  0  0  # atno 17394 bound_to 11000
  140.0561  134.9780  157.1222 LP  0  0  0  0  0  0  0  0  0  0  0  0  # atno 17395 bound_to 11000

$$$$
