AV-unprocessed.smi:1163|AV-procd|sdf|4923|dock1
  -GOLD-   22720 3503D 1   1.00000     0.00000
 Structure written by MMmdl.
 40 41  0  0  0  0  0  0  0  0  2 V2000
  149.0069  130.4134  153.8375 C   0  0  0  0  0  0  0  0  0  0  0  0
  149.9283  130.8064  154.8486 O   0  0  0  0  0  0  0  0  0  0  0  0
  150.0570  132.1509  155.1307 C   0  0  0  0  0  0  0  0  0  0  0  0
  150.8384  132.5359  156.2380 C   0  0  0  0  0  0  0  0  0  0  0  0
  150.9740  133.9058  156.5342 C   0  0  0  0  0  0  0  0  0  0  0  0
  150.3145  134.8518  155.7133 C   0  0  0  0  0  0  0  0  0  0  0  0
  150.3835  136.2601  155.8931 N   0  0  0  0  0  0  0  0  0  0  0  0
  150.7682  136.9510  156.9800 C   0  0  0  0  0  0  0  0  0  0  0  0
  151.1230  136.4600  158.0513 O   0  0  0  0  0  0  0  0  0  0  0  0
  150.7005  138.2724  156.7647 N   0  0  0  0  0  0  0  0  0  0  0  0
  151.0519  139.2937  157.7458 C   0  0  1  0  0  0  0  0  0  0  0  0
  152.4822  139.1908  158.2563 C   0  0  0  0  0  0  0  0  0  0  0  0
  152.7131  140.5846  158.8487 C   0  0  0  0  0  0  0  0  0  0  0  0
  151.8855  141.5281  158.0533 N   0  3  2  0  0  0  0  0  0  0  0  0
  151.1617  142.5505  158.8506 C   0  0  0  0  0  0  0  0  0  0  0  0
  152.0077  143.8090  159.1154 C   0  0  0  0  0  0  0  0  0  0  0  0
  153.1007  143.4621  159.7934 F   0  0  0  0  0  0  0  0  0  0  0  0
  152.3852  144.3905  157.9774 F   0  0  0  0  0  0  0  0  0  0  0  0
  151.3122  144.6815  159.8445 F   0  0  0  0  0  0  0  0  0  0  0  0
  151.0131  140.7142  157.1746 C   0  0  0  0  0  0  0  0  0  0  0  0
  149.5682  134.3631  154.6209 C   0  0  0  0  0  0  0  0  0  0  0  0
  149.4333  133.0518  154.3323 N   0  0  0  0  0  0  0  0  0  0  0  0
  149.0237  129.3283  153.7361 H   0  0  0  0  0  0  0  0  0  0  0  0
  149.2712  130.8399  152.8685 H   0  0  0  0  0  0  0  0  0  0  0  0
  147.9872  130.7061  154.0917 H   0  0  0  0  0  0  0  0  0  0  0  0
  151.3293  131.7927  156.8487 H   0  0  0  0  0  0  0  0  0  0  0  0
  151.5884  134.1977  157.3712 H   0  0  0  0  0  0  0  0  0  0  0  0
  150.0504  136.8085  155.1136 H   0  0  0  0  0  0  0  0  0  0  0  0
  150.3956  138.5932  155.8572 H   0  0  0  0  0  0  0  0  0  0  0  0
  150.3712  139.2272  158.5974 H   0  0  0  0  0  0  0  0  0  0  0  0
  152.6184  138.3928  158.9870 H   0  0  0  0  0  0  0  0  0  0  0  0
  153.1723  139.0170  157.4290 H   0  0  0  0  0  0  0  0  0  0  0  0
  152.3873  140.5817  159.8901 H   0  0  0  0  0  0  0  0  0  0  0  0
  153.7650  140.8706  158.8321 H   0  0  0  0  0  0  0  0  0  0  0  0
  150.2748  142.8563  158.2935 H   0  0  0  0  0  0  0  0  0  0  0  0
  150.8044  142.1162  159.7857 H   0  0  0  0  0  0  0  0  0  0  0  0
  151.4406  140.7319  156.1709 H   0  0  0  0  0  0  0  0  0  0  0  0
  149.9949  141.0993  157.1017 H   0  0  0  0  0  0  0  0  0  0  0  0
  149.0578  135.0457  153.9572 H   0  0  0  0  0  0  0  0  0  0  0  0
  152.5077  142.0327  157.4377 H   0  0  0  0  0  0  0  0  0  0  0  0
  1  2  1  0  0  0  0
  1 23  1  0  0  0  0
  1 24  1  0  0  0  0
  1 25  1  0  0  0  0
  2  3  1  0  0  0  0
  3 22  1  0  0  0  0
  3  4  2  0  0  0  0
  4  5  1  0  0  0  0
  4 26  1  0  0  0  0
  5  6  2  0  0  0  0
  5 27  1  0  0  0  0
  6  7  1  0  0  0  0
  6 21  1  0  0  0  0
  7  8  1  0  0  0  0
  7 28  1  0  0  0  0
  8  9  2  0  0  0  0
  8 10  1  0  0  0  0
 10 11  1  0  0  0  0
 10 29  1  0  0  0  0
 11 20  1  0  0  0  0
 11 12  1  0  0  0  0
 11 30  1  0  0  0  0
 12 13  1  0  0  0  0
 12 31  1  0  0  0  0
 12 32  1  0  0  0  0
 13 14  1  0  0  0  0
 13 33  1  0  0  0  0
 13 34  1  0  0  0  0
 14 15  1  0  0  0  0
 14 20  1  0  0  0  0
 14 40  1  0  0  0  0
 15 16  1  0  0  0  0
 15 35  1  0  0  0  0
 15 36  1  0  0  0  0
 16 17  1  0  0  0  0
 16 18  1  0  0  0  0
 16 19  1  0  0  0  0
 20 37  1  0  0  0  0
 20 38  1  0  0  0  0
 21 22  2  0  0  0  0
 21 39  1  0  0  0  0
M  CHG  1  14   1
M  END
> <s_m_source_file>
AV-unprocessed.smi

> <i_m_source_file_index>
1163

> <i_lp_mmshare_version>
43012

> <i_f3d_flags>
0

> <s_epik_input>
W0NIM11PYzFbY0hdW2NIXWMoW2NIXW4xKVtOSF1DKD1PKVtOSF1bQ0BASF0yW0NIMl1bQ0gyXU4oW0NIMl0yKVtDSDJdQyhGKShGKUY=

> <s_epik_cmdline>
J2VwaWtfcHl0aG9uJywgJy1waCcsICc3LjAnLCAnLXRuJywgJzgnLCAnLW1hJywgJzIwMCcsICctbWV0YWxfYmluZGluZycsICctaW1hZScsICc8aW5maWxlLm1hZT4nLCAnLW9tYWUnLCAnPG91dGZpbGUubWFlPic=

> <r_lp_tautomer_probability>
1

> <r_epik_Ionization_Penalty>
1.12054

> <r_epik_Ionization_Penalty_Charging>
1.12047

> <r_epik_Ionization_Penalty_Neutral>
7.20346e-05

> <r_epik_State_Penalty>
1.17927

> <r_epik_Charging_Adjusted_Penalty>
2.29974

> <i_epik_Tot_Q>
1

> <i_epik_Tot_abs_Q>
1

> <r_epik_Metal_State_Penalty>
1.17928

> <b_epik_Metal_Only>
0

> <s_lp_Force_Field>
OPLS_2005

> <r_lp_Energy>
31.6131

> <b_lp_Chiralities_Consistent>
1

> <s_lp_Variant>
AV-unprocessed.smi:1163-4

> <Gold.Version>
5.8.1

> <Gold.Id.Protein>
6NUR|6NUR_protein|mol2

> <Gold.PLP.Fitness>
42.3008

> <Gold.PLP.PLP>
-39.0565

> <Gold.PLP.part.hbond>
-1.0000

> <Gold.PLP.part.metal>
0.0000

> <Gold.PLP.part.buried>
-6.7232

> <Gold.PLP.part.nonpolar>
-32.2918

> <Gold.PLP.part.repulsive>
0.2791

> <Gold.PLP.ligand.clash>
0.0000

> <Gold.PLP.ligand.torsion>
0.5043

> <Gold.PLP.Chemscore.Hbond>
0.2405

> <Gold.PLP.Chemscore.CHOScore>
1.0000

> <Gold.PLP.Chemscore.Metal>
0.0000

> <Gold.Chemscore.Hbonds>
donor molecule, donor type, donor heavy atom, donor atom, acceptor molecule, acceptor atom, score
      P1  H  6896  6909       L1     9  0.28
      L1  C    21    39       P1  7948  1.00

> <Gold.PLP.Chemscore.Internal.Correction>
0.5314

> <Gold.Rescore>
     Score         DG    S(hbond)    S(metal)    S(lipo)     H(rot)  DE(clash)    DE(int)     intcor
      9.81     -11.54       0.79        0.00      65.90       1.68       0.07       1.66       ----

> <Gold.Chemscore.Fitness>
9.8062

> <Gold.Chemscore.DG>
-11.5358

> <Gold.Chemscore.ZeroCoef>
-5.4800

> <Gold.Chemscore.Hbond>
0.7905

> <Gold.Chemscore.Metal>
0.0000

> <Gold.Chemscore.Lipo>
65.9025

> <Gold.Chemscore.Internal_Hbond>
0.0000

> <Gold.Chemscore.DEClash>
0.0677

> <Gold.Chemscore.DEInternal>
1.6618

> <Gold.Chemscore.Rot>
1.6778

> <Gold.Chemscore.Internal.Correction>
   9.000000E+99

> <Gold.Chemscore.Hbonds>
donor molecule, donor type, donor heavy atom, donor atom, acceptor molecule, acceptor atom, score
      P1  H  6896  6909       L1     9  0.27

> <Gold.Chemscore.Hbond.Weighted>
-2.6403

> <Gold.Chemscore.Metal.Weighted>
-0.0000

> <Gold.Chemscore.Lipo.Weighted>
-7.7106

> <Gold.Chemscore.Internal_Hbond.Weighted>
0.0000

> <Gold.Chemscore.DEClash.Weighted>
0.0677

> <Gold.Chemscore.DEInternal.Weighted>
1.6618

> <Gold.Chemscore.Rot.Weighted>
4.2951

> <Gold.Chemscore.Internal.Correction.Weighted>
   9.000000E+99

> <Gold.Protein.RotatedTorsions>
[ 6907 6896 6895 6894 ] final   92.40 input  -60.11 | X-H torsion
[ 7974 7965 7964 7962 ] final -101.17 input  175.53 | X-H torsion
[ 8008 7997 7996 7995 ] final   -4.36 input   59.86 | X-H torsion
[ 10167 10162 10161 10158 ] final  -52.76 input  -65.29 | X-H torsion
[ 10718 10713 10712 10709 ] final  -21.87 input   66.30 | X-H torsion
[ 10763 10752 10751 10750 ] final  -40.86 input  -60.55 | X-H torsion
[ 11005 11000 10999 10996 ] final    5.00 input  -57.11 | X-H torsion

> <Gold.Protein.ActiveResidues>
 VAL166  LYS551  ARG553  GLY616  TRP617  ASP618  TYR619  PRO620  LYS621  CYS622 
 ASP623  PHE694  ASN695  SER759  ASP760  ASP761  ALA762  ILE779  LEU786  VAL792 
 PHE793  MET794  SER795  GLU796  ALA797  LYS798  CYS799  TRP800  GLU811  SER814 

> <Gold.Protein.RotatedAtoms>
  152.5452  134.1508  159.8517 H   0  0  0  0  0  0  0  0  0  0  0  0  # atno 6907 bound_to 6896
  151.1535  133.4884  159.2602 H   0  0  0  0  0  0  0  0  0  0  0  0  # atno 6908 bound_to 6896
  151.1447  135.0208  159.8696 H   0  0  0  0  0  0  0  0  0  0  0  0  # atno 6909 bound_to 6896
  145.2850  140.9337  143.2910 H   0  0  0  0  0  0  0  0  0  0  0  0  # atno 7974 bound_to 7965
  154.6151  140.2486  155.7619 H   0  0  0  0  0  0  0  0  0  0  0  0  # atno 8008 bound_to 7997
  156.2394  140.2938  156.0352 H   0  0  0  0  0  0  0  0  0  0  0  0  # atno 8009 bound_to 7997
  155.1988  140.0393  157.2904 H   0  0  0  0  0  0  0  0  0  0  0  0  # atno 8010 bound_to 7997
  140.6520  143.2573  151.4694 H   0  0  0  0  0  0  0  0  0  0  0  0  # atno 10167 bound_to 10162
  156.5122  130.4613  149.6642 H   0  0  0  0  0  0  0  0  0  0  0  0  # atno 10718 bound_to 10713
  153.9529  135.6748  153.4744 H   0  0  0  0  0  0  0  0  0  0  0  0  # atno 10763 bound_to 10752
  153.0875  135.4891  154.8623 H   0  0  0  0  0  0  0  0  0  0  0  0  # atno 10764 bound_to 10752
  154.7315  135.3139  154.8842 H   0  0  0  0  0  0  0  0  0  0  0  0  # atno 10765 bound_to 10752
  140.5756  134.0061  155.8026 H   0  0  0  0  0  0  0  0  0  0  0  0  # atno 11005 bound_to 11000
  144.9221  139.4399  143.6536 LP  0  0  0  0  0  0  0  0  0  0  0  0  # atno 17320 bound_to 7965
  146.3204  139.8086  142.8950 LP  0  0  0  0  0  0  0  0  0  0  0  0  # atno 17321 bound_to 7965
  139.5737  144.1869  152.1873 LP  0  0  0  0  0  0  0  0  0  0  0  0  # atno 17342 bound_to 10162
  140.1173  144.5404  150.6886 LP  0  0  0  0  0  0  0  0  0  0  0  0  # atno 17343 bound_to 10162
  156.3229  130.7290  151.2205 LP  0  0  0  0  0  0  0  0  0  0  0  0  # atno 17370 bound_to 10713
  157.7449  131.0451  150.4825 LP  0  0  0  0  0  0  0  0  0  0  0  0  # atno 17371 bound_to 10713
  141.1029  133.9740  157.3048 LP  0  0  0  0  0  0  0  0  0  0  0  0  # atno 17394 bound_to 11000
  139.9341  135.0198  156.8498 LP  0  0  0  0  0  0  0  0  0  0  0  0  # atno 17395 bound_to 11000

$$$$
