AV-unprocessed.smi:2795|AV-procd|sdf|10779|dock9
  -GOLD-   2272015213D 1   1.00000     0.00000
 Structure written by MMmdl.
 37 38  0  0  0  0  0  0  0  0  2 V2000
  146.7653  141.9500  154.0123 C   0  0  0  0  0  0  0  0  0  0  0  0
  147.5974  140.7510  153.8770 N   0  0  0  0  0  0  0  0  0  0  0  0
  147.1938  139.6960  153.1583 C   0  0  0  0  0  0  0  0  0  0  0  0
  148.1619  138.7806  153.2344 N   0  3  0  0  0  0  0  0  0  0  0  0
  149.1894  139.2482  154.0060 C   0  0  0  0  0  0  0  0  0  0  0  0
  148.8416  140.5106  154.4202 C   0  0  0  0  0  0  0  0  0  0  0  0
  149.5991  141.4958  155.2592 C   0  0  0  0  0  0  0  0  0  0  0  0
  150.8063  140.8656  155.9839 C   0  0  0  0  0  0  0  0  0  0  0  0
  151.2506  141.6609  157.1263 N   0  0  0  0  0  0  0  0  0  0  0  0
  152.2095  141.3110  158.0000 C   0  0  0  0  0  0  0  0  0  0  0  0
  152.7828  140.2215  157.9629 O   0  0  0  0  0  0  0  0  0  0  0  0
  152.5867  142.3563  159.0600 C   0  0  1  0  0  0  0  0  0  0  0  0
  151.8360  143.6939  158.8635 C   0  0  0  0  0  0  0  0  0  0  0  0
  152.1679  144.6749  159.9932 C   0  0  0  0  0  0  0  0  0  0  0  0
  151.9217  144.0074  161.3495 C   0  0  0  0  0  0  0  0  0  0  0  0
  152.6724  142.6697  161.4263 C   0  0  0  0  0  0  0  0  0  0  0  0
  152.2717  141.8286  160.3500 O   0  0  0  0  0  0  0  0  0  0  0  0
  146.0192  141.9789  153.2168 H   0  0  0  0  0  0  0  0  0  0  0  0
  147.3892  142.8406  153.9432 H   0  0  0  0  0  0  0  0  0  0  0  0
  146.2660  141.9284  154.9811 H   0  0  0  0  0  0  0  0  0  0  0  0
  146.2676  139.6010  152.6203 H   0  0  0  0  0  0  0  0  0  0  0  0
  150.0799  138.6659  154.1926 H   0  0  0  0  0  0  0  0  0  0  0  0
  149.9275  142.3315  154.6411 H   0  0  0  0  0  0  0  0  0  0  0  0
  148.9151  141.9185  155.9955 H   0  0  0  0  0  0  0  0  0  0  0  0
  150.5344  139.8746  156.3475 H   0  0  0  0  0  0  0  0  0  0  0  0
  151.6272  140.7135  155.2811 H   0  0  0  0  0  0  0  0  0  0  0  0
  150.8268  142.5707  157.2392 H   0  0  0  0  0  0  0  0  0  0  0  0
  153.6637  142.5206  158.9928 H   0  0  0  0  0  0  0  0  0  0  0  0
  152.0972  144.1438  157.9047 H   0  0  0  0  0  0  0  0  0  0  0  0
  150.7592  143.5167  158.8433 H   0  0  0  0  0  0  0  0  0  0  0  0
  153.2123  144.9804  159.9187 H   0  0  0  0  0  0  0  0  0  0  0  0
  151.5683  145.5809  159.8994 H   0  0  0  0  0  0  0  0  0  0  0  0
  152.2396  144.6668  162.1576 H   0  0  0  0  0  0  0  0  0  0  0  0
  150.8535  143.8344  161.4864 H   0  0  0  0  0  0  0  0  0  0  0  0
  153.7519  142.8256  161.3975 H   0  0  0  0  0  0  0  0  0  0  0  0
  152.4481  142.1670  162.3673 H   0  0  0  0  0  0  0  0  0  0  0  0
  148.1379  137.8751  152.7826 H   0  0  0  0  0  0  0  0  0  0  0  0
  1  2  1  0  0  0  0
  1 18  1  0  0  0  0
  1 19  1  0  0  0  0
  1 20  1  0  0  0  0
  2  6  1  0  0  0  0
  2  3  1  0  0  0  0
  3  4  2  0  0  0  0
  3 21  1  0  0  0  0
  4  5  1  0  0  0  0
  4 37  1  0  0  0  0
  5  6  2  0  0  0  0
  5 22  1  0  0  0  0
  6  7  1  0  0  0  0
  7  8  1  0  0  0  0
  7 23  1  0  0  0  0
  7 24  1  0  0  0  0
  8  9  1  0  0  0  0
  8 25  1  0  0  0  0
  8 26  1  0  0  0  0
  9 10  1  0  0  0  0
  9 27  1  0  0  0  0
 10 11  2  0  0  0  0
 10 12  1  0  0  0  0
 12 17  1  0  0  0  0
 12 13  1  0  0  0  0
 12 28  1  0  0  0  0
 13 14  1  0  0  0  0
 13 29  1  0  0  0  0
 13 30  1  0  0  0  0
 14 15  1  0  0  0  0
 14 31  1  0  0  0  0
 14 32  1  0  0  0  0
 15 16  1  0  0  0  0
 15 33  1  0  0  0  0
 15 34  1  0  0  0  0
 16 17  1  0  0  0  0
 16 35  1  0  0  0  0
 16 36  1  0  0  0  0
M  CHG  1   4   1
M  END
> <s_m_source_file>
AV-unprocessed.smi

> <i_m_source_file_index>
2795

> <i_lp_mmshare_version>
43012

> <i_f3d_flags>
0

> <s_epik_input>
W0NIM11uMVtjSF1uW2NIXWMxW0NIMl1bQ0gyXVtOSF1DKD1PKVtDQEBIXTJbQ0gyXVtDSDJdW0NIMl1bQ0gyXU8y

> <s_epik_cmdline>
J2VwaWtfcHl0aG9uJywgJy1waCcsICc3LjAnLCAnLXRuJywgJzgnLCAnLW1hJywgJzIwMCcsICctbWV0YWxfYmluZGluZycsICctaW1hZScsICc8aW5maWxlLm1hZT4nLCAnLW9tYWUnLCAnPG91dGZpbGUubWFlPic=

> <r_lp_tautomer_probability>
1

> <r_epik_Ionization_Penalty>
0.154825

> <r_epik_Ionization_Penalty_Charging>
0

> <r_epik_Ionization_Penalty_Neutral>
0.154825

> <r_epik_State_Penalty>
0.144119

> <r_epik_Charging_Adjusted_Penalty>
0.144119

> <i_epik_Tot_Q>
1

> <i_epik_Tot_abs_Q>
1

> <r_epik_Metal_State_Penalty>
0.465431

> <b_epik_Metal_Only>
0

> <s_lp_Force_Field>
OPLS_2005

> <r_lp_Energy>
10.0187

> <b_lp_Chiralities_Consistent>
1

> <s_lp_Variant>
AV-unprocessed.smi:2795-2

> <Gold.Version>
5.8.1

> <Gold.Id.Protein>
6NUR|6NUR_protein|mol2

> <Gold.PLP.Fitness>
51.2973

> <Gold.PLP.PLP>
-42.1038

> <Gold.PLP.part.hbond>
-3.0000

> <Gold.PLP.part.metal>
0.0000

> <Gold.PLP.part.buried>
-3.4580

> <Gold.PLP.part.nonpolar>
-35.7494

> <Gold.PLP.part.repulsive>
0.1267

> <Gold.PLP.ligand.clash>
0.4549

> <Gold.PLP.ligand.torsion>
0.2928

> <Gold.PLP.Chemscore.Hbond>
2.9357

> <Gold.PLP.Chemscore.CHOScore>
0.4716

> <Gold.PLP.Chemscore.Metal>
0.0000

> <Gold.Chemscore.Hbonds>
donor molecule, donor type, donor heavy atom, donor atom, acceptor molecule, acceptor atom, score
      L1  H     4    37       P1  7948  1.98
      P1  H  7997  8010       L1    11  0.98
      L1  C     3    21       P1 10175  0.51

> <Gold.PLP.Chemscore.Internal.Correction>
0.0120

> <Gold.Rescore>
     Score         DG    S(hbond)    S(metal)    S(lipo)     H(rot)  DE(clash)    DE(int)     intcor
     17.57     -17.89       1.84        0.00      93.50       1.82       0.08       0.24       ----

> <Gold.Chemscore.Fitness>
17.5714

> <Gold.Chemscore.DG>
-17.8906

> <Gold.Chemscore.ZeroCoef>
-5.4800

> <Gold.Chemscore.Hbond>
1.8375

> <Gold.Chemscore.Metal>
0.0000

> <Gold.Chemscore.Lipo>
93.5009

> <Gold.Chemscore.Internal_Hbond>
0.0000

> <Gold.Chemscore.DEClash>
0.0769

> <Gold.Chemscore.DEInternal>
0.2423

> <Gold.Chemscore.Rot>
1.8227

> <Gold.Chemscore.Internal.Correction>
   9.000000E+99

> <Gold.Chemscore.Hbonds>
donor molecule, donor type, donor heavy atom, donor atom, acceptor molecule, acceptor atom, score
      L1  H     4    37       P1  7948  0.90
      P1  H  7997  8010       L1    11  0.84

> <Gold.Chemscore.Hbond.Weighted>
-6.1372

> <Gold.Chemscore.Metal.Weighted>
-0.0000

> <Gold.Chemscore.Lipo.Weighted>
-10.9396

> <Gold.Chemscore.Internal_Hbond.Weighted>
0.0000

> <Gold.Chemscore.DEClash.Weighted>
0.0769

> <Gold.Chemscore.DEInternal.Weighted>
0.2423

> <Gold.Chemscore.Rot.Weighted>
4.6662

> <Gold.Chemscore.Internal.Correction.Weighted>
   9.000000E+99

> <Gold.Protein.RotatedTorsions>
[ 6907 6896 6895 6894 ] final  -17.61 input  -60.11 | X-H torsion
[ 7974 7965 7964 7962 ] final  -85.02 input  175.53 | X-H torsion
[ 8008 7997 7996 7995 ] final   48.61 input   59.86 | X-H torsion
[ 10167 10162 10161 10158 ] final  134.76 input  -65.29 | X-H torsion
[ 10718 10713 10712 10709 ] final  -73.38 input   66.30 | X-H torsion
[ 10763 10752 10751 10750 ] final -176.49 input  -60.55 | X-H torsion
[ 11005 11000 10999 10996 ] final   20.22 input  -57.11 | X-H torsion

> <Gold.Protein.ActiveResidues>
 VAL166  LYS551  ARG553  GLY616  TRP617  ASP618  TYR619  PRO620  LYS621  CYS622 
 ASP623  PHE694  ASN695  SER759  ASP760  ASP761  ALA762  ILE779  LEU786  VAL792 
 PHE793  MET794  SER795  GLU796  ALA797  LYS798  CYS799  TRP800  GLU811  SER814 

> <Gold.Protein.RotatedAtoms>
  151.2907  135.0741  159.9202 H   0  0  0  0  0  0  0  0  0  0  0  0  # atno 6907 bound_to 6896
  152.5317  133.9935  159.7872 H   0  0  0  0  0  0  0  0  0  0  0  0  # atno 6908 bound_to 6896
  151.0204  133.5831  159.2702 H   0  0  0  0  0  0  0  0  0  0  0  0  # atno 6909 bound_to 6896
  145.4989  140.9548  143.1771 H   0  0  0  0  0  0  0  0  0  0  0  0  # atno 7974 bound_to 7965
  155.3885  140.3432  155.4250 H   0  0  0  0  0  0  0  0  0  0  0  0  # atno 8008 bound_to 7997
  156.1571  140.1589  156.8708 H   0  0  0  0  0  0  0  0  0  0  0  0  # atno 8009 bound_to 7997
  154.5105  140.0791  156.7961 H   0  0  0  0  0  0  0  0  0  0  0  0  # atno 8010 bound_to 7997
  139.5243  144.6551  151.5185 H   0  0  0  0  0  0  0  0  0  0  0  0  # atno 10167 bound_to 10162
  156.0282  130.4393  150.2733 H   0  0  0  0  0  0  0  0  0  0  0  0  # atno 10718 bound_to 10713
  154.5718  135.2828  155.0820 H   0  0  0  0  0  0  0  0  0  0  0  0  # atno 10763 bound_to 10752
  154.2190  135.6394  153.5142 H   0  0  0  0  0  0  0  0  0  0  0  0  # atno 10764 bound_to 10752
  153.0060  135.5510  154.6343 H   0  0  0  0  0  0  0  0  0  0  0  0  # atno 10765 bound_to 10752
  140.4051  134.1678  155.7665 H   0  0  0  0  0  0  0  0  0  0  0  0  # atno 11005 bound_to 11000
  144.7791  139.6564  143.7162 LP  0  0  0  0  0  0  0  0  0  0  0  0  # atno 17320 bound_to 7965
  146.2238  139.5685  142.9600 LP  0  0  0  0  0  0  0  0  0  0  0  0  # atno 17321 bound_to 7965
  140.6373  143.8958  150.6659 LP  0  0  0  0  0  0  0  0  0  0  0  0  # atno 17342 bound_to 10162
  140.2281  143.3756  152.1588 LP  0  0  0  0  0  0  0  0  0  0  0  0  # atno 17343 bound_to 10162
  157.0836  131.0150  151.3147 LP  0  0  0  0  0  0  0  0  0  0  0  0  # atno 17370 bound_to 10713
  157.4908  130.7821  149.7506 LP  0  0  0  0  0  0  0  0  0  0  0  0  # atno 17371 bound_to 10713
  141.1842  133.8348  157.1147 LP  0  0  0  0  0  0  0  0  0  0  0  0  # atno 17394 bound_to 11000
  140.0308  134.9902  157.0777 LP  0  0  0  0  0  0  0  0  0  0  0  0  # atno 17395 bound_to 11000

$$$$
