AV-unprocessed.smi:2858|AV-procd|sdf|11000|dock8
  -GOLD-   2272015453D 1   1.00000     0.00000
 Structure written by MMmdl.
 40 41  0  0  0  0  0  0  0  0  2 V2000
  152.2311  137.3578  154.6313 O   0  0  0  0  0  0  0  0  0  0  0  0
  151.6348  138.4247  154.7520 C   0  0  0  0  0  0  0  0  0  0  0  0
  150.3073  138.6406  154.0092 C   0  0  0  0  0  0  0  0  0  0  0  0
  149.8854  140.0631  153.9289 N   0  3  1  0  0  0  0  0  0  0  0  0
  148.5491  140.2162  153.3015 C   0  0  0  0  0  0  0  0  0  0  0  0
  147.4840  139.3274  153.9652 C   0  0  0  0  0  0  0  0  0  0  0  0
  146.4089  138.8624  152.9687 C   0  0  0  0  0  0  0  0  0  0  0  0
  146.6976  137.5319  152.4448 N   0  0  0  0  0  0  0  0  0  0  0  0
  145.7706  136.6117  152.1399 C   0  0  0  0  0  0  0  0  0  0  0  0
  144.5609  136.8054  152.2648 O   0  0  0  0  0  0  0  0  0  0  0  0
  146.3358  135.4792  151.6854 N   0  0  0  0  0  0  0  0  0  0  0  0
  145.6910  134.2887  151.2552 C   0  0  0  0  0  0  0  0  0  0  0  0
  146.5587  133.2580  150.8279 C   0  0  0  0  0  0  0  0  0  0  0  0
  146.0168  132.0372  150.3807 C   0  0  0  0  0  0  0  0  0  0  0  0
  144.6198  131.8777  150.3743 C   0  0  0  0  0  0  0  0  0  0  0  0
  143.8275  132.9531  150.8162 C   0  0  0  0  0  0  0  0  0  0  0  0
  144.3443  134.1245  151.2436 N   0  0  0  0  0  0  0  0  0  0  0  0
  150.0100  140.7483  155.2382 C   0  0  0  0  0  0  0  0  0  0  0  0
  151.4721  140.7169  155.7169 C   0  0  0  0  0  0  0  0  0  0  0  0
  152.1088  139.4163  155.5238 N   0  0  0  0  0  0  0  0  0  0  0  0
  150.3976  138.2322  153.0017 H   0  0  0  0  0  0  0  0  0  0  0  0
  149.5371  138.0621  154.5218 H   0  0  0  0  0  0  0  0  0  0  0  0
  148.2286  141.2547  153.3973 H   0  0  0  0  0  0  0  0  0  0  0  0
  148.6160  140.0112  152.2318 H   0  0  0  0  0  0  0  0  0  0  0  0
  147.9546  138.4536  154.4145 H   0  0  0  0  0  0  0  0  0  0  0  0
  147.0091  139.8748  154.7807 H   0  0  0  0  0  0  0  0  0  0  0  0
  145.4352  138.8301  153.4583 H   0  0  0  0  0  0  0  0  0  0  0  0
  146.3187  139.5721  152.1444 H   0  0  0  0  0  0  0  0  0  0  0  0
  147.6698  137.2927  152.3140 H   0  0  0  0  0  0  0  0  0  0  0  0
  147.3439  135.4667  151.6392 H   0  0  0  0  0  0  0  0  0  0  0  0
  147.6300  133.3969  150.8402 H   0  0  0  0  0  0  0  0  0  0  0  0
  146.6627  131.2375  150.0496 H   0  0  0  0  0  0  0  0  0  0  0  0
  144.1671  130.9560  150.0399 H   0  0  0  0  0  0  0  0  0  0  0  0
  142.7507  132.8716  150.8275 H   0  0  0  0  0  0  0  0  0  0  0  0
  149.6760  141.7836  155.1797 H   0  0  0  0  0  0  0  0  0  0  0  0
  149.3659  140.2502  155.9649 H   0  0  0  0  0  0  0  0  0  0  0  0
  152.0544  141.4534  155.1620 H   0  0  0  0  0  0  0  0  0  0  0  0
  151.5333  140.9974  156.7686 H   0  0  0  0  0  0  0  0  0  0  0  0
  152.9806  139.2587  156.0094 H   0  0  0  0  0  0  0  0  0  0  0  0
  150.5452  140.5106  153.3088 H   0  0  0  0  0  0  0  0  0  0  0  0
  1  2  2  0  0  0  0
  2 20  1  0  0  0  0
  2  3  1  0  0  0  0
  3  4  1  0  0  0  0
  3 21  1  0  0  0  0
  3 22  1  0  0  0  0
  4  5  1  0  0  0  0
  4 18  1  0  0  0  0
  4 40  1  0  0  0  0
  5  6  1  0  0  0  0
  5 23  1  0  0  0  0
  5 24  1  0  0  0  0
  6  7  1  0  0  0  0
  6 25  1  0  0  0  0
  6 26  1  0  0  0  0
  7  8  1  0  0  0  0
  7 27  1  0  0  0  0
  7 28  1  0  0  0  0
  8  9  1  0  0  0  0
  8 29  1  0  0  0  0
  9 10  2  0  0  0  0
  9 11  1  0  0  0  0
 11 12  1  0  0  0  0
 11 30  1  0  0  0  0
 12 17  1  0  0  0  0
 12 13  2  0  0  0  0
 13 14  1  0  0  0  0
 13 31  1  0  0  0  0
 14 15  2  0  0  0  0
 14 32  1  0  0  0  0
 15 16  1  0  0  0  0
 15 33  1  0  0  0  0
 16 17  2  0  0  0  0
 16 34  1  0  0  0  0
 18 19  1  0  0  0  0
 18 35  1  0  0  0  0
 18 36  1  0  0  0  0
 19 20  1  0  0  0  0
 19 37  1  0  0  0  0
 19 38  1  0  0  0  0
 20 39  1  0  0  0  0
M  CHG  1   4   1
M  END
> <s_m_source_file>
AV-unprocessed.smi

> <i_m_source_file_index>
2858

> <i_lp_mmshare_version>
43012

> <i_f3d_flags>
0

> <s_epik_input>
Tz1DMVtDSDJdTihbQ0gyXVtDSDJdW05IXTEpW0NIMl1bQ0gyXVtDSDJdW05IXUMoPU8pW05IXWMyW2NIXVtjSF1bY0hdW2NIXW4y

> <s_epik_cmdline>
J2VwaWtfcHl0aG9uJywgJy1waCcsICc3LjAnLCAnLXRuJywgJzgnLCAnLW1hJywgJzIwMCcsICctbWV0YWxfYmluZGluZycsICctaW1hZScsICc8aW5maWxlLm1hZT4nLCAnLW9tYWUnLCAnPG91dGZpbGUubWFlPic=

> <r_epik_Ionization_Penalty>
0.11034

> <r_epik_Ionization_Penalty_Charging>
0.110189

> <r_epik_Ionization_Penalty_Neutral>
0.000150894

> <r_epik_State_Penalty>
0.0999426

> <r_epik_Charging_Adjusted_Penalty>
0.210132

> <i_epik_Tot_Q>
1

> <i_epik_Tot_abs_Q>
1

> <r_epik_Metal_State_Penalty>
0.172915

> <b_epik_Metal_Only>
0

> <s_lp_Force_Field>
OPLS_2005

> <r_lp_Energy>
20.0709

> <b_lp_Chiralities_Consistent>
1

> <s_lp_Variant>
AV-unprocessed.smi:2858-2

> <Gold.Version>
5.8.1

> <Gold.Id.Protein>
6NUR|6NUR_protein|mol2

> <Gold.PLP.Fitness>
44.8109

> <Gold.PLP.PLP>
-34.7199

> <Gold.PLP.part.hbond>
-4.0000

> <Gold.PLP.part.metal>
0.0000

> <Gold.PLP.part.buried>
-2.9863

> <Gold.PLP.part.nonpolar>
-30.4601

> <Gold.PLP.part.repulsive>
2.0897

> <Gold.PLP.ligand.clash>
0.0000

> <Gold.PLP.ligand.torsion>
0.7035

> <Gold.PLP.Chemscore.Hbond>
2.8320

> <Gold.PLP.Chemscore.CHOScore>
0.9886

> <Gold.PLP.Chemscore.Metal>
0.0000

> <Gold.Chemscore.Hbonds>
donor molecule, donor type, donor heavy atom, donor atom, acceptor molecule, acceptor atom, score
      L1  H     4    40       P1  7957  0.01
      L1  H     8    29       P1  7948  1.00
      L1  H    11    30       P1  7948  1.00
      P1  H 10752 10765       L1     1  0.78
      L1  C    16    34       P1 10186  0.66

> <Gold.PLP.Chemscore.Internal.Correction>
0.0363

> <Gold.Rescore>
     Score         DG    S(hbond)    S(metal)    S(lipo)     H(rot)  DE(clash)    DE(int)     intcor
     15.84     -18.05       2.83        0.00      72.04       2.08       0.24       1.98       ----

> <Gold.Chemscore.Fitness>
15.8370

> <Gold.Chemscore.DG>
-18.0525

> <Gold.Chemscore.ZeroCoef>
-5.4800

> <Gold.Chemscore.Hbond>
2.8331

> <Gold.Chemscore.Metal>
0.0000

> <Gold.Chemscore.Lipo>
72.0414

> <Gold.Chemscore.Internal_Hbond>
0.0000

> <Gold.Chemscore.DEClash>
0.2377

> <Gold.Chemscore.DEInternal>
1.9778

> <Gold.Chemscore.Rot>
2.0777

> <Gold.Chemscore.Internal.Correction>
   9.000000E+99

> <Gold.Chemscore.Hbonds>
donor molecule, donor type, donor heavy atom, donor atom, acceptor molecule, acceptor atom, score
      L1  H     4    40       P1  7957  0.01
      L1  H     8    29       P1  7948  0.98
      L1  H    11    30       P1  7948  0.95
      P1  H 10752 10765       L1     1  0.78

> <Gold.Chemscore.Hbond.Weighted>
-9.4625

> <Gold.Chemscore.Metal.Weighted>
-0.0000

> <Gold.Chemscore.Lipo.Weighted>
-8.4288

> <Gold.Chemscore.Internal_Hbond.Weighted>
0.0000

> <Gold.Chemscore.DEClash.Weighted>
0.2377

> <Gold.Chemscore.DEInternal.Weighted>
1.9778

> <Gold.Chemscore.Rot.Weighted>
5.3188

> <Gold.Chemscore.Internal.Correction.Weighted>
   9.000000E+99

> <Gold.Protein.RotatedTorsions>
[ 6907 6896 6895 6894 ] final   70.77 input  -60.11 | X-H torsion
[ 7974 7965 7964 7962 ] final  -39.70 input  175.53 | X-H torsion
[ 8008 7997 7996 7995 ] final   58.40 input   59.86 | X-H torsion
[ 10167 10162 10161 10158 ] final   75.85 input  -65.29 | X-H torsion
[ 10718 10713 10712 10709 ] final   22.16 input   66.30 | X-H torsion
[ 10763 10752 10751 10750 ] final  165.07 input  -60.55 | X-H torsion
[ 11005 11000 10999 10996 ] final   36.58 input  -57.11 | X-H torsion

> <Gold.Protein.ActiveResidues>
 VAL166  LYS551  ARG553  GLY616  TRP617  ASP618  TYR619  PRO620  LYS621  CYS622 
 ASP623  PHE694  ASN695  SER759  ASP760  ASP761  ALA762  ILE779  LEU786  VAL792 
 PHE793  MET794  SER795  GLU796  ALA797  LYS798  CYS799  TRP800  GLU811  SER814 

> <Gold.Protein.RotatedAtoms>
  152.4770  134.4819  159.9667 H   0  0  0  0  0  0  0  0  0  0  0  0  # atno 6907 bound_to 6896
  151.4833  133.3535  159.2849 H   0  0  0  0  0  0  0  0  0  0  0  0  # atno 6908 bound_to 6896
  150.8815  134.8233  159.7289 H   0  0  0  0  0  0  0  0  0  0  0  0  # atno 6909 bound_to 6896
  146.0372  140.6656  142.9104 H   0  0  0  0  0  0  0  0  0  0  0  0  # atno 7974 bound_to 7965
  155.5494  140.3486  155.4465 H   0  0  0  0  0  0  0  0  0  0  0  0  # atno 8008 bound_to 7997
  156.0594  140.1336  156.9985 H   0  0  0  0  0  0  0  0  0  0  0  0  # atno 8009 bound_to 7997
  154.4472  140.0988  156.6479 H   0  0  0  0  0  0  0  0  0  0  0  0  # atno 8010 bound_to 7997
  139.9985  144.5704  150.7757 H   0  0  0  0  0  0  0  0  0  0  0  0  # atno 10167 bound_to 10162
  157.1484  130.6663  149.6004 H   0  0  0  0  0  0  0  0  0  0  0  0  # atno 10718 bound_to 10713
  154.3185  135.2756  155.2531 H   0  0  0  0  0  0  0  0  0  0  0  0  # atno 10763 bound_to 10752
  154.4895  135.5837  153.6452 H   0  0  0  0  0  0  0  0  0  0  0  0  # atno 10764 bound_to 10752
  152.9879  135.6131  154.3368 H   0  0  0  0  0  0  0  0  0  0  0  0  # atno 10765 bound_to 10752
  140.2312  134.3525  155.7963 H   0  0  0  0  0  0  0  0  0  0  0  0  # atno 11005 bound_to 11000
  144.7057  140.3842  143.7120 LP  0  0  0  0  0  0  0  0  0  0  0  0  # atno 17320 bound_to 7965
  145.6944  139.1646  143.2628 LP  0  0  0  0  0  0  0  0  0  0  0  0  # atno 17321 bound_to 7965
  140.7428  143.2837  151.3525 LP  0  0  0  0  0  0  0  0  0  0  0  0  # atno 17342 bound_to 10162
  139.6289  144.0760  152.2458 LP  0  0  0  0  0  0  0  0  0  0  0  0  # atno 17343 bound_to 10162
  155.9775  130.4753  150.6597 LP  0  0  0  0  0  0  0  0  0  0  0  0  # atno 17370 bound_to 10713
  157.4243  131.0841  151.1101 LP  0  0  0  0  0  0  0  0  0  0  0  0  # atno 17371 bound_to 10713
  141.2217  133.7246  156.8734 LP  0  0  0  0  0  0  0  0  0  0  0  0  # atno 17394 bound_to 11000
  140.1749  134.9074  157.2878 LP  0  0  0  0  0  0  0  0  0  0  0  0  # atno 17395 bound_to 11000

$$$$
