AV-unprocessed.smi:274|AV-procd|sdf|2061|dock2
  -GOLD-   2262021303D 1   1.00000     0.00000
 Structure written by MMmdl.
 50 53  0  0  0  0  0  0  0  0  1 V2000
  146.4748  139.6176  156.3529 C   0  0  0  0  0  0  0  0  0  0  0  0
  147.7218  138.7204  156.4920 C   0  0  0  0  0  0  0  0  0  0  0  0
  148.9128  139.5902  156.9426 C   0  0  0  0  0  0  0  0  0  0  0  0
  148.0039  137.9045  155.1911 C   0  0  1  0  0  0  0  0  0  0  0  0
  148.3136  138.8091  153.9708 C   0  0  0  0  0  0  0  0  0  0  0  0
  147.4009  139.4024  153.4000 O   0  0  0  0  0  0  0  0  0  0  0  0
  149.5816  138.9065  153.5310 N   0  0  0  0  0  0  0  0  0  0  0  0
  150.7377  138.1858  154.0645 C   0  0  0  0  0  0  0  0  0  0  0  0
  150.4556  137.4938  155.4096 C   0  0  0  0  0  0  0  0  0  0  0  0
  149.1000  136.9505  155.4293 N   0  0  0  0  0  0  0  0  0  0  0  0
  148.9887  135.6854  154.9492 C   0  0  0  0  0  0  0  0  0  0  0  0
  150.0417  134.8286  155.0257 N   0  0  0  0  0  0  0  0  0  0  0  0
  149.9272  133.5783  154.5685 C   0  0  0  0  0  0  0  0  0  0  0  0
  148.8698  132.9887  154.0070 N   0  0  0  0  0  0  0  0  0  0  0  0
  147.8121  133.8455  153.9228 C   0  0  0  0  0  0  0  0  0  0  0  0
  147.7856  135.1966  154.3694 C   0  0  0  0  0  0  0  0  0  0  0  0
  146.5383  135.7555  154.1179 N   0  0  0  0  0  0  0  0  0  0  0  0
  145.8645  134.7886  153.5575 C   0  0  0  0  0  0  0  0  0  0  0  0
  146.5551  133.6085  153.3942 N   0  0  0  0  0  0  0  0  0  0  0  0
  146.0548  132.3799  152.7975 C   0  0  0  0  0  0  0  0  0  0  0  0
  145.7799  132.4996  151.2801 C   0  0  2  0  0  0  0  0  0  0  0  0
  146.9987  132.7665  150.6082 O   0  0  0  0  0  0  0  0  0  0  0  0
  144.7760  133.5886  150.9113 C   0  0  0  0  0  0  0  0  0  0  0  0
  144.0886  133.0141  149.6805 C   0  0  0  0  0  0  0  0  0  0  0  0
  143.9636  131.6419  150.0115 O   0  0  0  0  0  0  0  0  0  0  0  0
  145.1553  131.2276  150.6721 C   0  0  0  0  0  0  0  0  0  0  0  0
  146.5830  140.3168  155.5231 H   0  0  0  0  0  0  0  0  0  0  0  0
  146.3073  140.2025  157.2579 H   0  0  0  0  0  0  0  0  0  0  0  0
  145.5680  139.0366  156.1832 H   0  0  0  0  0  0  0  0  0  0  0  0
  147.5217  138.0209  157.3044 H   0  0  0  0  0  0  0  0  0  0  0  0
  149.2333  140.2640  156.1474 H   0  0  0  0  0  0  0  0  0  0  0  0
  149.7707  138.9893  157.2419 H   0  0  0  0  0  0  0  0  0  0  0  0
  148.6484  140.2015  157.8059 H   0  0  0  0  0  0  0  0  0  0  0  0
  147.0878  137.3575  154.9608 H   0  0  0  0  0  0  0  0  0  0  0  0
  149.7513  139.5028  152.7341 H   0  0  0  0  0  0  0  0  0  0  0  0
  151.0144  137.4342  153.3242 H   0  0  0  0  0  0  0  0  0  0  0  0
  151.5861  138.8642  154.1538 H   0  0  0  0  0  0  0  0  0  0  0  0
  151.2126  136.7336  155.6047 H   0  0  0  0  0  0  0  0  0  0  0  0
  150.5490  138.2164  156.2202 H   0  0  0  0  0  0  0  0  0  0  0  0
  150.8085  132.9619  154.6673 H   0  0  0  0  0  0  0  0  0  0  0  0
  144.8394  134.9132  153.2407 H   0  0  0  0  0  0  0  0  0  0  0  0
  146.7749  131.5832  152.9899 H   0  0  0  0  0  0  0  0  0  0  0  0
  145.1409  132.0976  153.3221 H   0  0  0  0  0  0  0  0  0  0  0  0
  147.4677  131.9530  150.5029 H   0  0  0  0  0  0  0  0  0  0  0  0
  144.0344  133.7023  151.7031 H   0  0  0  0  0  0  0  0  0  0  0  0
  145.2280  134.5659  150.7370 H   0  0  0  0  0  0  0  0  0  0  0  0
  143.1191  133.4721  149.4840 H   0  0  0  0  0  0  0  0  0  0  0  0
  144.7127  133.1251  148.7924 H   0  0  0  0  0  0  0  0  0  0  0  0
  145.8210  130.7449  149.9546 H   0  0  0  0  0  0  0  0  0  0  0  0
  144.9020  130.4859  151.4303 H   0  0  0  0  0  0  0  0  0  0  0  0
  1  2  1  0  0  0  0
  1 27  1  0  0  0  0
  1 28  1  0  0  0  0
  1 29  1  0  0  0  0
  2  3  1  0  0  0  0
  2  4  1  0  0  0  0
  2 30  1  0  0  0  0
  3 31  1  0  0  0  0
  3 32  1  0  0  0  0
  3 33  1  0  0  0  0
  4 10  1  0  0  0  0
  4  5  1  0  0  0  0
  4 34  1  0  0  0  0
  5  6  2  0  0  0  0
  5  7  1  0  0  0  0
  7  8  1  0  0  0  0
  7 35  1  0  0  0  0
  8  9  1  0  0  0  0
  8 36  1  0  0  0  0
  8 37  1  0  0  0  0
  9 10  1  0  0  0  0
  9 38  1  0  0  0  0
  9 39  1  0  0  0  0
 10 11  1  0  0  0  0
 11 16  1  0  0  0  0
 11 12  2  0  0  0  0
 12 13  1  0  0  0  0
 13 14  2  0  0  0  0
 13 40  1  0  0  0  0
 14 15  1  0  0  0  0
 15 19  1  0  0  0  0
 15 16  2  0  0  0  0
 16 17  1  0  0  0  0
 17 18  2  0  0  0  0
 18 19  1  0  0  0  0
 18 41  1  0  0  0  0
 19 20  1  0  0  0  0
 20 21  1  0  0  0  0
 20 42  1  0  0  0  0
 20 43  1  0  0  0  0
 21 26  1  0  0  0  0
 21 22  1  0  0  0  0
 21 23  1  0  0  0  0
 22 44  1  0  0  0  0
 23 24  1  0  0  0  0
 23 45  1  0  0  0  0
 23 46  1  0  0  0  0
 24 25  1  0  0  0  0
 24 47  1  0  0  0  0
 24 48  1  0  0  0  0
 25 26  1  0  0  0  0
 26 49  1  0  0  0  0
 26 50  1  0  0  0  0
M  END
> <s_m_source_file>
AV-unprocessed.smi

> <i_m_source_file_index>
274

> <i_lp_mmshare_version>
43012

> <i_f3d_flags>
0

> <s_epik_input>
W0NIM11bQ0hdKFtDSDNdKVtDQEBIXTFDKD1PKVtOSF1bQ0gyXVtDSDJdTjFjKG5bY0hdbjIpYyhjMjMpbltjSF1uM1tDSDJdW0NAQF00KFtPSF0pW0NIMl1bQ0gyXU9bQ0gyXTQ=

> <s_epik_cmdline>
J2VwaWtfcHl0aG9uJywgJy1waCcsICc3LjAnLCAnLXRuJywgJzgnLCAnLW1hJywgJzIwMCcsICctbWV0YWxfYmluZGluZycsICctaW1hZScsICc8aW5maWxlLm1hZT4nLCAnLW9tYWUnLCAnPG91dGZpbGUubWFlPic=

> <r_lp_tautomer_probability>
1

> <r_epik_Ionization_Penalty>
0.000690079

> <r_epik_Ionization_Penalty_Charging>
0

> <r_epik_Ionization_Penalty_Neutral>
0.000690079

> <r_epik_State_Penalty>
0.000321372

> <r_epik_Charging_Adjusted_Penalty>
0.000321372

> <i_epik_Tot_Q>
0

> <i_epik_Tot_abs_Q>
0

> <r_epik_Metal_State_Penalty>
-0

> <b_epik_Metal_Only>
0

> <s_lp_Force_Field>
OPLS_2005

> <r_lp_Energy>
41.7848

> <b_lp_Chiralities_Consistent>
1

> <s_lp_Variant>
AV-unprocessed.smi:274-4

> <Gold.Version>
5.8.1

> <Gold.Id.Protein>
6NUR|6NUR_protein|mol2

> <Gold.PLP.Fitness>
38.1459

> <Gold.PLP.PLP>
-30.0982

> <Gold.PLP.part.hbond>
-3.6958

> <Gold.PLP.part.metal>
0.0000

> <Gold.PLP.part.buried>
-6.5097

> <Gold.PLP.part.nonpolar>
-21.2141

> <Gold.PLP.part.repulsive>
0.7800

> <Gold.PLP.ligand.clash>
0.0000

> <Gold.PLP.ligand.torsion>
0.2512

> <Gold.PLP.Chemscore.Hbond>
2.7363

> <Gold.PLP.Chemscore.CHOScore>
0.0000

> <Gold.PLP.Chemscore.Metal>
0.0000

> <Gold.Chemscore.Hbonds>
donor molecule, donor type, donor heavy atom, donor atom, acceptor molecule, acceptor atom, score
      L1  H     7    35       P1  7957  1.00
      L1  H    22    44       P1 10747  1.00
      P1  H 10785 10796       L1    25  0.62

> <Gold.PLP.Chemscore.Internal.Correction>
0.3413

> <Gold.Rescore>
     Score         DG    S(hbond)    S(metal)    S(lipo)     H(rot)  DE(clash)    DE(int)     intcor
     13.35     -15.52       2.62        0.00      57.93       2.14       0.46       1.70       ----

> <Gold.Chemscore.Fitness>
13.3492

> <Gold.Chemscore.DG>
-15.5180

> <Gold.Chemscore.ZeroCoef>
-5.4800

> <Gold.Chemscore.Hbond>
2.6186

> <Gold.Chemscore.Metal>
0.0000

> <Gold.Chemscore.Lipo>
57.9338

> <Gold.Chemscore.Internal_Hbond>
0.0000

> <Gold.Chemscore.DEClash>
0.4639

> <Gold.Chemscore.DEInternal>
1.7049

> <Gold.Chemscore.Rot>
2.1431

> <Gold.Chemscore.Internal.Correction>
   9.000000E+99

> <Gold.Chemscore.Hbonds>
donor molecule, donor type, donor heavy atom, donor atom, acceptor molecule, acceptor atom, score
      L1  H     7    35       P1  7957  0.98
      L1  H    22    44       P1 10747  0.98
      P1  H 10785 10796       L1    25  0.47

> <Gold.Chemscore.Hbond.Weighted>
-8.7460

> <Gold.Chemscore.Metal.Weighted>
-0.0000

> <Gold.Chemscore.Lipo.Weighted>
-6.7783

> <Gold.Chemscore.Internal_Hbond.Weighted>
0.0000

> <Gold.Chemscore.DEClash.Weighted>
0.4639

> <Gold.Chemscore.DEInternal.Weighted>
1.7049

> <Gold.Chemscore.Rot.Weighted>
5.4863

> <Gold.Chemscore.Internal.Correction.Weighted>
   9.000000E+99

> <Gold.Protein.RotatedTorsions>
[ 6907 6896 6895 6894 ] final  151.86 input  -60.11 | X-H torsion
[ 7974 7965 7964 7962 ] final  -86.05 input  175.53 | X-H torsion
[ 8008 7997 7996 7995 ] final   95.81 input   59.86 | X-H torsion
[ 10167 10162 10161 10158 ] final   72.37 input  -65.29 | X-H torsion
[ 10718 10713 10712 10709 ] final -152.35 input   66.30 | X-H torsion
[ 10763 10752 10751 10750 ] final  -58.69 input  -60.55 | X-H torsion
[ 11005 11000 10999 10996 ] final  105.81 input  -57.11 | X-H torsion

> <Gold.Protein.ActiveResidues>
 VAL166  LYS551  ARG553  GLY616  TRP617  ASP618  TYR619  PRO620  LYS621  CYS622 
 ASP623  PHE694  ASN695  SER759  ASP760  ASP761  ALA762  ILE779  LEU786  VAL792 
 PHE793  MET794  SER795  GLU796  ALA797  LYS798  CYS799  TRP800  GLU811  SER814 

> <Gold.Protein.RotatedAtoms>
  152.0948  133.4219  159.4559 H   0  0  0  0  0  0  0  0  0  0  0  0  # atno 6907 bound_to 6896
  150.6863  134.2830  159.4644 H   0  0  0  0  0  0  0  0  0  0  0  0  # atno 6908 bound_to 6896
  152.0685  134.9548  160.0625 H   0  0  0  0  0  0  0  0  0  0  0  0  # atno 6909 bound_to 6896
  145.4850  140.9555  143.1843 H   0  0  0  0  0  0  0  0  0  0  0  0  # atno 7974 bound_to 7965
  156.0729  140.3281  155.7598 H   0  0  0  0  0  0  0  0  0  0  0  0  # atno 8008 bound_to 7997
  155.5277  140.0590  157.2912 H   0  0  0  0  0  0  0  0  0  0  0  0  # atno 8009 bound_to 7997
  154.4539  140.1933  156.0453 H   0  0  0  0  0  0  0  0  0  0  0  0  # atno 8010 bound_to 7997
  140.0360  144.5428  150.7471 H   0  0  0  0  0  0  0  0  0  0  0  0  # atno 10167 bound_to 10162
  156.4713  130.8260  151.2489 H   0  0  0  0  0  0  0  0  0  0  0  0  # atno 10718 bound_to 10713
  154.2421  135.6341  153.5211 H   0  0  0  0  0  0  0  0  0  0  0  0  # atno 10763 bound_to 10752
  152.9928  135.5544  154.5899 H   0  0  0  0  0  0  0  0  0  0  0  0  # atno 10764 bound_to 10752
  154.5407  135.2894  155.1073 H   0  0  0  0  0  0  0  0  0  0  0  0  # atno 10765 bound_to 10752
  139.8806  134.9348  156.5571 H   0  0  0  0  0  0  0  0  0  0  0  0  # atno 11005 bound_to 11000
  144.7866  139.6413  143.7131 LP  0  0  0  0  0  0  0  0  0  0  0  0  # atno 17320 bound_to 7965
  146.2318  139.5828  142.9550 LP  0  0  0  0  0  0  0  0  0  0  0  0  # atno 17321 bound_to 7965
  140.7281  143.2658  151.4048 LP  0  0  0  0  0  0  0  0  0  0  0  0  # atno 17342 bound_to 10162
  139.6045  144.1226  152.2234 LP  0  0  0  0  0  0  0  0  0  0  0  0  # atno 17343 bound_to 10162
  157.7491  131.0075  150.3193 LP  0  0  0  0  0  0  0  0  0  0  0  0  # atno 17370 bound_to 10713
  156.3615  130.3848  149.7247 LP  0  0  0  0  0  0  0  0  0  0  0  0  # atno 17371 bound_to 10713
  140.8197  133.8364  155.8884 LP  0  0  0  0  0  0  0  0  0  0  0  0  # atno 17394 bound_to 11000
  140.9430  134.1876  157.4784 LP  0  0  0  0  0  0  0  0  0  0  0  0  # atno 17395 bound_to 11000

$$$$
