AV-unprocessed.smi:962|AV-procd|sdf|4275|dock9
  -GOLD-   22720 2183D 1   1.00000     0.00000
 Structure written by MMmdl.
 42 43  0  0  0  0  0  0  0  0  1 V2000
  157.7746  133.6951  163.6432 C   0  0  0  0  0  0  0  0  0  0  0  0
  156.3370  133.7769  163.0871 C   0  0  0  0  0  0  0  0  0  0  0  0
  156.3886  133.4417  161.5833 C   0  0  0  0  0  0  0  0  0  0  0  0
  155.4791  132.7341  163.8301 C   0  0  0  0  0  0  0  0  0  0  0  0
  155.7536  135.1617  163.2812 C   0  0  0  0  0  0  0  0  0  0  0  0
  155.5492  135.8392  164.4618 C   0  0  0  0  0  0  0  0  0  0  0  0
  154.8950  137.4324  164.2058 S   0  0  0  0  0  0  0  0  0  0  0  0
  154.9076  137.1234  162.4750 C   0  0  0  0  0  0  0  0  0  0  0  0
  154.5273  138.1477  161.4544 C   0  0  0  0  0  0  0  0  0  0  0  0
  155.3319  139.4593  161.5550 C   0  0  0  0  0  0  0  0  0  0  0  0
  154.5061  140.6376  161.2978 N   0  0  0  0  0  0  0  0  0  0  0  0
  154.0161  141.0029  160.0989 C   0  0  0  0  0  0  0  0  0  0  0  0
  154.1302  140.3109  159.0865 O   0  0  0  0  0  0  0  0  0  0  0  0
  153.3943  142.2016  160.1005 N   0  0  0  0  0  0  0  0  0  0  0  0
  153.0539  143.0110  158.9266 C   0  0  0  0  0  0  0  0  0  0  0  0
  152.0957  144.0906  159.4307 C   0  0  0  0  0  0  0  0  0  0  0  0
  152.4382  144.2328  160.9067 C   0  0  0  0  0  0  0  0  0  0  0  0
  152.8938  142.8335  161.3197 C   0  0  0  0  0  0  0  0  0  0  0  0
  155.3687  135.9114  162.1620 N   0  0  0  0  0  0  0  0  0  0  0  0
  158.1961  132.6983  163.5083 H   0  0  0  0  0  0  0  0  0  0  0  0
  157.8046  133.9168  164.7108 H   0  0  0  0  0  0  0  0  0  0  0  0
  158.4398  134.3972  163.1386 H   0  0  0  0  0  0  0  0  0  0  0  0
  156.9873  134.1714  161.0366 H   0  0  0  0  0  0  0  0  0  0  0  0
  155.3934  133.4368  161.1372 H   0  0  0  0  0  0  0  0  0  0  0  0
  156.8263  132.4583  161.4086 H   0  0  0  0  0  0  0  0  0  0  0  0
  155.8895  131.7299  163.7182 H   0  0  0  0  0  0  0  0  0  0  0  0
  154.4572  132.7092  163.4502 H   0  0  0  0  0  0  0  0  0  0  0  0
  155.4274  132.9520  164.8975 H   0  0  0  0  0  0  0  0  0  0  0  0
  155.7546  135.5070  165.4684 H   0  0  0  0  0  0  0  0  0  0  0  0
  154.6429  137.7154  160.4600 H   0  0  0  0  0  0  0  0  0  0  0  0
  153.4652  138.3640  161.5728 H   0  0  0  0  0  0  0  0  0  0  0  0
  155.7945  139.5277  162.5410 H   0  0  0  0  0  0  0  0  0  0  0  0
  156.1529  139.4444  160.8384 H   0  0  0  0  0  0  0  0  0  0  0  0
  154.3494  141.2604  162.0769 H   0  0  0  0  0  0  0  0  0  0  0  0
  153.9646  143.4620  158.5294 H   0  0  0  0  0  0  0  0  0  0  0  0
  152.5906  142.4199  158.1348 H   0  0  0  0  0  0  0  0  0  0  0  0
  152.1866  145.0283  158.8818 H   0  0  0  0  0  0  0  0  0  0  0  0
  151.0670  143.7424  159.3279 H   0  0  0  0  0  0  0  0  0  0  0  0
  153.2644  144.9356  161.0231 H   0  0  0  0  0  0  0  0  0  0  0  0
  151.6017  144.5988  161.5029 H   0  0  0  0  0  0  0  0  0  0  0  0
  152.0514  142.2531  161.6993 H   0  0  0  0  0  0  0  0  0  0  0  0
  153.6549  142.8769  162.1002 H   0  0  0  0  0  0  0  0  0  0  0  0
  1  2  1  0  0  0  0
  1 20  1  0  0  0  0
  1 21  1  0  0  0  0
  1 22  1  0  0  0  0
  2  3  1  0  0  0  0
  2  4  1  0  0  0  0
  2  5  1  0  0  0  0
  3 23  1  0  0  0  0
  3 24  1  0  0  0  0
  3 25  1  0  0  0  0
  4 26  1  0  0  0  0
  4 27  1  0  0  0  0
  4 28  1  0  0  0  0
  5 19  1  0  0  0  0
  5  6  2  0  0  0  0
  6  7  1  0  0  0  0
  6 29  1  0  0  0  0
  7  8  1  0  0  0  0
  8  9  1  0  0  0  0
  8 19  2  0  0  0  0
  9 10  1  0  0  0  0
  9 30  1  0  0  0  0
  9 31  1  0  0  0  0
 10 11  1  0  0  0  0
 10 32  1  0  0  0  0
 10 33  1  0  0  0  0
 11 12  1  0  0  0  0
 11 34  1  0  0  0  0
 12 13  2  0  0  0  0
 12 14  1  0  0  0  0
 14 18  1  0  0  0  0
 14 15  1  0  0  0  0
 15 16  1  0  0  0  0
 15 35  1  0  0  0  0
 15 36  1  0  0  0  0
 16 17  1  0  0  0  0
 16 37  1  0  0  0  0
 16 38  1  0  0  0  0
 17 18  1  0  0  0  0
 17 39  1  0  0  0  0
 17 40  1  0  0  0  0
 18 41  1  0  0  0  0
 18 42  1  0  0  0  0
M  END
> <s_m_source_file>
AV-unprocessed.smi

> <i_m_source_file_index>
962

> <i_lp_mmshare_version>
43012

> <i_f3d_flags>
0

> <s_epik_input>
W0NIM11DKFtDSDNdKShbQ0gzXSljMVtjSF1zYyhuMSlbQ0gyXVtDSDJdW05IXUMoPU8pTjJbQ0gyXVtDSDJdW0NIMl1bQ0gyXTI=

> <s_epik_cmdline>
J2VwaWtfcHl0aG9uJywgJy1waCcsICc3LjAnLCAnLXRuJywgJzgnLCAnLW1hJywgJzIwMCcsICctbWV0YWxfYmluZGluZycsICctaW1hZScsICc8aW5maWxlLm1hZT4nLCAnLW9tYWUnLCAnPG91dGZpbGUubWFlPic=

> <r_epik_Ionization_Penalty>
0.00160156

> <r_epik_Ionization_Penalty_Charging>
0

> <r_epik_Ionization_Penalty_Neutral>
0.00160156

> <r_epik_State_Penalty>
0.00103428

> <r_epik_Charging_Adjusted_Penalty>
0.00103428

> <i_epik_Tot_Q>
0

> <i_epik_Tot_abs_Q>
0

> <r_epik_Metal_State_Penalty>
-0

> <b_epik_Metal_Only>
0

> <s_lp_Force_Field>
OPLS_2005

> <r_lp_Energy>
25.7371

> <b_lp_Chiralities_Consistent>
1

> <s_lp_Variant>
AV-unprocessed.smi:962-1

> <Gold.Version>
5.8.1

> <Gold.Id.Protein>
6NUR|6NUR_protein|mol2

> <Gold.PLP.Fitness>
43.5463

> <Gold.PLP.PLP>
-43.2944

> <Gold.PLP.part.hbond>
-1.0000

> <Gold.PLP.part.metal>
0.0000

> <Gold.PLP.part.buried>
-3.9082

> <Gold.PLP.part.nonpolar>
-37.4674

> <Gold.PLP.part.repulsive>
0.0121

> <Gold.PLP.ligand.clash>
0.9280

> <Gold.PLP.ligand.torsion>
0.4809

> <Gold.PLP.Chemscore.Hbond>
0.7028

> <Gold.PLP.Chemscore.CHOScore>
0.0000

> <Gold.PLP.Chemscore.Metal>
0.0000

> <Gold.Chemscore.Hbonds>
donor molecule, donor type, donor heavy atom, donor atom, acceptor molecule, acceptor atom, score
      P1  H  7997  8008       L1    13  0.88

> <Gold.PLP.Chemscore.Internal.Correction>
0.0333

> <Gold.Rescore>
     Score         DG    S(hbond)    S(metal)    S(lipo)     H(rot)  DE(clash)    DE(int)     intcor
     17.43     -17.84       0.95        0.00     109.50       1.41       0.08       0.34       ----

> <Gold.Chemscore.Fitness>
17.4250

> <Gold.Chemscore.DG>
-17.8402

> <Gold.Chemscore.ZeroCoef>
-5.4800

> <Gold.Chemscore.Hbond>
0.9493

> <Gold.Chemscore.Metal>
0.0000

> <Gold.Chemscore.Lipo>
109.5035

> <Gold.Chemscore.Internal_Hbond>
0.0000

> <Gold.Chemscore.DEClash>
0.0779

> <Gold.Chemscore.DEInternal>
0.3373

> <Gold.Chemscore.Rot>
1.4149

> <Gold.Chemscore.Internal.Correction>
   9.000000E+99

> <Gold.Chemscore.Hbonds>
donor molecule, donor type, donor heavy atom, donor atom, acceptor molecule, acceptor atom, score
      P1  H  7997  8008       L1    13  0.84

> <Gold.Chemscore.Hbond.Weighted>
-3.1706

> <Gold.Chemscore.Metal.Weighted>
-0.0000

> <Gold.Chemscore.Lipo.Weighted>
-12.8119

> <Gold.Chemscore.Internal_Hbond.Weighted>
0.0000

> <Gold.Chemscore.DEClash.Weighted>
0.0779

> <Gold.Chemscore.DEInternal.Weighted>
0.3373

> <Gold.Chemscore.Rot.Weighted>
3.6222

> <Gold.Chemscore.Internal.Correction.Weighted>
   9.000000E+99

> <Gold.Protein.RotatedTorsions>
[ 6907 6896 6895 6894 ] final  133.64 input  -60.11 | X-H torsion
[ 7974 7965 7964 7962 ] final   -9.38 input  175.53 | X-H torsion
[ 8008 7997 7996 7995 ] final -109.64 input   59.86 | X-H torsion
[ 10167 10162 10161 10158 ] final  -76.22 input  -65.29 | X-H torsion
[ 10718 10713 10712 10709 ] final  -59.30 input   66.30 | X-H torsion
[ 10763 10752 10751 10750 ] final  110.60 input  -60.55 | X-H torsion
[ 11005 11000 10999 10996 ] final   44.42 input  -57.11 | X-H torsion

> <Gold.Protein.ActiveResidues>
 VAL166  LYS551  ARG553  GLY616  TRP617  ASP618  TYR619  PRO620  LYS621  CYS622 
 ASP623  PHE694  ASN695  SER759  ASP760  ASP761  ALA762  ILE779  LEU786  VAL792 
 PHE793  MET794  SER795  GLU796  ALA797  LYS798  CYS799  TRP800  GLU811  SER814 

> <Gold.Protein.RotatedAtoms>
  152.3198  133.5842  159.5736 H   0  0  0  0  0  0  0  0  0  0  0  0  # atno 6907 bound_to 6896
  150.7365  134.0027  159.3652 H   0  0  0  0  0  0  0  0  0  0  0  0  # atno 6908 bound_to 6896
  151.7913  135.0735  160.0438 H   0  0  0  0  0  0  0  0  0  0  0  0  # atno 6909 bound_to 6896
  146.2253  140.2608  142.8351 H   0  0  0  0  0  0  0  0  0  0  0  0  # atno 7974 bound_to 7965
  154.9624  140.0399  157.2196 H   0  0  0  0  0  0  0  0  0  0  0  0  # atno 8008 bound_to 7997
  154.7877  140.2830  155.5993 H   0  0  0  0  0  0  0  0  0  0  0  0  # atno 8009 bound_to 7997
  156.2945  140.2579  156.2717 H   0  0  0  0  0  0  0  0  0  0  0  0  # atno 8010 bound_to 7997
  140.4876  143.2387  151.7959 H   0  0  0  0  0  0  0  0  0  0  0  0  # atno 10167 bound_to 10162
  156.1071  130.4179  150.0696 H   0  0  0  0  0  0  0  0  0  0  0  0  # atno 10718 bound_to 10713
  153.4512  135.3743  155.2285 H   0  0  0  0  0  0  0  0  0  0  0  0  # atno 10763 bound_to 10752
  154.8756  135.3886  154.4036 H   0  0  0  0  0  0  0  0  0  0  0  0  # atno 10764 bound_to 10752
  153.4595  135.7086  153.6123 H   0  0  0  0  0  0  0  0  0  0  0  0  # atno 10765 bound_to 10752
  140.1554  134.4409  155.8353 H   0  0  0  0  0  0  0  0  0  0  0  0  # atno 11005 bound_to 11000
  144.9341  140.8007  143.5671 LP  0  0  0  0  0  0  0  0  0  0  0  0  # atno 17320 bound_to 7965
  145.2554  139.2014  143.4920 LP  0  0  0  0  0  0  0  0  0  0  0  0  # atno 17321 bound_to 7965
  139.4845  144.4691  151.9447 LP  0  0  0  0  0  0  0  0  0  0  0  0  # atno 17342 bound_to 10162
  140.3778  144.2775  150.5912 LP  0  0  0  0  0  0  0  0  0  0  0  0  # atno 17343 bound_to 10162
  156.8669  130.9511  151.3613 LP  0  0  0  0  0  0  0  0  0  0  0  0  # atno 17370 bound_to 10713
  157.6249  130.8684  149.9172 LP  0  0  0  0  0  0  0  0  0  0  0  0  # atno 17371 bound_to 10713
  141.2204  133.6890  156.7497 LP  0  0  0  0  0  0  0  0  0  0  0  0  # atno 17394 bound_to 11000
  140.2554  134.8508  157.3708 LP  0  0  0  0  0  0  0  0  0  0  0  0  # atno 17395 bound_to 11000

$$$$
