AV-unprocessed.smi:2489|AV-procd|sdf|9802|dock5
  -GOLD-   2272013433D 1   1.00000     0.00000
 Structure written by MMmdl.
 33 34  0  0  0  0  0  0  0  0  1 V2000
  151.8684  145.2990  159.3980 C   0  0  0  0  0  0  0  0  0  0  0  0
  151.6655  144.1798  160.2490 O   0  0  0  0  0  0  0  0  0  0  0  0
  152.2099  142.9779  159.8583 C   0  0  0  0  0  0  0  0  0  0  0  0
  153.1884  142.2412  160.6546 C   0  0  0  0  0  0  0  0  0  0  0  0
  153.6482  141.0754  160.1763 C   0  0  0  0  0  0  0  0  0  0  0  0
  153.2271  140.5558  158.9609 N   0  0  0  0  0  0  0  0  0  0  0  0
  152.2916  141.2133  158.1420 C   0  0  0  0  0  0  0  0  0  0  0  0
  151.8585  140.7821  156.9931 N   0  0  0  0  0  0  0  0  0  0  0  0
  152.2795  139.5789  156.4335 C   0  0  0  0  0  0  0  0  0  0  0  0
  153.0939  138.7576  156.8651 O   0  0  0  0  0  0  0  0  0  0  0  0
  151.5915  139.3047  155.0887 C   0  0  1  0  0  0  0  0  0  0  0  0
  150.6848  138.0624  155.1235 C   0  0  0  0  0  0  0  0  0  0  0  0
  149.4069  138.5410  154.4650 C   0  0  0  0  0  0  0  0  0  0  0  0
  149.3779  140.0112  154.8642 C   0  0  2  0  0  0  0  0  0  0  0  0
  148.4967  140.8882  153.9689 C   0  0  0  0  0  0  0  0  0  0  0  0
  150.7398  140.4040  154.7599 O   0  0  0  0  0  0  0  0  0  0  0  0
  151.7972  142.4773  158.6703 C   0  0  0  0  0  0  0  0  0  0  0  0
  151.3846  146.1728  159.8342 H   0  0  0  0  0  0  0  0  0  0  0  0
  151.4273  145.1379  158.4134 H   0  0  0  0  0  0  0  0  0  0  0  0
  152.9283  145.5325  159.2881 H   0  0  0  0  0  0  0  0  0  0  0  0
  153.5518  142.5993  161.6059 H   0  0  0  0  0  0  0  0  0  0  0  0
  154.3718  140.4663  160.6979 H   0  0  0  0  0  0  0  0  0  0  0  0
  152.3304  139.2146  154.2906 H   0  0  0  0  0  0  0  0  0  0  0  0
  151.1231  137.2137  154.5981 H   0  0  0  0  0  0  0  0  0  0  0  0
  150.4745  137.7450  156.1463 H   0  0  0  0  0  0  0  0  0  0  0  0
  149.4888  138.4424  153.3817 H   0  0  0  0  0  0  0  0  0  0  0  0
  148.5242  137.9913  154.7931 H   0  0  0  0  0  0  0  0  0  0  0  0
  149.0675  140.1043  155.9062 H   0  0  0  0  0  0  0  0  0  0  0  0
  147.4530  140.5777  154.0210 H   0  0  0  0  0  0  0  0  0  0  0  0
  148.8125  140.8311  152.9269 H   0  0  0  0  0  0  0  0  0  0  0  0
  148.5496  141.9330  154.2759 H   0  0  0  0  0  0  0  0  0  0  0  0
  151.0723  143.0562  158.1161 H   0  0  0  0  0  0  0  0  0  0  0  0
  153.6296  139.6711  158.6856 H   0  0  0  0  0  0  0  0  0  0  0  0
  1  2  1  0  0  0  0
  1 18  1  0  0  0  0
  1 19  1  0  0  0  0
  1 20  1  0  0  0  0
  2  3  1  0  0  0  0
  3 17  2  0  0  0  0
  3  4  1  0  0  0  0
  4  5  2  0  0  0  0
  4 21  1  0  0  0  0
  5  6  1  0  0  0  0
  5 22  1  0  0  0  0
  6  7  1  0  0  0  0
  6 33  1  0  0  0  0
  7  8  2  0  0  0  0
  7 17  1  0  0  0  0
  8  9  1  0  0  0  0
  9 10  2  0  0  0  0
  9 11  1  0  0  0  0
 11 16  1  0  0  0  0
 11 12  1  0  0  0  0
 11 23  1  0  0  0  0
 12 13  1  0  0  0  0
 12 24  1  0  0  0  0
 12 25  1  0  0  0  0
 13 14  1  0  0  0  0
 13 26  1  0  0  0  0
 13 27  1  0  0  0  0
 14 15  1  0  0  0  0
 14 16  1  0  0  0  0
 14 28  1  0  0  0  0
 15 29  1  0  0  0  0
 15 30  1  0  0  0  0
 15 31  1  0  0  0  0
 17 32  1  0  0  0  0
M  END
> <s_m_source_file>
AV-unprocessed.smi

> <i_m_source_file_index>
2489

> <i_lp_mmshare_version>
43012

> <i_f3d_flags>
0

> <s_epik_input>
W0NIM11PYzFbY0hdW2NIXW5jKFtjSF0xKVtOSF1DKD1PKVtDQEBIXTJbQ0gyXVtDSDJdW0NASF0oTzIpW0NIM10=

> <s_epik_cmdline>
J2VwaWtfcHl0aG9uJywgJy1waCcsICc3LjAnLCAnLXRuJywgJzgnLCAnLW1hJywgJzIwMCcsICctbWV0YWxfYmluZGluZycsICctaW1hZScsICc8aW5maWxlLm1hZT4nLCAnLW9tYWUnLCAnPG91dGZpbGUubWFlPic=

> <r_epik_Ionization_Penalty>
0.410206

> <r_epik_Ionization_Penalty_Charging>
0.410206

> <r_epik_Ionization_Penalty_Neutral>
6.57528e-13

> <r_epik_State_Penalty>
1.30987

> <r_epik_Charging_Adjusted_Penalty>
1.72007

> <i_epik_Tot_Q>
0

> <i_epik_Tot_abs_Q>
0

> <r_epik_Metal_State_Penalty>
1.32171

> <b_epik_Metal_Only>
0

> <s_lp_Force_Field>
OPLS_2005

> <r_lp_Energy>
36.1754

> <b_lp_Chiralities_Consistent>
1

> <s_lp_Variant>
AV-unprocessed.smi:2489-8

> <Gold.Version>
5.8.1

> <Gold.Id.Protein>
6NUR|6NUR_protein|mol2

> <Gold.PLP.Fitness>
40.2830

> <Gold.PLP.PLP>
-35.9836

> <Gold.PLP.part.hbond>
-2.0000

> <Gold.PLP.part.metal>
0.0000

> <Gold.PLP.part.buried>
-2.0895

> <Gold.PLP.part.nonpolar>
-31.1361

> <Gold.PLP.part.repulsive>
0.2554

> <Gold.PLP.ligand.clash>
0.0000

> <Gold.PLP.ligand.torsion>
0.0276

> <Gold.PLP.Chemscore.Hbond>
1.4496

> <Gold.PLP.Chemscore.CHOScore>
0.0000

> <Gold.PLP.Chemscore.Metal>
0.0000

> <Gold.Chemscore.Hbonds>
donor molecule, donor type, donor heavy atom, donor atom, acceptor molecule, acceptor atom, score
      P1  H  7989  7998       L1    16  0.75
      P1  H  7997  8010       L1    10  0.68

> <Gold.PLP.Chemscore.Internal.Correction>
0.0059

> <Gold.Rescore>
     Score         DG    S(hbond)    S(metal)    S(lipo)     H(rot)  DE(clash)    DE(int)     intcor
     13.51     -15.10       0.79        0.00      86.57       1.23       0.14       1.46       ----

> <Gold.Chemscore.Fitness>
13.5056

> <Gold.Chemscore.DG>
-15.1032

> <Gold.Chemscore.ZeroCoef>
-5.4800

> <Gold.Chemscore.Hbond>
0.7888

> <Gold.Chemscore.Metal>
0.0000

> <Gold.Chemscore.Lipo>
86.5661

> <Gold.Chemscore.Internal_Hbond>
0.0000

> <Gold.Chemscore.DEClash>
0.1394

> <Gold.Chemscore.DEInternal>
1.4581

> <Gold.Chemscore.Rot>
1.2264

> <Gold.Chemscore.Internal.Correction>
   9.000000E+99

> <Gold.Chemscore.Hbonds>
donor molecule, donor type, donor heavy atom, donor atom, acceptor molecule, acceptor atom, score
      P1  H  7989  7998       L1    16  0.09
      P1  H  7997  8010       L1    10  0.08

> <Gold.Chemscore.Hbond.Weighted>
-2.6345

> <Gold.Chemscore.Metal.Weighted>
-0.0000

> <Gold.Chemscore.Lipo.Weighted>
-10.1282

> <Gold.Chemscore.Internal_Hbond.Weighted>
0.0000

> <Gold.Chemscore.DEClash.Weighted>
0.1394

> <Gold.Chemscore.DEInternal.Weighted>
1.4581

> <Gold.Chemscore.Rot.Weighted>
3.1396

> <Gold.Chemscore.Internal.Correction.Weighted>
   9.000000E+99

> <Gold.Protein.RotatedTorsions>
[ 6907 6896 6895 6894 ] final  165.33 input  -60.11 | X-H torsion
[ 7974 7965 7964 7962 ] final  -81.52 input  175.53 | X-H torsion
[ 8008 7997 7996 7995 ] final   37.73 input   59.86 | X-H torsion
[ 10167 10162 10161 10158 ] final -152.56 input  -65.29 | X-H torsion
[ 10718 10713 10712 10709 ] final  102.19 input   66.30 | X-H torsion
[ 10763 10752 10751 10750 ] final   32.02 input  -60.55 | X-H torsion
[ 11005 11000 10999 10996 ] final  144.03 input  -57.11 | X-H torsion

> <Gold.Protein.ActiveResidues>
 VAL166  LYS551  ARG553  GLY616  TRP617  ASP618  TYR619  PRO620  LYS621  CYS622 
 ASP623  PHE694  ASN695  SER759  ASP760  ASP761  ALA762  ILE779  LEU786  VAL792 
 PHE793  MET794  SER795  GLU796  ALA797  LYS798  CYS799  TRP800  GLU811  SER814 

> <Gold.Protein.RotatedAtoms>
  151.8961  133.3527  159.3814 H   0  0  0  0  0  0  0  0  0  0  0  0  # atno 6907 bound_to 6896
  150.7091  134.4875  159.5509 H   0  0  0  0  0  0  0  0  0  0  0  0  # atno 6908 bound_to 6896
  152.2455  134.8186  160.0505 H   0  0  0  0  0  0  0  0  0  0  0  0  # atno 6909 bound_to 6896
  145.5456  140.9504  143.1527 H   0  0  0  0  0  0  0  0  0  0  0  0  # atno 7974 bound_to 7965
  155.2086  140.3321  155.4332 H   0  0  0  0  0  0  0  0  0  0  0  0  # atno 8008 bound_to 7997
  156.2379  140.1881  156.7117 H   0  0  0  0  0  0  0  0  0  0  0  0  # atno 8009 bound_to 7997
  154.6093  140.0611  156.9458 H   0  0  0  0  0  0  0  0  0  0  0  0  # atno 8010 bound_to 7997
  139.7171  143.9016  152.2490 H   0  0  0  0  0  0  0  0  0  0  0  0  # atno 10167 bound_to 10162
  157.6809  131.0746  150.5366 H   0  0  0  0  0  0  0  0  0  0  0  0  # atno 10718 bound_to 10713
  153.0284  135.6424  154.1290 H   0  0  0  0  0  0  0  0  0  0  0  0  # atno 10763 bound_to 10752
  154.1015  135.2859  155.3252 H   0  0  0  0  0  0  0  0  0  0  0  0  # atno 10764 bound_to 10752
  154.6395  135.5464  153.7836 H   0  0  0  0  0  0  0  0  0  0  0  0  # atno 10765 bound_to 10752
  140.0600  134.9210  157.1167 H   0  0  0  0  0  0  0  0  0  0  0  0  # atno 11005 bound_to 11000
  144.7555  139.7085  143.7256 LP  0  0  0  0  0  0  0  0  0  0  0  0  # atno 17320 bound_to 7965
  146.1952  139.5214  142.9779 LP  0  0  0  0  0  0  0  0  0  0  0  0  # atno 17321 bound_to 7965
  139.8901  144.6970  150.8780 LP  0  0  0  0  0  0  0  0  0  0  0  0  # atno 17342 bound_to 10162
  140.7746  143.3593  151.1860 LP  0  0  0  0  0  0  0  0  0  0  0  0  # atno 17343 bound_to 10162
  156.5674  130.4271  149.6035 LP  0  0  0  0  0  0  0  0  0  0  0  0  # atno 17370 bound_to 10713
  156.2769  130.7049  151.1862 LP  0  0  0  0  0  0  0  0  0  0  0  0  # atno 17371 bound_to 10713
  140.3785  134.2313  155.7172 LP  0  0  0  0  0  0  0  0  0  0  0  0  # atno 17394 bound_to 11000
  141.1969  133.8072  157.0652 LP  0  0  0  0  0  0  0  0  0  0  0  0  # atno 17395 bound_to 11000

$$$$
