AV-unprocessed.smi:6|AV-procd|sdf|39|dock4
  -GOLD-   2262015153D 1   1.00000     0.00000
 Structure written by MMmdl.
 37 38  0  0  0  0  0  0  0  0  1 V2000
  150.1149  134.8000  155.7066 C   0  0  0  0  0  0  0  0  0  0  0  0
  150.4181  135.9734  156.6510 C   0  0  0  0  0  0  0  0  0  0  0  0
  149.3701  136.1389  157.7622 C   0  0  0  0  0  0  0  0  0  0  0  0
  150.6552  137.2721  155.8908 C   0  0  0  0  0  0  0  0  0  0  0  0
  150.2852  137.3035  154.6056 N   0  0  0  0  0  0  0  0  0  0  0  0
  150.5005  138.4558  153.9357 C   0  0  0  0  0  0  0  0  0  0  0  0
  151.0850  139.5780  154.5566 C   0  0  0  0  0  0  0  0  0  0  0  0
  151.4329  139.4370  155.9158 C   0  0  0  0  0  0  0  0  0  0  0  0
  152.0180  140.5159  156.5923 N   0  0  0  0  0  0  0  0  0  0  0  0
  151.9112  140.6016  158.0435 C   0  0  0  0  0  0  0  0  0  0  0  0
  151.4326  141.9620  158.5252 C   0  0  0  0  0  0  0  0  0  0  0  0
  152.0485  142.6177  159.5416 C   0  0  0  0  0  0  0  0  0  0  0  0
  151.6600  143.8695  159.9919 N   0  0  0  0  0  0  0  0  0  0  0  0
  152.3136  144.5543  161.0733 C   0  0  0  0  0  0  0  0  0  0  0  0
  150.5780  144.5324  159.3761 C   0  0  0  0  0  0  0  0  0  0  0  0
  150.1832  145.6452  159.7255 O   0  0  0  0  0  0  0  0  0  0  0  0
  149.9530  143.8648  158.3238 N   0  0  0  0  0  0  0  0  0  0  0  0
  150.3056  142.6024  157.8364 C   0  0  0  0  0  0  0  0  0  0  0  0
  149.6773  142.1197  156.8959 O   0  0  0  0  0  0  0  0  0  0  0  0
  151.2140  138.2753  156.5762 N   0  0  0  0  0  0  0  0  0  0  0  0
  149.1800  144.3340  157.8744 H   0  0  0  0  0  0  0  0  0  0  0  0
  150.9152  134.6680  154.9779 H   0  0  0  0  0  0  0  0  0  0  0  0
  149.1864  134.9596  155.1572 H   0  0  0  0  0  0  0  0  0  0  0  0
  150.0153  133.8665  156.2608 H   0  0  0  0  0  0  0  0  0  0  0  0
  151.3536  135.7211  157.1538 H   0  0  0  0  0  0  0  0  0  0  0  0
  149.6614  136.9245  158.4601 H   0  0  0  0  0  0  0  0  0  0  0  0
  149.2546  135.2170  158.3324 H   0  0  0  0  0  0  0  0  0  0  0  0
  148.3936  136.4004  157.3537 H   0  0  0  0  0  0  0  0  0  0  0  0
  150.2047  138.4830  152.8975 H   0  0  0  0  0  0  0  0  0  0  0  0
  151.2549  140.4964  154.0141 H   0  0  0  0  0  0  0  0  0  0  0  0
  152.2023  141.3637  156.0759 H   0  0  0  0  0  0  0  0  0  0  0  0
  151.2275  139.8266  158.3920 H   0  0  0  0  0  0  0  0  0  0  0  0
  152.8808  140.3947  158.4987 H   0  0  0  0  0  0  0  0  0  0  0  0
  152.8860  142.1350  160.0254 H   0  0  0  0  0  0  0  0  0  0  0  0
  151.5698  144.7330  161.8525 H   0  0  0  0  0  0  0  0  0  0  0  0
  152.7256  145.4842  160.6757 H   0  0  0  0  0  0  0  0  0  0  0  0
  153.1128  143.9164  161.4525 H   0  0  0  0  0  0  0  0  0  0  0  0
  1  2  1  0  0  0  0
  1 22  1  0  0  0  0
  1 23  1  0  0  0  0
  1 24  1  0  0  0  0
  2  3  1  0  0  0  0
  2  4  1  0  0  0  0
  2 25  1  0  0  0  0
  3 26  1  0  0  0  0
  3 27  1  0  0  0  0
  3 28  1  0  0  0  0
  4 20  1  0  0  0  0
  4  5  2  0  0  0  0
  5  6  1  0  0  0  0
  6  7  2  0  0  0  0
  6 29  1  0  0  0  0
  7  8  1  0  0  0  0
  7 30  1  0  0  0  0
  8  9  1  0  0  0  0
  8 20  2  0  0  0  0
  9 10  1  0  0  0  0
  9 31  1  0  0  0  0
 10 11  1  0  0  0  0
 10 32  1  0  0  0  0
 10 33  1  0  0  0  0
 11 18  1  0  0  0  0
 11 12  2  0  0  0  0
 12 13  1  0  0  0  0
 12 34  1  0  0  0  0
 13 14  1  0  0  0  0
 13 15  1  0  0  0  0
 14 35  1  0  0  0  0
 14 36  1  0  0  0  0
 14 37  1  0  0  0  0
 15 16  2  0  0  0  0
 15 17  1  0  0  0  0
 17 21  1  0  0  0  0
 17 18  1  0  0  0  0
 18 19  2  0  0  0  0
M  END
> <s_m_source_file>
AV-unprocessed.smi

> <i_m_source_file_index>
6

> <i_lp_mmshare_version>
43012

> <i_f3d_flags>
0

> <s_epik_input>
W0NIM11bQ0hdKFtDSDNdKWMxbltjSF1bY0hdYyhuMSlbTkhdW0NIMl1jMltjSF1uKFtDSDNdKWMoPU8pW25IXWMyPU8=

> <s_epik_cmdline>
J2VwaWtfcHl0aG9uJywgJy1waCcsICc3LjAnLCAnLXRuJywgJzgnLCAnLW1hJywgJzIwMCcsICctbWV0YWxfYmluZGluZycsICctaW1hZScsICc8aW5maWxlLm1hZT4nLCAnLW9tYWUnLCAnPG91dGZpbGUubWFlPic=

> <r_lp_tautomer_probability>
0.999537

> <r_epik_Ionization_Penalty>
0.308056

> <r_epik_Ionization_Penalty_Charging>
0.000755917

> <r_epik_Ionization_Penalty_Neutral>
0.3073

> <r_epik_State_Penalty>
0.300752

> <r_epik_Charging_Adjusted_Penalty>
0.301508

> <i_epik_Tot_Q>
0

> <i_epik_Tot_abs_Q>
0

> <r_epik_Metal_State_Penalty>
0.395738

> <b_epik_Metal_Only>
0

> <s_lp_Force_Field>
OPLS_2005

> <r_lp_Energy>
3.35028

> <b_lp_Chiralities_Consistent>
1

> <s_lp_Variant>
AV-unprocessed.smi:6-1

> <Gold.Version>
5.8.1

> <Gold.Id.Protein>
6NUR|6NUR_protein|mol2

> <Gold.PLP.Fitness>
35.1538

> <Gold.PLP.PLP>
-29.3964

> <Gold.PLP.part.hbond>
-2.9415

> <Gold.PLP.part.metal>
0.0000

> <Gold.PLP.part.buried>
-2.0573

> <Gold.PLP.part.nonpolar>
-25.1503

> <Gold.PLP.part.repulsive>
1.0840

> <Gold.PLP.ligand.clash>
0.0000

> <Gold.PLP.ligand.torsion>
0.5641

> <Gold.PLP.Chemscore.Hbond>
0.4583

> <Gold.PLP.Chemscore.CHOScore>
1.8059

> <Gold.PLP.Chemscore.Metal>
0.0000

> <Gold.Chemscore.Hbonds>
donor molecule, donor type, donor heavy atom, donor atom, acceptor molecule, acceptor atom, score
      L1  H    17    21       P1  8029  0.37
      L1  C     6    29       P1  7948  0.39
      L1  C     6    29       P1  7957  1.00

> <Gold.PLP.Chemscore.Internal.Correction>
0.0931

> <Gold.Rescore>
     Score         DG    S(hbond)    S(metal)    S(lipo)     H(rot)  DE(clash)    DE(int)     intcor
      6.29      -8.70       0.00        0.00      63.62       1.65       0.08       2.32       ----

> <Gold.Chemscore.Fitness>
6.2925

> <Gold.Chemscore.DG>
-8.6966

> <Gold.Chemscore.ZeroCoef>
-5.4800

> <Gold.Chemscore.Hbond>
0.0000

> <Gold.Chemscore.Metal>
0.0000

> <Gold.Chemscore.Lipo>
63.6247

> <Gold.Chemscore.Internal_Hbond>
0.0000

> <Gold.Chemscore.DEClash>
0.0812

> <Gold.Chemscore.DEInternal>
2.3228

> <Gold.Chemscore.Rot>
1.6514

> <Gold.Chemscore.Internal.Correction>
   9.000000E+99

> <Gold.Chemscore.Hbonds>
donor molecule, donor type, donor heavy atom, donor atom, acceptor molecule, acceptor atom, score
      L1  H    17    21       P1  8029  0.02

> <Gold.Chemscore.Hbond.Weighted>
-0.0000

> <Gold.Chemscore.Metal.Weighted>
-0.0000

> <Gold.Chemscore.Lipo.Weighted>
-7.4441

> <Gold.Chemscore.Internal_Hbond.Weighted>
0.0000

> <Gold.Chemscore.DEClash.Weighted>
0.0812

> <Gold.Chemscore.DEInternal.Weighted>
2.3228

> <Gold.Chemscore.Rot.Weighted>
4.2275

> <Gold.Chemscore.Internal.Correction.Weighted>
   9.000000E+99

> <Gold.Protein.RotatedTorsions>
[ 6907 6896 6895 6894 ] final  -81.21 input  -60.11 | X-H torsion
[ 7974 7965 7964 7962 ] final  148.61 input  175.53 | X-H torsion
[ 8008 7997 7996 7995 ] final   70.96 input   59.86 | X-H torsion
[ 10167 10162 10161 10158 ] final -159.67 input  -65.29 | X-H torsion
[ 10718 10713 10712 10709 ] final -139.06 input   66.30 | X-H torsion
[ 10763 10752 10751 10750 ] final   77.18 input  -60.55 | X-H torsion
[ 11005 11000 10999 10996 ] final  -63.24 input  -57.11 | X-H torsion

> <Gold.Protein.ActiveResidues>
 VAL166  LYS551  ARG553  GLY616  TRP617  ASP618  TYR619  PRO620  LYS621  CYS622 
 ASP623  PHE694  ASN695  SER759  ASP760  ASP761  ALA762  ILE779  LEU786  VAL792 
 PHE793  MET794  SER795  GLU796  ALA797  LYS798  CYS799  TRP800  GLU811  SER814 

> <Gold.Protein.RotatedAtoms>
  150.6916  134.3853  159.5051 H   0  0  0  0  0  0  0  0  0  0  0  0  # atno 6907 bound_to 6896
  152.1649  134.8879  160.0548 H   0  0  0  0  0  0  0  0  0  0  0  0  # atno 6908 bound_to 6896
  151.9927  133.3762  159.4187 H   0  0  0  0  0  0  0  0  0  0  0  0  # atno 6909 bound_to 6896
  144.8501  139.6176  143.5978 H   0  0  0  0  0  0  0  0  0  0  0  0  # atno 7974 bound_to 7965
  155.7467  140.3489  155.5130 H   0  0  0  0  0  0  0  0  0  0  0  0  # atno 8008 bound_to 7997
  155.9043  140.1039  157.1348 H   0  0  0  0  0  0  0  0  0  0  0  0  # atno 8009 bound_to 7997
  154.4048  140.1280  156.4463 H   0  0  0  0  0  0  0  0  0  0  0  0  # atno 8010 bound_to 7997
  139.6597  143.9934  152.2217 H   0  0  0  0  0  0  0  0  0  0  0  0  # atno 10167 bound_to 10162
  156.3064  130.7457  151.1522 H   0  0  0  0  0  0  0  0  0  0  0  0  # atno 10718 bound_to 10713
  153.0779  135.4924  154.8443 H   0  0  0  0  0  0  0  0  0  0  0  0  # atno 10763 bound_to 10752
  154.7112  135.3020  154.9196 H   0  0  0  0  0  0  0  0  0  0  0  0  # atno 10764 bound_to 10752
  153.9889  135.6780  153.4806 H   0  0  0  0  0  0  0  0  0  0  0  0  # atno 10765 bound_to 10752
  141.1386  133.6649  156.5650 H   0  0  0  0  0  0  0  0  0  0  0  0  # atno 11005 bound_to 11000
  146.2777  139.6796  142.9251 LP  0  0  0  0  0  0  0  0  0  0  0  0  # atno 17320 bound_to 7965
  145.4518  141.0428  143.2800 LP  0  0  0  0  0  0  0  0  0  0  0  0  # atno 17321 bound_to 7965
  139.9670  144.6519  150.8025 LP  0  0  0  0  0  0  0  0  0  0  0  0  # atno 17342 bound_to 10162
  140.7575  143.3087  151.2898 LP  0  0  0  0  0  0  0  0  0  0  0  0  # atno 17343 bound_to 10162
  157.7380  131.0545  150.5318 LP  0  0  0  0  0  0  0  0  0  0  0  0  # atno 17370 bound_to 10713
  156.5452  130.4218  149.6134 LP  0  0  0  0  0  0  0  0  0  0  0  0  # atno 17371 bound_to 10713
  140.3958  134.7400  157.4750 LP  0  0  0  0  0  0  0  0  0  0  0  0  # atno 17394 bound_to 11000
  140.0532  134.6100  155.8836 LP  0  0  0  0  0  0  0  0  0  0  0  0  # atno 17395 bound_to 11000

$$$$
