AV-unprocessed.smi:2143|AV-procd|sdf|8724|dock8
  -GOLD-   2272011493D 1   1.00000     0.00000
 Structure written by MMmdl.
 44 45  0  0  0  0  0  0  0  0  1 V2000
  152.5193  142.7346  161.7302 C   0  0  0  0  0  0  0  0  0  0  0  0
  152.6493  143.0942  160.2382 C   0  0  2  0  0  0  0  0  0  0  0  0
  152.2360  144.5645  160.0263 C   0  0  0  0  0  0  0  0  0  0  0  0
  152.3793  144.9919  158.5620 C   0  0  0  0  0  0  0  0  0  0  0  0
  151.5507  144.0811  157.6520 C   0  0  0  0  0  0  0  0  0  0  0  0
  151.9473  142.6016  157.8252 C   0  0  2  0  0  0  0  0  0  0  0  0
  151.0996  141.7742  156.9683 N   0  0  0  0  0  0  0  0  0  0  0  0
  151.4068  140.5469  156.5219 C   0  0  0  0  0  0  0  0  0  0  0  0
  152.4513  139.9626  156.8130 O   0  0  0  0  0  0  0  0  0  0  0  0
  150.3617  139.8756  155.6211 C   0  0  0  0  0  0  0  0  0  0  0  0
  149.1093  140.6376  155.5372 N   0  0  0  0  0  0  0  0  0  0  0  0
  148.7418  141.2265  154.3409 C   0  0  0  0  0  0  0  0  0  0  0  0
  147.6175  141.9593  154.1861 C   0  0  0  0  0  0  0  0  0  0  0  0
  146.7035  142.1740  155.3015 C   0  0  0  0  0  0  0  0  0  0  0  0
  145.6797  142.8520  155.2085 O   0  0  0  0  0  0  0  0  0  0  0  0
  147.0952  141.5478  156.5093 N   0  0  0  0  0  0  0  0  0  0  0  0
  146.2617  141.7171  157.6816 C   0  0  0  0  0  0  0  0  0  0  0  0
  148.2797  140.7950  156.6685 C   0  0  0  0  0  0  0  0  0  0  0  0
  148.5932  140.2943  157.7515 O   0  0  0  0  0  0  0  0  0  0  0  0
  151.8424  142.1453  159.3062 C   0  0  1  0  0  0  0  0  0  0  0  0
  152.2783  140.6720  159.4643 C   0  0  0  0  0  0  0  0  0  0  0  0
  151.4751  142.7131  162.0436 H   0  0  0  0  0  0  0  0  0  0  0  0
  153.0364  143.4640  162.3542 H   0  0  0  0  0  0  0  0  0  0  0  0
  152.9601  141.7641  161.9552 H   0  0  0  0  0  0  0  0  0  0  0  0
  153.7046  143.0089  159.9737 H   0  0  0  0  0  0  0  0  0  0  0  0
  151.2033  144.7084  160.3475 H   0  0  0  0  0  0  0  0  0  0  0  0
  152.8454  145.2181  160.6513 H   0  0  0  0  0  0  0  0  0  0  0  0
  152.0587  146.0272  158.4431 H   0  0  0  0  0  0  0  0  0  0  0  0
  153.4286  144.9552  158.2661 H   0  0  0  0  0  0  0  0  0  0  0  0
  150.4909  144.2098  157.8774 H   0  0  0  0  0  0  0  0  0  0  0  0
  151.6844  144.3896  156.6145 H   0  0  0  0  0  0  0  0  0  0  0  0
  152.9871  142.4843  157.5134 H   0  0  0  0  0  0  0  0  0  0  0  0
  150.2171  142.1733  156.6831 H   0  0  0  0  0  0  0  0  0  0  0  0
  150.7954  139.7576  154.6272 H   0  0  0  0  0  0  0  0  0  0  0  0
  150.1576  138.8636  155.9761 H   0  0  0  0  0  0  0  0  0  0  0  0
  149.3887  141.1019  153.4847 H   0  0  0  0  0  0  0  0  0  0  0  0
  147.3933  142.3966  153.2242 H   0  0  0  0  0  0  0  0  0  0  0  0
  146.1971  140.7588  158.1999 H   0  0  0  0  0  0  0  0  0  0  0  0
  145.2539  142.0192  157.3965 H   0  0  0  0  0  0  0  0  0  0  0  0
  146.7393  142.4764  158.3023 H   0  0  0  0  0  0  0  0  0  0  0  0
  150.7926  142.2084  159.5980 H   0  0  0  0  0  0  0  0  0  0  0  0
  153.3374  140.5483  159.2360 H   0  0  0  0  0  0  0  0  0  0  0  0
  151.7200  140.0087  158.8040 H   0  0  0  0  0  0  0  0  0  0  0  0
  152.1085  140.3045  160.4754 H   0  0  0  0  0  0  0  0  0  0  0  0
  1  2  1  0  0  0  0
  1 22  1  0  0  0  0
  1 23  1  0  0  0  0
  1 24  1  0  0  0  0
  2 20  1  0  0  0  0
  2  3  1  0  0  0  0
  2 25  1  0  0  0  0
  3  4  1  0  0  0  0
  3 26  1  0  0  0  0
  3 27  1  0  0  0  0
  4  5  1  0  0  0  0
  4 28  1  0  0  0  0
  4 29  1  0  0  0  0
  5  6  1  0  0  0  0
  5 30  1  0  0  0  0
  5 31  1  0  0  0  0
  6  7  1  0  0  0  0
  6 20  1  0  0  0  0
  6 32  1  0  0  0  0
  7  8  1  0  0  0  0
  7 33  1  0  0  0  0
  8  9  2  0  0  0  0
  8 10  1  0  0  0  0
 10 11  1  0  0  0  0
 10 34  1  0  0  0  0
 10 35  1  0  0  0  0
 11 18  1  0  0  0  0
 11 12  1  0  0  0  0
 12 13  2  0  0  0  0
 12 36  1  0  0  0  0
 13 14  1  0  0  0  0
 13 37  1  0  0  0  0
 14 15  2  0  0  0  0
 14 16  1  0  0  0  0
 16 17  1  0  0  0  0
 16 18  1  0  0  0  0
 17 38  1  0  0  0  0
 17 39  1  0  0  0  0
 17 40  1  0  0  0  0
 18 19  2  0  0  0  0
 20 21  1  0  0  0  0
 20 41  1  0  0  0  0
 21 42  1  0  0  0  0
 21 43  1  0  0  0  0
 21 44  1  0  0  0  0
M  END
> <s_m_source_file>
AV-unprocessed.smi

> <i_m_source_file_index>
2143

> <i_lp_mmshare_version>
43012

> <i_f3d_flags>
0

> <s_epik_input>
W0NIM11bQ0BASF0xW0NIMl1bQ0gyXVtDSDJdW0NASF0oW0NASF0xW0NIM10pW05IXUMoPU8pW0NIMl1uMltjSF1bY0hdYyg9TyluKFtDSDNdKWMyPU8=

> <s_epik_cmdline>
J2VwaWtfcHl0aG9uJywgJy1waCcsICc3LjAnLCAnLXRuJywgJzgnLCAnLW1hJywgJzIwMCcsICctbWV0YWxfYmluZGluZycsICctaW1hZScsICc8aW5maWxlLm1hZT4nLCAnLW9tYWUnLCAnPG91dGZpbGUubWFlPic=

> <r_lp_tautomer_probability>
1

> <r_epik_Ionization_Penalty>
3.18445e-08

> <r_epik_Ionization_Penalty_Charging>
1.27977e-08

> <r_epik_Ionization_Penalty_Neutral>
1.90469e-08

> <r_epik_State_Penalty>
-0

> <r_epik_Charging_Adjusted_Penalty>
1.27977e-08

> <i_epik_Tot_Q>
0

> <i_epik_Tot_abs_Q>
0

> <r_epik_Metal_State_Penalty>
-0

> <b_epik_Metal_Only>
0

> <s_lp_Force_Field>
OPLS_2005

> <r_lp_Energy>
20.5946

> <b_lp_Chiralities_Consistent>
1

> <s_lp_Variant>
AV-unprocessed.smi:2143-3

> <Gold.Version>
5.8.1

> <Gold.Id.Protein>
6NUR|6NUR_protein|mol2

> <Gold.PLP.Fitness>
49.7292

> <Gold.PLP.PLP>
-44.5229

> <Gold.PLP.part.hbond>
-1.0000

> <Gold.PLP.part.metal>
0.0000

> <Gold.PLP.part.buried>
-5.5577

> <Gold.PLP.part.nonpolar>
-38.1044

> <Gold.PLP.part.repulsive>
0.2742

> <Gold.PLP.ligand.clash>
0.0002

> <Gold.PLP.ligand.torsion>
0.4007

> <Gold.PLP.Chemscore.Hbond>
1.0000

> <Gold.PLP.Chemscore.CHOScore>
1.0000

> <Gold.PLP.Chemscore.Metal>
0.0000

> <Gold.Chemscore.Hbonds>
donor molecule, donor type, donor heavy atom, donor atom, acceptor molecule, acceptor atom, score
      P1  H  7997  8008       L1     9  1.00
      L1  C    12    36       P1  7957  0.93

> <Gold.PLP.Chemscore.Internal.Correction>
0.0078

> <Gold.Rescore>
     Score         DG    S(hbond)    S(metal)    S(lipo)     H(rot)  DE(clash)    DE(int)     intcor
     17.27     -18.15       0.98        0.00     113.31       1.51       0.30       0.58       ----

> <Gold.Chemscore.Fitness>
17.2716

> <Gold.Chemscore.DG>
-18.1485

> <Gold.Chemscore.ZeroCoef>
-5.4800

> <Gold.Chemscore.Hbond>
0.9833

> <Gold.Chemscore.Metal>
0.0000

> <Gold.Chemscore.Lipo>
113.3120

> <Gold.Chemscore.Internal_Hbond>
0.0000

> <Gold.Chemscore.DEClash>
0.2955

> <Gold.Chemscore.DEInternal>
0.5814

> <Gold.Chemscore.Rot>
1.5131

> <Gold.Chemscore.Internal.Correction>
   9.000000E+99

> <Gold.Chemscore.Hbonds>
donor molecule, donor type, donor heavy atom, donor atom, acceptor molecule, acceptor atom, score
      P1  H  7997  8008       L1     9  0.96

> <Gold.Chemscore.Hbond.Weighted>
-3.2844

> <Gold.Chemscore.Metal.Weighted>
-0.0000

> <Gold.Chemscore.Lipo.Weighted>
-13.2575

> <Gold.Chemscore.Internal_Hbond.Weighted>
0.0000

> <Gold.Chemscore.DEClash.Weighted>
0.2955

> <Gold.Chemscore.DEInternal.Weighted>
0.5814

> <Gold.Chemscore.Rot.Weighted>
3.8734

> <Gold.Chemscore.Internal.Correction.Weighted>
   9.000000E+99

> <Gold.Protein.RotatedTorsions>
[ 6907 6896 6895 6894 ] final -154.76 input  -60.11 | X-H torsion
[ 7974 7965 7964 7962 ] final -178.44 input  175.53 | X-H torsion
[ 8008 7997 7996 7995 ] final  -66.46 input   59.86 | X-H torsion
[ 10167 10162 10161 10158 ] final  167.72 input  -65.29 | X-H torsion
[ 10718 10713 10712 10709 ] final -178.59 input   66.30 | X-H torsion
[ 10763 10752 10751 10750 ] final  -74.16 input  -60.55 | X-H torsion
[ 11005 11000 10999 10996 ] final -133.45 input  -57.11 | X-H torsion

> <Gold.Protein.ActiveResidues>
 VAL166  LYS551  ARG553  GLY616  TRP617  ASP618  TYR619  PRO620  LYS621  CYS622 
 ASP623  PHE694  ASN695  SER759  ASP760  ASP761  ALA762  ILE779  LEU786  VAL792 
 PHE793  MET794  SER795  GLU796  ALA797  LYS798  CYS799  TRP800  GLU811  SER814 

> <Gold.Protein.RotatedAtoms>
  151.2623  133.4295  159.2616 H   0  0  0  0  0  0  0  0  0  0  0  0  # atno 6907 bound_to 6896
  151.0519  134.9679  159.8226 H   0  0  0  0  0  0  0  0  0  0  0  0  # atno 6908 bound_to 6896
  152.5384  134.2577  159.8976 H   0  0  0  0  0  0  0  0  0  0  0  0  # atno 6909 bound_to 6896
  144.7131  140.0868  143.6423 H   0  0  0  0  0  0  0  0  0  0  0  0  # atno 7974 bound_to 7965
  154.4736  140.0912  156.7206 H   0  0  0  0  0  0  0  0  0  0  0  0  # atno 8008 bound_to 7997
  155.4657  140.3462  155.4300 H   0  0  0  0  0  0  0  0  0  0  0  0  # atno 8009 bound_to 7997
  156.1080  140.1440  156.9366 H   0  0  0  0  0  0  0  0  0  0  0  0  # atno 8010 bound_to 7997
  139.4951  144.3892  151.9536 H   0  0  0  0  0  0  0  0  0  0  0  0  # atno 10167 bound_to 10162
  156.8465  130.9704  151.3096 H   0  0  0  0  0  0  0  0  0  0  0  0  # atno 10718 bound_to 10713
  154.4693  135.5873  153.6310 H   0  0  0  0  0  0  0  0  0  0  0  0  # atno 10763 bound_to 10752
  152.9832  135.6063  154.3387 H   0  0  0  0  0  0  0  0  0  0  0  0  # atno 10764 bound_to 10752
  154.3267  135.2843  155.2471 H   0  0  0  0  0  0  0  0  0  0  0  0  # atno 10765 bound_to 10752
  140.9079  134.1605  157.4411 H   0  0  0  0  0  0  0  0  0  0  0  0  # atno 11005 bound_to 11000
  145.9655  139.2831  143.1130 LP  0  0  0  0  0  0  0  0  0  0  0  0  # atno 17320 bound_to 7965
  145.9174  140.9139  143.0423 LP  0  0  0  0  0  0  0  0  0  0  0  0  # atno 17321 bound_to 7965
  140.3329  144.3295  150.5983 LP  0  0  0  0  0  0  0  0  0  0  0  0  # atno 17342 bound_to 10162
  140.5630  143.2190  151.7732 LP  0  0  0  0  0  0  0  0  0  0  0  0  # atno 17343 bound_to 10162
  157.6327  130.8742  149.9303 LP  0  0  0  0  0  0  0  0  0  0  0  0  # atno 17370 bound_to 10713
  156.0852  130.3669  150.0502 LP  0  0  0  0  0  0  0  0  0  0  0  0  # atno 17371 bound_to 10713
  139.8752  134.9924  156.5596 LP  0  0  0  0  0  0  0  0  0  0  0  0  # atno 17394 bound_to 11000
  140.8147  133.8401  155.8841 LP  0  0  0  0  0  0  0  0  0  0  0  0  # atno 17395 bound_to 11000

$$$$
