AV-unprocessed.smi:1230|AV-procd|sdf|5154|dock4
  -GOLD-   22720 4223D 1   1.00000     0.00000
 Structure written by MMmdl.
 38 39  0  0  0  0  0  0  0  0  2 V2000
  152.9038  141.3207  159.7588 C   0  0  0  0  0  0  0  0  0  0  0  0
  152.6805  142.8166  159.4884 C   0  0  2  0  0  0  0  0  0  0  0  0
  151.9424  143.4998  160.6574 C   0  0  0  0  0  0  0  0  0  0  0  0
  151.7677  145.0063  160.4087 C   0  0  0  0  0  0  0  0  0  0  0  0
  151.0440  145.2705  159.0801 C   0  0  0  0  0  0  0  0  0  0  0  0
  151.7667  144.5895  157.9053 C   0  0  0  0  0  0  0  0  0  0  0  0
  151.9604  143.0806  158.1443 C   0  0  2  0  0  0  0  0  0  0  0  0
  150.6742  142.4750  158.1628 O   0  0  0  0  0  0  0  0  0  0  0  0
  150.6501  141.1168  157.7507 C   0  0  0  0  0  0  0  0  0  0  0  0
  150.9367  141.0585  156.2427 C   0  0  0  0  0  0  0  0  0  0  0  0
  151.0894  139.6684  155.7916 N   0  0  0  0  0  0  0  0  0  0  0  0
  150.0853  138.7559  156.1580 C   0  0  0  0  0  0  0  0  0  0  0  0
  150.1638  137.4518  155.8343 C   0  0  0  0  0  0  0  0  0  0  0  0
  149.1670  136.5036  156.2086 C   0  0  0  0  0  0  0  0  0  0  0  0
  148.3351  135.7541  156.5032 N   0  0  0  0  0  0  0  0  0  0  0  0
  151.3240  136.9871  155.0781 C   0  0  0  0  0  0  0  0  0  0  0  0
  151.4191  135.8013  154.7643 O   0  0  0  0  0  0  0  0  0  0  0  0
  152.2696  137.9161  154.7494 N   0  5  0  0  0  0  0  0  0  0  0  0
  152.1838  139.2388  155.0943 C   0  0  0  0  0  0  0  0  0  0  0  0
  153.0618  140.0520  154.8050 O   0  0  0  0  0  0  0  0  0  0  0  0
  151.9597  140.7986  159.9111 H   0  0  0  0  0  0  0  0  0  0  0  0
  153.5081  141.1704  160.6535 H   0  0  0  0  0  0  0  0  0  0  0  0
  153.4207  140.8415  158.9271 H   0  0  0  0  0  0  0  0  0  0  0  0
  153.6693  143.2721  159.4173 H   0  0  0  0  0  0  0  0  0  0  0  0
  150.9646  143.0373  160.8004 H   0  0  0  0  0  0  0  0  0  0  0  0
  152.4921  143.3460  161.5865 H   0  0  0  0  0  0  0  0  0  0  0  0
  151.2110  145.4563  161.2312 H   0  0  0  0  0  0  0  0  0  0  0  0
  152.7449  145.4904  160.3946 H   0  0  0  0  0  0  0  0  0  0  0  0
  150.0193  144.9029  159.1444 H   0  0  0  0  0  0  0  0  0  0  0  0
  150.9753  146.3437  158.9013 H   0  0  0  0  0  0  0  0  0  0  0  0
  151.2096  144.7510  156.9820 H   0  0  0  0  0  0  0  0  0  0  0  0
  152.7405  145.0593  157.7618 H   0  0  0  0  0  0  0  0  0  0  0  0
  152.5656  142.6848  157.3260 H   0  0  0  0  0  0  0  0  0  0  0  0
  151.4070  140.5591  158.3033 H   0  0  0  0  0  0  0  0  0  0  0  0
  149.6849  140.6564  157.9665 H   0  0  0  0  0  0  0  0  0  0  0  0
  150.1338  141.5516  155.6932 H   0  0  0  0  0  0  0  0  0  0  0  0
  151.8343  141.6352  156.0143 H   0  0  0  0  0  0  0  0  0  0  0  0
  149.2676  139.1758  156.7259 H   0  0  0  0  0  0  0  0  0  0  0  0
  1  2  1  0  0  0  0
  1 21  1  0  0  0  0
  1 22  1  0  0  0  0
  1 23  1  0  0  0  0
  2  7  1  0  0  0  0
  2  3  1  0  0  0  0
  2 24  1  0  0  0  0
  3  4  1  0  0  0  0
  3 25  1  0  0  0  0
  3 26  1  0  0  0  0
  4  5  1  0  0  0  0
  4 27  1  0  0  0  0
  4 28  1  0  0  0  0
  5  6  1  0  0  0  0
  5 29  1  0  0  0  0
  5 30  1  0  0  0  0
  6  7  1  0  0  0  0
  6 31  1  0  0  0  0
  6 32  1  0  0  0  0
  7  8  1  0  0  0  0
  7 33  1  0  0  0  0
  8  9  1  0  0  0  0
  9 10  1  0  0  0  0
  9 34  1  0  0  0  0
  9 35  1  0  0  0  0
 10 11  1  0  0  0  0
 10 36  1  0  0  0  0
 10 37  1  0  0  0  0
 11 19  1  0  0  0  0
 11 12  1  0  0  0  0
 12 13  2  0  0  0  0
 12 38  1  0  0  0  0
 13 14  1  0  0  0  0
 13 16  1  0  0  0  0
 14 15  3  0  0  0  0
 16 17  2  0  0  0  0
 16 18  1  0  0  0  0
 18 19  1  0  0  0  0
 19 20  2  0  0  0  0
M  CHG  1  18  -1
M  END
> <s_m_source_file>
AV-unprocessed.smi

> <i_m_source_file_index>
1230

> <i_lp_mmshare_version>
43012

> <i_f3d_flags>
0

> <s_epik_input>
W0NIM11bQ0BASF0xW0NIMl1bQ0gyXVtDSDJdW0NIMl1bQ0BIXTFPW0NIMl1bQ0gyXW4yW2NIXWMoQyNOKWMoPU8pW25IXWMyPU8=

> <s_epik_cmdline>
J2VwaWtfcHl0aG9uJywgJy1waCcsICc3LjAnLCAnLXRuJywgJzgnLCAnLW1hJywgJzIwMCcsICctbWV0YWxfYmluZGluZycsICctaW1hZScsICc8aW5maWxlLm1hZT4nLCAnLW9tYWUnLCAnPG91dGZpbGUubWFlPic=

> <r_epik_Ionization_Penalty>
0.400014

> <r_epik_Ionization_Penalty_Charging>
4.81474e-10

> <r_epik_Ionization_Penalty_Neutral>
0.400014

> <r_epik_State_Penalty>
0.399305

> <r_epik_Charging_Adjusted_Penalty>
0.399305

> <i_epik_Tot_Q>
-1

> <i_epik_Tot_abs_Q>
1

> <r_epik_Metal_State_Penalty>
0.00056968

> <b_epik_Metal_Only>
0

> <s_lp_Force_Field>
OPLS_2005

> <r_lp_Energy>
23.6977

> <b_lp_Chiralities_Consistent>
1

> <s_lp_Variant>
AV-unprocessed.smi:1230-3

> <Gold.Version>
5.8.1

> <Gold.Id.Protein>
6NUR|6NUR_protein|mol2

> <Gold.PLP.Fitness>
46.6641

> <Gold.PLP.PLP>
-40.7692

> <Gold.PLP.part.hbond>
-3.2925

> <Gold.PLP.part.metal>
0.0000

> <Gold.PLP.part.buried>
-4.8337

> <Gold.PLP.part.nonpolar>
-32.9340

> <Gold.PLP.part.repulsive>
0.3536

> <Gold.PLP.ligand.clash>
0.0000

> <Gold.PLP.ligand.torsion>
0.4288

> <Gold.PLP.Chemscore.Hbond>
2.2412

> <Gold.PLP.Chemscore.CHOScore>
0.0000

> <Gold.PLP.Chemscore.Metal>
0.0000

> <Gold.Chemscore.Hbonds>
donor molecule, donor type, donor heavy atom, donor atom, acceptor molecule, acceptor atom, score
      P1  H  7989  7998       L1    20  0.09
      P1  H  7997  8009       L1    20  1.00
      P1  H 10752 10763       L1    17  0.99

> <Gold.PLP.Chemscore.Internal.Correction>
0.0290

> <Gold.Rescore>
     Score         DG    S(hbond)    S(metal)    S(lipo)     H(rot)  DE(clash)    DE(int)     intcor
     15.11     -15.83       1.11        0.00      98.18       1.90       0.17       0.55       ----

> <Gold.Chemscore.Fitness>
15.1063

> <Gold.Chemscore.DG>
-15.8285

> <Gold.Chemscore.ZeroCoef>
-5.4800

> <Gold.Chemscore.Hbond>
1.1142

> <Gold.Chemscore.Metal>
0.0000

> <Gold.Chemscore.Lipo>
98.1777

> <Gold.Chemscore.Internal_Hbond>
0.0000

> <Gold.Chemscore.DEClash>
0.1725

> <Gold.Chemscore.DEInternal>
0.5497

> <Gold.Chemscore.Rot>
1.8984

> <Gold.Chemscore.Internal.Correction>
   9.000000E+99

> <Gold.Chemscore.Hbonds>
donor molecule, donor type, donor heavy atom, donor atom, acceptor molecule, acceptor atom, score
      P1  H  7997  8009       L1    20  0.97
      P1  H 10752 10763       L1    17  0.47

> <Gold.Chemscore.Hbond.Weighted>
-3.7215

> <Gold.Chemscore.Metal.Weighted>
-0.0000

> <Gold.Chemscore.Lipo.Weighted>
-11.4868

> <Gold.Chemscore.Internal_Hbond.Weighted>
0.0000

> <Gold.Chemscore.DEClash.Weighted>
0.1725

> <Gold.Chemscore.DEInternal.Weighted>
0.5497

> <Gold.Chemscore.Rot.Weighted>
4.8598

> <Gold.Chemscore.Internal.Correction.Weighted>
   9.000000E+99

> <Gold.Protein.RotatedTorsions>
[ 6907 6896 6895 6894 ] final -127.59 input  -60.11 | X-H torsion
[ 7974 7965 7964 7962 ] final -150.26 input  175.53 | X-H torsion
[ 8008 7997 7996 7995 ] final -113.68 input   59.86 | X-H torsion
[ 10167 10162 10161 10158 ] final -154.63 input  -65.29 | X-H torsion
[ 10718 10713 10712 10709 ] final  -18.53 input   66.30 | X-H torsion
[ 10763 10752 10751 10750 ] final   56.46 input  -60.55 | X-H torsion
[ 11005 11000 10999 10996 ] final -104.82 input  -57.11 | X-H torsion

> <Gold.Protein.ActiveResidues>
 VAL166  LYS551  ARG553  GLY616  TRP617  ASP618  TYR619  PRO620  LYS621  CYS622 
 ASP623  PHE694  ASN695  SER759  ASP760  ASP761  ALA762  ILE779  LEU786  VAL792 
 PHE793  MET794  SER795  GLU796  ALA797  LYS798  CYS799  TRP800  GLU811  SER814 

> <Gold.Protein.RotatedAtoms>
  150.9089  133.7023  159.2859 H   0  0  0  0  0  0  0  0  0  0  0  0  # atno 6907 bound_to 6896
  151.4516  135.1029  159.9709 H   0  0  0  0  0  0  0  0  0  0  0  0  # atno 6908 bound_to 6896
  152.4919  133.8473  159.7239 H   0  0  0  0  0  0  0  0  0  0  0  0  # atno 6909 bound_to 6896
  144.7918  140.4955  143.5767 H   0  0  0  0  0  0  0  0  0  0  0  0  # atno 7974 bound_to 7965
  155.0246  140.0393  157.2450 H   0  0  0  0  0  0  0  0  0  0  0  0  # atno 8008 bound_to 7997
  154.7349  140.2737  155.6400 H   0  0  0  0  0  0  0  0  0  0  0  0  # atno 8009 bound_to 7997
  156.2850  140.2677  156.2059 H   0  0  0  0  0  0  0  0  0  0  0  0  # atno 8010 bound_to 7997
  139.6998  143.9282  152.2423 H   0  0  0  0  0  0  0  0  0  0  0  0  # atno 10167 bound_to 10162
  156.5583  130.4719  149.6419 H   0  0  0  0  0  0  0  0  0  0  0  0  # atno 10718 bound_to 10713
  152.9832  135.5675  154.5233 H   0  0  0  0  0  0  0  0  0  0  0  0  # atno 10763 bound_to 10752
  154.4717  135.2785  155.1640 H   0  0  0  0  0  0  0  0  0  0  0  0  # atno 10764 bound_to 10752
  154.3185  135.6274  153.5550 H   0  0  0  0  0  0  0  0  0  0  0  0  # atno 10765 bound_to 10752
  141.1082  133.8756  157.1658 H   0  0  0  0  0  0  0  0  0  0  0  0  # atno 11005 bound_to 11000
  145.5775  139.1487  143.3254 LP  0  0  0  0  0  0  0  0  0  0  0  0  # atno 17320 bound_to 7965
  146.2173  140.5906  142.9033 LP  0  0  0  0  0  0  0  0  0  0  0  0  # atno 17321 bound_to 7965
  139.9121  144.6850  150.8551 LP  0  0  0  0  0  0  0  0  0  0  0  0  # atno 17342 bound_to 10162
  140.7706  143.3435  151.2158 LP  0  0  0  0  0  0  0  0  0  0  0  0  # atno 17343 bound_to 10162
  156.2822  130.7077  151.1904 LP  0  0  0  0  0  0  0  0  0  0  0  0  # atno 17370 bound_to 10713
  157.7374  131.0552  150.5359 LP  0  0  0  0  0  0  0  0  0  0  0  0  # atno 17371 bound_to 10713
  139.9963  135.0045  157.0090 LP  0  0  0  0  0  0  0  0  0  0  0  0  # atno 17394 bound_to 11000
  140.4845  134.1256  155.7222 LP  0  0  0  0  0  0  0  0  0  0  0  0  # atno 17395 bound_to 11000

$$$$
