AV-unprocessed.smi:1778|AV-procd|sdf|7180|dock9
  -GOLD-   22720 8423D 1   1.00000     0.00000
 Structure written by MMmdl.
 34 35  0  0  0  0  0  0  0  0  1 V2000
  146.7669  141.6987  154.3700 C   0  0  0  0  0  0  0  0  0  0  0  0
  148.0558  140.9326  154.4578 C   0  0  0  0  0  0  0  0  0  0  0  0
  149.1925  141.5958  154.5859 N   0  0  0  0  0  0  0  0  0  0  0  0
  150.1999  140.6271  154.6268 O   0  0  0  0  0  0  0  0  0  0  0  0
  149.6228  139.4033  154.5191 C   0  0  0  0  0  0  0  0  0  0  0  0
  150.5368  138.2251  154.5335 C   0  0  0  0  0  0  0  0  0  0  0  0
  148.2649  139.5232  154.4092 C   0  0  0  0  0  0  0  0  0  0  0  0
  147.2395  138.4279  154.2634 C   0  0  0  0  0  0  0  0  0  0  0  0
  147.6022  137.2586  155.1782 C   0  0  0  0  0  0  0  0  0  0  0  0
  147.2742  137.2789  156.3641 O   0  0  0  0  0  0  0  0  0  0  0  0
  148.2809  136.2478  154.6142 N   0  0  0  0  0  0  0  0  0  0  0  0
  148.7412  135.0525  155.3113 C   0  0  1  0  0  0  0  0  0  0  0  0
  149.4523  134.0653  154.3636 C   0  0  0  0  0  0  0  0  0  0  0  0
  150.2265  133.0458  155.2079 C   0  0  0  0  0  0  0  0  0  0  0  0
  150.7319  133.9278  156.7332 S   0  0  0  0  0  0  0  0  0  0  0  0
  150.2012  133.2064  157.8998 O   0  0  0  0  0  0  0  0  0  0  0  0
  152.1559  134.2850  156.6475 O   0  0  0  0  0  0  0  0  0  0  0  0
  149.7222  135.4266  156.4311 C   0  0  0  0  0  0  0  0  0  0  0  0
  146.6210  142.0997  153.3670 H   0  0  0  0  0  0  0  0  0  0  0  0
  146.7545  142.5355  155.0690 H   0  0  0  0  0  0  0  0  0  0  0  0
  145.9097  141.0669  154.6012 H   0  0  0  0  0  0  0  0  0  0  0  0
  150.4849  137.6872  153.5867 H   0  0  0  0  0  0  0  0  0  0  0  0
  150.2624  137.5338  155.3301 H   0  0  0  0  0  0  0  0  0  0  0  0
  151.5713  138.5301  154.6932 H   0  0  0  0  0  0  0  0  0  0  0  0
  146.2415  138.7835  154.5227 H   0  0  0  0  0  0  0  0  0  0  0  0
  147.1718  138.0730  153.2346 H   0  0  0  0  0  0  0  0  0  0  0  0
  148.5037  136.3184  153.6318 H   0  0  0  0  0  0  0  0  0  0  0  0
  147.8899  134.5426  155.7670 H   0  0  0  0  0  0  0  0  0  0  0  0
  148.7524  133.5729  153.6877 H   0  0  0  0  0  0  0  0  0  0  0  0
  150.1620  134.6132  153.7419 H   0  0  0  0  0  0  0  0  0  0  0  0
  149.5810  132.2164  155.4979 H   0  0  0  0  0  0  0  0  0  0  0  0
  151.1009  132.6442  154.6956 H   0  0  0  0  0  0  0  0  0  0  0  0
  150.3991  136.2223  156.1179 H   0  0  0  0  0  0  0  0  0  0  0  0
  149.2232  135.7360  157.3497 H   0  0  0  0  0  0  0  0  0  0  0  0
  1  2  1  0  0  0  0
  1 19  1  0  0  0  0
  1 20  1  0  0  0  0
  1 21  1  0  0  0  0
  2  7  1  0  0  0  0
  2  3  2  0  0  0  0
  3  4  1  0  0  0  0
  4  5  1  0  0  0  0
  5  6  1  0  0  0  0
  5  7  2  0  0  0  0
  6 22  1  0  0  0  0
  6 23  1  0  0  0  0
  6 24  1  0  0  0  0
  7  8  1  0  0  0  0
  8  9  1  0  0  0  0
  8 25  1  0  0  0  0
  8 26  1  0  0  0  0
  9 10  2  0  0  0  0
  9 11  1  0  0  0  0
 11 12  1  0  0  0  0
 11 27  1  0  0  0  0
 12 18  1  0  0  0  0
 12 13  1  0  0  0  0
 12 28  1  0  0  0  0
 13 14  1  0  0  0  0
 13 29  1  0  0  0  0
 13 30  1  0  0  0  0
 14 15  1  0  0  0  0
 14 31  1  0  0  0  0
 14 32  1  0  0  0  0
 15 16  2  0  0  0  0
 15 17  2  0  0  0  0
 15 18  1  0  0  0  0
 18 33  1  0  0  0  0
 18 34  1  0  0  0  0
M  END
> <s_m_source_file>
AV-unprocessed.smi

> <i_m_source_file_index>
1778

> <i_lp_mmshare_version>
43012

> <i_f3d_flags>
0

> <s_epik_input>
W0NIM11jMW5vYyhbQ0gzXSljMVtDSDJdQyg9TylbTkhdW0NAQEhdKFtDSDJdMilbQ0gyXVtDSDJdUzIoPU8pPU8=

> <s_epik_cmdline>
J2VwaWtfcHl0aG9uJywgJy1waCcsICc3LjAnLCAnLXRuJywgJzgnLCAnLW1hJywgJzIwMCcsICctbWV0YWxfYmluZGluZycsICctaW1hZScsICc8aW5maWxlLm1hZT4nLCAnLW9tYWUnLCAnPG91dGZpbGUubWFlPic=

> <r_lp_tautomer_probability>
1

> <r_epik_Ionization_Penalty>
1.26334e-07

> <r_epik_Ionization_Penalty_Charging>
0

> <r_epik_Ionization_Penalty_Neutral>
1.26334e-07

> <r_epik_State_Penalty>
-0

> <r_epik_Charging_Adjusted_Penalty>
0

> <i_epik_Tot_Q>
0

> <i_epik_Tot_abs_Q>
0

> <r_epik_Metal_State_Penalty>
-0

> <b_epik_Metal_Only>
0

> <s_lp_Force_Field>
OPLS_2005

> <r_lp_Energy>
-2.84578

> <b_lp_Chiralities_Consistent>
1

> <s_lp_Variant>
AV-unprocessed.smi:1778-2

> <Gold.Version>
5.8.1

> <Gold.Id.Protein>
6NUR|6NUR_protein|mol2

> <Gold.PLP.Fitness>
37.3071

> <Gold.PLP.PLP>
-27.4875

> <Gold.PLP.part.hbond>
-6.0422

> <Gold.PLP.part.metal>
0.0000

> <Gold.PLP.part.buried>
-0.3252

> <Gold.PLP.part.nonpolar>
-20.7398

> <Gold.PLP.part.repulsive>
0.3278

> <Gold.PLP.ligand.clash>
0.0000

> <Gold.PLP.ligand.torsion>
0.6051

> <Gold.PLP.Chemscore.Hbond>
3.6760

> <Gold.PLP.Chemscore.CHOScore>
0.0000

> <Gold.PLP.Chemscore.Metal>
0.0000

> <Gold.Chemscore.Hbonds>
donor molecule, donor type, donor heavy atom, donor atom, acceptor molecule, acceptor atom, score
      L1  H    11    27       P1  7948  1.00
      P1  H  6896  6909       L1    16  1.00
      P1  H  7989  7998       L1     4  0.86
      P1  H 10752 10763       L1    17  0.53

> <Gold.PLP.Chemscore.Internal.Correction>
0.0017

> <Gold.Rescore>
     Score         DG    S(hbond)    S(metal)    S(lipo)     H(rot)  DE(clash)    DE(int)     intcor
     17.42     -19.01       3.26        0.00      55.65       1.51       1.16       0.43       ----

> <Gold.Chemscore.Fitness>
17.4216

> <Gold.Chemscore.DG>
-19.0105

> <Gold.Chemscore.ZeroCoef>
-5.4800

> <Gold.Chemscore.Hbond>
3.2553

> <Gold.Chemscore.Metal>
0.0000

> <Gold.Chemscore.Lipo>
55.6484

> <Gold.Chemscore.Internal_Hbond>
0.0000

> <Gold.Chemscore.DEClash>
1.1615

> <Gold.Chemscore.DEInternal>
0.4275

> <Gold.Chemscore.Rot>
1.5051

> <Gold.Chemscore.Internal.Correction>
   9.000000E+99

> <Gold.Chemscore.Hbonds>
donor molecule, donor type, donor heavy atom, donor atom, acceptor molecule, acceptor atom, score
      L1  H    11    27       P1  7948  1.00
      P1  H  6896  6909       L1    16  0.80
      P1  H  7989  7998       L1     4  0.69
      P1  H 10752 10763       L1    17  0.52

> <Gold.Chemscore.Hbond.Weighted>
-10.8728

> <Gold.Chemscore.Metal.Weighted>
-0.0000

> <Gold.Chemscore.Lipo.Weighted>
-6.5109

> <Gold.Chemscore.Internal_Hbond.Weighted>
0.0000

> <Gold.Chemscore.DEClash.Weighted>
1.1615

> <Gold.Chemscore.DEInternal.Weighted>
0.4275

> <Gold.Chemscore.Rot.Weighted>
3.8531

> <Gold.Chemscore.Internal.Correction.Weighted>
   9.000000E+99

> <Gold.Protein.RotatedTorsions>
[ 6907 6896 6895 6894 ] final  -18.42 input  -60.11 | X-H torsion
[ 7974 7965 7964 7962 ] final  -59.29 input  175.53 | X-H torsion
[ 8008 7997 7996 7995 ] final -101.83 input   59.86 | X-H torsion
[ 10167 10162 10161 10158 ] final -140.23 input  -65.29 | X-H torsion
[ 10718 10713 10712 10709 ] final -150.53 input   66.30 | X-H torsion
[ 10763 10752 10751 10750 ] final  102.98 input  -60.55 | X-H torsion
[ 11005 11000 10999 10996 ] final  -42.34 input  -57.11 | X-H torsion

> <Gold.Protein.ActiveResidues>
 VAL166  LYS551  ARG553  GLY616  TRP617  ASP618  TYR619  PRO620  LYS621  CYS622 
 ASP623  PHE694  ASN695  SER759  ASP760  ASP761  ALA762  ILE779  LEU786  VAL792 
 PHE793  MET794  SER795  GLU796  ALA797  LYS798  CYS799  TRP800  GLU811  SER814 

> <Gold.Protein.RotatedAtoms>
  151.2784  135.0706  159.9159 H   0  0  0  0  0  0  0  0  0  0  0  0  # atno 6907 bound_to 6896
  152.5338  134.0056  159.7925 H   0  0  0  0  0  0  0  0  0  0  0  0  # atno 6908 bound_to 6896
  151.0306  133.5743  159.2692 H   0  0  0  0  0  0  0  0  0  0  0  0  # atno 6909 bound_to 6896
  145.8292  140.8491  143.0092 H   0  0  0  0  0  0  0  0  0  0  0  0  # atno 7974 bound_to 7965
  154.8481  140.0432  157.1586 H   0  0  0  0  0  0  0  0  0  0  0  0  # atno 8008 bound_to 7997
  154.8973  140.2995  155.5317 H   0  0  0  0  0  0  0  0  0  0  0  0  # atno 8009 bound_to 7997
  156.2995  140.2382  156.3996 H   0  0  0  0  0  0  0  0  0  0  0  0  # atno 8010 bound_to 7997
  139.8301  143.7458  152.2666 H   0  0  0  0  0  0  0  0  0  0  0  0  # atno 10167 bound_to 10162
  156.4474  130.8151  151.2382 H   0  0  0  0  0  0  0  0  0  0  0  0  # atno 10718 bound_to 10713
  153.3466  135.3992  155.1614 H   0  0  0  0  0  0  0  0  0  0  0  0  # atno 10763 bound_to 10752
  154.8654  135.3646  154.5276 H   0  0  0  0  0  0  0  0  0  0  0  0  # atno 10764 bound_to 10752
  153.5724  135.7078  153.5558 H   0  0  0  0  0  0  0  0  0  0  0  0  # atno 10765 bound_to 10752
  141.0309  133.6820  156.2582 H   0  0  0  0  0  0  0  0  0  0  0  0  # atno 11005 bound_to 11000
  144.6741  140.0647  143.7475 LP  0  0  0  0  0  0  0  0  0  0  0  0  # atno 17320 bound_to 7965
  145.9590  139.2787  143.1167 LP  0  0  0  0  0  0  0  0  0  0  0  0  # atno 17321 bound_to 7965
  139.7663  144.7491  151.0290 LP  0  0  0  0  0  0  0  0  0  0  0  0  # atno 17342 bound_to 10162
  140.7807  143.4695  151.0166 LP  0  0  0  0  0  0  0  0  0  0  0  0  # atno 17343 bound_to 10162
  157.7504  131.0149  150.3482 LP  0  0  0  0  0  0  0  0  0  0  0  0  # atno 17370 bound_to 10713
  156.3853  130.3888  149.7071 LP  0  0  0  0  0  0  0  0  0  0  0  0  # atno 17371 bound_to 10713
  140.6408  134.5167  157.5569 LP  0  0  0  0  0  0  0  0  0  0  0  0  # atno 17394 bound_to 11000
  139.9207  134.8154  156.1220 LP  0  0  0  0  0  0  0  0  0  0  0  0  # atno 17395 bound_to 11000

$$$$
