AV-unprocessed.smi:3010|AV-procd|sdf|11455|dock10
  -GOLD-   2272016393D 1   1.00000     0.00000
 Structure written by MMmdl.
 38 40  0  0  0  0  0  0  0  0  1 V2000
  151.6339  145.2329  160.3795 C   0  0  0  0  0  0  0  0  0  0  0  0
  152.0390  143.8578  160.0320 N   0  0  0  0  0  0  0  0  0  0  0  0
  151.6126  143.3392  158.8374 C   0  0  0  0  0  0  0  0  0  0  0  0
  150.9111  143.9348  158.0184 O   0  0  0  0  0  0  0  0  0  0  0  0
  152.0660  141.9677  158.5924 C   0  0  0  0  0  0  0  0  0  0  0  0
  152.8381  141.2776  159.4654 C   0  0  0  0  0  0  0  0  0  0  0  0
  153.1235  140.0021  158.9912 N   0  0  0  0  0  0  0  0  0  0  0  0
  152.4848  139.9925  157.8200 C   0  0  0  0  0  0  0  0  0  0  0  0
  151.8267  141.1276  157.5071 N   0  0  0  0  0  0  0  0  0  0  0  0
  151.0555  141.3761  156.2989 C   0  0  0  0  0  0  0  0  0  0  0  0
  150.8103  140.0970  155.4741 C   0  0  2  0  0  0  0  0  0  0  0  0
  151.9330  139.8277  154.6558 O   0  0  0  0  0  0  0  0  0  0  0  0
  149.5224  140.1994  154.6721 C   0  0  0  0  0  0  0  0  0  0  0  0
  148.9787  139.0471  154.0650 C   0  0  0  0  0  0  0  0  0  0  0  0
  147.7812  139.1307  153.3280 C   0  0  0  0  0  0  0  0  0  0  0  0
  147.1190  140.3665  153.1966 C   0  0  0  0  0  0  0  0  0  0  0  0
  147.6538  141.5187  153.8041 C   0  0  0  0  0  0  0  0  0  0  0  0
  148.8513  141.4356  154.5410 C   0  0  0  0  0  0  0  0  0  0  0  0
  153.2264  141.9078  160.6735 N   0  0  0  0  0  0  0  0  0  0  0  0
  154.0621  141.1311  161.5938 C   0  0  0  0  0  0  0  0  0  0  0  0
  152.8260  143.1916  160.9573 C   0  0  0  0  0  0  0  0  0  0  0  0
  153.1603  143.7367  162.0127 O   0  0  0  0  0  0  0  0  0  0  0  0
  151.0374  145.7415  159.6215 H   0  0  0  0  0  0  0  0  0  0  0  0
  152.5120  145.8579  160.5504 H   0  0  0  0  0  0  0  0  0  0  0  0
  151.0398  145.2326  161.2949 H   0  0  0  0  0  0  0  0  0  0  0  0
  152.4921  139.1302  157.1695 H   0  0  0  0  0  0  0  0  0  0  0  0
  150.1090  141.8375  156.5818 H   0  0  0  0  0  0  0  0  0  0  0  0
  151.5855  142.1159  155.6970 H   0  0  0  0  0  0  0  0  0  0  0  0
  150.7179  139.2489  156.1533 H   0  0  0  0  0  0  0  0  0  0  0  0
  152.7156  139.9678  155.1670 H   0  0  0  0  0  0  0  0  0  0  0  0
  149.4774  138.0937  154.1640 H   0  0  0  0  0  0  0  0  0  0  0  0
  147.3700  138.2461  152.8643 H   0  0  0  0  0  0  0  0  0  0  0  0
  146.2003  140.4303  152.6321 H   0  0  0  0  0  0  0  0  0  0  0  0
  147.1451  142.4664  153.7063 H   0  0  0  0  0  0  0  0  0  0  0  0
  149.2511  142.3242  155.0074 H   0  0  0  0  0  0  0  0  0  0  0  0
  154.3315  141.6555  162.5108 H   0  0  0  0  0  0  0  0  0  0  0  0
  154.9911  140.8450  161.0995 H   0  0  0  0  0  0  0  0  0  0  0  0
  153.5436  140.2167  161.8841 H   0  0  0  0  0  0  0  0  0  0  0  0
  1  2  1  0  0  0  0
  1 23  1  0  0  0  0
  1 24  1  0  0  0  0
  1 25  1  0  0  0  0
  2 21  1  0  0  0  0
  2  3  1  0  0  0  0
  3  4  2  0  0  0  0
  3  5  1  0  0  0  0
  5  9  1  0  0  0  0
  5  6  2  0  0  0  0
  6  7  1  0  0  0  0
  6 19  1  0  0  0  0
  7  8  2  0  0  0  0
  8  9  1  0  0  0  0
  8 26  1  0  0  0  0
  9 10  1  0  0  0  0
 10 11  1  0  0  0  0
 10 27  1  0  0  0  0
 10 28  1  0  0  0  0
 11 12  1  0  0  0  0
 11 13  1  0  0  0  0
 11 29  1  0  0  0  0
 12 30  1  0  0  0  0
 13 18  1  0  0  0  0
 13 14  2  0  0  0  0
 14 15  1  0  0  0  0
 14 31  1  0  0  0  0
 15 16  2  0  0  0  0
 15 32  1  0  0  0  0
 16 17  1  0  0  0  0
 16 33  1  0  0  0  0
 17 18  2  0  0  0  0
 17 34  1  0  0  0  0
 18 35  1  0  0  0  0
 19 20  1  0  0  0  0
 19 21  1  0  0  0  0
 20 36  1  0  0  0  0
 20 37  1  0  0  0  0
 20 38  1  0  0  0  0
 21 22  2  0  0  0  0
M  END
> <s_m_source_file>
AV-unprocessed.smi

> <i_m_source_file_index>
3010

> <i_lp_mmshare_version>
43012

> <i_f3d_flags>
0

> <s_epik_input>
Tz1jMW4oW0NIM10pYyg9TyluKFtDSDNdKWMoYzEyKW5bY0hdbjJbQ0gyXVtDQEhdKFtPSF0pYzNbY0hdW2NIXVtjSF1bY0hdW2NIXTM=

> <s_epik_cmdline>
J2VwaWtfcHl0aG9uJywgJy1waCcsICc3LjAnLCAnLXRuJywgJzgnLCAnLW1hJywgJzIwMCcsICctbWV0YWxfYmluZGluZycsICctaW1hZScsICc8aW5maWxlLm1hZT4nLCAnLW9tYWUnLCAnPG91dGZpbGUubWFlPic=

> <r_lp_tautomer_probability>
1

> <r_epik_Ionization_Penalty>
1.43747e-06

> <r_epik_Ionization_Penalty_Charging>
3.74189e-09

> <r_epik_Ionization_Penalty_Neutral>
1.43373e-06

> <r_epik_State_Penalty>
-0

> <r_epik_Charging_Adjusted_Penalty>
3.74189e-09

> <i_epik_Tot_Q>
0

> <i_epik_Tot_abs_Q>
0

> <r_epik_Metal_State_Penalty>
-0

> <b_epik_Metal_Only>
0

> <s_lp_Force_Field>
OPLS_2005

> <r_lp_Energy>
35.6617

> <b_lp_Chiralities_Consistent>
1

> <s_lp_Variant>
AV-unprocessed.smi:3010-1

> <Gold.Version>
5.8.1

> <Gold.Id.Protein>
6NUR|6NUR_protein|mol2

> <Gold.PLP.Fitness>
50.4259

> <Gold.PLP.PLP>
-48.6417

> <Gold.PLP.part.hbond>
-1.0000

> <Gold.PLP.part.metal>
0.0000

> <Gold.PLP.part.buried>
-1.1435

> <Gold.PLP.part.nonpolar>
-46.0801

> <Gold.PLP.part.repulsive>
0.2861

> <Gold.PLP.ligand.clash>
0.0000

> <Gold.PLP.ligand.torsion>
0.6075

> <Gold.PLP.Chemscore.Hbond>
0.9920

> <Gold.PLP.Chemscore.CHOScore>
0.0000

> <Gold.PLP.Chemscore.Metal>
0.0000

> <Gold.Chemscore.Hbonds>
donor molecule, donor type, donor heavy atom, donor atom, acceptor molecule, acceptor atom, score
      P1  H  7989  7998       L1    12  0.93

> <Gold.PLP.Chemscore.Internal.Correction>
0.0231

> <Gold.Rescore>
     Score         DG    S(hbond)    S(metal)    S(lipo)     H(rot)  DE(clash)    DE(int)     intcor
     11.29     -12.04       0.69        0.00      83.40       2.15       0.10       0.64       ----

> <Gold.Chemscore.Fitness>
11.2918

> <Gold.Chemscore.DG>
-12.0358

> <Gold.Chemscore.ZeroCoef>
-5.4800

> <Gold.Chemscore.Hbond>
0.6872

> <Gold.Chemscore.Metal>
0.0000

> <Gold.Chemscore.Lipo>
83.4013

> <Gold.Chemscore.Internal_Hbond>
0.0000

> <Gold.Chemscore.DEClash>
0.1040

> <Gold.Chemscore.DEInternal>
0.6400

> <Gold.Chemscore.Rot>
2.1474

> <Gold.Chemscore.Internal.Correction>
   9.000000E+99

> <Gold.Chemscore.Hbonds>
donor molecule, donor type, donor heavy atom, donor atom, acceptor molecule, acceptor atom, score
      P1  H  7989  7998       L1    12  0.21

> <Gold.Chemscore.Hbond.Weighted>
-2.2952

> <Gold.Chemscore.Metal.Weighted>
-0.0000

> <Gold.Chemscore.Lipo.Weighted>
-9.7580

> <Gold.Chemscore.Internal_Hbond.Weighted>
0.0000

> <Gold.Chemscore.DEClash.Weighted>
0.1040

> <Gold.Chemscore.DEInternal.Weighted>
0.6400

> <Gold.Chemscore.Rot.Weighted>
5.4974

> <Gold.Chemscore.Internal.Correction.Weighted>
   9.000000E+99

> <Gold.Protein.RotatedTorsions>
[ 6907 6896 6895 6894 ] final -135.18 input  -60.11 | X-H torsion
[ 7974 7965 7964 7962 ] final  -53.75 input  175.53 | X-H torsion
[ 8008 7997 7996 7995 ] final  111.43 input   59.86 | X-H torsion
[ 10167 10162 10161 10158 ] final  -19.39 input  -65.29 | X-H torsion
[ 10718 10713 10712 10709 ] final  148.20 input   66.30 | X-H torsion
[ 10763 10752 10751 10750 ] final  133.07 input  -60.55 | X-H torsion
[ 11005 11000 10999 10996 ] final -106.98 input  -57.11 | X-H torsion

> <Gold.Protein.ActiveResidues>
 VAL166  LYS551  ARG553  GLY616  TRP617  ASP618  TYR619  PRO620  LYS621  CYS622 
 ASP623  PHE694  ASN695  SER759  ASP760  ASP761  ALA762  ILE779  LEU786  VAL792 
 PHE793  MET794  SER795  GLU796  ALA797  LYS798  CYS799  TRP800  GLU811  SER814 

> <Gold.Protein.RotatedAtoms>
  150.9947  133.6114  159.2703 H   0  0  0  0  0  0  0  0  0  0  0  0  # atno 6907 bound_to 6896
  151.3322  135.0843  159.9352 H   0  0  0  0  0  0  0  0  0  0  0  0  # atno 6908 bound_to 6896
  152.5256  133.9574  159.7755 H   0  0  0  0  0  0  0  0  0  0  0  0  # atno 6909 bound_to 6896
  145.8933  140.8053  142.9780 H   0  0  0  0  0  0  0  0  0  0  0  0  # atno 7974 bound_to 7965
  156.2123  140.3019  155.9760 H   0  0  0  0  0  0  0  0  0  0  0  0  # atno 8008 bound_to 7997
  155.2693  140.0433  157.3022 H   0  0  0  0  0  0  0  0  0  0  0  0  # atno 8009 bound_to 7997
  154.5717  140.2350  155.8190 H   0  0  0  0  0  0  0  0  0  0  0  0  # atno 8010 bound_to 7997
  140.7268  143.4823  151.0101 H   0  0  0  0  0  0  0  0  0  0  0  0  # atno 10167 bound_to 10162
  157.3116  131.0889  151.1312 H   0  0  0  0  0  0  0  0  0  0  0  0  # atno 10718 bound_to 10713
  153.8010  135.3142  155.3390 H   0  0  0  0  0  0  0  0  0  0  0  0  # atno 10763 bound_to 10752
  154.8089  135.4680  154.0467 H   0  0  0  0  0  0  0  0  0  0  0  0  # atno 10764 bound_to 10752
  153.1815  135.6894  153.8560 H   0  0  0  0  0  0  0  0  0  0  0  0  # atno 10765 bound_to 10752
  141.0977  133.8940  157.1921 H   0  0  0  0  0  0  0  0  0  0  0  0  # atno 11005 bound_to 11000
  144.6731  140.1564  143.7426 LP  0  0  0  0  0  0  0  0  0  0  0  0  # atno 17320 bound_to 7965
  145.8881  139.2360  143.1565 LP  0  0  0  0  0  0  0  0  0  0  0  0  # atno 17321 bound_to 7965
  139.8523  143.7422  152.3177 LP  0  0  0  0  0  0  0  0  0  0  0  0  # atno 17342 bound_to 10162
  139.7609  144.7507  151.0366 LP  0  0  0  0  0  0  0  0  0  0  0  0  # atno 17343 bound_to 10162
  157.2632  130.6669  149.5984 LP  0  0  0  0  0  0  0  0  0  0  0  0  # atno 17370 bound_to 10713
  155.9678  130.4502  150.5688 LP  0  0  0  0  0  0  0  0  0  0  0  0  # atno 17371 bound_to 10713
  139.9819  135.0095  156.9770 LP  0  0  0  0  0  0  0  0  0  0  0  0  # atno 17394 bound_to 11000
  140.5098  134.1013  155.7268 LP  0  0  0  0  0  0  0  0  0  0  0  0  # atno 17395 bound_to 11000

$$$$
