AV-unprocessed.smi:66|AV-procd|sdf|628|dock3
  -GOLD-   2262016523D 1   1.00000     0.00000
 Structure written by MMmdl.
 27 29  0  0  0  0  0  0  0  0  3 V2000
  151.3012  139.4084  154.7326 O   0  0  0  0  0  0  0  0  0  0  0  0
  151.8708  139.8805  155.7409 C   0  0  0  0  0  0  0  0  0  0  0  0
  152.8085  139.3327  156.3630 O   0  5  0  0  0  0  0  0  0  0  0  0
  151.3582  141.2361  156.2551 C   0  0  1  0  0  0  0  0  0  0  0  0
  150.0966  141.7062  155.5106 C   0  0  0  0  0  0  0  0  0  0  0  0
  148.9519  141.2597  156.4189 C   0  0  2  0  0  0  0  0  0  0  0  0
  147.7845  142.0339  156.2375 O   0  0  0  0  0  0  0  0  0  0  0  0
  149.5419  141.4128  157.8219 C   0  0  0  0  0  0  0  0  0  0  0  0
  150.9688  141.1634  157.6665 N   0  0  0  0  0  0  0  0  0  0  0  0
  151.9039  141.3601  158.7120 C   0  0  0  0  0  0  0  0  0  0  0  0
  152.9119  140.4563  158.8209 N   0  0  0  0  0  0  0  0  0  0  0  0
  153.8066  140.6173  159.8004 C   0  0  0  0  0  0  0  0  0  0  0  0
  153.8330  141.5931  160.7108 N   0  0  0  0  0  0  0  0  0  0  0  0
  152.8416  142.5023  160.6231 C   0  0  0  0  0  0  0  0  0  0  0  0
  152.5630  143.5750  161.3461 N   0  5  0  0  0  0  0  0  0  0  0  0
  151.4421  144.1327  160.8244 C   0  0  0  0  0  0  0  0  0  0  0  0
  150.9542  143.4631  159.7614 N   0  0  0  0  0  0  0  0  0  0  0  0
  151.8486  142.4352  159.6433 C   0  0  0  0  0  0  0  0  0  0  0  0
  152.1424  141.9811  156.1131 H   0  0  0  0  0  0  0  0  0  0  0  0
  150.1135  142.7945  155.4356 H   0  0  0  0  0  0  0  0  0  0  0  0
  150.0086  141.3098  154.4980 H   0  0  0  0  0  0  0  0  0  0  0  0
  148.7202  140.2108  156.2289 H   0  0  0  0  0  0  0  0  0  0  0  0
  148.0454  142.9144  156.0155 H   0  0  0  0  0  0  0  0  0  0  0  0
  149.3963  142.4256  158.2014 H   0  0  0  0  0  0  0  0  0  0  0  0
  149.0782  140.7079  158.5121 H   0  0  0  0  0  0  0  0  0  0  0  0
  154.5942  139.8806  159.8595 H   0  0  0  0  0  0  0  0  0  0  0  0
  151.0299  145.0300  161.2694 H   0  0  0  0  0  0  0  0  0  0  0  0
  1  2  2  0  0  0  0
  2  3  1  0  0  0  0
  2  4  1  0  0  0  0
  4  5  1  0  0  0  0
  4 19  1  0  0  0  0
  4  9  1  0  0  0  0
  5  6  1  0  0  0  0
  5 20  1  0  0  0  0
  5 21  1  0  0  0  0
  6  7  1  0  0  0  0
  6  8  1  0  0  0  0
  6 22  1  0  0  0  0
  7 23  1  0  0  0  0
  8 24  1  0  0  0  0
  8 25  1  0  0  0  0
  8  9  1  0  0  0  0
  9 10  1  0  0  0  0
 10 11  1  0  0  0  0
 10 18  2  0  0  0  0
 11 12  2  0  0  0  0
 12 26  1  0  0  0  0
 12 13  1  0  0  0  0
 13 14  2  0  0  0  0
 14 15  1  0  0  0  0
 14 18  1  0  0  0  0
 15 16  1  0  0  0  0
 16 17  2  0  0  0  0
 16 27  1  0  0  0  0
 17 18  1  0  0  0  0
M  CHG  1   3  -1
M  CHG  1  15  -1
M  END
> <s_m_source_file>
AV-unprocessed.smi

> <i_m_source_file_index>
66

> <i_lp_mmshare_version>
43012

> <i_f3d_flags>
0

> <s_epik_input>
Tz1DKFtPSF0pW0NAQEhdMVtDSDJdW0NAQEhdKFtPSF0pW0NIMl1OMWMobltjSF1uMiljKGMyMylbbkhdW2NIXW4z

> <s_epik_cmdline>
J2VwaWtfcHl0aG9uJywgJy1waCcsICc3LjAnLCAnLXRuJywgJzgnLCAnLW1hJywgJzIwMCcsICctbWV0YWxfYmluZGluZycsICctaW1hZScsICc8aW5maWxlLm1hZT4nLCAnLW9tYWUnLCAnPG91dGZpbGUubWFlPic=

> <r_lp_tautomer_probability>
0.955585

> <r_epik_Ionization_Penalty>
7.65809

> <r_epik_Ionization_Penalty_Charging>
3.4974

> <r_epik_Ionization_Penalty_Neutral>
4.16069

> <r_epik_State_Penalty>
3.51624

> <r_epik_Charging_Adjusted_Penalty>
7.01364

> <i_epik_Tot_Q>
-2

> <i_epik_Tot_abs_Q>
2

> <r_epik_Metal_State_Penalty>
0.522662

> <b_epik_Metal_Only>
1

> <s_lp_Force_Field>
OPLS_2005

> <r_lp_Energy>
43.3227

> <b_lp_Chiralities_Consistent>
1

> <s_lp_Variant>
AV-unprocessed.smi:66-12

> <Gold.Version>
5.8.1

> <Gold.Id.Protein>
6NUR|6NUR_protein|mol2

> <Gold.PLP.Fitness>
42.2806

> <Gold.PLP.PLP>
-32.0694

> <Gold.PLP.part.hbond>
-3.2763

> <Gold.PLP.part.metal>
0.0000

> <Gold.PLP.part.buried>
-6.4321

> <Gold.PLP.part.nonpolar>
-22.1350

> <Gold.PLP.part.repulsive>
0.2385

> <Gold.PLP.ligand.clash>
0.0000

> <Gold.PLP.ligand.torsion>
0.9710

> <Gold.PLP.Chemscore.Hbond>
4.0000

> <Gold.PLP.Chemscore.CHOScore>
0.0000

> <Gold.PLP.Chemscore.Metal>
0.0000

> <Gold.Chemscore.Hbonds>
donor molecule, donor type, donor heavy atom, donor atom, acceptor molecule, acceptor atom, score
      L1  H     7    23       P1  8028  1.00
      P1  H  7989  7998       L1     1  0.95
      P1  H  7997  8009       L1     3  2.00

> <Gold.PLP.Chemscore.Internal.Correction>
0.1532

> <Gold.Rescore>
     Score         DG    S(hbond)    S(metal)    S(lipo)     H(rot)  DE(clash)    DE(int)     intcor
      9.48     -12.23       2.24        0.00      32.69       1.78       0.38       2.37       ----

> <Gold.Chemscore.Fitness>
9.4847

> <Gold.Chemscore.DG>
-12.2300

> <Gold.Chemscore.ZeroCoef>
-5.4800

> <Gold.Chemscore.Hbond>
2.2366

> <Gold.Chemscore.Metal>
0.0000

> <Gold.Chemscore.Lipo>
32.6925

> <Gold.Chemscore.Internal_Hbond>
0.0000

> <Gold.Chemscore.DEClash>
0.3796

> <Gold.Chemscore.DEInternal>
2.3657

> <Gold.Chemscore.Rot>
1.7754

> <Gold.Chemscore.Internal.Correction>
   9.000000E+99

> <Gold.Chemscore.Hbonds>
donor molecule, donor type, donor heavy atom, donor atom, acceptor molecule, acceptor atom, score
      L1  H     7    23       P1  8028  0.67
      P1  H  7989  7998       L1     1  0.21
      P1  H  7997  8009       L1     3  0.88

> <Gold.Chemscore.Hbond.Weighted>
-7.4701

> <Gold.Chemscore.Metal.Weighted>
-0.0000

> <Gold.Chemscore.Lipo.Weighted>
-3.8250

> <Gold.Chemscore.Internal_Hbond.Weighted>
0.0000

> <Gold.Chemscore.DEClash.Weighted>
0.3796

> <Gold.Chemscore.DEInternal.Weighted>
2.3657

> <Gold.Chemscore.Rot.Weighted>
4.5451

> <Gold.Chemscore.Internal.Correction.Weighted>
   9.000000E+99

> <Gold.Protein.RotatedTorsions>
[ 6907 6896 6895 6894 ] final   20.32 input  -60.11 | X-H torsion
[ 7974 7965 7964 7962 ] final  118.30 input  175.53 | X-H torsion
[ 8008 7997 7996 7995 ] final -153.64 input   59.86 | X-H torsion
[ 10167 10162 10161 10158 ] final   54.77 input  -65.29 | X-H torsion
[ 10718 10713 10712 10709 ] final -171.56 input   66.30 | X-H torsion
[ 10763 10752 10751 10750 ] final -131.55 input  -60.55 | X-H torsion
[ 11005 11000 10999 10996 ] final   90.01 input  -57.11 | X-H torsion

> <Gold.Protein.ActiveResidues>
 VAL166  LYS551  ARG553  GLY616  TRP617  ASP618  TYR619  PRO620  LYS621  CYS622 
 ASP623  PHE694  ASN695  SER759  ASP760  ASP761  ALA762  ILE779  LEU786  VAL792 
 PHE793  MET794  SER795  GLU796  ALA797  LYS798  CYS799  TRP800  GLU811  SER814 

> <Gold.Protein.RotatedAtoms>
  151.8945  135.0403  160.0500 H   0  0  0  0  0  0  0  0  0  0  0  0  # atno 6907 bound_to 6896
  152.2408  133.5129  159.5277 H   0  0  0  0  0  0  0  0  0  0  0  0  # atno 6908 bound_to 6896
  150.7053  134.1007  159.4007 H   0  0  0  0  0  0  0  0  0  0  0  0  # atno 6909 bound_to 6896
  145.1569  139.3177  143.4537 H   0  0  0  0  0  0  0  0  0  0  0  0  # atno 7974 bound_to 7965
  155.6740  140.0736  157.2509 H   0  0  0  0  0  0  0  0  0  0  0  0  # atno 8008 bound_to 7997
  154.4118  140.1694  156.1962 H   0  0  0  0  0  0  0  0  0  0  0  0  # atno 8009 bound_to 7997
  155.9592  140.3371  155.6478 H   0  0  0  0  0  0  0  0  0  0  0  0  # atno 8010 bound_to 7997
  140.2266  144.3732  150.6430 H   0  0  0  0  0  0  0  0  0  0  0  0  # atno 10167 bound_to 10162
  156.7427  130.9348  151.3111 H   0  0  0  0  0  0  0  0  0  0  0  0  # atno 10718 bound_to 10713
  154.8750  135.3826  154.4264 H   0  0  0  0  0  0  0  0  0  0  0  0  # atno 10763 bound_to 10752
  153.4962  135.7030  153.5862 H   0  0  0  0  0  0  0  0  0  0  0  0  # atno 10764 bound_to 10752
  153.4213  135.3901  155.2080 H   0  0  0  0  0  0  0  0  0  0  0  0  # atno 10765 bound_to 10752
  139.8864  134.8587  156.3224 H   0  0  0  0  0  0  0  0  0  0  0  0  # atno 11005 bound_to 11000
  146.3487  140.1665  142.8590 LP  0  0  0  0  0  0  0  0  0  0  0  0  # atno 17320 bound_to 7965
  145.0371  140.8917  143.5074 LP  0  0  0  0  0  0  0  0  0  0  0  0  # atno 17321 bound_to 7965
  140.6216  143.2177  151.6682 LP  0  0  0  0  0  0  0  0  0  0  0  0  # atno 17342 bound_to 10162
  139.5125  144.3474  152.0684 LP  0  0  0  0  0  0  0  0  0  0  0  0  # atno 17343 bound_to 10162
  157.6811  130.9141  150.0270 LP  0  0  0  0  0  0  0  0  0  0  0  0  # atno 17370 bound_to 10713
  156.1454  130.3642  149.9519 LP  0  0  0  0  0  0  0  0  0  0  0  0  # atno 17371 bound_to 10713
  140.9778  133.7286  156.0627 LP  0  0  0  0  0  0  0  0  0  0  0  0  # atno 17394 bound_to 11000
  140.7788  134.3748  157.5492 LP  0  0  0  0  0  0  0  0  0  0  0  0  # atno 17395 bound_to 11000

$$$$
