AV-unprocessed.smi:120|AV-procd|sdf|1137|dock9
  -GOLD-   2262018263D 1   1.00000     0.00000
 Structure written by MMmdl.
 45 48  0  0  0  0  0  0  0  0  1 V2000
  153.7687  142.5670  163.7317 C   0  0  0  0  0  0  0  0  0  0  0  0
  154.3119  141.9774  162.5592 O   0  0  0  0  0  0  0  0  0  0  0  0
  153.5486  141.9899  161.4112 C   0  0  0  0  0  0  0  0  0  0  0  0
  152.5975  143.0207  161.2867 C   0  0  0  0  0  0  0  0  0  0  0  0
  151.7836  143.1072  160.1437 C   0  0  0  0  0  0  0  0  0  0  0  0
  151.9146  142.1596  159.1126 C   0  0  0  0  0  0  0  0  0  0  0  0
  152.8566  141.1094  159.2068 C   0  0  0  0  0  0  0  0  0  0  0  0
  152.9954  140.1100  158.1251 C   0  0  0  0  0  0  0  0  0  0  0  0
  153.7656  139.0374  158.2567 N   0  0  0  0  0  0  0  0  0  0  0  0
  153.5918  138.3773  157.0307 O   0  0  0  0  0  0  0  0  0  0  0  0
  152.7341  139.1433  156.3102 C   0  0  0  0  0  0  0  0  0  0  0  0
  152.3499  138.6885  154.9339 C   0  0  0  0  0  0  0  0  0  0  0  0
  151.0570  138.0220  154.9434 N   0  0  0  0  0  0  0  0  0  0  0  0
  151.0145  136.6860  155.4118 C   0  0  0  0  0  0  0  0  0  0  0  0
  152.0298  136.0863  155.7693 O   0  0  0  0  0  0  0  0  0  0  0  0
  149.6793  136.0993  155.4495 C   0  0  0  0  0  0  0  0  0  0  0  0
  149.5204  134.8365  155.8806 F   0  0  0  0  0  0  0  0  0  0  0  0
  148.5951  136.8074  155.0661 C   0  0  0  0  0  0  0  0  0  0  0  0
  148.6672  138.1150  154.6151 N   0  0  0  0  0  0  0  0  0  0  0  0
  147.4245  138.8826  154.2210 C   0  0  2  0  0  0  0  0  0  0  0  0
  146.1832  137.9967  154.3799 C   0  0  0  0  0  0  0  0  0  0  0  0
  146.0213  137.4356  152.9843 C   0  0  0  0  0  0  0  0  0  0  0  0
  146.4759  138.6113  152.1276 C   0  0  0  0  0  0  0  0  0  0  0  0
  147.5157  139.2412  152.8718 O   0  0  0  0  0  0  0  0  0  0  0  0
  149.9180  138.7675  154.5557 C   0  0  0  0  0  0  0  0  0  0  0  0
  149.9987  139.9447  154.1972 O   0  0  0  0  0  0  0  0  0  0  0  0
  152.3324  140.2442  156.9450 N   0  0  0  0  0  0  0  0  0  0  0  0
  153.6662  141.0395  160.3659 C   0  0  0  0  0  0  0  0  0  0  0  0
  154.4811  142.4627  164.5499 H   0  0  0  0  0  0  0  0  0  0  0  0
  152.8445  142.0730  164.0349 H   0  0  0  0  0  0  0  0  0  0  0  0
  153.5804  143.6325  163.5927 H   0  0  0  0  0  0  0  0  0  0  0  0
  152.4922  143.7528  162.0739 H   0  0  0  0  0  0  0  0  0  0  0  0
  151.0572  143.9019  160.0574 H   0  0  0  0  0  0  0  0  0  0  0  0
  151.2764  142.2444  158.2454 H   0  0  0  0  0  0  0  0  0  0  0  0
  152.3164  139.5317  154.2433 H   0  0  0  0  0  0  0  0  0  0  0  0
  153.0862  137.9921  154.5287 H   0  0  0  0  0  0  0  0  0  0  0  0
  147.6332  136.3205  155.1266 H   0  0  0  0  0  0  0  0  0  0  0  0
  147.4120  139.7810  154.8402 H   0  0  0  0  0  0  0  0  0  0  0  0
  146.3067  137.2381  155.1540 H   0  0  0  0  0  0  0  0  0  0  0  0
  145.3337  138.6305  154.6379 H   0  0  0  0  0  0  0  0  0  0  0  0
  146.6855  136.5823  152.8411 H   0  0  0  0  0  0  0  0  0  0  0  0
  145.0018  137.1171  152.7653 H   0  0  0  0  0  0  0  0  0  0  0  0
  146.8196  138.3039  151.1396 H   0  0  0  0  0  0  0  0  0  0  0  0
  145.6594  139.3228  151.9977 H   0  0  0  0  0  0  0  0  0  0  0  0
  154.3889  140.2412  160.4370 H   0  0  0  0  0  0  0  0  0  0  0  0
  1  2  1  0  0  0  0
  1 29  1  0  0  0  0
  1 30  1  0  0  0  0
  1 31  1  0  0  0  0
  2  3  1  0  0  0  0
  3 28  1  0  0  0  0
  3  4  2  0  0  0  0
  4  5  1  0  0  0  0
  4 32  1  0  0  0  0
  5  6  2  0  0  0  0
  5 33  1  0  0  0  0
  6  7  1  0  0  0  0
  6 34  1  0  0  0  0
  7  8  1  0  0  0  0
  7 28  2  0  0  0  0
  8 27  1  0  0  0  0
  8  9  2  0  0  0  0
  9 10  1  0  0  0  0
 10 11  1  0  0  0  0
 11 12  1  0  0  0  0
 11 27  2  0  0  0  0
 12 13  1  0  0  0  0
 12 35  1  0  0  0  0
 12 36  1  0  0  0  0
 13 25  1  0  0  0  0
 13 14  1  0  0  0  0
 14 15  2  0  0  0  0
 14 16  1  0  0  0  0
 16 17  1  0  0  0  0
 16 18  2  0  0  0  0
 18 19  1  0  0  0  0
 18 37  1  0  0  0  0
 19 20  1  0  0  0  0
 19 25  1  0  0  0  0
 20 24  1  0  0  0  0
 20 21  1  0  0  0  0
 20 38  1  0  0  0  0
 21 22  1  0  0  0  0
 21 39  1  0  0  0  0
 21 40  1  0  0  0  0
 22 23  1  0  0  0  0
 22 41  1  0  0  0  0
 22 42  1  0  0  0  0
 23 24  1  0  0  0  0
 23 43  1  0  0  0  0
 23 44  1  0  0  0  0
 25 26  2  0  0  0  0
 28 45  1  0  0  0  0
M  END
> <s_m_source_file>
AV-unprocessed.smi

> <i_m_source_file_index>
120

> <i_lp_mmshare_version>
43012

> <i_f3d_flags>
0

> <s_epik_input>
W0NIM11PYzFbY0hdW2NIXVtjSF1jKFtjSF0xKS1jMm5vYyhuMilbQ0gyXW4zYyg9TyljKEYpW2NIXW4oYzM9TylbQ0BASF00W0NIMl1bQ0gyXVtDSDJdTzQ=

> <s_epik_cmdline>
J2VwaWtfcHl0aG9uJywgJy1waCcsICc3LjAnLCAnLXRuJywgJzgnLCAnLW1hJywgJzIwMCcsICctbWV0YWxfYmluZGluZycsICctaW1hZScsICc8aW5maWxlLm1hZT4nLCAnLW9tYWUnLCAnPG91dGZpbGUubWFlPic=

> <r_lp_tautomer_probability>
1

> <r_epik_Ionization_Penalty>
4.93314e-09

> <r_epik_Ionization_Penalty_Charging>
4.92654e-09

> <r_epik_Ionization_Penalty_Neutral>
6.60436e-12

> <r_epik_State_Penalty>
-0

> <r_epik_Charging_Adjusted_Penalty>
4.92654e-09

> <i_epik_Tot_Q>
0

> <i_epik_Tot_abs_Q>
0

> <r_epik_Metal_State_Penalty>
-0

> <b_epik_Metal_Only>
0

> <s_epik_Chemistry_Notes>
This compound contains an acetal/aminal-like group ( X-CH(R)-Y where X, Y are N, S, or O) that may be acid/base labile, releasing an aldehyde.

> <s_lp_Force_Field>
OPLS_2005

> <r_lp_Energy>
37.1389

> <b_lp_Chiralities_Consistent>
1

> <s_lp_Variant>
AV-unprocessed.smi:120-1

> <Gold.Version>
5.8.1

> <Gold.Id.Protein>
6NUR|6NUR_protein|mol2

> <Gold.PLP.Fitness>
49.4823

> <Gold.PLP.PLP>
-45.3686

> <Gold.PLP.part.hbond>
-6.0000

> <Gold.PLP.part.metal>
0.0000

> <Gold.PLP.part.buried>
-1.4174

> <Gold.PLP.part.nonpolar>
-41.5130

> <Gold.PLP.part.repulsive>
4.7279

> <Gold.PLP.ligand.clash>
0.0449

> <Gold.PLP.ligand.torsion>
0.9623

> <Gold.PLP.Chemscore.Hbond>
2.0118

> <Gold.PLP.Chemscore.CHOScore>
0.0000

> <Gold.PLP.Chemscore.Metal>
0.0000

> <Gold.Chemscore.Hbonds>
donor molecule, donor type, donor heavy atom, donor atom, acceptor molecule, acceptor atom, score
      P1  H  7989  7998       L1    26  0.99
      P1  H  7997  8009       L1     9  0.07
      P1  H 10752 10765       L1    15  0.80

> <Gold.PLP.Chemscore.Internal.Correction>
0.0478

> <Gold.Rescore>
     Score         DG    S(hbond)    S(metal)    S(lipo)     H(rot)  DE(clash)    DE(int)     intcor
     14.20     -18.05       1.84        0.00      98.29       1.99       1.70       2.14       ----

> <Gold.Chemscore.Fitness>
14.2032

> <Gold.Chemscore.DG>
-18.0471

> <Gold.Chemscore.ZeroCoef>
-5.4800

> <Gold.Chemscore.Hbond>
1.8431

> <Gold.Chemscore.Metal>
0.0000

> <Gold.Chemscore.Lipo>
98.2904

> <Gold.Chemscore.Internal_Hbond>
0.0000

> <Gold.Chemscore.DEClash>
1.7016

> <Gold.Chemscore.DEInternal>
2.1423

> <Gold.Chemscore.Rot>
1.9879

> <Gold.Chemscore.Internal.Correction>
   9.000000E+99

> <Gold.Chemscore.Hbonds>
donor molecule, donor type, donor heavy atom, donor atom, acceptor molecule, acceptor atom, score
      P1  H  7989  7998       L1    26  0.91
      P1  H 10752 10765       L1    15  0.78

> <Gold.Chemscore.Hbond.Weighted>
-6.1561

> <Gold.Chemscore.Metal.Weighted>
-0.0000

> <Gold.Chemscore.Lipo.Weighted>
-11.5000

> <Gold.Chemscore.Internal_Hbond.Weighted>
0.0000

> <Gold.Chemscore.DEClash.Weighted>
1.7016

> <Gold.Chemscore.DEInternal.Weighted>
2.1423

> <Gold.Chemscore.Rot.Weighted>
5.0890

> <Gold.Chemscore.Internal.Correction.Weighted>
   9.000000E+99

> <Gold.Protein.RotatedTorsions>
[ 6907 6896 6895 6894 ] final  105.95 input  -60.11 | X-H torsion
[ 7974 7965 7964 7962 ] final   60.66 input  175.53 | X-H torsion
[ 8008 7997 7996 7995 ] final  114.21 input   59.86 | X-H torsion
[ 10167 10162 10161 10158 ] final  161.59 input  -65.29 | X-H torsion
[ 10718 10713 10712 10709 ] final  -30.91 input   66.30 | X-H torsion
[ 10763 10752 10751 10750 ] final -162.25 input  -60.55 | X-H torsion
[ 11005 11000 10999 10996 ] final -121.04 input  -57.11 | X-H torsion

> <Gold.Protein.ActiveResidues>
 VAL166  LYS551  ARG553  GLY616  TRP617  ASP618  TYR619  PRO620  LYS621  CYS622 
 ASP623  PHE694  ASN695  SER759  ASP760  ASP761  ALA762  ILE779  LEU786  VAL792 
 PHE793  MET794  SER795  GLU796  ALA797  LYS798  CYS799  TRP800  GLU811  SER814 

> <Gold.Protein.RotatedAtoms>
  152.5212  133.9453  159.7645 H   0  0  0  0  0  0  0  0  0  0  0  0  # atno 6907 bound_to 6896
  150.9775  133.6272  159.2735 H   0  0  0  0  0  0  0  0  0  0  0  0  # atno 6908 bound_to 6896
  151.3461  135.0880  159.9440 H   0  0  0  0  0  0  0  0  0  0  0  0  # atno 6909 bound_to 6896
  145.8935  139.3528  143.0635 H   0  0  0  0  0  0  0  0  0  0  0  0  # atno 7974 bound_to 7965
  156.2307  140.2964  156.0181 H   0  0  0  0  0  0  0  0  0  0  0  0  # atno 8008 bound_to 7997
  155.2233  140.0416  157.2968 H   0  0  0  0  0  0  0  0  0  0  0  0  # atno 8009 bound_to 7997
  154.5991  140.2422  155.7824 H   0  0  0  0  0  0  0  0  0  0  0  0  # atno 8010 bound_to 7997
  139.4851  144.4521  151.8816 H   0  0  0  0  0  0  0  0  0  0  0  0  # atno 10167 bound_to 10162
  156.3939  130.4378  149.7373 H   0  0  0  0  0  0  0  0  0  0  0  0  # atno 10718 bound_to 10713
  154.7231  135.3030  154.9014 H   0  0  0  0  0  0  0  0  0  0  0  0  # atno 10763 bound_to 10752
  153.9880  135.6722  153.4757 H   0  0  0  0  0  0  0  0  0  0  0  0  # atno 10764 bound_to 10752
  153.0851  135.4988  154.8499 H   0  0  0  0  0  0  0  0  0  0  0  0  # atno 10765 bound_to 10752
  141.0100  134.0279  157.3427 H   0  0  0  0  0  0  0  0  0  0  0  0  # atno 11005 bound_to 11000
  145.8879  140.9322  143.0567 LP  0  0  0  0  0  0  0  0  0  0  0  0  # atno 17320 bound_to 7965
  144.6731  140.0866  143.7467 LP  0  0  0  0  0  0  0  0  0  0  0  0  # atno 17321 bound_to 7965
  140.3978  144.2532  150.5895 LP  0  0  0  0  0  0  0  0  0  0  0  0  # atno 17342 bound_to 10162
  140.5085  143.2297  151.8571 LP  0  0  0  0  0  0  0  0  0  0  0  0  # atno 17343 bound_to 10162
  156.4416  130.7864  151.2885 LP  0  0  0  0  0  0  0  0  0  0  0  0  # atno 17370 bound_to 10713
  157.7500  131.0123  150.3379 LP  0  0  0  0  0  0  0  0  0  0  0  0  # atno 17371 bound_to 10713
  139.9084  135.0185  156.7588 LP  0  0  0  0  0  0  0  0  0  0  0  0  # atno 17394 bound_to 11000
  140.6750  133.9526  155.7878 LP  0  0  0  0  0  0  0  0  0  0  0  0  # atno 17395 bound_to 11000

$$$$
