AV-unprocessed.smi:532|AV-procd|sdf|2852|dock5
  -GOLD-   2262023343D 1   1.00000     0.00000
 Structure written by MMmdl.
 48 50  0  0  0  0  0  0  0  0  2 V2000
  153.0432  142.6343  162.6844 C   0  0  0  0  0  0  0  0  0  0  0  0
  154.0741  141.9644  161.9811 O   0  0  0  0  0  0  0  0  0  0  0  0
  153.7086  141.6609  160.6459 C   0  0  0  0  0  0  0  0  0  0  0  0
  152.5665  140.6387  160.6649 C   0  0  0  0  0  0  0  0  0  0  0  0
  152.2405  140.1789  159.3197 N   0  0  0  0  0  0  0  0  0  0  0  0
  151.7565  140.9014  158.2718 C   0  0  0  0  0  0  0  0  0  0  0  0
  151.5164  142.2778  158.3420 N   0  0  0  0  0  0  0  0  0  0  0  0
  150.9062  142.8869  159.5248 C   0  0  0  0  0  0  0  0  0  0  0  0
  151.5047  144.2652  159.8579 C   0  0  2  0  0  0  0  0  0  0  0  0
  150.8827  144.8510  161.1326 C   0  0  0  0  0  0  0  0  0  0  0  0
  151.3239  145.2098  158.6597 C   0  0  0  0  0  0  0  0  0  0  0  0
  151.8816  144.5805  157.3721 C   0  0  1  0  0  0  0  0  0  0  0  0
  153.4164  144.6486  157.3047 C   0  0  0  0  0  0  0  0  0  0  0  0
  151.3166  143.1529  157.1817 C   0  0  0  0  0  0  0  0  0  0  0  0
  151.4937  140.1796  157.1795 N   0  0  0  0  0  0  0  0  0  0  0  0
  151.8520  138.8951  157.5553 C   0  0  0  0  0  0  0  0  0  0  0  0
  152.2932  138.8650  158.8408 C   0  0  0  0  0  0  0  0  0  0  0  0
  152.7052  137.6261  159.5386 C   0  0  0  0  0  0  0  0  0  0  0  0
  153.0634  137.6467  160.7142 O   0  0  0  0  0  0  0  0  0  0  0  0
  152.6239  136.5241  158.7275 N   0  5  0  0  0  0  0  0  0  0  0  0
  152.1931  136.5117  157.4182 C   0  0  0  0  0  0  0  0  0  0  0  0
  152.1502  135.4729  156.7578 O   0  0  0  0  0  0  0  0  0  0  0  0
  151.7974  137.6794  156.8208 N   0  0  0  0  0  0  0  0  0  0  0  0
  151.3232  137.6943  155.4340 C   0  0  0  0  0  0  0  0  0  0  0  0
  153.3691  142.8393  163.7040 H   0  0  0  0  0  0  0  0  0  0  0  0
  152.1397  142.0254  162.7351 H   0  0  0  0  0  0  0  0  0  0  0  0
  152.7985  143.5863  162.2116 H   0  0  0  0  0  0  0  0  0  0  0  0
  153.3964  142.5673  160.1252 H   0  0  0  0  0  0  0  0  0  0  0  0
  154.5668  141.2523  160.1094 H   0  0  0  0  0  0  0  0  0  0  0  0
  152.8355  139.7942  161.2873 H   0  0  0  0  0  0  0  0  0  0  0  0
  151.6782  141.0563  161.1359 H   0  0  0  0  0  0  0  0  0  0  0  0
  149.8293  142.9658  159.3698 H   0  0  0  0  0  0  0  0  0  0  0  0
  151.0465  142.2220  160.3781 H   0  0  0  0  0  0  0  0  0  0  0  0
  152.5713  144.1370  160.0456 H   0  0  0  0  0  0  0  0  0  0  0  0
  149.8090  145.0026  161.0166 H   0  0  0  0  0  0  0  0  0  0  0  0
  151.3307  145.8134  161.3815 H   0  0  0  0  0  0  0  0  0  0  0  0
  151.0348  144.1870  161.9838 H   0  0  0  0  0  0  0  0  0  0  0  0
  150.2614  145.4161  158.5223 H   0  0  0  0  0  0  0  0  0  0  0  0
  151.7993  146.1722  158.8529 H   0  0  0  0  0  0  0  0  0  0  0  0
  151.5188  145.1827  156.5383 H   0  0  0  0  0  0  0  0  0  0  0  0
  153.8844  144.0506  158.0856 H   0  0  0  0  0  0  0  0  0  0  0  0
  153.7675  145.6741  157.4215 H   0  0  0  0  0  0  0  0  0  0  0  0
  153.7828  144.2909  156.3425 H   0  0  0  0  0  0  0  0  0  0  0  0
  151.7209  142.6968  156.2790 H   0  0  0  0  0  0  0  0  0  0  0  0
  150.2420  143.2205  157.0066 H   0  0  0  0  0  0  0  0  0  0  0  0
  152.0994  137.3280  154.7608 H   0  0  0  0  0  0  0  0  0  0  0  0
  151.0431  138.6914  155.0954 H   0  0  0  0  0  0  0  0  0  0  0  0
  150.4461  137.0552  155.3241 H   0  0  0  0  0  0  0  0  0  0  0  0
  1  2  1  0  0  0  0
  1 25  1  0  0  0  0
  1 26  1  0  0  0  0
  1 27  1  0  0  0  0
  2  3  1  0  0  0  0
  3  4  1  0  0  0  0
  3 28  1  0  0  0  0
  3 29  1  0  0  0  0
  4  5  1  0  0  0  0
  4 30  1  0  0  0  0
  4 31  1  0  0  0  0
  5 17  1  0  0  0  0
  5  6  1  0  0  0  0
  6  7  1  0  0  0  0
  6 15  2  0  0  0  0
  7 14  1  0  0  0  0
  7  8  1  0  0  0  0
  8  9  1  0  0  0  0
  8 32  1  0  0  0  0
  8 33  1  0  0  0  0
  9 10  1  0  0  0  0
  9 11  1  0  0  0  0
  9 34  1  0  0  0  0
 10 35  1  0  0  0  0
 10 36  1  0  0  0  0
 10 37  1  0  0  0  0
 11 12  1  0  0  0  0
 11 38  1  0  0  0  0
 11 39  1  0  0  0  0
 12 13  1  0  0  0  0
 12 14  1  0  0  0  0
 12 40  1  0  0  0  0
 13 41  1  0  0  0  0
 13 42  1  0  0  0  0
 13 43  1  0  0  0  0
 14 44  1  0  0  0  0
 14 45  1  0  0  0  0
 15 16  1  0  0  0  0
 16 23  1  0  0  0  0
 16 17  2  0  0  0  0
 17 18  1  0  0  0  0
 18 19  2  0  0  0  0
 18 20  1  0  0  0  0
 20 21  1  0  0  0  0
 21 22  2  0  0  0  0
 21 23  1  0  0  0  0
 23 24  1  0  0  0  0
 24 46  1  0  0  0  0
 24 47  1  0  0  0  0
 24 48  1  0  0  0  0
M  CHG  1  20  -1
M  END
> <s_m_source_file>
AV-unprocessed.smi

> <i_m_source_file_index>
532

> <i_lp_mmshare_version>
43012

> <i_f3d_flags>
0

> <s_epik_input>
W0NIM11uMWMoPU8pW25IXWMoPU8pYyhjMTIpbihbQ0gyXVtDSDJdT1tDSDNdKWMobjIpTjNbQ0gyXVtDQEBIXShbQ0gzXSlbQ0gyXVtDQEBIXShbQ0gzXSlbQ0gyXTM=

> <s_epik_cmdline>
J2VwaWtfcHl0aG9uJywgJy1waCcsICc3LjAnLCAnLXRuJywgJzgnLCAnLW1hJywgJzIwMCcsICctbWV0YWxfYmluZGluZycsICctaW1hZScsICc8aW5maWxlLm1hZT4nLCAnLW9tYWUnLCAnPG91dGZpbGUubWFlPic=

> <r_lp_tautomer_probability>
1

> <r_epik_Ionization_Penalty>
5.12128

> <r_epik_Ionization_Penalty_Charging>
0.0789629

> <r_epik_Ionization_Penalty_Neutral>
5.04232

> <r_epik_State_Penalty>
5.03111

> <r_epik_Charging_Adjusted_Penalty>
5.11007

> <i_epik_Tot_Q>
-1

> <i_epik_Tot_abs_Q>
1

> <r_epik_Metal_State_Penalty>
1.14201

> <b_epik_Metal_Only>
1

> <s_lp_Force_Field>
OPLS_2005

> <r_lp_Energy>
45.9264

> <b_lp_Chiralities_Consistent>
1

> <s_lp_Variant>
AV-unprocessed.smi:532-5

> <Gold.Version>
5.8.1

> <Gold.Id.Protein>
6NUR|6NUR_protein|mol2

> <Gold.PLP.Fitness>
41.2983

> <Gold.PLP.PLP>
-34.7840

> <Gold.PLP.part.hbond>
-3.0000

> <Gold.PLP.part.metal>
0.0000

> <Gold.PLP.part.buried>
-1.9216

> <Gold.PLP.part.nonpolar>
-31.2218

> <Gold.PLP.part.repulsive>
0.0009

> <Gold.PLP.ligand.clash>
0.0000

> <Gold.PLP.ligand.torsion>
0.4289

> <Gold.PLP.Chemscore.Hbond>
2.3104

> <Gold.PLP.Chemscore.CHOScore>
0.0000

> <Gold.PLP.Chemscore.Metal>
0.0000

> <Gold.Chemscore.Hbonds>
donor molecule, donor type, donor heavy atom, donor atom, acceptor molecule, acceptor atom, score
      P1  H  6896  6908       L1    20  1.33
      P1  H 10752 10763       L1    22  1.00

> <Gold.PLP.Chemscore.Internal.Correction>
0.4410

> <Gold.Rescore>
     Score         DG    S(hbond)    S(metal)    S(lipo)     H(rot)  DE(clash)    DE(int)     intcor
     15.37     -19.03       0.86        0.00     122.31       1.41       2.41       1.25       ----

> <Gold.Chemscore.Fitness>
15.3710

> <Gold.Chemscore.DG>
-19.0326

> <Gold.Chemscore.ZeroCoef>
-5.4800

> <Gold.Chemscore.Hbond>
0.8575

> <Gold.Chemscore.Metal>
0.0000

> <Gold.Chemscore.Lipo>
122.3096

> <Gold.Chemscore.Internal_Hbond>
0.0000

> <Gold.Chemscore.DEClash>
2.4097

> <Gold.Chemscore.DEInternal>
1.2518

> <Gold.Chemscore.Rot>
1.4147

> <Gold.Chemscore.Internal.Correction>
   9.000000E+99

> <Gold.Chemscore.Hbonds>
donor molecule, donor type, donor heavy atom, donor atom, acceptor molecule, acceptor atom, score
      P1  H  6896  6908       L1    20  0.21
      P1  H 10752 10763       L1    22  0.92

> <Gold.Chemscore.Hbond.Weighted>
-2.8639

> <Gold.Chemscore.Metal.Weighted>
-0.0000

> <Gold.Chemscore.Lipo.Weighted>
-14.3102

> <Gold.Chemscore.Internal_Hbond.Weighted>
0.0000

> <Gold.Chemscore.DEClash.Weighted>
2.4097

> <Gold.Chemscore.DEInternal.Weighted>
1.2518

> <Gold.Chemscore.Rot.Weighted>
3.6216

> <Gold.Chemscore.Internal.Correction.Weighted>
   9.000000E+99

> <Gold.Protein.RotatedTorsions>
[ 6907 6896 6895 6894 ] final -105.20 input  -60.11 | X-H torsion
[ 7974 7965 7964 7962 ] final   87.86 input  175.53 | X-H torsion
[ 8008 7997 7996 7995 ] final  122.64 input   59.86 | X-H torsion
[ 10167 10162 10161 10158 ] final  100.49 input  -65.29 | X-H torsion
[ 10718 10713 10712 10709 ] final  112.90 input   66.30 | X-H torsion
[ 10763 10752 10751 10750 ] final   99.56 input  -60.55 | X-H torsion
[ 11005 11000 10999 10996 ] final   56.05 input  -57.11 | X-H torsion

> <Gold.Protein.ActiveResidues>
 VAL166  LYS551  ARG553  GLY616  TRP617  ASP618  TYR619  PRO620  LYS621  CYS622 
 ASP623  PHE694  ASN695  SER759  ASP760  ASP761  ALA762  ILE779  LEU786  VAL792 
 PHE793  MET794  SER795  GLU796  ALA797  LYS798  CYS799  TRP800  GLU811  SER814 

> <Gold.Protein.RotatedAtoms>
  150.7325  134.0163  159.3686 H   0  0  0  0  0  0  0  0  0  0  0  0  # atno 6907 bound_to 6896
  151.8125  135.0674  160.0424 H   0  0  0  0  0  0  0  0  0  0  0  0  # atno 6908 bound_to 6896
  152.3062  133.5669  159.5687 H   0  0  0  0  0  0  0  0  0  0  0  0  # atno 6909 bound_to 6896
  145.5534  139.2297  143.2500 H   0  0  0  0  0  0  0  0  0  0  0  0  # atno 7974 bound_to 7965
  156.2735  140.2781  156.1500 H   0  0  0  0  0  0  0  0  0  0  0  0  # atno 8008 bound_to 7997
  155.0863  140.0388  157.2672 H   0  0  0  0  0  0  0  0  0  0  0  0  # atno 8009 bound_to 7997
  154.6924  140.2632  155.6805 H   0  0  0  0  0  0  0  0  0  0  0  0  # atno 8010 bound_to 7997
  139.7523  144.6980  151.0414 H   0  0  0  0  0  0  0  0  0  0  0  0  # atno 10167 bound_to 10162
  157.6367  131.0975  150.6963 H   0  0  0  0  0  0  0  0  0  0  0  0  # atno 10718 bound_to 10713
  153.3029  135.4109  155.1269 H   0  0  0  0  0  0  0  0  0  0  0  0  # atno 10763 bound_to 10752
  154.8554  135.3546  154.5827 H   0  0  0  0  0  0  0  0  0  0  0  0  # atno 10764 bound_to 10752
  153.6253  135.7063  153.5354 H   0  0  0  0  0  0  0  0  0  0  0  0  # atno 10765 bound_to 10752
  140.0559  134.5670  155.9208 H   0  0  0  0  0  0  0  0  0  0  0  0  # atno 11005 bound_to 11000
  146.1901  140.6357  142.9149 LP  0  0  0  0  0  0  0  0  0  0  0  0  # atno 17320 bound_to 7965
  144.7518  140.5210  143.6796 LP  0  0  0  0  0  0  0  0  0  0  0  0  # atno 17321 bound_to 7965
  140.7799  143.4795  151.0037 LP  0  0  0  0  0  0  0  0  0  0  0  0  # atno 17342 bound_to 10162
  139.8482  143.7473  152.3179 LP  0  0  0  0  0  0  0  0  0  0  0  0  # atno 17343 bound_to 10162
  156.7293  130.4705  149.5503 LP  0  0  0  0  0  0  0  0  0  0  0  0  # atno 17370 bound_to 10713
  156.1613  130.6375  151.0722 LP  0  0  0  0  0  0  0  0  0  0  0  0  # atno 17371 bound_to 10713
  141.1952  133.6586  156.5631 LP  0  0  0  0  0  0  0  0  0  0  0  0  # atno 17394 bound_to 11000
  140.3844  134.7495  157.4682 LP  0  0  0  0  0  0  0  0  0  0  0  0  # atno 17395 bound_to 11000

$$$$
