AV-unprocessed.smi:256|AV-procd|sdf|1961|dock6
  -GOLD-   2262021103D 1   1.00000     0.00000
 Structure written by MMmdl.
 61 64  0  0  0  0  0  0  0  0  1 V2000
  151.8953  145.4219  159.3365 C   0  0  0  0  0  0  0  0  0  0  0  0
  152.3552  144.1169  160.0086 C   0  0  0  0  0  0  0  0  0  0  0  0
  152.2911  142.8583  159.1112 C   0  0  2  0  0  0  0  0  0  0  0  0
  150.8923  142.7839  158.4497 C   0  0  0  0  0  0  0  0  0  0  0  0
  150.8118  141.6700  157.5077 N   0  0  0  0  0  0  0  0  0  0  0  0
  149.7486  141.6197  156.6644 C   0  0  0  0  0  0  0  0  0  0  0  0
  149.9171  141.1992  155.3815 N   0  0  0  0  0  0  0  0  0  0  0  0
  148.8779  141.1509  154.5432 C   0  0  0  0  0  0  0  0  0  0  0  0
  147.6038  141.4704  154.7748 N   0  0  0  0  0  0  0  0  0  0  0  0
  147.4249  141.8881  156.0604 C   0  0  0  0  0  0  0  0  0  0  0  0
  148.4318  141.9884  157.0625 C   0  0  0  0  0  0  0  0  0  0  0  0
  147.8678  142.4293  158.2543 N   0  0  0  0  0  0  0  0  0  0  0  0
  146.6046  142.5901  157.9701 C   0  0  0  0  0  0  0  0  0  0  0  0
  146.2528  142.2978  156.6719 N   0  0  0  0  0  0  0  0  0  0  0  0
  144.9228  142.3895  156.0884 C   0  0  0  0  0  0  0  0  0  0  0  0
  144.1808  141.0330  155.9912 C   0  0  0  0  0  0  0  0  0  0  0  0
  144.8170  140.2623  154.9868 O   0  0  0  0  0  0  0  0  0  0  0  0
  144.2837  140.2692  157.3269 C   0  0  0  0  0  0  0  0  0  0  0  0
  143.4192  138.9962  157.3368 C   0  0  0  0  0  0  0  0  0  0  0  0
  142.0691  139.3234  157.0309 O   0  0  0  0  0  0  0  0  0  0  0  0
  141.9177  139.8686  155.7262 C   0  0  0  0  0  0  0  0  0  0  0  0
  142.6920  141.1935  155.6117 C   0  0  0  0  0  0  0  0  0  0  0  0
  151.1730  140.3982  158.1216 C   0  0  0  0  0  0  0  0  0  0  0  0
  152.5666  140.5108  158.7534 C   0  0  0  0  0  0  0  0  0  0  0  0
  152.6646  141.5767  159.7575 N   0  0  0  0  0  0  0  0  0  0  0  0
  154.0234  141.5734  160.3207 C   0  0  0  0  0  0  0  0  0  0  0  0
  154.3540  140.3996  161.2575 C   0  0  0  0  0  0  0  0  0  0  0  0
  155.3316  140.8341  162.1881 O   0  0  0  0  0  0  0  0  0  0  0  0
  155.5994  139.8675  163.1892 C   0  0  0  0  0  0  0  0  0  0  0  0
  151.8700  146.2371  160.0595 H   0  0  0  0  0  0  0  0  0  0  0  0
  150.8973  145.3283  158.9091 H   0  0  0  0  0  0  0  0  0  0  0  0
  152.5717  145.7219  158.5366 H   0  0  0  0  0  0  0  0  0  0  0  0
  153.3846  144.2546  160.3415 H   0  0  0  0  0  0  0  0  0  0  0  0
  151.7976  143.9506  160.9285 H   0  0  0  0  0  0  0  0  0  0  0  0
  153.0026  143.0343  158.3023 H   0  0  0  0  0  0  0  0  0  0  0  0
  150.1176  142.6559  159.2066 H   0  0  0  0  0  0  0  0  0  0  0  0
  150.6845  143.7188  157.9269 H   0  0  0  0  0  0  0  0  0  0  0  0
  149.0991  140.8064  153.5438 H   0  0  0  0  0  0  0  0  0  0  0  0
  145.8899  142.9345  158.7036 H   0  0  0  0  0  0  0  0  0  0  0  0
  144.3386  143.1008  156.6743 H   0  0  0  0  0  0  0  0  0  0  0  0
  145.0251  142.8292  155.0956 H   0  0  0  0  0  0  0  0  0  0  0  0
  144.2957  140.3036  154.1998 H   0  0  0  0  0  0  0  0  0  0  0  0
  145.3223  140.0180  157.5465 H   0  0  0  0  0  0  0  0  0  0  0  0
  143.9497  140.9166  158.1390 H   0  0  0  0  0  0  0  0  0  0  0  0
  143.7968  138.2568  156.6289 H   0  0  0  0  0  0  0  0  0  0  0  0
  143.4516  138.5325  158.3227 H   0  0  0  0  0  0  0  0  0  0  0  0
  142.2551  139.1497  154.9780 H   0  0  0  0  0  0  0  0  0  0  0  0
  140.8577  140.0412  155.5397 H   0  0  0  0  0  0  0  0  0  0  0  0
  142.2291  141.9240  156.2764 H   0  0  0  0  0  0  0  0  0  0  0  0
  142.5875  141.5891  154.6007 H   0  0  0  0  0  0  0  0  0  0  0  0
  150.4337  140.1426  158.8819 H   0  0  0  0  0  0  0  0  0  0  0  0
  151.1719  139.5872  157.3946 H   0  0  0  0  0  0  0  0  0  0  0  0
  152.8087  139.5517  159.2126 H   0  0  0  0  0  0  0  0  0  0  0  0
  153.3069  140.6713  157.9676 H   0  0  0  0  0  0  0  0  0  0  0  0
  154.7504  141.5108  159.5093 H   0  0  0  0  0  0  0  0  0  0  0  0
  154.2315  142.5240  160.8135 H   0  0  0  0  0  0  0  0  0  0  0  0
  153.4815  140.0415  161.7984 H   0  0  0  0  0  0  0  0  0  0  0  0
  154.7448  139.5629  160.6763 H   0  0  0  0  0  0  0  0  0  0  0  0
  156.3615  140.2463  163.8704 H   0  0  0  0  0  0  0  0  0  0  0  0
  155.9705  138.9392  162.7529 H   0  0  0  0  0  0  0  0  0  0  0  0
  154.7053  139.6471  163.7736 H   0  0  0  0  0  0  0  0  0  0  0  0
  1  2  1  0  0  0  0
  1 30  1  0  0  0  0
  1 31  1  0  0  0  0
  1 32  1  0  0  0  0
  2  3  1  0  0  0  0
  2 33  1  0  0  0  0
  2 34  1  0  0  0  0
  3 25  1  0  0  0  0
  3  4  1  0  0  0  0
  3 35  1  0  0  0  0
  4  5  1  0  0  0  0
  4 36  1  0  0  0  0
  4 37  1  0  0  0  0
  5  6  1  0  0  0  0
  5 23  1  0  0  0  0
  6 11  1  0  0  0  0
  6  7  2  0  0  0  0
  7  8  1  0  0  0  0
  8  9  2  0  0  0  0
  8 38  1  0  0  0  0
  9 10  1  0  0  0  0
 10 14  1  0  0  0  0
 10 11  2  0  0  0  0
 11 12  1  0  0  0  0
 12 13  2  0  0  0  0
 13 14  1  0  0  0  0
 13 39  1  0  0  0  0
 14 15  1  0  0  0  0
 15 16  1  0  0  0  0
 15 40  1  0  0  0  0
 15 41  1  0  0  0  0
 16 22  1  0  0  0  0
 16 17  1  0  0  0  0
 16 18  1  0  0  0  0
 17 42  1  0  0  0  0
 18 19  1  0  0  0  0
 18 43  1  0  0  0  0
 18 44  1  0  0  0  0
 19 20  1  0  0  0  0
 19 45  1  0  0  0  0
 19 46  1  0  0  0  0
 20 21  1  0  0  0  0
 21 22  1  0  0  0  0
 21 47  1  0  0  0  0
 21 48  1  0  0  0  0
 22 49  1  0  0  0  0
 22 50  1  0  0  0  0
 23 24  1  0  0  0  0
 23 51  1  0  0  0  0
 23 52  1  0  0  0  0
 24 25  1  0  0  0  0
 24 53  1  0  0  0  0
 24 54  1  0  0  0  0
 25 26  1  0  0  0  0
 26 27  1  0  0  0  0
 26 55  1  0  0  0  0
 26 56  1  0  0  0  0
 27 28  1  0  0  0  0
 27 57  1  0  0  0  0
 27 58  1  0  0  0  0
 28 29  1  0  0  0  0
 29 59  1  0  0  0  0
 29 60  1  0  0  0  0
 29 61  1  0  0  0  0
M  END
> <s_m_source_file>
AV-unprocessed.smi

> <i_m_source_file_index>
256

> <i_lp_mmshare_version>
43012

> <i_f3d_flags>
0

> <s_epik_input>
W0NIM11PW0NIMl1bQ0gyXU4xW0NIMl1bQ0gyXU4oW0NIMl1bQ0BIXTFbQ0gyXVtDSDNdKWMobltjSF1uMiljKGMyMyluW2NIXW4zW0NIMl1DNChbT0hdKVtDSDJdW0NIMl1PW0NIMl1bQ0gyXTQ=

> <s_epik_cmdline>
J2VwaWtfcHl0aG9uJywgJy1waCcsICc3LjAnLCAnLXRuJywgJzgnLCAnLW1hJywgJzIwMCcsICctbWV0YWxfYmluZGluZycsICctaW1hZScsICc8aW5maWxlLm1hZT4nLCAnLW9tYWUnLCAnPG91dGZpbGUubWFlPic=

> <r_lp_tautomer_probability>
1

> <r_epik_Ionization_Penalty>
0.676279

> <r_epik_Ionization_Penalty_Charging>
0

> <r_epik_Ionization_Penalty_Neutral>
0.676279

> <r_epik_State_Penalty>
0.6855

> <r_epik_Charging_Adjusted_Penalty>
0.6855

> <i_epik_Tot_Q>
0

> <i_epik_Tot_abs_Q>
0

> <r_epik_Metal_State_Penalty>
0.678557

> <b_epik_Metal_Only>
0

> <s_lp_Force_Field>
OPLS_2005

> <r_lp_Energy>
62.0394

> <b_lp_Chiralities_Consistent>
1

> <s_lp_Variant>
AV-unprocessed.smi:256-5

> <Gold.Version>
5.8.1

> <Gold.Id.Protein>
6NUR|6NUR_protein|mol2

> <Gold.PLP.Fitness>
44.8282

> <Gold.PLP.PLP>
-41.0020

> <Gold.PLP.part.hbond>
-2.1729

> <Gold.PLP.part.metal>
0.0000

> <Gold.PLP.part.buried>
-6.2958

> <Gold.PLP.part.nonpolar>
-33.1990

> <Gold.PLP.part.repulsive>
0.4247

> <Gold.PLP.ligand.clash>
0.0000

> <Gold.PLP.ligand.torsion>
1.2842

> <Gold.PLP.Chemscore.Hbond>
1.0000

> <Gold.PLP.Chemscore.CHOScore>
0.9995

> <Gold.PLP.Chemscore.Metal>
0.0000

> <Gold.Chemscore.Hbonds>
donor molecule, donor type, donor heavy atom, donor atom, acceptor molecule, acceptor atom, score
      L1  H    17    42       P1 10175  1.00
      L1  C     8    38       P1  7957  0.95

> <Gold.PLP.Chemscore.Internal.Correction>
0.3962

> <Gold.Rescore>
     Score         DG    S(hbond)    S(metal)    S(lipo)     H(rot)  DE(clash)    DE(int)     intcor
     10.62     -11.91       0.99        0.00      89.59       2.87       0.17       1.11       ----

> <Gold.Chemscore.Fitness>
10.6221

> <Gold.Chemscore.DG>
-11.9065

> <Gold.Chemscore.ZeroCoef>
-5.4800

> <Gold.Chemscore.Hbond>
0.9856

> <Gold.Chemscore.Metal>
0.0000

> <Gold.Chemscore.Lipo>
89.5887

> <Gold.Chemscore.Internal_Hbond>
0.0000

> <Gold.Chemscore.DEClash>
0.1697

> <Gold.Chemscore.DEInternal>
1.1147

> <Gold.Chemscore.Rot>
2.8700

> <Gold.Chemscore.Internal.Correction>
   9.000000E+99

> <Gold.Chemscore.Hbonds>
donor molecule, donor type, donor heavy atom, donor atom, acceptor molecule, acceptor atom, score
      L1  H    17    42       P1 10175  1.00

> <Gold.Chemscore.Hbond.Weighted>
-3.2918

> <Gold.Chemscore.Metal.Weighted>
-0.0000

> <Gold.Chemscore.Lipo.Weighted>
-10.4819

> <Gold.Chemscore.Internal_Hbond.Weighted>
0.0000

> <Gold.Chemscore.DEClash.Weighted>
0.1697

> <Gold.Chemscore.DEInternal.Weighted>
1.1147

> <Gold.Chemscore.Rot.Weighted>
7.3472

> <Gold.Chemscore.Internal.Correction.Weighted>
   9.000000E+99

> <Gold.Protein.RotatedTorsions>
[ 6907 6896 6895 6894 ] final  -84.07 input  -60.11 | X-H torsion
[ 7974 7965 7964 7962 ] final -103.41 input  175.53 | X-H torsion
[ 8008 7997 7996 7995 ] final  161.91 input   59.86 | X-H torsion
[ 10167 10162 10161 10158 ] final  -68.87 input  -65.29 | X-H torsion
[ 10718 10713 10712 10709 ] final -113.92 input   66.30 | X-H torsion
[ 10763 10752 10751 10750 ] final -112.00 input  -60.55 | X-H torsion
[ 11005 11000 10999 10996 ] final    9.40 input  -57.11 | X-H torsion

> <Gold.Protein.ActiveResidues>
 VAL166  LYS551  ARG553  GLY616  TRP617  ASP618  TYR619  PRO620  LYS621  CYS622 
 ASP623  PHE694  ASN695  SER759  ASP760  ASP761  ALA762  ILE779  LEU786  VAL792 
 PHE793  MET794  SER795  GLU796  ALA797  LYS798  CYS799  TRP800  GLU811  SER814 

> <Gold.Protein.RotatedAtoms>
  150.6879  134.3414  159.4869 H   0  0  0  0  0  0  0  0  0  0  0  0  # atno 6907 bound_to 6896
  152.1267  134.9163  160.0570 H   0  0  0  0  0  0  0  0  0  0  0  0  # atno 6908 bound_to 6896
  152.0348  133.3918  159.4349 H   0  0  0  0  0  0  0  0  0  0  0  0  # atno 6909 bound_to 6896
  145.2562  140.9254  143.3067 H   0  0  0  0  0  0  0  0  0  0  0  0  # atno 7974 bound_to 7965
  156.2070  140.1764  156.7779 H   0  0  0  0  0  0  0  0  0  0  0  0  # atno 8008 bound_to 7997
  154.5668  140.0689  156.8934 H   0  0  0  0  0  0  0  0  0  0  0  0  # atno 8009 bound_to 7997
  155.2746  140.3345  155.4265 H   0  0  0  0  0  0  0  0  0  0  0  0  # atno 8010 bound_to 7997
  140.5474  143.2312  151.6975 H   0  0  0  0  0  0  0  0  0  0  0  0  # atno 10167 bound_to 10162
  156.0797  130.5999  150.8706 H   0  0  0  0  0  0  0  0  0  0  0  0  # atno 10718 bound_to 10713
  154.8328  135.4507  154.1126 H   0  0  0  0  0  0  0  0  0  0  0  0  # atno 10763 bound_to 10752
  153.2384  135.6913  153.7817 H   0  0  0  0  0  0  0  0  0  0  0  0  # atno 10764 bound_to 10752
  153.7173  135.3347  155.3235 H   0  0  0  0  0  0  0  0  0  0  0  0  # atno 10765 bound_to 10752
  140.5262  134.0511  155.7859 H   0  0  0  0  0  0  0  0  0  0  0  0  # atno 11005 bound_to 11000
  144.9458  139.4137  143.6426 LP  0  0  0  0  0  0  0  0  0  0  0  0  # atno 17320 bound_to 7965
  146.3288  139.8441  142.8885 LP  0  0  0  0  0  0  0  0  0  0  0  0  # atno 17321 bound_to 7965
  139.5013  144.3872  152.0316 LP  0  0  0  0  0  0  0  0  0  0  0  0  # atno 17342 bound_to 10162
  140.2986  144.3672  150.6067 LP  0  0  0  0  0  0  0  0  0  0  0  0  # atno 17343 bound_to 10162
  157.5908  131.0944  150.9121 LP  0  0  0  0  0  0  0  0  0  0  0  0  # atno 17370 bound_to 10713
  156.9297  130.5345  149.5279 LP  0  0  0  0  0  0  0  0  0  0  0  0  # atno 17371 bound_to 10713
  141.1307  133.9307  157.2542 LP  0  0  0  0  0  0  0  0  0  0  0  0  # atno 17394 bound_to 11000
  139.9579  135.0161  156.9179 LP  0  0  0  0  0  0  0  0  0  0  0  0  # atno 17395 bound_to 11000

$$$$
