AV-unprocessed.smi:1229|AV-procd|sdf|5151|dock5
  -GOLD-   22720 4223D 1   1.00000     0.00000
 Structure written by MMmdl.
 46 47  0  0  0  0  0  0  0  0  2 V2000
  147.4730  132.9425  152.3007 C   0  0  0  0  0  0  0  0  0  0  0  0
  146.2017  132.8939  151.4684 C   0  0  0  0  0  0  0  0  0  0  0  0
  145.6035  131.6454  151.1943 C   0  0  0  0  0  0  0  0  0  0  0  0
  144.4299  131.6014  150.4224 C   0  0  0  0  0  0  0  0  0  0  0  0
  143.8999  132.8161  149.9553 C   0  0  0  0  0  0  0  0  0  0  0  0
  144.4643  134.0136  150.2130 N   0  0  0  0  0  0  0  0  0  0  0  0
  145.5987  134.0736  150.9551 C   0  0  0  0  0  0  0  0  0  0  0  0
  146.2485  135.3018  151.2658 N   0  0  0  0  0  0  0  0  0  0  0  0
  145.6944  136.5058  151.4926 C   0  0  0  0  0  0  0  0  0  0  0  0
  144.4892  136.7569  151.4575 O   0  0  0  0  0  0  0  0  0  0  0  0
  146.6276  137.4275  151.7735 N   0  0  0  0  0  0  0  0  0  0  0  0
  146.3530  138.8341  152.0512 C   0  0  0  0  0  0  0  0  0  0  0  0
  147.1161  139.3416  153.2929 C   0  0  1  0  0  0  0  0  0  0  0  0
  148.4096  138.7706  153.2775 O   0  0  0  0  0  0  0  0  0  0  0  0
  147.2822  140.8743  153.2681 C   0  0  0  0  0  0  0  0  0  0  0  0
  146.0924  141.5838  153.8051 N   0  3  0  0  0  0  0  0  0  0  0  0
  145.7560  141.1558  155.1880 C   0  0  0  0  0  0  0  0  0  0  0  0
  144.4388  141.7925  155.6629 C   0  0  0  0  0  0  0  0  0  0  0  0
  144.4997  143.3222  155.5650 C   0  0  0  0  0  0  0  0  0  0  0  0
  144.8822  143.7406  154.1395 C   0  0  0  0  0  0  0  0  0  0  0  0
  146.1919  143.0647  153.6999 C   0  0  0  0  0  0  0  0  0  0  0  0
  147.7731  131.9457  152.6249 H   0  0  0  0  0  0  0  0  0  0  0  0
  147.3250  133.5535  153.1915 H   0  0  0  0  0  0  0  0  0  0  0  0
  148.2923  133.3674  151.7202 H   0  0  0  0  0  0  0  0  0  0  0  0
  146.0371  130.7299  151.5693 H   0  0  0  0  0  0  0  0  0  0  0  0
  143.9487  130.6618  150.1948 H   0  0  0  0  0  0  0  0  0  0  0  0
  142.9991  132.8280  149.3599 H   0  0  0  0  0  0  0  0  0  0  0  0
  147.2548  135.2534  151.3245 H   0  0  0  0  0  0  0  0  0  0  0  0
  147.5958  137.1410  151.7815 H   0  0  0  0  0  0  0  0  0  0  0  0
  146.5935  139.4323  151.1711 H   0  0  0  0  0  0  0  0  0  0  0  0
  145.2775  138.9439  152.2021 H   0  0  0  0  0  0  0  0  0  0  0  0
  146.6013  139.0336  154.2022 H   0  0  0  0  0  0  0  0  0  0  0  0
  148.9828  139.3400  152.7863 H   0  0  0  0  0  0  0  0  0  0  0  0
  148.1680  141.1351  153.8500 H   0  0  0  0  0  0  0  0  0  0  0  0
  147.4750  141.2242  152.2526 H   0  0  0  0  0  0  0  0  0  0  0  0
  145.6583  140.0700  155.2246 H   0  0  0  0  0  0  0  0  0  0  0  0
  146.5709  141.4251  155.8618 H   0  0  0  0  0  0  0  0  0  0  0  0
  143.6120  141.4189  155.0570 H   0  0  0  0  0  0  0  0  0  0  0  0
  144.2287  141.4933  156.6903 H   0  0  0  0  0  0  0  0  0  0  0  0
  143.5389  143.7575  155.8419 H   0  0  0  0  0  0  0  0  0  0  0  0
  145.2341  143.7086  156.2728 H   0  0  0  0  0  0  0  0  0  0  0  0
  144.0809  143.4705  153.4500 H   0  0  0  0  0  0  0  0  0  0  0  0
  144.9851  144.8248  154.0848 H   0  0  0  0  0  0  0  0  0  0  0  0
  147.0200  143.4198  154.3157 H   0  0  0  0  0  0  0  0  0  0  0  0
  146.4145  143.3616  152.6758 H   0  0  0  0  0  0  0  0  0  0  0  0
  145.3149  141.2976  153.2269 H   0  0  0  0  0  0  0  0  0  0  0  0
  1  2  1  0  0  0  0
  1 22  1  0  0  0  0
  1 23  1  0  0  0  0
  1 24  1  0  0  0  0
  2  7  1  0  0  0  0
  2  3  2  0  0  0  0
  3  4  1  0  0  0  0
  3 25  1  0  0  0  0
  4  5  2  0  0  0  0
  4 26  1  0  0  0  0
  5  6  1  0  0  0  0
  5 27  1  0  0  0  0
  6  7  2  0  0  0  0
  7  8  1  0  0  0  0
  8  9  1  0  0  0  0
  8 28  1  0  0  0  0
  9 10  2  0  0  0  0
  9 11  1  0  0  0  0
 11 12  1  0  0  0  0
 11 29  1  0  0  0  0
 12 13  1  0  0  0  0
 12 30  1  0  0  0  0
 12 31  1  0  0  0  0
 13 14  1  0  0  0  0
 13 15  1  0  0  0  0
 13 32  1  0  0  0  0
 14 33  1  0  0  0  0
 15 16  1  0  0  0  0
 15 34  1  0  0  0  0
 15 35  1  0  0  0  0
 16 21  1  0  0  0  0
 16 17  1  0  0  0  0
 16 46  1  0  0  0  0
 17 18  1  0  0  0  0
 17 36  1  0  0  0  0
 17 37  1  0  0  0  0
 18 19  1  0  0  0  0
 18 38  1  0  0  0  0
 18 39  1  0  0  0  0
 19 20  1  0  0  0  0
 19 40  1  0  0  0  0
 19 41  1  0  0  0  0
 20 21  1  0  0  0  0
 20 42  1  0  0  0  0
 20 43  1  0  0  0  0
 21 44  1  0  0  0  0
 21 45  1  0  0  0  0
M  CHG  1  16   1
M  END
> <s_m_source_file>
AV-unprocessed.smi

> <i_m_source_file_index>
1229

> <i_lp_mmshare_version>
43012

> <i_f3d_flags>
0

> <s_epik_input>
W0NIM11jMVtjSF1bY0hdW2NIXW5jMVtOSF1DKD1PKVtOSF1bQ0gyXVtDQEhdKFtPSF0pW0NIMl1OMltDSDJdW0NIMl1bQ0gyXVtDSDJdW0NIMl0y

> <s_epik_cmdline>
J2VwaWtfcHl0aG9uJywgJy1waCcsICc3LjAnLCAnLXRuJywgJzgnLCAnLW1hJywgJzIwMCcsICctbWV0YWxfYmluZGluZycsICctaW1hZScsICc8aW5maWxlLm1hZT4nLCAnLW9tYWUnLCAnPG91dGZpbGUubWFlPic=

> <r_epik_Ionization_Penalty>
0.00511007

> <r_epik_Ionization_Penalty_Charging>
0.00506051

> <r_epik_Ionization_Penalty_Neutral>
4.95577e-05

> <r_epik_State_Penalty>
0.00368188

> <r_epik_Charging_Adjusted_Penalty>
0.0087424

> <i_epik_Tot_Q>
1

> <i_epik_Tot_abs_Q>
1

> <r_epik_Metal_State_Penalty>
-0

> <b_epik_Metal_Only>
0

> <s_lp_Force_Field>
OPLS_2005

> <r_lp_Energy>
20.718

> <b_lp_Chiralities_Consistent>
1

> <s_lp_Variant>
AV-unprocessed.smi:1229-2

> <Gold.Version>
5.8.1

> <Gold.Id.Protein>
6NUR|6NUR_protein|mol2

> <Gold.PLP.Fitness>
56.5745

> <Gold.PLP.PLP>
-40.2439

> <Gold.PLP.part.hbond>
-4.9686

> <Gold.PLP.part.metal>
0.0000

> <Gold.PLP.part.buried>
-6.8687

> <Gold.PLP.part.nonpolar>
-32.0623

> <Gold.PLP.part.repulsive>
2.4429

> <Gold.PLP.ligand.clash>
0.0000

> <Gold.PLP.ligand.torsion>
0.7808

> <Gold.PLP.Chemscore.Hbond>
4.9440

> <Gold.PLP.Chemscore.CHOScore>
0.9946

> <Gold.PLP.Chemscore.Metal>
0.0000

> <Gold.Chemscore.Hbonds>
donor molecule, donor type, donor heavy atom, donor atom, acceptor molecule, acceptor atom, score
      L1  H     8    28       P1  7948  0.94
      L1  H    11    29       P1  7948  1.00
      L1  H    14    33       P1  7957  1.00
      L1  H    16    46       P1 10175  1.70
      L1  C     5    27       P1 10186  0.91

> <Gold.PLP.Chemscore.Internal.Correction>
0.0762

> <Gold.Rescore>
     Score         DG    S(hbond)    S(metal)    S(lipo)     H(rot)  DE(clash)    DE(int)     intcor
     17.72     -19.69       3.18        0.00      81.21       2.31       0.13       1.83       ----

> <Gold.Chemscore.Fitness>
17.7186

> <Gold.Chemscore.DG>
-19.6851

> <Gold.Chemscore.ZeroCoef>
-5.4800

> <Gold.Chemscore.Hbond>
3.1784

> <Gold.Chemscore.Metal>
0.0000

> <Gold.Chemscore.Lipo>
81.2103

> <Gold.Chemscore.Internal_Hbond>
0.0000

> <Gold.Chemscore.DEClash>
0.1337

> <Gold.Chemscore.DEInternal>
1.8329

> <Gold.Chemscore.Rot>
2.3095

> <Gold.Chemscore.Internal.Correction>
   9.000000E+99

> <Gold.Chemscore.Hbonds>
donor molecule, donor type, donor heavy atom, donor atom, acceptor molecule, acceptor atom, score
      L1  H     8    28       P1  7948  0.70
      L1  H    11    29       P1  7948  0.99
      L1  H    14    33       P1  7957  0.95
      L1  H    16    46       P1 10175  0.14

> <Gold.Chemscore.Hbond.Weighted>
-10.6159

> <Gold.Chemscore.Metal.Weighted>
-0.0000

> <Gold.Chemscore.Lipo.Weighted>
-9.5016

> <Gold.Chemscore.Internal_Hbond.Weighted>
0.0000

> <Gold.Chemscore.DEClash.Weighted>
0.1337

> <Gold.Chemscore.DEInternal.Weighted>
1.8329

> <Gold.Chemscore.Rot.Weighted>
5.9124

> <Gold.Chemscore.Internal.Correction.Weighted>
   9.000000E+99

> <Gold.Protein.RotatedTorsions>
[ 6907 6896 6895 6894 ] final  -99.29 input  -60.11 | X-H torsion
[ 7974 7965 7964 7962 ] final -136.96 input  175.53 | X-H torsion
[ 8008 7997 7996 7995 ] final  115.88 input   59.86 | X-H torsion
[ 10167 10162 10161 10158 ] final -122.22 input  -65.29 | X-H torsion
[ 10718 10713 10712 10709 ] final   36.46 input   66.30 | X-H torsion
[ 10763 10752 10751 10750 ] final   81.56 input  -60.55 | X-H torsion
[ 11005 11000 10999 10996 ] final  -40.01 input  -57.11 | X-H torsion

> <Gold.Protein.ActiveResidues>
 VAL166  LYS551  ARG553  GLY616  TRP617  ASP618  TYR619  PRO620  LYS621  CYS622 
 ASP623  PHE694  ASN695  SER759  ASP760  ASP761  ALA762  ILE779  LEU786  VAL792 
 PHE793  MET794  SER795  GLU796  ALA797  LYS798  CYS799  TRP800  GLU811  SER814 

> <Gold.Protein.RotatedAtoms>
  150.7075  134.1063  159.3983 H   0  0  0  0  0  0  0  0  0  0  0  0  # atno 6907 bound_to 6896
  151.9049  135.0360  160.0519 H   0  0  0  0  0  0  0  0  0  0  0  0  # atno 6908 bound_to 6896
  152.2383  133.5079  159.5292 H   0  0  0  0  0  0  0  0  0  0  0  0  # atno 6909 bound_to 6896
  144.8883  140.6605  143.5162 H   0  0  0  0  0  0  0  0  0  0  0  0  # atno 7974 bound_to 7965
  156.2407  140.2929  156.0436 H   0  0  0  0  0  0  0  0  0  0  0  0  # atno 8008 bound_to 7997
  155.1960  140.0408  157.2926 H   0  0  0  0  0  0  0  0  0  0  0  0  # atno 8009 bound_to 7997
  154.6163  140.2464  155.7613 H   0  0  0  0  0  0  0  0  0  0  0  0  # atno 8010 bound_to 7997
  140.0166  143.5387  152.2239 H   0  0  0  0  0  0  0  0  0  0  0  0  # atno 10167 bound_to 10162
  157.3351  130.7518  149.6874 H   0  0  0  0  0  0  0  0  0  0  0  0  # atno 10718 bound_to 10713
  153.1127  135.4761  154.9063 H   0  0  0  0  0  0  0  0  0  0  0  0  # atno 10763 bound_to 10752
  154.7497  135.3103  154.8582 H   0  0  0  0  0  0  0  0  0  0  0  0  # atno 10764 bound_to 10752
  153.9167  135.6859  153.4802 H   0  0  0  0  0  0  0  0  0  0  0  0  # atno 10765 bound_to 10752
  141.0143  133.6893  156.2263 H   0  0  0  0  0  0  0  0  0  0  0  0  # atno 11005 bound_to 11000
  145.3830  139.1633  143.4270 LP  0  0  0  0  0  0  0  0  0  0  0  0  # atno 17320 bound_to 7965
  146.3038  140.3912  142.8694 LP  0  0  0  0  0  0  0  0  0  0  0  0  # atno 17321 bound_to 7965
  139.6168  144.7621  151.2828 LP  0  0  0  0  0  0  0  0  0  0  0  0  # atno 17342 bound_to 10162
  140.7360  143.6721  150.8073 LP  0  0  0  0  0  0  0  0  0  0  0  0  # atno 17343 bound_to 10162
  155.9700  130.4184  150.4324 LP  0  0  0  0  0  0  0  0  0  0  0  0  # atno 17370 bound_to 10713
  157.2363  131.0515  151.2463 LP  0  0  0  0  0  0  0  0  0  0  0  0  # atno 17371 bound_to 10713
  140.6680  134.4897  157.5586 LP  0  0  0  0  0  0  0  0  0  0  0  0  # atno 17394 bound_to 11000
  139.9108  134.8349  156.1536 LP  0  0  0  0  0  0  0  0  0  0  0  0  # atno 17395 bound_to 11000

$$$$
