AV-unprocessed.smi:1292|AV-procd|sdf|5397|dock4
  -GOLD-   22720 4553D 1   1.00000     0.00000
 Structure written by MMmdl.
 39 40  0  0  0  0  0  0  0  0  2 V2000
  151.5768  144.4462  159.3136 C   0  0  0  0  0  0  0  0  0  0  0  0
  151.9230  143.0203  159.7645 C   0  0  2  0  0  0  0  0  0  0  0  0
  153.3388  142.9436  160.3526 C   0  0  0  0  0  0  0  0  0  0  0  0
  153.6296  141.5092  160.8024 C   0  0  0  0  0  0  0  0  0  0  0  0
  153.4579  140.5167  159.6422 C   0  0  0  0  0  0  0  0  0  0  0  0
  152.1240  140.6403  159.0188 N   0  0  0  0  0  0  0  0  0  0  0  0
  151.5652  139.3285  158.0248 S   0  0  0  0  0  0  0  0  0  0  0  0
  150.1884  139.6602  157.6235 O   0  0  0  0  0  0  0  0  0  0  0  0
  152.5695  139.1603  156.9612 O   0  0  0  0  0  0  0  0  0  0  0  0
  151.6378  138.1856  159.1701 N   0  5  0  0  0  0  0  0  0  0  0  0
  150.9720  136.9128  158.9591 C   0  0  0  0  0  0  0  0  0  0  0  0
  149.5459  136.9431  159.5579 C   0  0  0  0  0  0  0  0  0  0  0  0
  149.2823  135.9262  160.6681 C   0  0  0  0  0  0  0  0  0  0  0  0
  149.3738  134.5385  160.4125 C   0  0  0  0  0  0  0  0  0  0  0  0
  149.1243  133.6398  161.4676 C   0  0  0  0  0  0  0  0  0  0  0  0
  148.7875  134.1550  162.7339 C   0  0  0  0  0  0  0  0  0  0  0  0
  148.7117  135.5533  162.8885 C   0  0  0  0  0  0  0  0  0  0  0  0
  148.9448  136.4232  161.8835 N   0  0  0  0  0  0  0  0  0  0  0  0
  151.7662  142.0150  158.6074 C   0  0  0  0  0  0  0  0  0  0  0  0
  152.2484  144.7862  158.5247 H   0  0  0  0  0  0  0  0  0  0  0  0
  151.6517  145.1500  160.1427 H   0  0  0  0  0  0  0  0  0  0  0  0
  150.5580  144.4983  158.9283 H   0  0  0  0  0  0  0  0  0  0  0  0
  151.2157  142.7433  160.5477 H   0  0  0  0  0  0  0  0  0  0  0  0
  154.0732  143.2552  159.6084 H   0  0  0  0  0  0  0  0  0  0  0  0
  153.4371  143.6248  161.1983 H   0  0  0  0  0  0  0  0  0  0  0  0
  154.6426  141.4415  161.1994 H   0  0  0  0  0  0  0  0  0  0  0  0
  152.9588  141.2366  161.6183 H   0  0  0  0  0  0  0  0  0  0  0  0
  154.2218  140.6884  158.8825 H   0  0  0  0  0  0  0  0  0  0  0  0
  153.6017  139.5013  160.0103 H   0  0  0  0  0  0  0  0  0  0  0  0
  150.9003  136.6807  157.8962 H   0  0  0  0  0  0  0  0  0  0  0  0
  151.5248  136.0853  159.4054 H   0  0  0  0  0  0  0  0  0  0  0  0
  149.3252  137.9441  159.9320 H   0  0  0  0  0  0  0  0  0  0  0  0
  148.8253  136.7645  158.7592 H   0  0  0  0  0  0  0  0  0  0  0  0
  149.6382  134.1724  159.4315 H   0  0  0  0  0  0  0  0  0  0  0  0
  149.1919  132.5736  161.3087 H   0  0  0  0  0  0  0  0  0  0  0  0
  148.5917  133.4958  163.5663 H   0  0  0  0  0  0  0  0  0  0  0  0
  148.4544  135.9848  163.8444 H   0  0  0  0  0  0  0  0  0  0  0  0
  150.7366  142.0327  158.2509 H   0  0  0  0  0  0  0  0  0  0  0  0
  152.3940  142.3051  157.7635 H   0  0  0  0  0  0  0  0  0  0  0  0
  1  2  1  0  0  0  0
  1 20  1  0  0  0  0
  1 21  1  0  0  0  0
  1 22  1  0  0  0  0
  2 19  1  0  0  0  0
  2  3  1  0  0  0  0
  2 23  1  0  0  0  0
  3  4  1  0  0  0  0
  3 24  1  0  0  0  0
  3 25  1  0  0  0  0
  4  5  1  0  0  0  0
  4 26  1  0  0  0  0
  4 27  1  0  0  0  0
  5  6  1  0  0  0  0
  5 28  1  0  0  0  0
  5 29  1  0  0  0  0
  6  7  1  0  0  0  0
  6 19  1  0  0  0  0
  7  8  2  0  0  0  0
  7  9  2  0  0  0  0
  7 10  1  0  0  0  0
 10 11  1  0  0  0  0
 11 12  1  0  0  0  0
 11 30  1  0  0  0  0
 11 31  1  0  0  0  0
 12 13  1  0  0  0  0
 12 32  1  0  0  0  0
 12 33  1  0  0  0  0
 13 18  1  0  0  0  0
 13 14  2  0  0  0  0
 14 15  1  0  0  0  0
 14 34  1  0  0  0  0
 15 16  2  0  0  0  0
 15 35  1  0  0  0  0
 16 17  1  0  0  0  0
 16 36  1  0  0  0  0
 17 18  2  0  0  0  0
 17 37  1  0  0  0  0
 19 38  1  0  0  0  0
 19 39  1  0  0  0  0
M  CHG  1  10  -1
M  END
> <s_m_source_file>
AV-unprocessed.smi

> <i_m_source_file_index>
1292

> <i_lp_mmshare_version>
43012

> <i_f3d_flags>
0

> <s_epik_input>
W0NIM11bQ0BASF0xW0NIMl1bQ0gyXVtDSDJdTihbQ0gyXTEpUyg9TykoPU8pW05IXVtDSDJdW0NIMl1jMltjSF1bY0hdW2NIXVtjSF1uMg==

> <s_epik_cmdline>
J2VwaWtfcHl0aG9uJywgJy1waCcsICc3LjAnLCAnLXRuJywgJzgnLCAnLW1hJywgJzIwMCcsICctbWV0YWxfYmluZGluZycsICctaW1hZScsICc8aW5maWxlLm1hZT4nLCAnLW9tYWUnLCAnPG91dGZpbGUubWFlPic=

> <r_epik_Ionization_Penalty>
2.02944

> <r_epik_Ionization_Penalty_Charging>
1.95606

> <r_epik_Ionization_Penalty_Neutral>
0.0733799

> <r_epik_State_Penalty>
2.47711

> <r_epik_Charging_Adjusted_Penalty>
4.43317

> <i_epik_Tot_Q>
-1

> <i_epik_Tot_abs_Q>
1

> <r_epik_Metal_State_Penalty>
0.729901

> <b_epik_Metal_Only>
0

> <s_lp_Force_Field>
OPLS_2005

> <r_lp_Energy>
8.05256

> <b_lp_Chiralities_Consistent>
1

> <s_lp_Variant>
AV-unprocessed.smi:1292-3

> <Gold.Version>
5.8.1

> <Gold.Id.Protein>
6NUR|6NUR_protein|mol2

> <Gold.PLP.Fitness>
49.2253

> <Gold.PLP.PLP>
-42.5892

> <Gold.PLP.part.hbond>
-3.0000

> <Gold.PLP.part.metal>
0.0000

> <Gold.PLP.part.buried>
-4.1182

> <Gold.PLP.part.nonpolar>
-34.6270

> <Gold.PLP.part.repulsive>
0.0000

> <Gold.PLP.ligand.clash>
0.0000

> <Gold.PLP.ligand.torsion>
2.3347

> <Gold.PLP.Chemscore.Hbond>
2.7360

> <Gold.PLP.Chemscore.CHOScore>
0.0000

> <Gold.PLP.Chemscore.Metal>
0.0000

> <Gold.Chemscore.Hbonds>
donor molecule, donor type, donor heavy atom, donor atom, acceptor molecule, acceptor atom, score
      P1  H  6931  6943       L1    18  1.00
      P1  H  7997  8009       L1     9  0.84

> <Gold.PLP.Chemscore.Internal.Correction>
3.0976

> <Gold.Rescore>
     Score         DG    S(hbond)    S(metal)    S(lipo)     H(rot)  DE(clash)    DE(int)     intcor
     19.71     -22.06       2.33        0.00     103.09       1.27       0.02       2.33       ----

> <Gold.Chemscore.Fitness>
19.7084

> <Gold.Chemscore.DG>
-22.0614

> <Gold.Chemscore.ZeroCoef>
-5.4800

> <Gold.Chemscore.Hbond>
2.3297

> <Gold.Chemscore.Metal>
0.0000

> <Gold.Chemscore.Lipo>
103.0882

> <Gold.Chemscore.Internal_Hbond>
0.0000

> <Gold.Chemscore.DEClash>
0.0184

> <Gold.Chemscore.DEInternal>
2.3345

> <Gold.Chemscore.Rot>
1.2738

> <Gold.Chemscore.Internal.Correction>
   9.000000E+99

> <Gold.Chemscore.Hbonds>
donor molecule, donor type, donor heavy atom, donor atom, acceptor molecule, acceptor atom, score
      P1  H  6931  6943       L1    18  0.82
      P1  H  7997  8009       L1     9  0.84

> <Gold.Chemscore.Hbond.Weighted>
-7.7811

> <Gold.Chemscore.Metal.Weighted>
-0.0000

> <Gold.Chemscore.Lipo.Weighted>
-12.0613

> <Gold.Chemscore.Internal_Hbond.Weighted>
0.0000

> <Gold.Chemscore.DEClash.Weighted>
0.0184

> <Gold.Chemscore.DEInternal.Weighted>
2.3345

> <Gold.Chemscore.Rot.Weighted>
3.2610

> <Gold.Chemscore.Internal.Correction.Weighted>
   9.000000E+99

> <Gold.Protein.RotatedTorsions>
[ 6907 6896 6895 6894 ] final  155.34 input  -60.11 | X-H torsion
[ 7974 7965 7964 7962 ] final -135.39 input  175.53 | X-H torsion
[ 8008 7997 7996 7995 ] final  167.41 input   59.86 | X-H torsion
[ 10167 10162 10161 10158 ] final  112.38 input  -65.29 | X-H torsion
[ 10718 10713 10712 10709 ] final  -95.59 input   66.30 | X-H torsion
[ 10763 10752 10751 10750 ] final    2.17 input  -60.55 | X-H torsion
[ 11005 11000 10999 10996 ] final   84.22 input  -57.11 | X-H torsion

> <Gold.Protein.ActiveResidues>
 VAL166  LYS551  ARG553  GLY616  TRP617  ASP618  TYR619  PRO620  LYS621  CYS622 
 ASP623  PHE694  ASN695  SER759  ASP760  ASP761  ALA762  ILE779  LEU786  VAL792 
 PHE793  MET794  SER795  GLU796  ALA797  LYS798  CYS799  TRP800  GLU811  SER814 

> <Gold.Protein.RotatedAtoms>
  152.0455  133.3996  159.4354 H   0  0  0  0  0  0  0  0  0  0  0  0  # atno 6907 bound_to 6896
  150.6873  134.3366  159.4859 H   0  0  0  0  0  0  0  0  0  0  0  0  # atno 6908 bound_to 6896
  152.1170  134.9233  160.0615 H   0  0  0  0  0  0  0  0  0  0  0  0  # atno 6909 bound_to 6896
  144.9018  140.6781  143.5080 H   0  0  0  0  0  0  0  0  0  0  0  0  # atno 7974 bound_to 7965
  156.1636  140.1617  156.8570 H   0  0  0  0  0  0  0  0  0  0  0  0  # atno 8008 bound_to 7997
  154.5185  140.0784  156.8162 H   0  0  0  0  0  0  0  0  0  0  0  0  # atno 8009 bound_to 7997
  155.3657  140.3397  155.4244 H   0  0  0  0  0  0  0  0  0  0  0  0  # atno 8010 bound_to 7997
  139.6540  144.7129  151.1992 H   0  0  0  0  0  0  0  0  0  0  0  0  # atno 10167 bound_to 10162
  156.0046  130.5116  150.6100 H   0  0  0  0  0  0  0  0  0  0  0  0  # atno 10718 bound_to 10713
  153.2989  135.6954  153.7222 H   0  0  0  0  0  0  0  0  0  0  0  0  # atno 10763 bound_to 10752
  153.6143  135.3438  155.2990 H   0  0  0  0  0  0  0  0  0  0  0  0  # atno 10764 bound_to 10752
  154.8545  135.4371  154.2094 H   0  0  0  0  0  0  0  0  0  0  0  0  # atno 10765 bound_to 10752
  139.9007  134.8201  156.2415 H   0  0  0  0  0  0  0  0  0  0  0  0  # atno 11005 bound_to 11000
  145.3604  139.1683  143.4386 LP  0  0  0  0  0  0  0  0  0  0  0  0  # atno 17320 bound_to 7965
  146.3112  140.3665  142.8670 LP  0  0  0  0  0  0  0  0  0  0  0  0  # atno 17321 bound_to 7965
  140.7551  143.6102  150.8612 LP  0  0  0  0  0  0  0  0  0  0  0  0  # atno 17342 bound_to 10162
  139.9753  143.6011  152.2960 LP  0  0  0  0  0  0  0  0  0  0  0  0  # atno 17343 bound_to 10162
  157.3934  131.0799  151.1373 LP  0  0  0  0  0  0  0  0  0  0  0  0  # atno 17370 bound_to 10713
  157.2058  130.6415  149.5755 LP  0  0  0  0  0  0  0  0  0  0  0  0  # atno 17371 bound_to 10713
  141.0282  133.7003  156.1383 LP  0  0  0  0  0  0  0  0  0  0  0  0  # atno 17394 bound_to 11000
  140.7136  134.4435  157.5580 LP  0  0  0  0  0  0  0  0  0  0  0  0  # atno 17395 bound_to 11000

$$$$
