AV-unprocessed.smi:1060|AV-procd|sdf|4656|dock3
  -GOLD-   22720 3163D 1   1.00000     0.00000
 Structure written by MMmdl.
 37 38  0  0  0  0  0  0  0  0  1 V2000
  151.6273  138.1799  158.7694 O   0  0  0  0  0  0  0  0  0  0  0  0
  150.4857  138.2108  158.3104 C   0  0  0  0  0  0  0  0  0  0  0  0
  149.7429  136.9044  158.0236 C   0  0  0  0  0  0  0  0  0  0  0  0
  149.5225  136.2027  159.2375 O   0  0  0  0  0  0  0  0  0  0  0  0
  148.1484  136.0953  159.5675 C   0  0  0  0  0  0  0  0  0  0  0  0
  148.0155  135.9341  161.0868 C   0  0  2  0  0  0  0  0  0  0  0  0
  146.8799  135.0075  161.5118 C   0  0  0  0  0  0  0  0  0  0  0  0
  146.5918  135.4510  162.9357 C   0  0  0  0  0  0  0  0  0  0  0  0
  147.1540  136.8747  162.9998 C   0  0  0  0  0  0  0  0  0  0  0  0
  147.6299  137.1590  161.6899 O   0  0  0  0  0  0  0  0  0  0  0  0
  149.7874  139.3294  158.0331 N   0  0  0  0  0  0  0  0  0  0  0  0
  150.1623  140.6788  158.1560 C   0  0  0  0  0  0  0  0  0  0  0  0
  151.0401  141.1673  159.0716 C   0  0  0  0  0  0  0  0  0  0  0  0
  151.3878  142.5770  159.1324 C   0  0  0  0  0  0  0  0  0  0  0  0
  152.3068  143.1232  160.2145 C   0  0  0  0  0  0  0  0  0  0  0  0
  153.3577  143.7218  159.6561 F   0  0  0  0  0  0  0  0  0  0  0  0
  151.6782  144.0161  160.9799 F   0  0  0  0  0  0  0  0  0  0  0  0
  152.7562  142.1433  160.9983 F   0  0  0  0  0  0  0  0  0  0  0  0
  150.7888  143.3824  158.2361 C   0  0  0  0  0  0  0  0  0  0  0  0
  149.9021  142.8861  157.2783 N   0  0  0  0  0  0  0  0  0  0  0  0
  149.5449  141.5866  157.1744 C   0  0  0  0  0  0  0  0  0  0  0  0
  148.7536  141.2285  156.3025 O   0  0  0  0  0  0  0  0  0  0  0  0
  149.5062  143.5522  156.6308 H   0  0  0  0  0  0  0  0  0  0  0  0
  148.7903  137.1276  157.5400 H   0  0  0  0  0  0  0  0  0  0  0  0
  150.3367  136.2991  157.3371 H   0  0  0  0  0  0  0  0  0  0  0  0
  147.5931  136.9692  159.2233 H   0  0  0  0  0  0  0  0  0  0  0  0
  147.7304  135.2207  159.0668 H   0  0  0  0  0  0  0  0  0  0  0  0
  148.9555  135.5895  161.5219 H   0  0  0  0  0  0  0  0  0  0  0  0
  146.0006  135.1803  160.8895 H   0  0  0  0  0  0  0  0  0  0  0  0
  147.1432  133.9520  161.4391 H   0  0  0  0  0  0  0  0  0  0  0  0
  145.5250  135.4169  163.1580 H   0  0  0  0  0  0  0  0  0  0  0  0
  147.1057  134.8111  163.6540 H   0  0  0  0  0  0  0  0  0  0  0  0
  146.4028  137.6052  163.3005 H   0  0  0  0  0  0  0  0  0  0  0  0
  147.9825  136.9285  163.7070 H   0  0  0  0  0  0  0  0  0  0  0  0
  148.8400  139.1892  157.7123 H   0  0  0  0  0  0  0  0  0  0  0  0
  151.5280  140.5188  159.7798 H   0  0  0  0  0  0  0  0  0  0  0  0
  150.9330  144.4517  158.1869 H   0  0  0  0  0  0  0  0  0  0  0  0
  1  2  2  0  0  0  0
  2  3  1  0  0  0  0
  2 11  1  0  0  0  0
  3  4  1  0  0  0  0
  3 24  1  0  0  0  0
  3 25  1  0  0  0  0
  4  5  1  0  0  0  0
  5  6  1  0  0  0  0
  5 26  1  0  0  0  0
  5 27  1  0  0  0  0
  6 10  1  0  0  0  0
  6  7  1  0  0  0  0
  6 28  1  0  0  0  0
  7  8  1  0  0  0  0
  7 29  1  0  0  0  0
  7 30  1  0  0  0  0
  8  9  1  0  0  0  0
  8 31  1  0  0  0  0
  8 32  1  0  0  0  0
  9 10  1  0  0  0  0
  9 33  1  0  0  0  0
  9 34  1  0  0  0  0
 11 12  1  0  0  0  0
 11 35  1  0  0  0  0
 12 21  1  0  0  0  0
 12 13  2  0  0  0  0
 13 14  1  0  0  0  0
 13 36  1  0  0  0  0
 14 15  1  0  0  0  0
 14 19  2  0  0  0  0
 15 16  1  0  0  0  0
 15 17  1  0  0  0  0
 15 18  1  0  0  0  0
 19 20  1  0  0  0  0
 19 37  1  0  0  0  0
 20 23  1  0  0  0  0
 20 21  1  0  0  0  0
 21 22  2  0  0  0  0
M  END
> <s_m_source_file>
AV-unprocessed.smi

> <i_m_source_file_index>
1060

> <i_lp_mmshare_version>
43012

> <i_f3d_flags>
0

> <s_epik_input>
Tz1jMVtuSF1bY0hdYyhDKEYpKEYpRilbY0hdYzFbTkhdQyg9TylbQ0gyXU9bQ0gyXVtDQEBIXTJbQ0gyXVtDSDJdW0NIMl1PMg==

> <s_epik_cmdline>
J2VwaWtfcHl0aG9uJywgJy1waCcsICc3LjAnLCAnLXRuJywgJzgnLCAnLW1hJywgJzIwMCcsICctbWV0YWxfYmluZGluZycsICctaW1hZScsICc8aW5maWxlLm1hZT4nLCAnLW9tYWUnLCAnPG91dGZpbGUubWFlPic=

> <r_lp_tautomer_probability>
0.999

> <r_epik_Ionization_Penalty>
0.00950091

> <r_epik_Ionization_Penalty_Charging>
0.00950081

> <r_epik_Ionization_Penalty_Neutral>
1.00143e-07

> <r_epik_State_Penalty>
0.00721819

> <r_epik_Charging_Adjusted_Penalty>
0.016719

> <i_epik_Tot_Q>
0

> <i_epik_Tot_abs_Q>
0

> <r_epik_Metal_State_Penalty>
0.323303

> <b_epik_Metal_Only>
0

> <s_lp_Force_Field>
OPLS_2005

> <r_lp_Energy>
32.1997

> <b_lp_Chiralities_Consistent>
1

> <s_lp_Variant>
AV-unprocessed.smi:1060-1

> <Gold.Version>
5.8.1

> <Gold.Id.Protein>
6NUR|6NUR_protein|mol2

> <Gold.PLP.Fitness>
51.3062

> <Gold.PLP.PLP>
-42.4062

> <Gold.PLP.part.hbond>
-4.0000

> <Gold.PLP.part.metal>
0.0000

> <Gold.PLP.part.buried>
-6.5089

> <Gold.PLP.part.nonpolar>
-33.0380

> <Gold.PLP.part.repulsive>
0.1905

> <Gold.PLP.ligand.clash>
0.0000

> <Gold.PLP.ligand.torsion>
1.2794

> <Gold.PLP.Chemscore.Hbond>
3.7326

> <Gold.PLP.Chemscore.CHOScore>
0.0300

> <Gold.PLP.Chemscore.Metal>
0.0000

> <Gold.Chemscore.Hbonds>
donor molecule, donor type, donor heavy atom, donor atom, acceptor molecule, acceptor atom, score
      L1  H    20    23       P1  8028  1.00
      P1  H  6896  6908       L1     4  0.98
      P1  H  6931  6943       L1    10  1.00
      P1  H  6934  6947       L1    10  0.71

> <Gold.PLP.Chemscore.Internal.Correction>
0.1711

> <Gold.Rescore>
     Score         DG    S(hbond)    S(metal)    S(lipo)     H(rot)  DE(clash)    DE(int)     intcor
     16.90     -18.47       2.67        0.00      77.55       1.95       0.07       1.50       ----

> <Gold.Chemscore.Fitness>
16.9043

> <Gold.Chemscore.DG>
-18.4688

> <Gold.Chemscore.ZeroCoef>
-5.4800

> <Gold.Chemscore.Hbond>
2.6690

> <Gold.Chemscore.Metal>
0.0000

> <Gold.Chemscore.Lipo>
77.5495

> <Gold.Chemscore.Internal_Hbond>
0.0000

> <Gold.Chemscore.DEClash>
0.0681

> <Gold.Chemscore.DEInternal>
1.4964

> <Gold.Chemscore.Rot>
1.9527

> <Gold.Chemscore.Internal.Correction>
   9.000000E+99

> <Gold.Chemscore.Hbonds>
donor molecule, donor type, donor heavy atom, donor atom, acceptor molecule, acceptor atom, score
      L1  H    20    23       P1  8028  0.99
      P1  H  6896  6908       L1     4  0.76
      P1  H  6931  6943       L1    10  0.39
      P1  H  6934  6947       L1    10  0.62

> <Gold.Chemscore.Hbond.Weighted>
-8.9145

> <Gold.Chemscore.Metal.Weighted>
-0.0000

> <Gold.Chemscore.Lipo.Weighted>
-9.0733

> <Gold.Chemscore.Internal_Hbond.Weighted>
0.0000

> <Gold.Chemscore.DEClash.Weighted>
0.0681

> <Gold.Chemscore.DEInternal.Weighted>
1.4964

> <Gold.Chemscore.Rot.Weighted>
4.9990

> <Gold.Chemscore.Internal.Correction.Weighted>
   9.000000E+99

> <Gold.Protein.RotatedTorsions>
[ 6907 6896 6895 6894 ] final  166.49 input  -60.11 | X-H torsion
[ 7974 7965 7964 7962 ] final  -28.36 input  175.53 | X-H torsion
[ 8008 7997 7996 7995 ] final -153.54 input   59.86 | X-H torsion
[ 10167 10162 10161 10158 ] final    0.97 input  -65.29 | X-H torsion
[ 10718 10713 10712 10709 ] final  130.17 input   66.30 | X-H torsion
[ 10763 10752 10751 10750 ] final   98.70 input  -60.55 | X-H torsion
[ 11005 11000 10999 10996 ] final  139.23 input  -57.11 | X-H torsion

> <Gold.Protein.ActiveResidues>
 VAL166  LYS551  ARG553  GLY616  TRP617  ASP618  TYR619  PRO620  LYS621  CYS622 
 ASP623  PHE694  ASN695  SER759  ASP760  ASP761  ALA762  ILE779  LEU786  VAL792 
 PHE793  MET794  SER795  GLU796  ALA797  LYS798  CYS799  TRP800  GLU811  SER814 

> <Gold.Protein.RotatedAtoms>
  151.8780  133.3489  159.3756 H   0  0  0  0  0  0  0  0  0  0  0  0  # atno 6907 bound_to 6896
  150.7135  134.5047  159.5587 H   0  0  0  0  0  0  0  0  0  0  0  0  # atno 6908 bound_to 6896
  152.2593  134.8052  160.0484 H   0  0  0  0  0  0  0  0  0  0  0  0  # atno 6909 bound_to 6896
  146.1293  140.5273  142.8700 H   0  0  0  0  0  0  0  0  0  0  0  0  # atno 7974 bound_to 7965
  155.6725  140.0735  157.2515 H   0  0  0  0  0  0  0  0  0  0  0  0  # atno 8008 bound_to 7997
  154.4121  140.1696  156.1946 H   0  0  0  0  0  0  0  0  0  0  0  0  # atno 8009 bound_to 7997
  155.9604  140.3370  155.6489 H   0  0  0  0  0  0  0  0  0  0  0  0  # atno 8010 bound_to 7997
  140.6704  143.7063  150.7912 H   0  0  0  0  0  0  0  0  0  0  0  0  # atno 10167 bound_to 10162
  157.5087  131.1096  150.9324 H   0  0  0  0  0  0  0  0  0  0  0  0  # atno 10718 bound_to 10713
  153.2922  135.4139  155.1177 H   0  0  0  0  0  0  0  0  0  0  0  0  # atno 10763 bound_to 10752
  154.8524  135.3521  154.5965 H   0  0  0  0  0  0  0  0  0  0  0  0  # atno 10764 bound_to 10752
  153.6388  135.7058  153.5307 H   0  0  0  0  0  0  0  0  0  0  0  0  # atno 10765 bound_to 10752
  140.0240  134.9383  157.0531 H   0  0  0  0  0  0  0  0  0  0  0  0  # atno 11005 bound_to 11000
  144.7674  140.5562  143.6693 LP  0  0  0  0  0  0  0  0  0  0  0  0  # atno 17320 bound_to 7965
  145.5295  139.1475  143.3507 LP  0  0  0  0  0  0  0  0  0  0  0  0  # atno 17321 bound_to 7965
  140.0748  143.5026  152.2561 LP  0  0  0  0  0  0  0  0  0  0  0  0  # atno 17342 bound_to 10162
  139.5971  144.7570  151.3261 LP  0  0  0  0  0  0  0  0  0  0  0  0  # atno 17343 bound_to 10162
  156.9972  130.5586  149.5308 LP  0  0  0  0  0  0  0  0  0  0  0  0  # atno 17370 bound_to 10713
  156.0275  130.5368  150.8445 LP  0  0  0  0  0  0  0  0  0  0  0  0  # atno 17371 bound_to 10713
  140.4338  134.1753  155.7169 LP  0  0  0  0  0  0  0  0  0  0  0  0  # atno 17394 bound_to 11000
  141.1791  133.8451  157.1319 LP  0  0  0  0  0  0  0  0  0  0  0  0  # atno 17395 bound_to 11000

$$$$
