AV-unprocessed.smi:890|AV-procd|sdf|4060|dock2
  -GOLD-   22720 1553D 1   1.00000     0.00000
 Structure written by MMmdl.
 53 56  0  0  0  0  0  0  0  0  3 V2000
  147.5438  137.0700  154.4600 O   0  0  0  0  0  0  0  0  0  0  0  0
  146.8725  137.9216  153.8802 C   0  0  0  0  0  0  0  0  0  0  0  0
  147.1281  139.2414  153.8542 N   0  0  0  0  0  0  0  0  0  0  0  0
  148.2027  139.9820  154.4329 C   0  0  0  0  0  0  0  0  0  0  0  0
  149.4944  139.4442  154.6766 C   0  0  0  0  0  0  0  0  0  0  0  0
  150.4953  140.2550  155.2478 C   0  0  0  0  0  0  0  0  0  0  0  0
  150.1971  141.5918  155.5662 C   0  0  0  0  0  0  0  0  0  0  0  0
  148.9629  142.0766  155.3200 N   0  3  0  0  0  0  0  0  0  0  0  0
  147.9651  141.3400  154.7726 C   0  0  0  0  0  0  0  0  0  0  0  0
  146.7148  141.9471  154.5600 N   0  0  0  0  0  0  0  0  0  0  0  0
  146.6752  142.9563  153.5150 C   0  0  0  0  0  0  0  0  0  0  0  0
  145.3570  143.7028  153.7265 C   0  0  0  0  0  0  0  0  0  0  0  0
  145.0189  143.4875  155.2067 C   0  0  0  0  0  0  0  0  0  0  0  0
  146.1186  142.5607  155.7353 C   0  0  0  0  0  0  0  0  0  0  0  0
  145.7647  137.6324  153.1822 N   0  0  0  0  0  0  0  0  0  0  0  0
  145.2258  136.2901  152.9798 C   0  0  2  0  0  0  0  0  0  0  0  0
  146.1703  135.4785  152.0779 C   0  0  0  0  0  0  0  0  0  0  0  0
  145.5916  134.0843  151.7830 C   0  0  0  0  0  0  0  0  0  0  0  0
  144.2448  134.1858  151.1680 N   0  3  1  0  0  0  0  0  0  0  0  0
  143.7135  132.8636  150.7711 C   0  0  0  0  0  0  0  0  0  0  0  0
  144.7625  131.9327  150.2085 C   0  0  0  0  0  0  0  0  0  0  0  0
  143.7727  132.6051  149.2835 C   0  0  0  0  0  0  0  0  0  0  0  0
  143.2994  134.9319  152.0356 C   0  0  0  0  0  0  0  0  0  0  0  0
  143.8248  136.3448  152.3415 C   0  0  0  0  0  0  0  0  0  0  0  0
  146.4584  139.8000  153.3455 H   0  0  0  0  0  0  0  0  0  0  0  0
  149.7544  138.4263  154.4378 H   0  0  0  0  0  0  0  0  0  0  0  0
  151.4806  139.8543  155.4370 H   0  0  0  0  0  0  0  0  0  0  0  0
  150.9022  142.2831  156.0046 H   0  0  0  0  0  0  0  0  0  0  0  0
  147.5151  143.6457  153.6126 H   0  0  0  0  0  0  0  0  0  0  0  0
  146.7244  142.5017  152.5250 H   0  0  0  0  0  0  0  0  0  0  0  0
  145.4424  144.7580  153.4656 H   0  0  0  0  0  0  0  0  0  0  0  0
  144.5746  143.2690  153.1023 H   0  0  0  0  0  0  0  0  0  0  0  0
  144.9910  144.4251  155.7626 H   0  0  0  0  0  0  0  0  0  0  0  0
  144.0399  143.0163  155.3019 H   0  0  0  0  0  0  0  0  0  0  0  0
  145.7144  141.8044  156.4087 H   0  0  0  0  0  0  0  0  0  0  0  0
  146.8630  143.1379  156.2858 H   0  0  0  0  0  0  0  0  0  0  0  0
  145.2679  138.3930  152.7414 H   0  0  0  0  0  0  0  0  0  0  0  0
  145.1580  135.7845  153.9455 H   0  0  0  0  0  0  0  0  0  0  0  0
  146.3344  136.0081  151.1380 H   0  0  0  0  0  0  0  0  0  0  0  0
  147.1478  135.3788  152.5515 H   0  0  0  0  0  0  0  0  0  0  0  0
  146.2619  133.5470  151.1110 H   0  0  0  0  0  0  0  0  0  0  0  0
  145.5297  133.5001  152.7027 H   0  0  0  0  0  0  0  0  0  0  0  0
  142.8919  132.4722  151.3682 H   0  0  0  0  0  0  0  0  0  0  0  0
  145.7947  132.2773  150.1737 H   0  0  0  0  0  0  0  0  0  0  0  0
  144.6344  130.8667  150.3856 H   0  0  0  0  0  0  0  0  0  0  0  0
  142.9932  131.9816  148.8504 H   0  0  0  0  0  0  0  0  0  0  0  0
  144.1482  133.3958  148.6365 H   0  0  0  0  0  0  0  0  0  0  0  0
  142.3294  135.0036  151.5423 H   0  0  0  0  0  0  0  0  0  0  0  0
  143.1421  134.3806  152.9643 H   0  0  0  0  0  0  0  0  0  0  0  0
  143.1262  136.8579  153.0036 H   0  0  0  0  0  0  0  0  0  0  0  0
  143.8587  136.9259  151.4186 H   0  0  0  0  0  0  0  0  0  0  0  0
  144.3494  134.7222  150.3188 H   0  0  0  0  0  0  0  0  0  0  0  0
  148.7713  143.0499  155.5587 H   0  0  0  0  0  0  0  0  0  0  0  0
  1  2  2  0  0  0  0
  2  3  1  0  0  0  0
  2 15  1  0  0  0  0
  3  4  1  0  0  0  0
  3 25  1  0  0  0  0
  4  9  1  0  0  0  0
  4  5  2  0  0  0  0
  5  6  1  0  0  0  0
  5 26  1  0  0  0  0
  6  7  2  0  0  0  0
  6 27  1  0  0  0  0
  7  8  1  0  0  0  0
  7 28  1  0  0  0  0
  8  9  2  0  0  0  0
  8 53  1  0  0  0  0
  9 10  1  0  0  0  0
 10 14  1  0  0  0  0
 10 11  1  0  0  0  0
 11 12  1  0  0  0  0
 11 29  1  0  0  0  0
 11 30  1  0  0  0  0
 12 13  1  0  0  0  0
 12 31  1  0  0  0  0
 12 32  1  0  0  0  0
 13 14  1  0  0  0  0
 13 33  1  0  0  0  0
 13 34  1  0  0  0  0
 14 35  1  0  0  0  0
 14 36  1  0  0  0  0
 15 16  1  0  0  0  0
 15 37  1  0  0  0  0
 16 24  1  0  0  0  0
 16 17  1  0  0  0  0
 16 38  1  0  0  0  0
 17 18  1  0  0  0  0
 17 39  1  0  0  0  0
 17 40  1  0  0  0  0
 18 19  1  0  0  0  0
 18 41  1  0  0  0  0
 18 42  1  0  0  0  0
 19 20  1  0  0  0  0
 19 23  1  0  0  0  0
 19 52  1  0  0  0  0
 20 22  1  0  0  0  0
 20 21  1  0  0  0  0
 20 43  1  0  0  0  0
 21 22  1  0  0  0  0
 21 44  1  0  0  0  0
 21 45  1  0  0  0  0
 22 46  1  0  0  0  0
 22 47  1  0  0  0  0
 23 24  1  0  0  0  0
 23 48  1  0  0  0  0
 23 49  1  0  0  0  0
 24 50  1  0  0  0  0
 24 51  1  0  0  0  0
M  CHG  1   8   1
M  CHG  1  19   1
M  END
> <s_m_source_file>
AV-unprocessed.smi

> <i_m_source_file_index>
890

> <i_lp_mmshare_version>
43012

> <i_f3d_flags>
0

> <s_epik_input>
W0NIMl0xW0NIMl1bQ0hdMU4oW0NIMl1bQ0gyXTIpW0NIMl1bQ0gyXVtDSF0yW05IXUMoPU8pW05IXWMzW2NIXVtjSF1bY0hdbmMzTjRbQ0gyXVtDSDJdW0NIMl1bQ0gyXTQ=

> <s_epik_cmdline>
J2VwaWtfcHl0aG9uJywgJy1waCcsICc3LjAnLCAnLXRuJywgJzgnLCAnLW1hJywgJzIwMCcsICctbWV0YWxfYmluZGluZycsICctaW1hZScsICc8aW5maWxlLm1hZT4nLCAnLW9tYWUnLCAnPG91dGZpbGUubWFlPic=

> <r_lp_tautomer_probability>
0.999994

> <r_epik_Ionization_Penalty>
1.36901

> <r_epik_Ionization_Penalty_Charging>
1.36899

> <r_epik_Ionization_Penalty_Neutral>
1.88098e-05

> <r_epik_State_Penalty>
1.38441

> <r_epik_Charging_Adjusted_Penalty>
2.7534

> <i_epik_Tot_Q>
2

> <i_epik_Tot_abs_Q>
2

> <r_epik_Metal_State_Penalty>
1.45718

> <b_epik_Metal_Only>
0

> <s_lp_Force_Field>
OPLS_2005

> <r_lp_Energy>
65.7128

> <b_lp_Chiralities_Consistent>
1

> <s_lp_Variant>
AV-unprocessed.smi:890-4

> <Gold.Version>
5.8.1

> <Gold.Id.Protein>
6NUR|6NUR_protein|mol2

> <Gold.PLP.Fitness>
43.8440

> <Gold.PLP.PLP>
-38.9304

> <Gold.PLP.part.hbond>
-1.0000

> <Gold.PLP.part.metal>
0.0000

> <Gold.PLP.part.buried>
-5.5342

> <Gold.PLP.part.nonpolar>
-34.3670

> <Gold.PLP.part.repulsive>
1.3266

> <Gold.PLP.ligand.clash>
0.0000

> <Gold.PLP.ligand.torsion>
1.1883

> <Gold.PLP.Chemscore.Hbond>
2.0000

> <Gold.PLP.Chemscore.CHOScore>
0.0000

> <Gold.PLP.Chemscore.Metal>
0.0000

> <Gold.Chemscore.Hbonds>
donor molecule, donor type, donor heavy atom, donor atom, acceptor molecule, acceptor atom, score
      L1  H     8    53       P1  8028  2.00

> <Gold.PLP.Chemscore.Internal.Correction>
1.2902

> <Gold.Rescore>
     Score         DG    S(hbond)    S(metal)    S(lipo)     H(rot)  DE(clash)    DE(int)     intcor
     12.47     -16.13       0.99        0.00      92.15       1.35       1.67       2.00       ----

> <Gold.Chemscore.Fitness>
12.4670

> <Gold.Chemscore.DG>
-16.1276

> <Gold.Chemscore.ZeroCoef>
-5.4800

> <Gold.Chemscore.Hbond>
0.9937

> <Gold.Chemscore.Metal>
0.0000

> <Gold.Chemscore.Lipo>
92.1524

> <Gold.Chemscore.Internal_Hbond>
0.0000

> <Gold.Chemscore.DEClash>
1.6655

> <Gold.Chemscore.DEInternal>
1.9951

> <Gold.Chemscore.Rot>
1.3489

> <Gold.Chemscore.Internal.Correction>
   9.000000E+99

> <Gold.Chemscore.Hbonds>
donor molecule, donor type, donor heavy atom, donor atom, acceptor molecule, acceptor atom, score
      L1  H     8    53       P1  8028  1.00

> <Gold.Chemscore.Hbond.Weighted>
-3.3190

> <Gold.Chemscore.Metal.Weighted>
-0.0000

> <Gold.Chemscore.Lipo.Weighted>
-10.7818

> <Gold.Chemscore.Internal_Hbond.Weighted>
0.0000

> <Gold.Chemscore.DEClash.Weighted>
1.6655

> <Gold.Chemscore.DEInternal.Weighted>
1.9951

> <Gold.Chemscore.Rot.Weighted>
3.4532

> <Gold.Chemscore.Internal.Correction.Weighted>
   9.000000E+99

> <Gold.Protein.RotatedTorsions>
[ 6907 6896 6895 6894 ] final  -44.38 input  -60.11 | X-H torsion
[ 7974 7965 7964 7962 ] final  -27.27 input  175.53 | X-H torsion
[ 8008 7997 7996 7995 ] final  170.78 input   59.86 | X-H torsion
[ 10167 10162 10161 10158 ] final -129.88 input  -65.29 | X-H torsion
[ 10718 10713 10712 10709 ] final   11.61 input   66.30 | X-H torsion
[ 10763 10752 10751 10750 ] final  -87.97 input  -60.55 | X-H torsion
[ 11005 11000 10999 10996 ] final  156.24 input  -57.11 | X-H torsion

> <Gold.Protein.ActiveResidues>
 VAL166  LYS551  ARG553  GLY616  TRP617  ASP618  TYR619  PRO620  LYS621  CYS622 
 ASP623  PHE694  ASN695  SER759  ASP760  ASP761  ALA762  ILE779  LEU786  VAL792 
 PHE793  MET794  SER795  GLU796  ALA797  LYS798  CYS799  TRP800  GLU811  SER814 

> <Gold.Protein.RotatedAtoms>
  150.9335  134.8748  159.7566 H   0  0  0  0  0  0  0  0  0  0  0  0  # atno 6907 bound_to 6896
  152.5048  134.4045  159.9437 H   0  0  0  0  0  0  0  0  0  0  0  0  # atno 6908 bound_to 6896
  151.4070  133.3699  159.2774 H   0  0  0  0  0  0  0  0  0  0  0  0  # atno 6909 bound_to 6896
  146.1369  140.5129  142.8669 H   0  0  0  0  0  0  0  0  0  0  0  0  # atno 7974 bound_to 7965
  156.1334  140.1529  156.9031 H   0  0  0  0  0  0  0  0  0  0  0  0  # atno 8008 bound_to 7997
  154.4927  140.0847  156.7669 H   0  0  0  0  0  0  0  0  0  0  0  0  # atno 8009 bound_to 7997
  155.4214  140.3423  155.4274 H   0  0  0  0  0  0  0  0  0  0  0  0  # atno 8010 bound_to 7997
  139.9351  143.6227  152.2519 H   0  0  0  0  0  0  0  0  0  0  0  0  # atno 10167 bound_to 10162
  156.9981  130.6069  149.5693 H   0  0  0  0  0  0  0  0  0  0  0  0  # atno 10718 bound_to 10713
  154.6395  135.5394  153.7772 H   0  0  0  0  0  0  0  0  0  0  0  0  # atno 10763 bound_to 10752
  153.0326  135.6455  154.1181 H   0  0  0  0  0  0  0  0  0  0  0  0  # atno 10764 bound_to 10752
  154.1106  135.2927  155.3211 H   0  0  0  0  0  0  0  0  0  0  0  0  # atno 10765 bound_to 10752
  140.1656  134.8579  157.2628 H   0  0  0  0  0  0  0  0  0  0  0  0  # atno 11005 bound_to 11000
  144.7750  140.5720  143.6644 LP  0  0  0  0  0  0  0  0  0  0  0  0  # atno 17320 bound_to 7965
  145.5135  139.1478  143.3592 LP  0  0  0  0  0  0  0  0  0  0  0  0  # atno 17321 bound_to 7965
  139.6750  144.7659  151.1713 LP  0  0  0  0  0  0  0  0  0  0  0  0  # atno 17342 bound_to 10162
  140.7626  143.5808  150.8896 LP  0  0  0  0  0  0  0  0  0  0  0  0  # atno 17343 bound_to 10162
  156.0181  130.5276  150.8195 LP  0  0  0  0  0  0  0  0  0  0  0  0  # atno 17370 bound_to 10713
  157.5410  131.0940  150.9828 LP  0  0  0  0  0  0  0  0  0  0  0  0  # atno 17371 bound_to 10713
  140.2437  134.3765  155.7470 LP  0  0  0  0  0  0  0  0  0  0  0  0  # atno 17394 bound_to 11000
  141.2213  133.7279  156.8829 LP  0  0  0  0  0  0  0  0  0  0  0  0  # atno 17395 bound_to 11000

$$$$
