AV-unprocessed.smi:72|AV-procd|sdf|748|dock4
  -GOLD-   2262017 83D 1   1.00000     0.00000
 Structure written by MMmdl.
 29 30  0  0  0  0  0  0  0  0  1 V2000
  153.7372  137.6649  160.6049 N   0  0  0  0  0  0  0  0  0  0  0  0
  152.8341  137.7061  159.5631 C   0  0  0  0  0  0  0  0  0  0  0  0
  152.3068  138.9651  159.2448 N   0  0  0  0  0  0  0  0  0  0  0  0
  151.4563  139.0088  158.2683 C   0  0  0  0  0  0  0  0  0  0  0  0
  151.0762  137.8072  157.5442 N   0  0  0  0  0  0  0  0  0  0  0  0
  150.0800  137.8251  156.3967 C   0  0  1  0  0  0  0  0  0  0  0  0
  149.5513  139.1106  156.2390 O   0  0  0  0  0  0  0  0  0  0  0  0
  150.0636  139.7121  155.0535 C   0  0  2  0  0  0  0  0  0  0  0  0
  149.1378  140.8345  154.5534 C   0  0  0  0  0  0  0  0  0  0  0  0
  149.5256  141.2429  153.2589 O   0  0  0  0  0  0  0  0  0  0  0  0
  150.2270  138.5167  154.1063 C   0  0  2  0  0  0  0  0  0  0  0  0
  148.9930  138.1666  153.5051 O   0  0  0  0  0  0  0  0  0  0  0  0
  150.6980  137.4086  155.0390 C   0  0  1  0  0  0  0  0  0  0  0  0
  152.1147  137.3612  155.0423 O   0  0  0  0  0  0  0  0  0  0  0  0
  151.6541  136.5637  157.9204 C   0  0  0  0  0  0  0  0  0  0  0  0
  151.3542  135.5355  157.3131 O   0  0  0  0  0  0  0  0  0  0  0  0
  152.5651  136.5719  158.9831 N   0  0  0  0  0  0  0  0  0  0  0  0
  149.2615  137.1762  156.7119 H   0  0  0  0  0  0  0  0  0  0  0  0
  151.0576  140.1138  155.2586 H   0  0  0  0  0  0  0  0  0  0  0  0
  150.9407  138.7254  153.3079 H   0  0  0  0  0  0  0  0  0  0  0  0
  150.3212  136.4273  154.7470 H   0  0  0  0  0  0  0  0  0  0  0  0
  154.1805  136.8145  160.9212 H   0  0  0  0  0  0  0  0  0  0  0  0
  154.0238  138.4806  161.1261 H   0  0  0  0  0  0  0  0  0  0  0  0
  150.9841  139.9340  157.9385 H   0  0  0  0  0  0  0  0  0  0  0  0
  148.1114  140.4725  154.4861 H   0  0  0  0  0  0  0  0  0  0  0  0
  149.1400  141.6860  155.2344 H   0  0  0  0  0  0  0  0  0  0  0  0
  149.5078  140.4904  152.6876 H   0  0  0  0  0  0  0  0  0  0  0  0
  149.1457  137.4632  152.8929 H   0  0  0  0  0  0  0  0  0  0  0  0
  152.4323  137.9751  155.6867 H   0  0  0  0  0  0  0  0  0  0  0  0
  1  2  1  0  0  0  0
  1 22  1  0  0  0  0
  1 23  1  0  0  0  0
  2 17  2  0  0  0  0
  2  3  1  0  0  0  0
  3  4  2  0  0  0  0
  4  5  1  0  0  0  0
  4 24  1  0  0  0  0
  5  6  1  0  0  0  0
  5 15  1  0  0  0  0
  6 18  1  0  0  0  0
  6 13  1  0  0  0  0
  6  7  1  0  0  0  0
  7  8  1  0  0  0  0
  8 19  1  0  0  0  0
  8  9  1  0  0  0  0
  8 11  1  0  0  0  0
  9 10  1  0  0  0  0
  9 25  1  0  0  0  0
  9 26  1  0  0  0  0
 10 27  1  0  0  0  0
 11 20  1  0  0  0  0
 11 12  1  0  0  0  0
 11 13  1  0  0  0  0
 12 28  1  0  0  0  0
 13 21  1  0  0  0  0
 13 14  1  0  0  0  0
 14 29  1  0  0  0  0
 15 16  2  0  0  0  0
 15 17  1  0  0  0  0
M  END
> <s_m_source_file>
AV-unprocessed.smi

> <i_m_source_file_index>
72

> <i_lp_mmshare_version>
43012

> <i_f3d_flags>
0

> <s_epik_input>
W05IMl1jMW5bY0hdbihjKD1PKW4xKVtDQEBIXTJPW0NASF0oW0NIMl1bT0hdKVtDQEBIXShbT0hdKVtDQEhdMltPSF0=

> <s_epik_cmdline>
J2VwaWtfcHl0aG9uJywgJy1waCcsICc3LjAnLCAnLXRuJywgJzgnLCAnLW1hJywgJzIwMCcsICctbWV0YWxfYmluZGluZycsICctaW1hZScsICc8aW5maWxlLm1hZT4nLCAnLW9tYWUnLCAnPG91dGZpbGUubWFlPic=

> <r_lp_tautomer_probability>
4.77166e-05

> <r_epik_Ionization_Penalty>
1.3546

> <r_epik_Ionization_Penalty_Charging>
1.46833e-10

> <r_epik_Ionization_Penalty_Neutral>
1.3546

> <r_epik_State_Penalty>
3.51908

> <r_epik_Charging_Adjusted_Penalty>
3.51908

> <i_epik_Tot_Q>
0

> <i_epik_Tot_abs_Q>
0

> <r_epik_Metal_State_Penalty>
3.44088

> <b_epik_Metal_Only>
1

> <s_epik_Chemistry_Notes>
This compound contains an acetal/aminal-like group ( X-CH(R)-Y where X, Y are N, S, or O) that may be acid/base labile, releasing an aldehyde.

> <s_lp_Force_Field>
OPLS_2005

> <r_lp_Energy>
33.7939

> <b_lp_Chiralities_Consistent>
1

> <s_lp_Variant>
AV-unprocessed.smi:72-86

> <Gold.Version>
5.8.1

> <Gold.Id.Protein>
6NUR|6NUR_protein|mol2

> <Gold.PLP.Fitness>
34.2396

> <Gold.PLP.PLP>
-21.3363

> <Gold.PLP.part.hbond>
-7.0445

> <Gold.PLP.part.metal>
0.0000

> <Gold.PLP.part.buried>
-2.9398

> <Gold.PLP.part.nonpolar>
-12.4821

> <Gold.PLP.part.repulsive>
0.0362

> <Gold.PLP.ligand.clash>
0.0000

> <Gold.PLP.ligand.torsion>
0.0777

> <Gold.PLP.Chemscore.Hbond>
4.3385

> <Gold.PLP.Chemscore.CHOScore>
0.0000

> <Gold.PLP.Chemscore.Metal>
0.0000

> <Gold.Chemscore.Hbonds>
donor molecule, donor type, donor heavy atom, donor atom, acceptor molecule, acceptor atom, score
      L1  H    10    27       P1  7957  0.85
      L1  H    12    28       P1  7948  1.00
      P1  H  6896  6908       L1    17  0.77
      P1  H  7989  7998       L1    10  0.02
      P1  H  8011  8017       L1    10  0.96
      P1  H 10752 10764       L1    14  0.80

> <Gold.PLP.Chemscore.Internal.Correction>
0.0434

> <Gold.Rescore>
     Score         DG    S(hbond)    S(metal)    S(lipo)     H(rot)  DE(clash)    DE(int)     intcor
     10.37     -10.94       3.77        0.00      27.87       4.06       0.14       0.43       ----

> <Gold.Chemscore.Fitness>
10.3697

> <Gold.Chemscore.DG>
-10.9351

> <Gold.Chemscore.ZeroCoef>
-5.4800

> <Gold.Chemscore.Hbond>
3.7687

> <Gold.Chemscore.Metal>
0.0000

> <Gold.Chemscore.Lipo>
27.8727

> <Gold.Chemscore.Internal_Hbond>
0.0000

> <Gold.Chemscore.DEClash>
0.1365

> <Gold.Chemscore.DEInternal>
0.4290

> <Gold.Chemscore.Rot>
4.0600

> <Gold.Chemscore.Internal.Correction>
   9.000000E+99

> <Gold.Chemscore.Hbonds>
donor molecule, donor type, donor heavy atom, donor atom, acceptor molecule, acceptor atom, score
      L1  H    10    27       P1  7957  0.83
      L1  H    12    28       P1  7948  0.98
      P1  H  6896  6908       L1    17  0.37
      P1  H  8011  8017       L1    10  0.40
      P1  H 10752 10764       L1    14  0.73

> <Gold.Chemscore.Hbond.Weighted>
-12.5876

> <Gold.Chemscore.Metal.Weighted>
-0.0000

> <Gold.Chemscore.Lipo.Weighted>
-3.2611

> <Gold.Chemscore.Internal_Hbond.Weighted>
0.0000

> <Gold.Chemscore.DEClash.Weighted>
0.1365

> <Gold.Chemscore.DEInternal.Weighted>
0.4290

> <Gold.Chemscore.Rot.Weighted>
10.3936

> <Gold.Chemscore.Internal.Correction.Weighted>
   9.000000E+99

> <Gold.Protein.RotatedTorsions>
[ 6907 6896 6895 6894 ] final  -84.50 input  -60.11 | X-H torsion
[ 7974 7965 7964 7962 ] final -124.91 input  175.53 | X-H torsion
[ 8008 7997 7996 7995 ] final   65.06 input   59.86 | X-H torsion
[ 10167 10162 10161 10158 ] final  -25.50 input  -65.29 | X-H torsion
[ 10718 10713 10712 10709 ] final  133.13 input   66.30 | X-H torsion
[ 10763 10752 10751 10750 ] final  -66.16 input  -60.55 | X-H torsion
[ 11005 11000 10999 10996 ] final  119.19 input  -57.11 | X-H torsion

> <Gold.Protein.ActiveResidues>
 VAL166  LYS551  ARG553  GLY616  TRP617  ASP618  TYR619  PRO620  LYS621  CYS622 
 ASP623  PHE694  ASN695  SER759  ASP760  ASP761  ALA762  ILE779  LEU786  VAL792 
 PHE793  MET794  SER795  GLU796  ALA797  LYS798  CYS799  TRP800  GLU811  SER814 

> <Gold.Protein.RotatedAtoms>
  150.6876  134.3349  159.4842 H   0  0  0  0  0  0  0  0  0  0  0  0  # atno 6907 bound_to 6896
  152.1209  134.9204  160.0572 H   0  0  0  0  0  0  0  0  0  0  0  0  # atno 6908 bound_to 6896
  152.0410  133.3943  159.4374 H   0  0  0  0  0  0  0  0  0  0  0  0  # atno 6909 bound_to 6896
  145.0031  140.7839  143.4484 H   0  0  0  0  0  0  0  0  0  0  0  0  # atno 7974 bound_to 7965
  155.6558  140.3497  155.4765 H   0  0  0  0  0  0  0  0  0  0  0  0  # atno 8008 bound_to 7997
  155.9809  140.1174  157.0750 H   0  0  0  0  0  0  0  0  0  0  0  0  # atno 8009 bound_to 7997
  154.4191  140.1138  156.5421 H   0  0  0  0  0  0  0  0  0  0  0  0  # atno 8010 bound_to 7997
  140.7286  143.4260  151.0876 H   0  0  0  0  0  0  0  0  0  0  0  0  # atno 10167 bound_to 10162
  157.4803  131.1085  150.9690 H   0  0  0  0  0  0  0  0  0  0  0  0  # atno 10718 bound_to 10713
  154.3557  135.6127  153.5665 H   0  0  0  0  0  0  0  0  0  0  0  0  # atno 10763 bound_to 10752
  152.9796  135.5803  154.4692 H   0  0  0  0  0  0  0  0  0  0  0  0  # atno 10764 bound_to 10752
  154.4421  135.2850  155.1818 H   0  0  0  0  0  0  0  0  0  0  0  0  # atno 10765 bound_to 10752
  139.9137  134.9626  156.7617 H   0  0  0  0  0  0  0  0  0  0  0  0  # atno 11005 bound_to 11000
  145.2125  139.2198  143.5135 LP  0  0  0  0  0  0  0  0  0  0  0  0  # atno 17320 bound_to 7965
  146.3456  140.1966  142.8589 LP  0  0  0  0  0  0  0  0  0  0  0  0  # atno 17321 bound_to 7965
  139.7911  143.8217  152.3152 LP  0  0  0  0  0  0  0  0  0  0  0  0  # atno 17342 bound_to 10162
  139.8201  144.7299  150.9583 LP  0  0  0  0  0  0  0  0  0  0  0  0  # atno 17343 bound_to 10162
  157.0425  130.5755  149.5358 LP  0  0  0  0  0  0  0  0  0  0  0  0  # atno 17370 bound_to 10713
  156.0118  130.5210  150.8012 LP  0  0  0  0  0  0  0  0  0  0  0  0  # atno 17371 bound_to 10713
  140.6692  133.9575  155.7847 LP  0  0  0  0  0  0  0  0  0  0  0  0  # atno 17394 bound_to 11000
  141.0589  134.0375  157.3684 LP  0  0  0  0  0  0  0  0  0  0  0  0  # atno 17395 bound_to 11000

$$$$
