AV-unprocessed.smi:308|AV-procd|sdf|2285|dock3
  -GOLD-   2262022183D 1   1.00000     0.00000
 Structure written by MMmdl.
 51 52  0  0  0  0  0  0  0  0  3 V2000
  145.6296  132.3327  149.6595 C   0  0  0  0  0  0  0  0  0  0  0  0
  145.7409  132.8944  151.0838 C   0  0  2  0  0  0  0  0  0  0  0  0
  145.3906  134.3908  151.1352 C   0  0  0  0  0  0  0  0  0  0  0  0
  145.5343  134.9493  152.5610 C   0  0  0  0  0  0  0  0  0  0  0  0
  146.9026  134.7215  153.0943 N   0  3  1  0  0  0  0  0  0  0  0  0
  147.1024  135.3679  154.4159 C   0  0  0  0  0  0  0  0  0  0  0  0
  148.5924  135.5023  154.7864 C   0  0  0  0  0  0  0  0  0  0  0  0
  149.0698  136.8693  154.6098 N   0  0  0  0  0  0  0  0  0  0  0  0
  149.4765  137.6731  155.6028 C   0  0  0  0  0  0  0  0  0  0  0  0
  149.5000  137.3274  156.7836 O   0  0  0  0  0  0  0  0  0  0  0  0
  149.8320  138.8834  155.1378 N   0  0  0  0  0  0  0  0  0  0  0  0
  150.3194  140.0052  155.8630 C   0  0  0  0  0  0  0  0  0  0  0  0
  151.2011  139.7611  156.9364 C   0  0  0  0  0  0  0  0  0  0  0  0
  151.7027  140.8395  157.6936 C   0  0  0  0  0  0  0  0  0  0  0  0
  151.3123  142.1642  157.3784 C   0  0  0  0  0  0  0  0  0  0  0  0
  151.7710  143.2953  158.0876 N   0  0  0  0  0  0  0  0  0  0  0  0
  152.2719  143.1447  159.4476 C   0  0  0  0  0  0  0  0  0  0  0  0
  151.7305  144.6109  157.4585 C   0  0  0  0  0  0  0  0  0  0  0  0
  150.4535  142.3476  156.3460 N   0  3  0  0  0  0  0  0  0  0  0  0
  149.9504  141.3450  155.5942 C   0  0  0  0  0  0  0  0  0  0  0  0
  147.2554  133.2764  153.0861 C   0  0  0  0  0  0  0  0  0  0  0  0
  147.1465  132.6850  151.6705 C   0  0  0  0  0  0  0  0  0  0  0  0
  146.3207  132.8320  148.9794 H   0  0  0  0  0  0  0  0  0  0  0  0
  144.6219  132.4625  149.2639 H   0  0  0  0  0  0  0  0  0  0  0  0
  145.8557  131.2662  149.6394 H   0  0  0  0  0  0  0  0  0  0  0  0
  145.0273  132.3559  151.7095 H   0  0  0  0  0  0  0  0  0  0  0  0
  146.0415  134.9476  150.4592 H   0  0  0  0  0  0  0  0  0  0  0  0
  144.3712  134.5485  150.7812 H   0  0  0  0  0  0  0  0  0  0  0  0
  145.3163  136.0181  152.5462 H   0  0  0  0  0  0  0  0  0  0  0  0
  144.8019  134.4852  153.2237 H   0  0  0  0  0  0  0  0  0  0  0  0
  146.6653  136.3670  154.3880 H   0  0  0  0  0  0  0  0  0  0  0  0
  146.5584  134.8167  155.1846 H   0  0  0  0  0  0  0  0  0  0  0  0
  148.7597  135.2359  155.8293 H   0  0  0  0  0  0  0  0  0  0  0  0
  149.1979  134.8173  154.1901 H   0  0  0  0  0  0  0  0  0  0  0  0
  149.0764  137.2324  153.6675 H   0  0  0  0  0  0  0  0  0  0  0  0
  149.6938  139.0354  154.1493 H   0  0  0  0  0  0  0  0  0  0  0  0
  151.4994  138.7517  157.1802 H   0  0  0  0  0  0  0  0  0  0  0  0
  152.3809  140.6300  158.5072 H   0  0  0  0  0  0  0  0  0  0  0  0
  151.4957  142.7430  160.0995 H   0  0  0  0  0  0  0  0  0  0  0  0
  152.5912  144.1015  159.8612 H   0  0  0  0  0  0  0  0  0  0  0  0
  153.1288  142.4709  159.4683 H   0  0  0  0  0  0  0  0  0  0  0  0
  150.7053  144.8830  157.2052 H   0  0  0  0  0  0  0  0  0  0  0  0
  152.3278  144.6187  156.5462 H   0  0  0  0  0  0  0  0  0  0  0  0
  152.1257  145.3806  158.1217 H   0  0  0  0  0  0  0  0  0  0  0  0
  149.2681  141.6621  154.8204 H   0  0  0  0  0  0  0  0  0  0  0  0
  148.2723  133.1303  153.4482 H   0  0  0  0  0  0  0  0  0  0  0  0
  146.5974  132.7360  153.7687 H   0  0  0  0  0  0  0  0  0  0  0  0
  147.3839  131.6210  151.6994 H   0  0  0  0  0  0  0  0  0  0  0  0
  147.8923  133.1496  151.0235 H   0  0  0  0  0  0  0  0  0  0  0  0
  147.5322  135.1834  152.4534 H   0  0  0  0  0  0  0  0  0  0  0  0
  150.1675  143.3012  156.1233 H   0  0  0  0  0  0  0  0  0  0  0  0
  1  2  1  0  0  0  0
  1 23  1  0  0  0  0
  1 24  1  0  0  0  0
  1 25  1  0  0  0  0
  2 22  1  0  0  0  0
  2  3  1  0  0  0  0
  2 26  1  0  0  0  0
  3  4  1  0  0  0  0
  3 27  1  0  0  0  0
  3 28  1  0  0  0  0
  4  5  1  0  0  0  0
  4 29  1  0  0  0  0
  4 30  1  0  0  0  0
  5  6  1  0  0  0  0
  5 21  1  0  0  0  0
  5 50  1  0  0  0  0
  6  7  1  0  0  0  0
  6 31  1  0  0  0  0
  6 32  1  0  0  0  0
  7  8  1  0  0  0  0
  7 33  1  0  0  0  0
  7 34  1  0  0  0  0
  8  9  1  0  0  0  0
  8 35  1  0  0  0  0
  9 10  2  0  0  0  0
  9 11  1  0  0  0  0
 11 12  1  0  0  0  0
 11 36  1  0  0  0  0
 12 20  1  0  0  0  0
 12 13  2  0  0  0  0
 13 14  1  0  0  0  0
 13 37  1  0  0  0  0
 14 15  2  0  0  0  0
 14 38  1  0  0  0  0
 15 16  1  0  0  0  0
 15 19  1  0  0  0  0
 16 17  1  0  0  0  0
 16 18  1  0  0  0  0
 17 39  1  0  0  0  0
 17 40  1  0  0  0  0
 17 41  1  0  0  0  0
 18 42  1  0  0  0  0
 18 43  1  0  0  0  0
 18 44  1  0  0  0  0
 19 20  2  0  0  0  0
 19 51  1  0  0  0  0
 20 45  1  0  0  0  0
 21 22  1  0  0  0  0
 21 46  1  0  0  0  0
 21 47  1  0  0  0  0
 22 48  1  0  0  0  0
 22 49  1  0  0  0  0
M  CHG  1   5   1
M  CHG  1  19   1
M  END
> <s_m_source_file>
AV-unprocessed.smi

> <i_m_source_file_index>
308

> <i_lp_mmshare_version>
43012

> <i_f3d_flags>
0

> <s_epik_input>
W0NIM11bQ0hdMVtDSDJdW0NIMl1OKFtDSDJdW0NIMl0xKVtDSDJdW0NIMl1bTkhdQyg9TylbTkhdYzJbY0hdW2NIXWMoTihbQ0gzXSlbQ0gzXSluW2NIXTI=

> <s_epik_cmdline>
J2VwaWtfcHl0aG9uJywgJy1waCcsICc3LjAnLCAnLXRuJywgJzgnLCAnLW1hJywgJzIwMCcsICctbWV0YWxfYmluZGluZycsICctaW1hZScsICc8aW5maWxlLm1hZT4nLCAnLW9tYWUnLCAnPG91dGZpbGUubWFlPic=

> <r_lp_tautomer_probability>
0.999994

> <r_epik_Ionization_Penalty>
0.309846

> <r_epik_Ionization_Penalty_Charging>
0.309826

> <r_epik_Ionization_Penalty_Neutral>
1.97883e-05

> <r_epik_State_Penalty>
0.302329

> <r_epik_Charging_Adjusted_Penalty>
0.612155

> <i_epik_Tot_Q>
2

> <i_epik_Tot_abs_Q>
2

> <r_epik_Metal_State_Penalty>
0.577265

> <b_epik_Metal_Only>
0

> <s_lp_Force_Field>
OPLS_2005

> <r_lp_Energy>
27.4115

> <b_lp_Chiralities_Consistent>
1

> <s_lp_Variant>
AV-unprocessed.smi:308-1

> <Gold.Version>
5.8.1

> <Gold.Id.Protein>
6NUR|6NUR_protein|mol2

> <Gold.PLP.Fitness>
48.0484

> <Gold.PLP.PLP>
-36.2388

> <Gold.PLP.part.hbond>
-3.0000

> <Gold.PLP.part.metal>
0.0000

> <Gold.PLP.part.buried>
-3.0777

> <Gold.PLP.part.nonpolar>
-29.9646

> <Gold.PLP.part.repulsive>
0.1344

> <Gold.PLP.ligand.clash>
0.0000

> <Gold.PLP.ligand.torsion>
0.9267

> <Gold.PLP.Chemscore.Hbond>
4.5352

> <Gold.PLP.Chemscore.CHOScore>
0.0000

> <Gold.PLP.Chemscore.Metal>
0.0000

> <Gold.Chemscore.Hbonds>
donor molecule, donor type, donor heavy atom, donor atom, acceptor molecule, acceptor atom, score
      L1  H     5    50       P1  7948  2.00
      L1  H     8    35       P1  7948  0.57
      L1  H    19    51       P1  8028  2.00

> <Gold.PLP.Chemscore.Internal.Correction>
0.0575

> <Gold.Rescore>
     Score         DG    S(hbond)    S(metal)    S(lipo)     H(rot)  DE(clash)    DE(int)     intcor
     18.47     -20.74       2.48        0.00      91.39       1.45       0.38       1.89       ----

> <Gold.Chemscore.Fitness>
18.4725

> <Gold.Chemscore.DG>
-20.7366

> <Gold.Chemscore.ZeroCoef>
-5.4800

> <Gold.Chemscore.Hbond>
2.4763

> <Gold.Chemscore.Metal>
0.0000

> <Gold.Chemscore.Lipo>
91.3881

> <Gold.Chemscore.Internal_Hbond>
0.0000

> <Gold.Chemscore.DEClash>
0.3777

> <Gold.Chemscore.DEInternal>
1.8864

> <Gold.Chemscore.Rot>
1.4479

> <Gold.Chemscore.Internal.Correction>
   9.000000E+99

> <Gold.Chemscore.Hbonds>
donor molecule, donor type, donor heavy atom, donor atom, acceptor molecule, acceptor atom, score
      L1  H     5    50       P1  7948  0.99
      L1  H     8    35       P1  7948  0.54
      L1  H    19    51       P1  8028  0.97

> <Gold.Chemscore.Hbond.Weighted>
-8.2708

> <Gold.Chemscore.Metal.Weighted>
-0.0000

> <Gold.Chemscore.Lipo.Weighted>
-10.6924

> <Gold.Chemscore.Internal_Hbond.Weighted>
0.0000

> <Gold.Chemscore.DEClash.Weighted>
0.3777

> <Gold.Chemscore.DEInternal.Weighted>
1.8864

> <Gold.Chemscore.Rot.Weighted>
3.7065

> <Gold.Chemscore.Internal.Correction.Weighted>
   9.000000E+99

> <Gold.Protein.RotatedTorsions>
[ 6907 6896 6895 6894 ] final -157.43 input  -60.11 | X-H torsion
[ 7974 7965 7964 7962 ] final   -7.30 input  175.53 | X-H torsion
[ 8008 7997 7996 7995 ] final -179.06 input   59.86 | X-H torsion
[ 10167 10162 10161 10158 ] final -118.93 input  -65.29 | X-H torsion
[ 10718 10713 10712 10709 ] final  -28.95 input   66.30 | X-H torsion
[ 10763 10752 10751 10750 ] final  -51.79 input  -60.55 | X-H torsion
[ 11005 11000 10999 10996 ] final   -0.90 input  -57.11 | X-H torsion

> <Gold.Protein.ActiveResidues>
 VAL166  LYS551  ARG553  GLY616  TRP617  ASP618  TYR619  PRO620  LYS621  CYS622 
 ASP623  PHE694  ASN695  SER759  ASP760  ASP761  ALA762  ILE779  LEU786  VAL792 
 PHE793  MET794  SER795  GLU796  ALA797  LYS798  CYS799  TRP800  GLU811  SER814 

> <Gold.Protein.RotatedAtoms>
  151.3027  133.4115  159.2640 H   0  0  0  0  0  0  0  0  0  0  0  0  # atno 6907 bound_to 6896
  151.0181  134.9449  159.8055 H   0  0  0  0  0  0  0  0  0  0  0  0  # atno 6908 bound_to 6896
  152.5317  134.2990  159.9124 H   0  0  0  0  0  0  0  0  0  0  0  0  # atno 6909 bound_to 6896
  146.2310  140.2300  142.8340 H   0  0  0  0  0  0  0  0  0  0  0  0  # atno 7974 bound_to 7965
  156.0261  140.1272  157.0307 H   0  0  0  0  0  0  0  0  0  0  0  0  # atno 8008 bound_to 7997
  154.4331  140.1059  156.6103 H   0  0  0  0  0  0  0  0  0  0  0  0  # atno 8009 bound_to 7997
  155.5874  140.3469  155.4559 H   0  0  0  0  0  0  0  0  0  0  0  0  # atno 8010 bound_to 7997
  140.0522  143.5049  152.2076 H   0  0  0  0  0  0  0  0  0  0  0  0  # atno 10167 bound_to 10162
  156.4187  130.4422  149.7199 H   0  0  0  0  0  0  0  0  0  0  0  0  # atno 10718 bound_to 10713
  154.1324  135.6518  153.4925 H   0  0  0  0  0  0  0  0  0  0  0  0  # atno 10763 bound_to 10752
  153.0191  135.5296  154.6988 H   0  0  0  0  0  0  0  0  0  0  0  0  # atno 10764 bound_to 10752
  154.6226  135.2966  155.0279 H   0  0  0  0  0  0  0  0  0  0  0  0  # atno 10765 bound_to 10752
  140.6414  133.9486  155.8328 H   0  0  0  0  0  0  0  0  0  0  0  0  # atno 11005 bound_to 11000
  144.9566  140.8232  143.5539 LP  0  0  0  0  0  0  0  0  0  0  0  0  # atno 17320 bound_to 7965
  145.2266  139.2134  143.5065 LP  0  0  0  0  0  0  0  0  0  0  0  0  # atno 17321 bound_to 7965
  139.5946  144.7562  151.3317 LP  0  0  0  0  0  0  0  0  0  0  0  0  # atno 17342 bound_to 10162
  140.7211  143.7132  150.7753 LP  0  0  0  0  0  0  0  0  0  0  0  0  # atno 17343 bound_to 10162
  156.4149  130.7740  151.2755 LP  0  0  0  0  0  0  0  0  0  0  0  0  # atno 17370 bound_to 10713
  157.7508  131.0200  150.3691 LP  0  0  0  0  0  0  0  0  0  0  0  0  # atno 17371 bound_to 10713
  141.0604  134.0354  157.3666 LP  0  0  0  0  0  0  0  0  0  0  0  0  # atno 17394 bound_to 11000
  139.9079  135.0184  156.7565 LP  0  0  0  0  0  0  0  0  0  0  0  0  # atno 17395 bound_to 11000

$$$$
