AV-unprocessed.smi:160|AV-procd|sdf|1343|dock1
  -GOLD-   2262019 43D 1   1.00000     0.00000
 Structure written by MMmdl.
 29 30  0  0  0  0  0  0  0  0  1 V2000
  148.9633  136.8185  158.6412 N   0  0  0  0  0  0  0  0  0  0  0  0
  149.5638  136.0804  157.7019 C   0  0  0  0  0  0  0  0  0  0  0  0
  149.7284  134.8677  157.8235 O   0  0  0  0  0  0  0  0  0  0  0  0
  150.0328  136.8164  156.4774 C   0  0  0  0  0  0  0  0  0  0  0  0
  150.7346  136.1770  155.4952 N   0  0  0  0  0  0  0  0  0  0  0  0
  150.9160  137.1993  154.6689 C   0  0  0  0  0  0  0  0  0  0  0  0
  150.3714  138.3456  155.0890 N   0  0  0  0  0  0  0  0  0  0  0  0
  150.3916  139.7029  154.4653 C   0  0  2  0  0  0  0  0  0  0  0  0
  151.1482  140.5288  155.3005 O   0  0  0  0  0  0  0  0  0  0  0  0
  150.4109  141.6924  155.6680 C   0  0  2  0  0  0  0  0  0  0  0  0
  150.8289  142.1426  157.0762 C   0  0  0  0  0  0  0  0  0  0  0  0
  149.7721  142.8437  157.6955 O   0  0  0  0  0  0  0  0  0  0  0  0
  148.9554  141.2302  155.5820 C   0  0  1  0  0  0  0  0  0  0  0  0
  148.0344  142.2949  155.4337 O   0  0  0  0  0  0  0  0  0  0  0  0
  148.9744  140.2902  154.3829 C   0  0  1  0  0  0  0  0  0  0  0  0
  148.7831  140.9682  153.1548 O   0  0  0  0  0  0  0  0  0  0  0  0
  149.7919  138.1158  156.2940 N   0  0  0  0  0  0  0  0  0  0  0  0
  150.8700  139.5544  153.4959 H   0  0  0  0  0  0  0  0  0  0  0  0
  150.5899  142.4754  154.9283 H   0  0  0  0  0  0  0  0  0  0  0  0
  148.6965  140.6658  156.4787 H   0  0  0  0  0  0  0  0  0  0  0  0
  148.2160  139.5097  154.4613 H   0  0  0  0  0  0  0  0  0  0  0  0
  148.6267  136.3808  159.4860 H   0  0  0  0  0  0  0  0  0  0  0  0
  148.8506  137.8115  158.4976 H   0  0  0  0  0  0  0  0  0  0  0  0
  151.4582  137.1108  153.7390 H   0  0  0  0  0  0  0  0  0  0  0  0
  151.0529  141.2755  157.6978 H   0  0  0  0  0  0  0  0  0  0  0  0
  151.7281  142.7590  157.0437 H   0  0  0  0  0  0  0  0  0  0  0  0
  149.6378  143.6565  157.2326 H   0  0  0  0  0  0  0  0  0  0  0  0
  148.4754  143.1049  155.6400 H   0  0  0  0  0  0  0  0  0  0  0  0
  148.6765  140.3214  152.4737 H   0  0  0  0  0  0  0  0  0  0  0  0
  1  2  1  0  0  0  0
  1 22  1  0  0  0  0
  1 23  1  0  0  0  0
  2  3  2  0  0  0  0
  2  4  1  0  0  0  0
  4 17  2  0  0  0  0
  4  5  1  0  0  0  0
  5  6  2  0  0  0  0
  6  7  1  0  0  0  0
  6 24  1  0  0  0  0
  7  8  1  0  0  0  0
  7 17  1  0  0  0  0
  8 18  1  0  0  0  0
  8 15  1  0  0  0  0
  8  9  1  0  0  0  0
  9 10  1  0  0  0  0
 10 19  1  0  0  0  0
 10 11  1  0  0  0  0
 10 13  1  0  0  0  0
 11 12  1  0  0  0  0
 11 25  1  0  0  0  0
 11 26  1  0  0  0  0
 12 27  1  0  0  0  0
 13 20  1  0  0  0  0
 13 14  1  0  0  0  0
 13 15  1  0  0  0  0
 14 28  1  0  0  0  0
 15 21  1  0  0  0  0
 15 16  1  0  0  0  0
 16 29  1  0  0  0  0
M  END
> <s_m_source_file>
AV-unprocessed.smi

> <i_m_source_file_index>
160

> <i_lp_mmshare_version>
43012

> <i_f3d_flags>
0

> <s_epik_input>
W05IMl1DKD1PKWMxbltjSF1uKG4xKVtDQEBIXTJPW0NASF0oW0NIMl1bT0hdKVtDQEBIXShbT0hdKVtDQEhdMltPSF0=

> <s_epik_cmdline>
J2VwaWtfcHl0aG9uJywgJy1waCcsICc3LjAnLCAnLXRuJywgJzgnLCAnLW1hJywgJzIwMCcsICctbWV0YWxfYmluZGluZycsICctaW1hZScsICc8aW5maWxlLm1hZT4nLCAnLW9tYWUnLCAnPG91dGZpbGUubWFlPic=

> <r_lp_tautomer_probability>
1

> <r_epik_Ionization_Penalty>
1.06932e-05

> <r_epik_Ionization_Penalty_Charging>
0

> <r_epik_Ionization_Penalty_Neutral>
1.06932e-05

> <r_epik_State_Penalty>
-0

> <r_epik_Charging_Adjusted_Penalty>
0

> <i_epik_Tot_Q>
0

> <i_epik_Tot_abs_Q>
0

> <r_epik_Metal_State_Penalty>
0.0142097

> <b_epik_Metal_Only>
0

> <s_epik_Chemistry_Notes>
This compound contains an acetal/aminal-like group ( X-CH(R)-Y where X, Y are N, S, or O) that may be acid/base labile, releasing an aldehyde.

> <s_lp_Force_Field>
OPLS_2005

> <r_lp_Energy>
39.0499

> <b_lp_Chiralities_Consistent>
1

> <s_lp_Variant>
AV-unprocessed.smi:160-1

> <Gold.Version>
5.8.1

> <Gold.Id.Protein>
6NUR|6NUR_protein|mol2

> <Gold.PLP.Fitness>
40.3456

> <Gold.PLP.PLP>
-24.2816

> <Gold.PLP.part.hbond>
-5.4910

> <Gold.PLP.part.metal>
0.0000

> <Gold.PLP.part.buried>
-2.2522

> <Gold.PLP.part.nonpolar>
-15.9514

> <Gold.PLP.part.repulsive>
0.2834

> <Gold.PLP.ligand.clash>
0.0000

> <Gold.PLP.ligand.torsion>
0.3688

> <Gold.PLP.Chemscore.Hbond>
4.5920

> <Gold.PLP.Chemscore.CHOScore>
1.0000

> <Gold.PLP.Chemscore.Metal>
0.0000

> <Gold.Chemscore.Hbonds>
donor molecule, donor type, donor heavy atom, donor atom, acceptor molecule, acceptor atom, score
      L1  H    12    27       P1  8028  1.00
      L1  H    14    28       P1  8028  1.00
      L1  H    16    29       P1  7957  0.59
      P1  H  6896  6909       L1     3  1.00
      P1  H  8011  8017       L1    16  1.00
      L1  C     6    24       P1  7949  1.00

> <Gold.PLP.Chemscore.Internal.Correction>
0.0256

> <Gold.Rescore>
     Score         DG    S(hbond)    S(metal)    S(lipo)     H(rot)  DE(clash)    DE(int)     intcor
     12.04     -12.40       4.19        0.00      28.47       4.06       0.01       0.35       ----

> <Gold.Chemscore.Fitness>
12.0409

> <Gold.Chemscore.DG>
-12.3994

> <Gold.Chemscore.ZeroCoef>
-5.4800

> <Gold.Chemscore.Hbond>
4.1862

> <Gold.Chemscore.Metal>
0.0000

> <Gold.Chemscore.Lipo>
28.4693

> <Gold.Chemscore.Internal_Hbond>
0.0000

> <Gold.Chemscore.DEClash>
0.0073

> <Gold.Chemscore.DEInternal>
0.3512

> <Gold.Chemscore.Rot>
4.0600

> <Gold.Chemscore.Internal.Correction>
   9.000000E+99

> <Gold.Chemscore.Hbonds>
donor molecule, donor type, donor heavy atom, donor atom, acceptor molecule, acceptor atom, score
      L1  H    12    27       P1  8028  0.74
      L1  H    14    28       P1  8028  0.99
      L1  H    16    29       P1  7957  0.60
      P1  H  6896  6909       L1     3  0.89
      P1  H  8011  8017       L1    16  0.49

> <Gold.Chemscore.Hbond.Weighted>
-13.9821

> <Gold.Chemscore.Metal.Weighted>
-0.0000

> <Gold.Chemscore.Lipo.Weighted>
-3.3309

> <Gold.Chemscore.Internal_Hbond.Weighted>
0.0000

> <Gold.Chemscore.DEClash.Weighted>
0.0073

> <Gold.Chemscore.DEInternal.Weighted>
0.3512

> <Gold.Chemscore.Rot.Weighted>
10.3936

> <Gold.Chemscore.Internal.Correction.Weighted>
   9.000000E+99

> <Gold.Protein.RotatedTorsions>
[ 6907 6896 6895 6894 ] final   30.10 input  -60.11 | X-H torsion
[ 7974 7965 7964 7962 ] final  -73.96 input  175.53 | X-H torsion
[ 8008 7997 7996 7995 ] final -179.89 input   59.86 | X-H torsion
[ 10167 10162 10161 10158 ] final  -91.62 input  -65.29 | X-H torsion
[ 10718 10713 10712 10709 ] final -173.55 input   66.30 | X-H torsion
[ 10763 10752 10751 10750 ] final  177.62 input  -60.55 | X-H torsion
[ 11005 11000 10999 10996 ] final -101.21 input  -57.11 | X-H torsion

> <Gold.Protein.ActiveResidues>
 VAL166  LYS551  ARG553  GLY616  TRP617  ASP618  TYR619  PRO620  LYS621  CYS622 
 ASP623  PHE694  ASN695  SER759  ASP760  ASP761  ALA762  ILE779  LEU786  VAL792 
 PHE793  MET794  SER795  GLU796  ALA797  LYS798  CYS799  TRP800  GLU811  SER814 

> <Gold.Protein.RotatedAtoms>
  152.0411  134.9710  160.0573 H   0  0  0  0  0  0  0  0  0  0  0  0  # atno 6907 bound_to 6896
  152.1149  133.4316  159.4656 H   0  0  0  0  0  0  0  0  0  0  0  0  # atno 6908 bound_to 6896
  150.6845  134.2523  159.4559 H   0  0  0  0  0  0  0  0  0  0  0  0  # atno 6909 bound_to 6896
  145.6453  140.9299  143.1014 H   0  0  0  0  0  0  0  0  0  0  0  0  # atno 7974 bound_to 7965
  156.0358  140.1292  157.0210 H   0  0  0  0  0  0  0  0  0  0  0  0  # atno 8008 bound_to 7997
  154.4369  140.1040  156.6235 H   0  0  0  0  0  0  0  0  0  0  0  0  # atno 8009 bound_to 7997
  155.5740  140.3467  155.4525 H   0  0  0  0  0  0  0  0  0  0  0  0  # atno 8010 bound_to 7997
  140.3431  143.2931  151.9813 H   0  0  0  0  0  0  0  0  0  0  0  0  # atno 10167 bound_to 10162
  156.7719  130.9452  151.3120 H   0  0  0  0  0  0  0  0  0  0  0  0  # atno 10718 bound_to 10713
  154.4969  135.2781  155.1452 H   0  0  0  0  0  0  0  0  0  0  0  0  # atno 10763 bound_to 10752
  154.3100  135.6231  153.5465 H   0  0  0  0  0  0  0  0  0  0  0  0  # atno 10764 bound_to 10752
  152.9896  135.5717  154.5404 H   0  0  0  0  0  0  0  0  0  0  0  0  # atno 10765 bound_to 10752
  141.1240  133.8460  157.1203 H   0  0  0  0  0  0  0  0  0  0  0  0  # atno 11005 bound_to 11000
  144.7142  139.8257  143.7404 LP  0  0  0  0  0  0  0  0  0  0  0  0  # atno 17320 bound_to 7965
  146.1248  139.4272  143.0206 LP  0  0  0  0  0  0  0  0  0  0  0  0  # atno 17321 bound_to 7965
  139.4837  144.6140  151.7381 LP  0  0  0  0  0  0  0  0  0  0  0  0  # atno 17342 bound_to 10162
  140.5290  144.0760  150.6047 LP  0  0  0  0  0  0  0  0  0  0  0  0  # atno 17343 bound_to 10162
  157.6687  130.9031  149.9990 LP  0  0  0  0  0  0  0  0  0  0  0  0  # atno 17370 bound_to 10713
  156.1272  130.3644  149.9790 LP  0  0  0  0  0  0  0  0  0  0  0  0  # atno 17371 bound_to 10713
  140.0221  134.9941  157.0613 LP  0  0  0  0  0  0  0  0  0  0  0  0  # atno 17394 bound_to 11000
  140.4422  134.1669  155.7174 LP  0  0  0  0  0  0  0  0  0  0  0  0  # atno 17395 bound_to 11000

$$$$
