AV-unprocessed.smi:3092|AV-procd|sdf|11785|dock9
  -GOLD-   2272017163D 1   1.00000     0.00000
 Structure written by MMmdl.
 26 27  0  0  0  0  0  0  0  0  3 V2000
  153.0311  142.3364  159.7887 C   0  0  0  0  0  0  0  0  0  0  0  0
  152.1796  143.3640  159.1857 N   0  0  0  0  0  0  0  0  0  0  0  0
  152.2356  144.7108  159.4383 C   0  0  0  0  0  0  0  0  0  0  0  0
  151.2660  145.2964  158.6684 C   0  0  0  0  0  0  0  0  0  0  0  0
  150.6587  144.2839  157.9773 N   0  3  0  0  0  0  0  0  0  0  0  0
  151.2129  143.1042  158.2871 C   0  0  0  0  0  0  0  0  0  0  0  0
  150.7997  141.7722  157.7243 C   0  0  1  0  0  0  0  0  0  0  0  0
  149.3473  141.3745  157.9766 C   0  0  0  0  0  0  0  0  0  0  0  0
  149.0952  140.2799  156.9294 C   0  0  0  0  0  0  0  0  0  0  0  0
  150.1004  140.4734  155.8614 N   0  3  0  0  0  0  0  0  0  0  0  0
  150.9059  141.6596  156.2037 C   0  0  0  0  0  0  0  0  0  0  0  0
  153.7278  142.8020  160.4865 H   0  0  0  0  0  0  0  0  0  0  0  0
  153.5937  141.8277  159.0052 H   0  0  0  0  0  0  0  0  0  0  0  0
  152.4091  141.6202  160.3266 H   0  0  0  0  0  0  0  0  0  0  0  0
  152.9433  145.1437  160.1311 H   0  0  0  0  0  0  0  0  0  0  0  0
  150.9701  146.3303  158.5639 H   0  0  0  0  0  0  0  0  0  0  0  0
  151.4448  141.0142  158.1690 H   0  0  0  0  0  0  0  0  0  0  0  0
  149.1667  141.0416  158.9992 H   0  0  0  0  0  0  0  0  0  0  0  0
  148.6845  142.2182  157.7783 H   0  0  0  0  0  0  0  0  0  0  0  0
  149.2366  139.2893  157.3629 H   0  0  0  0  0  0  0  0  0  0  0  0
  148.0823  140.3292  156.5289 H   0  0  0  0  0  0  0  0  0  0  0  0
  150.7017  139.6617  155.8390 H   0  0  0  0  0  0  0  0  0  0  0  0
  150.4548  142.5267  155.7188 H   0  0  0  0  0  0  0  0  0  0  0  0
  151.9344  141.5712  155.8528 H   0  0  0  0  0  0  0  0  0  0  0  0
  149.6570  140.5903  154.9610 H   0  0  0  0  0  0  0  0  0  0  0  0
  149.8948  144.4095  157.3250 H   0  0  0  0  0  0  0  0  0  0  0  0
  1  2  1  0  0  0  0
  1 12  1  0  0  0  0
  1 13  1  0  0  0  0
  1 14  1  0  0  0  0
  2  6  1  0  0  0  0
  2  3  1  0  0  0  0
  3  4  2  0  0  0  0
  3 15  1  0  0  0  0
  4  5  1  0  0  0  0
  4 16  1  0  0  0  0
  5  6  2  0  0  0  0
  5 26  1  0  0  0  0
  6  7  1  0  0  0  0
  7 11  1  0  0  0  0
  7  8  1  0  0  0  0
  7 17  1  0  0  0  0
  8  9  1  0  0  0  0
  8 18  1  0  0  0  0
  8 19  1  0  0  0  0
  9 10  1  0  0  0  0
  9 20  1  0  0  0  0
  9 21  1  0  0  0  0
 10 11  1  0  0  0  0
 10 22  1  0  0  0  0
 10 25  1  0  0  0  0
 11 23  1  0  0  0  0
 11 24  1  0  0  0  0
M  CHG  1   5   1
M  CHG  1  10   1
M  END
> <s_m_source_file>
AV-unprocessed.smi

> <i_m_source_file_index>
3092

> <i_lp_mmshare_version>
43012

> <i_f3d_flags>
0

> <s_epik_input>
W0NIM11uMVtjSF1bY0hdbmMxW0NAQEhdMltDSDJdW0NIMl1bTkhdW0NIMl0y

> <s_epik_cmdline>
J2VwaWtfcHl0aG9uJywgJy1waCcsICc3LjAnLCAnLXRuJywgJzgnLCAnLW1hJywgJzIwMCcsICctbWV0YWxfYmluZGluZycsICctaW1hZScsICc8aW5maWxlLm1hZT4nLCAnLW9tYWUnLCAnPG91dGZpbGUubWFlPic=

> <r_lp_tautomer_probability>
1

> <r_epik_Ionization_Penalty>
0.803493

> <r_epik_Ionization_Penalty_Charging>
0.000689375

> <r_epik_Ionization_Penalty_Neutral>
0.802804

> <r_epik_State_Penalty>
0.834355

> <r_epik_Charging_Adjusted_Penalty>
0.835044

> <i_epik_Tot_Q>
2

> <i_epik_Tot_abs_Q>
2

> <r_epik_Metal_State_Penalty>
4.76097

> <b_epik_Metal_Only>
0

> <s_lp_Force_Field>
OPLS_2005

> <r_lp_Energy>
35.9538

> <b_lp_Chiralities_Consistent>
1

> <s_lp_Variant>
AV-unprocessed.smi:3092-4

> <Gold.Version>
5.8.1

> <Gold.Id.Protein>
6NUR|6NUR_protein|mol2

> <Gold.PLP.Fitness>
32.5817

> <Gold.PLP.PLP>
-26.5820

> <Gold.PLP.part.hbond>
-1.2077

> <Gold.PLP.part.metal>
0.0000

> <Gold.PLP.part.buried>
-3.8127

> <Gold.PLP.part.nonpolar>
-21.0192

> <Gold.PLP.part.repulsive>
0.1403

> <Gold.PLP.ligand.clash>
0.0000

> <Gold.PLP.ligand.torsion>
0.0014

> <Gold.PLP.Chemscore.Hbond>
2.0000

> <Gold.PLP.Chemscore.CHOScore>
0.0000

> <Gold.PLP.Chemscore.Metal>
0.0000

> <Gold.Chemscore.Hbonds>
donor molecule, donor type, donor heavy atom, donor atom, acceptor molecule, acceptor atom, score
      L1  H     5    26       P1  8028  2.00

> <Gold.PLP.Chemscore.Internal.Correction>
0.0025

> <Gold.Rescore>
     Score         DG    S(hbond)    S(metal)    S(lipo)     H(rot)  DE(clash)    DE(int)     intcor
     12.35     -12.40       0.95        0.00      53.82       1.00       0.01       0.03       ----

> <Gold.Chemscore.Fitness>
12.3521

> <Gold.Chemscore.DG>
-12.4003

> <Gold.Chemscore.ZeroCoef>
-5.4800

> <Gold.Chemscore.Hbond>
0.9529

> <Gold.Chemscore.Metal>
0.0000

> <Gold.Chemscore.Lipo>
53.8249

> <Gold.Chemscore.Internal_Hbond>
0.0000

> <Gold.Chemscore.DEClash>
0.0137

> <Gold.Chemscore.DEInternal>
0.0345

> <Gold.Chemscore.Rot>
1.0000

> <Gold.Chemscore.Internal.Correction>
   9.000000E+99

> <Gold.Chemscore.Hbonds>
donor molecule, donor type, donor heavy atom, donor atom, acceptor molecule, acceptor atom, score
      L1  H     5    26       P1  8028  0.34

> <Gold.Chemscore.Hbond.Weighted>
-3.1828

> <Gold.Chemscore.Metal.Weighted>
-0.0000

> <Gold.Chemscore.Lipo.Weighted>
-6.2975

> <Gold.Chemscore.Internal_Hbond.Weighted>
0.0000

> <Gold.Chemscore.DEClash.Weighted>
0.0137

> <Gold.Chemscore.DEInternal.Weighted>
0.0345

> <Gold.Chemscore.Rot.Weighted>
2.5600

> <Gold.Chemscore.Internal.Correction.Weighted>
   9.000000E+99

> <Gold.Protein.RotatedTorsions>
[ 6907 6896 6895 6894 ] final  -56.44 input  -60.11 | X-H torsion
[ 7974 7965 7964 7962 ] final  162.19 input  175.53 | X-H torsion
[ 8008 7997 7996 7995 ] final -126.90 input   59.86 | X-H torsion
[ 10167 10162 10161 10158 ] final  -55.81 input  -65.29 | X-H torsion
[ 10718 10713 10712 10709 ] final  -10.80 input   66.30 | X-H torsion
[ 10763 10752 10751 10750 ] final  129.13 input  -60.55 | X-H torsion
[ 11005 11000 10999 10996 ] final   83.98 input  -57.11 | X-H torsion

> <Gold.Protein.ActiveResidues>
 VAL166  LYS551  ARG553  GLY616  TRP617  ASP618  TYR619  PRO620  LYS621  CYS622 
 ASP623  PHE694  ASN695  SER759  ASP760  ASP761  ALA762  ILE779  LEU786  VAL792 
 PHE793  MET794  SER795  GLU796  ALA797  LYS798  CYS799  TRP800  GLU811  SER814 

> <Gold.Protein.RotatedAtoms>
  150.8168  134.7354  159.6736 H   0  0  0  0  0  0  0  0  0  0  0  0  # atno 6907 bound_to 6896
  152.4286  134.5818  159.9959 H   0  0  0  0  0  0  0  0  0  0  0  0  # atno 6908 bound_to 6896
  151.6013  133.3319  159.3084 H   0  0  0  0  0  0  0  0  0  0  0  0  # atno 6909 bound_to 6896
  144.7649  139.8004  143.6319 H   0  0  0  0  0  0  0  0  0  0  0  0  # atno 7974 bound_to 7965
  155.2373  140.0427  157.2970 H   0  0  0  0  0  0  0  0  0  0  0  0  # atno 8008 bound_to 7997
  154.5850  140.2411  155.7970 H   0  0  0  0  0  0  0  0  0  0  0  0  # atno 8009 bound_to 7997
  156.2220  140.2967  155.9983 H   0  0  0  0  0  0  0  0  0  0  0  0  # atno 8010 bound_to 7997
  140.6353  143.2479  151.5134 H   0  0  0  0  0  0  0  0  0  0  0  0  # atno 10167 bound_to 10162
  156.6683  130.5002  149.6008 H   0  0  0  0  0  0  0  0  0  0  0  0  # atno 10718 bound_to 10713
  153.7368  135.3230  155.3296 H   0  0  0  0  0  0  0  0  0  0  0  0  # atno 10763 bound_to 10752
  154.8308  135.4535  154.1067 H   0  0  0  0  0  0  0  0  0  0  0  0  # atno 10764 bound_to 10752
  153.2230  135.6950  153.8059 H   0  0  0  0  0  0  0  0  0  0  0  0  # atno 10765 bound_to 10752
  139.9014  134.8184  156.2383 H   0  0  0  0  0  0  0  0  0  0  0  0  # atno 11005 bound_to 11000
  146.1747  139.4912  142.9905 LP  0  0  0  0  0  0  0  0  0  0  0  0  # atno 17320 bound_to 7965
  145.6502  141.0265  143.1764 LP  0  0  0  0  0  0  0  0  0  0  0  0  # atno 17321 bound_to 7965
  139.5564  144.2265  152.1619 LP  0  0  0  0  0  0  0  0  0  0  0  0  # atno 17342 bound_to 10162
  140.1520  144.5106  150.6682 LP  0  0  0  0  0  0  0  0  0  0  0  0  # atno 17343 bound_to 10162
  156.1958  130.6589  151.1113 LP  0  0  0  0  0  0  0  0  0  0  0  0  # atno 17370 bound_to 10713
  157.7086  131.0745  150.6580 LP  0  0  0  0  0  0  0  0  0  0  0  0  # atno 17371 bound_to 10713
  141.0301  133.6993  156.1415 LP  0  0  0  0  0  0  0  0  0  0  0  0  # atno 17394 bound_to 11000
  140.7109  134.4463  157.5581 LP  0  0  0  0  0  0  0  0  0  0  0  0  # atno 17395 bound_to 11000

$$$$
