AV-unprocessed.smi:711|AV-procd|sdf|3467|dock4
  -GOLD-   22720 0453D 1   1.00000     0.00000
 Structure written by MMmdl.
 28 29  0  0  0  0  0  0  0  0  2 V2000
  150.5164  135.5180  154.6192 O   0  0  0  0  0  0  0  0  0  0  0  0
  150.8297  136.6391  155.0169 C   0  0  0  0  0  0  0  0  0  0  0  0
  152.0344  137.2129  154.7285 N   0  5  0  0  0  0  0  0  0  0  0  0
  152.4003  138.4601  155.1582 C   0  0  0  0  0  0  0  0  0  0  0  0
  153.4943  138.9536  154.8842 O   0  0  0  0  0  0  0  0  0  0  0  0
  151.5190  139.1791  155.9145 N   0  0  0  0  0  0  0  0  0  0  0  0
  151.8238  140.5246  156.4221 C   0  0  0  0  0  0  0  0  0  0  0  0
  152.0823  140.5266  157.9435 C   0  0  1  0  0  0  0  0  0  0  0  0
  153.3190  139.8905  158.2016 O   0  0  0  0  0  0  0  0  0  0  0  0
  152.0616  141.9489  158.4900 C   0  0  0  0  0  0  0  0  0  0  0  0
  151.3637  142.9684  157.8038 C   0  0  0  0  0  0  0  0  0  0  0  0
  151.3312  144.2796  158.3164 C   0  0  0  0  0  0  0  0  0  0  0  0
  151.9927  144.5804  159.5218 C   0  0  0  0  0  0  0  0  0  0  0  0
  151.9605  145.8404  160.0165 F   0  0  0  0  0  0  0  0  0  0  0  0
  152.6842  143.5689  160.2145 C   0  0  0  0  0  0  0  0  0  0  0  0
  152.7175  142.2564  159.7040 C   0  0  0  0  0  0  0  0  0  0  0  0
  153.3786  141.2939  160.3913 F   0  0  0  0  0  0  0  0  0  0  0  0
  150.2671  138.6322  156.2444 C   0  0  0  0  0  0  0  0  0  0  0  0
  149.8905  137.4064  155.8323 C   0  0  0  0  0  0  0  0  0  0  0  0
  148.3457  136.7588  156.2559 Cl  0  0  0  0  0  0  0  0  0  0  0  0
  152.6436  141.0041  155.8839 H   0  0  0  0  0  0  0  0  0  0  0  0
  150.9550  141.1499  156.2092 H   0  0  0  0  0  0  0  0  0  0  0  0
  151.3119  139.9461  158.4518 H   0  0  0  0  0  0  0  0  0  0  0  0
  153.1595  138.9704  158.3444 H   0  0  0  0  0  0  0  0  0  0  0  0
  150.8454  142.7479  156.8819 H   0  0  0  0  0  0  0  0  0  0  0  0
  150.7964  145.0533  157.7856 H   0  0  0  0  0  0  0  0  0  0  0  0
  153.1879  143.7994  161.1416 H   0  0  0  0  0  0  0  0  0  0  0  0
  149.6394  139.2670  156.8532 H   0  0  0  0  0  0  0  0  0  0  0  0
  1  2  2  0  0  0  0
  2 19  1  0  0  0  0
  2  3  1  0  0  0  0
  3  4  1  0  0  0  0
  4  5  2  0  0  0  0
  4  6  1  0  0  0  0
  6  7  1  0  0  0  0
  6 18  1  0  0  0  0
  7  8  1  0  0  0  0
  7 21  1  0  0  0  0
  7 22  1  0  0  0  0
  8  9  1  0  0  0  0
  8 10  1  0  0  0  0
  8 23  1  0  0  0  0
  9 24  1  0  0  0  0
 10 16  1  0  0  0  0
 10 11  2  0  0  0  0
 11 12  1  0  0  0  0
 11 25  1  0  0  0  0
 12 13  2  0  0  0  0
 12 26  1  0  0  0  0
 13 14  1  0  0  0  0
 13 15  1  0  0  0  0
 15 16  2  0  0  0  0
 15 27  1  0  0  0  0
 16 17  1  0  0  0  0
 18 19  2  0  0  0  0
 18 28  1  0  0  0  0
 19 20  1  0  0  0  0
M  CHG  1   3  -1
M  END
> <s_m_source_file>
AV-unprocessed.smi

> <i_m_source_file_index>
711

> <i_lp_mmshare_version>
43012

> <i_f3d_flags>
0

> <s_epik_input>
Tz1jMVtuSF1jKD1PKW4oW2NIXWMxQ2wpW0NIMl1bQ0BIXShbT0hdKWMyW2NIXVtjSF1jKEYpW2NIXWMyRg==

> <s_epik_cmdline>
J2VwaWtfcHl0aG9uJywgJy1waCcsICc3LjAnLCAnLXRuJywgJzgnLCAnLW1hJywgJzIwMCcsICctbWV0YWxfYmluZGluZycsICctaW1hZScsICc8aW5maWxlLm1hZT4nLCAnLW9tYWUnLCAnPG91dGZpbGUubWFlPic=

> <r_epik_Ionization_Penalty>
1.7979

> <r_epik_Ionization_Penalty_Charging>
3.23819e-08

> <r_epik_Ionization_Penalty_Neutral>
1.7979

> <r_epik_State_Penalty>
1.91135

> <r_epik_Charging_Adjusted_Penalty>
1.91135

> <i_epik_Tot_Q>
-1

> <i_epik_Tot_abs_Q>
1

> <r_epik_Metal_State_Penalty>
0.014155

> <b_epik_Metal_Only>
0

> <s_lp_Force_Field>
OPLS_2005

> <r_lp_Energy>
21.7913

> <b_lp_Chiralities_Consistent>
1

> <s_lp_Variant>
AV-unprocessed.smi:711-4

> <Gold.Version>
5.8.1

> <Gold.Id.Protein>
6NUR|6NUR_protein|mol2

> <Gold.PLP.Fitness>
52.0286

> <Gold.PLP.PLP>
-43.1169

> <Gold.PLP.part.hbond>
-3.0000

> <Gold.PLP.part.metal>
0.0000

> <Gold.PLP.part.buried>
-5.2847

> <Gold.PLP.part.nonpolar>
-35.2195

> <Gold.PLP.part.repulsive>
0.2979

> <Gold.PLP.ligand.clash>
0.0000

> <Gold.PLP.ligand.torsion>
0.8779

> <Gold.PLP.Chemscore.Hbond>
3.5520

> <Gold.PLP.Chemscore.CHOScore>
0.0000

> <Gold.PLP.Chemscore.Metal>
0.0000

> <Gold.Chemscore.Hbonds>
donor molecule, donor type, donor heavy atom, donor atom, acceptor molecule, acceptor atom, score
      P1  H  7997  8008       L1     9  0.91
      P1  H  7997  8009       L1     5  0.77
      P1  H 10752 10764       L1     3  1.43

> <Gold.PLP.Chemscore.Internal.Correction>
0.0117

> <Gold.Rescore>
     Score         DG    S(hbond)    S(metal)    S(lipo)     H(rot)  DE(clash)    DE(int)     intcor
     13.30     -16.04       1.95        0.00      85.35       2.32       0.11       2.64       ----

> <Gold.Chemscore.Fitness>
13.2970

> <Gold.Chemscore.DG>
-16.0400

> <Gold.Chemscore.ZeroCoef>
-5.4800

> <Gold.Chemscore.Hbond>
1.9474

> <Gold.Chemscore.Metal>
0.0000

> <Gold.Chemscore.Lipo>
85.3498

> <Gold.Chemscore.Internal_Hbond>
0.0000

> <Gold.Chemscore.DEClash>
0.1051

> <Gold.Chemscore.DEInternal>
2.6379

> <Gold.Chemscore.Rot>
2.3164

> <Gold.Chemscore.Internal.Correction>
   9.000000E+99

> <Gold.Chemscore.Hbonds>
donor molecule, donor type, donor heavy atom, donor atom, acceptor molecule, acceptor atom, score
      P1  H  7997  8008       L1     9  0.57
      P1  H  7997  8009       L1     5  0.75
      P1  H 10752 10764       L1     3  0.10

> <Gold.Chemscore.Hbond.Weighted>
-6.5042

> <Gold.Chemscore.Metal.Weighted>
-0.0000

> <Gold.Chemscore.Lipo.Weighted>
-9.9859

> <Gold.Chemscore.Internal_Hbond.Weighted>
0.0000

> <Gold.Chemscore.DEClash.Weighted>
0.1051

> <Gold.Chemscore.DEInternal.Weighted>
2.6379

> <Gold.Chemscore.Rot.Weighted>
5.9301

> <Gold.Chemscore.Internal.Correction.Weighted>
   9.000000E+99

> <Gold.Protein.RotatedTorsions>
[ 6907 6896 6895 6894 ] final -167.13 input  -60.11 | X-H torsion
[ 7974 7965 7964 7962 ] final  115.28 input  175.53 | X-H torsion
[ 8008 7997 7996 7995 ] final -104.34 input   59.86 | X-H torsion
[ 10167 10162 10161 10158 ] final    5.02 input  -65.29 | X-H torsion
[ 10718 10713 10712 10709 ] final  -66.03 input   66.30 | X-H torsion
[ 10763 10752 10751 10750 ] final  -67.07 input  -60.55 | X-H torsion
[ 11005 11000 10999 10996 ] final   82.27 input  -57.11 | X-H torsion

> <Gold.Protein.ActiveResidues>
 VAL166  LYS551  ARG553  GLY616  TRP617  ASP618  TYR619  PRO620  LYS621  CYS622 
 ASP623  PHE694  ASN695  SER759  ASP760  ASP761  ALA762  ILE779  LEU786  VAL792 
 PHE793  MET794  SER795  GLU796  ALA797  LYS798  CYS799  TRP800  GLU811  SER814 

> <Gold.Protein.RotatedAtoms>
  151.4546  133.3608  159.2799 H   0  0  0  0  0  0  0  0  0  0  0  0  # atno 6907 bound_to 6896
  150.9067  134.8484  159.7408 H   0  0  0  0  0  0  0  0  0  0  0  0  # atno 6908 bound_to 6896
  152.4910  134.4471  159.9614 H   0  0  0  0  0  0  0  0  0  0  0  0  # atno 6909 bound_to 6896
  145.1939  139.2986  143.4354 H   0  0  0  0  0  0  0  0  0  0  0  0  # atno 7974 bound_to 7965
  154.8840  140.0418  157.1799 H   0  0  0  0  0  0  0  0  0  0  0  0  # atno 8008 bound_to 7997
  154.8610  140.2944  155.5518 H   0  0  0  0  0  0  0  0  0  0  0  0  # atno 8009 bound_to 7997
  156.2998  140.2447  156.3584 H   0  0  0  0  0  0  0  0  0  0  0  0  # atno 8010 bound_to 7997
  140.6504  143.7559  150.7566 H   0  0  0  0  0  0  0  0  0  0  0  0  # atno 10167 bound_to 10162
  156.0635  130.4256  150.1650 H   0  0  0  0  0  0  0  0  0  0  0  0  # atno 10718 bound_to 10713
  154.3691  135.6099  153.5730 H   0  0  0  0  0  0  0  0  0  0  0  0  # atno 10763 bound_to 10752
  152.9791  135.5833  154.4543 H   0  0  0  0  0  0  0  0  0  0  0  0  # atno 10764 bound_to 10752
  154.4294  135.2847  155.1900 H   0  0  0  0  0  0  0  0  0  0  0  0  # atno 10765 bound_to 10752
  139.9069  134.8059  156.2152 H   0  0  0  0  0  0  0  0  0  0  0  0  # atno 11005 bound_to 11000
  146.3431  140.2161  142.8590 LP  0  0  0  0  0  0  0  0  0  0  0  0  # atno 17320 bound_to 7965
  145.0014  140.8635  143.5279 LP  0  0  0  0  0  0  0  0  0  0  0  0  # atno 17321 bound_to 7965
  140.1208  143.4613  152.2314 LP  0  0  0  0  0  0  0  0  0  0  0  0  # atno 17342 bound_to 10162
  139.5719  144.7467  151.3869 LP  0  0  0  0  0  0  0  0  0  0  0  0  # atno 17343 bound_to 10162
  156.9714  130.9836  151.3458 LP  0  0  0  0  0  0  0  0  0  0  0  0  # atno 17370 bound_to 10713
  157.5661  130.8279  149.8329 LP  0  0  0  0  0  0  0  0  0  0  0  0  # atno 17371 bound_to 10713
  141.0440  133.6923  156.1650 LP  0  0  0  0  0  0  0  0  0  0  0  0  # atno 17394 bound_to 11000
  140.6912  134.4664  157.5588 LP  0  0  0  0  0  0  0  0  0  0  0  0  # atno 17395 bound_to 11000

$$$$
