AV-unprocessed.smi:2302|AV-procd|sdf|9236|dock2
  -GOLD-   2272012453D 1   1.00000     0.00000
 Structure written by MMmdl.
 40 41  0  0  0  0  0  0  0  0  2 V2000
  153.5646  140.7841  159.8965 C   0  0  0  0  0  0  0  0  0  0  0  0
  152.8521  142.0324  159.4203 C   0  0  0  0  0  0  0  0  0  0  0  0
  153.0770  143.2771  160.0407 C   0  0  0  0  0  0  0  0  0  0  0  0
  152.3854  144.3978  159.5473 C   0  0  0  0  0  0  0  0  0  0  0  0
  151.5041  144.2294  158.4620 C   0  0  0  0  0  0  0  0  0  0  0  0
  151.3347  142.9454  157.8970 C   0  0  0  0  0  0  0  0  0  0  0  0
  150.4248  142.8819  156.8082 N   0  0  0  0  0  0  0  0  0  0  0  0
  150.1737  141.8408  155.9953 C   0  0  0  0  0  0  0  0  0  0  0  0
  150.7087  140.7338  156.0659 O   0  0  0  0  0  0  0  0  0  0  0  0
  149.2468  142.1518  155.0777 N   0  0  0  0  0  0  0  0  0  0  0  0
  148.7555  141.2446  154.0462 C   0  0  0  0  0  0  0  0  0  0  0  0
  147.2707  140.8917  154.2474 C   0  0  2  0  0  0  0  0  0  0  0  0
  146.4265  142.1361  154.5848 C   0  0  0  0  0  0  0  0  0  0  0  0
  145.0191  141.7532  154.8410 N   0  3  2  0  0  0  0  0  0  0  0  0
  144.1540  142.9184  155.1235 C   0  0  0  0  0  0  0  0  0  0  0  0
  144.9381  140.7129  155.8914 C   0  0  0  0  0  0  0  0  0  0  0  0
  145.8339  139.5171  155.5281 C   0  0  0  0  0  0  0  0  0  0  0  0
  147.1683  139.9666  155.3265 O   0  0  0  0  0  0  0  0  0  0  0  0
  152.0057  141.8702  158.3804 N   0  0  0  0  0  0  0  0  0  0  0  0
  154.2216  141.0003  160.7392 H   0  0  0  0  0  0  0  0  0  0  0  0
  154.1694  140.3637  159.0925 H   0  0  0  0  0  0  0  0  0  0  0  0
  152.8413  140.0321  160.2129 H   0  0  0  0  0  0  0  0  0  0  0  0
  153.7605  143.3741  160.8713 H   0  0  0  0  0  0  0  0  0  0  0  0
  152.5283  145.3711  159.9928 H   0  0  0  0  0  0  0  0  0  0  0  0
  150.9663  145.0810  158.0711 H   0  0  0  0  0  0  0  0  0  0  0  0
  149.9066  143.7287  156.6269 H   0  0  0  0  0  0  0  0  0  0  0  0
  148.8552  143.0824  155.0904 H   0  0  0  0  0  0  0  0  0  0  0  0
  148.8994  141.7185  153.0748 H   0  0  0  0  0  0  0  0  0  0  0  0
  149.3634  140.3383  154.0407 H   0  0  0  0  0  0  0  0  0  0  0  0
  146.8809  140.4316  153.3374 H   0  0  0  0  0  0  0  0  0  0  0  0
  146.8330  142.6412  155.4625 H   0  0  0  0  0  0  0  0  0  0  0  0
  146.4651  142.8469  153.7582 H   0  0  0  0  0  0  0  0  0  0  0  0
  144.4705  143.4308  156.0330 H   0  0  0  0  0  0  0  0  0  0  0  0
  143.1168  142.6064  155.2493 H   0  0  0  0  0  0  0  0  0  0  0  0
  144.1894  143.6315  154.2991 H   0  0  0  0  0  0  0  0  0  0  0  0
  145.2486  141.1335  156.8495 H   0  0  0  0  0  0  0  0  0  0  0  0
  143.9048  140.3826  156.0049 H   0  0  0  0  0  0  0  0  0  0  0  0
  145.8261  138.7827  156.3336 H   0  0  0  0  0  0  0  0  0  0  0  0
  145.4681  139.0114  154.6329 H   0  0  0  0  0  0  0  0  0  0  0  0
  144.6728  141.3337  153.9897 H   0  0  0  0  0  0  0  0  0  0  0  0
  1  2  1  0  0  0  0
  1 20  1  0  0  0  0
  1 21  1  0  0  0  0
  1 22  1  0  0  0  0
  2 19  1  0  0  0  0
  2  3  2  0  0  0  0
  3  4  1  0  0  0  0
  3 23  1  0  0  0  0
  4  5  2  0  0  0  0
  4 24  1  0  0  0  0
  5  6  1  0  0  0  0
  5 25  1  0  0  0  0
  6  7  1  0  0  0  0
  6 19  2  0  0  0  0
  7  8  1  0  0  0  0
  7 26  1  0  0  0  0
  8  9  2  0  0  0  0
  8 10  1  0  0  0  0
 10 11  1  0  0  0  0
 10 27  1  0  0  0  0
 11 12  1  0  0  0  0
 11 28  1  0  0  0  0
 11 29  1  0  0  0  0
 12 18  1  0  0  0  0
 12 13  1  0  0  0  0
 12 30  1  0  0  0  0
 13 14  1  0  0  0  0
 13 31  1  0  0  0  0
 13 32  1  0  0  0  0
 14 15  1  0  0  0  0
 14 16  1  0  0  0  0
 14 40  1  0  0  0  0
 15 33  1  0  0  0  0
 15 34  1  0  0  0  0
 15 35  1  0  0  0  0
 16 17  1  0  0  0  0
 16 36  1  0  0  0  0
 16 37  1  0  0  0  0
 17 18  1  0  0  0  0
 17 38  1  0  0  0  0
 17 39  1  0  0  0  0
M  CHG  1  14   1
M  END
> <s_m_source_file>
AV-unprocessed.smi

> <i_m_source_file_index>
2302

> <i_lp_mmshare_version>
43012

> <i_f3d_flags>
0

> <s_epik_input>
W0NIM11jMVtjSF1bY0hdW2NIXWMobjEpW05IXUMoPU8pW05IXVtDSDJdW0NAQEhdMltDSDJdTihbQ0gzXSlbQ0gyXVtDSDJdTzI=

> <s_epik_cmdline>
J2VwaWtfcHl0aG9uJywgJy1waCcsICc3LjAnLCAnLXRuJywgJzgnLCAnLW1hJywgJzIwMCcsICctbWV0YWxfYmluZGluZycsICctaW1hZScsICc8aW5maWxlLm1hZT4nLCAnLW9tYWUnLCAnPG91dGZpbGUubWFlPic=

> <r_epik_Ionization_Penalty>
0.204647

> <r_epik_Ionization_Penalty_Charging>
0.204578

> <r_epik_Ionization_Penalty_Neutral>
6.91954e-05

> <r_epik_State_Penalty>
0.194513

> <r_epik_Charging_Adjusted_Penalty>
0.399091

> <i_epik_Tot_Q>
1

> <i_epik_Tot_abs_Q>
1

> <r_epik_Metal_State_Penalty>
0.194515

> <b_epik_Metal_Only>
0

> <s_lp_Force_Field>
OPLS_2005

> <r_lp_Energy>
15.472

> <b_lp_Chiralities_Consistent>
1

> <s_lp_Variant>
AV-unprocessed.smi:2302-1

> <Gold.Version>
5.8.1

> <Gold.Id.Protein>
6NUR|6NUR_protein|mol2

> <Gold.PLP.Fitness>
49.7988

> <Gold.PLP.PLP>
-38.0836

> <Gold.PLP.part.hbond>
-3.0000

> <Gold.PLP.part.metal>
0.0000

> <Gold.PLP.part.buried>
-5.6664

> <Gold.PLP.part.nonpolar>
-31.0806

> <Gold.PLP.part.repulsive>
0.2988

> <Gold.PLP.ligand.clash>
0.0000

> <Gold.PLP.ligand.torsion>
0.1431

> <Gold.PLP.Chemscore.Hbond>
4.0000

> <Gold.PLP.Chemscore.CHOScore>
0.0000

> <Gold.PLP.Chemscore.Metal>
0.0000

> <Gold.Chemscore.Hbonds>
donor molecule, donor type, donor heavy atom, donor atom, acceptor molecule, acceptor atom, score
      L1  H     7    26       P1  8028  1.00
      L1  H    10    27       P1  8028  1.00
      L1  H    14    40       P1 10175  2.00

> <Gold.PLP.Chemscore.Internal.Correction>
0.0014

> <Gold.Rescore>
     Score         DG    S(hbond)    S(metal)    S(lipo)     H(rot)  DE(clash)    DE(int)     intcor
     19.91     -21.28       2.79        0.00      83.22       1.27       0.00       1.37       ----

> <Gold.Chemscore.Fitness>
19.9066

> <Gold.Chemscore.DG>
-21.2818

> <Gold.Chemscore.ZeroCoef>
-5.4800

> <Gold.Chemscore.Hbond>
2.7921

> <Gold.Chemscore.Metal>
0.0000

> <Gold.Chemscore.Lipo>
83.2193

> <Gold.Chemscore.Internal_Hbond>
0.0000

> <Gold.Chemscore.DEClash>
0.0015

> <Gold.Chemscore.DEInternal>
1.3737

> <Gold.Chemscore.Rot>
1.2736

> <Gold.Chemscore.Internal.Correction>
   9.000000E+99

> <Gold.Chemscore.Hbonds>
donor molecule, donor type, donor heavy atom, donor atom, acceptor molecule, acceptor atom, score
      L1  H     7    26       P1  8028  0.98
      L1  H    10    27       P1  8028  0.95
      L1  H    14    40       P1 10175  0.44

> <Gold.Chemscore.Hbond.Weighted>
-9.3255

> <Gold.Chemscore.Metal.Weighted>
-0.0000

> <Gold.Chemscore.Lipo.Weighted>
-9.7367

> <Gold.Chemscore.Internal_Hbond.Weighted>
0.0000

> <Gold.Chemscore.DEClash.Weighted>
0.0015

> <Gold.Chemscore.DEInternal.Weighted>
1.3737

> <Gold.Chemscore.Rot.Weighted>
3.2603

> <Gold.Chemscore.Internal.Correction.Weighted>
   9.000000E+99

> <Gold.Protein.RotatedTorsions>
[ 6907 6896 6895 6894 ] final   55.08 input  -60.11 | X-H torsion
[ 7974 7965 7964 7962 ] final   -4.37 input  175.53 | X-H torsion
[ 8008 7997 7996 7995 ] final   16.99 input   59.86 | X-H torsion
[ 10167 10162 10161 10158 ] final   57.08 input  -65.29 | X-H torsion
[ 10718 10713 10712 10709 ] final  -65.35 input   66.30 | X-H torsion
[ 10763 10752 10751 10750 ] final -142.01 input  -60.55 | X-H torsion
[ 11005 11000 10999 10996 ] final  -27.89 input  -57.11 | X-H torsion

> <Gold.Protein.ActiveResidues>
 VAL166  LYS551  ARG553  GLY616  TRP617  ASP618  TYR619  PRO620  LYS621  CYS622 
 ASP623  PHE694  ASN695  SER759  ASP760  ASP761  ALA762  ILE779  LEU786  VAL792 
 PHE793  MET794  SER795  GLU796  ALA797  LYS798  CYS799  TRP800  GLU811  SER814 

> <Gold.Protein.RotatedAtoms>
  152.3503  134.7015  160.0238 H   0  0  0  0  0  0  0  0  0  0  0  0  # atno 6907 bound_to 6896
  151.7371  133.3315  159.3364 H   0  0  0  0  0  0  0  0  0  0  0  0  # atno 6908 bound_to 6896
  150.7536  134.6245  159.6198 H   0  0  0  0  0  0  0  0  0  0  0  0  # atno 6909 bound_to 6896
  146.2373  140.1861  142.8332 H   0  0  0  0  0  0  0  0  0  0  0  0  # atno 7974 bound_to 7965
  154.8850  140.2978  155.5403 H   0  0  0  0  0  0  0  0  0  0  0  0  # atno 8008 bound_to 7997
  156.3021  140.2435  156.3792 H   0  0  0  0  0  0  0  0  0  0  0  0  # atno 8009 bound_to 7997
  154.8678  140.0402  157.1694 H   0  0  0  0  0  0  0  0  0  0  0  0  # atno 8010 bound_to 7997
  140.2018  144.3980  150.6525 H   0  0  0  0  0  0  0  0  0  0  0  0  # atno 10167 bound_to 10162
  156.0675  130.4246  150.1551 H   0  0  0  0  0  0  0  0  0  0  0  0  # atno 10718 bound_to 10713
  154.8524  135.3508  154.5960 H   0  0  0  0  0  0  0  0  0  0  0  0  # atno 10763 bound_to 10752
  153.6569  135.6991  153.5195 H   0  0  0  0  0  0  0  0  0  0  0  0  # atno 10764 bound_to 10752
  153.2849  135.4252  155.1070 H   0  0  0  0  0  0  0  0  0  0  0  0  # atno 10765 bound_to 10752
  140.9160  133.7430  156.0735 H   0  0  0  0  0  0  0  0  0  0  0  0  # atno 11005 bound_to 11000
  144.9895  140.8534  143.5348 LP  0  0  0  0  0  0  0  0  0  0  0  0  # atno 17320 bound_to 7965
  145.1865  139.2324  143.5265 LP  0  0  0  0  0  0  0  0  0  0  0  0  # atno 17321 bound_to 7965
  140.6385  143.2199  151.6343 LP  0  0  0  0  0  0  0  0  0  0  0  0  # atno 17342 bound_to 10162
  139.5214  144.3194  152.0924 LP  0  0  0  0  0  0  0  0  0  0  0  0  # atno 17343 bound_to 10162
  156.9609  130.9804  151.3479 LP  0  0  0  0  0  0  0  0  0  0  0  0  # atno 17370 bound_to 10713
  157.5725  130.8320  149.8411 LP  0  0  0  0  0  0  0  0  0  0  0  0  # atno 17371 bound_to 10713
  140.8049  134.3466  157.5429 LP  0  0  0  0  0  0  0  0  0  0  0  0  # atno 17394 bound_to 11000
  139.8766  134.9220  156.3289 LP  0  0  0  0  0  0  0  0  0  0  0  0  # atno 17395 bound_to 11000

$$$$
