AV-unprocessed.smi:2215|AV-procd|sdf|8963|dock10
  -GOLD-   2272012183D 1   1.00000     0.00000
 Structure written by MMmdl.
 40 41  0  0  0  0  0  0  0  0  1 V2000
  143.5193  131.8407  150.4813 C   0  0  0  0  0  0  0  0  0  0  0  0
  144.3439  133.0356  150.9114 C   0  0  0  0  0  0  0  0  0  0  0  0
  145.7504  132.9833  150.9172 C   0  0  0  0  0  0  0  0  0  0  0  0
  146.4702  134.1249  151.3185 C   0  0  0  0  0  0  0  0  0  0  0  0
  145.7695  135.2906  151.7019 C   0  0  0  0  0  0  0  0  0  0  0  0
  146.5891  136.3881  152.0776 N   0  0  0  0  0  0  0  0  0  0  0  0
  146.2141  137.5570  152.6265 C   0  0  0  0  0  0  0  0  0  0  0  0
  145.0639  137.8586  152.9465 O   0  0  0  0  0  0  0  0  0  0  0  0
  147.2644  138.3739  152.7907 N   0  0  0  0  0  0  0  0  0  0  0  0
  147.2007  139.7176  153.3576 C   0  0  0  0  0  0  0  0  0  0  0  0
  148.5681  140.2068  153.8932 C   0  0  1  0  0  0  0  0  0  0  0  0
  148.3899  141.2711  155.0019 C   0  0  0  0  0  0  0  0  0  0  0  0
  149.7337  141.7417  155.5788 C   0  0  0  0  0  0  0  0  0  0  0  0
  150.5527  140.5576  156.1088 C   0  0  0  0  0  0  0  0  0  0  0  0
  150.7672  139.5114  155.0073 C   0  0  0  0  0  0  0  0  0  0  0  0
  149.4281  139.0300  154.4185 C   0  0  2  0  0  0  0  0  0  0  0  0
  149.7213  138.1282  153.3700 O   0  0  0  0  0  0  0  0  0  0  0  0
  144.4136  135.3307  151.6940 N   0  0  0  0  0  0  0  0  0  0  0  0
  143.7243  134.2359  151.3099 C   0  0  0  0  0  0  0  0  0  0  0  0
  144.0808  130.9140  150.6039 H   0  0  0  0  0  0  0  0  0  0  0  0
  143.2385  131.9368  149.4324 H   0  0  0  0  0  0  0  0  0  0  0  0
  142.6087  131.7665  151.0766 H   0  0  0  0  0  0  0  0  0  0  0  0
  146.2724  132.0863  150.6175 H   0  0  0  0  0  0  0  0  0  0  0  0
  147.5502  134.1019  151.3268 H   0  0  0  0  0  0  0  0  0  0  0  0
  147.5739  136.2787  151.8861 H   0  0  0  0  0  0  0  0  0  0  0  0
  148.1739  138.0451  152.5017 H   0  0  0  0  0  0  0  0  0  0  0  0
  146.8442  140.3931  152.5795 H   0  0  0  0  0  0  0  0  0  0  0  0
  146.4448  139.7366  154.1441 H   0  0  0  0  0  0  0  0  0  0  0  0
  149.1107  140.6739  153.0693 H   0  0  0  0  0  0  0  0  0  0  0  0
  147.8515  142.1372  154.6161 H   0  0  0  0  0  0  0  0  0  0  0  0
  147.7770  140.8621  155.8061 H   0  0  0  0  0  0  0  0  0  0  0  0
  150.3008  142.2648  154.8075 H   0  0  0  0  0  0  0  0  0  0  0  0
  149.5622  142.4621  156.3790 H   0  0  0  0  0  0  0  0  0  0  0  0
  151.5152  140.9070  156.4836 H   0  0  0  0  0  0  0  0  0  0  0  0
  150.0367  140.1014  156.9548 H   0  0  0  0  0  0  0  0  0  0  0  0
  151.3847  139.9433  154.2181 H   0  0  0  0  0  0  0  0  0  0  0  0
  151.3263  138.6651  155.4084 H   0  0  0  0  0  0  0  0  0  0  0  0
  148.8734  138.4884  155.1859 H   0  0  0  0  0  0  0  0  0  0  0  0
  149.6163  138.5793  152.5462 H   0  0  0  0  0  0  0  0  0  0  0  0
  142.6477  134.3234  151.3185 H   0  0  0  0  0  0  0  0  0  0  0  0
  1  2  1  0  0  0  0
  1 20  1  0  0  0  0
  1 21  1  0  0  0  0
  1 22  1  0  0  0  0
  2 19  1  0  0  0  0
  2  3  2  0  0  0  0
  3  4  1  0  0  0  0
  3 23  1  0  0  0  0
  4  5  2  0  0  0  0
  4 24  1  0  0  0  0
  5  6  1  0  0  0  0
  5 18  1  0  0  0  0
  6  7  1  0  0  0  0
  6 25  1  0  0  0  0
  7  8  2  0  0  0  0
  7  9  1  0  0  0  0
  9 10  1  0  0  0  0
  9 26  1  0  0  0  0
 10 11  1  0  0  0  0
 10 27  1  0  0  0  0
 10 28  1  0  0  0  0
 11 16  1  0  0  0  0
 11 12  1  0  0  0  0
 11 29  1  0  0  0  0
 12 13  1  0  0  0  0
 12 30  1  0  0  0  0
 12 31  1  0  0  0  0
 13 14  1  0  0  0  0
 13 32  1  0  0  0  0
 13 33  1  0  0  0  0
 14 15  1  0  0  0  0
 14 34  1  0  0  0  0
 14 35  1  0  0  0  0
 15 16  1  0  0  0  0
 15 36  1  0  0  0  0
 15 37  1  0  0  0  0
 16 17  1  0  0  0  0
 16 38  1  0  0  0  0
 17 39  1  0  0  0  0
 18 19  2  0  0  0  0
 19 40  1  0  0  0  0
M  END
> <s_m_source_file>
AV-unprocessed.smi

> <i_m_source_file_index>
2215

> <i_lp_mmshare_version>
43012

> <i_f3d_flags>
0

> <s_epik_input>
W0NIM11jMVtjSF1bY0hdYyhuW2NIXTEpW05IXUMoPU8pW05IXVtDSDJdW0NAQEhdMltDSDJdW0NIMl1bQ0gyXVtDSDJdW0NASF0yW09IXQ==

> <s_epik_cmdline>
J2VwaWtfcHl0aG9uJywgJy1waCcsICc3LjAnLCAnLXRuJywgJzgnLCAnLW1hJywgJzIwMCcsICctbWV0YWxfYmluZGluZycsICctaW1hZScsICc8aW5maWxlLm1hZT4nLCAnLW9tYWUnLCAnPG91dGZpbGUubWFlPic=

> <r_lp_tautomer_probability>
1

> <r_epik_Ionization_Penalty>
6.08491e-05

> <r_epik_Ionization_Penalty_Charging>
0

> <r_epik_Ionization_Penalty_Neutral>
6.08491e-05

> <r_epik_State_Penalty>
-0

> <r_epik_Charging_Adjusted_Penalty>
0

> <i_epik_Tot_Q>
0

> <i_epik_Tot_abs_Q>
0

> <r_epik_Metal_State_Penalty>
-0

> <b_epik_Metal_Only>
0

> <s_lp_Force_Field>
OPLS_2005

> <r_lp_Energy>
14.1492

> <b_lp_Chiralities_Consistent>
1

> <s_lp_Variant>
AV-unprocessed.smi:2215-4

> <Gold.Version>
5.8.1

> <Gold.Id.Protein>
6NUR|6NUR_protein|mol2

> <Gold.PLP.Fitness>
40.9480

> <Gold.PLP.PLP>
-32.9860

> <Gold.PLP.part.hbond>
-3.9388

> <Gold.PLP.part.metal>
0.0000

> <Gold.PLP.part.buried>
0.2163

> <Gold.PLP.part.nonpolar>
-30.7103

> <Gold.PLP.part.repulsive>
0.9643

> <Gold.PLP.ligand.clash>
0.0000

> <Gold.PLP.ligand.torsion>
0.4839

> <Gold.PLP.Chemscore.Hbond>
2.2539

> <Gold.PLP.Chemscore.CHOScore>
0.7215

> <Gold.PLP.Chemscore.Metal>
0.0000

> <Gold.Chemscore.Hbonds>
donor molecule, donor type, donor heavy atom, donor atom, acceptor molecule, acceptor atom, score
      L1  H     6    25       P1  7948  0.57
      L1  H     9    26       P1  7948  0.68
      L1  H    17    39       P1  7957  1.00
      L1  C    19    40       P1 10186  0.76

> <Gold.PLP.Chemscore.Internal.Correction>
0.0038

> <Gold.Rescore>
     Score         DG    S(hbond)    S(metal)    S(lipo)     H(rot)  DE(clash)    DE(int)     intcor
     13.91     -17.57       2.14        0.00      80.31       1.73       0.20       3.46       ----

> <Gold.Chemscore.Fitness>
13.9083

> <Gold.Chemscore.DG>
-17.5689

> <Gold.Chemscore.ZeroCoef>
-5.4800

> <Gold.Chemscore.Hbond>
2.1352

> <Gold.Chemscore.Metal>
0.0000

> <Gold.Chemscore.Lipo>
80.3084

> <Gold.Chemscore.Internal_Hbond>
0.0000

> <Gold.Chemscore.DEClash>
0.1968

> <Gold.Chemscore.DEInternal>
3.4638

> <Gold.Chemscore.Rot>
1.7339

> <Gold.Chemscore.Internal.Correction>
   9.000000E+99

> <Gold.Chemscore.Hbonds>
donor molecule, donor type, donor heavy atom, donor atom, acceptor molecule, acceptor atom, score
      L1  H     6    25       P1  7948  0.56
      L1  H     9    26       P1  7948  0.65
      L1  H    17    39       P1  7957  0.53

> <Gold.Chemscore.Hbond.Weighted>
-7.1315

> <Gold.Chemscore.Metal.Weighted>
-0.0000

> <Gold.Chemscore.Lipo.Weighted>
-9.3961

> <Gold.Chemscore.Internal_Hbond.Weighted>
0.0000

> <Gold.Chemscore.DEClash.Weighted>
0.1968

> <Gold.Chemscore.DEInternal.Weighted>
3.4638

> <Gold.Chemscore.Rot.Weighted>
4.4387

> <Gold.Chemscore.Internal.Correction.Weighted>
   9.000000E+99

> <Gold.Protein.RotatedTorsions>
[ 6907 6896 6895 6894 ] final  -33.51 input  -60.11 | X-H torsion
[ 7974 7965 7964 7962 ] final -162.46 input  175.53 | X-H torsion
[ 8008 7997 7996 7995 ] final    0.78 input   59.86 | X-H torsion
[ 10167 10162 10161 10158 ] final   93.52 input  -65.29 | X-H torsion
[ 10718 10713 10712 10709 ] final -174.97 input   66.30 | X-H torsion
[ 10763 10752 10751 10750 ] final  -65.85 input  -60.55 | X-H torsion
[ 11005 11000 10999 10996 ] final   57.03 input  -57.11 | X-H torsion

> <Gold.Protein.ActiveResidues>
 VAL166  LYS551  ARG553  GLY616  TRP617  ASP618  TYR619  PRO620  LYS621  CYS622 
 ASP623  PHE694  ASN695  SER759  ASP760  ASP761  ALA762  ILE779  LEU786  VAL792 
 PHE793  MET794  SER795  GLU796  ALA797  LYS798  CYS799  TRP800  GLU811  SER814 

> <Gold.Protein.RotatedAtoms>
  151.0647  134.9759  159.8278 H   0  0  0  0  0  0  0  0  0  0  0  0  # atno 6907 bound_to 6896
  152.5400  134.2374  159.8858 H   0  0  0  0  0  0  0  0  0  0  0  0  # atno 6908 bound_to 6896
  151.2395  133.4364  159.2640 H   0  0  0  0  0  0  0  0  0  0  0  0  # atno 6909 bound_to 6896
  144.7357  140.3250  143.6164 H   0  0  0  0  0  0  0  0  0  0  0  0  # atno 7974 bound_to 7965
  154.6721  140.2614  155.6996 H   0  0  0  0  0  0  0  0  0  0  0  0  # atno 8008 bound_to 7997
  156.2663  140.2827  156.1156 H   0  0  0  0  0  0  0  0  0  0  0  0  # atno 8009 bound_to 7997
  155.1153  140.0376  157.2725 H   0  0  0  0  0  0  0  0  0  0  0  0  # atno 8010 bound_to 7997
  139.8172  144.6747  150.9565 H   0  0  0  0  0  0  0  0  0  0  0  0  # atno 10167 bound_to 10162
  156.7929  130.9524  151.3120 H   0  0  0  0  0  0  0  0  0  0  0  0  # atno 10718 bound_to 10713
  154.3511  135.6136  153.5643 H   0  0  0  0  0  0  0  0  0  0  0  0  # atno 10763 bound_to 10752
  152.9798  135.5792  154.4742 H   0  0  0  0  0  0  0  0  0  0  0  0  # atno 10764 bound_to 10752
  154.4464  135.2851  155.1789 H   0  0  0  0  0  0  0  0  0  0  0  0  # atno 10765 bound_to 10752
  140.0484  134.5773  155.9294 H   0  0  0  0  0  0  0  0  0  0  0  0  # atno 11005 bound_to 11000
  145.7530  139.1800  143.2310 LP  0  0  0  0  0  0  0  0  0  0  0  0  # atno 17320 bound_to 7965
  146.1046  140.7503  142.9533 LP  0  0  0  0  0  0  0  0  0  0  0  0  # atno 17321 bound_to 7965
  140.7815  143.4127  151.0967 LP  0  0  0  0  0  0  0  0  0  0  0  0  # atno 17342 bound_to 10162
  139.7790  143.8383  152.3134 LP  0  0  0  0  0  0  0  0  0  0  0  0  # atno 17343 bound_to 10162
  157.6591  130.8951  149.9792 LP  0  0  0  0  0  0  0  0  0  0  0  0  # atno 17370 bound_to 10713
  156.1148  130.3648  149.9987 LP  0  0  0  0  0  0  0  0  0  0  0  0  # atno 17371 bound_to 10713
  141.1918  133.6573  156.5474 LP  0  0  0  0  0  0  0  0  0  0  0  0  # atno 17394 bound_to 11000
  140.3957  134.7401  157.4749 LP  0  0  0  0  0  0  0  0  0  0  0  0  # atno 17395 bound_to 11000

$$$$
