AV-unprocessed.smi:725|AV-procd|sdf|3508|dock1
  -GOLD-   22720 0503D 1   1.00000     0.00000
 Structure written by MMmdl.
 47 48  0  0  0  0  0  0  0  0  1 V2000
  148.7432  141.4612  153.9268 C   0  0  0  0  0  0  0  0  0  0  0  0
  149.3955  140.1368  154.3388 C   0  0  0  0  0  0  0  0  0  0  0  0
  150.5526  140.3391  155.3365 C   0  0  0  0  0  0  0  0  0  0  0  0
  151.6890  139.2863  155.2676 C   0  0  1  0  0  0  0  0  0  0  0  0
  151.4313  138.2083  154.1955 C   0  0  0  0  0  0  0  0  0  0  0  0
  152.8862  139.9525  154.9162 O   0  0  0  0  0  0  0  0  0  0  0  0
  151.9539  138.6573  156.6579 C   0  0  0  0  0  0  0  0  0  0  0  0
  152.1259  139.6538  157.7120 N   0  0  0  0  0  0  0  0  0  0  0  0
  153.1913  139.7578  158.5222 C   0  0  0  0  0  0  0  0  0  0  0  0
  154.1749  139.0206  158.4521 O   0  0  0  0  0  0  0  0  0  0  0  0
  153.1211  140.8786  159.5263 C   0  0  0  0  0  0  0  0  0  0  0  0
  152.3759  142.0400  159.2154 C   0  0  0  0  0  0  0  0  0  0  0  0
  152.2638  143.0695  160.1662 C   0  0  0  0  0  0  0  0  0  0  0  0
  152.8985  142.8985  161.4079 C   0  0  0  0  0  0  0  0  0  0  0  0
  153.6110  141.7994  161.7258 N   0  0  0  0  0  0  0  0  0  0  0  0
  153.7291  140.8010  160.8149 C   0  0  0  0  0  0  0  0  0  0  0  0
  154.5216  139.6978  161.1909 N   0  0  0  0  0  0  0  0  0  0  0  0
  153.9154  138.3729  161.1130 C   0  0  0  0  0  0  0  0  0  0  0  0
  154.9943  137.2949  161.3122 C   0  0  0  0  0  0  0  0  0  0  0  0
  155.6683  137.5156  162.5483 O   0  0  0  0  0  0  0  0  0  0  0  0
  156.3185  138.7830  162.5864 C   0  0  0  0  0  0  0  0  0  0  0  0
  155.2784  139.9038  162.4197 C   0  0  0  0  0  0  0  0  0  0  0  0
  147.9266  141.2900  153.2251 H   0  0  0  0  0  0  0  0  0  0  0  0
  149.4635  142.1214  153.4431 H   0  0  0  0  0  0  0  0  0  0  0  0
  148.3346  141.9848  154.7914 H   0  0  0  0  0  0  0  0  0  0  0  0
  148.6311  139.4944  154.7755 H   0  0  0  0  0  0  0  0  0  0  0  0
  149.7553  139.6280  153.4442 H   0  0  0  0  0  0  0  0  0  0  0  0
  150.9803  141.3305  155.1776 H   0  0  0  0  0  0  0  0  0  0  0  0
  150.1342  140.3554  156.3436 H   0  0  0  0  0  0  0  0  0  0  0  0
  150.4724  137.7134  154.3507 H   0  0  0  0  0  0  0  0  0  0  0  0
  152.2049  137.4398  154.2150 H   0  0  0  0  0  0  0  0  0  0  0  0
  151.4230  138.6279  153.1894 H   0  0  0  0  0  0  0  0  0  0  0  0
  152.6663  140.8085  154.5811 H   0  0  0  0  0  0  0  0  0  0  0  0
  151.1585  137.9568  156.9195 H   0  0  0  0  0  0  0  0  0  0  0  0
  152.8691  138.0649  156.6261 H   0  0  0  0  0  0  0  0  0  0  0  0
  151.3728  140.3144  157.8372 H   0  0  0  0  0  0  0  0  0  0  0  0
  151.8804  142.1437  158.2606 H   0  0  0  0  0  0  0  0  0  0  0  0
  151.6987  143.9644  159.9514 H   0  0  0  0  0  0  0  0  0  0  0  0
  152.8330  143.6642  162.1667 H   0  0  0  0  0  0  0  0  0  0  0  0
  153.1476  138.2721  161.8813 H   0  0  0  0  0  0  0  0  0  0  0  0
  153.4294  138.2426  160.1454 H   0  0  0  0  0  0  0  0  0  0  0  0
  154.5385  136.3050  161.3266 H   0  0  0  0  0  0  0  0  0  0  0  0
  155.7104  137.3048  160.4888 H   0  0  0  0  0  0  0  0  0  0  0  0
  156.8365  138.8887  163.5395 H   0  0  0  0  0  0  0  0  0  0  0  0
  157.0765  138.8385  161.8034 H   0  0  0  0  0  0  0  0  0  0  0  0
  155.7762  140.8736  162.4118 H   0  0  0  0  0  0  0  0  0  0  0  0
  154.5905  139.9053  163.2660 H   0  0  0  0  0  0  0  0  0  0  0  0
  1  2  1  0  0  0  0
  1 23  1  0  0  0  0
  1 24  1  0  0  0  0
  1 25  1  0  0  0  0
  2  3  1  0  0  0  0
  2 26  1  0  0  0  0
  2 27  1  0  0  0  0
  3  4  1  0  0  0  0
  3 28  1  0  0  0  0
  3 29  1  0  0  0  0
  4  5  1  0  0  0  0
  4  6  1  0  0  0  0
  4  7  1  0  0  0  0
  5 30  1  0  0  0  0
  5 31  1  0  0  0  0
  5 32  1  0  0  0  0
  6 33  1  0  0  0  0
  7  8  1  0  0  0  0
  7 34  1  0  0  0  0
  7 35  1  0  0  0  0
  8  9  1  0  0  0  0
  8 36  1  0  0  0  0
  9 10  2  0  0  0  0
  9 11  1  0  0  0  0
 11 16  1  0  0  0  0
 11 12  2  0  0  0  0
 12 13  1  0  0  0  0
 12 37  1  0  0  0  0
 13 14  2  0  0  0  0
 13 38  1  0  0  0  0
 14 15  1  0  0  0  0
 14 39  1  0  0  0  0
 15 16  2  0  0  0  0
 16 17  1  0  0  0  0
 17 22  1  0  0  0  0
 17 18  1  0  0  0  0
 18 19  1  0  0  0  0
 18 40  1  0  0  0  0
 18 41  1  0  0  0  0
 19 20  1  0  0  0  0
 19 42  1  0  0  0  0
 19 43  1  0  0  0  0
 20 21  1  0  0  0  0
 21 22  1  0  0  0  0
 21 44  1  0  0  0  0
 21 45  1  0  0  0  0
 22 46  1  0  0  0  0
 22 47  1  0  0  0  0
M  END
> <s_m_source_file>
AV-unprocessed.smi

> <i_m_source_file_index>
725

> <i_lp_mmshare_version>
43012

> <i_f3d_flags>
0

> <s_epik_input>
W0NIM11bQ0gyXVtDSDJdW0NAQF0oW0NIM10pKFtPSF0pW0NIMl1bTkhdQyg9TyljMVtjSF1bY0hdW2NIXW5jMU4yW0NIMl1bQ0gyXU9bQ0gyXVtDSDJdMg==

> <s_epik_cmdline>
J2VwaWtfcHl0aG9uJywgJy1waCcsICc3LjAnLCAnLXRuJywgJzgnLCAnLW1hJywgJzIwMCcsICctbWV0YWxfYmluZGluZycsICctaW1hZScsICc8aW5maWxlLm1hZT4nLCAnLW9tYWUnLCAnPG91dGZpbGUubWFlPic=

> <r_lp_tautomer_probability>
1

> <r_epik_Ionization_Penalty>
1.23446e-05

> <r_epik_Ionization_Penalty_Charging>
0

> <r_epik_Ionization_Penalty_Neutral>
1.23446e-05

> <r_epik_State_Penalty>
-0

> <r_epik_Charging_Adjusted_Penalty>
0

> <i_epik_Tot_Q>
0

> <i_epik_Tot_abs_Q>
0

> <r_epik_Metal_State_Penalty>
-0

> <b_epik_Metal_Only>
0

> <s_lp_Force_Field>
OPLS_2005

> <r_lp_Energy>
26.7516

> <b_lp_Chiralities_Consistent>
1

> <s_lp_Variant>
AV-unprocessed.smi:725-1

> <Gold.Version>
5.8.1

> <Gold.Id.Protein>
6NUR|6NUR_protein|mol2

> <Gold.PLP.Fitness>
44.1435

> <Gold.PLP.PLP>
-41.4331

> <Gold.PLP.part.hbond>
-3.0000

> <Gold.PLP.part.metal>
0.0000

> <Gold.PLP.part.buried>
-3.3810

> <Gold.PLP.part.nonpolar>
-34.3549

> <Gold.PLP.part.repulsive>
0.0933

> <Gold.PLP.ligand.clash>
0.0000

> <Gold.PLP.ligand.torsion>
1.8733

> <Gold.PLP.Chemscore.Hbond>
2.0000

> <Gold.PLP.Chemscore.CHOScore>
0.0000

> <Gold.PLP.Chemscore.Metal>
0.0000

> <Gold.Chemscore.Hbonds>
donor molecule, donor type, donor heavy atom, donor atom, acceptor molecule, acceptor atom, score
      P1  H  7997  8009       L1    10  0.90
      P1  H  7997  8010       L1     6  1.00

> <Gold.PLP.Chemscore.Internal.Correction>
0.4570

> <Gold.Rescore>
     Score         DG    S(hbond)    S(metal)    S(lipo)     H(rot)  DE(clash)    DE(int)     intcor
     12.27     -16.71       1.54        0.00      99.85       2.19       0.13       4.31       ----

> <Gold.Chemscore.Fitness>
12.2677

> <Gold.Chemscore.DG>
-16.7060

> <Gold.Chemscore.ZeroCoef>
-5.4800

> <Gold.Chemscore.Hbond>
1.5443

> <Gold.Chemscore.Metal>
0.0000

> <Gold.Chemscore.Lipo>
99.8545

> <Gold.Chemscore.Internal_Hbond>
0.0000

> <Gold.Chemscore.DEClash>
0.1298

> <Gold.Chemscore.DEInternal>
4.3085

> <Gold.Chemscore.Rot>
2.1933

> <Gold.Chemscore.Internal.Correction>
   9.000000E+99

> <Gold.Chemscore.Hbonds>
donor molecule, donor type, donor heavy atom, donor atom, acceptor molecule, acceptor atom, score
      P1  H  7997  8009       L1    10  0.17
      P1  H  7997  8010       L1     6  0.40

> <Gold.Chemscore.Hbond.Weighted>
-5.1579

> <Gold.Chemscore.Metal.Weighted>
-0.0000

> <Gold.Chemscore.Lipo.Weighted>
-11.6830

> <Gold.Chemscore.Internal_Hbond.Weighted>
0.0000

> <Gold.Chemscore.DEClash.Weighted>
0.1298

> <Gold.Chemscore.DEInternal.Weighted>
4.3085

> <Gold.Chemscore.Rot.Weighted>
5.6149

> <Gold.Chemscore.Internal.Correction.Weighted>
   9.000000E+99

> <Gold.Protein.RotatedTorsions>
[ 6907 6896 6895 6894 ] final  -53.37 input  -60.11 | X-H torsion
[ 7974 7965 7964 7962 ] final  179.06 input  175.53 | X-H torsion
[ 8008 7997 7996 7995 ] final  115.97 input   59.86 | X-H torsion
[ 10167 10162 10161 10158 ] final -166.00 input  -65.29 | X-H torsion
[ 10718 10713 10712 10709 ] final  -84.93 input   66.30 | X-H torsion
[ 10763 10752 10751 10750 ] final  155.62 input  -60.55 | X-H torsion
[ 11005 11000 10999 10996 ] final   43.20 input  -57.11 | X-H torsion

> <Gold.Protein.ActiveResidues>
 VAL166  LYS551  ARG553  GLY616  TRP617  ASP618  TYR619  PRO620  LYS621  CYS622 
 ASP623  PHE694  ASN695  SER759  ASP760  ASP761  ALA762  ILE779  LEU786  VAL792 
 PHE793  MET794  SER795  GLU796  ALA797  LYS798  CYS799  TRP800  GLU811  SER814 

> <Gold.Protein.RotatedAtoms>
  150.8433  134.7732  159.6949 H   0  0  0  0  0  0  0  0  0  0  0  0  # atno 6907 bound_to 6896
  152.4515  134.5379  159.9840 H   0  0  0  0  0  0  0  0  0  0  0  0  # atno 6908 bound_to 6896
  151.5515  133.3379  159.2989 H   0  0  0  0  0  0  0  0  0  0  0  0  # atno 6909 bound_to 6896
  144.7149  140.0491  143.6435 H   0  0  0  0  0  0  0  0  0  0  0  0  # atno 7974 bound_to 7965
  156.2412  140.2927  156.0450 H   0  0  0  0  0  0  0  0  0  0  0  0  # atno 8008 bound_to 7997
  155.1944  140.0408  157.2923 H   0  0  0  0  0  0  0  0  0  0  0  0  # atno 8009 bound_to 7997
  154.6172  140.2467  155.7601 H   0  0  0  0  0  0  0  0  0  0  0  0  # atno 8010 bound_to 7997
  139.6144  144.0750  152.1873 H   0  0  0  0  0  0  0  0  0  0  0  0  # atno 10167 bound_to 10162
  156.0001  130.4714  150.4485 H   0  0  0  0  0  0  0  0  0  0  0  0  # atno 10718 bound_to 10713
  154.1712  135.2804  155.3080 H   0  0  0  0  0  0  0  0  0  0  0  0  # atno 10763 bound_to 10752
  154.6074  135.5510  153.7440 H   0  0  0  0  0  0  0  0  0  0  0  0  # atno 10764 bound_to 10752
  153.0164  135.6407  154.1852 H   0  0  0  0  0  0  0  0  0  0  0  0  # atno 10765 bound_to 10752
  140.1667  134.4273  155.8283 H   0  0  0  0  0  0  0  0  0  0  0  0  # atno 11005 bound_to 11000
  145.9959  139.3052  143.0957 LP  0  0  0  0  0  0  0  0  0  0  0  0  # atno 17320 bound_to 7965
  145.8849  140.9340  143.0582 LP  0  0  0  0  0  0  0  0  0  0  0  0  # atno 17321 bound_to 7965
  140.0376  144.6032  150.7437 LP  0  0  0  0  0  0  0  0  0  0  0  0  # atno 17342 bound_to 10162
  140.7341  143.2725  151.3845 LP  0  0  0  0  0  0  0  0  0  0  0  0  # atno 17343 bound_to 10162
  157.2520  131.0548  151.2373 LP  0  0  0  0  0  0  0  0  0  0  0  0  # atno 17370 bound_to 10713
  157.3519  130.7086  149.6446 LP  0  0  0  0  0  0  0  0  0  0  0  0  # atno 17371 bound_to 10713
  141.2214  133.6937  156.7690 LP  0  0  0  0  0  0  0  0  0  0  0  0  # atno 17394 bound_to 11000
  140.2426  134.8602  157.3588 LP  0  0  0  0  0  0  0  0  0  0  0  0  # atno 17395 bound_to 11000

$$$$
