AV-unprocessed.smi:2490|AV-procd|sdf|9807|dock5
  -GOLD-   2272013443D 1   1.00000     0.00000
 Structure written by MMmdl.
 33 34  0  0  0  0  0  0  0  0  1 V2000
  146.3972  141.5795  154.4323 C   0  0  0  0  0  0  0  0  0  0  0  0
  147.5092  140.7818  154.9253 N   0  0  0  0  0  0  0  0  0  0  0  0
  148.7940  140.9910  154.6017 C   0  0  0  0  0  0  0  0  0  0  0  0
  149.1546  141.8974  153.8495 O   0  0  0  0  0  0  0  0  0  0  0  0
  149.8207  140.0456  155.2413 C   0  0  2  0  0  0  0  0  0  0  0  0
  150.6546  140.7310  156.3474 C   0  0  0  0  0  0  0  0  0  0  0  0
  151.6737  139.8219  156.8557 N   0  0  0  0  0  0  0  0  0  0  0  0
  152.3094  140.1917  158.0258 C   0  0  0  0  0  0  0  0  0  0  0  0
  153.3831  139.4838  158.3970 N   0  0  0  0  0  0  0  0  0  0  0  0
  153.9941  139.8561  159.5424 C   0  0  0  0  0  0  0  0  0  0  0  0
  153.5245  140.9392  160.3135 C   0  0  0  0  0  0  0  0  0  0  0  0
  154.2106  141.3555  161.5969 C   0  0  0  0  0  0  0  0  0  0  0  0
  152.3849  141.6097  159.8221 C   0  0  0  0  0  0  0  0  0  0  0  0
  151.7790  141.2311  158.6761 N   0  0  0  0  0  0  0  0  0  0  0  0
  152.5140  139.2780  155.7983 C   0  0  0  0  0  0  0  0  0  0  0  0
  151.6425  138.6227  154.7150 C   0  0  0  0  0  0  0  0  0  0  0  0
  150.7017  139.5711  154.2220 O   0  0  0  0  0  0  0  0  0  0  0  0
  145.4618  141.2135  154.8554 H   0  0  0  0  0  0  0  0  0  0  0  0
  146.3274  141.5176  153.3455 H   0  0  0  0  0  0  0  0  0  0  0  0
  146.5134  142.6263  154.7159 H   0  0  0  0  0  0  0  0  0  0  0  0
  147.2922  140.0179  155.5493 H   0  0  0  0  0  0  0  0  0  0  0  0
  149.2723  139.2013  155.6632 H   0  0  0  0  0  0  0  0  0  0  0  0
  151.1367  141.6297  155.9593 H   0  0  0  0  0  0  0  0  0  0  0  0
  150.0080  141.0417  157.1696 H   0  0  0  0  0  0  0  0  0  0  0  0
  154.8606  139.2861  159.8436 H   0  0  0  0  0  0  0  0  0  0  0  0
  153.6864  142.1852  162.0722 H   0  0  0  0  0  0  0  0  0  0  0  0
  155.2345  141.6692  161.3930 H   0  0  0  0  0  0  0  0  0  0  0  0
  154.2381  140.5216  162.2985 H   0  0  0  0  0  0  0  0  0  0  0  0
  151.9561  142.4511  160.3467 H   0  0  0  0  0  0  0  0  0  0  0  0
  153.1146  140.0789  155.3649 H   0  0  0  0  0  0  0  0  0  0  0  0
  153.2063  138.5457  156.2158 H   0  0  0  0  0  0  0  0  0  0  0  0
  152.2647  138.2777  153.8893 H   0  0  0  0  0  0  0  0  0  0  0  0
  151.1218  137.7489  155.1099 H   0  0  0  0  0  0  0  0  0  0  0  0
  1  2  1  0  0  0  0
  1 18  1  0  0  0  0
  1 19  1  0  0  0  0
  1 20  1  0  0  0  0
  2  3  1  0  0  0  0
  2 21  1  0  0  0  0
  3  4  2  0  0  0  0
  3  5  1  0  0  0  0
  5 17  1  0  0  0  0
  5  6  1  0  0  0  0
  5 22  1  0  0  0  0
  6  7  1  0  0  0  0
  6 23  1  0  0  0  0
  6 24  1  0  0  0  0
  7  8  1  0  0  0  0
  7 15  1  0  0  0  0
  8 14  1  0  0  0  0
  8  9  2  0  0  0  0
  9 10  1  0  0  0  0
 10 11  2  0  0  0  0
 10 25  1  0  0  0  0
 11 12  1  0  0  0  0
 11 13  1  0  0  0  0
 12 26  1  0  0  0  0
 12 27  1  0  0  0  0
 12 28  1  0  0  0  0
 13 14  2  0  0  0  0
 13 29  1  0  0  0  0
 15 16  1  0  0  0  0
 15 30  1  0  0  0  0
 15 31  1  0  0  0  0
 16 17  1  0  0  0  0
 16 32  1  0  0  0  0
 16 33  1  0  0  0  0
M  END
> <s_m_source_file>
AV-unprocessed.smi

> <i_m_source_file_index>
2490

> <i_lp_mmshare_version>
43012

> <i_f3d_flags>
0

> <s_epik_input>
W0NIM11bTkhdQyg9TylbQ0BASF0xW0NIMl1OKFtDSDJdW0NIMl1PMSljMm5bY0hdYyhbQ0gzXSlbY0hdbjI=

> <s_epik_cmdline>
J2VwaWtfcHl0aG9uJywgJy1waCcsICc3LjAnLCAnLXRuJywgJzgnLCAnLW1hJywgJzIwMCcsICctbWV0YWxfYmluZGluZycsICctaW1hZScsICc8aW5maWxlLm1hZT4nLCAnLW9tYWUnLCAnPG91dGZpbGUubWFlPic=

> <r_lp_tautomer_probability>
1

> <r_epik_Ionization_Penalty>
8.72552e-06

> <r_epik_Ionization_Penalty_Charging>
0

> <r_epik_Ionization_Penalty_Neutral>
8.72552e-06

> <r_epik_State_Penalty>
-0

> <r_epik_Charging_Adjusted_Penalty>
0

> <i_epik_Tot_Q>
0

> <i_epik_Tot_abs_Q>
0

> <r_epik_Metal_State_Penalty>
-0

> <b_epik_Metal_Only>
0

> <s_lp_Force_Field>
OPLS_2005

> <r_lp_Energy>
12.5382

> <b_lp_Chiralities_Consistent>
1

> <s_lp_Variant>
AV-unprocessed.smi:2490-1

> <Gold.Version>
5.8.1

> <Gold.Id.Protein>
6NUR|6NUR_protein|mol2

> <Gold.PLP.Fitness>
36.4908

> <Gold.PLP.PLP>
-29.9737

> <Gold.PLP.part.hbond>
-3.6955

> <Gold.PLP.part.metal>
0.0000

> <Gold.PLP.part.buried>
-0.6218

> <Gold.PLP.part.nonpolar>
-25.1860

> <Gold.PLP.part.repulsive>
0.4075

> <Gold.PLP.ligand.clash>
0.0000

> <Gold.PLP.ligand.torsion>
0.7247

> <Gold.PLP.Chemscore.Hbond>
2.5600

> <Gold.PLP.Chemscore.CHOScore>
0.0000

> <Gold.PLP.Chemscore.Metal>
0.0000

> <Gold.Chemscore.Hbonds>
donor molecule, donor type, donor heavy atom, donor atom, acceptor molecule, acceptor atom, score
      P1  H  7989  7998       L1    17  1.00
      P1  H  7997  8010       L1     9  1.00
      P1  H  8011  8017       L1     4  0.51

> <Gold.PLP.Chemscore.Internal.Correction>
0.2866

> <Gold.Rescore>
     Score         DG    S(hbond)    S(metal)    S(lipo)     H(rot)  DE(clash)    DE(int)     intcor
     14.56     -16.54       1.91        0.00      68.74       1.31       1.28       0.70       ----

> <Gold.Chemscore.Fitness>
14.5625

> <Gold.Chemscore.DG>
-16.5438

> <Gold.Chemscore.ZeroCoef>
-5.4800

> <Gold.Chemscore.Hbond>
1.9079

> <Gold.Chemscore.Metal>
0.0000

> <Gold.Chemscore.Lipo>
68.7388

> <Gold.Chemscore.Internal_Hbond>
0.0000

> <Gold.Chemscore.DEClash>
1.2784

> <Gold.Chemscore.DEInternal>
0.7029

> <Gold.Chemscore.Rot>
1.3089

> <Gold.Chemscore.Internal.Correction>
   9.000000E+99

> <Gold.Chemscore.Hbonds>
donor molecule, donor type, donor heavy atom, donor atom, acceptor molecule, acceptor atom, score
      P1  H  7989  7998       L1    17  0.51
      P1  H  7997  8010       L1     9  0.10
      P1  H  8011  8017       L1     4  0.50

> <Gold.Chemscore.Hbond.Weighted>
-6.3722

> <Gold.Chemscore.Metal.Weighted>
-0.0000

> <Gold.Chemscore.Lipo.Weighted>
-8.0424

> <Gold.Chemscore.Internal_Hbond.Weighted>
0.0000

> <Gold.Chemscore.DEClash.Weighted>
1.2784

> <Gold.Chemscore.DEInternal.Weighted>
0.7029

> <Gold.Chemscore.Rot.Weighted>
3.3509

> <Gold.Chemscore.Internal.Correction.Weighted>
   9.000000E+99

> <Gold.Protein.RotatedTorsions>
[ 6907 6896 6895 6894 ] final -144.32 input  -60.11 | X-H torsion
[ 7974 7965 7964 7962 ] final -127.84 input  175.53 | X-H torsion
[ 8008 7997 7996 7995 ] final   30.17 input   59.86 | X-H torsion
[ 10167 10162 10161 10158 ] final   32.28 input  -65.29 | X-H torsion
[ 10718 10713 10712 10709 ] final  118.16 input   66.30 | X-H torsion
[ 10763 10752 10751 10750 ] final   60.66 input  -60.55 | X-H torsion
[ 11005 11000 10999 10996 ] final   12.25 input  -57.11 | X-H torsion

> <Gold.Protein.ActiveResidues>
 VAL166  LYS551  ARG553  GLY616  TRP617  ASP618  TYR619  PRO620  LYS621  CYS622 
 ASP623  PHE694  ASN695  SER759  ASP760  ASP761  ALA762  ILE779  LEU786  VAL792 
 PHE793  MET794  SER795  GLU796  ALA797  LYS798  CYS799  TRP800  GLU811  SER814 

> <Gold.Protein.RotatedAtoms>
  151.1125  133.5163  159.2604 H   0  0  0  0  0  0  0  0  0  0  0  0  # atno 6907 bound_to 6896
  151.1951  135.0419  159.8859 H   0  0  0  0  0  0  0  0  0  0  0  0  # atno 6908 bound_to 6896
  152.5451  134.0960  159.8351 H   0  0  0  0  0  0  0  0  0  0  0  0  # atno 6909 bound_to 6896
  144.9730  140.7565  143.4659 H   0  0  0  0  0  0  0  0  0  0  0  0  # atno 7974 bound_to 7965
  155.0862  140.3215  155.4587 H   0  0  0  0  0  0  0  0  0  0  0  0  # atno 8008 bound_to 7997
  156.2754  140.2086  156.5936 H   0  0  0  0  0  0  0  0  0  0  0  0  # atno 8009 bound_to 7997
  154.6939  140.0513  157.0378 H   0  0  0  0  0  0  0  0  0  0  0  0  # atno 8010 bound_to 7997
  140.4513  144.1044  150.6192 H   0  0  0  0  0  0  0  0  0  0  0  0  # atno 10167 bound_to 10162
  157.6049  131.1045  150.7717 H   0  0  0  0  0  0  0  0  0  0  0  0  # atno 10718 bound_to 10713
  152.9927  135.5528  154.5909 H   0  0  0  0  0  0  0  0  0  0  0  0  # atno 10763 bound_to 10752
  154.5271  135.2811  155.1215 H   0  0  0  0  0  0  0  0  0  0  0  0  # atno 10764 bound_to 10752
  154.2545  135.6392  153.5305 H   0  0  0  0  0  0  0  0  0  0  0  0  # atno 10765 bound_to 10752
  140.4941  134.0811  155.7778 H   0  0  0  0  0  0  0  0  0  0  0  0  # atno 11005 bound_to 11000
  145.2531  139.2023  143.4932 LP  0  0  0  0  0  0  0  0  0  0  0  0  # atno 17320 bound_to 7965
  146.3387  140.2447  142.8596 LP  0  0  0  0  0  0  0  0  0  0  0  0  # atno 17321 bound_to 7965
  140.4204  143.2614  151.9723 LP  0  0  0  0  0  0  0  0  0  0  0  0  # atno 17342 bound_to 10162
  139.4797  144.5836  151.7891 LP  0  0  0  0  0  0  0  0  0  0  0  0  # atno 17343 bound_to 10162
  156.8107  130.4951  149.5356 LP  0  0  0  0  0  0  0  0  0  0  0  0  # atno 17370 bound_to 10713
  156.1132  130.6056  151.0080 LP  0  0  0  0  0  0  0  0  0  0  0  0  # atno 17371 bound_to 10713
  141.1469  133.9039  157.2193 LP  0  0  0  0  0  0  0  0  0  0  0  0  # atno 17394 bound_to 11000
  139.9752  135.0116  156.9613 LP  0  0  0  0  0  0  0  0  0  0  0  0  # atno 17395 bound_to 11000

$$$$
