AV-unprocessed.smi:1944|AV-procd|sdf|7854|dock6
  -GOLD-   2272010 03D 1   1.00000     0.00000
 Structure written by MMmdl.
 46 47  0  0  0  0  0  0  0  0  2 V2000
  151.7379  138.2358  154.4501 C   0  0  0  0  0  0  0  0  0  0  0  0
  150.3612  138.2319  154.0877 O   0  0  0  0  0  0  0  0  0  0  0  0
  149.6315  139.3933  154.2569 C   0  0  0  0  0  0  0  0  0  0  0  0
  150.2498  140.4694  154.8050 N   0  0  0  0  0  0  0  0  0  0  0  0
  149.5402  141.6049  154.9681 C   0  0  0  0  0  0  0  0  0  0  0  0
  148.1908  141.7310  154.5908 C   0  0  0  0  0  0  0  0  0  0  0  0
  147.5472  140.6164  154.0226 C   0  0  0  0  0  0  0  0  0  0  0  0
  148.2740  139.4122  153.8595 C   0  0  0  0  0  0  0  0  0  0  0  0
  147.7233  138.2377  153.2767 N   0  0  0  0  0  0  0  0  0  0  0  0
  146.4328  137.9605  153.0252 C   0  0  0  0  0  0  0  0  0  0  0  0
  145.4801  138.6884  153.3050 O   0  0  0  0  0  0  0  0  0  0  0  0
  146.2955  136.7616  152.4411 N   0  0  0  0  0  0  0  0  0  0  0  0
  145.0228  136.1774  152.0339 C   0  0  0  0  0  0  0  0  0  0  0  0
  145.0233  135.8134  150.5359 C   0  0  0  0  0  0  0  0  0  0  0  0
  144.9761  134.3472  150.2862 N   0  3  1  0  0  0  0  0  0  0  0  0
  146.0980  133.6313  150.9520 C   0  0  0  0  0  0  0  0  0  0  0  0
  146.1672  132.1611  150.5095 C   0  0  0  0  0  0  0  0  0  0  0  0
  144.8368  131.4455  150.7660 C   0  0  0  0  0  0  0  0  0  0  0  0
  143.6947  132.2121  150.0853 C   0  0  0  0  0  0  0  0  0  0  0  0
  143.6480  133.6938  150.5167 C   0  0  1  0  0  0  0  0  0  0  0  0
  143.1119  133.8651  151.9547 C   0  0  0  0  0  0  0  0  0  0  0  0
  152.1619  137.2494  154.2640 H   0  0  0  0  0  0  0  0  0  0  0  0
  151.8714  138.4577  155.5099 H   0  0  0  0  0  0  0  0  0  0  0  0
  152.3050  138.9562  153.8588 H   0  0  0  0  0  0  0  0  0  0  0  0
  150.0661  142.4404  155.4059 H   0  0  0  0  0  0  0  0  0  0  0  0
  147.6630  142.6630  154.7293 H   0  0  0  0  0  0  0  0  0  0  0  0
  146.5188  140.7104  153.7098 H   0  0  0  0  0  0  0  0  0  0  0  0
  148.3866  137.5016  153.0830 H   0  0  0  0  0  0  0  0  0  0  0  0
  147.1290  136.2237  152.2526 H   0  0  0  0  0  0  0  0  0  0  0  0
  144.8238  135.3072  152.6597 H   0  0  0  0  0  0  0  0  0  0  0  0
  144.2333  136.9000  152.2422 H   0  0  0  0  0  0  0  0  0  0  0  0
  144.1408  136.2685  150.0839 H   0  0  0  0  0  0  0  0  0  0  0  0
  145.8774  136.2557  150.0228 H   0  0  0  0  0  0  0  0  0  0  0  0
  147.0423  134.1154  150.7003 H   0  0  0  0  0  0  0  0  0  0  0  0
  145.9959  133.6995  152.0355 H   0  0  0  0  0  0  0  0  0  0  0  0
  146.4111  132.1096  149.4475 H   0  0  0  0  0  0  0  0  0  0  0  0
  146.9731  131.6502  151.0373 H   0  0  0  0  0  0  0  0  0  0  0  0
  144.8808  130.4238  150.3877 H   0  0  0  0  0  0  0  0  0  0  0  0
  144.6542  131.3706  151.8384 H   0  0  0  0  0  0  0  0  0  0  0  0
  143.8286  132.1586  149.0039 H   0  0  0  0  0  0  0  0  0  0  0  0
  142.7412  131.7258  150.2940 H   0  0  0  0  0  0  0  0  0  0  0  0
  142.9245  134.1662  149.8539 H   0  0  0  0  0  0  0  0  0  0  0  0
  142.1608  133.3456  152.0733 H   0  0  0  0  0  0  0  0  0  0  0  0
  142.9261  134.9113  152.1966 H   0  0  0  0  0  0  0  0  0  0  0  0
  143.7938  133.4643  152.7041 H   0  0  0  0  0  0  0  0  0  0  0  0
  145.1546  134.2425  149.2975 H   0  0  0  0  0  0  0  0  0  0  0  0
  1  2  1  0  0  0  0
  1 22  1  0  0  0  0
  1 23  1  0  0  0  0
  1 24  1  0  0  0  0
  2  3  1  0  0  0  0
  3  8  1  0  0  0  0
  3  4  2  0  0  0  0
  4  5  1  0  0  0  0
  5  6  2  0  0  0  0
  5 25  1  0  0  0  0
  6  7  1  0  0  0  0
  6 26  1  0  0  0  0
  7  8  2  0  0  0  0
  7 27  1  0  0  0  0
  8  9  1  0  0  0  0
  9 10  1  0  0  0  0
  9 28  1  0  0  0  0
 10 11  2  0  0  0  0
 10 12  1  0  0  0  0
 12 13  1  0  0  0  0
 12 29  1  0  0  0  0
 13 14  1  0  0  0  0
 13 30  1  0  0  0  0
 13 31  1  0  0  0  0
 14 15  1  0  0  0  0
 14 32  1  0  0  0  0
 14 33  1  0  0  0  0
 15 20  1  0  0  0  0
 15 16  1  0  0  0  0
 15 46  1  0  0  0  0
 16 17  1  0  0  0  0
 16 34  1  0  0  0  0
 16 35  1  0  0  0  0
 17 18  1  0  0  0  0
 17 36  1  0  0  0  0
 17 37  1  0  0  0  0
 18 19  1  0  0  0  0
 18 38  1  0  0  0  0
 18 39  1  0  0  0  0
 19 20  1  0  0  0  0
 19 40  1  0  0  0  0
 19 41  1  0  0  0  0
 20 21  1  0  0  0  0
 20 42  1  0  0  0  0
 21 43  1  0  0  0  0
 21 44  1  0  0  0  0
 21 45  1  0  0  0  0
M  CHG  1  15   1
M  END
> <s_m_source_file>
AV-unprocessed.smi

> <i_m_source_file_index>
1944

> <i_lp_mmshare_version>
43012

> <i_f3d_flags>
0

> <s_epik_input>
W0NIM11PYzFuW2NIXVtjSF1bY0hdYzFbTkhdQyg9TylbTkhdW0NIMl1bQ0gyXU4yW0NIMl1bQ0gyXVtDSDJdW0NIMl1bQ0BIXTJbQ0gzXQ==

> <s_epik_cmdline>
J2VwaWtfcHl0aG9uJywgJy1waCcsICc3LjAnLCAnLXRuJywgJzgnLCAnLW1hJywgJzIwMCcsICctbWV0YWxfYmluZGluZycsICctaW1hZScsICc8aW5maWxlLm1hZT4nLCAnLW9tYWUnLCAnPG91dGZpbGUubWFlPic=

> <r_lp_tautomer_probability>
1

> <r_epik_Ionization_Penalty>
0.00219525

> <r_epik_Ionization_Penalty_Charging>
0.00211816

> <r_epik_Ionization_Penalty_Neutral>
7.7088e-05

> <r_epik_State_Penalty>
0.00145254

> <r_epik_Charging_Adjusted_Penalty>
0.0035707

> <i_epik_Tot_Q>
1

> <i_epik_Tot_abs_Q>
1

> <r_epik_Metal_State_Penalty>
-0

> <b_epik_Metal_Only>
0

> <s_lp_Force_Field>
OPLS_2005

> <r_lp_Energy>
22.8304

> <b_lp_Chiralities_Consistent>
1

> <s_lp_Variant>
AV-unprocessed.smi:1944-2

> <Gold.Version>
5.8.1

> <Gold.Id.Protein>
6NUR|6NUR_protein|mol2

> <Gold.PLP.Fitness>
50.2286

> <Gold.PLP.PLP>
-37.0144

> <Gold.PLP.part.hbond>
-4.0000

> <Gold.PLP.part.metal>
0.0000

> <Gold.PLP.part.buried>
-0.1129

> <Gold.PLP.part.nonpolar>
-35.6792

> <Gold.PLP.part.repulsive>
2.8641

> <Gold.PLP.ligand.clash>
0.0000

> <Gold.PLP.ligand.torsion>
0.4637

> <Gold.PLP.Chemscore.Hbond>
3.8480

> <Gold.PLP.Chemscore.CHOScore>
0.8325

> <Gold.PLP.Chemscore.Metal>
0.0000

> <Gold.Chemscore.Hbonds>
donor molecule, donor type, donor heavy atom, donor atom, acceptor molecule, acceptor atom, score
      L1  H     9    28       P1  7948  0.91
      L1  H    12    29       P1  7948  0.96
      L1  H    15    46       P1  7921  1.00
      P1  H  7989  7998       L1     4  0.98
      L1  C     5    25       P1  8028  0.71

> <Gold.PLP.Chemscore.Internal.Correction>
0.1002

> <Gold.Rescore>
     Score         DG    S(hbond)    S(metal)    S(lipo)     H(rot)  DE(clash)    DE(int)     intcor
     17.56     -22.45       2.90        0.00      99.72       1.71       2.25       2.64       ----

> <Gold.Chemscore.Fitness>
17.5634

> <Gold.Chemscore.DG>
-22.4529

> <Gold.Chemscore.ZeroCoef>
-5.4800

> <Gold.Chemscore.Hbond>
2.8998

> <Gold.Chemscore.Metal>
0.0000

> <Gold.Chemscore.Lipo>
99.7169

> <Gold.Chemscore.Internal_Hbond>
0.0000

> <Gold.Chemscore.DEClash>
2.2539

> <Gold.Chemscore.DEInternal>
2.6356

> <Gold.Chemscore.Rot>
1.7107

> <Gold.Chemscore.Internal.Correction>
   9.000000E+99

> <Gold.Chemscore.Hbonds>
donor molecule, donor type, donor heavy atom, donor atom, acceptor molecule, acceptor atom, score
      L1  H     9    28       P1  7948  0.90
      L1  H    12    29       P1  7948  0.92
      L1  H    15    46       P1  7921  0.89
      P1  H  7989  7998       L1     4  0.20

> <Gold.Chemscore.Hbond.Weighted>
-9.6854

> <Gold.Chemscore.Metal.Weighted>
-0.0000

> <Gold.Chemscore.Lipo.Weighted>
-11.6669

> <Gold.Chemscore.Internal_Hbond.Weighted>
0.0000

> <Gold.Chemscore.DEClash.Weighted>
2.2539

> <Gold.Chemscore.DEInternal.Weighted>
2.6356

> <Gold.Chemscore.Rot.Weighted>
4.3794

> <Gold.Chemscore.Internal.Correction.Weighted>
   9.000000E+99

> <Gold.Protein.RotatedTorsions>
[ 6907 6896 6895 6894 ] final   54.36 input  -60.11 | X-H torsion
[ 7974 7965 7964 7962 ] final   -5.16 input  175.53 | X-H torsion
[ 8008 7997 7996 7995 ] final   82.05 input   59.86 | X-H torsion
[ 10167 10162 10161 10158 ] final   26.63 input  -65.29 | X-H torsion
[ 10718 10713 10712 10709 ] final -143.21 input   66.30 | X-H torsion
[ 10763 10752 10751 10750 ] final  134.36 input  -60.55 | X-H torsion
[ 11005 11000 10999 10996 ] final  109.77 input  -57.11 | X-H torsion

> <Gold.Protein.ActiveResidues>
 VAL166  LYS551  ARG553  GLY616  TRP617  ASP618  TYR619  PRO620  LYS621  CYS622 
 ASP623  PHE694  ASN695  SER759  ASP760  ASP761  ALA762  ILE779  LEU786  VAL792 
 PHE793  MET794  SER795  GLU796  ALA797  LYS798  CYS799  TRP800  GLU811  SER814 

> <Gold.Protein.RotatedAtoms>
  152.3431  134.7108  160.0257 H   0  0  0  0  0  0  0  0  0  0  0  0  # atno 6907 bound_to 6896
  151.7486  133.3320  159.3393 H   0  0  0  0  0  0  0  0  0  0  0  0  # atno 6908 bound_to 6896
  150.7492  134.6145  159.6148 H   0  0  0  0  0  0  0  0  0  0  0  0  # atno 6909 bound_to 6896
  146.2358  140.1980  142.8333 H   0  0  0  0  0  0  0  0  0  0  0  0  # atno 7974 bound_to 7965
  155.9054  140.3431  155.6058 H   0  0  0  0  0  0  0  0  0  0  0  0  # atno 8008 bound_to 7997
  155.7451  140.0812  157.2246 H   0  0  0  0  0  0  0  0  0  0  0  0  # atno 8009 bound_to 7997
  154.4049  140.1563  156.2647 H   0  0  0  0  0  0  0  0  0  0  0  0  # atno 8010 bound_to 7997
  140.5006  144.0321  150.6331 H   0  0  0  0  0  0  0  0  0  0  0  0  # atno 10167 bound_to 10162
  156.3552  130.7709  151.1868 H   0  0  0  0  0  0  0  0  0  0  0  0  # atno 10718 bound_to 10713
  153.8223  135.3114  155.3411 H   0  0  0  0  0  0  0  0  0  0  0  0  # atno 10763 bound_to 10752
  154.8007  135.4728  154.0273 H   0  0  0  0  0  0  0  0  0  0  0  0  # atno 10764 bound_to 10752
  153.1685  135.6873  153.8730 H   0  0  0  0  0  0  0  0  0  0  0  0  # atno 10765 bound_to 10752
  139.8868  134.9467  156.6177 H   0  0  0  0  0  0  0  0  0  0  0  0  # atno 11005 bound_to 11000
  144.9805  140.8454  143.5400 LP  0  0  0  0  0  0  0  0  0  0  0  0  # atno 17320 bound_to 7965
  145.1973  139.2270  143.5211 LP  0  0  0  0  0  0  0  0  0  0  0  0  # atno 17321 bound_to 7965
  140.3616  143.2905  152.0378 LP  0  0  0  0  0  0  0  0  0  0  0  0  # atno 17342 bound_to 10162
  139.4871  144.6299  151.7091 LP  0  0  0  0  0  0  0  0  0  0  0  0  # atno 17343 bound_to 10162
  157.7466  131.0416  150.4654 LP  0  0  0  0  0  0  0  0  0  0  0  0  # atno 17370 bound_to 10713
  156.4856  130.4083  149.6436 LP  0  0  0  0  0  0  0  0  0  0  0  0  # atno 17371 bound_to 10713
  140.7763  133.8697  155.8532 LP  0  0  0  0  0  0  0  0  0  0  0  0  # atno 17394 bound_to 11000
  140.9799  134.1419  157.4503 LP  0  0  0  0  0  0  0  0  0  0  0  0  # atno 17395 bound_to 11000

$$$$
