AV-unprocessed.smi:411|AV-procd|sdf|2509|dock1
  -GOLD-   2262022463D 1   1.00000     0.00000
 Structure written by MMmdl.
 35 36  0  0  0  0  0  0  0  0  1 V2000
  154.5591  139.4959  162.0179 O   0  0  0  0  0  0  0  0  0  0  0  0
  154.5442  140.6741  161.6586 C   0  0  0  0  0  0  0  0  0  0  0  0
  154.6212  141.0490  160.1712 C   0  0  0  0  0  0  0  0  0  0  0  0
  153.3357  141.4993  159.6094 N   0  0  0  0  0  0  0  0  0  0  0  0
  152.7623  142.6505  160.1781 C   0  0  0  0  0  0  0  0  0  0  0  0
  151.5965  143.1470  159.7427 C   0  0  0  0  0  0  0  0  0  0  0  0
  150.9283  142.4683  158.6594 C   0  0  0  0  0  0  0  0  0  0  0  0
  151.4520  141.3551  158.0960 C   0  0  0  0  0  0  0  0  0  0  0  0
  150.7600  140.6274  156.9459 C   0  0  0  0  0  0  0  0  0  0  0  0
  151.5523  140.5803  155.8742 F   0  0  0  0  0  0  0  0  0  0  0  0
  150.4603  139.3766  157.2978 F   0  0  0  0  0  0  0  0  0  0  0  0
  149.6268  141.2330  156.5875 F   0  0  0  0  0  0  0  0  0  0  0  0
  152.7361  140.8140  158.5869 C   0  0  0  0  0  0  0  0  0  0  0  0
  153.2504  139.8005  158.1104 O   0  0  0  0  0  0  0  0  0  0  0  0
  154.4428  141.7009  162.5162 N   0  0  0  0  0  0  0  0  0  0  0  0
  154.3552  141.5809  163.9693 C   0  0  1  0  0  0  0  0  0  0  0  0
  155.6048  140.8598  164.5460 C   0  0  0  0  0  0  0  0  0  0  0  0
  156.3159  141.7333  165.5909 C   0  0  0  0  0  0  0  0  0  0  0  0
  155.0350  142.8560  166.2353 S   0  0  0  0  0  0  0  0  0  0  0  0
  154.1918  142.1143  167.1850 O   0  0  0  0  0  0  0  0  0  0  0  0
  155.6223  144.1575  166.5876 O   0  0  0  0  0  0  0  0  0  0  0  0
  154.1667  142.9589  164.6369 C   0  0  0  0  0  0  0  0  0  0  0  0
  155.3798  141.8245  160.0564 H   0  0  0  0  0  0  0  0  0  0  0  0
  155.0002  140.1963  159.6047 H   0  0  0  0  0  0  0  0  0  0  0  0
  153.3224  143.0943  160.9883 H   0  0  0  0  0  0  0  0  0  0  0  0
  151.1670  144.0298  160.1928 H   0  0  0  0  0  0  0  0  0  0  0  0
  149.9914  142.8704  158.3037 H   0  0  0  0  0  0  0  0  0  0  0  0
  154.4347  142.6360  162.1354 H   0  0  0  0  0  0  0  0  0  0  0  0
  153.4879  140.9644  164.2140 H   0  0  0  0  0  0  0  0  0  0  0  0
  155.2790  139.9368  165.0272 H   0  0  0  0  0  0  0  0  0  0  0  0
  156.3053  140.5592  163.7658 H   0  0  0  0  0  0  0  0  0  0  0  0
  156.7645  141.1609  166.4030 H   0  0  0  0  0  0  0  0  0  0  0  0
  157.0881  142.3431  165.1215 H   0  0  0  0  0  0  0  0  0  0  0  0
  154.6438  143.7501  164.0571 H   0  0  0  0  0  0  0  0  0  0  0  0
  153.1201  143.2226  164.7910 H   0  0  0  0  0  0  0  0  0  0  0  0
  1  2  2  0  0  0  0
  2  3  1  0  0  0  0
  2 15  1  0  0  0  0
  3  4  1  0  0  0  0
  3 23  1  0  0  0  0
  3 24  1  0  0  0  0
  4 13  1  0  0  0  0
  4  5  1  0  0  0  0
  5  6  2  0  0  0  0
  5 25  1  0  0  0  0
  6  7  1  0  0  0  0
  6 26  1  0  0  0  0
  7  8  2  0  0  0  0
  7 27  1  0  0  0  0
  8  9  1  0  0  0  0
  8 13  1  0  0  0  0
  9 10  1  0  0  0  0
  9 11  1  0  0  0  0
  9 12  1  0  0  0  0
 13 14  2  0  0  0  0
 15 16  1  0  0  0  0
 15 28  1  0  0  0  0
 16 22  1  0  0  0  0
 16 17  1  0  0  0  0
 16 29  1  0  0  0  0
 17 18  1  0  0  0  0
 17 30  1  0  0  0  0
 17 31  1  0  0  0  0
 18 19  1  0  0  0  0
 18 32  1  0  0  0  0
 18 33  1  0  0  0  0
 19 20  2  0  0  0  0
 19 21  2  0  0  0  0
 19 22  1  0  0  0  0
 22 34  1  0  0  0  0
 22 35  1  0  0  0  0
M  END
> <s_m_source_file>
AV-unprocessed.smi

> <i_m_source_file_index>
411

> <i_lp_mmshare_version>
43012

> <i_f3d_flags>
0

> <s_epik_input>
Tz1TMSg9TylbQ0gyXVtDSDJdW0NASF0oW0NIMl0xKVtOSF1DKD1PKVtDSDJdbjJbY0hdW2NIXVtjSF1jKEMoRikoRilGKWMyPU8=

> <s_epik_cmdline>
J2VwaWtfcHl0aG9uJywgJy1waCcsICc3LjAnLCAnLXRuJywgJzgnLCAnLW1hJywgJzIwMCcsICctbWV0YWxfYmluZGluZycsICctaW1hZScsICc8aW5maWxlLm1hZT4nLCAnLW9tYWUnLCAnPG91dGZpbGUubWFlPic=

> <r_lp_tautomer_probability>
1

> <r_epik_Ionization_Penalty>
1.08759e-07

> <r_epik_Ionization_Penalty_Charging>
1.56656e-09

> <r_epik_Ionization_Penalty_Neutral>
1.07193e-07

> <r_epik_State_Penalty>
-0

> <r_epik_Charging_Adjusted_Penalty>
1.56656e-09

> <i_epik_Tot_Q>
0

> <i_epik_Tot_abs_Q>
0

> <r_epik_Metal_State_Penalty>
-0

> <b_epik_Metal_Only>
0

> <s_lp_Force_Field>
OPLS_2005

> <r_lp_Energy>
15.8783

> <b_lp_Chiralities_Consistent>
1

> <s_lp_Variant>
AV-unprocessed.smi:411-2

> <Gold.Version>
5.8.1

> <Gold.Id.Protein>
6NUR|6NUR_protein|mol2

> <Gold.PLP.Fitness>
46.8459

> <Gold.PLP.PLP>
-44.1698

> <Gold.PLP.part.hbond>
-3.8469

> <Gold.PLP.part.metal>
0.0000

> <Gold.PLP.part.buried>
-2.0137

> <Gold.PLP.part.nonpolar>
-36.7251

> <Gold.PLP.part.repulsive>
0.1372

> <Gold.PLP.ligand.clash>
0.3284

> <Gold.PLP.ligand.torsion>
0.1830

> <Gold.PLP.Chemscore.Hbond>
1.0000

> <Gold.PLP.Chemscore.CHOScore>
0.0000

> <Gold.PLP.Chemscore.Metal>
0.0000

> <Gold.Chemscore.Hbonds>
donor molecule, donor type, donor heavy atom, donor atom, acceptor molecule, acceptor atom, score
      P1  H  7997  8008       L1    14  1.00

> <Gold.PLP.Chemscore.Internal.Correction>
0.3704

> <Gold.Rescore>
     Score         DG    S(hbond)    S(metal)    S(lipo)     H(rot)  DE(clash)    DE(int)     intcor
      8.78     -13.86       0.95        0.00      82.44       1.73       2.30       2.78       ----

> <Gold.Chemscore.Fitness>
8.7768

> <Gold.Chemscore.DG>
-13.8608

> <Gold.Chemscore.ZeroCoef>
-5.4800

> <Gold.Chemscore.Hbond>
0.9483

> <Gold.Chemscore.Metal>
0.0000

> <Gold.Chemscore.Lipo>
82.4424

> <Gold.Chemscore.Internal_Hbond>
0.0000

> <Gold.Chemscore.DEClash>
2.3049

> <Gold.Chemscore.DEInternal>
2.7791

> <Gold.Chemscore.Rot>
1.7314

> <Gold.Chemscore.Internal.Correction>
   9.000000E+99

> <Gold.Chemscore.Hbonds>
donor molecule, donor type, donor heavy atom, donor atom, acceptor molecule, acceptor atom, score
      P1  H  7997  8008       L1    14  0.92

> <Gold.Chemscore.Hbond.Weighted>
-3.1674

> <Gold.Chemscore.Metal.Weighted>
-0.0000

> <Gold.Chemscore.Lipo.Weighted>
-9.6458

> <Gold.Chemscore.Internal_Hbond.Weighted>
0.0000

> <Gold.Chemscore.DEClash.Weighted>
2.3049

> <Gold.Chemscore.DEInternal.Weighted>
2.7791

> <Gold.Chemscore.Rot.Weighted>
4.4324

> <Gold.Chemscore.Internal.Correction.Weighted>
   9.000000E+99

> <Gold.Protein.RotatedTorsions>
[ 6907 6896 6895 6894 ] final  -90.39 input  -60.11 | X-H torsion
[ 7974 7965 7964 7962 ] final  -24.89 input  175.53 | X-H torsion
[ 8008 7997 7996 7995 ] final  -79.02 input   59.86 | X-H torsion
[ 10167 10162 10161 10158 ] final   86.52 input  -65.29 | X-H torsion
[ 10718 10713 10712 10709 ] final  -51.67 input   66.30 | X-H torsion
[ 10763 10752 10751 10750 ] final  172.68 input  -60.55 | X-H torsion
[ 11005 11000 10999 10996 ] final -179.02 input  -57.11 | X-H torsion

> <Gold.Protein.ActiveResidues>
 VAL166  LYS551  ARG553  GLY616  TRP617  ASP618  TYR619  PRO620  LYS621  CYS622 
 ASP623  PHE694  ASN695  SER759  ASP760  ASP761  ALA762  ILE779  LEU786  VAL792 
 PHE793  MET794  SER795  GLU796  ALA797  LYS798  CYS799  TRP800  GLU811  SER814 

> <Gold.Protein.RotatedAtoms>
  150.6881  134.2439  159.4483 H   0  0  0  0  0  0  0  0  0  0  0  0  # atno 6907 bound_to 6896
  152.0381  134.9725  160.0583 H   0  0  0  0  0  0  0  0  0  0  0  0  # atno 6908 bound_to 6896
  152.1238  133.4333  159.4725 H   0  0  0  0  0  0  0  0  0  0  0  0  # atno 6909 bound_to 6896
  146.1526  140.4812  142.8605 H   0  0  0  0  0  0  0  0  0  0  0  0  # atno 7974 bound_to 7965
  154.5745  140.0685  156.9014 H   0  0  0  0  0  0  0  0  0  0  0  0  # atno 8008 bound_to 7997
  155.2574  140.3356  155.4258 H   0  0  0  0  0  0  0  0  0  0  0  0  # atno 8009 bound_to 7997
  156.2143  140.1772  156.7608 H   0  0  0  0  0  0  0  0  0  0  0  0  # atno 8010 bound_to 7997
  139.8867  144.6409  150.8783 H   0  0  0  0  0  0  0  0  0  0  0  0  # atno 10167 bound_to 10162
  156.1689  130.4149  149.9677 H   0  0  0  0  0  0  0  0  0  0  0  0  # atno 10718 bound_to 10713
  154.4295  135.2759  155.1922 H   0  0  0  0  0  0  0  0  0  0  0  0  # atno 10763 bound_to 10752
  154.3834  135.6082  153.5807 H   0  0  0  0  0  0  0  0  0  0  0  0  # atno 10764 bound_to 10752
  152.9835  135.5886  154.4604 H   0  0  0  0  0  0  0  0  0  0  0  0  # atno 10765 bound_to 10752
  140.4233  134.6586  157.4675 H   0  0  0  0  0  0  0  0  0  0  0  0  # atno 11005 bound_to 11000
  144.7923  140.6056  143.6533 LP  0  0  0  0  0  0  0  0  0  0  0  0  # atno 17320 bound_to 7965
  145.4786  139.1497  143.3775 LP  0  0  0  0  0  0  0  0  0  0  0  0  # atno 17321 bound_to 7965
  140.7734  143.3542  151.1954 LP  0  0  0  0  0  0  0  0  0  0  0  0  # atno 17342 bound_to 10162
  139.7146  143.9321  152.2961 LP  0  0  0  0  0  0  0  0  0  0  0  0  # atno 17343 bound_to 10162
  156.7483  130.9106  151.3636 LP  0  0  0  0  0  0  0  0  0  0  0  0  # atno 17370 bound_to 10713
  157.6788  130.9120  150.0217 LP  0  0  0  0  0  0  0  0  0  0  0  0  # atno 17371 bound_to 10713
  140.0185  134.6583  155.9274 LP  0  0  0  0  0  0  0  0  0  0  0  0  # atno 17394 bound_to 11000
  141.1775  133.6542  156.4888 LP  0  0  0  0  0  0  0  0  0  0  0  0  # atno 17395 bound_to 11000

$$$$
