AV-unprocessed.smi:1005|AV-procd|sdf|4368|dock6
  -GOLD-   22720 2273D 1   1.00000     0.00000
 Structure written by MMmdl.
 57 59  0  0  0  0  0  0  0  0  3 V2000
  152.6695  141.6701  160.9958 C   0  0  0  0  0  0  0  0  0  0  0  0
  151.9614  141.5919  159.6547 C   0  0  0  0  0  0  0  0  0  0  0  0
  152.1040  140.4260  158.8693 C   0  0  0  0  0  0  0  0  0  0  0  0
  151.4628  140.3141  157.6162 C   0  0  0  0  0  0  0  0  0  0  0  0
  151.4658  139.2821  156.6934 N   0  0  0  0  0  0  0  0  0  0  0  0
  150.6863  139.7754  155.7362 C   0  0  0  0  0  0  0  0  0  0  0  0
  150.1804  141.0089  155.9273 N   0  0  0  0  0  0  0  0  0  0  0  0
  149.3147  141.7472  155.0248 C   0  0  0  0  0  0  0  0  0  0  0  0
  148.1825  140.8747  154.4496 C   0  0  2  0  0  0  0  0  0  0  0  0
  148.6111  140.2911  153.2344 O   0  0  0  0  0  0  0  0  0  0  0  0
  146.9113  141.7015  154.1737 C   0  0  0  0  0  0  0  0  0  0  0  0
  146.4458  142.4452  155.3757 N   0  3  2  0  0  0  0  0  0  0  0  0
  146.3728  141.6132  156.6010 C   0  0  0  0  0  0  0  0  0  0  0  0
  145.1063  140.7409  156.6048 C   0  0  0  0  0  0  0  0  0  0  0  0
  143.9611  141.5759  156.4821 O   0  0  0  0  0  0  0  0  0  0  0  0
  143.9384  142.2993  155.2555 C   0  0  1  0  0  0  0  0  0  0  0  0
  142.6359  143.1213  155.2138 C   0  0  0  0  0  0  0  0  0  0  0  0
  141.4708  142.3371  154.7290 N   0  3  0  0  0  0  0  0  0  0  0  0
  140.2261  143.1337  154.6216 C   0  0  0  0  0  0  0  0  0  0  0  0
  141.2585  141.1083  155.5261 C   0  0  0  0  0  0  0  0  0  0  0  0
  145.1859  143.2111  155.1895 C   0  0  0  0  0  0  0  0  0  0  0  0
  150.6678  141.4089  157.1672 C   0  0  0  0  0  0  0  0  0  0  0  0
  150.5186  142.5744  157.9393 C   0  0  0  0  0  0  0  0  0  0  0  0
  151.1662  142.6699  159.1888 C   0  0  0  0  0  0  0  0  0  0  0  0
  150.9991  143.9328  160.0152 C   0  0  0  0  0  0  0  0  0  0  0  0
  153.2341  140.7602  161.2019 H   0  0  0  0  0  0  0  0  0  0  0  0
  151.9478  141.8051  161.8016 H   0  0  0  0  0  0  0  0  0  0  0  0
  153.3676  142.5071  161.0113 H   0  0  0  0  0  0  0  0  0  0  0  0
  152.7097  139.6048  159.2239 H   0  0  0  0  0  0  0  0  0  0  0  0
  150.4725  139.2085  154.8418 H   0  0  0  0  0  0  0  0  0  0  0  0
  148.8969  142.5933  155.5719 H   0  0  0  0  0  0  0  0  0  0  0  0
  149.9228  142.1667  154.2220 H   0  0  0  0  0  0  0  0  0  0  0  0
  147.9711  140.0724  155.1560 H   0  0  0  0  0  0  0  0  0  0  0  0
  149.2846  139.6552  153.4262 H   0  0  0  0  0  0  0  0  0  0  0  0
  147.0796  142.3923  153.3478 H   0  0  0  0  0  0  0  0  0  0  0  0
  146.1284  141.0198  153.8372 H   0  0  0  0  0  0  0  0  0  0  0  0
  147.2689  141.0008  156.7080 H   0  0  0  0  0  0  0  0  0  0  0  0
  146.3537  142.2776  157.4661 H   0  0  0  0  0  0  0  0  0  0  0  0
  145.1284  140.0041  155.8004 H   0  0  0  0  0  0  0  0  0  0  0  0
  145.0377  140.1861  157.5407 H   0  0  0  0  0  0  0  0  0  0  0  0
  143.9571  141.5994  154.4207 H   0  0  0  0  0  0  0  0  0  0  0  0
  142.4318  143.4868  156.2215 H   0  0  0  0  0  0  0  0  0  0  0  0
  142.7602  144.0060  154.5873 H   0  0  0  0  0  0  0  0  0  0  0  0
  139.9290  143.5284  155.5941 H   0  0  0  0  0  0  0  0  0  0  0  0
  139.4092  142.5178  154.2438 H   0  0  0  0  0  0  0  0  0  0  0  0
  140.3405  143.9704  153.9335 H   0  0  0  0  0  0  0  0  0  0  0  0
  141.0227  141.3504  156.5634 H   0  0  0  0  0  0  0  0  0  0  0  0
  142.1491  140.4788  155.5151 H   0  0  0  0  0  0  0  0  0  0  0  0
  140.4366  140.5193  155.1175 H   0  0  0  0  0  0  0  0  0  0  0  0
  145.1307  143.9562  155.9845 H   0  0  0  0  0  0  0  0  0  0  0  0
  145.2042  143.7693  154.2540 H   0  0  0  0  0  0  0  0  0  0  0  0
  149.9118  143.3890  157.5726 H   0  0  0  0  0  0  0  0  0  0  0  0
  150.3525  144.6537  159.5138 H   0  0  0  0  0  0  0  0  0  0  0  0
  151.9650  144.4095  160.1829 H   0  0  0  0  0  0  0  0  0  0  0  0
  150.5536  143.7006  160.9828 H   0  0  0  0  0  0  0  0  0  0  0  0
  141.7020  142.0241  153.7964 H   0  0  0  0  0  0  0  0  0  0  0  0
  147.1748  143.1232  155.5507 H   0  0  0  0  0  0  0  0  0  0  0  0
  1  2  1  0  0  0  0
  1 26  1  0  0  0  0
  1 27  1  0  0  0  0
  1 28  1  0  0  0  0
  2 24  1  0  0  0  0
  2  3  2  0  0  0  0
  3  4  1  0  0  0  0
  3 29  1  0  0  0  0
  4 22  2  0  0  0  0
  4  5  1  0  0  0  0
  5  6  2  0  0  0  0
  6  7  1  0  0  0  0
  6 30  1  0  0  0  0
  7  8  1  0  0  0  0
  7 22  1  0  0  0  0
  8  9  1  0  0  0  0
  8 31  1  0  0  0  0
  8 32  1  0  0  0  0
  9 10  1  0  0  0  0
  9 11  1  0  0  0  0
  9 33  1  0  0  0  0
 10 34  1  0  0  0  0
 11 12  1  0  0  0  0
 11 35  1  0  0  0  0
 11 36  1  0  0  0  0
 12 21  1  0  0  0  0
 12 13  1  0  0  0  0
 12 57  1  0  0  0  0
 13 14  1  0  0  0  0
 13 37  1  0  0  0  0
 13 38  1  0  0  0  0
 14 15  1  0  0  0  0
 14 39  1  0  0  0  0
 14 40  1  0  0  0  0
 15 16  1  0  0  0  0
 16 17  1  0  0  0  0
 16 21  1  0  0  0  0
 16 41  1  0  0  0  0
 17 18  1  0  0  0  0
 17 42  1  0  0  0  0
 17 43  1  0  0  0  0
 18 19  1  0  0  0  0
 18 20  1  0  0  0  0
 18 56  1  0  0  0  0
 19 44  1  0  0  0  0
 19 45  1  0  0  0  0
 19 46  1  0  0  0  0
 20 47  1  0  0  0  0
 20 48  1  0  0  0  0
 20 49  1  0  0  0  0
 21 50  1  0  0  0  0
 21 51  1  0  0  0  0
 22 23  1  0  0  0  0
 23 24  2  0  0  0  0
 23 52  1  0  0  0  0
 24 25  1  0  0  0  0
 25 53  1  0  0  0  0
 25 54  1  0  0  0  0
 25 55  1  0  0  0  0
M  CHG  1  12   1
M  CHG  1  18   1
M  END
> <s_m_source_file>
AV-unprocessed.smi

> <i_m_source_file_index>
1005

> <i_lp_mmshare_version>
43012

> <i_f3d_flags>
0

> <s_epik_input>
W0NIM11jKFtjSF0xKWMoW0NIM10pW2NIXWMoYzEyKW4oW2NIXW4yKVtDSDJdW0NASF0oW09IXSlbQ0gyXU4zW0NIMl1bQ0gyXU9bQ0BIXShbQ0gyXTMpW0NIMl1OKFtDSDNdKVtDSDNd

> <s_epik_cmdline>
J2VwaWtfcHl0aG9uJywgJy1waCcsICc3LjAnLCAnLXRuJywgJzgnLCAnLW1hJywgJzIwMCcsICctbWV0YWxfYmluZGluZycsICctaW1hZScsICc8aW5maWxlLm1hZT4nLCAnLW9tYWUnLCAnPG91dGZpbGUubWFlPic=

> <r_epik_Ionization_Penalty>
1.0968

> <r_epik_Ionization_Penalty_Charging>
1.0096

> <r_epik_Ionization_Penalty_Neutral>
0.0871956

> <r_epik_State_Penalty>
1.31185

> <r_epik_Charging_Adjusted_Penalty>
2.32145

> <i_epik_Tot_Q>
2

> <i_epik_Tot_abs_Q>
2

> <r_epik_Metal_State_Penalty>
1.22442

> <b_epik_Metal_Only>
0

> <s_lp_Force_Field>
OPLS_2005

> <r_lp_Energy>
35.7023

> <b_lp_Chiralities_Consistent>
1

> <s_lp_Variant>
AV-unprocessed.smi:1005-7

> <Gold.Version>
5.8.1

> <Gold.Id.Protein>
6NUR|6NUR_protein|mol2

> <Gold.PLP.Fitness>
56.1998

> <Gold.PLP.PLP>
-45.7346

> <Gold.PLP.part.hbond>
-2.7959

> <Gold.PLP.part.metal>
0.0000

> <Gold.PLP.part.buried>
-3.3403

> <Gold.PLP.part.nonpolar>
-38.5337

> <Gold.PLP.part.repulsive>
0.1406

> <Gold.PLP.ligand.clash>
0.0000

> <Gold.PLP.ligand.torsion>
0.8977

> <Gold.PLP.Chemscore.Hbond>
4.0000

> <Gold.PLP.Chemscore.CHOScore>
0.0000

> <Gold.PLP.Chemscore.Metal>
0.0000

> <Gold.Chemscore.Hbonds>
donor molecule, donor type, donor heavy atom, donor atom, acceptor molecule, acceptor atom, score
      L1  H    12    57       P1  8028  0.42
      L1  H    18    56       P1 10174  1.82

> <Gold.PLP.Chemscore.Internal.Correction>
0.2606

> <Gold.Rescore>
     Score         DG    S(hbond)    S(metal)    S(lipo)     H(rot)  DE(clash)    DE(int)     intcor
     15.80     -17.92       1.27        0.00     124.27       2.48       1.29       0.83       ----

> <Gold.Chemscore.Fitness>
15.8016

> <Gold.Chemscore.DG>
-17.9247

> <Gold.Chemscore.ZeroCoef>
-5.4800

> <Gold.Chemscore.Hbond>
1.2749

> <Gold.Chemscore.Metal>
0.0000

> <Gold.Chemscore.Lipo>
124.2659

> <Gold.Chemscore.Internal_Hbond>
0.0000

> <Gold.Chemscore.DEClash>
1.2908

> <Gold.Chemscore.DEInternal>
0.8323

> <Gold.Chemscore.Rot>
2.4814

> <Gold.Chemscore.Internal.Correction>
   9.000000E+99

> <Gold.Chemscore.Hbonds>
donor molecule, donor type, donor heavy atom, donor atom, acceptor molecule, acceptor atom, score
      L1  H    12    57       P1  8028  0.02
      L1  H    18    56       P1 10174  0.62

> <Gold.Chemscore.Hbond.Weighted>
-4.2580

> <Gold.Chemscore.Metal.Weighted>
-0.0000

> <Gold.Chemscore.Lipo.Weighted>
-14.5391

> <Gold.Chemscore.Internal_Hbond.Weighted>
0.0000

> <Gold.Chemscore.DEClash.Weighted>
1.2908

> <Gold.Chemscore.DEInternal.Weighted>
0.8323

> <Gold.Chemscore.Rot.Weighted>
6.3524

> <Gold.Chemscore.Internal.Correction.Weighted>
   9.000000E+99

> <Gold.Protein.RotatedTorsions>
[ 6907 6896 6895 6894 ] final -124.17 input  -60.11 | X-H torsion
[ 7974 7965 7964 7962 ] final  -55.74 input  175.53 | X-H torsion
[ 8008 7997 7996 7995 ] final  -37.11 input   59.86 | X-H torsion
[ 10167 10162 10161 10158 ] final   92.00 input  -65.29 | X-H torsion
[ 10718 10713 10712 10709 ] final  -28.04 input   66.30 | X-H torsion
[ 10763 10752 10751 10750 ] final  112.77 input  -60.55 | X-H torsion
[ 11005 11000 10999 10996 ] final -103.35 input  -57.11 | X-H torsion

> <Gold.Protein.ActiveResidues>
 VAL166  LYS551  ARG553  GLY616  TRP617  ASP618  TYR619  PRO620  LYS621  CYS622 
 ASP623  PHE694  ASN695  SER759  ASP760  ASP761  ALA762  ILE779  LEU786  VAL792 
 PHE793  MET794  SER795  GLU796  ALA797  LYS798  CYS799  TRP800  GLU811  SER814 

> <Gold.Protein.RotatedAtoms>
  150.8742  133.7462  159.2951 H   0  0  0  0  0  0  0  0  0  0  0  0  # atno 6907 bound_to 6896
  151.5064  135.1062  159.9852 H   0  0  0  0  0  0  0  0  0  0  0  0  # atno 6908 bound_to 6896
  152.4716  133.7998  159.7002 H   0  0  0  0  0  0  0  0  0  0  0  0  # atno 6909 bound_to 6896
  145.8707  140.8218  142.9889 H   0  0  0  0  0  0  0  0  0  0  0  0  # atno 7974 bound_to 7965
  154.4060  140.1613  156.2484 H   0  0  0  0  0  0  0  0  0  0  0  0  # atno 8008 bound_to 7997
  155.9141  140.3425  155.6099 H   0  0  0  0  0  0  0  0  0  0  0  0  # atno 8009 bound_to 7997
  155.7301  140.0779  157.2283 H   0  0  0  0  0  0  0  0  0  0  0  0  # atno 8010 bound_to 7997
  139.8319  144.6683  150.9389 H   0  0  0  0  0  0  0  0  0  0  0  0  # atno 10167 bound_to 10162
  156.4303  130.4444  149.7122 H   0  0  0  0  0  0  0  0  0  0  0  0  # atno 10718 bound_to 10713
  153.4827  135.3676  155.2450 H   0  0  0  0  0  0  0  0  0  0  0  0  # atno 10763 bound_to 10752
  154.8754  135.3958  154.3681 H   0  0  0  0  0  0  0  0  0  0  0  0  # atno 10764 bound_to 10752
  153.4288  135.7082  153.6310 H   0  0  0  0  0  0  0  0  0  0  0  0  # atno 10765 bound_to 10752
  141.1150  133.8633  157.1474 H   0  0  0  0  0  0  0  0  0  0  0  0  # atno 11005 bound_to 11000
  144.6726  140.1235  143.7448 LP  0  0  0  0  0  0  0  0  0  0  0  0  # atno 17320 bound_to 7965
  145.9140  139.2504  143.1421 LP  0  0  0  0  0  0  0  0  0  0  0  0  # atno 17321 bound_to 7965
  140.7806  143.3993  151.1176 LP  0  0  0  0  0  0  0  0  0  0  0  0  # atno 17342 bound_to 10162
  139.7646  143.8585  152.3108 LP  0  0  0  0  0  0  0  0  0  0  0  0  # atno 17343 bound_to 10162
  156.4027  130.7683  151.2691 LP  0  0  0  0  0  0  0  0  0  0  0  0  # atno 17370 bound_to 10713
  157.7508  131.0235  150.3836 LP  0  0  0  0  0  0  0  0  0  0  0  0  # atno 17371 bound_to 10713
  140.0066  135.0006  157.0305 LP  0  0  0  0  0  0  0  0  0  0  0  0  # atno 17394 bound_to 11000
  140.4672  134.1424  155.7198 LP  0  0  0  0  0  0  0  0  0  0  0  0  # atno 17395 bound_to 11000

$$$$
