AV-unprocessed.smi:3002|AV-procd|sdf|11435|dock7
  -GOLD-   2272016363D 1   1.00000     0.00000
 Structure written by MMmdl.
 34 35  0  0  0  0  0  0  0  0  1 V2000
  151.5115  145.2118  159.2970 C   0  0  0  0  0  0  0  0  0  0  0  0
  151.8769  143.8178  158.7467 C   0  0  2  0  0  0  0  0  0  0  0  0
  150.6772  143.0860  158.1254 C   0  0  0  0  0  0  0  0  0  0  0  0
  149.5889  143.0571  158.7012 O   0  0  0  0  0  0  0  0  0  0  0  0
  150.9052  142.4687  156.9548 N   0  0  0  0  0  0  0  0  0  0  0  0
  149.9599  141.6076  156.2522 C   0  0  0  0  0  0  0  0  0  0  0  0
  150.4751  140.1578  156.1589 C   0  0  1  0  0  0  0  0  0  0  0  0
  150.0554  139.4216  154.8675 C   0  0  0  0  0  0  0  0  0  0  0  0
  150.8548  138.1198  154.7604 C   0  0  0  0  0  0  0  0  0  0  0  0
  152.4882  138.4780  155.5059 S   0  0  0  0  0  0  0  0  0  0  0  0
  152.7566  137.4934  156.5649 O   0  0  0  0  0  0  0  0  0  0  0  0
  153.4702  138.7316  154.4409 O   0  0  0  0  0  0  0  0  0  0  0  0
  152.0058  140.0760  156.2636 C   0  0  0  0  0  0  0  0  0  0  0  0
  152.4997  142.9725  159.7590 N   0  0  0  0  0  0  0  0  0  0  0  0
  152.6774  143.1870  161.0645 C   0  0  0  0  0  0  0  0  0  0  0  0
  153.3451  142.2235  161.6834 N   0  0  0  0  0  0  0  0  0  0  0  0
  153.5737  141.3893  160.6262 C   0  0  0  0  0  0  0  0  0  0  0  0
  153.0988  141.7953  159.4489 N   0  0  0  0  0  0  0  0  0  0  0  0
  151.0990  145.8481  158.5134 H   0  0  0  0  0  0  0  0  0  0  0  0
  152.3934  145.7152  159.6940 H   0  0  0  0  0  0  0  0  0  0  0  0
  150.7747  145.1565  160.0994 H   0  0  0  0  0  0  0  0  0  0  0  0
  152.6127  143.9654  157.9541 H   0  0  0  0  0  0  0  0  0  0  0  0
  151.8260  142.5537  156.5492 H   0  0  0  0  0  0  0  0  0  0  0  0
  148.9760  141.6352  156.7240 H   0  0  0  0  0  0  0  0  0  0  0  0
  149.8262  142.0125  155.2488 H   0  0  0  0  0  0  0  0  0  0  0  0
  150.0642  139.5934  156.9977 H   0  0  0  0  0  0  0  0  0  0  0  0
  148.9837  139.2223  154.8388 H   0  0  0  0  0  0  0  0  0  0  0  0
  150.2854  140.0506  154.0063 H   0  0  0  0  0  0  0  0  0  0  0  0
  150.3837  137.3281  155.3435 H   0  0  0  0  0  0  0  0  0  0  0  0
  150.9740  137.7745  153.7332 H   0  0  0  0  0  0  0  0  0  0  0  0
  152.4818  140.8711  155.6891 H   0  0  0  0  0  0  0  0  0  0  0  0
  152.3658  140.1281  157.2912 H   0  0  0  0  0  0  0  0  0  0  0  0
  152.3187  144.0707  161.5714 H   0  0  0  0  0  0  0  0  0  0  0  0
  154.1130  140.4589  160.7257 H   0  0  0  0  0  0  0  0  0  0  0  0
  1  2  1  0  0  0  0
  1 19  1  0  0  0  0
  1 20  1  0  0  0  0
  1 21  1  0  0  0  0
  2  3  1  0  0  0  0
  2 14  1  0  0  0  0
  2 22  1  0  0  0  0
  3  4  2  0  0  0  0
  3  5  1  0  0  0  0
  5  6  1  0  0  0  0
  5 23  1  0  0  0  0
  6  7  1  0  0  0  0
  6 24  1  0  0  0  0
  6 25  1  0  0  0  0
  7 13  1  0  0  0  0
  7  8  1  0  0  0  0
  7 26  1  0  0  0  0
  8  9  1  0  0  0  0
  8 27  1  0  0  0  0
  8 28  1  0  0  0  0
  9 10  1  0  0  0  0
  9 29  1  0  0  0  0
  9 30  1  0  0  0  0
 10 11  2  0  0  0  0
 10 12  2  0  0  0  0
 10 13  1  0  0  0  0
 13 31  1  0  0  0  0
 13 32  1  0  0  0  0
 14 18  1  0  0  0  0
 14 15  1  0  0  0  0
 15 16  2  0  0  0  0
 15 33  1  0  0  0  0
 16 17  1  0  0  0  0
 17 18  2  0  0  0  0
 17 34  1  0  0  0  0
M  END
> <s_m_source_file>
AV-unprocessed.smi

> <i_m_source_file_index>
3002

> <i_lp_mmshare_version>
43012

> <i_f3d_flags>
0

> <s_epik_input>
bjFbY0hdbltjSF1uMVtDQEhdKFtDSDNdKUMoPU8pW05IXVtDSDJdW0NAQEhdKFtDSDJdMilbQ0gyXVtDSDJdUzIoPU8pPU8=

> <s_epik_cmdline>
J2VwaWtfcHl0aG9uJywgJy1waCcsICc3LjAnLCAnLXRuJywgJzgnLCAnLW1hJywgJzIwMCcsICctbWV0YWxfYmluZGluZycsICctaW1hZScsICc8aW5maWxlLm1hZT4nLCAnLW9tYWUnLCAnPG91dGZpbGUubWFlPic=

> <r_lp_tautomer_probability>
1

> <r_epik_Ionization_Penalty>
1.1748e-05

> <r_epik_Ionization_Penalty_Charging>
0

> <r_epik_Ionization_Penalty_Neutral>
1.1748e-05

> <r_epik_State_Penalty>
-0

> <r_epik_Charging_Adjusted_Penalty>
0

> <i_epik_Tot_Q>
0

> <i_epik_Tot_abs_Q>
0

> <r_epik_Metal_State_Penalty>
-0

> <b_epik_Metal_Only>
0

> <s_lp_Force_Field>
OPLS_2005

> <r_lp_Energy>
9.21474

> <b_lp_Chiralities_Consistent>
1

> <s_lp_Variant>
AV-unprocessed.smi:3002-3

> <Gold.Version>
5.8.1

> <Gold.Id.Protein>
6NUR|6NUR_protein|mol2

> <Gold.PLP.Fitness>
39.4623

> <Gold.PLP.PLP>
-39.7523

> <Gold.PLP.part.hbond>
-1.0862

> <Gold.PLP.part.metal>
0.0000

> <Gold.PLP.part.buried>
-4.2682

> <Gold.PLP.part.nonpolar>
-34.5747

> <Gold.PLP.part.repulsive>
0.2775

> <Gold.PLP.ligand.clash>
0.9801

> <Gold.PLP.ligand.torsion>
1.0548

> <Gold.PLP.Chemscore.Hbond>
0.8960

> <Gold.PLP.Chemscore.CHOScore>
0.0000

> <Gold.PLP.Chemscore.Metal>
0.0000

> <Gold.Chemscore.Hbonds>
donor molecule, donor type, donor heavy atom, donor atom, acceptor molecule, acceptor atom, score
      P1  H  7997  8008       L1    12  0.29

> <Gold.PLP.Chemscore.Internal.Correction>
0.1116

> <Gold.Rescore>
     Score         DG    S(hbond)    S(metal)    S(lipo)     H(rot)  DE(clash)    DE(int)     intcor
      6.00      -6.46       0.05        0.00      59.39       2.39       0.01       0.44       ----

> <Gold.Chemscore.Fitness>
6.0047

> <Gold.Chemscore.DG>
-6.4585

> <Gold.Chemscore.ZeroCoef>
-5.4800

> <Gold.Chemscore.Hbond>
0.0479

> <Gold.Chemscore.Metal>
0.0000

> <Gold.Chemscore.Lipo>
59.3886

> <Gold.Chemscore.Internal_Hbond>
0.0000

> <Gold.Chemscore.DEClash>
0.0097

> <Gold.Chemscore.DEInternal>
0.4441

> <Gold.Chemscore.Rot>
2.3946

> <Gold.Chemscore.Internal.Correction>
   9.000000E+99

> <Gold.Chemscore.Hbonds>
donor molecule, donor type, donor heavy atom, donor atom, acceptor molecule, acceptor atom, score
      P1  H  7997  8008       L1    12  0.06

> <Gold.Chemscore.Hbond.Weighted>
-0.1601

> <Gold.Chemscore.Metal.Weighted>
-0.0000

> <Gold.Chemscore.Lipo.Weighted>
-6.9485

> <Gold.Chemscore.Internal_Hbond.Weighted>
0.0000

> <Gold.Chemscore.DEClash.Weighted>
0.0097

> <Gold.Chemscore.DEInternal.Weighted>
0.4441

> <Gold.Chemscore.Rot.Weighted>
6.1301

> <Gold.Chemscore.Internal.Correction.Weighted>
   9.000000E+99

> <Gold.Protein.RotatedTorsions>
[ 6907 6896 6895 6894 ] final -131.78 input  -60.11 | X-H torsion
[ 7974 7965 7964 7962 ] final -127.59 input  175.53 | X-H torsion
[ 8008 7997 7996 7995 ] final   14.89 input   59.86 | X-H torsion
[ 10167 10162 10161 10158 ] final   78.42 input  -65.29 | X-H torsion
[ 10718 10713 10712 10709 ] final -107.24 input   66.30 | X-H torsion
[ 10763 10752 10751 10750 ] final   15.03 input  -60.55 | X-H torsion
[ 11005 11000 10999 10996 ] final   60.94 input  -57.11 | X-H torsion

> <Gold.Protein.ActiveResidues>
 VAL166  LYS551  ARG553  GLY616  TRP617  ASP618  TYR619  PRO620  LYS621  CYS622 
 ASP623  PHE694  ASN695  SER759  ASP760  ASP761  ALA762  ILE779  LEU786  VAL792 
 PHE793  MET794  SER795  GLU796  ALA797  LYS798  CYS799  TRP800  GLU811  SER814 

> <Gold.Protein.RotatedAtoms>
  150.9549  133.6509  159.2764 H   0  0  0  0  0  0  0  0  0  0  0  0  # atno 6907 bound_to 6896
  151.3852  135.0945  159.9518 H   0  0  0  0  0  0  0  0  0  0  0  0  # atno 6908 bound_to 6896
  152.5125  133.9075  159.7526 H   0  0  0  0  0  0  0  0  0  0  0  0  # atno 6909 bound_to 6896
  144.9756  140.7589  143.4644 H   0  0  0  0  0  0  0  0  0  0  0  0  # atno 7974 bound_to 7965
  154.8549  140.2935  155.5575 H   0  0  0  0  0  0  0  0  0  0  0  0  # atno 8008 bound_to 7997
  156.3018  140.2489  156.3446 H   0  0  0  0  0  0  0  0  0  0  0  0  # atno 8009 bound_to 7997
  154.8981  140.0392  157.1866 H   0  0  0  0  0  0  0  0  0  0  0  0  # atno 8010 bound_to 7997
  139.9711  144.5893  150.7984 H   0  0  0  0  0  0  0  0  0  0  0  0  # atno 10167 bound_to 10162
  156.0427  130.5653  150.7794 H   0  0  0  0  0  0  0  0  0  0  0  0  # atno 10718 bound_to 10713
  153.1564  135.6788  153.8806 H   0  0  0  0  0  0  0  0  0  0  0  0  # atno 10763 bound_to 10752
  153.8215  135.3129  155.3412 H   0  0  0  0  0  0  0  0  0  0  0  0  # atno 10764 bound_to 10752
  154.7901  135.4840  154.0120 H   0  0  0  0  0  0  0  0  0  0  0  0  # atno 10765 bound_to 10752
  140.0196  134.6173  155.9659 H   0  0  0  0  0  0  0  0  0  0  0  0  # atno 11005 bound_to 11000
  145.2495  139.2037  143.4950 LP  0  0  0  0  0  0  0  0  0  0  0  0  # atno 17320 bound_to 7965
  146.3394  140.2406  142.8595 LP  0  0  0  0  0  0  0  0  0  0  0  0  # atno 17321 bound_to 7965
  140.7521  143.2985  151.3142 LP  0  0  0  0  0  0  0  0  0  0  0  0  # atno 17342 bound_to 10162
  139.6480  144.0415  152.2605 LP  0  0  0  0  0  0  0  0  0  0  0  0  # atno 17343 bound_to 10162
  157.5266  131.0934  151.0010 LP  0  0  0  0  0  0  0  0  0  0  0  0  # atno 17370 bound_to 10713
  157.0327  130.5718  149.5345 LP  0  0  0  0  0  0  0  0  0  0  0  0  # atno 17371 bound_to 10713
  141.1765  133.6541  156.4850 LP  0  0  0  0  0  0  0  0  0  0  0  0  # atno 17394 bound_to 11000
  140.4410  134.7015  157.4992 LP  0  0  0  0  0  0  0  0  0  0  0  0  # atno 17395 bound_to 11000

$$$$
