AV-unprocessed.smi:1221|AV-procd|sdf|5118|dock7
  -GOLD-   22720 4173D 1   1.00000     0.00000
 Structure written by MMmdl.
 40 41  0  0  0  0  0  0  0  0  1 V2000
  153.3641  142.2585  161.1203 C   0  0  0  0  0  0  0  0  0  0  0  0
  152.6039  142.7907  159.9542 C   0  0  0  0  0  0  0  0  0  0  0  0
  151.9071  142.1880  158.9447 C   0  0  0  0  0  0  0  0  0  0  0  0
  151.4355  143.2885  158.1807 C   0  0  0  0  0  0  0  0  0  0  0  0
  150.6498  143.0837  157.0179 N   0  0  0  0  0  0  0  0  0  0  0  0
  150.4484  141.9293  156.3601 C   0  0  0  0  0  0  0  0  0  0  0  0
  150.9290  140.8402  156.6752 O   0  0  0  0  0  0  0  0  0  0  0  0
  149.6443  142.1044  155.3015 N   0  0  0  0  0  0  0  0  0  0  0  0
  149.2299  141.0464  154.3887 C   0  0  0  0  0  0  0  0  0  0  0  0
  147.8716  141.3642  153.7358 C   0  0  0  0  0  0  0  0  0  0  0  0
  146.8276  141.5547  154.7503 N   0  0  0  0  0  0  0  0  0  0  0  0
  146.7525  140.5360  155.8107 C   0  0  0  0  0  0  0  0  0  0  0  0
  147.2020  141.0493  157.1989 C   0  0  0  0  0  0  0  0  0  0  0  0
  146.9759  142.5482  157.4799 C   0  0  0  0  0  0  0  0  0  0  0  0
  145.5389  143.0497  157.2275 C   0  0  0  0  0  0  0  0  0  0  0  0
  144.9432  142.7623  155.8286 C   0  0  0  0  0  0  0  0  0  0  0  0
  145.9898  142.6203  154.7117 C   0  0  0  0  0  0  0  0  0  0  0  0
  146.0341  143.4782  153.8295 O   0  0  0  0  0  0  0  0  0  0  0  0
  151.8107  144.4568  158.6785 N   0  0  0  0  0  0  0  0  0  0  0  0
  152.5600  144.1439  159.8187 O   0  0  0  0  0  0  0  0  0  0  0  0
  153.6276  141.2117  160.9682 H   0  0  0  0  0  0  0  0  0  0  0  0
  152.7703  142.3296  162.0315 H   0  0  0  0  0  0  0  0  0  0  0  0
  154.2862  142.8199  161.2718 H   0  0  0  0  0  0  0  0  0  0  0  0
  151.7603  141.1306  158.7820 H   0  0  0  0  0  0  0  0  0  0  0  0
  150.1905  143.9032  156.6496 H   0  0  0  0  0  0  0  0  0  0  0  0
  149.2930  143.0322  155.1146 H   0  0  0  0  0  0  0  0  0  0  0  0
  149.9949  140.9419  153.6186 H   0  0  0  0  0  0  0  0  0  0  0  0
  149.1950  140.0935  154.9197 H   0  0  0  0  0  0  0  0  0  0  0  0
  147.9505  142.2601  153.1172 H   0  0  0  0  0  0  0  0  0  0  0  0
  147.6006  140.5669  153.0432 H   0  0  0  0  0  0  0  0  0  0  0  0
  145.7320  140.1567  155.8700 H   0  0  0  0  0  0  0  0  0  0  0  0
  147.3455  139.6565  155.5583 H   0  0  0  0  0  0  0  0  0  0  0  0
  146.7114  140.4547  157.9702 H   0  0  0  0  0  0  0  0  0  0  0  0
  148.2684  140.8507  157.3110 H   0  0  0  0  0  0  0  0  0  0  0  0
  147.2438  142.7550  158.5162 H   0  0  0  0  0  0  0  0  0  0  0  0
  147.6764  143.1369  156.8861 H   0  0  0  0  0  0  0  0  0  0  0  0
  144.8772  142.6196  157.9801 H   0  0  0  0  0  0  0  0  0  0  0  0
  145.5184  144.1260  157.4024 H   0  0  0  0  0  0  0  0  0  0  0  0
  144.3330  141.8598  155.8587 H   0  0  0  0  0  0  0  0  0  0  0  0
  144.2467  143.5597  155.5660 H   0  0  0  0  0  0  0  0  0  0  0  0
  1  2  1  0  0  0  0
  1 21  1  0  0  0  0
  1 22  1  0  0  0  0
  1 23  1  0  0  0  0
  2 20  1  0  0  0  0
  2  3  2  0  0  0  0
  3  4  1  0  0  0  0
  3 24  1  0  0  0  0
  4  5  1  0  0  0  0
  4 19  2  0  0  0  0
  5  6  1  0  0  0  0
  5 25  1  0  0  0  0
  6  7  2  0  0  0  0
  6  8  1  0  0  0  0
  8  9  1  0  0  0  0
  8 26  1  0  0  0  0
  9 10  1  0  0  0  0
  9 27  1  0  0  0  0
  9 28  1  0  0  0  0
 10 11  1  0  0  0  0
 10 29  1  0  0  0  0
 10 30  1  0  0  0  0
 11 17  1  0  0  0  0
 11 12  1  0  0  0  0
 12 13  1  0  0  0  0
 12 31  1  0  0  0  0
 12 32  1  0  0  0  0
 13 14  1  0  0  0  0
 13 33  1  0  0  0  0
 13 34  1  0  0  0  0
 14 15  1  0  0  0  0
 14 35  1  0  0  0  0
 14 36  1  0  0  0  0
 15 16  1  0  0  0  0
 15 37  1  0  0  0  0
 15 38  1  0  0  0  0
 16 17  1  0  0  0  0
 16 39  1  0  0  0  0
 16 40  1  0  0  0  0
 17 18  2  0  0  0  0
 19 20  1  0  0  0  0
M  END
> <s_m_source_file>
AV-unprocessed.smi

> <i_m_source_file_index>
1221

> <i_lp_mmshare_version>
43012

> <i_f3d_flags>
0

> <s_epik_input>
W0NIM11jMVtjSF1jKG5vMSlbTkhdQyg9TylbTkhdW0NIMl1bQ0gyXU4yW0NIMl1bQ0gyXVtDSDJdW0NIMl1bQ0gyXUMyPU8=

> <s_epik_cmdline>
J2VwaWtfcHl0aG9uJywgJy1waCcsICc3LjAnLCAnLXRuJywgJzgnLCAnLW1hJywgJzIwMCcsICctbWV0YWxfYmluZGluZycsICctaW1hZScsICc8aW5maWxlLm1hZT4nLCAnLW9tYWUnLCAnPG91dGZpbGUubWFlPic=

> <r_lp_tautomer_probability>
1

> <r_epik_Ionization_Penalty>
2.943e-05

> <r_epik_Ionization_Penalty_Charging>
0

> <r_epik_Ionization_Penalty_Neutral>
2.943e-05

> <r_epik_State_Penalty>
-0

> <r_epik_Charging_Adjusted_Penalty>
0

> <i_epik_Tot_Q>
0

> <i_epik_Tot_abs_Q>
0

> <r_epik_Metal_State_Penalty>
0.0104721

> <b_epik_Metal_Only>
0

> <s_lp_Force_Field>
OPLS_2005

> <r_lp_Energy>
18.1231

> <b_lp_Chiralities_Consistent>
1

> <s_lp_Variant>
AV-unprocessed.smi:1221-1

> <Gold.Version>
5.8.1

> <Gold.Id.Protein>
6NUR|6NUR_protein|mol2

> <Gold.PLP.Fitness>
42.1734

> <Gold.PLP.PLP>
-36.8632

> <Gold.PLP.part.hbond>
-2.4702

> <Gold.PLP.part.metal>
0.0000

> <Gold.PLP.part.buried>
-7.5243

> <Gold.PLP.part.nonpolar>
-28.3231

> <Gold.PLP.part.repulsive>
0.5455

> <Gold.PLP.ligand.clash>
0.0000

> <Gold.PLP.ligand.torsion>
0.3493

> <Gold.PLP.Chemscore.Hbond>
2.0000

> <Gold.PLP.Chemscore.CHOScore>
0.0000

> <Gold.PLP.Chemscore.Metal>
0.0000

> <Gold.Chemscore.Hbonds>
donor molecule, donor type, donor heavy atom, donor atom, acceptor molecule, acceptor atom, score
      L1  H     5    25       P1  8028  1.00
      L1  H     8    26       P1  8028  1.00

> <Gold.PLP.Chemscore.Internal.Correction>
0.0089

> <Gold.Rescore>
     Score         DG    S(hbond)    S(metal)    S(lipo)     H(rot)  DE(clash)    DE(int)     intcor
     12.89     -14.66       1.92        0.00      59.32       1.63       0.02       1.75       ----

> <Gold.Chemscore.Fitness>
12.8945

> <Gold.Chemscore.DG>
-14.6612

> <Gold.Chemscore.ZeroCoef>
-5.4800

> <Gold.Chemscore.Hbond>
1.9175

> <Gold.Chemscore.Metal>
0.0000

> <Gold.Chemscore.Lipo>
59.3246

> <Gold.Chemscore.Internal_Hbond>
0.0000

> <Gold.Chemscore.DEClash>
0.0175

> <Gold.Chemscore.DEInternal>
1.7492

> <Gold.Chemscore.Rot>
1.6266

> <Gold.Chemscore.Internal.Correction>
   9.000000E+99

> <Gold.Chemscore.Hbonds>
donor molecule, donor type, donor heavy atom, donor atom, acceptor molecule, acceptor atom, score
      L1  H     5    25       P1  8028  0.98
      L1  H     8    26       P1  8028  0.96

> <Gold.Chemscore.Hbond.Weighted>
-6.4043

> <Gold.Chemscore.Metal.Weighted>
-0.0000

> <Gold.Chemscore.Lipo.Weighted>
-6.9410

> <Gold.Chemscore.Internal_Hbond.Weighted>
0.0000

> <Gold.Chemscore.DEClash.Weighted>
0.0175

> <Gold.Chemscore.DEInternal.Weighted>
1.7492

> <Gold.Chemscore.Rot.Weighted>
4.1641

> <Gold.Chemscore.Internal.Correction.Weighted>
   9.000000E+99

> <Gold.Protein.RotatedTorsions>
[ 6907 6896 6895 6894 ] final   93.33 input  -60.11 | X-H torsion
[ 7974 7965 7964 7962 ] final  104.22 input  175.53 | X-H torsion
[ 8008 7997 7996 7995 ] final  -60.52 input   59.86 | X-H torsion
[ 10167 10162 10161 10158 ] final  163.87 input  -65.29 | X-H torsion
[ 10718 10713 10712 10709 ] final   96.46 input   66.30 | X-H torsion
[ 10763 10752 10751 10750 ] final  177.83 input  -60.55 | X-H torsion
[ 11005 11000 10999 10996 ] final  -11.44 input  -57.11 | X-H torsion

> <Gold.Protein.ActiveResidues>
 VAL166  LYS551  ARG553  GLY616  TRP617  ASP618  TYR619  PRO620  LYS621  CYS622 
 ASP623  PHE694  ASN695  SER759  ASP760  ASP761  ALA762  ILE779  LEU786  VAL792 
 PHE793  MET794  SER795  GLU796  ALA797  LYS798  CYS799  TRP800  GLU811  SER814 

> <Gold.Protein.RotatedAtoms>
  152.5452  134.1364  159.8460 H   0  0  0  0  0  0  0  0  0  0  0  0  # atno 6907 bound_to 6896
  151.1404  133.4968  159.2604 H   0  0  0  0  0  0  0  0  0  0  0  0  # atno 6908 bound_to 6896
  151.1579  135.0269  159.8752 H   0  0  0  0  0  0  0  0  0  0  0  0  # atno 6909 bound_to 6896
  145.3356  139.2475  143.3637 H   0  0  0  0  0  0  0  0  0  0  0  0  # atno 7974 bound_to 7965
  154.4402  140.1038  156.6286 H   0  0  0  0  0  0  0  0  0  0  0  0  # atno 8008 bound_to 7997
  155.5629  140.3488  155.4477 H   0  0  0  0  0  0  0  0  0  0  0  0  # atno 8009 bound_to 7997
  156.0446  140.1290  157.0107 H   0  0  0  0  0  0  0  0  0  0  0  0  # atno 8010 bound_to 7997
  139.4880  144.4293  151.9091 H   0  0  0  0  0  0  0  0  0  0  0  0  # atno 10167 bound_to 10162
  157.6926  131.0578  150.4495 H   0  0  0  0  0  0  0  0  0  0  0  0  # atno 10718 bound_to 10713
  154.4997  135.2783  155.1430 H   0  0  0  0  0  0  0  0  0  0  0  0  # atno 10763 bound_to 10752
  154.3069  135.6237  153.5452 H   0  0  0  0  0  0  0  0  0  0  0  0  # atno 10764 bound_to 10752
  152.9900  135.5710  154.5437 H   0  0  0  0  0  0  0  0  0  0  0  0  # atno 10765 bound_to 10752
  140.7552  133.8559  155.9078 H   0  0  0  0  0  0  0  0  0  0  0  0  # atno 11005 bound_to 11000
  146.3028  140.3942  142.8698 LP  0  0  0  0  0  0  0  0  0  0  0  0  # atno 17320 bound_to 7965
  144.8830  140.7425  143.5974 LP  0  0  0  0  0  0  0  0  0  0  0  0  # atno 17321 bound_to 7965
  140.3740  144.2820  150.5916 LP  0  0  0  0  0  0  0  0  0  0  0  0  # atno 17342 bound_to 10162
  140.5293  143.2247  151.8264 LP  0  0  0  0  0  0  0  0  0  0  0  0  # atno 17343 bound_to 10162
  156.4847  130.4081  149.6441 LP  0  0  0  0  0  0  0  0  0  0  0  0  # atno 17370 bound_to 10713
  156.3474  130.7414  151.2368 LP  0  0  0  0  0  0  0  0  0  0  0  0  # atno 17371 bound_to 10713
  140.9714  134.1526  157.4573 LP  0  0  0  0  0  0  0  0  0  0  0  0  # atno 17394 bound_to 11000
  139.8780  134.9979  156.5874 LP  0  0  0  0  0  0  0  0  0  0  0  0  # atno 17395 bound_to 11000

$$$$
