AV-unprocessed.smi:100|AV-procd|sdf|898|dock8
  -GOLD-   2262017393D 1   1.00000     0.00000
 Structure written by MMmdl.
 31 33  0  0  0  0  0  0  0  0  1 V2000
  144.9131  133.6276  155.3048 N   0  0  0  0  0  0  0  0  0  0  0  0
  144.7993  134.9421  155.0697 C   0  0  0  0  0  0  0  0  0  0  0  0
  143.6328  135.4061  154.5636 N   0  0  0  0  0  0  0  0  0  0  0  0
  143.4951  136.7134  154.3203 C   0  0  0  0  0  0  0  0  0  0  0  0
  144.3799  137.6958  154.5092 N   0  0  0  0  0  0  0  0  0  0  0  0
  145.5566  137.2269  155.0185 C   0  0  0  0  0  0  0  0  0  0  0  0
  145.8423  135.8676  155.3267 C   0  0  0  0  0  0  0  0  0  0  0  0
  147.1307  135.7570  155.8309 N   0  0  0  0  0  0  0  0  0  0  0  0
  147.5783  136.9839  155.8193 C   0  0  0  0  0  0  0  0  0  0  0  0
  146.6977  137.9329  155.3477 N   0  0  0  0  0  0  0  0  0  0  0  0
  146.9358  139.4070  155.2246 C   0  0  1  0  0  0  0  0  0  0  0  0
  148.1828  139.7326  155.7526 O   0  0  0  0  0  0  0  0  0  0  0  0
  148.7896  140.7920  155.0072 C   0  0  1  0  0  0  0  0  0  0  0  0
  150.1443  140.2988  154.4700 C   0  0  0  0  0  0  0  0  0  0  0  0
  149.9484  139.2417  153.5553 O   0  0  0  0  0  0  0  0  0  0  0  0
  147.7970  141.1313  153.8820 C   0  0  2  0  0  0  0  0  0  0  0  0
  147.0487  142.1727  154.2510 F   0  0  0  0  0  0  0  0  0  0  0  0
  146.9136  139.9033  153.7768 C   0  0  1  0  0  0  0  0  0  0  0  0
  147.4217  138.9750  152.8362 O   0  0  0  0  0  0  0  0  0  0  0  0
  145.7734  133.2572  155.6828 H   0  0  0  0  0  0  0  0  0  0  0  0
  144.1405  133.0104  155.1011 H   0  0  0  0  0  0  0  0  0  0  0  0
  142.5402  137.0165  153.9169 H   0  0  0  0  0  0  0  0  0  0  0  0
  148.5728  137.2333  156.1596 H   0  0  0  0  0  0  0  0  0  0  0  0
  146.1620  139.8724  155.8376 H   0  0  0  0  0  0  0  0  0  0  0  0
  148.9384  141.6652  155.6447 H   0  0  0  0  0  0  0  0  0  0  0  0
  150.7132  141.1040  154.0068 H   0  0  0  0  0  0  0  0  0  0  0  0
  150.7527  139.9074  155.2856 H   0  0  0  0  0  0  0  0  0  0  0  0
  149.5241  139.5865  152.7846 H   0  0  0  0  0  0  0  0  0  0  0  0
  148.2713  141.4094  152.9400 H   0  0  0  0  0  0  0  0  0  0  0  0
  145.8911  140.1511  153.4890 H   0  0  0  0  0  0  0  0  0  0  0  0
  148.0957  139.4025  152.3298 H   0  0  0  0  0  0  0  0  0  0  0  0
  1  2  1  0  0  0  0
  1 20  1  0  0  0  0
  1 21  1  0  0  0  0
  2  7  1  0  0  0  0
  2  3  2  0  0  0  0
  3  4  1  0  0  0  0
  4  5  2  0  0  0  0
  4 22  1  0  0  0  0
  5  6  1  0  0  0  0
  6 10  1  0  0  0  0
  6  7  2  0  0  0  0
  7  8  1  0  0  0  0
  8  9  2  0  0  0  0
  9 10  1  0  0  0  0
  9 23  1  0  0  0  0
 10 11  1  0  0  0  0
 11 18  1  0  0  0  0
 11 12  1  0  0  0  0
 11 24  1  0  0  0  0
 12 13  1  0  0  0  0
 13 14  1  0  0  0  0
 13 16  1  0  0  0  0
 13 25  1  0  0  0  0
 14 15  1  0  0  0  0
 14 26  1  0  0  0  0
 14 27  1  0  0  0  0
 15 28  1  0  0  0  0
 16 17  1  0  0  0  0
 16 18  1  0  0  0  0
 16 29  1  0  0  0  0
 18 19  1  0  0  0  0
 18 30  1  0  0  0  0
 19 31  1  0  0  0  0
M  END
> <s_m_source_file>
AV-unprocessed.smi

> <i_m_source_file_index>
100

> <i_lp_mmshare_version>
43012

> <i_f3d_flags>
0

> <s_epik_input>
bjFbY0hdbmMoW05IMl0pYyhjMTIpbltjSF1uMltDQEBIXTNPW0NAQEhdKFtDSDJdW09IXSlbQ0BIXShGKVtDQEhdM1tPSF0=

> <s_epik_cmdline>
J2VwaWtfcHl0aG9uJywgJy1waCcsICc3LjAnLCAnLXRuJywgJzgnLCAnLW1hJywgJzIwMCcsICctbWV0YWxfYmluZGluZycsICctaW1hZScsICc8aW5maWxlLm1hZT4nLCAnLW9tYWUnLCAnPG91dGZpbGUubWFlPic=

> <r_lp_tautomer_probability>
1

> <r_epik_Ionization_Penalty>
0.000750324

> <r_epik_Ionization_Penalty_Charging>
0

> <r_epik_Ionization_Penalty_Neutral>
0.000750324

> <r_epik_State_Penalty>
-0

> <r_epik_Charging_Adjusted_Penalty>
0

> <i_epik_Tot_Q>
0

> <i_epik_Tot_abs_Q>
0

> <r_epik_Metal_State_Penalty>
-0

> <b_epik_Metal_Only>
0

> <s_epik_Chemistry_Notes>
This compound contains an acetal/aminal-like group ( X-CH(R)-Y where X, Y are N, S, or O) that may be acid/base labile, releasing an aldehyde.

> <s_lp_Force_Field>
OPLS_2005

> <r_lp_Energy>
37.0589

> <b_lp_Chiralities_Consistent>
1

> <s_lp_Variant>
AV-unprocessed.smi:100-2

> <Gold.Version>
5.8.1

> <Gold.Id.Protein>
6NUR|6NUR_protein|mol2

> <Gold.PLP.Fitness>
25.6373

> <Gold.PLP.PLP>
-16.8169

> <Gold.PLP.part.hbond>
-3.7363

> <Gold.PLP.part.metal>
0.0000

> <Gold.PLP.part.buried>
-0.9302

> <Gold.PLP.part.nonpolar>
-13.1197

> <Gold.PLP.part.repulsive>
0.1878

> <Gold.PLP.ligand.clash>
0.0000

> <Gold.PLP.ligand.torsion>
0.0552

> <Gold.PLP.Chemscore.Hbond>
2.9760

> <Gold.PLP.Chemscore.CHOScore>
0.0000

> <Gold.PLP.Chemscore.Metal>
0.0000

> <Gold.Chemscore.Hbonds>
donor molecule, donor type, donor heavy atom, donor atom, acceptor molecule, acceptor atom, score
      L1  H     1    21       P1 10957  1.00
      L1  H    15    28       P1  7957  0.98
      L1  H    19    31       P1  7957  1.00

> <Gold.PLP.Chemscore.Internal.Correction>
0.0029

> <Gold.Rescore>
     Score         DG    S(hbond)    S(metal)    S(lipo)     H(rot)  DE(clash)    DE(int)     intcor
     10.05     -10.29       2.99        0.00      25.63       3.19       0.20       0.04       ----

> <Gold.Chemscore.Fitness>
10.0451

> <Gold.Chemscore.DG>
-10.2915

> <Gold.Chemscore.ZeroCoef>
-5.4800

> <Gold.Chemscore.Hbond>
2.9879

> <Gold.Chemscore.Metal>
0.0000

> <Gold.Chemscore.Lipo>
25.6290

> <Gold.Chemscore.Internal_Hbond>
0.0000

> <Gold.Chemscore.DEClash>
0.2047

> <Gold.Chemscore.DEInternal>
0.0417

> <Gold.Chemscore.Rot>
3.1901

> <Gold.Chemscore.Internal.Correction>
   9.000000E+99

> <Gold.Chemscore.Hbonds>
donor molecule, donor type, donor heavy atom, donor atom, acceptor molecule, acceptor atom, score
      L1  H     1    21       P1 10957  0.99
      L1  H    15    28       P1  7957  0.93
      L1  H    19    31       P1  7957  0.96

> <Gold.Chemscore.Hbond.Weighted>
-9.9796

> <Gold.Chemscore.Metal.Weighted>
-0.0000

> <Gold.Chemscore.Lipo.Weighted>
-2.9986

> <Gold.Chemscore.Internal_Hbond.Weighted>
0.0000

> <Gold.Chemscore.DEClash.Weighted>
0.2047

> <Gold.Chemscore.DEInternal.Weighted>
0.0417

> <Gold.Chemscore.Rot.Weighted>
8.1667

> <Gold.Chemscore.Internal.Correction.Weighted>
   9.000000E+99

> <Gold.Protein.RotatedTorsions>
[ 6907 6896 6895 6894 ] final   43.95 input  -60.11 | X-H torsion
[ 7974 7965 7964 7962 ] final  127.71 input  175.53 | X-H torsion
[ 8008 7997 7996 7995 ] final   41.58 input   59.86 | X-H torsion
[ 10167 10162 10161 10158 ] final   76.74 input  -65.29 | X-H torsion
[ 10718 10713 10712 10709 ] final -144.64 input   66.30 | X-H torsion
[ 10763 10752 10751 10750 ] final  134.91 input  -60.55 | X-H torsion
[ 11005 11000 10999 10996 ] final    0.55 input  -57.11 | X-H torsion

> <Gold.Protein.ActiveResidues>
 VAL166  LYS551  ARG553  GLY616  TRP617  ASP618  TYR619  PRO620  LYS621  CYS622 
 ASP623  PHE694  ASN695  SER759  ASP760  ASP761  ALA762  ILE779  LEU786  VAL792 
 PHE793  MET794  SER795  GLU796  ALA797  LYS798  CYS799  TRP800  GLU811  SER814 

> <Gold.Protein.RotatedAtoms>
  152.2266  134.8362  160.0478 H   0  0  0  0  0  0  0  0  0  0  0  0  # atno 6907 bound_to 6896
  151.9127  133.3560  159.3877 H   0  0  0  0  0  0  0  0  0  0  0  0  # atno 6908 bound_to 6896
  150.7014  134.4641  159.5438 H   0  0  0  0  0  0  0  0  0  0  0  0  # atno 6909 bound_to 6896
  145.0475  139.3911  143.5071 H   0  0  0  0  0  0  0  0  0  0  0  0  # atno 7974 bound_to 7965
  155.2720  140.3366  155.4264 H   0  0  0  0  0  0  0  0  0  0  0  0  # atno 8008 bound_to 7997
  156.2128  140.1777  156.7697 H   0  0  0  0  0  0  0  0  0  0  0  0  # atno 8009 bound_to 7997
  154.5711  140.0670  156.8950 H   0  0  0  0  0  0  0  0  0  0  0  0  # atno 8010 bound_to 7997
  139.9890  144.5771  150.7834 H   0  0  0  0  0  0  0  0  0  0  0  0  # atno 10167 bound_to 10162
  156.3726  130.7796  151.1978 H   0  0  0  0  0  0  0  0  0  0  0  0  # atno 10718 bound_to 10713
  153.8314  135.3103  155.3419 H   0  0  0  0  0  0  0  0  0  0  0  0  # atno 10763 bound_to 10752
  154.7971  135.4748  154.0191 H   0  0  0  0  0  0  0  0  0  0  0  0  # atno 10764 bound_to 10752
  153.1632  135.6864  153.8804 H   0  0  0  0  0  0  0  0  0  0  0  0  # atno 10765 bound_to 10752
  140.6253  133.9624  155.8246 H   0  0  0  0  0  0  0  0  0  0  0  0  # atno 11005 bound_to 11000
  146.3515  140.0108  142.8667 LP  0  0  0  0  0  0  0  0  0  0  0  0  # atno 17320 bound_to 7965
  145.1569  140.9652  143.4400 LP  0  0  0  0  0  0  0  0  0  0  0  0  # atno 17321 bound_to 7965
  140.7461  143.2886  151.3392 LP  0  0  0  0  0  0  0  0  0  0  0  0  # atno 17342 bound_to 10162
  139.6354  144.0641  152.2511 LP  0  0  0  0  0  0  0  0  0  0  0  0  # atno 17343 bound_to 10162
  157.7485  131.0367  150.4424 LP  0  0  0  0  0  0  0  0  0  0  0  0  # atno 17370 bound_to 10713
  156.4654  130.4041  149.6550 LP  0  0  0  0  0  0  0  0  0  0  0  0  # atno 17371 bound_to 10713
  141.0713  134.0201  157.3521 LP  0  0  0  0  0  0  0  0  0  0  0  0  # atno 17394 bound_to 11000
  139.9137  135.0194  156.7795 LP  0  0  0  0  0  0  0  0  0  0  0  0  # atno 17395 bound_to 11000

$$$$
