AV-unprocessed.smi:2791|AV-procd|sdf|10771|dock8
  -GOLD-   2272015203D 1   1.00000     0.00000
 Structure written by MMmdl.
 35 36  0  0  0  0  0  0  0  0  1 V2000
  146.6928  133.4515  150.7302 C   0  0  0  0  0  0  0  0  0  0  0  0
  146.4932  134.6996  151.3808 O   0  0  0  0  0  0  0  0  0  0  0  0
  145.2122  134.8946  151.9812 C   0  0  0  0  0  0  0  0  0  0  0  0
  145.1598  136.1829  152.8140 C   0  0  0  0  0  0  0  0  0  0  0  0
  146.4846  136.7778  152.9272 N   0  0  0  0  0  0  0  0  0  0  0  0
  146.7458  137.9282  153.5603 C   0  0  0  0  0  0  0  0  0  0  0  0
  145.8808  138.6045  154.1174 O   0  0  0  0  0  0  0  0  0  0  0  0
  148.0542  138.2304  153.4970 N   0  0  0  0  0  0  0  0  0  0  0  0
  148.7027  139.3091  154.0113 C   0  0  0  0  0  0  0  0  0  0  0  0
  148.2271  140.5722  154.2365 C   0  0  0  0  0  0  0  0  0  0  0  0
  149.3624  141.2355  154.7842 C   0  0  0  0  0  0  0  0  0  0  0  0
  150.4264  140.4483  154.8849 N   0  0  0  0  0  0  0  0  0  0  0  0
  150.0213  139.2514  154.4071 N   0  0  0  0  0  0  0  0  0  0  0  0
  150.9455  138.1348  154.3681 C   0  0  0  0  0  0  0  0  0  0  0  0
  144.1416  134.7034  150.8901 C   0  0  0  0  0  0  0  0  0  0  0  0
  143.3573  133.8258  151.8672 C   0  0  0  0  0  0  0  0  0  0  0  0
  144.6780  133.5878  152.6013 C   0  0  0  0  0  0  0  0  0  0  0  0
  147.6535  133.4661  150.2161 H   0  0  0  0  0  0  0  0  0  0  0  0
  145.9222  133.2506  149.9856 H   0  0  0  0  0  0  0  0  0  0  0  0
  146.7182  132.6249  151.4400 H   0  0  0  0  0  0  0  0  0  0  0  0
  144.4908  136.9069  152.3464 H   0  0  0  0  0  0  0  0  0  0  0  0
  144.7522  135.9975  153.8083 H   0  0  0  0  0  0  0  0  0  0  0  0
  147.2481  136.2762  152.4975 H   0  0  0  0  0  0  0  0  0  0  0  0
  148.6363  137.5794  152.9908 H   0  0  0  0  0  0  0  0  0  0  0  0
  147.2423  140.9732  154.0514 H   0  0  0  0  0  0  0  0  0  0  0  0
  149.4449  142.2610  155.1124 H   0  0  0  0  0  0  0  0  0  0  0  0
  151.0181  137.7548  153.3487 H   0  0  0  0  0  0  0  0  0  0  0  0
  150.5855  137.3390  155.0202 H   0  0  0  0  0  0  0  0  0  0  0  0
  151.9372  138.4444  154.7007 H   0  0  0  0  0  0  0  0  0  0  0  0
  143.6233  135.6137  150.5871 H   0  0  0  0  0  0  0  0  0  0  0  0
  144.5027  134.1442  150.0249 H   0  0  0  0  0  0  0  0  0  0  0  0
  142.6363  134.3903  152.4609 H   0  0  0  0  0  0  0  0  0  0  0  0
  142.9117  132.9341  151.4255 H   0  0  0  0  0  0  0  0  0  0  0  0
  145.1953  132.6952  152.2445 H   0  0  0  0  0  0  0  0  0  0  0  0
  144.5980  133.5963  153.6888 H   0  0  0  0  0  0  0  0  0  0  0  0
  1  2  1  0  0  0  0
  1 18  1  0  0  0  0
  1 19  1  0  0  0  0
  1 20  1  0  0  0  0
  2  3  1  0  0  0  0
  3 17  1  0  0  0  0
  3  4  1  0  0  0  0
  3 15  1  0  0  0  0
  4  5  1  0  0  0  0
  4 21  1  0  0  0  0
  4 22  1  0  0  0  0
  5  6  1  0  0  0  0
  5 23  1  0  0  0  0
  6  7  2  0  0  0  0
  6  8  1  0  0  0  0
  8  9  1  0  0  0  0
  8 24  1  0  0  0  0
  9 13  1  0  0  0  0
  9 10  2  0  0  0  0
 10 11  1  0  0  0  0
 10 25  1  0  0  0  0
 11 12  2  0  0  0  0
 11 26  1  0  0  0  0
 12 13  1  0  0  0  0
 13 14  1  0  0  0  0
 14 27  1  0  0  0  0
 14 28  1  0  0  0  0
 14 29  1  0  0  0  0
 15 16  1  0  0  0  0
 15 30  1  0  0  0  0
 15 31  1  0  0  0  0
 16 17  1  0  0  0  0
 16 32  1  0  0  0  0
 16 33  1  0  0  0  0
 17 34  1  0  0  0  0
 17 35  1  0  0  0  0
M  END
> <s_m_source_file>
AV-unprocessed.smi

> <i_m_source_file_index>
2791

> <i_lp_mmshare_version>
43012

> <i_f3d_flags>
0

> <s_epik_input>
W0NIMl0xW0NIMl1bQ0gyXUMxKE9bQ0gzXSlbQ0gyXVtOSF1DKD1PKVtOSF1jMltjSF1bY0hdbm4yW0NIM10=

> <s_epik_cmdline>
J2VwaWtfcHl0aG9uJywgJy1waCcsICc3LjAnLCAnLXRuJywgJzgnLCAnLW1hJywgJzIwMCcsICctbWV0YWxfYmluZGluZycsICctaW1hZScsICc8aW5maWxlLm1hZT4nLCAnLW9tYWUnLCAnPG91dGZpbGUubWFlPic=

> <r_lp_tautomer_probability>
1

> <r_epik_Ionization_Penalty>
4.34911e-05

> <r_epik_Ionization_Penalty_Charging>
0

> <r_epik_Ionization_Penalty_Neutral>
4.34911e-05

> <r_epik_State_Penalty>
-0

> <r_epik_Charging_Adjusted_Penalty>
0

> <i_epik_Tot_Q>
0

> <i_epik_Tot_abs_Q>
0

> <r_epik_Metal_State_Penalty>
-0

> <b_epik_Metal_Only>
0

> <s_lp_Force_Field>
OPLS_2005

> <r_lp_Energy>
18.0019

> <b_lp_Chiralities_Consistent>
1

> <s_lp_Variant>
AV-unprocessed.smi:2791-1

> <Gold.Version>
5.8.1

> <Gold.Id.Protein>
6NUR|6NUR_protein|mol2

> <Gold.PLP.Fitness>
36.5479

> <Gold.PLP.PLP>
-27.2652

> <Gold.PLP.part.hbond>
-3.1580

> <Gold.PLP.part.metal>
0.0000

> <Gold.PLP.part.buried>
-3.0708

> <Gold.PLP.part.nonpolar>
-22.6494

> <Gold.PLP.part.repulsive>
1.9657

> <Gold.PLP.ligand.clash>
0.0000

> <Gold.PLP.ligand.torsion>
1.3800

> <Gold.PLP.Chemscore.Hbond>
2.9500

> <Gold.PLP.Chemscore.CHOScore>
0.9654

> <Gold.PLP.Chemscore.Metal>
0.0000

> <Gold.Chemscore.Hbonds>
donor molecule, donor type, donor heavy atom, donor atom, acceptor molecule, acceptor atom, score
      L1  H     5    23       P1  7948  1.00
      L1  H     8    24       P1  7948  1.00
      P1  H  7989  7998       L1    12  0.90
      L1  C    11    26       P1  8028  0.89

> <Gold.PLP.Chemscore.Internal.Correction>
0.2965

> <Gold.Rescore>
     Score         DG    S(hbond)    S(metal)    S(lipo)     H(rot)  DE(clash)    DE(int)     intcor
     13.26     -15.37       2.28        0.00      53.11       1.53       0.13       1.99       ----

> <Gold.Chemscore.Fitness>
13.2565

> <Gold.Chemscore.DG>
-15.3688

> <Gold.Chemscore.ZeroCoef>
-5.4800

> <Gold.Chemscore.Hbond>
2.2758

> <Gold.Chemscore.Metal>
0.0000

> <Gold.Chemscore.Lipo>
53.1136

> <Gold.Chemscore.Internal_Hbond>
0.0000

> <Gold.Chemscore.DEClash>
0.1266

> <Gold.Chemscore.DEInternal>
1.9857

> <Gold.Chemscore.Rot>
1.5339

> <Gold.Chemscore.Internal.Correction>
   9.000000E+99

> <Gold.Chemscore.Hbonds>
donor molecule, donor type, donor heavy atom, donor atom, acceptor molecule, acceptor atom, score
      L1  H     5    23       P1  7948  0.95
      L1  H     8    24       P1  7948  0.99
      P1  H  7989  7998       L1    12  0.11

> <Gold.Chemscore.Hbond.Weighted>
-7.6012

> <Gold.Chemscore.Metal.Weighted>
-0.0000

> <Gold.Chemscore.Lipo.Weighted>
-6.2143

> <Gold.Chemscore.Internal_Hbond.Weighted>
0.0000

> <Gold.Chemscore.DEClash.Weighted>
0.1266

> <Gold.Chemscore.DEInternal.Weighted>
1.9857

> <Gold.Chemscore.Rot.Weighted>
3.9267

> <Gold.Chemscore.Internal.Correction.Weighted>
   9.000000E+99

> <Gold.Protein.RotatedTorsions>
[ 6907 6896 6895 6894 ] final  -73.14 input  -60.11 | X-H torsion
[ 7974 7965 7964 7962 ] final   46.50 input  175.53 | X-H torsion
[ 8008 7997 7996 7995 ] final  155.00 input   59.86 | X-H torsion
[ 10167 10162 10161 10158 ] final  113.69 input  -65.29 | X-H torsion
[ 10718 10713 10712 10709 ] final   61.07 input   66.30 | X-H torsion
[ 10763 10752 10751 10750 ] final  169.21 input  -60.55 | X-H torsion
[ 11005 11000 10999 10996 ] final   22.76 input  -57.11 | X-H torsion

> <Gold.Protein.ActiveResidues>
 VAL166  LYS551  ARG553  GLY616  TRP617  ASP618  TYR619  PRO620  LYS621  CYS622 
 ASP623  PHE694  ASN695  SER759  ASP760  ASP761  ALA762  ILE779  LEU786  VAL792 
 PHE793  MET794  SER795  GLU796  ALA797  LYS798  CYS799  TRP800  GLU811  SER814 

> <Gold.Protein.RotatedAtoms>
  150.7142  134.5060  159.5583 H   0  0  0  0  0  0  0  0  0  0  0  0  # atno 6907 bound_to 6896
  152.2647  134.7994  160.0434 H   0  0  0  0  0  0  0  0  0  0  0  0  # atno 6908 bound_to 6896
  151.8695  133.3437  159.3767 H   0  0  0  0  0  0  0  0  0  0  0  0  # atno 6909 bound_to 6896
  146.0384  139.4849  142.9793 H   0  0  0  0  0  0  0  0  0  0  0  0  # atno 7974 bound_to 7965
  156.2502  140.1951  156.6733 H   0  0  0  0  0  0  0  0  0  0  0  0  # atno 8008 bound_to 7997
  154.6376  140.0587  156.9833 H   0  0  0  0  0  0  0  0  0  0  0  0  # atno 8009 bound_to 7997
  155.1612  140.3260  155.4414 H   0  0  0  0  0  0  0  0  0  0  0  0  # atno 8010 bound_to 7997
  139.6443  144.7125  151.2175 H   0  0  0  0  0  0  0  0  0  0  0  0  # atno 10167 bound_to 10162
  157.5800  130.8974  149.9415 H   0  0  0  0  0  0  0  0  0  0  0  0  # atno 10718 bound_to 10713
  154.3799  135.2753  155.2217 H   0  0  0  0  0  0  0  0  0  0  0  0  # atno 10763 bound_to 10752
  154.4328  135.5973  153.6083 H   0  0  0  0  0  0  0  0  0  0  0  0  # atno 10764 bound_to 10752
  152.9835  135.6000  154.4040 H   0  0  0  0  0  0  0  0  0  0  0  0  # atno 10765 bound_to 10752
  140.3771  134.1960  155.7664 H   0  0  0  0  0  0  0  0  0  0  0  0  # atno 11005 bound_to 11000
  145.6925  141.0160  143.1547 LP  0  0  0  0  0  0  0  0  0  0  0  0  # atno 17320 bound_to 7965
  144.7063  139.8549  143.7429 LP  0  0  0  0  0  0  0  0  0  0  0  0  # atno 17321 bound_to 7965
  140.7506  143.6259  150.8469 LP  0  0  0  0  0  0  0  0  0  0  0  0  # atno 17342 bound_to 10162
  139.9899  143.5858  152.2913 LP  0  0  0  0  0  0  0  0  0  0  0  0  # atno 17343 bound_to 10162
  156.0846  130.3669  150.0513 LP  0  0  0  0  0  0  0  0  0  0  0  0  # atno 17370 bound_to 10713
  156.8654  130.9506  151.3614 LP  0  0  0  0  0  0  0  0  0  0  0  0  # atno 17371 bound_to 10713
  141.1936  133.8148  157.0793 LP  0  0  0  0  0  0  0  0  0  0  0  0  # atno 17394 bound_to 11000
  140.0507  134.9807  157.1131 LP  0  0  0  0  0  0  0  0  0  0  0  0  # atno 17395 bound_to 11000

$$$$
