AV-unprocessed.smi:871|AV-procd|sdf|4011|dock9
  -GOLD-   22720 1503D 1   1.00000     0.00000
 Structure written by MMmdl.
 19 19  0  0  0  0  0  0  0  0  2 V2000
  147.9062  142.5973  154.4250 N   0  0  0  0  0  0  0  0  0  0  0  0
  148.3536  141.2936  154.3299 C   0  0  0  0  0  0  0  0  0  0  0  0
  147.7279  140.3822  153.5566 C   0  0  0  0  0  0  0  0  0  0  0  0
  148.2117  139.0258  153.4767 C   0  0  0  0  0  0  0  0  0  0  0  0
  149.3051  138.7014  154.1816 C   0  0  0  0  0  0  0  0  0  0  0  0
  149.9866  139.6414  154.9804 N   0  0  0  0  0  0  0  0  0  0  0  0
  151.1553  139.1479  155.7290 C   0  0  0  0  0  0  0  0  0  0  0  0
  152.2116  138.5345  154.8050 C   0  0  0  0  0  0  0  0  0  0  0  0
  153.2757  139.1734  154.6536 O   0  0  0  0  0  0  0  0  0  0  0  0
  151.9365  137.4395  154.2668 O   0  5  0  0  0  0  0  0  0  0  0  0
  149.5515  140.9334  155.1119 C   0  0  0  0  0  0  0  0  0  0  0  0
  150.1313  141.7455  155.8367 O   0  0  0  0  0  0  0  0  0  0  0  0
  148.3720  143.2821  155.0021 H   0  0  0  0  0  0  0  0  0  0  0  0
  147.0469  142.8904  153.9819 H   0  0  0  0  0  0  0  0  0  0  0  0
  146.8524  140.6642  152.9900 H   0  0  0  0  0  0  0  0  0  0  0  0
  147.7042  138.2899  152.8706 H   0  0  0  0  0  0  0  0  0  0  0  0
  149.7293  137.7073  154.1835 H   0  0  0  0  0  0  0  0  0  0  0  0
  151.6346  139.9161  156.3368 H   0  0  0  0  0  0  0  0  0  0  0  0
  150.8204  138.3910  156.4402 H   0  0  0  0  0  0  0  0  0  0  0  0
  1  2  1  0  0  0  0
  1 13  1  0  0  0  0
  1 14  1  0  0  0  0
  2 11  1  0  0  0  0
  2  3  2  0  0  0  0
  3  4  1  0  0  0  0
  3 15  1  0  0  0  0
  4  5  2  0  0  0  0
  4 16  1  0  0  0  0
  5  6  1  0  0  0  0
  5 17  1  0  0  0  0
  6  7  1  0  0  0  0
  6 11  1  0  0  0  0
  7  8  1  0  0  0  0
  7 18  1  0  0  0  0
  7 19  1  0  0  0  0
  8  9  2  0  0  0  0
  8 10  1  0  0  0  0
 11 12  2  0  0  0  0
M  CHG  1  10  -1
M  END
> <s_m_source_file>
AV-unprocessed.smi

> <i_m_source_file_index>
871

> <i_lp_mmshare_version>
43012

> <i_f3d_flags>
0

> <s_epik_input>
W05IMl1jMVtjSF1bY0hdW2NIXW4oYzE9TylbQ0gyXUMoPU8pW09IXQ==

> <s_epik_cmdline>
J2VwaWtfcHl0aG9uJywgJy1waCcsICc3LjAnLCAnLXRuJywgJzgnLCAnLW1hJywgJzIwMCcsICctbWV0YWxfYmluZGluZycsICctaW1hZScsICc8aW5maWxlLm1hZT4nLCAnLW9tYWUnLCAnPG91dGZpbGUubWFlPic=

> <r_lp_tautomer_probability>
1

> <r_epik_Ionization_Penalty>
0.00200637

> <r_epik_Ionization_Penalty_Charging>
0.0012605

> <r_epik_Ionization_Penalty_Neutral>
0.000745874

> <r_epik_State_Penalty>
-0

> <r_epik_Charging_Adjusted_Penalty>
0.0012605

> <i_epik_Tot_Q>
-1

> <i_epik_Tot_abs_Q>
1

> <r_epik_Metal_State_Penalty>
-0

> <b_epik_Metal_Only>
0

> <s_lp_Force_Field>
OPLS_2005

> <r_lp_Energy>
10.9711

> <b_lp_Chiralities_Consistent>
1

> <s_lp_Variant>
AV-unprocessed.smi:871-1

> <Gold.Version>
5.8.1

> <Gold.Id.Protein>
6NUR|6NUR_protein|mol2

> <Gold.PLP.Fitness>
37.1489

> <Gold.PLP.PLP>
-22.1491

> <Gold.PLP.part.hbond>
-3.4887

> <Gold.PLP.part.metal>
0.0000

> <Gold.PLP.part.buried>
-1.5825

> <Gold.PLP.part.nonpolar>
-19.3820

> <Gold.PLP.part.repulsive>
0.4834

> <Gold.PLP.ligand.clash>
0.0000

> <Gold.PLP.ligand.torsion>
0.1261

> <Gold.PLP.Chemscore.Hbond>
4.9200

> <Gold.PLP.Chemscore.CHOScore>
0.1622

> <Gold.PLP.Chemscore.Metal>
0.0000

> <Gold.Chemscore.Hbonds>
donor molecule, donor type, donor heavy atom, donor atom, acceptor molecule, acceptor atom, score
      L1  H     1    13       P1  8028  1.00
      P1  H  7997  8009       L1     9  2.00
      P1  H 10752 10765       L1    10  1.92
      L1  C     5    17       P1  7948  0.16

> <Gold.PLP.Chemscore.Internal.Correction>
0.0055

> <Gold.Rescore>
     Score         DG    S(hbond)    S(metal)    S(lipo)     H(rot)  DE(clash)    DE(int)     intcor
     13.30     -14.63       2.87        0.00      31.02       1.58       0.01       1.31       ----

> <Gold.Chemscore.Fitness>
13.3016

> <Gold.Chemscore.DG>
-14.6254

> <Gold.Chemscore.ZeroCoef>
-5.4800

> <Gold.Chemscore.Hbond>
2.8656

> <Gold.Chemscore.Metal>
0.0000

> <Gold.Chemscore.Lipo>
31.0219

> <Gold.Chemscore.Internal_Hbond>
0.0000

> <Gold.Chemscore.DEClash>
0.0108

> <Gold.Chemscore.DEInternal>
1.3131

> <Gold.Chemscore.Rot>
1.5841

> <Gold.Chemscore.Internal.Correction>
   9.000000E+99

> <Gold.Chemscore.Hbonds>
donor molecule, donor type, donor heavy atom, donor atom, acceptor molecule, acceptor atom, score
      L1  H     1    13       P1  8028  0.99
      P1  H  7997  8009       L1     9  0.90
      P1  H 10752 10765       L1    10  0.86

> <Gold.Chemscore.Hbond.Weighted>
-9.5712

> <Gold.Chemscore.Metal.Weighted>
-0.0000

> <Gold.Chemscore.Lipo.Weighted>
-3.6296

> <Gold.Chemscore.Internal_Hbond.Weighted>
0.0000

> <Gold.Chemscore.DEClash.Weighted>
0.0108

> <Gold.Chemscore.DEInternal.Weighted>
1.3131

> <Gold.Chemscore.Rot.Weighted>
4.0554

> <Gold.Chemscore.Internal.Correction.Weighted>
   9.000000E+99

> <Gold.Protein.RotatedTorsions>
[ 6907 6896 6895 6894 ] final  153.36 input  -60.11 | X-H torsion
[ 7974 7965 7964 7962 ] final   62.03 input  175.53 | X-H torsion
[ 8008 7997 7996 7995 ] final -145.63 input   59.86 | X-H torsion
[ 10167 10162 10161 10158 ] final  146.18 input  -65.29 | X-H torsion
[ 10718 10713 10712 10709 ] final  -76.57 input   66.30 | X-H torsion
[ 10763 10752 10751 10750 ] final  159.18 input  -60.55 | X-H torsion
[ 11005 11000 10999 10996 ] final   33.20 input  -57.11 | X-H torsion

> <Gold.Protein.ActiveResidues>
 VAL166  LYS551  ARG553  GLY616  TRP617  ASP618  TYR619  PRO620  LYS621  CYS622 
 ASP623  PHE694  ASN695  SER759  ASP760  ASP761  ALA762  ILE779  LEU786  VAL792 
 PHE793  MET794  SER795  GLU796  ALA797  LYS798  CYS799  TRP800  GLU811  SER814 

> <Gold.Protein.RotatedAtoms>
  152.0738  133.4119  159.4470 H   0  0  0  0  0  0  0  0  0  0  0  0  # atno 6907 bound_to 6896
  150.6863  134.3061  159.4736 H   0  0  0  0  0  0  0  0  0  0  0  0  # atno 6908 bound_to 6896
  152.0895  134.9416  160.0623 H   0  0  0  0  0  0  0  0  0  0  0  0  # atno 6909 bound_to 6896
  145.8780  139.3424  143.0723 H   0  0  0  0  0  0  0  0  0  0  0  0  # atno 7974 bound_to 7965
  155.5463  140.0612  157.2859 H   0  0  0  0  0  0  0  0  0  0  0  0  # atno 8008 bound_to 7997
  154.4435  140.1910  156.0686 H   0  0  0  0  0  0  0  0  0  0  0  0  # atno 8009 bound_to 7997
  156.0548  140.3280  155.7397 H   0  0  0  0  0  0  0  0  0  0  0  0  # atno 8010 bound_to 7997
  139.4912  144.5848  151.6800 H   0  0  0  0  0  0  0  0  0  0  0  0  # atno 10167 bound_to 10162
  156.0171  130.4469  150.3213 H   0  0  0  0  0  0  0  0  0  0  0  0  # atno 10718 bound_to 10713
  154.2278  135.2779  155.2901 H   0  0  0  0  0  0  0  0  0  0  0  0  # atno 10763 bound_to 10752
  154.5649  135.5636  153.7045 H   0  0  0  0  0  0  0  0  0  0  0  0  # atno 10764 bound_to 10752
  153.0027  135.6307  154.2419 H   0  0  0  0  0  0  0  0  0  0  0  0  # atno 10765 bound_to 10752
  140.2655  134.3142  155.7844 H   0  0  0  0  0  0  0  0  0  0  0  0  # atno 11005 bound_to 11000
  145.9057  140.9213  143.0480 LP  0  0  0  0  0  0  0  0  0  0  0  0  # atno 17320 bound_to 7965
  144.6726  140.1093  143.7456 LP  0  0  0  0  0  0  0  0  0  0  0  0  # atno 17321 bound_to 7965
  140.5461  144.0500  150.6108 LP  0  0  0  0  0  0  0  0  0  0  0  0  # atno 17342 bound_to 10162
  140.3539  143.2947  152.0457 LP  0  0  0  0  0  0  0  0  0  0  0  0  # atno 17343 bound_to 10162
  157.1313  131.0272  151.2968 LP  0  0  0  0  0  0  0  0  0  0  0  0  # atno 17370 bound_to 10713
  157.4548  130.7619  149.7183 LP  0  0  0  0  0  0  0  0  0  0  0  0  # atno 17371 bound_to 10713
  141.2184  133.7435  156.9254 LP  0  0  0  0  0  0  0  0  0  0  0  0  # atno 17394 bound_to 11000
  140.1423  134.9285  157.2483 LP  0  0  0  0  0  0  0  0  0  0  0  0  # atno 17395 bound_to 11000

$$$$
