AV-unprocessed.smi:2548|AV-procd|sdf|10007|dock1
  -GOLD-   2272014 53D 1   1.00000     0.00000
 Structure written by MMmdl.
 44 45  0  0  0  0  0  0  0  0  1 V2000
  143.2728  132.6246  150.8001 C   0  0  0  0  0  0  0  0  0  0  0  0
  143.9293  133.7499  151.5246 C   0  0  0  0  0  0  0  0  0  0  0  0
  144.6430  134.8237  151.0724 C   0  0  0  0  0  0  0  0  0  0  0  0
  144.9985  135.5362  152.2563 C   0  0  0  0  0  0  0  0  0  0  0  0
  145.7985  136.8092  152.3694 C   0  0  0  0  0  0  0  0  0  0  0  0
  146.2109  137.1049  153.8169 C   0  0  0  0  0  0  0  0  0  0  0  0
  145.3669  137.3289  154.6860 O   0  0  0  0  0  0  0  0  0  0  0  0
  147.5308  137.0846  154.0622 N   0  0  0  0  0  0  0  0  0  0  0  0
  148.1657  137.3210  155.3591 C   0  0  0  0  0  0  0  0  0  0  0  0
  149.7079  137.0888  155.3569 C   0  0  0  0  0  0  0  0  0  0  0  0
  149.9826  135.6309  154.9180 C   0  0  0  0  0  0  0  0  0  0  0  0
  150.4045  138.0056  154.3096 C   0  0  0  0  0  0  0  0  0  0  0  0
  150.2114  139.5286  154.4664 C   0  0  0  0  0  0  0  0  0  0  0  0
  151.1937  140.2392  155.4129 C   0  0  0  0  0  0  0  0  0  0  0  0
  151.4978  139.5433  156.7500 C   0  0  0  0  0  0  0  0  0  0  0  0
  150.3578  138.6973  157.3377 C   0  0  0  0  0  0  0  0  0  0  0  0
  150.3268  137.2660  156.7689 C   0  0  0  0  0  0  0  0  0  0  0  0
  144.5477  134.9451  153.3543 N   0  0  0  0  0  0  0  0  0  0  0  0
  143.8949  133.8615  152.8953 N   0  0  0  0  0  0  0  0  0  0  0  0
  143.4380  133.2138  153.5213 H   0  0  0  0  0  0  0  0  0  0  0  0
  143.5104  132.6550  149.7366 H   0  0  0  0  0  0  0  0  0  0  0  0
  142.1891  132.6767  150.9054 H   0  0  0  0  0  0  0  0  0  0  0  0
  143.6061  131.6634  151.1917 H   0  0  0  0  0  0  0  0  0  0  0  0
  144.8754  135.0689  150.0465 H   0  0  0  0  0  0  0  0  0  0  0  0
  146.6997  136.7559  151.7571 H   0  0  0  0  0  0  0  0  0  0  0  0
  145.2135  137.6461  151.9859 H   0  0  0  0  0  0  0  0  0  0  0  0
  148.1483  136.8839  153.2889 H   0  0  0  0  0  0  0  0  0  0  0  0
  147.9561  138.3559  155.6315 H   0  0  0  0  0  0  0  0  0  0  0  0
  147.6672  136.7171  156.1152 H   0  0  0  0  0  0  0  0  0  0  0  0
  151.0518  135.4405  154.8166 H   0  0  0  0  0  0  0  0  0  0  0  0
  149.5220  135.4105  153.9543 H   0  0  0  0  0  0  0  0  0  0  0  0
  149.5989  134.9061  155.6367 H   0  0  0  0  0  0  0  0  0  0  0  0
  151.4721  137.7851  154.2673 H   0  0  0  0  0  0  0  0  0  0  0  0
  150.0201  137.7349  153.3249 H   0  0  0  0  0  0  0  0  0  0  0  0
  150.3310  139.9856  153.4835 H   0  0  0  0  0  0  0  0  0  0  0  0
  149.1907  139.7719  154.7517 H   0  0  0  0  0  0  0  0  0  0  0  0
  152.1381  140.4042  154.8928 H   0  0  0  0  0  0  0  0  0  0  0  0
  150.7985  141.2350  155.6160 H   0  0  0  0  0  0  0  0  0  0  0  0
  152.3873  138.9220  156.6397 H   0  0  0  0  0  0  0  0  0  0  0  0
  151.7777  140.3113  157.4722 H   0  0  0  0  0  0  0  0  0  0  0  0
  150.5320  138.6138  158.4110 H   0  0  0  0  0  0  0  0  0  0  0  0
  149.3956  139.1997  157.2390 H   0  0  0  0  0  0  0  0  0  0  0  0
  149.7965  136.6293  157.4767 H   0  0  0  0  0  0  0  0  0  0  0  0
  151.3449  136.8745  156.7687 H   0  0  0  0  0  0  0  0  0  0  0  0
  1  2  1  0  0  0  0
  1 21  1  0  0  0  0
  1 22  1  0  0  0  0
  1 23  1  0  0  0  0
  2 19  1  0  0  0  0
  2  3  2  0  0  0  0
  3  4  1  0  0  0  0
  3 24  1  0  0  0  0
  4  5  1  0  0  0  0
  4 18  2  0  0  0  0
  5  6  1  0  0  0  0
  5 25  1  0  0  0  0
  5 26  1  0  0  0  0
  6  7  2  0  0  0  0
  6  8  1  0  0  0  0
  8  9  1  0  0  0  0
  8 27  1  0  0  0  0
  9 10  1  0  0  0  0
  9 28  1  0  0  0  0
  9 29  1  0  0  0  0
 10 17  1  0  0  0  0
 10 11  1  0  0  0  0
 10 12  1  0  0  0  0
 11 30  1  0  0  0  0
 11 31  1  0  0  0  0
 11 32  1  0  0  0  0
 12 13  1  0  0  0  0
 12 33  1  0  0  0  0
 12 34  1  0  0  0  0
 13 14  1  0  0  0  0
 13 35  1  0  0  0  0
 13 36  1  0  0  0  0
 14 15  1  0  0  0  0
 14 37  1  0  0  0  0
 14 38  1  0  0  0  0
 15 16  1  0  0  0  0
 15 39  1  0  0  0  0
 15 40  1  0  0  0  0
 16 17  1  0  0  0  0
 16 41  1  0  0  0  0
 16 42  1  0  0  0  0
 17 43  1  0  0  0  0
 17 44  1  0  0  0  0
 18 19  1  0  0  0  0
 19 20  1  0  0  0  0
M  END
> <s_m_source_file>
AV-unprocessed.smi

> <i_m_source_file_index>
2548

> <i_lp_mmshare_version>
43012

> <i_f3d_flags>
0

> <s_epik_input>
W0NIM11jMVtjSF1jKG5bbkhdMSlbQ0gyXUMoPU8pW05IXVtDSDJdQzIoW0NIM10pW0NIMl1bQ0gyXVtDSDJdW0NIMl1bQ0gyXVtDSDJdMg==

> <s_epik_cmdline>
J2VwaWtfcHl0aG9uJywgJy1waCcsICc3LjAnLCAnLXRuJywgJzgnLCAnLW1hJywgJzIwMCcsICctbWV0YWxfYmluZGluZycsICctaW1hZScsICc8aW5maWxlLm1hZT4nLCAnLW9tYWUnLCAnPG91dGZpbGUubWFlPic=

> <r_lp_tautomer_probability>
0.5

> <r_epik_Ionization_Penalty>
8.42262e-05

> <r_epik_Ionization_Penalty_Charging>
0

> <r_epik_Ionization_Penalty_Neutral>
8.42262e-05

> <r_epik_State_Penalty>
0.41068

> <r_epik_Charging_Adjusted_Penalty>
0.41068

> <i_epik_Tot_Q>
0

> <i_epik_Tot_abs_Q>
0

> <r_epik_Metal_State_Penalty>
0.410698

> <b_epik_Metal_Only>
0

> <s_lp_Force_Field>
OPLS_2005

> <r_lp_Energy>
22.9227

> <b_lp_Chiralities_Consistent>
1

> <s_lp_Variant>
AV-unprocessed.smi:2548-1

> <Gold.Version>
5.8.1

> <Gold.Id.Protein>
6NUR|6NUR_protein|mol2

> <Gold.PLP.Fitness>
32.1311

> <Gold.PLP.PLP>
-26.4195

> <Gold.PLP.part.hbond>
-2.0000

> <Gold.PLP.part.metal>
0.0000

> <Gold.PLP.part.buried>
-1.8222

> <Gold.PLP.part.nonpolar>
-22.6023

> <Gold.PLP.part.repulsive>
0.1022

> <Gold.PLP.ligand.clash>
0.0000

> <Gold.PLP.ligand.torsion>
0.1575

> <Gold.PLP.Chemscore.Hbond>
2.0000

> <Gold.PLP.Chemscore.CHOScore>
0.0000

> <Gold.PLP.Chemscore.Metal>
0.0000

> <Gold.Chemscore.Hbonds>
donor molecule, donor type, donor heavy atom, donor atom, acceptor molecule, acceptor atom, score
      L1  H     8    27       P1  7948  1.00
      L1  H    19    20       P1 10957  0.91

> <Gold.PLP.Chemscore.Internal.Correction>
0.0267

> <Gold.Rescore>
     Score         DG    S(hbond)    S(metal)    S(lipo)     H(rot)  DE(clash)    DE(int)     intcor
     14.68     -16.48       1.96        0.00      72.06       1.55       0.39       1.40       ----

> <Gold.Chemscore.Fitness>
14.6802

> <Gold.Chemscore.DG>
-16.4786

> <Gold.Chemscore.ZeroCoef>
-5.4800

> <Gold.Chemscore.Hbond>
1.9560

> <Gold.Chemscore.Metal>
0.0000

> <Gold.Chemscore.Lipo>
72.0591

> <Gold.Chemscore.Internal_Hbond>
0.0000

> <Gold.Chemscore.DEClash>
0.3940

> <Gold.Chemscore.DEInternal>
1.4045

> <Gold.Chemscore.Rot>
1.5489

> <Gold.Chemscore.Internal.Correction>
   9.000000E+99

> <Gold.Chemscore.Hbonds>
donor molecule, donor type, donor heavy atom, donor atom, acceptor molecule, acceptor atom, score
      L1  H     8    27       P1  7948  1.00
      L1  H    19    20       P1 10957  0.83

> <Gold.Chemscore.Hbond.Weighted>
-6.5330

> <Gold.Chemscore.Metal.Weighted>
-0.0000

> <Gold.Chemscore.Lipo.Weighted>
-8.4309

> <Gold.Chemscore.Internal_Hbond.Weighted>
0.0000

> <Gold.Chemscore.DEClash.Weighted>
0.3940

> <Gold.Chemscore.DEInternal.Weighted>
1.4045

> <Gold.Chemscore.Rot.Weighted>
3.9652

> <Gold.Chemscore.Internal.Correction.Weighted>
   9.000000E+99

> <Gold.Protein.RotatedTorsions>
[ 6907 6896 6895 6894 ] final  127.10 input  -60.11 | X-H torsion
[ 7974 7965 7964 7962 ] final  -74.20 input  175.53 | X-H torsion
[ 8008 7997 7996 7995 ] final   85.01 input   59.86 | X-H torsion
[ 10167 10162 10161 10158 ] final -113.43 input  -65.29 | X-H torsion
[ 10718 10713 10712 10709 ] final   45.07 input   66.30 | X-H torsion
[ 10763 10752 10751 10750 ] final  -12.87 input  -60.55 | X-H torsion
[ 11005 11000 10999 10996 ] final   89.80 input  -57.11 | X-H torsion

> <Gold.Protein.ActiveResidues>
 VAL166  LYS551  ARG553  GLY616  TRP617  ASP618  TYR619  PRO620  LYS621  CYS622 
 ASP623  PHE694  ASN695  SER759  ASP760  ASP761  ALA762  ILE779  LEU786  VAL792 
 PHE793  MET794  SER795  GLU796  ALA797  LYS798  CYS799  TRP800  GLU811  SER814 

> <Gold.Protein.RotatedAtoms>
  152.3844  133.6590  159.6186 H   0  0  0  0  0  0  0  0  0  0  0  0  # atno 6907 bound_to 6896
  150.7766  133.9060  159.3364 H   0  0  0  0  0  0  0  0  0  0  0  0  # atno 6908 bound_to 6896
  151.6860  135.0955  160.0276 H   0  0  0  0  0  0  0  0  0  0  0  0  # atno 6909 bound_to 6896
  145.6422  140.9307  143.1029 H   0  0  0  0  0  0  0  0  0  0  0  0  # atno 7974 bound_to 7965
  155.9445  140.3405  155.6355 H   0  0  0  0  0  0  0  0  0  0  0  0  # atno 8008 bound_to 7997
  155.6998  140.0759  157.2433 H   0  0  0  0  0  0  0  0  0  0  0  0  # atno 8009 bound_to 7997
  154.4109  140.1642  156.2166 H   0  0  0  0  0  0  0  0  0  0  0  0  # atno 8010 bound_to 7997
  140.1119  143.4520  152.1747 H   0  0  0  0  0  0  0  0  0  0  0  0  # atno 10167 bound_to 10162
  157.4336  130.8039  149.7627 H   0  0  0  0  0  0  0  0  0  0  0  0  # atno 10718 bound_to 10713
  153.5049  135.7017  153.5812 H   0  0  0  0  0  0  0  0  0  0  0  0  # atno 10763 bound_to 10752
  153.3927  135.3892  155.1934 H   0  0  0  0  0  0  0  0  0  0  0  0  # atno 10764 bound_to 10752
  154.8708  135.3862  154.4523 H   0  0  0  0  0  0  0  0  0  0  0  0  # atno 10765 bound_to 10752
  139.8868  134.8574  156.3194 H   0  0  0  0  0  0  0  0  0  0  0  0  # atno 11005 bound_to 11000
  144.7153  139.8220  143.7401 LP  0  0  0  0  0  0  0  0  0  0  0  0  # atno 17320 bound_to 7965
  146.1271  139.4299  143.0192 LP  0  0  0  0  0  0  0  0  0  0  0  0  # atno 17321 bound_to 7965
  139.5614  144.7408  151.4143 LP  0  0  0  0  0  0  0  0  0  0  0  0  # atno 17342 bound_to 10162
  140.6921  143.7837  150.7270 LP  0  0  0  0  0  0  0  0  0  0  0  0  # atno 17343 bound_to 10162
  155.9922  130.3932  150.2951 LP  0  0  0  0  0  0  0  0  0  0  0  0  # atno 17370 bound_to 10713
  157.1110  131.0221  151.3048 LP  0  0  0  0  0  0  0  0  0  0  0  0  # atno 17371 bound_to 10713
  140.9797  133.7275  156.0653 LP  0  0  0  0  0  0  0  0  0  0  0  0  # atno 17394 bound_to 11000
  140.7765  134.3773  157.5496 LP  0  0  0  0  0  0  0  0  0  0  0  0  # atno 17395 bound_to 11000

$$$$
