AV-unprocessed.smi:1095|AV-procd|sdf|4747|dock10
  -GOLD-   22720 3283D 1   1.00000     0.00000
 Structure written by MMmdl.
 50 51  0  0  0  0  0  0  0  0  1 V2000
  152.2980  145.1480  158.3840 C   0  0  0  0  0  0  0  0  0  0  0  0
  151.2169  144.2558  159.0100 C   0  0  0  0  0  0  0  0  0  0  0  0
  151.7731  143.0930  159.8568 C   0  0  2  0  0  0  0  0  0  0  0  0
  152.3506  143.6125  161.1880 C   0  0  0  0  0  0  0  0  0  0  0  0
  152.9007  142.4704  162.0566 C   0  0  0  0  0  0  0  0  0  0  0  0
  153.9753  141.6549  161.3136 C   0  0  1  0  0  0  0  0  0  0  0  0
  154.5266  140.5272  162.2113 C   0  0  0  0  0  0  0  0  0  0  0  0
  155.2550  141.0626  163.3560 N   0  0  0  0  0  0  0  0  0  0  0  0
  156.1795  140.4049  164.0729 C   0  0  0  0  0  0  0  0  0  0  0  0
  156.4489  139.2145  163.9155 O   0  0  0  0  0  0  0  0  0  0  0  0
  156.9527  141.2348  165.0958 C   0  0  0  0  0  0  0  0  0  0  0  0
  156.0148  141.6373  166.2070 C   0  0  0  0  0  0  0  0  0  0  0  0
  154.9712  142.6096  166.1601 C   0  0  0  0  0  0  0  0  0  0  0  0
  154.5460  143.4713  165.0057 C   0  0  0  0  0  0  0  0  0  0  0  0
  154.3460  142.7351  167.3185 N   0  0  0  0  0  0  0  0  0  0  0  0
  154.9590  141.8580  168.1379 N   0  0  0  0  0  0  0  0  0  0  0  0
  154.5138  141.7399  169.5128 C   0  0  0  0  0  0  0  0  0  0  0  0
  155.9783  141.1807  167.4974 C   0  0  0  0  0  0  0  0  0  0  0  0
  156.8218  140.1630  168.1954 C   0  0  0  0  0  0  0  0  0  0  0  0
  153.4069  141.1362  159.9744 C   0  0  0  0  0  0  0  0  0  0  0  0
  152.8467  142.2759  159.1085 C   0  0  0  0  0  0  0  0  0  0  0  0
  151.8474  145.9008  157.7369 H   0  0  0  0  0  0  0  0  0  0  0  0
  152.9905  144.5630  157.7781 H   0  0  0  0  0  0  0  0  0  0  0  0
  152.8756  145.6760  159.1424 H   0  0  0  0  0  0  0  0  0  0  0  0
  150.5435  144.8662  159.6128 H   0  0  0  0  0  0  0  0  0  0  0  0
  150.6096  143.8471  158.2015 H   0  0  0  0  0  0  0  0  0  0  0  0
  150.9431  142.4264  160.0962 H   0  0  0  0  0  0  0  0  0  0  0  0
  153.1452  144.3331  160.9895 H   0  0  0  0  0  0  0  0  0  0  0  0
  151.5813  144.1493  161.7443 H   0  0  0  0  0  0  0  0  0  0  0  0
  153.3166  142.8836  162.9761 H   0  0  0  0  0  0  0  0  0  0  0  0
  152.0816  141.8155  162.3567 H   0  0  0  0  0  0  0  0  0  0  0  0
  154.8026  142.3288  161.0849 H   0  0  0  0  0  0  0  0  0  0  0  0
  153.7020  139.9282  162.5985 H   0  0  0  0  0  0  0  0  0  0  0  0
  155.1478  139.8467  161.6268 H   0  0  0  0  0  0  0  0  0  0  0  0
  155.1056  142.0385  163.5682 H   0  0  0  0  0  0  0  0  0  0  0  0
  157.7972  140.6557  165.4709 H   0  0  0  0  0  0  0  0  0  0  0  0
  157.3832  142.1046  164.5982 H   0  0  0  0  0  0  0  0  0  0  0  0
  154.7160  142.9696  164.0536 H   0  0  0  0  0  0  0  0  0  0  0  0
  155.1064  144.4061  164.9930 H   0  0  0  0  0  0  0  0  0  0  0  0
  153.4852  143.7188  165.0601 H   0  0  0  0  0  0  0  0  0  0  0  0
  155.2773  142.1416  170.1791 H   0  0  0  0  0  0  0  0  0  0  0  0
  154.3437  140.6908  169.7558 H   0  0  0  0  0  0  0  0  0  0  0  0
  153.5846  142.2907  169.6658 H   0  0  0  0  0  0  0  0  0  0  0  0
  157.7140  139.9254  167.6164 H   0  0  0  0  0  0  0  0  0  0  0  0
  156.2638  139.2394  168.3494 H   0  0  0  0  0  0  0  0  0  0  0  0
  157.1495  140.5283  169.1688 H   0  0  0  0  0  0  0  0  0  0  0  0
  154.1785  140.6168  159.4061 H   0  0  0  0  0  0  0  0  0  0  0  0
  152.6218  140.4040  160.1665 H   0  0  0  0  0  0  0  0  0  0  0  0
  152.4338  141.8499  158.1946 H   0  0  0  0  0  0  0  0  0  0  0  0
  153.6626  142.9316  158.8010 H   0  0  0  0  0  0  0  0  0  0  0  0
  1  2  1  0  0  0  0
  1 22  1  0  0  0  0
  1 23  1  0  0  0  0
  1 24  1  0  0  0  0
  2  3  1  0  0  0  0
  2 25  1  0  0  0  0
  2 26  1  0  0  0  0
  3 21  1  0  0  0  0
  3  4  1  0  0  0  0
  3 27  1  0  0  0  0
  4  5  1  0  0  0  0
  4 28  1  0  0  0  0
  4 29  1  0  0  0  0
  5  6  1  0  0  0  0
  5 30  1  0  0  0  0
  5 31  1  0  0  0  0
  6  7  1  0  0  0  0
  6 20  1  0  0  0  0
  6 32  1  0  0  0  0
  7  8  1  0  0  0  0
  7 33  1  0  0  0  0
  7 34  1  0  0  0  0
  8  9  1  0  0  0  0
  8 35  1  0  0  0  0
  9 10  2  0  0  0  0
  9 11  1  0  0  0  0
 11 12  1  0  0  0  0
 11 36  1  0  0  0  0
 11 37  1  0  0  0  0
 12 18  2  0  0  0  0
 12 13  1  0  0  0  0
 13 14  1  0  0  0  0
 13 15  2  0  0  0  0
 14 38  1  0  0  0  0
 14 39  1  0  0  0  0
 14 40  1  0  0  0  0
 15 16  1  0  0  0  0
 16 17  1  0  0  0  0
 16 18  1  0  0  0  0
 17 41  1  0  0  0  0
 17 42  1  0  0  0  0
 17 43  1  0  0  0  0
 18 19  1  0  0  0  0
 19 44  1  0  0  0  0
 19 45  1  0  0  0  0
 19 46  1  0  0  0  0
 20 21  1  0  0  0  0
 20 47  1  0  0  0  0
 20 48  1  0  0  0  0
 21 49  1  0  0  0  0
 21 50  1  0  0  0  0
M  END
> <s_m_source_file>
AV-unprocessed.smi

> <i_m_source_file_index>
1095

> <i_lp_mmshare_version>
43012

> <i_f3d_flags>
0

> <s_epik_input>
W0NIM11bQ0gyXVtDQEBIXTFbQ0gyXVtDSDJdW0NASF0oW0NIMl1bQ0gyXTEpW0NIMl1bTkhdQyg9TylbQ0gyXWMyYyhbQ0gzXSlubihbQ0gzXSljMltDSDNd

> <s_epik_cmdline>
J2VwaWtfcHl0aG9uJywgJy1waCcsICc3LjAnLCAnLXRuJywgJzgnLCAnLW1hJywgJzIwMCcsICctbWV0YWxfYmluZGluZycsICctaW1hZScsICc8aW5maWxlLm1hZT4nLCAnLW9tYWUnLCAnPG91dGZpbGUubWFlPic=

> <r_lp_tautomer_probability>
1

> <r_epik_Ionization_Penalty>
0.00317479

> <r_epik_Ionization_Penalty_Charging>
0

> <r_epik_Ionization_Penalty_Neutral>
0.00317479

> <r_epik_State_Penalty>
0.00223767

> <r_epik_Charging_Adjusted_Penalty>
0.00223767

> <i_epik_Tot_Q>
0

> <i_epik_Tot_abs_Q>
0

> <r_epik_Metal_State_Penalty>
-0

> <b_epik_Metal_Only>
0

> <s_lp_Force_Field>
OPLS_2005

> <r_lp_Energy>
5.54232

> <b_lp_Chiralities_Consistent>
1

> <s_lp_Variant>
AV-unprocessed.smi:1095-1

> <Gold.Version>
5.8.1

> <Gold.Id.Protein>
6NUR|6NUR_protein|mol2

> <Gold.PLP.Fitness>
47.9922

> <Gold.PLP.PLP>
-48.8522

> <Gold.PLP.part.hbond>
-1.8539

> <Gold.PLP.part.metal>
0.0000

> <Gold.PLP.part.buried>
-4.2448

> <Gold.PLP.part.nonpolar>
-42.0031

> <Gold.PLP.part.repulsive>
0.0896

> <Gold.PLP.ligand.clash>
0.0000

> <Gold.PLP.ligand.torsion>
0.4436

> <Gold.PLP.Chemscore.Hbond>
0.0000

> <Gold.PLP.Chemscore.CHOScore>
0.0000

> <Gold.PLP.Chemscore.Metal>
0.0000

> <Gold.PLP.Chemscore.Internal.Correction>
0.0271

> <Gold.Rescore>
     Score         DG    S(hbond)    S(metal)    S(lipo)     H(rot)  DE(clash)    DE(int)     intcor
     16.65     -17.19       0.00        0.00     131.44       1.43       0.02       0.52       ----

> <Gold.Chemscore.Fitness>
16.6519

> <Gold.Chemscore.DG>
-17.1879

> <Gold.Chemscore.ZeroCoef>
-5.4800

> <Gold.Chemscore.Hbond>
0.0000

> <Gold.Chemscore.Metal>
0.0000

> <Gold.Chemscore.Lipo>
131.4351

> <Gold.Chemscore.Internal_Hbond>
0.0000

> <Gold.Chemscore.DEClash>
0.0207

> <Gold.Chemscore.DEInternal>
0.5154

> <Gold.Chemscore.Rot>
1.4336

> <Gold.Chemscore.Internal.Correction>
   9.000000E+99

> <Gold.Chemscore.Hbond.Weighted>
-0.0000

> <Gold.Chemscore.Metal.Weighted>
-0.0000

> <Gold.Chemscore.Lipo.Weighted>
-15.3779

> <Gold.Chemscore.Internal_Hbond.Weighted>
0.0000

> <Gold.Chemscore.DEClash.Weighted>
0.0207

> <Gold.Chemscore.DEInternal.Weighted>
0.5154

> <Gold.Chemscore.Rot.Weighted>
3.6700

> <Gold.Chemscore.Internal.Correction.Weighted>
   9.000000E+99

> <Gold.Protein.RotatedTorsions>
[ 6907 6896 6895 6894 ] final    9.53 input  -60.11 | X-H torsion
[ 7974 7965 7964 7962 ] final  -30.38 input  175.53 | X-H torsion
[ 8008 7997 7996 7995 ] final  126.40 input   59.86 | X-H torsion
[ 10167 10162 10161 10158 ] final  149.82 input  -65.29 | X-H torsion
[ 10718 10713 10712 10709 ] final -167.06 input   66.30 | X-H torsion
[ 10763 10752 10751 10750 ] final   -5.90 input  -60.55 | X-H torsion
[ 11005 11000 10999 10996 ] final -127.18 input  -57.11 | X-H torsion

> <Gold.Protein.ActiveResidues>
 VAL166  LYS551  ARG553  GLY616  TRP617  ASP618  TYR619  PRO620  LYS621  CYS622 
 ASP623  PHE694  ASN695  SER759  ASP760  ASP761  ALA762  ILE779  LEU786  VAL792 
 PHE793  MET794  SER795  GLU796  ALA797  LYS798  CYS799  TRP800  GLU811  SER814 

> <Gold.Protein.RotatedAtoms>
  151.7236  135.0889  160.0288 H   0  0  0  0  0  0  0  0  0  0  0  0  # atno 6907 bound_to 6896
  152.3586  133.6264  159.6006 H   0  0  0  0  0  0  0  0  0  0  0  0  # atno 6908 bound_to 6896
  150.7588  133.9376  159.3488 H   0  0  0  0  0  0  0  0  0  0  0  0  # atno 6909 bound_to 6896
  146.1147  140.5533  142.8762 H   0  0  0  0  0  0  0  0  0  0  0  0  # atno 7974 bound_to 7965
  156.2862  140.2693  156.2104 H   0  0  0  0  0  0  0  0  0  0  0  0  # atno 8008 bound_to 7997
  155.0270  140.0386  157.2477 H   0  0  0  0  0  0  0  0  0  0  0  0  # atno 8009 bound_to 7997
  154.7387  140.2721  155.6397 H   0  0  0  0  0  0  0  0  0  0  0  0  # atno 8010 bound_to 7997
  139.4857  144.5571  151.7297 H   0  0  0  0  0  0  0  0  0  0  0  0  # atno 10167 bound_to 10162
  156.6768  130.9106  151.3051 H   0  0  0  0  0  0  0  0  0  0  0  0  # atno 10718 bound_to 10713
  153.4049  135.7006  153.6400 H   0  0  0  0  0  0  0  0  0  0  0  0  # atno 10763 bound_to 10752
  153.4918  135.3671  155.2496 H   0  0  0  0  0  0  0  0  0  0  0  0  # atno 10764 bound_to 10752
  154.8713  135.4091  154.3390 H   0  0  0  0  0  0  0  0  0  0  0  0  # atno 10765 bound_to 10752
  140.9621  134.0922  157.3958 H   0  0  0  0  0  0  0  0  0  0  0  0  # atno 11005 bound_to 11000
  144.7542  140.5267  143.6780 LP  0  0  0  0  0  0  0  0  0  0  0  0  # atno 17320 bound_to 7965
  145.5591  139.1479  143.3351 LP  0  0  0  0  0  0  0  0  0  0  0  0  # atno 17321 bound_to 7965
  140.5135  144.0989  150.6001 LP  0  0  0  0  0  0  0  0  0  0  0  0  # atno 17342 bound_to 10162
  140.3923  143.2746  152.0046 LP  0  0  0  0  0  0  0  0  0  0  0  0  # atno 17343 bound_to 10162
  157.7058  130.9383  150.0925 LP  0  0  0  0  0  0  0  0  0  0  0  0  # atno 17370 bound_to 10713
  156.1897  130.3654  149.8926 LP  0  0  0  0  0  0  0  0  0  0  0  0  # atno 17371 bound_to 10713
  139.8881  135.0095  156.6603 LP  0  0  0  0  0  0  0  0  0  0  0  0  # atno 17394 bound_to 11000
  140.7453  133.8943  155.8307 LP  0  0  0  0  0  0  0  0  0  0  0  0  # atno 17395 bound_to 11000

$$$$
