AV-unprocessed.smi:2800|AV-procd|sdf|10795|dock2
  -GOLD-   2272015223D 1   1.00000     0.00000
 Structure written by MMmdl.
 52 53  0  0  0  0  0  0  0  0  2 V2000
  147.4094  142.2956  154.2683 C   0  0  0  0  0  0  0  0  0  0  0  0
  148.3537  141.4413  155.0942 C   0  0  0  0  0  0  0  0  0  0  0  0
  149.2781  142.0832  155.8430 N   0  3  0  0  0  0  0  0  0  0  0  0
  150.1876  141.4556  156.6251 C   0  0  0  0  0  0  0  0  0  0  0  0
  151.1024  142.2368  157.3568 N   0  0  0  0  0  0  0  0  0  0  0  0
  150.7506  143.5613  157.8419 C   0  0  0  0  0  0  0  0  0  0  0  0
  151.9182  143.9698  158.7396 C   0  0  0  0  0  0  0  0  0  0  0  0
  152.3975  142.6375  159.3150 C   0  0  0  0  0  0  0  0  0  0  0  0
  152.1324  141.6302  158.1909 C   0  0  0  0  0  0  0  0  0  0  0  0
  150.1658  140.0431  156.6816 C   0  0  0  0  0  0  0  0  0  0  0  0
  149.2196  139.3267  155.9214 C   0  0  0  0  0  0  0  0  0  0  0  0
  148.3030  140.0271  155.0979 C   0  0  0  0  0  0  0  0  0  0  0  0
  147.3120  139.3833  154.3045 N   0  0  0  0  0  0  0  0  0  0  0  0
  147.2797  138.1131  153.8668 C   0  0  0  0  0  0  0  0  0  0  0  0
  148.1269  137.2542  154.1095 O   0  0  0  0  0  0  0  0  0  0  0  0
  146.2003  137.8937  153.1023 N   0  0  0  0  0  0  0  0  0  0  0  0
  145.8377  136.6200  152.4752 C   0  0  2  0  0  0  0  0  0  0  0  0
  146.0125  136.7330  150.9375 C   0  0  0  0  0  0  0  0  0  0  0  0
  146.5133  138.0015  150.5703 O   0  0  0  0  0  0  0  0  0  0  0  0
  144.4287  136.1484  152.9682 C   0  0  0  0  0  0  0  0  0  0  0  0
  143.3501  137.1249  152.4473 C   0  0  0  0  0  0  0  0  0  0  0  0
  144.3531  136.1545  154.5091 C   0  0  0  0  0  0  0  0  0  0  0  0
  144.0782  134.7311  152.4596 C   0  0  0  0  0  0  0  0  0  0  0  0
  146.5626  135.8833  152.8292 H   0  0  0  0  0  0  0  0  0  0  0  0
  146.3767  142.1215  154.5717 H   0  0  0  0  0  0  0  0  0  0  0  0
  147.5040  142.0515  153.2097 H   0  0  0  0  0  0  0  0  0  0  0  0
  147.6234  143.3581  154.3902 H   0  0  0  0  0  0  0  0  0  0  0  0
  150.6089  144.2670  157.0228 H   0  0  0  0  0  0  0  0  0  0  0  0
  149.8252  143.5051  158.4165 H   0  0  0  0  0  0  0  0  0  0  0  0
  152.7103  144.4166  158.1371 H   0  0  0  0  0  0  0  0  0  0  0  0
  151.6320  144.6884  159.5080 H   0  0  0  0  0  0  0  0  0  0  0  0
  153.4421  142.6590  159.6268 H   0  0  0  0  0  0  0  0  0  0  0  0
  151.7935  142.3807  160.1865 H   0  0  0  0  0  0  0  0  0  0  0  0
  151.8294  140.6647  158.5974 H   0  0  0  0  0  0  0  0  0  0  0  0
  153.0281  141.4809  157.5869 H   0  0  0  0  0  0  0  0  0  0  0  0
  150.8596  139.4960  157.3023 H   0  0  0  0  0  0  0  0  0  0  0  0
  149.2113  138.2508  155.9980 H   0  0  0  0  0  0  0  0  0  0  0  0
  146.5775  139.9850  153.9614 H   0  0  0  0  0  0  0  0  0  0  0  0
  145.5629  138.6618  152.9524 H   0  0  0  0  0  0  0  0  0  0  0  0
  146.6519  135.9500  150.5336 H   0  0  0  0  0  0  0  0  0  0  0  0
  145.0518  136.6319  150.4315 H   0  0  0  0  0  0  0  0  0  0  0  0
  145.7919  138.5348  150.2734 H   0  0  0  0  0  0  0  0  0  0  0  0
  142.3605  136.8622  152.8228 H   0  0  0  0  0  0  0  0  0  0  0  0
  143.2871  137.1247  151.3588 H   0  0  0  0  0  0  0  0  0  0  0  0
  143.5553  138.1484  152.7635 H   0  0  0  0  0  0  0  0  0  0  0  0
  144.6247  137.1286  154.9171 H   0  0  0  0  0  0  0  0  0  0  0  0
  145.0174  135.4118  154.9512 H   0  0  0  0  0  0  0  0  0  0  0  0
  143.3461  135.9234  154.8580 H   0  0  0  0  0  0  0  0  0  0  0  0
  143.0812  134.4338  152.7872 H   0  0  0  0  0  0  0  0  0  0  0  0
  144.7697  133.9777  152.8346 H   0  0  0  0  0  0  0  0  0  0  0  0
  144.0856  134.6729  151.3711 H   0  0  0  0  0  0  0  0  0  0  0  0
  149.2919  143.1029  155.8147 H   0  0  0  0  0  0  0  0  0  0  0  0
  1  2  1  0  0  0  0
  1 25  1  0  0  0  0
  1 26  1  0  0  0  0
  1 27  1  0  0  0  0
  2 12  1  0  0  0  0
  2  3  2  0  0  0  0
  3  4  1  0  0  0  0
  3 52  1  0  0  0  0
  4  5  1  0  0  0  0
  4 10  2  0  0  0  0
  5  9  1  0  0  0  0
  5  6  1  0  0  0  0
  6  7  1  0  0  0  0
  6 28  1  0  0  0  0
  6 29  1  0  0  0  0
  7  8  1  0  0  0  0
  7 30  1  0  0  0  0
  7 31  1  0  0  0  0
  8  9  1  0  0  0  0
  8 32  1  0  0  0  0
  8 33  1  0  0  0  0
  9 34  1  0  0  0  0
  9 35  1  0  0  0  0
 10 11  1  0  0  0  0
 10 36  1  0  0  0  0
 11 12  2  0  0  0  0
 11 37  1  0  0  0  0
 12 13  1  0  0  0  0
 13 14  1  0  0  0  0
 13 38  1  0  0  0  0
 14 15  2  0  0  0  0
 14 16  1  0  0  0  0
 16 17  1  0  0  0  0
 16 39  1  0  0  0  0
 17 24  1  0  0  0  0
 17 18  1  0  0  0  0
 17 20  1  0  0  0  0
 18 19  1  0  0  0  0
 18 40  1  0  0  0  0
 18 41  1  0  0  0  0
 19 42  1  0  0  0  0
 20 21  1  0  0  0  0
 20 22  1  0  0  0  0
 20 23  1  0  0  0  0
 21 43  1  0  0  0  0
 21 44  1  0  0  0  0
 21 45  1  0  0  0  0
 22 46  1  0  0  0  0
 22 47  1  0  0  0  0
 22 48  1  0  0  0  0
 23 49  1  0  0  0  0
 23 50  1  0  0  0  0
 23 51  1  0  0  0  0
M  CHG  1   3   1
M  END
> <s_m_source_file>
AV-unprocessed.smi

> <i_m_source_file_index>
2800

> <i_lp_mmshare_version>
43012

> <i_f3d_flags>
0

> <s_epik_input>
W0NIMl0xW0NIMl1bQ0gyXVtDSDJdTjFjKG5jMltDSDNdKVtjSF1bY0hdYzJbTkhdQyg9TylbTkhdW0NASF0oW0NIMl1bT0hdKUMoW0NIM10pKFtDSDNdKVtDSDNd

> <s_epik_cmdline>
J2VwaWtfcHl0aG9uJywgJy1waCcsICc3LjAnLCAnLXRuJywgJzgnLCAnLW1hJywgJzIwMCcsICctbWV0YWxfYmluZGluZycsICctaW1hZScsICc8aW5maWxlLm1hZT4nLCAnLW9tYWUnLCAnPG91dGZpbGUubWFlPic=

> <r_lp_tautomer_probability>
0.999994

> <r_epik_Ionization_Penalty>
0.536494

> <r_epik_Ionization_Penalty_Charging>
0.536474

> <r_epik_Ionization_Penalty_Neutral>
1.97788e-05

> <r_epik_State_Penalty>
0.545692

> <r_epik_Charging_Adjusted_Penalty>
1.08217

> <i_epik_Tot_Q>
1

> <i_epik_Tot_abs_Q>
1

> <r_epik_Metal_State_Penalty>
0.748506

> <b_epik_Metal_Only>
0

> <s_lp_Force_Field>
OPLS_2005

> <r_lp_Energy>
43.0487

> <b_lp_Chiralities_Consistent>
1

> <s_lp_Variant>
AV-unprocessed.smi:2800-3

> <Gold.Version>
5.8.1

> <Gold.Id.Protein>
6NUR|6NUR_protein|mol2

> <Gold.PLP.Fitness>
44.8878

> <Gold.PLP.PLP>
-34.7930

> <Gold.PLP.part.hbond>
-4.0000

> <Gold.PLP.part.metal>
0.0000

> <Gold.PLP.part.buried>
-1.9781

> <Gold.PLP.part.nonpolar>
-29.6165

> <Gold.PLP.part.repulsive>
1.4446

> <Gold.PLP.ligand.clash>
0.0000

> <Gold.PLP.ligand.torsion>
1.1128

> <Gold.PLP.Chemscore.Hbond>
4.0000

> <Gold.PLP.Chemscore.CHOScore>
0.0000

> <Gold.PLP.Chemscore.Metal>
0.0000

> <Gold.Chemscore.Hbonds>
donor molecule, donor type, donor heavy atom, donor atom, acceptor molecule, acceptor atom, score
      L1  H     3    52       P1  8028  2.00
      L1  H    19    42       P1 10171  0.94
      P1  H  7954  7966       L1    19  0.96

> <Gold.PLP.Chemscore.Internal.Correction>
0.3204

> <Gold.Rescore>
     Score         DG    S(hbond)    S(metal)    S(lipo)     H(rot)  DE(clash)    DE(int)     intcor
     16.87     -19.53       2.73        0.00      84.81       1.95       0.31       2.35       ----

> <Gold.Chemscore.Fitness>
16.8667

> <Gold.Chemscore.DG>
-19.5260

> <Gold.Chemscore.ZeroCoef>
-5.4800

> <Gold.Chemscore.Hbond>
2.7290

> <Gold.Chemscore.Metal>
0.0000

> <Gold.Chemscore.Lipo>
84.8094

> <Gold.Chemscore.Internal_Hbond>
0.0000

> <Gold.Chemscore.DEClash>
0.3122

> <Gold.Chemscore.DEInternal>
2.3471

> <Gold.Chemscore.Rot>
1.9499

> <Gold.Chemscore.Internal.Correction>
   9.000000E+99

> <Gold.Chemscore.Hbonds>
donor molecule, donor type, donor heavy atom, donor atom, acceptor molecule, acceptor atom, score
      L1  H     3    52       P1  8028  1.00
      L1  H    19    42       P1 10171  0.90
      P1  H  7954  7966       L1    19  0.72

> <Gold.Chemscore.Hbond.Weighted>
-9.1150

> <Gold.Chemscore.Metal.Weighted>
-0.0000

> <Gold.Chemscore.Lipo.Weighted>
-9.9227

> <Gold.Chemscore.Internal_Hbond.Weighted>
0.0000

> <Gold.Chemscore.DEClash.Weighted>
0.3122

> <Gold.Chemscore.DEInternal.Weighted>
2.3471

> <Gold.Chemscore.Rot.Weighted>
4.9916

> <Gold.Chemscore.Internal.Correction.Weighted>
   9.000000E+99

> <Gold.Protein.RotatedTorsions>
[ 6907 6896 6895 6894 ] final   58.48 input  -60.11 | X-H torsion
[ 7974 7965 7964 7962 ] final  118.37 input  175.53 | X-H torsion
[ 8008 7997 7996 7995 ] final -109.23 input   59.86 | X-H torsion
[ 10167 10162 10161 10158 ] final  160.88 input  -65.29 | X-H torsion
[ 10718 10713 10712 10709 ] final   70.51 input   66.30 | X-H torsion
[ 10763 10752 10751 10750 ] final -157.91 input  -60.55 | X-H torsion
[ 11005 11000 10999 10996 ] final  -16.10 input  -57.11 | X-H torsion

> <Gold.Protein.ActiveResidues>
 VAL166  LYS551  ARG553  GLY616  TRP617  ASP618  TYR619  PRO620  LYS621  CYS622 
 ASP623  PHE694  ASN695  SER759  ASP760  ASP761  ALA762  ILE779  LEU786  VAL792 
 PHE793  MET794  SER795  GLU796  ALA797  LYS798  CYS799  TRP800  GLU811  SER814 

> <Gold.Protein.RotatedAtoms>
  152.3827  134.6565  160.0136 H   0  0  0  0  0  0  0  0  0  0  0  0  # atno 6907 bound_to 6896
  151.6823  133.3306  159.3230 H   0  0  0  0  0  0  0  0  0  0  0  0  # atno 6908 bound_to 6896
  150.7761  134.6706  159.6434 H   0  0  0  0  0  0  0  0  0  0  0  0  # atno 6909 bound_to 6896
  145.1560  139.3183  143.4542 H   0  0  0  0  0  0  0  0  0  0  0  0  # atno 7974 bound_to 7965
  154.9561  140.0400  157.2168 H   0  0  0  0  0  0  0  0  0  0  0  0  # atno 8008 bound_to 7997
  154.7932  140.2839  155.5954 H   0  0  0  0  0  0  0  0  0  0  0  0  # atno 8009 bound_to 7997
  156.2952  140.2569  156.2784 H   0  0  0  0  0  0  0  0  0  0  0  0  # atno 8010 bound_to 7997
  139.4844  144.4591  151.8729 H   0  0  0  0  0  0  0  0  0  0  0  0  # atno 10167 bound_to 10162
  157.6403  130.9481  150.0660 H   0  0  0  0  0  0  0  0  0  0  0  0  # atno 10718 bound_to 10713
  154.7599  135.3115  154.8399 H   0  0  0  0  0  0  0  0  0  0  0  0  # atno 10763 bound_to 10752
  153.9162  135.6800  153.4753 H   0  0  0  0  0  0  0  0  0  0  0  0  # atno 10764 bound_to 10752
  153.1199  135.4827  154.9108 H   0  0  0  0  0  0  0  0  0  0  0  0  # atno 10765 bound_to 10752
  140.8034  133.8196  155.9492 H   0  0  0  0  0  0  0  0  0  0  0  0  # atno 11005 bound_to 11000
  146.3488  140.1652  142.8590 LP  0  0  0  0  0  0  0  0  0  0  0  0  # atno 17320 bound_to 7965
  145.0381  140.8924  143.5069 LP  0  0  0  0  0  0  0  0  0  0  0  0  # atno 17321 bound_to 7965
  140.4052  144.2441  150.5891 LP  0  0  0  0  0  0  0  0  0  0  0  0  # atno 17342 bound_to 10162
  140.5019  143.2315  151.8665 LP  0  0  0  0  0  0  0  0  0  0  0  0  # atno 17343 bound_to 10162
  156.1679  130.3645  149.9207 LP  0  0  0  0  0  0  0  0  0  0  0  0  # atno 17370 bound_to 10713
  156.7190  130.8999  151.3616 LP  0  0  0  0  0  0  0  0  0  0  0  0  # atno 17371 bound_to 10713
  140.9271  134.2068  157.4888 LP  0  0  0  0  0  0  0  0  0  0  0  0  # atno 17394 bound_to 11000
  139.8720  134.9817  156.5127 LP  0  0  0  0  0  0  0  0  0  0  0  0  # atno 17395 bound_to 11000

$$$$
