AV-unprocessed.smi:1570|AV-procd|sdf|6316|dock1
  -GOLD-   22720 6523D 1   1.00000     0.00000
 Structure written by MMmdl.
 51 53  0  0  0  0  0  0  0  0  1 V2000
  152.4209  143.7944  161.9749 C   0  0  0  0  0  0  0  0  0  0  0  0
  152.5320  143.7936  160.4452 C   0  0  0  0  0  0  0  0  0  0  0  0
  152.6104  142.4325  159.9211 N   0  0  0  0  0  0  0  0  0  0  0  0
  153.2512  141.3845  160.4901 C   0  0  0  0  0  0  0  0  0  0  0  0
  153.8732  141.4068  161.5525 O   0  0  0  0  0  0  0  0  0  0  0  0
  153.0985  140.3088  159.6822 N   0  0  0  0  0  0  0  0  0  0  0  0
  153.6268  138.9654  159.9148 C   0  0  0  0  0  0  0  0  0  0  0  0
  155.1489  138.9803  160.1600 C   0  0  2  0  0  0  0  0  0  0  0  0
  155.7863  139.2949  158.9380 O   0  0  0  0  0  0  0  0  0  0  0  0
  155.6589  137.5912  160.5959 C   0  0  0  0  0  0  0  0  0  0  0  0
  155.4772  137.2647  162.0118 N   0  0  0  0  0  0  0  0  0  0  0  0
  154.0895  136.9035  162.2830 C   0  0  0  0  0  0  0  0  0  0  0  0
  153.8382  136.5541  163.7632 C   0  0  1  0  0  0  0  0  0  0  0  0
  154.4131  135.1879  164.1745 C   0  0  0  0  0  0  0  0  0  0  0  0
  154.3135  137.6058  164.6047 O   0  0  0  0  0  0  0  0  0  0  0  0
  155.6666  137.9974  164.3814 C   0  0  2  0  0  0  0  0  0  0  0  0
  155.9801  139.1765  165.3083 C   0  0  0  0  0  0  0  0  0  0  0  0
  155.8597  138.3610  162.8978 C   0  0  0  0  0  0  0  0  0  0  0  0
  152.3536  140.6837  158.5550 C   0  0  0  0  0  0  0  0  0  0  0  0
  151.9437  139.9484  157.4289 C   0  0  0  0  0  0  0  0  0  0  0  0
  151.1939  140.6352  156.4456 C   0  0  0  0  0  0  0  0  0  0  0  0
  150.8779  142.0099  156.6006 C   0  0  0  0  0  0  0  0  0  0  0  0
  151.3057  142.7273  157.7422 C   0  0  0  0  0  0  0  0  0  0  0  0
  152.0469  142.0202  158.7051 C   0  0  0  0  0  0  0  0  0  0  0  0
  152.3664  144.8132  162.3585 H   0  0  0  0  0  0  0  0  0  0  0  0
  153.2845  143.3119  162.4335 H   0  0  0  0  0  0  0  0  0  0  0  0
  151.5259  143.2665  162.3055 H   0  0  0  0  0  0  0  0  0  0  0  0
  151.6737  144.3090  160.0115 H   0  0  0  0  0  0  0  0  0  0  0  0
  153.4112  144.3581  160.1337 H   0  0  0  0  0  0  0  0  0  0  0  0
  153.1200  138.5648  160.7943 H   0  0  0  0  0  0  0  0  0  0  0  0
  153.3644  138.2921  159.0979 H   0  0  0  0  0  0  0  0  0  0  0  0
  155.3942  139.7356  160.9053 H   0  0  0  0  0  0  0  0  0  0  0  0
  156.4961  138.6840  158.8087 H   0  0  0  0  0  0  0  0  0  0  0  0
  155.1689  136.8245  159.9938 H   0  0  0  0  0  0  0  0  0  0  0  0
  156.7190  137.5279  160.3441 H   0  0  0  0  0  0  0  0  0  0  0  0
  153.4398  137.7352  162.0049 H   0  0  0  0  0  0  0  0  0  0  0  0
  153.7928  136.0615  161.6564 H   0  0  0  0  0  0  0  0  0  0  0  0
  152.7600  136.5039  163.9165 H   0  0  0  0  0  0  0  0  0  0  0  0
  153.9555  134.3853  163.5957 H   0  0  0  0  0  0  0  0  0  0  0  0
  154.2201  134.9865  165.2283 H   0  0  0  0  0  0  0  0  0  0  0  0
  155.4895  135.1304  164.0148 H   0  0  0  0  0  0  0  0  0  0  0  0
  156.3297  137.1719  164.6420 H   0  0  0  0  0  0  0  0  0  0  0  0
  157.0119  139.5072  165.1872 H   0  0  0  0  0  0  0  0  0  0  0  0
  155.8412  138.8985  166.3533 H   0  0  0  0  0  0  0  0  0  0  0  0
  155.3291  140.0261  165.1002 H   0  0  0  0  0  0  0  0  0  0  0  0
  156.9044  138.6275  162.7456 H   0  0  0  0  0  0  0  0  0  0  0  0
  155.2729  139.2496  162.6596 H   0  0  0  0  0  0  0  0  0  0  0  0
  152.1915  138.9039  157.3121 H   0  0  0  0  0  0  0  0  0  0  0  0
  150.8598  140.1068  155.5647 H   0  0  0  0  0  0  0  0  0  0  0  0
  150.3055  142.5153  155.8368 H   0  0  0  0  0  0  0  0  0  0  0  0
  151.0720  143.7747  157.8630 H   0  0  0  0  0  0  0  0  0  0  0  0
  1  2  1  0  0  0  0
  1 25  1  0  0  0  0
  1 26  1  0  0  0  0
  1 27  1  0  0  0  0
  2  3  1  0  0  0  0
  2 28  1  0  0  0  0
  2 29  1  0  0  0  0
  3 24  1  0  0  0  0
  3  4  1  0  0  0  0
  4  5  2  0  0  0  0
  4  6  1  0  0  0  0
  6  7  1  0  0  0  0
  6 19  1  0  0  0  0
  7  8  1  0  0  0  0
  7 30  1  0  0  0  0
  7 31  1  0  0  0  0
  8  9  1  0  0  0  0
  8 10  1  0  0  0  0
  8 32  1  0  0  0  0
  9 33  1  0  0  0  0
 10 11  1  0  0  0  0
 10 34  1  0  0  0  0
 10 35  1  0  0  0  0
 11 18  1  0  0  0  0
 11 12  1  0  0  0  0
 12 13  1  0  0  0  0
 12 36  1  0  0  0  0
 12 37  1  0  0  0  0
 13 14  1  0  0  0  0
 13 15  1  0  0  0  0
 13 38  1  0  0  0  0
 14 39  1  0  0  0  0
 14 40  1  0  0  0  0
 14 41  1  0  0  0  0
 15 16  1  0  0  0  0
 16 17  1  0  0  0  0
 16 18  1  0  0  0  0
 16 42  1  0  0  0  0
 17 43  1  0  0  0  0
 17 44  1  0  0  0  0
 17 45  1  0  0  0  0
 18 46  1  0  0  0  0
 18 47  1  0  0  0  0
 19 24  2  0  0  0  0
 19 20  1  0  0  0  0
 20 21  2  0  0  0  0
 20 48  1  0  0  0  0
 21 22  1  0  0  0  0
 21 49  1  0  0  0  0
 22 23  2  0  0  0  0
 22 50  1  0  0  0  0
 23 24  1  0  0  0  0
 23 51  1  0  0  0  0
M  END
> <s_m_source_file>
AV-unprocessed.smi

> <i_m_source_file_index>
1570

> <i_lp_mmshare_version>
43012

> <i_f3d_flags>
0

> <s_epik_input>
W2NIXTFbY0hdW2NIXVtjSF1jKGMxMiluKFtDSDJdW0NIM10pYyg9TyluMltDSDJdW0NASF0oW09IXSlbQ0gyXU4zW0NIMl1bQ0BASF0oW0NIM10pT1tDQEBIXShbQ0gzXSlbQ0gyXTM=

> <s_epik_cmdline>
J2VwaWtfcHl0aG9uJywgJy1waCcsICc3LjAnLCAnLXRuJywgJzgnLCAnLW1hJywgJzIwMCcsICctbWV0YWxfYmluZGluZycsICctaW1hZScsICc8aW5maWxlLm1hZT4nLCAnLW9tYWUnLCAnPG91dGZpbGUubWFlPic=

> <r_epik_Ionization_Penalty>
0.214359

> <r_epik_Ionization_Penalty_Charging>
2.30976e-09

> <r_epik_Ionization_Penalty_Neutral>
0.214359

> <r_epik_State_Penalty>
0.204533

> <r_epik_Charging_Adjusted_Penalty>
0.204533

> <i_epik_Tot_Q>
0

> <i_epik_Tot_abs_Q>
0

> <r_epik_Metal_State_Penalty>
0.204533

> <b_epik_Metal_Only>
0

> <s_lp_Force_Field>
OPLS_2005

> <r_lp_Energy>
63.3527

> <b_lp_Chiralities_Consistent>
1

> <s_lp_Variant>
AV-unprocessed.smi:1570-5

> <Gold.Version>
5.8.1

> <Gold.Id.Protein>
6NUR|6NUR_protein|mol2

> <Gold.PLP.Fitness>
50.3780

> <Gold.PLP.PLP>
-48.4207

> <Gold.PLP.part.hbond>
-1.0000

> <Gold.PLP.part.metal>
0.0000

> <Gold.PLP.part.buried>
-4.7894

> <Gold.PLP.part.nonpolar>
-42.5160

> <Gold.PLP.part.repulsive>
0.0719

> <Gold.PLP.ligand.clash>
0.0000

> <Gold.PLP.ligand.torsion>
0.7270

> <Gold.PLP.Chemscore.Hbond>
1.0000

> <Gold.PLP.Chemscore.CHOScore>
0.0000

> <Gold.PLP.Chemscore.Metal>
0.0000

> <Gold.Chemscore.Hbonds>
donor molecule, donor type, donor heavy atom, donor atom, acceptor molecule, acceptor atom, score
      P1  H  7997  8010       L1     9  1.00

> <Gold.PLP.Chemscore.Internal.Correction>
0.4112

> <Gold.Rescore>
     Score         DG    S(hbond)    S(metal)    S(lipo)     H(rot)  DE(clash)    DE(int)     intcor
     15.22     -17.47       0.85        0.00     123.17       2.06       0.28       1.97       ----

> <Gold.Chemscore.Fitness>
15.2228

> <Gold.Chemscore.DG>
-17.4748

> <Gold.Chemscore.ZeroCoef>
-5.4800

> <Gold.Chemscore.Hbond>
0.8535

> <Gold.Chemscore.Metal>
0.0000

> <Gold.Chemscore.Lipo>
123.1696

> <Gold.Chemscore.Internal_Hbond>
0.0000

> <Gold.Chemscore.DEClash>
0.2826

> <Gold.Chemscore.DEInternal>
1.9694

> <Gold.Chemscore.Rot>
2.0574

> <Gold.Chemscore.Internal.Correction>
   9.000000E+99

> <Gold.Chemscore.Hbonds>
donor molecule, donor type, donor heavy atom, donor atom, acceptor molecule, acceptor atom, score
      P1  H  7997  8010       L1     9  0.45

> <Gold.Chemscore.Hbond.Weighted>
-2.8508

> <Gold.Chemscore.Metal.Weighted>
-0.0000

> <Gold.Chemscore.Lipo.Weighted>
-14.4108

> <Gold.Chemscore.Internal_Hbond.Weighted>
0.0000

> <Gold.Chemscore.DEClash.Weighted>
0.2826

> <Gold.Chemscore.DEInternal.Weighted>
1.9694

> <Gold.Chemscore.Rot.Weighted>
5.2669

> <Gold.Chemscore.Internal.Correction.Weighted>
   9.000000E+99

> <Gold.Protein.RotatedTorsions>
[ 6907 6896 6895 6894 ] final -157.82 input  -60.11 | X-H torsion
[ 7974 7965 7964 7962 ] final  -30.47 input  175.53 | X-H torsion
[ 8008 7997 7996 7995 ] final  -25.46 input   59.86 | X-H torsion
[ 10167 10162 10161 10158 ] final  173.04 input  -65.29 | X-H torsion
[ 10718 10713 10712 10709 ] final  128.96 input   66.30 | X-H torsion
[ 10763 10752 10751 10750 ] final  126.67 input  -60.55 | X-H torsion
[ 11005 11000 10999 10996 ] final  -88.78 input  -57.11 | X-H torsion

> <Gold.Protein.ActiveResidues>
 VAL166  LYS551  ARG553  GLY616  TRP617  ASP618  TYR619  PRO620  LYS621  CYS622 
 ASP623  PHE694  ASN695  SER759  ASP760  ASP761  ALA762  ILE779  LEU786  VAL792 
 PHE793  MET794  SER795  GLU796  ALA797  LYS798  CYS799  TRP800  GLU811  SER814 

> <Gold.Protein.RotatedAtoms>
  151.3087  133.4090  159.2644 H   0  0  0  0  0  0  0  0  0  0  0  0  # atno 6907 bound_to 6896
  151.0133  134.9414  159.8029 H   0  0  0  0  0  0  0  0  0  0  0  0  # atno 6908 bound_to 6896
  152.5306  134.3051  159.9145 H   0  0  0  0  0  0  0  0  0  0  0  0  # atno 6909 bound_to 6896
  146.1141  140.5544  142.8765 H   0  0  0  0  0  0  0  0  0  0  0  0  # atno 7974 bound_to 7965
  154.4474  140.1926  156.0623 H   0  0  0  0  0  0  0  0  0  0  0  0  # atno 8008 bound_to 7997
  156.0573  140.3301  155.7393 H   0  0  0  0  0  0  0  0  0  0  0  0  # atno 8009 bound_to 7997
  155.5465  140.0591  157.2850 H   0  0  0  0  0  0  0  0  0  0  0  0  # atno 8010 bound_to 7997
  139.5095  144.3306  152.0115 H   0  0  0  0  0  0  0  0  0  0  0  0  # atno 10167 bound_to 10162
  157.5198  131.1098  150.9171 H   0  0  0  0  0  0  0  0  0  0  0  0  # atno 10718 bound_to 10713
  153.6970  135.3289  155.3216 H   0  0  0  0  0  0  0  0  0  0  0  0  # atno 10763 bound_to 10752
  154.8424  135.4445  154.1449 H   0  0  0  0  0  0  0  0  0  0  0  0  # atno 10764 bound_to 10752
  153.2507  135.6981  153.7761 H   0  0  0  0  0  0  0  0  0  0  0  0  # atno 10765 bound_to 10752
  141.1596  133.7590  156.9501 H   0  0  0  0  0  0  0  0  0  0  0  0  # atno 11005 bound_to 11000
  144.7537  140.5254  143.6784 LP  0  0  0  0  0  0  0  0  0  0  0  0  # atno 17320 bound_to 7965
  145.5604  139.1479  143.3344 LP  0  0  0  0  0  0  0  0  0  0  0  0  # atno 17321 bound_to 7965
  140.2746  144.3927  150.6139 LP  0  0  0  0  0  0  0  0  0  0  0  0  # atno 17342 bound_to 10162
  140.6063  143.2168  151.6974 LP  0  0  0  0  0  0  0  0  0  0  0  0  # atno 17343 bound_to 10162
  156.9785  130.5518  149.5295 LP  0  0  0  0  0  0  0  0  0  0  0  0  # atno 17370 bound_to 10713
  156.0345  130.5434  150.8619 LP  0  0  0  0  0  0  0  0  0  0  0  0  # atno 17371 bound_to 10713
  140.1263  134.9385  157.2274 LP  0  0  0  0  0  0  0  0  0  0  0  0  # atno 17394 bound_to 11000
  140.3009  134.3133  155.7290 LP  0  0  0  0  0  0  0  0  0  0  0  0  # atno 17395 bound_to 11000

$$$$
