AV-unprocessed.smi:2237|AV-procd|sdf|9049|dock3
  -GOLD-   2272012253D 1   1.00000     0.00000
 Structure written by MMmdl.
 55 57  0  0  0  0  0  0  0  0  3 V2000
  144.9493  132.3928  150.1201 C   0  0  0  0  0  0  0  0  0  0  0  0
  144.6051  133.5274  151.0620 C   0  0  0  0  0  0  0  0  0  0  0  0
  143.3384  133.6036  151.6739 C   0  0  0  0  0  0  0  0  0  0  0  0
  143.0821  134.6861  152.5342 C   0  0  0  0  0  0  0  0  0  0  0  0
  144.0955  135.6403  152.7469 C   0  0  0  0  0  0  0  0  0  0  0  0
  145.3396  135.4899  152.0942 C   0  0  0  0  0  0  0  0  0  0  0  0
  146.2941  136.5030  152.3766 N   0  0  0  0  0  0  0  0  0  0  0  0
  146.0720  137.7527  152.8208 C   0  0  0  0  0  0  0  0  0  0  0  0
  144.9679  138.2352  153.0742 O   0  0  0  0  0  0  0  0  0  0  0  0
  147.2213  138.4295  152.9634 N   0  0  0  0  0  0  0  0  0  0  0  0
  147.3296  139.8127  153.4181 C   0  0  2  0  0  0  0  0  0  0  0  0
  148.8121  140.1997  153.5586 C   0  0  0  0  0  0  0  0  0  0  0  0
  148.9543  141.6156  154.1459 C   0  0  0  0  0  0  0  0  0  0  0  0
  148.2951  141.7291  155.4784 N   0  3  2  0  0  0  0  0  0  0  0  0
  148.9763  141.0217  156.6188 C   0  0  2  0  0  0  0  0  0  0  0  0
  148.4442  141.4764  157.9995 C   0  0  0  0  0  0  0  0  0  0  0  0
  148.8697  142.9178  158.3371 C   0  0  0  0  0  0  0  0  0  0  0  0
  150.3467  143.0598  158.3087 N   0  3  2  0  0  0  0  0  0  0  0  0
  150.7925  144.4097  158.7169 C   0  0  0  0  0  0  0  0  0  0  0  0
  150.9251  142.6421  157.0077 C   0  0  0  0  0  0  0  0  0  0  0  0
  150.5147  141.1990  156.6607 C   0  0  0  0  0  0  0  0  0  0  0  0
  146.8422  141.4210  155.3362 C   0  0  0  0  0  0  0  0  0  0  0  0
  146.5948  140.0118  154.7591 C   0  0  0  0  0  0  0  0  0  0  0  0
  145.5770  134.4427  151.2654 N   0  0  0  0  0  0  0  0  0  0  0  0
  144.1639  131.6366  150.1078 H   0  0  0  0  0  0  0  0  0  0  0  0
  145.8789  131.9116  150.4258 H   0  0  0  0  0  0  0  0  0  0  0  0
  145.0757  132.7706  149.1050 H   0  0  0  0  0  0  0  0  0  0  0  0
  142.5815  132.8553  151.4900 H   0  0  0  0  0  0  0  0  0  0  0  0
  142.1244  134.7845  153.0234 H   0  0  0  0  0  0  0  0  0  0  0  0
  143.9140  136.4777  153.4050 H   0  0  0  0  0  0  0  0  0  0  0  0
  147.2570  136.2455  152.2196 H   0  0  0  0  0  0  0  0  0  0  0  0
  148.0821  137.9557  152.7312 H   0  0  0  0  0  0  0  0  0  0  0  0
  146.8792  140.4690  152.6707 H   0  0  0  0  0  0  0  0  0  0  0  0
  149.3332  139.4799  154.1911 H   0  0  0  0  0  0  0  0  0  0  0  0
  149.2982  140.1578  152.5832 H   0  0  0  0  0  0  0  0  0  0  0  0
  149.9954  141.9309  154.1723 H   0  0  0  0  0  0  0  0  0  0  0  0
  148.4742  142.3257  153.4708 H   0  0  0  0  0  0  0  0  0  0  0  0
  148.7836  139.9544  156.5141 H   0  0  0  0  0  0  0  0  0  0  0  0
  147.3642  141.3739  158.0836 H   0  0  0  0  0  0  0  0  0  0  0  0
  148.8444  140.8102  158.7655 H   0  0  0  0  0  0  0  0  0  0  0  0
  148.4181  143.6211  157.6358 H   0  0  0  0  0  0  0  0  0  0  0  0
  148.5013  143.1813  159.3293 H   0  0  0  0  0  0  0  0  0  0  0  0
  150.4385  145.1685  158.0177 H   0  0  0  0  0  0  0  0  0  0  0  0
  151.8813  144.4614  158.7548 H   0  0  0  0  0  0  0  0  0  0  0  0
  150.4145  144.6561  159.7097 H   0  0  0  0  0  0  0  0  0  0  0  0
  150.6045  143.3304  156.2243 H   0  0  0  0  0  0  0  0  0  0  0  0
  152.0127  142.7070  157.0589 H   0  0  0  0  0  0  0  0  0  0  0  0
  150.9176  140.5371  157.4289 H   0  0  0  0  0  0  0  0  0  0  0  0
  150.9953  140.8647  155.7426 H   0  0  0  0  0  0  0  0  0  0  0  0
  146.3034  141.5453  156.2725 H   0  0  0  0  0  0  0  0  0  0  0  0
  146.4061  142.1584  154.6606 H   0  0  0  0  0  0  0  0  0  0  0  0
  145.5232  139.8638  154.6199 H   0  0  0  0  0  0  0  0  0  0  0  0
  146.9083  139.2519  155.4753 H   0  0  0  0  0  0  0  0  0  0  0  0
  148.3452  142.7103  155.7123 H   0  0  0  0  0  0  0  0  0  0  0  0
  150.7100  142.4207  159.0020 H   0  0  0  0  0  0  0  0  0  0  0  0
  1  2  1  0  0  0  0
  1 25  1  0  0  0  0
  1 26  1  0  0  0  0
  1 27  1  0  0  0  0
  2 24  1  0  0  0  0
  2  3  2  0  0  0  0
  3  4  1  0  0  0  0
  3 28  1  0  0  0  0
  4  5  2  0  0  0  0
  4 29  1  0  0  0  0
  5  6  1  0  0  0  0
  5 30  1  0  0  0  0
  6  7  1  0  0  0  0
  6 24  2  0  0  0  0
  7  8  1  0  0  0  0
  7 31  1  0  0  0  0
  8  9  2  0  0  0  0
  8 10  1  0  0  0  0
 10 11  1  0  0  0  0
 10 32  1  0  0  0  0
 11 23  1  0  0  0  0
 11 12  1  0  0  0  0
 11 33  1  0  0  0  0
 12 13  1  0  0  0  0
 12 34  1  0  0  0  0
 12 35  1  0  0  0  0
 13 14  1  0  0  0  0
 13 36  1  0  0  0  0
 13 37  1  0  0  0  0
 14 15  1  0  0  0  0
 14 22  1  0  0  0  0
 14 54  1  0  0  0  0
 15 21  1  0  0  0  0
 15 16  1  0  0  0  0
 15 38  1  0  0  0  0
 16 17  1  0  0  0  0
 16 39  1  0  0  0  0
 16 40  1  0  0  0  0
 17 18  1  0  0  0  0
 17 41  1  0  0  0  0
 17 42  1  0  0  0  0
 18 19  1  0  0  0  0
 18 20  1  0  0  0  0
 18 55  1  0  0  0  0
 19 43  1  0  0  0  0
 19 44  1  0  0  0  0
 19 45  1  0  0  0  0
 20 21  1  0  0  0  0
 20 46  1  0  0  0  0
 20 47  1  0  0  0  0
 21 48  1  0  0  0  0
 21 49  1  0  0  0  0
 22 23  1  0  0  0  0
 22 50  1  0  0  0  0
 22 51  1  0  0  0  0
 23 52  1  0  0  0  0
 23 53  1  0  0  0  0
M  CHG  1  14   1
M  CHG  1  18   1
M  END
> <s_m_source_file>
AV-unprocessed.smi

> <i_m_source_file_index>
2237

> <i_lp_mmshare_version>
43012

> <i_f3d_flags>
0

> <s_epik_input>
W0NIM11jMVtjSF1bY0hdW2NIXWMobjEpW05IXUMoPU8pW05IXVtDSF0yW0NIMl1bQ0gyXU4oW0NIMl1bQ0gyXTIpW0NIXTNbQ0gyXVtDSDJdTihbQ0gzXSlbQ0gyXVtDSDJdMw==

> <s_epik_cmdline>
J2VwaWtfcHl0aG9uJywgJy1waCcsICc3LjAnLCAnLXRuJywgJzgnLCAnLW1hJywgJzIwMCcsICctbWV0YWxfYmluZGluZycsICctaW1hZScsICc8aW5maWxlLm1hZT4nLCAnLW9tYWUnLCAnPG91dGZpbGUubWFlPic=

> <r_epik_Ionization_Penalty>
0.180851

> <r_epik_Ionization_Penalty_Charging>
0.180787

> <r_epik_Ionization_Penalty_Neutral>
6.38624e-05

> <r_epik_State_Penalty>
0.153592

> <r_epik_Charging_Adjusted_Penalty>
0.334379

> <i_epik_Tot_Q>
2

> <i_epik_Tot_abs_Q>
2

> <r_epik_Metal_State_Penalty>
0.153595

> <b_epik_Metal_Only>
0

> <s_lp_Force_Field>
OPLS_2005

> <r_lp_Energy>
48.731

> <b_lp_Chiralities_Consistent>
1

> <s_lp_Variant>
AV-unprocessed.smi:2237-4

> <Gold.Version>
5.8.1

> <Gold.Id.Protein>
6NUR|6NUR_protein|mol2

> <Gold.PLP.Fitness>
42.2243

> <Gold.PLP.PLP>
-31.7377

> <Gold.PLP.part.hbond>
-2.9126

> <Gold.PLP.part.metal>
0.0000

> <Gold.PLP.part.buried>
0.9616

> <Gold.PLP.part.nonpolar>
-32.3489

> <Gold.PLP.part.repulsive>
3.4554

> <Gold.PLP.ligand.clash>
0.0000

> <Gold.PLP.ligand.torsion>
0.2767

> <Gold.PLP.Chemscore.Hbond>
3.6619

> <Gold.PLP.Chemscore.CHOScore>
0.0000

> <Gold.PLP.Chemscore.Metal>
0.0000

> <Gold.Chemscore.Hbonds>
donor molecule, donor type, donor heavy atom, donor atom, acceptor molecule, acceptor atom, score
      L1  H     7    31       P1  7948  1.00
      L1  H    10    32       P1  7948  0.77
      L1  H    14    54       P1  8028  1.82

> <Gold.PLP.Chemscore.Internal.Correction>
0.0544

> <Gold.Rescore>
     Score         DG    S(hbond)    S(metal)    S(lipo)     H(rot)  DE(clash)    DE(int)     intcor
     16.06     -22.26       2.65        0.00      94.73       1.23       3.41       2.79       ----

> <Gold.Chemscore.Fitness>
16.0645

> <Gold.Chemscore.DG>
-22.2590

> <Gold.Chemscore.ZeroCoef>
-5.4800

> <Gold.Chemscore.Hbond>
2.6477

> <Gold.Chemscore.Metal>
0.0000

> <Gold.Chemscore.Lipo>
94.7262

> <Gold.Chemscore.Internal_Hbond>
0.0000

> <Gold.Chemscore.DEClash>
3.4067

> <Gold.Chemscore.DEInternal>
2.7877

> <Gold.Chemscore.Rot>
1.2295

> <Gold.Chemscore.Internal.Correction>
   9.000000E+99

> <Gold.Chemscore.Hbonds>
donor molecule, donor type, donor heavy atom, donor atom, acceptor molecule, acceptor atom, score
      L1  H     7    31       P1  7948  1.00
      L1  H    10    32       P1  7948  0.72
      L1  H    14    54       P1  8028  0.85

> <Gold.Chemscore.Hbond.Weighted>
-8.8435

> <Gold.Chemscore.Metal.Weighted>
-0.0000

> <Gold.Chemscore.Lipo.Weighted>
-11.0830

> <Gold.Chemscore.Internal_Hbond.Weighted>
0.0000

> <Gold.Chemscore.DEClash.Weighted>
3.4067

> <Gold.Chemscore.DEInternal.Weighted>
2.7877

> <Gold.Chemscore.Rot.Weighted>
3.1474

> <Gold.Chemscore.Internal.Correction.Weighted>
   9.000000E+99

> <Gold.Protein.RotatedTorsions>
[ 6907 6896 6895 6894 ] final  -49.27 input  -60.11 | X-H torsion
[ 7974 7965 7964 7962 ] final -141.47 input  175.53 | X-H torsion
[ 8008 7997 7996 7995 ] final  121.61 input   59.86 | X-H torsion
[ 10167 10162 10161 10158 ] final  -34.41 input  -65.29 | X-H torsion
[ 10718 10713 10712 10709 ] final   44.31 input   66.30 | X-H torsion
[ 10763 10752 10751 10750 ] final  154.36 input  -60.55 | X-H torsion
[ 11005 11000 10999 10996 ] final  154.12 input  -57.11 | X-H torsion

> <Gold.Protein.ActiveResidues>
 VAL166  LYS551  ARG553  GLY616  TRP617  ASP618  TYR619  PRO620  LYS621  CYS622 
 ASP623  PHE694  ASN695  SER759  ASP760  ASP761  ALA762  ILE779  LEU786  VAL792 
 PHE793  MET794  SER795  GLU796  ALA797  LYS798  CYS799  TRP800  GLU811  SER814 

> <Gold.Protein.RotatedAtoms>
  150.8822  134.8215  159.7232 H   0  0  0  0  0  0  0  0  0  0  0  0  # atno 6907 bound_to 6896
  152.4785  134.4778  159.9666 H   0  0  0  0  0  0  0  0  0  0  0  0  # atno 6908 bound_to 6896
  151.4851  133.3498  159.2880 H   0  0  0  0  0  0  0  0  0  0  0  0  # atno 6909 bound_to 6896
  144.8517  140.6075  143.5386 H   0  0  0  0  0  0  0  0  0  0  0  0  # atno 7974 bound_to 7965
  156.2693  140.2804  156.1335 H   0  0  0  0  0  0  0  0  0  0  0  0  # atno 8008 bound_to 7997
  155.1029  140.0390  157.2719 H   0  0  0  0  0  0  0  0  0  0  0  0  # atno 8009 bound_to 7997
  154.6801  140.2607  155.6923 H   0  0  0  0  0  0  0  0  0  0  0  0  # atno 8010 bound_to 7997
  140.7186  143.3550  151.2078 H   0  0  0  0  0  0  0  0  0  0  0  0  # atno 10167 bound_to 10162
  157.4254  130.7994  149.7554 H   0  0  0  0  0  0  0  0  0  0  0  0  # atno 10718 bound_to 10713
  154.1510  135.2815  155.3135 H   0  0  0  0  0  0  0  0  0  0  0  0  # atno 10763 bound_to 10752
  154.6217  135.5465  153.7586 H   0  0  0  0  0  0  0  0  0  0  0  0  # atno 10764 bound_to 10752
  153.0221  135.6440  154.1654 H   0  0  0  0  0  0  0  0  0  0  0  0  # atno 10765 bound_to 10752
  140.1460  134.8707  157.2393 H   0  0  0  0  0  0  0  0  0  0  0  0  # atno 11005 bound_to 11000
  145.4487  139.1526  143.3930 LP  0  0  0  0  0  0  0  0  0  0  0  0  # atno 17320 bound_to 7965
  146.2790  140.4612  142.8784 LP  0  0  0  0  0  0  0  0  0  0  0  0  # atno 17321 bound_to 7965
  139.7089  143.9409  152.2939 LP  0  0  0  0  0  0  0  0  0  0  0  0  # atno 17342 bound_to 10162
  139.9127  144.6847  150.8545 LP  0  0  0  0  0  0  0  0  0  0  0  0  # atno 17343 bound_to 10162
  155.9895  130.3951  150.3071 LP  0  0  0  0  0  0  0  0  0  0  0  0  # atno 17370 bound_to 10713
  157.1223  131.0250  151.3004 LP  0  0  0  0  0  0  0  0  0  0  0  0  # atno 17371 bound_to 10713
  140.2663  134.3512  155.7389 LP  0  0  0  0  0  0  0  0  0  0  0  0  # atno 17394 bound_to 11000
  141.2193  133.7398  156.9155 LP  0  0  0  0  0  0  0  0  0  0  0  0  # atno 17395 bound_to 11000

$$$$
