AV-unprocessed.smi:1849|AV-procd|sdf|7521|dock1
  -GOLD-   22720 9233D 1   1.00000     0.00000
 Structure written by MMmdl.
 40 41  0  0  0  0  0  0  0  0  1 V2000
  145.1885  139.5939  155.8769 C   0  0  0  0  0  0  0  0  0  0  0  0
  145.7864  139.0825  154.6583 N   0  0  0  0  0  0  0  0  0  0  0  0
  145.6483  137.7941  154.1593 C   0  0  0  0  0  0  0  0  0  0  0  0
  146.3833  137.7400  152.9996 C   0  0  0  0  0  0  0  0  0  0  0  0
  146.9761  138.9770  152.7707 N   0  0  0  0  0  0  0  0  0  0  0  0
  146.5775  139.7370  153.7863 C   0  0  0  0  0  0  0  0  0  0  0  0
  146.9921  141.1632  153.9704 C   0  0  0  0  0  0  0  0  0  0  0  0
  148.4945  141.3726  153.7214 C   0  0  0  0  0  0  0  0  0  0  0  0
  149.1142  142.1411  154.7941 N   0  0  0  0  0  0  0  0  0  0  0  0
  150.1706  141.7362  155.5128 C   0  0  0  0  0  0  0  0  0  0  0  0
  150.7447  140.6594  155.3475 O   0  0  0  0  0  0  0  0  0  0  0  0
  150.5221  142.6433  156.4348 N   0  0  0  0  0  0  0  0  0  0  0  0
  151.6282  142.5022  157.3769 C   0  0  0  0  0  0  0  0  0  0  0  0
  151.2801  141.4775  158.4771 C   0  0  0  0  0  0  0  0  0  0  0  0
  152.3992  141.3756  159.5262 C   0  0  0  0  0  0  0  0  0  0  0  0
  152.7219  142.7495  160.1342 C   0  0  0  0  0  0  0  0  0  0  0  0
  153.0784  143.7684  159.0404 C   0  0  0  0  0  0  0  0  0  0  0  0
  151.9583  143.8751  157.9932 C   0  0  0  0  0  0  0  0  0  0  0  0
  144.7127  138.7844  156.4310 H   0  0  0  0  0  0  0  0  0  0  0  0
  144.4366  140.3441  155.6314 H   0  0  0  0  0  0  0  0  0  0  0  0
  145.9552  140.0467  156.5061 H   0  0  0  0  0  0  0  0  0  0  0  0
  145.0570  137.0412  154.6590 H   0  0  0  0  0  0  0  0  0  0  0  0
  146.5312  136.9141  152.3196 H   0  0  0  0  0  0  0  0  0  0  0  0
  146.4149  141.7812  153.2815 H   0  0  0  0  0  0  0  0  0  0  0  0
  146.7179  141.4920  154.9731 H   0  0  0  0  0  0  0  0  0  0  0  0
  149.0026  140.4131  153.6115 H   0  0  0  0  0  0  0  0  0  0  0  0
  148.6442  141.9111  152.7853 H   0  0  0  0  0  0  0  0  0  0  0  0
  148.7087  143.0415  155.0040 H   0  0  0  0  0  0  0  0  0  0  0  0
  149.9850  143.4962  156.4904 H   0  0  0  0  0  0  0  0  0  0  0  0
  152.5109  142.1530  156.8372 H   0  0  0  0  0  0  0  0  0  0  0  0
  150.3494  141.7647  158.9684 H   0  0  0  0  0  0  0  0  0  0  0  0
  151.1052  140.4952  158.0368 H   0  0  0  0  0  0  0  0  0  0  0  0
  152.1085  140.6795  160.3135 H   0  0  0  0  0  0  0  0  0  0  0  0
  153.2959  140.9618  159.0634 H   0  0  0  0  0  0  0  0  0  0  0  0
  151.8633  143.1087  160.7032 H   0  0  0  0  0  0  0  0  0  0  0  0
  153.5463  142.6583  160.8419 H   0  0  0  0  0  0  0  0  0  0  0  0
  153.2628  144.7456  159.4880 H   0  0  0  0  0  0  0  0  0  0  0  0
  154.0079  143.4714  158.5528 H   0  0  0  0  0  0  0  0  0  0  0  0
  152.2538  144.5753  157.2108 H   0  0  0  0  0  0  0  0  0  0  0  0
  151.0668  144.2942  158.4624 H   0  0  0  0  0  0  0  0  0  0  0  0
  1  2  1  0  0  0  0
  1 19  1  0  0  0  0
  1 20  1  0  0  0  0
  1 21  1  0  0  0  0
  2  6  1  0  0  0  0
  2  3  1  0  0  0  0
  3  4  2  0  0  0  0
  3 22  1  0  0  0  0
  4  5  1  0  0  0  0
  4 23  1  0  0  0  0
  5  6  2  0  0  0  0
  6  7  1  0  0  0  0
  7  8  1  0  0  0  0
  7 24  1  0  0  0  0
  7 25  1  0  0  0  0
  8  9  1  0  0  0  0
  8 26  1  0  0  0  0
  8 27  1  0  0  0  0
  9 10  1  0  0  0  0
  9 28  1  0  0  0  0
 10 11  2  0  0  0  0
 10 12  1  0  0  0  0
 12 13  1  0  0  0  0
 12 29  1  0  0  0  0
 13 18  1  0  0  0  0
 13 14  1  0  0  0  0
 13 30  1  0  0  0  0
 14 15  1  0  0  0  0
 14 31  1  0  0  0  0
 14 32  1  0  0  0  0
 15 16  1  0  0  0  0
 15 33  1  0  0  0  0
 15 34  1  0  0  0  0
 16 17  1  0  0  0  0
 16 35  1  0  0  0  0
 16 36  1  0  0  0  0
 17 18  1  0  0  0  0
 17 37  1  0  0  0  0
 17 38  1  0  0  0  0
 18 39  1  0  0  0  0
 18 40  1  0  0  0  0
M  END
> <s_m_source_file>
AV-unprocessed.smi

> <i_m_source_file_index>
1849

> <i_lp_mmshare_version>
43012

> <i_f3d_flags>
0

> <s_epik_input>
W0NIM11uMVtjSF1bY0hdbmMxW0NIMl1bQ0gyXVtOSF1DKD1PKVtOSF1bQ0hdMltDSDJdW0NIMl1bQ0gyXVtDSDJdW0NIMl0y

> <s_epik_cmdline>
J2VwaWtfcHl0aG9uJywgJy1waCcsICc3LjAnLCAnLXRuJywgJzgnLCAnLW1hJywgJzIwMCcsICctbWV0YWxfYmluZGluZycsICctaW1hZScsICc8aW5maWxlLm1hZT4nLCAnLW9tYWUnLCAnPG91dGZpbGUubWFlPic=

> <r_lp_tautomer_probability>
1

> <r_epik_Ionization_Penalty>
1.48237

> <r_epik_Ionization_Penalty_Charging>
1.48231

> <r_epik_Ionization_Penalty_Neutral>
5.84917e-05

> <r_epik_State_Penalty>
1.57104

> <r_epik_Charging_Adjusted_Penalty>
3.05335

> <i_epik_Tot_Q>
0

> <i_epik_Tot_abs_Q>
0

> <r_epik_Metal_State_Penalty>
0.437242

> <b_epik_Metal_Only>
0

> <s_lp_Force_Field>
OPLS_2005

> <r_lp_Energy>
3.77176

> <b_lp_Chiralities_Consistent>
1

> <s_lp_Variant>
AV-unprocessed.smi:1849-2

> <Gold.Version>
5.8.1

> <Gold.Id.Protein>
6NUR|6NUR_protein|mol2

> <Gold.PLP.Fitness>
40.8616

> <Gold.PLP.PLP>
-31.9622

> <Gold.PLP.part.hbond>
-3.0000

> <Gold.PLP.part.metal>
0.0000

> <Gold.PLP.part.buried>
-2.4748

> <Gold.PLP.part.nonpolar>
-25.2041

> <Gold.PLP.part.repulsive>
0.6361

> <Gold.PLP.ligand.clash>
0.0000

> <Gold.PLP.ligand.torsion>
0.7111

> <Gold.PLP.Chemscore.Hbond>
2.6803

> <Gold.PLP.Chemscore.CHOScore>
0.7435

> <Gold.PLP.Chemscore.Metal>
0.0000

> <Gold.Chemscore.Hbonds>
donor molecule, donor type, donor heavy atom, donor atom, acceptor molecule, acceptor atom, score
      L1  H     9    28       P1  8028  1.00
      L1  H    12    29       P1  8028  0.99
      P1  H  7989  7998       L1    11  0.84
      L1  C     4    23       P1  7948  0.72

> <Gold.PLP.Chemscore.Internal.Correction>
0.0503

> <Gold.Rescore>
     Score         DG    S(hbond)    S(metal)    S(lipo)     H(rot)  DE(clash)    DE(int)     intcor
     17.82     -18.91       2.18        0.00      88.91       1.66       0.58       0.51       ----

> <Gold.Chemscore.Fitness>
17.8181

> <Gold.Chemscore.DG>
-18.9112

> <Gold.Chemscore.ZeroCoef>
-5.4800

> <Gold.Chemscore.Hbond>
2.1771

> <Gold.Chemscore.Metal>
0.0000

> <Gold.Chemscore.Lipo>
88.9148

> <Gold.Chemscore.Internal_Hbond>
0.0000

> <Gold.Chemscore.DEClash>
0.5819

> <Gold.Chemscore.DEInternal>
0.5113

> <Gold.Chemscore.Rot>
1.6575

> <Gold.Chemscore.Internal.Correction>
   9.000000E+99

> <Gold.Chemscore.Hbonds>
donor molecule, donor type, donor heavy atom, donor atom, acceptor molecule, acceptor atom, score
      L1  H     9    28       P1  8028  0.95
      L1  H    12    29       P1  8028  0.93
      P1  H  7989  7998       L1    11  0.31

> <Gold.Chemscore.Hbond.Weighted>
-7.2714

> <Gold.Chemscore.Metal.Weighted>
-0.0000

> <Gold.Chemscore.Lipo.Weighted>
-10.4030

> <Gold.Chemscore.Internal_Hbond.Weighted>
0.0000

> <Gold.Chemscore.DEClash.Weighted>
0.5819

> <Gold.Chemscore.DEInternal.Weighted>
0.5113

> <Gold.Chemscore.Rot.Weighted>
4.2432

> <Gold.Chemscore.Internal.Correction.Weighted>
   9.000000E+99

> <Gold.Protein.RotatedTorsions>
[ 6907 6896 6895 6894 ] final  -68.03 input  -60.11 | X-H torsion
[ 7974 7965 7964 7962 ] final   11.42 input  175.53 | X-H torsion
[ 8008 7997 7996 7995 ] final -165.14 input   59.86 | X-H torsion
[ 10167 10162 10161 10158 ] final   -4.65 input  -65.29 | X-H torsion
[ 10718 10713 10712 10709 ] final -129.66 input   66.30 | X-H torsion
[ 10763 10752 10751 10750 ] final   49.12 input  -60.55 | X-H torsion
[ 11005 11000 10999 10996 ] final  140.40 input  -57.11 | X-H torsion

> <Gold.Protein.ActiveResidues>
 VAL166  LYS551  ARG553  GLY616  TRP617  ASP618  TYR619  PRO620  LYS621  CYS622 
 ASP623  PHE694  ASN695  SER759  ASP760  ASP761  ALA762  ILE779  LEU786  VAL792 
 PHE793  MET794  SER795  GLU796  ALA797  LYS798  CYS799  TRP800  GLU811  SER814 

> <Gold.Protein.RotatedAtoms>
  150.7378  134.5797  159.5932 H   0  0  0  0  0  0  0  0  0  0  0  0  # atno 6907 bound_to 6896
  152.3214  134.7372  160.0322 H   0  0  0  0  0  0  0  0  0  0  0  0  # atno 6908 bound_to 6896
  151.7887  133.3321  159.3529 H   0  0  0  0  0  0  0  0  0  0  0  0  # atno 6909 bound_to 6896
  146.2371  139.9488  142.8473 H   0  0  0  0  0  0  0  0  0  0  0  0  # atno 7974 bound_to 7965
  155.8456  140.0955  157.1707 H   0  0  0  0  0  0  0  0  0  0  0  0  # atno 8008 bound_to 7997
  154.3983  140.1393  156.3843 H   0  0  0  0  0  0  0  0  0  0  0  0  # atno 8009 bound_to 7997
  155.8017  140.3452  155.5409 H   0  0  0  0  0  0  0  0  0  0  0  0  # atno 8010 bound_to 7997
  140.6935  143.6399  150.8445 H   0  0  0  0  0  0  0  0  0  0  0  0  # atno 10167 bound_to 10162
  156.2068  130.6893  151.0604 H   0  0  0  0  0  0  0  0  0  0  0  0  # atno 10718 bound_to 10713
  152.9788  135.5922  154.4037 H   0  0  0  0  0  0  0  0  0  0  0  0  # atno 10763 bound_to 10752
  154.3680  135.2767  155.2284 H   0  0  0  0  0  0  0  0  0  0  0  0  # atno 10764 bound_to 10752
  154.4252  135.6049  153.6089 H   0  0  0  0  0  0  0  0  0  0  0  0  # atno 10765 bound_to 10752
  140.0324  134.9345  157.0688 H   0  0  0  0  0  0  0  0  0  0  0  0  # atno 11005 bound_to 11000
  145.1881  140.9799  143.4227 LP  0  0  0  0  0  0  0  0  0  0  0  0  # atno 17320 bound_to 7965
  144.9881  139.3716  143.6228 LP  0  0  0  0  0  0  0  0  0  0  0  0  # atno 17321 bound_to 7965
  140.0115  143.5638  152.2837 LP  0  0  0  0  0  0  0  0  0  0  0  0  # atno 17342 bound_to 10162
  139.6363  144.7650  151.2430 LP  0  0  0  0  0  0  0  0  0  0  0  0  # atno 17343 bound_to 10162
  157.7017  131.0773  150.6800 LP  0  0  0  0  0  0  0  0  0  0  0  0  # atno 17370 bound_to 10713
  156.6858  130.4580  149.5614 LP  0  0  0  0  0  0  0  0  0  0  0  0  # atno 17371 bound_to 10713
  140.4203  134.1888  155.7164 LP  0  0  0  0  0  0  0  0  0  0  0  0  # atno 17394 bound_to 11000
  141.1838  133.8356  157.1160 LP  0  0  0  0  0  0  0  0  0  0  0  0  # atno 17395 bound_to 11000

$$$$
