AV-unprocessed.smi:219|AV-procd|sdf|1679|dock3
  -GOLD-   2262020113D 1   1.00000     0.00000
 Structure written by MMmdl.
 50 53  0  0  0  0  0  0  0  0  1 V2000
  152.7526  138.8912  160.0923 N   0  0  0  0  0  0  0  0  0  0  0  0
  152.9201  139.0452  158.7765 C   0  0  0  0  0  0  0  0  0  0  0  0
  153.9275  138.6512  158.1927 O   0  0  0  0  0  0  0  0  0  0  0  0
  151.8103  139.7783  158.0136 C   0  0  0  0  0  0  0  0  0  0  0  0
  151.5532  141.2452  158.4690 C   0  0  1  0  0  0  0  0  0  0  0  0
  152.8200  141.7737  159.1814 C   0  0  0  0  0  0  0  0  0  0  0  0
  152.6659  143.2299  159.6384 C   0  0  0  0  0  0  0  0  0  0  0  0
  152.2835  144.1093  158.4443 C   0  0  0  0  0  0  0  0  0  0  0  0
  151.0120  143.5696  157.7774 C   0  0  0  0  0  0  0  0  0  0  0  0
  151.1678  142.1676  157.3825 N   0  0  0  0  0  0  0  0  0  0  0  0
  150.1377  141.7718  156.6014 C   0  0  0  0  0  0  0  0  0  0  0  0
  150.3720  141.3450  155.3318 N   0  0  0  0  0  0  0  0  0  0  0  0
  149.3492  140.9720  154.5566 C   0  0  0  0  0  0  0  0  0  0  0  0
  148.0460  140.9513  154.8456 N   0  0  0  0  0  0  0  0  0  0  0  0
  147.8118  141.3839  156.1182 C   0  0  0  0  0  0  0  0  0  0  0  0
  148.7946  141.8002  157.0585 C   0  0  0  0  0  0  0  0  0  0  0  0
  148.1907  142.1658  158.2539 N   0  0  0  0  0  0  0  0  0  0  0  0
  146.9179  141.9805  158.0312 C   0  0  0  0  0  0  0  0  0  0  0  0
  146.5994  141.5251  156.7708 N   0  0  0  0  0  0  0  0  0  0  0  0
  145.2686  141.2428  156.2546 C   0  0  0  0  0  0  0  0  0  0  0  0
  144.8253  142.1955  155.1183 C   0  0  1  0  0  0  0  0  0  0  0  0
  143.5721  141.7681  154.6136 O   0  0  0  0  0  0  0  0  0  0  0  0
  144.6830  143.6399  155.5841 C   0  0  0  0  0  0  0  0  0  0  0  0
  145.0067  144.4352  154.3268 C   0  0  0  0  0  0  0  0  0  0  0  0
  146.0718  143.6956  153.7552 O   0  0  0  0  0  0  0  0  0  0  0  0
  145.8145  142.3065  153.9384 C   0  0  0  0  0  0  0  0  0  0  0  0
  153.4564  138.4098  160.6331 H   0  0  0  0  0  0  0  0  0  0  0  0
  151.9230  139.2508  160.5413 H   0  0  0  0  0  0  0  0  0  0  0  0
  152.1084  139.7656  156.9644 H   0  0  0  0  0  0  0  0  0  0  0  0
  150.8859  139.2007  158.0586 H   0  0  0  0  0  0  0  0  0  0  0  0
  150.7428  141.2495  159.1999 H   0  0  0  0  0  0  0  0  0  0  0  0
  153.0524  141.1501  160.0456 H   0  0  0  0  0  0  0  0  0  0  0  0
  153.6754  141.6983  158.5081 H   0  0  0  0  0  0  0  0  0  0  0  0
  151.8975  143.2966  160.4096 H   0  0  0  0  0  0  0  0  0  0  0  0
  153.5938  143.5851  160.0872 H   0  0  0  0  0  0  0  0  0  0  0  0
  152.1285  145.1382  158.7694 H   0  0  0  0  0  0  0  0  0  0  0  0
  153.1002  144.1287  157.7214 H   0  0  0  0  0  0  0  0  0  0  0  0
  150.1726  143.6645  158.4683 H   0  0  0  0  0  0  0  0  0  0  0  0
  150.7743  144.1771  156.9027 H   0  0  0  0  0  0  0  0  0  0  0  0
  149.6115  140.6475  153.5606 H   0  0  0  0  0  0  0  0  0  0  0  0
  146.1710  142.1773  158.7864 H   0  0  0  0  0  0  0  0  0  0  0  0
  145.2477  140.2088  155.9080 H   0  0  0  0  0  0  0  0  0  0  0  0
  144.5654  141.2995  157.0865 H   0  0  0  0  0  0  0  0  0  0  0  0
  143.7212  141.0869  153.9761 H   0  0  0  0  0  0  0  0  0  0  0  0
  143.7019  143.8740  155.9998 H   0  0  0  0  0  0  0  0  0  0  0  0
  145.4286  143.8669  156.3475 H   0  0  0  0  0  0  0  0  0  0  0  0
  144.1581  144.4493  153.6412 H   0  0  0  0  0  0  0  0  0  0  0  0
  145.2987  145.4637  154.5394 H   0  0  0  0  0  0  0  0  0  0  0  0
  146.7630  141.8102  154.1401 H   0  0  0  0  0  0  0  0  0  0  0  0
  145.4107  141.8775  153.0198 H   0  0  0  0  0  0  0  0  0  0  0  0
  1  2  1  0  0  0  0
  1 27  1  0  0  0  0
  1 28  1  0  0  0  0
  2  3  2  0  0  0  0
  2  4  1  0  0  0  0
  4  5  1  0  0  0  0
  4 29  1  0  0  0  0
  4 30  1  0  0  0  0
  5 10  1  0  0  0  0
  5  6  1  0  0  0  0
  5 31  1  0  0  0  0
  6  7  1  0  0  0  0
  6 32  1  0  0  0  0
  6 33  1  0  0  0  0
  7  8  1  0  0  0  0
  7 34  1  0  0  0  0
  7 35  1  0  0  0  0
  8  9  1  0  0  0  0
  8 36  1  0  0  0  0
  8 37  1  0  0  0  0
  9 10  1  0  0  0  0
  9 38  1  0  0  0  0
  9 39  1  0  0  0  0
 10 11  1  0  0  0  0
 11 16  1  0  0  0  0
 11 12  2  0  0  0  0
 12 13  1  0  0  0  0
 13 14  2  0  0  0  0
 13 40  1  0  0  0  0
 14 15  1  0  0  0  0
 15 19  1  0  0  0  0
 15 16  2  0  0  0  0
 16 17  1  0  0  0  0
 17 18  2  0  0  0  0
 18 19  1  0  0  0  0
 18 41  1  0  0  0  0
 19 20  1  0  0  0  0
 20 21  1  0  0  0  0
 20 42  1  0  0  0  0
 20 43  1  0  0  0  0
 21 26  1  0  0  0  0
 21 22  1  0  0  0  0
 21 23  1  0  0  0  0
 22 44  1  0  0  0  0
 23 24  1  0  0  0  0
 23 45  1  0  0  0  0
 23 46  1  0  0  0  0
 24 25  1  0  0  0  0
 24 47  1  0  0  0  0
 24 48  1  0  0  0  0
 25 26  1  0  0  0  0
 26 49  1  0  0  0  0
 26 50  1  0  0  0  0
M  END
> <s_m_source_file>
AV-unprocessed.smi

> <i_m_source_file_index>
219

> <i_lp_mmshare_version>
43012

> <i_f3d_flags>
0

> <s_epik_input>
W05IMl1DKD1PKVtDSDJdW0NAQEhdMVtDSDJdW0NIMl1bQ0gyXVtDSDJdTjFjKG5bY0hdbjIpYyhjMjMpbltjSF1uM1tDSDJdW0NAQF00KFtPSF0pW0NIMl1bQ0gyXU9bQ0gyXTQ=

> <s_epik_cmdline>
J2VwaWtfcHl0aG9uJywgJy1waCcsICc3LjAnLCAnLXRuJywgJzgnLCAnLW1hJywgJzIwMCcsICctbWV0YWxfYmluZGluZycsICctaW1hZScsICc8aW5maWxlLm1hZT4nLCAnLW9tYWUnLCAnPG91dGZpbGUubWFlPic=

> <r_lp_tautomer_probability>
1

> <r_epik_Ionization_Penalty>
0.00228532

> <r_epik_Ionization_Penalty_Charging>
0

> <r_epik_Ionization_Penalty_Neutral>
0.00228532

> <r_epik_State_Penalty>
0.00140978

> <r_epik_Charging_Adjusted_Penalty>
0.00140978

> <i_epik_Tot_Q>
0

> <i_epik_Tot_abs_Q>
0

> <r_epik_Metal_State_Penalty>
-0

> <b_epik_Metal_Only>
0

> <s_lp_Force_Field>
OPLS_2005

> <r_lp_Energy>
37.1625

> <b_lp_Chiralities_Consistent>
1

> <s_lp_Variant>
AV-unprocessed.smi:219-2

> <Gold.Version>
5.8.1

> <Gold.Id.Protein>
6NUR|6NUR_protein|mol2

> <Gold.PLP.Fitness>
42.8507

> <Gold.PLP.PLP>
-34.8670

> <Gold.PLP.part.hbond>
-3.9022

> <Gold.PLP.part.metal>
0.0000

> <Gold.PLP.part.buried>
-3.1980

> <Gold.PLP.part.nonpolar>
-29.3706

> <Gold.PLP.part.repulsive>
0.6534

> <Gold.PLP.ligand.clash>
0.0000

> <Gold.PLP.ligand.torsion>
0.7301

> <Gold.PLP.Chemscore.Hbond>
2.0480

> <Gold.PLP.Chemscore.CHOScore>
1.0000

> <Gold.PLP.Chemscore.Metal>
0.0000

> <Gold.Chemscore.Hbonds>
donor molecule, donor type, donor heavy atom, donor atom, acceptor molecule, acceptor atom, score
      L1  H    22    44       P1 10175  1.00
      P1  H  7989  7998       L1    12  0.05
      P1  H  7997  8008       L1     3  1.00
      L1  C    13    40       P1  7957  1.00

> <Gold.PLP.Chemscore.Internal.Correction>
0.2998

> <Gold.Rescore>
     Score         DG    S(hbond)    S(metal)    S(lipo)     H(rot)  DE(clash)    DE(int)     intcor
      9.81     -12.19       1.79        0.00      79.87       3.37       0.28       2.10       ----

> <Gold.Chemscore.Fitness>
9.8096

> <Gold.Chemscore.DG>
-12.1898

> <Gold.Chemscore.ZeroCoef>
-5.4800

> <Gold.Chemscore.Hbond>
1.7940

> <Gold.Chemscore.Metal>
0.0000

> <Gold.Chemscore.Lipo>
79.8658

> <Gold.Chemscore.Internal_Hbond>
0.0000

> <Gold.Chemscore.DEClash>
0.2800

> <Gold.Chemscore.DEInternal>
2.1001

> <Gold.Chemscore.Rot>
3.3697

> <Gold.Chemscore.Internal.Correction>
   9.000000E+99

> <Gold.Chemscore.Hbonds>
donor molecule, donor type, donor heavy atom, donor atom, acceptor molecule, acceptor atom, score
      L1  H    22    44       P1 10175  0.51
      P1  H  7997  8008       L1     3  0.88

> <Gold.Chemscore.Hbond.Weighted>
-5.9919

> <Gold.Chemscore.Metal.Weighted>
-0.0000

> <Gold.Chemscore.Lipo.Weighted>
-9.3443

> <Gold.Chemscore.Internal_Hbond.Weighted>
0.0000

> <Gold.Chemscore.DEClash.Weighted>
0.2800

> <Gold.Chemscore.DEInternal.Weighted>
2.1001

> <Gold.Chemscore.Rot.Weighted>
8.6264

> <Gold.Chemscore.Internal.Correction.Weighted>
   9.000000E+99

> <Gold.Protein.RotatedTorsions>
[ 6907 6896 6895 6894 ] final  163.06 input  -60.11 | X-H torsion
[ 7974 7965 7964 7962 ] final   -5.57 input  175.53 | X-H torsion
[ 8008 7997 7996 7995 ] final -102.22 input   59.86 | X-H torsion
[ 10167 10162 10161 10158 ] final   89.39 input  -65.29 | X-H torsion
[ 10718 10713 10712 10709 ] final  -24.92 input   66.30 | X-H torsion
[ 10763 10752 10751 10750 ] final  159.00 input  -60.55 | X-H torsion
[ 11005 11000 10999 10996 ] final  123.86 input  -57.11 | X-H torsion

> <Gold.Protein.ActiveResidues>
 VAL166  LYS551  ARG553  GLY616  TRP617  ASP618  TYR619  PRO620  LYS621  CYS622 
 ASP623  PHE694  ASN695  SER759  ASP760  ASP761  ALA762  ILE779  LEU786  VAL792 
 PHE793  MET794  SER795  GLU796  ALA797  LYS798  CYS799  TRP800  GLU811  SER814 

> <Gold.Protein.RotatedAtoms>
  151.9310  133.3611  159.3930 H   0  0  0  0  0  0  0  0  0  0  0  0  # atno 6907 bound_to 6896
  150.7017  134.4537  159.5357 H   0  0  0  0  0  0  0  0  0  0  0  0  # atno 6908 bound_to 6896
  152.2178  134.8442  160.0540 H   0  0  0  0  0  0  0  0  0  0  0  0  # atno 6909 bound_to 6896
  146.2350  140.2041  142.8334 H   0  0  0  0  0  0  0  0  0  0  0  0  # atno 7974 bound_to 7965
  154.8536  140.0429  157.1620 H   0  0  0  0  0  0  0  0  0  0  0  0  # atno 8008 bound_to 7997
  154.8916  140.2987  155.5347 H   0  0  0  0  0  0  0  0  0  0  0  0  # atno 8009 bound_to 7997
  156.2997  140.2392  156.3933 H   0  0  0  0  0  0  0  0  0  0  0  0  # atno 8010 bound_to 7997
  139.8577  144.6560  150.9095 H   0  0  0  0  0  0  0  0  0  0  0  0  # atno 10167 bound_to 10162
  156.4713  130.4525  149.6868 H   0  0  0  0  0  0  0  0  0  0  0  0  # atno 10718 bound_to 10713
  154.2248  135.2780  155.2911 H   0  0  0  0  0  0  0  0  0  0  0  0  # atno 10763 bound_to 10752
  154.5672  135.5629  153.7065 H   0  0  0  0  0  0  0  0  0  0  0  0  # atno 10764 bound_to 10752
  153.0033  135.6312  154.2389 H   0  0  0  0  0  0  0  0  0  0  0  0  # atno 10765 bound_to 10752
  139.9332  134.9641  156.8322 H   0  0  0  0  0  0  0  0  0  0  0  0  # atno 11005 bound_to 11000
  144.9759  140.8413  143.5427 LP  0  0  0  0  0  0  0  0  0  0  0  0  # atno 17320 bound_to 7965
  145.2028  139.2243  143.5184 LP  0  0  0  0  0  0  0  0  0  0  0  0  # atno 17321 bound_to 7965
  140.7779  143.3771  151.1543 LP  0  0  0  0  0  0  0  0  0  0  0  0  # atno 17342 bound_to 10162
  139.7404  143.8934  152.3048 LP  0  0  0  0  0  0  0  0  0  0  0  0  # atno 17343 bound_to 10162
  156.3616  130.7484  151.2457 LP  0  0  0  0  0  0  0  0  0  0  0  0  # atno 17370 bound_to 10713
  157.7491  131.0348  150.4337 LP  0  0  0  0  0  0  0  0  0  0  0  0  # atno 17371 bound_to 10713
  140.6146  134.0050  155.7592 LP  0  0  0  0  0  0  0  0  0  0  0  0  # atno 17394 bound_to 11000
  141.0932  133.9885  157.3204 LP  0  0  0  0  0  0  0  0  0  0  0  0  # atno 17395 bound_to 11000

$$$$
