AV-unprocessed.smi:1244|AV-procd|sdf|5227|dock4
  -GOLD-   22720 4323D 1   1.00000     0.00000
 Structure written by MMmdl.
 55 57  0  0  0  0  0  0  0  0  2 V2000
  145.7415  136.3299  154.6369 C   0  0  0  0  0  0  0  0  0  0  0  0
  147.2631  136.3468  154.4527 C   0  0  1  0  0  0  0  0  0  0  0  0
  147.8279  137.7785  154.4537 C   0  0  0  0  0  0  0  0  0  0  0  0
  149.3062  137.7552  154.3628 N   0  3  1  0  0  0  0  0  0  0  0  0
  149.8857  139.1175  154.2586 C   0  0  0  0  0  0  0  0  0  0  0  0
  151.3434  139.1778  154.7541 C   0  0  0  0  0  0  0  0  0  0  0  0
  151.4705  140.0253  155.9336 N   0  0  0  0  0  0  0  0  0  0  0  0
  152.2743  139.7694  156.9753 C   0  0  0  0  0  0  0  0  0  0  0  0
  153.0047  138.7804  157.0414 O   0  0  0  0  0  0  0  0  0  0  0  0
  152.1919  140.7348  157.9055 N   0  0  0  0  0  0  0  0  0  0  0  0
  152.9175  140.8332  159.1258 C   0  0  0  0  0  0  0  0  0  0  0  0
  153.5935  139.7153  159.6728 C   0  0  0  0  0  0  0  0  0  0  0  0
  154.2367  139.8385  160.9161 C   0  0  0  0  0  0  0  0  0  0  0  0
  154.1675  141.0745  161.5801 C   0  0  0  0  0  0  0  0  0  0  0  0
  153.5173  142.1439  161.0795 N   0  0  0  0  0  0  0  0  0  0  0  0
  152.9046  142.0455  159.8737 C   0  0  0  0  0  0  0  0  0  0  0  0
  152.2561  143.2050  159.3896 N   0  0  0  0  0  0  0  0  0  0  0  0
  151.8999  144.2882  160.3004 C   0  0  0  0  0  0  0  0  0  0  0  0
  151.6077  145.4838  159.3984 C   0  0  0  0  0  0  0  0  0  0  0  0
  152.6164  145.2948  158.2696 C   0  0  0  0  0  0  0  0  0  0  0  0
  152.7219  143.7728  158.1274 C   0  0  0  0  0  0  0  0  0  0  0  0
  149.8774  136.9483  155.4696 C   0  0  0  0  0  0  0  0  0  0  0  0
  149.2675  135.5327  155.5000 C   0  0  2  0  0  0  0  0  0  0  0  0
  149.7832  134.6167  154.3756 C   0  0  0  0  0  0  0  0  0  0  0  0
  147.8423  135.6086  155.5252 O   0  0  0  0  0  0  0  0  0  0  0  0
  145.2419  136.8718  153.8335 H   0  0  0  0  0  0  0  0  0  0  0  0
  145.4528  136.7911  155.5820 H   0  0  0  0  0  0  0  0  0  0  0  0
  145.3597  135.3087  154.6351 H   0  0  0  0  0  0  0  0  0  0  0  0
  147.4932  135.8620  153.5036 H   0  0  0  0  0  0  0  0  0  0  0  0
  147.4152  138.3317  153.6091 H   0  0  0  0  0  0  0  0  0  0  0  0
  147.5270  138.3064  155.3603 H   0  0  0  0  0  0  0  0  0  0  0  0
  149.8640  139.4266  153.2126 H   0  0  0  0  0  0  0  0  0  0  0  0
  149.2619  139.8289  154.8022 H   0  0  0  0  0  0  0  0  0  0  0  0
  151.7019  138.1867  155.0293 H   0  0  0  0  0  0  0  0  0  0  0  0
  152.0024  139.5388  153.9625 H   0  0  0  0  0  0  0  0  0  0  0  0
  150.9056  140.8620  155.9608 H   0  0  0  0  0  0  0  0  0  0  0  0
  151.6288  141.5393  157.6709 H   0  0  0  0  0  0  0  0  0  0  0  0
  153.6085  138.7602  159.1701 H   0  0  0  0  0  0  0  0  0  0  0  0
  154.7586  139.0015  161.3558 H   0  0  0  0  0  0  0  0  0  0  0  0
  154.6412  141.2070  162.5414 H   0  0  0  0  0  0  0  0  0  0  0  0
  151.0388  144.0235  160.9146 H   0  0  0  0  0  0  0  0  0  0  0  0
  152.7329  144.5298  160.9620 H   0  0  0  0  0  0  0  0  0  0  0  0
  150.5920  145.4176  159.0057 H   0  0  0  0  0  0  0  0  0  0  0  0
  151.7136  146.4396  159.9118 H   0  0  0  0  0  0  0  0  0  0  0  0
  152.3177  145.7874  157.3440 H   0  0  0  0  0  0  0  0  0  0  0  0
  153.5822  145.7029  158.5709 H   0  0  0  0  0  0  0  0  0  0  0  0
  153.7410  143.4653  157.8885 H   0  0  0  0  0  0  0  0  0  0  0  0
  152.0679  143.4295  157.3255 H   0  0  0  0  0  0  0  0  0  0  0  0
  150.9606  136.8742  155.3785 H   0  0  0  0  0  0  0  0  0  0  0  0
  149.6760  137.4520  156.4163 H   0  0  0  0  0  0  0  0  0  0  0  0
  149.5597  135.0675  156.4419 H   0  0  0  0  0  0  0  0  0  0  0  0
  150.8592  134.4655  154.4639 H   0  0  0  0  0  0  0  0  0  0  0  0
  149.5951  135.0293  153.3847 H   0  0  0  0  0  0  0  0  0  0  0  0
  149.3090  133.6362  154.4258 H   0  0  0  0  0  0  0  0  0  0  0  0
  149.5292  137.2798  153.4998 H   0  0  0  0  0  0  0  0  0  0  0  0
  1  2  1  0  0  0  0
  1 26  1  0  0  0  0
  1 27  1  0  0  0  0
  1 28  1  0  0  0  0
  2 25  1  0  0  0  0
  2  3  1  0  0  0  0
  2 29  1  0  0  0  0
  3  4  1  0  0  0  0
  3 30  1  0  0  0  0
  3 31  1  0  0  0  0
  4  5  1  0  0  0  0
  4 22  1  0  0  0  0
  4 55  1  0  0  0  0
  5  6  1  0  0  0  0
  5 32  1  0  0  0  0
  5 33  1  0  0  0  0
  6  7  1  0  0  0  0
  6 34  1  0  0  0  0
  6 35  1  0  0  0  0
  7  8  1  0  0  0  0
  7 36  1  0  0  0  0
  8  9  2  0  0  0  0
  8 10  1  0  0  0  0
 10 11  1  0  0  0  0
 10 37  1  0  0  0  0
 11 16  1  0  0  0  0
 11 12  2  0  0  0  0
 12 13  1  0  0  0  0
 12 38  1  0  0  0  0
 13 14  2  0  0  0  0
 13 39  1  0  0  0  0
 14 15  1  0  0  0  0
 14 40  1  0  0  0  0
 15 16  2  0  0  0  0
 16 17  1  0  0  0  0
 17 21  1  0  0  0  0
 17 18  1  0  0  0  0
 18 19  1  0  0  0  0
 18 41  1  0  0  0  0
 18 42  1  0  0  0  0
 19 20  1  0  0  0  0
 19 43  1  0  0  0  0
 19 44  1  0  0  0  0
 20 21  1  0  0  0  0
 20 45  1  0  0  0  0
 20 46  1  0  0  0  0
 21 47  1  0  0  0  0
 21 48  1  0  0  0  0
 22 23  1  0  0  0  0
 22 49  1  0  0  0  0
 22 50  1  0  0  0  0
 23 24  1  0  0  0  0
 23 25  1  0  0  0  0
 23 51  1  0  0  0  0
 24 52  1  0  0  0  0
 24 53  1  0  0  0  0
 24 54  1  0  0  0  0
M  CHG  1   4   1
M  END
> <s_m_source_file>
AV-unprocessed.smi

> <i_m_source_file_index>
1244

> <i_lp_mmshare_version>
43012

> <i_f3d_flags>
0

> <s_epik_input>
W0NIM11bQ0BASF0xW0NIMl1OKFtDSDJdW0NASF0oTzEpW0NIM10pW0NIMl1bQ0gyXVtOSF1DKD1PKVtOSF1jMltjSF1bY0hdW2NIXW5jMk4zW0NIMl1bQ0gyXVtDSDJdW0NIMl0z

> <s_epik_cmdline>
J2VwaWtfcHl0aG9uJywgJy1waCcsICc3LjAnLCAnLXRuJywgJzgnLCAnLW1hJywgJzIwMCcsICctbWV0YWxfYmluZGluZycsICctaW1hZScsICc8aW5maWxlLm1hZT4nLCAnLW9tYWUnLCAnPG91dGZpbGUubWFlPic=

> <r_lp_tautomer_probability>
1

> <r_epik_Ionization_Penalty>
0.684913

> <r_epik_Ionization_Penalty_Charging>
0.602531

> <r_epik_Ionization_Penalty_Neutral>
0.0823829

> <r_epik_State_Penalty>
0.678827

> <r_epik_Charging_Adjusted_Penalty>
1.28136

> <i_epik_Tot_Q>
1

> <i_epik_Tot_abs_Q>
1

> <r_epik_Metal_State_Penalty>
0.67806

> <b_epik_Metal_Only>
0

> <s_lp_Force_Field>
OPLS_2005

> <r_lp_Energy>
45.4089

> <b_lp_Chiralities_Consistent>
1

> <s_lp_Variant>
AV-unprocessed.smi:1244-7

> <Gold.Version>
5.8.1

> <Gold.Id.Protein>
6NUR|6NUR_protein|mol2

> <Gold.PLP.Fitness>
50.0888

> <Gold.PLP.PLP>
-44.2901

> <Gold.PLP.part.hbond>
-2.0000

> <Gold.PLP.part.metal>
0.0000

> <Gold.PLP.part.buried>
-5.3566

> <Gold.PLP.part.nonpolar>
-35.3885

> <Gold.PLP.part.repulsive>
0.2641

> <Gold.PLP.ligand.clash>
0.0000

> <Gold.PLP.ligand.torsion>
1.1592

> <Gold.PLP.Chemscore.Hbond>
2.5959

> <Gold.PLP.Chemscore.CHOScore>
0.0000

> <Gold.PLP.Chemscore.Metal>
0.0000

> <Gold.Chemscore.Hbonds>
donor molecule, donor type, donor heavy atom, donor atom, acceptor molecule, acceptor atom, score
      L1  H     4    55       P1  7948  2.00
      P1  H  7997  8009       L1     9  0.36

> <Gold.PLP.Chemscore.Internal.Correction>
0.3294

> <Gold.Rescore>
     Score         DG    S(hbond)    S(metal)    S(lipo)     H(rot)  DE(clash)    DE(int)     intcor
     15.60     -18.35       1.19        0.00     110.94       1.60       0.28       2.47       ----

> <Gold.Chemscore.Fitness>
15.6002

> <Gold.Chemscore.DG>
-18.3483

> <Gold.Chemscore.ZeroCoef>
-5.4800

> <Gold.Chemscore.Hbond>
1.1911

> <Gold.Chemscore.Metal>
0.0000

> <Gold.Chemscore.Lipo>
110.9436

> <Gold.Chemscore.Internal_Hbond>
0.0000

> <Gold.Chemscore.DEClash>
0.2776

> <Gold.Chemscore.DEInternal>
2.4705

> <Gold.Chemscore.Rot>
1.5978

> <Gold.Chemscore.Internal.Correction>
   9.000000E+99

> <Gold.Chemscore.Hbonds>
donor molecule, donor type, donor heavy atom, donor atom, acceptor molecule, acceptor atom, score
      L1  H     4    55       P1  7948  0.82
      P1  H  7997  8009       L1     9  0.01

> <Gold.Chemscore.Hbond.Weighted>
-3.9784

> <Gold.Chemscore.Metal.Weighted>
-0.0000

> <Gold.Chemscore.Lipo.Weighted>
-12.9804

> <Gold.Chemscore.Internal_Hbond.Weighted>
0.0000

> <Gold.Chemscore.DEClash.Weighted>
0.2776

> <Gold.Chemscore.DEInternal.Weighted>
2.4705

> <Gold.Chemscore.Rot.Weighted>
4.0905

> <Gold.Chemscore.Internal.Correction.Weighted>
   9.000000E+99

> <Gold.Protein.RotatedTorsions>
[ 6907 6896 6895 6894 ] final  -17.72 input  -60.11 | X-H torsion
[ 7974 7965 7964 7962 ] final  141.46 input  175.53 | X-H torsion
[ 8008 7997 7996 7995 ] final  150.07 input   59.86 | X-H torsion
[ 10167 10162 10161 10158 ] final  161.01 input  -65.29 | X-H torsion
[ 10718 10713 10712 10709 ] final  -90.71 input   66.30 | X-H torsion
[ 10763 10752 10751 10750 ] final  133.35 input  -60.55 | X-H torsion
[ 11005 11000 10999 10996 ] final  -77.42 input  -57.11 | X-H torsion

> <Gold.Protein.ActiveResidues>
 VAL166  LYS551  ARG553  GLY616  TRP617  ASP618  TYR619  PRO620  LYS621  CYS622 
 ASP623  PHE694  ASN695  SER759  ASP760  ASP761  ALA762  ILE779  LEU786  VAL792 
 PHE793  MET794  SER795  GLU796  ALA797  LYS798  CYS799  TRP800  GLU811  SER814 

> <Gold.Protein.RotatedAtoms>
  151.2891  135.0736  159.9197 H   0  0  0  0  0  0  0  0  0  0  0  0  # atno 6907 bound_to 6896
  152.5320  133.9950  159.7879 H   0  0  0  0  0  0  0  0  0  0  0  0  # atno 6908 bound_to 6896
  151.0217  133.5819  159.2701 H   0  0  0  0  0  0  0  0  0  0  0  0  # atno 6909 bound_to 6896
  144.9095  139.5313  143.5715 H   0  0  0  0  0  0  0  0  0  0  0  0  # atno 7974 bound_to 7965
  156.2730  140.2085  156.5958 H   0  0  0  0  0  0  0  0  0  0  0  0  # atno 8008 bound_to 7997
  154.6946  140.0527  157.0421 H   0  0  0  0  0  0  0  0  0  0  0  0  # atno 8009 bound_to 7997
  155.0819  140.3187  155.4602 H   0  0  0  0  0  0  0  0  0  0  0  0  # atno 8010 bound_to 7997
  139.4845  144.4579  151.8744 H   0  0  0  0  0  0  0  0  0  0  0  0  # atno 10167 bound_to 10162
  155.9989  130.4920  150.5365 H   0  0  0  0  0  0  0  0  0  0  0  0  # atno 10718 bound_to 10713
  153.8057  135.3136  155.3395 H   0  0  0  0  0  0  0  0  0  0  0  0  # atno 10763 bound_to 10752
  154.8071  135.4691  154.0424 H   0  0  0  0  0  0  0  0  0  0  0  0  # atno 10764 bound_to 10752
  153.1786  135.6890  153.8597 H   0  0  0  0  0  0  0  0  0  0  0  0  # atno 10765 bound_to 10752
  141.1660  133.7022  156.7818 H   0  0  0  0  0  0  0  0  0  0  0  0  # atno 11005 bound_to 11000
  146.3151  139.7889  142.8990 LP  0  0  0  0  0  0  0  0  0  0  0  0  # atno 17320 bound_to 7965
  145.3479  141.0301  143.3355 LP  0  0  0  0  0  0  0  0  0  0  0  0  # atno 17321 bound_to 7965
  140.4039  144.2457  150.5891 LP  0  0  0  0  0  0  0  0  0  0  0  0  # atno 17342 bound_to 10162
  140.5031  143.2312  151.8649 LP  0  0  0  0  0  0  0  0  0  0  0  0  # atno 17343 bound_to 10162
  157.3307  131.0699  151.1863 LP  0  0  0  0  0  0  0  0  0  0  0  0  # atno 17370 bound_to 10713
  157.2745  130.6720  149.6035 LP  0  0  0  0  0  0  0  0  0  0  0  0  # atno 17371 bound_to 10713
  140.2389  134.8629  157.3553 LP  0  0  0  0  0  0  0  0  0  0  0  0  # atno 17394 bound_to 11000
  140.1816  134.4483  155.7769 LP  0  0  0  0  0  0  0  0  0  0  0  0  # atno 17395 bound_to 11000

$$$$
