AV-unprocessed.smi:1311|AV-procd|sdf|5447|dock4
  -GOLD-   22720 5 13D 1   1.00000     0.00000
 Structure written by MMmdl.
 46 47  0  0  0  0  0  0  0  0  2 V2000
  150.1482  132.9246  155.0988 C   0  0  0  0  0  0  0  0  0  0  0  0
  149.4407  133.2838  153.7824 C   0  0  0  0  0  0  0  0  0  0  0  0
  147.9966  133.8378  153.9435 C   0  0  1  0  0  0  0  0  0  0  0  0
  148.0077  135.0787  154.8843 C   0  0  0  0  0  0  0  0  0  0  0  0
  148.8792  136.1628  154.4441 N   0  0  0  0  0  0  0  0  0  0  0  0
  149.2051  137.2384  155.1798 C   0  0  0  0  0  0  0  0  0  0  0  0
  148.7911  137.4194  156.3240 O   0  0  0  0  0  0  0  0  0  0  0  0
  150.1061  138.2869  154.5206 C   0  0  0  0  0  0  0  0  0  0  0  0
  150.9766  138.9747  155.5435 C   0  0  0  0  0  0  0  0  0  0  0  0
  150.5679  139.7620  156.6589 C   0  0  0  0  0  0  0  0  0  0  0  0
  149.1767  140.1122  157.1029 C   0  0  0  0  0  0  0  0  0  0  0  0
  151.6017  140.2108  157.3505 N   0  0  0  0  0  0  0  0  0  0  0  0
  152.7397  139.7244  156.7002 O   0  0  0  0  0  0  0  0  0  0  0  0
  152.3420  138.9947  155.6274 C   0  0  0  0  0  0  0  0  0  0  0  0
  153.4193  138.3800  154.7989 C   0  0  0  0  0  0  0  0  0  0  0  0
  147.3756  134.1696  152.6179 N   0  3  0  0  0  0  0  0  0  0  0  0
  147.2098  133.0504  151.6630 C   0  0  0  0  0  0  0  0  0  0  0  0
  146.2058  133.5507  150.6323 C   0  0  0  0  0  0  0  0  0  0  0  0
  145.2308  134.3643  151.4724 C   0  0  0  0  0  0  0  0  0  0  0  0
  146.0579  134.8569  152.6676 C   0  0  0  0  0  0  0  0  0  0  0  0
  151.0735  132.3840  154.8986 H   0  0  0  0  0  0  0  0  0  0  0  0
  149.5227  132.2850  155.7224 H   0  0  0  0  0  0  0  0  0  0  0  0
  150.4184  133.8063  155.6787 H   0  0  0  0  0  0  0  0  0  0  0  0
  150.0531  133.9905  153.2207 H   0  0  0  0  0  0  0  0  0  0  0  0
  149.4300  132.3627  153.2013 H   0  0  0  0  0  0  0  0  0  0  0  0
  147.4017  133.0446  154.3987 H   0  0  0  0  0  0  0  0  0  0  0  0
  147.0102  135.5008  154.9988 H   0  0  0  0  0  0  0  0  0  0  0  0
  148.3187  134.7793  155.8857 H   0  0  0  0  0  0  0  0  0  0  0  0
  149.2757  136.0871  153.5183 H   0  0  0  0  0  0  0  0  0  0  0  0
  150.7052  137.7905  153.7566 H   0  0  0  0  0  0  0  0  0  0  0  0
  149.4834  139.0090  153.9910 H   0  0  0  0  0  0  0  0  0  0  0  0
  148.4437  139.4124  156.7018 H   0  0  0  0  0  0  0  0  0  0  0  0
  148.9004  141.1117  156.7665 H   0  0  0  0  0  0  0  0  0  0  0  0
  149.0892  140.0899  158.1896 H   0  0  0  0  0  0  0  0  0  0  0  0
  153.1822  138.4519  153.7374 H   0  0  0  0  0  0  0  0  0  0  0  0
  153.5416  137.3260  155.0478 H   0  0  0  0  0  0  0  0  0  0  0  0
  154.3742  138.8797  154.9636 H   0  0  0  0  0  0  0  0  0  0  0  0
  148.1529  132.7631  151.1972 H   0  0  0  0  0  0  0  0  0  0  0  0
  146.7984  132.1818  152.1804 H   0  0  0  0  0  0  0  0  0  0  0  0
  146.7059  134.1987  149.9110 H   0  0  0  0  0  0  0  0  0  0  0  0
  145.7223  132.7426  150.0824 H   0  0  0  0  0  0  0  0  0  0  0  0
  144.7814  135.1823  150.9082 H   0  0  0  0  0  0  0  0  0  0  0  0
  144.4221  133.7223  151.8244 H   0  0  0  0  0  0  0  0  0  0  0  0
  145.5230  134.6306  153.5907 H   0  0  0  0  0  0  0  0  0  0  0  0
  146.2068  135.9359  152.6205 H   0  0  0  0  0  0  0  0  0  0  0  0
  148.0065  134.8109  152.1585 H   0  0  0  0  0  0  0  0  0  0  0  0
  1  2  1  0  0  0  0
  1 21  1  0  0  0  0
  1 22  1  0  0  0  0
  1 23  1  0  0  0  0
  2  3  1  0  0  0  0
  2 24  1  0  0  0  0
  2 25  1  0  0  0  0
  3  4  1  0  0  0  0
  3 16  1  0  0  0  0
  3 26  1  0  0  0  0
  4  5  1  0  0  0  0
  4 27  1  0  0  0  0
  4 28  1  0  0  0  0
  5  6  1  0  0  0  0
  5 29  1  0  0  0  0
  6  7  2  0  0  0  0
  6  8  1  0  0  0  0
  8  9  1  0  0  0  0
  8 30  1  0  0  0  0
  8 31  1  0  0  0  0
  9 14  2  0  0  0  0
  9 10  1  0  0  0  0
 10 11  1  0  0  0  0
 10 12  2  0  0  0  0
 11 32  1  0  0  0  0
 11 33  1  0  0  0  0
 11 34  1  0  0  0  0
 12 13  1  0  0  0  0
 13 14  1  0  0  0  0
 14 15  1  0  0  0  0
 15 35  1  0  0  0  0
 15 36  1  0  0  0  0
 15 37  1  0  0  0  0
 16 20  1  0  0  0  0
 16 17  1  0  0  0  0
 16 46  1  0  0  0  0
 17 18  1  0  0  0  0
 17 38  1  0  0  0  0
 17 39  1  0  0  0  0
 18 19  1  0  0  0  0
 18 40  1  0  0  0  0
 18 41  1  0  0  0  0
 19 20  1  0  0  0  0
 19 42  1  0  0  0  0
 19 43  1  0  0  0  0
 20 44  1  0  0  0  0
 20 45  1  0  0  0  0
M  CHG  1  16   1
M  END
> <s_m_source_file>
AV-unprocessed.smi

> <i_m_source_file_index>
1311

> <i_lp_mmshare_version>
43012

> <i_f3d_flags>
0

> <s_epik_input>
W0NIMl0xW0NIMl1bQ0gyXVtDSDJdTjFbQ0BIXShbQ0gyXVtDSDNdKVtDSDJdW05IXUMoPU8pW0NIMl1jMmMoW0NIM10pbm9jMltDSDNd

> <s_epik_cmdline>
J2VwaWtfcHl0aG9uJywgJy1waCcsICc3LjAnLCAnLXRuJywgJzgnLCAnLW1hJywgJzIwMCcsICctbWV0YWxfYmluZGluZycsICctaW1hZScsICc8aW5maWxlLm1hZT4nLCAnLW9tYWUnLCAnPG91dGZpbGUubWFlPic=

> <r_epik_Ionization_Penalty>
0.00366311

> <r_epik_Ionization_Penalty_Charging>
0.00366302

> <r_epik_Ionization_Penalty_Neutral>
9.25085e-08

> <r_epik_State_Penalty>
0.00260703

> <r_epik_Charging_Adjusted_Penalty>
0.00627005

> <i_epik_Tot_Q>
1

> <i_epik_Tot_abs_Q>
1

> <r_epik_Metal_State_Penalty>
-0

> <b_epik_Metal_Only>
0

> <s_lp_Force_Field>
OPLS_2005

> <r_lp_Energy>
34.8572

> <b_lp_Chiralities_Consistent>
1

> <s_lp_Variant>
AV-unprocessed.smi:1311-2

> <Gold.Version>
5.8.1

> <Gold.Id.Protein>
6NUR|6NUR_protein|mol2

> <Gold.PLP.Fitness>
42.3696

> <Gold.PLP.PLP>
-31.2028

> <Gold.PLP.part.hbond>
-2.9783

> <Gold.PLP.part.metal>
0.0000

> <Gold.PLP.part.buried>
-2.8515

> <Gold.PLP.part.nonpolar>
-26.2176

> <Gold.PLP.part.repulsive>
0.0250

> <Gold.PLP.ligand.clash>
0.0000

> <Gold.PLP.ligand.torsion>
0.4850

> <Gold.PLP.Chemscore.Hbond>
4.0000

> <Gold.PLP.Chemscore.CHOScore>
0.0000

> <Gold.PLP.Chemscore.Metal>
0.0000

> <Gold.Chemscore.Hbonds>
donor molecule, donor type, donor heavy atom, donor atom, acceptor molecule, acceptor atom, score
      L1  H     5    29       P1  7948  0.93
      L1  H    16    46       P1  7948  2.00
      P1  H  7997  8010       L1    13  1.00

> <Gold.PLP.Chemscore.Internal.Correction>
0.1368

> <Gold.Rescore>
     Score         DG    S(hbond)    S(metal)    S(lipo)     H(rot)  DE(clash)    DE(int)     intcor
     18.65     -19.52       2.81        0.00      79.31       1.80       0.27       0.61       ----

> <Gold.Chemscore.Fitness>
18.6505

> <Gold.Chemscore.DG>
-19.5233

> <Gold.Chemscore.ZeroCoef>
-5.4800

> <Gold.Chemscore.Hbond>
2.8063

> <Gold.Chemscore.Metal>
0.0000

> <Gold.Chemscore.Lipo>
79.3106

> <Gold.Chemscore.Internal_Hbond>
0.0000

> <Gold.Chemscore.DEClash>
0.2665

> <Gold.Chemscore.DEInternal>
0.6063

> <Gold.Chemscore.Rot>
1.8004

> <Gold.Chemscore.Internal.Correction>
   9.000000E+99

> <Gold.Chemscore.Hbonds>
donor molecule, donor type, donor heavy atom, donor atom, acceptor molecule, acceptor atom, score
      L1  H     5    29       P1  7948  0.70
      L1  H    16    46       P1  7948  0.45
      P1  H  7997  8010       L1    13  0.55

> <Gold.Chemscore.Hbond.Weighted>
-9.3729

> <Gold.Chemscore.Metal.Weighted>
-0.0000

> <Gold.Chemscore.Lipo.Weighted>
-9.2793

> <Gold.Chemscore.Internal_Hbond.Weighted>
0.0000

> <Gold.Chemscore.DEClash.Weighted>
0.2665

> <Gold.Chemscore.DEInternal.Weighted>
0.6063

> <Gold.Chemscore.Rot.Weighted>
4.6090

> <Gold.Chemscore.Internal.Correction.Weighted>
   9.000000E+99

> <Gold.Protein.RotatedTorsions>
[ 6907 6896 6895 6894 ] final  165.82 input  -60.11 | X-H torsion
[ 7974 7965 7964 7962 ] final  -98.02 input  175.53 | X-H torsion
[ 8008 7997 7996 7995 ] final   73.59 input   59.86 | X-H torsion
[ 10167 10162 10161 10158 ] final   40.08 input  -65.29 | X-H torsion
[ 10718 10713 10712 10709 ] final  -36.27 input   66.30 | X-H torsion
[ 10763 10752 10751 10750 ] final -133.01 input  -60.55 | X-H torsion
[ 11005 11000 10999 10996 ] final -151.32 input  -57.11 | X-H torsion

> <Gold.Protein.ActiveResidues>
 VAL166  LYS551  ARG553  GLY616  TRP617  ASP618  TYR619  PRO620  LYS621  CYS622 
 ASP623  PHE694  ASN695  SER759  ASP760  ASP761  ALA762  ILE779  LEU786  VAL792 
 PHE793  MET794  SER795  GLU796  ALA797  LYS798  CYS799  TRP800  GLU811  SER814 

> <Gold.Protein.RotatedAtoms>
  151.8885  133.3511  159.3789 H   0  0  0  0  0  0  0  0  0  0  0  0  # atno 6907 bound_to 6896
  150.7109  134.4948  159.5542 H   0  0  0  0  0  0  0  0  0  0  0  0  # atno 6908 bound_to 6896
  152.2513  134.8130  160.0496 H   0  0  0  0  0  0  0  0  0  0  0  0  # atno 6909 bound_to 6896
  145.3261  140.9432  143.2688 H   0  0  0  0  0  0  0  0  0  0  0  0  # atno 7974 bound_to 7965
  155.7859  140.3480  155.5323 H   0  0  0  0  0  0  0  0  0  0  0  0  # atno 8008 bound_to 7997
  155.8682  140.0982  157.1588 H   0  0  0  0  0  0  0  0  0  0  0  0  # atno 8009 bound_to 7997
  154.4016  140.1345  156.4033 H   0  0  0  0  0  0  0  0  0  0  0  0  # atno 8010 bound_to 7997
  140.3777  144.2021  150.6131 H   0  0  0  0  0  0  0  0  0  0  0  0  # atno 10167 bound_to 10162
  156.3288  130.4276  149.7892 H   0  0  0  0  0  0  0  0  0  0  0  0  # atno 10718 bound_to 10713
  154.8737  135.3780  154.4502 H   0  0  0  0  0  0  0  0  0  0  0  0  # atno 10763 bound_to 10752
  153.5179  135.7029  153.5751 H   0  0  0  0  0  0  0  0  0  0  0  0  # atno 10764 bound_to 10752
  153.4012  135.3948  155.1954 H   0  0  0  0  0  0  0  0  0  0  0  0  # atno 10765 bound_to 10752
  140.7308  134.3623  157.5167 H   0  0  0  0  0  0  0  0  0  0  0  0  # atno 11005 bound_to 11000
  144.8901  139.4786  143.6682 LP  0  0  0  0  0  0  0  0  0  0  0  0  # atno 17320 bound_to 7965
  146.3064  139.7594  142.9053 LP  0  0  0  0  0  0  0  0  0  0  0  0  # atno 17321 bound_to 7965
  140.4969  143.2329  151.8735 LP  0  0  0  0  0  0  0  0  0  0  0  0  # atno 17342 bound_to 10162
  139.4798  144.5103  151.8942 LP  0  0  0  0  0  0  0  0  0  0  0  0  # atno 17343 bound_to 10162
  156.5172  130.8198  151.3190 LP  0  0  0  0  0  0  0  0  0  0  0  0  # atno 17370 bound_to 10713
  157.7426  130.9895  150.2531 LP  0  0  0  0  0  0  0  0  0  0  0  0  # atno 17371 bound_to 10713
  139.8827  134.9017  156.2817 LP  0  0  0  0  0  0  0  0  0  0  0  0  # atno 17394 bound_to 11000
  140.9922  133.7202  156.0831 LP  0  0  0  0  0  0  0  0  0  0  0  0  # atno 17395 bound_to 11000

$$$$
