AV-unprocessed.smi:788|AV-procd|sdf|3733|dock3
  -GOLD-   22720 1163D 1   1.00000     0.00000
 Structure written by MMmdl.
 35 36  0  0  0  0  0  0  0  0  1 V2000
  151.7013  145.2526  159.6769 C   0  0  0  0  0  0  0  0  0  0  0  0
  151.9024  143.8951  160.3749 C   0  0  2  0  0  0  0  0  0  0  0  0
  152.5048  144.0967  161.7785 C   0  0  0  0  0  0  0  0  0  0  0  0
  152.6924  142.7618  162.5104 C   0  0  0  0  0  0  0  0  0  0  0  0
  153.5647  141.8046  161.6884 C   0  0  0  0  0  0  0  0  0  0  0  0
  152.9801  141.5678  160.2828 C   0  0  2  0  0  0  0  0  0  0  0  0
  153.8640  140.5854  159.4925 C   0  0  0  0  0  0  0  0  0  0  0  0
  152.7688  142.9144  159.5424 C   0  0  1  0  0  0  0  0  0  0  0  0
  152.1375  142.6735  158.2441 N   0  0  0  0  0  0  0  0  0  0  0  0
  150.9398  142.1011  158.0336 C   0  0  0  0  0  0  0  0  0  0  0  0
  150.2182  141.7050  158.9471 O   0  0  0  0  0  0  0  0  0  0  0  0
  150.5597  141.9664  156.7451 N   0  0  0  0  0  0  0  0  0  0  0  0
  149.3837  141.4192  156.1540 C   0  0  0  0  0  0  0  0  0  0  0  0
  148.3656  140.8761  156.8416 N   0  0  0  0  0  0  0  0  0  0  0  0
  147.3572  140.4145  156.0062 N   0  0  0  0  0  0  0  0  0  0  0  0
  147.6552  140.6189  154.7202 C   0  0  0  0  0  0  0  0  0  0  0  0
  149.1980  141.3929  154.4055 S   0  0  0  0  0  0  0  0  0  0  0  0
  152.6565  145.7360  159.4716 H   0  0  0  0  0  0  0  0  0  0  0  0
  151.1132  145.9287  160.2980 H   0  0  0  0  0  0  0  0  0  0  0  0
  151.1715  145.1457  158.7303 H   0  0  0  0  0  0  0  0  0  0  0  0
  150.9155  143.4473  160.5030 H   0  0  0  0  0  0  0  0  0  0  0  0
  153.4664  144.6055  161.6972 H   0  0  0  0  0  0  0  0  0  0  0  0
  151.8613  144.7475  162.3717 H   0  0  0  0  0  0  0  0  0  0  0  0
  153.1480  142.9343  163.4857 H   0  0  0  0  0  0  0  0  0  0  0  0
  151.7198  142.3049  162.6990 H   0  0  0  0  0  0  0  0  0  0  0  0
  154.5729  142.2127  161.6047 H   0  0  0  0  0  0  0  0  0  0  0  0
  153.6595  140.8564  162.2184 H   0  0  0  0  0  0  0  0  0  0  0  0
  152.0041  141.0959  160.4085 H   0  0  0  0  0  0  0  0  0  0  0  0
  154.8457  141.0137  159.2882 H   0  0  0  0  0  0  0  0  0  0  0  0
  153.4132  140.3143  158.5377 H   0  0  0  0  0  0  0  0  0  0  0  0
  154.0147  139.6603  160.0492 H   0  0  0  0  0  0  0  0  0  0  0  0
  153.7489  143.3739  159.4014 H   0  0  0  0  0  0  0  0  0  0  0  0
  152.6599  142.9684  157.4313 H   0  0  0  0  0  0  0  0  0  0  0  0
  151.2312  142.3178  156.0781 H   0  0  0  0  0  0  0  0  0  0  0  0
  146.9633  140.3092  153.9511 H   0  0  0  0  0  0  0  0  0  0  0  0
  1  2  1  0  0  0  0
  1 18  1  0  0  0  0
  1 19  1  0  0  0  0
  1 20  1  0  0  0  0
  2  8  1  0  0  0  0
  2  3  1  0  0  0  0
  2 21  1  0  0  0  0
  3  4  1  0  0  0  0
  3 22  1  0  0  0  0
  3 23  1  0  0  0  0
  4  5  1  0  0  0  0
  4 24  1  0  0  0  0
  4 25  1  0  0  0  0
  5  6  1  0  0  0  0
  5 26  1  0  0  0  0
  5 27  1  0  0  0  0
  6  7  1  0  0  0  0
  6  8  1  0  0  0  0
  6 28  1  0  0  0  0
  7 29  1  0  0  0  0
  7 30  1  0  0  0  0
  7 31  1  0  0  0  0
  8  9  1  0  0  0  0
  8 32  1  0  0  0  0
  9 10  1  0  0  0  0
  9 33  1  0  0  0  0
 10 11  2  0  0  0  0
 10 12  1  0  0  0  0
 12 13  1  0  0  0  0
 12 34  1  0  0  0  0
 13 17  1  0  0  0  0
 13 14  2  0  0  0  0
 14 15  1  0  0  0  0
 15 16  2  0  0  0  0
 16 17  1  0  0  0  0
 16 35  1  0  0  0  0
M  END
> <s_m_source_file>
AV-unprocessed.smi

> <i_m_source_file_index>
788

> <i_lp_mmshare_version>
43012

> <i_f3d_flags>
0

> <s_epik_input>
W0NIM11bQ0BASF0xW0NIMl1bQ0gyXVtDSDJdW0NAQEhdKFtDSDNdKVtDQEhdMVtOSF1DKD1PKVtOSF1jMm5uW2NIXXMy

> <s_epik_cmdline>
J2VwaWtfcHl0aG9uJywgJy1waCcsICc3LjAnLCAnLXRuJywgJzgnLCAnLW1hJywgJzIwMCcsICctbWV0YWxfYmluZGluZycsICctaW1hZScsICc8aW5maWxlLm1hZT4nLCAnLW9tYWUnLCAnPG91dGZpbGUubWFlPic=

> <r_lp_tautomer_probability>
1

> <r_epik_Ionization_Penalty>
0.000304078

> <r_epik_Ionization_Penalty_Charging>
0

> <r_epik_Ionization_Penalty_Neutral>
0.000304078

> <r_epik_State_Penalty>
-0

> <r_epik_Charging_Adjusted_Penalty>
0

> <i_epik_Tot_Q>
0

> <i_epik_Tot_abs_Q>
0

> <r_epik_Metal_State_Penalty>
0.164801

> <b_epik_Metal_Only>
0

> <s_lp_Force_Field>
OPLS_2005

> <r_lp_Energy>
14.1502

> <b_lp_Chiralities_Consistent>
1

> <s_lp_Variant>
AV-unprocessed.smi:788-3

> <Gold.Version>
5.8.1

> <Gold.Id.Protein>
6NUR|6NUR_protein|mol2

> <Gold.PLP.Fitness>
37.5319

> <Gold.PLP.PLP>
-37.5353

> <Gold.PLP.part.hbond>
-1.0000

> <Gold.PLP.part.metal>
0.0000

> <Gold.PLP.part.buried>
-2.9977

> <Gold.PLP.part.nonpolar>
-33.1258

> <Gold.PLP.part.repulsive>
0.1830

> <Gold.PLP.ligand.clash>
0.0000

> <Gold.PLP.ligand.torsion>
0.0043

> <Gold.PLP.Chemscore.Hbond>
0.0000

> <Gold.PLP.Chemscore.CHOScore>
0.0000

> <Gold.PLP.Chemscore.Metal>
0.0000

> <Gold.PLP.Chemscore.Internal.Correction>
0.0053

> <Gold.Rescore>
     Score         DG    S(hbond)    S(metal)    S(lipo)     H(rot)  DE(clash)    DE(int)     intcor
     13.15     -15.03       0.00        0.00     103.52       1.00       0.03       1.85       ----

> <Gold.Chemscore.Fitness>
13.1493

> <Gold.Chemscore.DG>
-15.0323

> <Gold.Chemscore.ZeroCoef>
-5.4800

> <Gold.Chemscore.Hbond>
0.0000

> <Gold.Chemscore.Metal>
0.0000

> <Gold.Chemscore.Lipo>
103.5242

> <Gold.Chemscore.Internal_Hbond>
0.0000

> <Gold.Chemscore.DEClash>
0.0324

> <Gold.Chemscore.DEInternal>
1.8506

> <Gold.Chemscore.Rot>
1.0000

> <Gold.Chemscore.Internal.Correction>
   9.000000E+99

> <Gold.Chemscore.Hbond.Weighted>
-0.0000

> <Gold.Chemscore.Metal.Weighted>
-0.0000

> <Gold.Chemscore.Lipo.Weighted>
-12.1123

> <Gold.Chemscore.Internal_Hbond.Weighted>
0.0000

> <Gold.Chemscore.DEClash.Weighted>
0.0324

> <Gold.Chemscore.DEInternal.Weighted>
1.8506

> <Gold.Chemscore.Rot.Weighted>
2.5600

> <Gold.Chemscore.Internal.Correction.Weighted>
   9.000000E+99

> <Gold.Protein.RotatedTorsions>
[ 6907 6896 6895 6894 ] final   96.96 input  -60.11 | X-H torsion
[ 7974 7965 7964 7962 ] final   60.40 input  175.53 | X-H torsion
[ 8008 7997 7996 7995 ] final -102.29 input   59.86 | X-H torsion
[ 10167 10162 10161 10158 ] final   41.11 input  -65.29 | X-H torsion
[ 10718 10713 10712 10709 ] final  -66.61 input   66.30 | X-H torsion
[ 10763 10752 10751 10750 ] final  144.04 input  -60.55 | X-H torsion
[ 11005 11000 10999 10996 ] final   44.02 input  -57.11 | X-H torsion

> <Gold.Protein.ActiveResidues>
 VAL166  LYS551  ARG553  GLY616  TRP617  ASP618  TYR619  PRO620  LYS621  CYS622 
 ASP623  PHE694  ASN695  SER759  ASP760  ASP761  ALA762  ILE779  LEU786  VAL792 
 PHE793  MET794  SER795  GLU796  ALA797  LYS798  CYS799  TRP800  GLU811  SER814 

> <Gold.Protein.RotatedAtoms>
  152.5429  134.0806  159.8233 H   0  0  0  0  0  0  0  0  0  0  0  0  # atno 6907 bound_to 6896
  151.0908  133.5310  159.2622 H   0  0  0  0  0  0  0  0  0  0  0  0  # atno 6908 bound_to 6896
  151.2102  135.0487  159.8962 H   0  0  0  0  0  0  0  0  0  0  0  0  # atno 6909 bound_to 6896
  145.8964  139.3549  143.0618 H   0  0  0  0  0  0  0  0  0  0  0  0  # atno 7974 bound_to 7965
  154.8546  140.0429  157.1626 H   0  0  0  0  0  0  0  0  0  0  0  0  # atno 8008 bound_to 7997
  154.8905  140.2986  155.5353 H   0  0  0  0  0  0  0  0  0  0  0  0  # atno 8009 bound_to 7997
  156.2997  140.2394  156.3920 H   0  0  0  0  0  0  0  0  0  0  0  0  # atno 8010 bound_to 7997
  140.3676  144.2147  150.6134 H   0  0  0  0  0  0  0  0  0  0  0  0  # atno 10167 bound_to 10162
  156.0603  130.4264  150.1733 H   0  0  0  0  0  0  0  0  0  0  0  0  # atno 10718 bound_to 10713
  153.9822  135.2940  155.3419 H   0  0  0  0  0  0  0  0  0  0  0  0  # atno 10763 bound_to 10752
  154.7262  135.5087  153.8893 H   0  0  0  0  0  0  0  0  0  0  0  0  # atno 10764 bound_to 10752
  153.0849  135.6690  154.0084 H   0  0  0  0  0  0  0  0  0  0  0  0  # atno 10765 bound_to 10752
  140.1590  134.4365  155.8330 H   0  0  0  0  0  0  0  0  0  0  0  0  # atno 11005 bound_to 11000
  145.8845  140.9342  143.0584 LP  0  0  0  0  0  0  0  0  0  0  0  0  # atno 17320 bound_to 7965
  144.6733  140.0823  143.7469 LP  0  0  0  0  0  0  0  0  0  0  0  0  # atno 17321 bound_to 7965
  140.5066  143.2302  151.8599 LP  0  0  0  0  0  0  0  0  0  0  0  0  # atno 17342 bound_to 10162
  139.4807  144.4999  151.9074 LP  0  0  0  0  0  0  0  0  0  0  0  0  # atno 17343 bound_to 10162
  156.9802  130.9862  151.3439 LP  0  0  0  0  0  0  0  0  0  0  0  0  # atno 17370 bound_to 10713
  157.5606  130.8243  149.8261 LP  0  0  0  0  0  0  0  0  0  0  0  0  # atno 17371 bound_to 10713
  141.2207  133.6905  156.7560 LP  0  0  0  0  0  0  0  0  0  0  0  0  # atno 17394 bound_to 11000
  140.2512  134.8539  157.3669 LP  0  0  0  0  0  0  0  0  0  0  0  0  # atno 17395 bound_to 11000

$$$$
