AV-unprocessed.smi:2925|AV-procd|sdf|11223|dock5
  -GOLD-   2272016113D 1   1.00000     0.00000
 Structure written by MMmdl.
 44 45  0  0  0  0  0  0  0  0  1 V2000
  147.1470  140.0135  152.9880 C   0  0  0  0  0  0  0  0  0  0  0  0
  148.0650  140.9302  153.8101 C   0  0  0  0  0  0  0  0  0  0  0  0
  147.5763  141.1640  155.2540 C   0  0  1  0  0  0  0  0  0  0  0  0
  148.5212  142.0336  155.9555 N   0  0  0  0  0  0  0  0  0  0  0  0
  149.3819  141.6488  156.9086 C   0  0  0  0  0  0  0  0  0  0  0  0
  149.4841  140.4912  157.3169 O   0  0  0  0  0  0  0  0  0  0  0  0
  150.1232  142.6824  157.3445 N   0  0  0  0  0  0  0  0  0  0  0  0
  151.1269  142.6209  158.3234 C   0  0  0  0  0  0  0  0  0  0  0  0
  151.1821  143.5911  159.2733 C   0  0  0  0  0  0  0  0  0  0  0  0
  150.2102  144.7603  159.2812 C   0  0  0  0  0  0  0  0  0  0  0  0
  152.2103  143.5210  160.2910 C   0  0  0  0  0  0  0  0  0  0  0  0
  153.0781  142.5003  160.2822 C   0  0  0  0  0  0  0  0  0  0  0  0
  153.0094  141.4831  159.3194 N   0  0  0  0  0  0  0  0  0  0  0  0
  153.9922  140.3999  159.4052 C   0  0  0  0  0  0  0  0  0  0  0  0
  152.0522  141.4622  158.3478 C   0  0  0  0  0  0  0  0  0  0  0  0
  151.9713  140.5162  157.5608 O   0  0  0  0  0  0  0  0  0  0  0  0
  146.1605  141.7784  155.2904 C   0  0  2  0  0  0  0  0  0  0  0  0
  145.9615  143.0012  154.3910 C   0  0  0  0  0  0  0  0  0  0  0  0
  144.7917  143.6860  155.0579 C   0  0  0  0  0  0  0  0  0  0  0  0
  145.1006  143.4600  156.5344 C   0  0  0  0  0  0  0  0  0  0  0  0
  145.8498  142.2487  156.6006 O   0  0  0  0  0  0  0  0  0  0  0  0
  147.5061  139.9271  151.9623 H   0  0  0  0  0  0  0  0  0  0  0  0
  146.1306  140.4065  152.9521 H   0  0  0  0  0  0  0  0  0  0  0  0
  147.1031  139.0075  153.4060 H   0  0  0  0  0  0  0  0  0  0  0  0
  149.0731  140.5136  153.8231 H   0  0  0  0  0  0  0  0  0  0  0  0
  148.1416  141.8886  153.2955 H   0  0  0  0  0  0  0  0  0  0  0  0
  147.5328  140.1912  155.7474 H   0  0  0  0  0  0  0  0  0  0  0  0
  148.5171  143.0076  155.6899 H   0  0  0  0  0  0  0  0  0  0  0  0
  150.0380  143.5595  156.8529 H   0  0  0  0  0  0  0  0  0  0  0  0
  150.4236  145.4456  160.1020 H   0  0  0  0  0  0  0  0  0  0  0  0
  149.1858  144.4057  159.3978 H   0  0  0  0  0  0  0  0  0  0  0  0
  150.2789  145.3217  158.3489 H   0  0  0  0  0  0  0  0  0  0  0  0
  152.2870  144.2869  161.0489 H   0  0  0  0  0  0  0  0  0  0  0  0
  153.8670  142.3962  161.0128 H   0  0  0  0  0  0  0  0  0  0  0  0
  154.5103  140.2716  158.4536 H   0  0  0  0  0  0  0  0  0  0  0  0
  153.5004  139.4586  159.6544 H   0  0  0  0  0  0  0  0  0  0  0  0
  154.7547  140.5825  160.1632 H   0  0  0  0  0  0  0  0  0  0  0  0
  145.4178  141.0235  155.0264 H   0  0  0  0  0  0  0  0  0  0  0  0
  146.8385  143.6496  154.4223 H   0  0  0  0  0  0  0  0  0  0  0  0
  145.7663  142.7395  153.3507 H   0  0  0  0  0  0  0  0  0  0  0  0
  144.7036  144.7408  154.7964 H   0  0  0  0  0  0  0  0  0  0  0  0
  143.8611  143.1858  154.7864 H   0  0  0  0  0  0  0  0  0  0  0  0
  145.7193  144.2695  156.9231 H   0  0  0  0  0  0  0  0  0  0  0  0
  144.1971  143.4028  157.1418 H   0  0  0  0  0  0  0  0  0  0  0  0
  1  2  1  0  0  0  0
  1 22  1  0  0  0  0
  1 23  1  0  0  0  0
  1 24  1  0  0  0  0
  2  3  1  0  0  0  0
  2 25  1  0  0  0  0
  2 26  1  0  0  0  0
  3  4  1  0  0  0  0
  3 17  1  0  0  0  0
  3 27  1  0  0  0  0
  4  5  1  0  0  0  0
  4 28  1  0  0  0  0
  5  6  2  0  0  0  0
  5  7  1  0  0  0  0
  7  8  1  0  0  0  0
  7 29  1  0  0  0  0
  8 15  1  0  0  0  0
  8  9  2  0  0  0  0
  9 10  1  0  0  0  0
  9 11  1  0  0  0  0
 10 30  1  0  0  0  0
 10 31  1  0  0  0  0
 10 32  1  0  0  0  0
 11 12  2  0  0  0  0
 11 33  1  0  0  0  0
 12 13  1  0  0  0  0
 12 34  1  0  0  0  0
 13 14  1  0  0  0  0
 13 15  1  0  0  0  0
 14 35  1  0  0  0  0
 14 36  1  0  0  0  0
 14 37  1  0  0  0  0
 15 16  2  0  0  0  0
 17 21  1  0  0  0  0
 17 18  1  0  0  0  0
 17 38  1  0  0  0  0
 18 19  1  0  0  0  0
 18 39  1  0  0  0  0
 18 40  1  0  0  0  0
 19 20  1  0  0  0  0
 19 41  1  0  0  0  0
 19 42  1  0  0  0  0
 20 21  1  0  0  0  0
 20 43  1  0  0  0  0
 20 44  1  0  0  0  0
M  END
> <s_m_source_file>
AV-unprocessed.smi

> <i_m_source_file_index>
2925

> <i_lp_mmshare_version>
43012

> <i_f3d_flags>
0

> <s_epik_input>
TzFbQ0gyXVtDSDJdW0NIMl1bQ0BIXTFbQ0BIXShbQ0gyXVtDSDNdKVtOSF1DKD1PKVtOSF1jMmMoW0NIM10pW2NIXVtjSF1uKFtDSDNdKWMyPU8=

> <s_epik_cmdline>
J2VwaWtfcHl0aG9uJywgJy1waCcsICc3LjAnLCAnLXRuJywgJzgnLCAnLW1hJywgJzIwMCcsICctbWV0YWxfYmluZGluZycsICctaW1hZScsICc8aW5maWxlLm1hZT4nLCAnLW9tYWUnLCAnPG91dGZpbGUubWFlPic=

> <r_lp_tautomer_probability>
1

> <r_epik_Ionization_Penalty>
2.58789e-05

> <r_epik_Ionization_Penalty_Charging>
6.72534e-06

> <r_epik_Ionization_Penalty_Neutral>
1.91535e-05

> <r_epik_State_Penalty>
-0

> <r_epik_Charging_Adjusted_Penalty>
6.72534e-06

> <i_epik_Tot_Q>
0

> <i_epik_Tot_abs_Q>
0

> <r_epik_Metal_State_Penalty>
-0

> <b_epik_Metal_Only>
0

> <s_lp_Force_Field>
OPLS_2005

> <r_lp_Energy>
34.616

> <b_lp_Chiralities_Consistent>
1

> <s_lp_Variant>
AV-unprocessed.smi:2925-2

> <Gold.Version>
5.8.1

> <Gold.Id.Protein>
6NUR|6NUR_protein|mol2

> <Gold.PLP.Fitness>
45.0724

> <Gold.PLP.PLP>
-40.2406

> <Gold.PLP.part.hbond>
-2.0000

> <Gold.PLP.part.metal>
0.0000

> <Gold.PLP.part.buried>
-4.8866

> <Gold.PLP.part.nonpolar>
-33.7269

> <Gold.PLP.part.repulsive>
0.2338

> <Gold.PLP.ligand.clash>
0.0279

> <Gold.PLP.ligand.torsion>
0.6071

> <Gold.PLP.Chemscore.Hbond>
1.8320

> <Gold.PLP.Chemscore.CHOScore>
0.0000

> <Gold.PLP.Chemscore.Metal>
0.0000

> <Gold.Chemscore.Hbonds>
donor molecule, donor type, donor heavy atom, donor atom, acceptor molecule, acceptor atom, score
      L1  H     4    28       P1  8028  1.00
      L1  H     7    29       P1  8028  0.94

> <Gold.PLP.Chemscore.Internal.Correction>
0.5779

> <Gold.Rescore>
     Score         DG    S(hbond)    S(metal)    S(lipo)     H(rot)  DE(clash)    DE(int)     intcor
     14.66     -19.15       1.90        0.00      92.25       1.36       0.07       4.42       ----

> <Gold.Chemscore.Fitness>
14.6606

> <Gold.Chemscore.DG>
-19.1514

> <Gold.Chemscore.ZeroCoef>
-5.4800

> <Gold.Chemscore.Hbond>
1.9025

> <Gold.Chemscore.Metal>
0.0000

> <Gold.Chemscore.Lipo>
92.2503

> <Gold.Chemscore.Internal_Hbond>
0.0000

> <Gold.Chemscore.DEClash>
0.0671

> <Gold.Chemscore.DEInternal>
4.4237

> <Gold.Chemscore.Rot>
1.3579

> <Gold.Chemscore.Internal.Correction>
   9.000000E+99

> <Gold.Chemscore.Hbonds>
donor molecule, donor type, donor heavy atom, donor atom, acceptor molecule, acceptor atom, score
      L1  H     4    28       P1  8028  0.99
      L1  H     7    29       P1  8028  0.86

> <Gold.Chemscore.Hbond.Weighted>
-6.3544

> <Gold.Chemscore.Metal.Weighted>
-0.0000

> <Gold.Chemscore.Lipo.Weighted>
-10.7933

> <Gold.Chemscore.Internal_Hbond.Weighted>
0.0000

> <Gold.Chemscore.DEClash.Weighted>
0.0671

> <Gold.Chemscore.DEInternal.Weighted>
4.4237

> <Gold.Chemscore.Rot.Weighted>
3.4763

> <Gold.Chemscore.Internal.Correction.Weighted>
   9.000000E+99

> <Gold.Protein.RotatedTorsions>
[ 6907 6896 6895 6894 ] final   21.40 input  -60.11 | X-H torsion
[ 7974 7965 7964 7962 ] final  124.17 input  175.53 | X-H torsion
[ 8008 7997 7996 7995 ] final -100.61 input   59.86 | X-H torsion
[ 10167 10162 10161 10158 ] final -159.44 input  -65.29 | X-H torsion
[ 10718 10713 10712 10709 ] final   52.69 input   66.30 | X-H torsion
[ 10763 10752 10751 10750 ] final  -97.46 input  -60.55 | X-H torsion
[ 11005 11000 10999 10996 ] final  -63.93 input  -57.11 | X-H torsion

> <Gold.Protein.ActiveResidues>
 VAL166  LYS551  ARG553  GLY616  TRP617  ASP618  TYR619  PRO620  LYS621  CYS622 
 ASP623  PHE694  ASN695  SER759  ASP760  ASP761  ALA762  ILE779  LEU786  VAL792 
 PHE793  MET794  SER795  GLU796  ALA797  LYS798  CYS799  TRP800  GLU811  SER814 

> <Gold.Protein.RotatedAtoms>
  151.9111  135.0338  160.0514 H   0  0  0  0  0  0  0  0  0  0  0  0  # atno 6907 bound_to 6896
  152.2278  133.5029  159.5207 H   0  0  0  0  0  0  0  0  0  0  0  0  # atno 6908 bound_to 6896
  150.7017  134.1173  159.4064 H   0  0  0  0  0  0  0  0  0  0  0  0  # atno 6909 bound_to 6896
  145.0875  139.3611  143.4878 H   0  0  0  0  0  0  0  0  0  0  0  0  # atno 7974 bound_to 7965
  154.8310  140.0440  157.1476 H   0  0  0  0  0  0  0  0  0  0  0  0  # atno 8008 bound_to 7997
  154.9153  140.3019  155.5224 H   0  0  0  0  0  0  0  0  0  0  0  0  # atno 8009 bound_to 7997
  156.2987  140.2350  156.4197 H   0  0  0  0  0  0  0  0  0  0  0  0  # atno 8010 bound_to 7997
  139.6615  143.9905  152.2228 H   0  0  0  0  0  0  0  0  0  0  0  0  # atno 10167 bound_to 10162
  157.5098  130.8493  149.8421 H   0  0  0  0  0  0  0  0  0  0  0  0  # atno 10718 bound_to 10713
  154.7330  135.5045  153.8995 H   0  0  0  0  0  0  0  0  0  0  0  0  # atno 10763 bound_to 10752
  153.0968  135.6674  153.9757 H   0  0  0  0  0  0  0  0  0  0  0  0  # atno 10764 bound_to 10752
  153.9553  135.3053  155.3416 H   0  0  0  0  0  0  0  0  0  0  0  0  # atno 10765 bound_to 10752
  141.1409  133.6658  156.5755 H   0  0  0  0  0  0  0  0  0  0  0  0  # atno 11005 bound_to 11000
  146.3531  140.0693  142.8624 LP  0  0  0  0  0  0  0  0  0  0  0  0  # atno 17320 bound_to 7965
  145.1105  140.9402  143.4659 LP  0  0  0  0  0  0  0  0  0  0  0  0  # atno 17321 bound_to 7965
  139.9645  144.6535  150.8048 LP  0  0  0  0  0  0  0  0  0  0  0  0  # atno 17342 bound_to 10162
  140.7582  143.3102  151.2864 LP  0  0  0  0  0  0  0  0  0  0  0  0  # atno 17343 bound_to 10162
  156.0282  130.3773  150.1763 LP  0  0  0  0  0  0  0  0  0  0  0  0  # atno 17370 bound_to 10713
  156.9952  130.9905  151.3405 LP  0  0  0  0  0  0  0  0  0  0  0  0  # atno 17371 bound_to 10713
  140.3879  134.7466  157.4703 LP  0  0  0  0  0  0  0  0  0  0  0  0  # atno 17394 bound_to 11000
  140.0588  134.6025  155.8773 LP  0  0  0  0  0  0  0  0  0  0  0  0  # atno 17395 bound_to 11000

$$$$
