AV-unprocessed.smi:3330|AV-procd|sdf|12810|dock10
  -GOLD-   2272019183D 1   1.00000     0.00000
 Structure written by MMmdl.
 38 39  0  0  0  0  0  0  0  0  3 V2000
  145.5304  133.3918  153.7285 C   0  0  0  0  0  0  0  0  0  0  0  0
  146.2887  134.5449  153.0456 C   0  0  1  0  0  0  0  0  0  0  0  0
  147.7206  134.1808  152.9549 N   0  3  0  0  0  0  0  0  0  0  0  0
  148.3439  133.7745  154.2299 C   0  0  0  0  0  0  0  0  0  0  0  0
  149.6413  132.9936  153.9761 C   0  0  0  0  0  0  0  0  0  0  0  0
  150.2646  132.5799  155.2356 N   0  0  0  0  0  0  0  0  0  0  0  0
  150.5706  131.3171  155.5477 C   0  0  0  0  0  0  0  0  0  0  0  0
  150.3989  130.3076  154.8645 O   0  0  0  0  0  0  0  0  0  0  0  0
  151.1725  131.3246  156.9336 C   0  0  0  0  0  0  0  0  0  0  0  0
  151.1160  132.7255  157.2864 N   0  5  0  0  0  0  0  0  0  0  0  0
  150.5721  133.4073  156.2523 C   0  0  0  0  0  0  0  0  0  0  0  0
  150.3574  134.6180  156.1986 O   0  0  0  0  0  0  0  0  0  0  0  0
  145.7231  134.8925  151.6408 C   0  0  2  0  0  0  0  0  0  0  0  0
  144.5929  135.9386  151.6853 C   0  0  0  0  0  0  0  0  0  0  0  0
  145.2728  133.7075  150.9215 N   0  0  0  0  0  0  0  0  0  0  0  0
  146.0353  132.6786  150.4072 C   0  0  0  0  0  0  0  0  0  0  0  0
  145.1809  131.7931  149.8153 C   0  0  0  0  0  0  0  0  0  0  0  0
  143.8984  132.3749  150.0154 C   0  0  0  0  0  0  0  0  0  0  0  0
  143.9562  133.5197  150.6759 N   0  0  0  0  0  0  0  0  0  0  0  0
  144.4872  133.6461  153.9168 H   0  0  0  0  0  0  0  0  0  0  0  0
  145.9767  133.1477  154.6933 H   0  0  0  0  0  0  0  0  0  0  0  0
  145.5481  132.4891  153.1169 H   0  0  0  0  0  0  0  0  0  0  0  0
  146.1850  135.4190  153.6913 H   0  0  0  0  0  0  0  0  0  0  0  0
  147.8104  133.4082  152.3109 H   0  0  0  0  0  0  0  0  0  0  0  0
  148.5520  134.6587  154.8332 H   0  0  0  0  0  0  0  0  0  0  0  0
  147.6395  133.1598  154.7923 H   0  0  0  0  0  0  0  0  0  0  0  0
  149.4365  132.1204  153.3542 H   0  0  0  0  0  0  0  0  0  0  0  0
  150.3411  133.6052  153.4037 H   0  0  0  0  0  0  0  0  0  0  0  0
  150.5853  130.6890  157.5968 H   0  0  0  0  0  0  0  0  0  0  0  0
  152.1884  130.9298  156.9001 H   0  0  0  0  0  0  0  0  0  0  0  0
  146.5369  135.3186  151.0518 H   0  0  0  0  0  0  0  0  0  0  0  0
  144.9475  136.8957  152.0678 H   0  0  0  0  0  0  0  0  0  0  0  0
  143.7681  135.6113  152.3194 H   0  0  0  0  0  0  0  0  0  0  0  0
  144.1912  136.1223  150.6882 H   0  0  0  0  0  0  0  0  0  0  0  0
  147.1109  132.6608  150.5042 H   0  0  0  0  0  0  0  0  0  0  0  0
  145.4334  130.8707  149.3134 H   0  0  0  0  0  0  0  0  0  0  0  0
  142.9341  132.0024  149.7023 H   0  0  0  0  0  0  0  0  0  0  0  0
  148.2285  134.9699  152.5815 H   0  0  0  0  0  0  0  0  0  0  0  0
  1  2  1  0  0  0  0
  1 20  1  0  0  0  0
  1 21  1  0  0  0  0
  1 22  1  0  0  0  0
  2  3  1  0  0  0  0
  2 13  1  0  0  0  0
  2 23  1  0  0  0  0
  3  4  1  0  0  0  0
  3 24  1  0  0  0  0
  3 38  1  0  0  0  0
  4  5  1  0  0  0  0
  4 25  1  0  0  0  0
  4 26  1  0  0  0  0
  5  6  1  0  0  0  0
  5 27  1  0  0  0  0
  5 28  1  0  0  0  0
  6 11  1  0  0  0  0
  6  7  1  0  0  0  0
  7  8  2  0  0  0  0
  7  9  1  0  0  0  0
  9 10  1  0  0  0  0
  9 29  1  0  0  0  0
  9 30  1  0  0  0  0
 10 11  1  0  0  0  0
 11 12  2  0  0  0  0
 13 14  1  0  0  0  0
 13 15  1  0  0  0  0
 13 31  1  0  0  0  0
 14 32  1  0  0  0  0
 14 33  1  0  0  0  0
 14 34  1  0  0  0  0
 15 19  1  0  0  0  0
 15 16  1  0  0  0  0
 16 17  2  0  0  0  0
 16 35  1  0  0  0  0
 17 18  1  0  0  0  0
 17 36  1  0  0  0  0
 18 19  2  0  0  0  0
 18 37  1  0  0  0  0
M  CHG  1   3   1
M  CHG  1  10  -1
M  END
> <s_m_source_file>
AV-unprocessed.smi

> <i_m_source_file_index>
3330

> <i_lp_mmshare_version>
43012

> <i_f3d_flags>
0

> <s_epik_input>
bjFbY0hdW2NIXVtjSF1uMVtDQEBIXShbQ0gzXSlbQ0BIXShbQ0gzXSlbTkhdW0NIMl1bQ0gyXU4yQyg9TylbQ0gyXVtOSF1DMj1P

> <s_epik_cmdline>
J2VwaWtfcHl0aG9uJywgJy1waCcsICc3LjAnLCAnLXRuJywgJzgnLCAnLW1hJywgJzIwMCcsICctbWV0YWxfYmluZGluZycsICctaW1hZScsICc8aW5maWxlLm1hZT4nLCAnLW9tYWUnLCAnPG91dGZpbGUubWFlPic=

> <r_lp_tautomer_probability>
1

> <r_epik_Ionization_Penalty>
5.18149

> <r_epik_Ionization_Penalty_Charging>
5.18148

> <r_epik_Ionization_Penalty_Neutral>
9.83265e-06

> <r_epik_State_Penalty>
5.18201

> <r_epik_Charging_Adjusted_Penalty>
10.3635

> <i_epik_Tot_Q>
0

> <i_epik_Tot_abs_Q>
2

> <r_epik_Metal_State_Penalty>
1.25422

> <b_epik_Metal_Only>
1

> <s_lp_Force_Field>
OPLS_2005

> <r_lp_Energy>
16.6991

> <b_lp_Chiralities_Consistent>
1

> <s_lp_Variant>
AV-unprocessed.smi:3330-10

> <Gold.Version>
5.8.1

> <Gold.Id.Protein>
6NUR|6NUR_protein|mol2

> <Gold.PLP.Fitness>
46.3185

> <Gold.PLP.PLP>
-31.4256

> <Gold.PLP.part.hbond>
-2.0000

> <Gold.PLP.part.metal>
0.0000

> <Gold.PLP.part.buried>
-5.8027

> <Gold.PLP.part.nonpolar>
-24.9797

> <Gold.PLP.part.repulsive>
0.2135

> <Gold.PLP.ligand.clash>
0.0000

> <Gold.PLP.ligand.torsion>
1.0247

> <Gold.PLP.Chemscore.Hbond>
4.0000

> <Gold.PLP.Chemscore.CHOScore>
1.5895

> <Gold.PLP.Chemscore.Metal>
0.0000

> <Gold.Chemscore.Hbonds>
donor molecule, donor type, donor heavy atom, donor atom, acceptor molecule, acceptor atom, score
      L1  H     3    38       P1  7948  2.00
      P1  H  6896  6907       L1    10  1.98
      L1  C    16    35       P1 10747  0.83
      L1  C    18    37       P1 10952  0.61

> <Gold.PLP.Chemscore.Internal.Correction>
0.1738

> <Gold.Rescore>
     Score         DG    S(hbond)    S(metal)    S(lipo)     H(rot)  DE(clash)    DE(int)     intcor
     11.87     -12.81       1.95        0.00      63.72       2.59       0.01       0.94       ----

> <Gold.Chemscore.Fitness>
11.8688

> <Gold.Chemscore.DG>
-12.8114

> <Gold.Chemscore.ZeroCoef>
-5.4800

> <Gold.Chemscore.Hbond>
1.9483

> <Gold.Chemscore.Metal>
0.0000

> <Gold.Chemscore.Lipo>
63.7177

> <Gold.Chemscore.Internal_Hbond>
0.0000

> <Gold.Chemscore.DEClash>
0.0065

> <Gold.Chemscore.DEInternal>
0.9361

> <Gold.Chemscore.Rot>
2.5903

> <Gold.Chemscore.Internal.Correction>
   9.000000E+99

> <Gold.Chemscore.Hbonds>
donor molecule, donor type, donor heavy atom, donor atom, acceptor molecule, acceptor atom, score
      L1  H     3    38       P1  7948  0.68
      P1  H  6896  6907       L1    10  0.89

> <Gold.Chemscore.Hbond.Weighted>
-6.5075

> <Gold.Chemscore.Metal.Weighted>
-0.0000

> <Gold.Chemscore.Lipo.Weighted>
-7.4550

> <Gold.Chemscore.Internal_Hbond.Weighted>
0.0000

> <Gold.Chemscore.DEClash.Weighted>
0.0065

> <Gold.Chemscore.DEInternal.Weighted>
0.9361

> <Gold.Chemscore.Rot.Weighted>
6.6311

> <Gold.Chemscore.Internal.Correction.Weighted>
   9.000000E+99

> <Gold.Protein.RotatedTorsions>
[ 6907 6896 6895 6894 ] final -157.31 input  -60.11 | X-H torsion
[ 7974 7965 7964 7962 ] final   -6.95 input  175.53 | X-H torsion
[ 8008 7997 7996 7995 ] final   45.62 input   59.86 | X-H torsion
[ 10167 10162 10161 10158 ] final  115.05 input  -65.29 | X-H torsion
[ 10718 10713 10712 10709 ] final   76.26 input   66.30 | X-H torsion
[ 10763 10752 10751 10750 ] final -161.22 input  -60.55 | X-H torsion
[ 11005 11000 10999 10996 ] final  109.56 input  -57.11 | X-H torsion

> <Gold.Protein.ActiveResidues>
 VAL166  LYS551  ARG553  GLY616  TRP617  ASP618  TYR619  PRO620  LYS621  CYS622 
 ASP623  PHE694  ASN695  SER759  ASP760  ASP761  ALA762  ILE779  LEU786  VAL792 
 PHE793  MET794  SER795  GLU796  ALA797  LYS798  CYS799  TRP800  GLU811  SER814 

> <Gold.Protein.RotatedAtoms>
  151.3009  133.4122  159.2639 H   0  0  0  0  0  0  0  0  0  0  0  0  # atno 6907 bound_to 6896
  151.0196  134.9459  159.8062 H   0  0  0  0  0  0  0  0  0  0  0  0  # atno 6908 bound_to 6896
  152.5321  134.2973  159.9118 H   0  0  0  0  0  0  0  0  0  0  0  0  # atno 6909 bound_to 6896
  146.2319  140.2246  142.8338 H   0  0  0  0  0  0  0  0  0  0  0  0  # atno 7974 bound_to 7965
  155.3388  140.3407  155.4239 H   0  0  0  0  0  0  0  0  0  0  0  0  # atno 8008 bound_to 7997
  156.1824  140.1668  156.8286 H   0  0  0  0  0  0  0  0  0  0  0  0  # atno 8009 bound_to 7997
  154.5348  140.0737  156.8391 H   0  0  0  0  0  0  0  0  0  0  0  0  # atno 8010 bound_to 7997
  139.6345  144.7118  151.2364 H   0  0  0  0  0  0  0  0  0  0  0  0  # atno 10167 bound_to 10162
  157.6666  130.9765  150.1471 H   0  0  0  0  0  0  0  0  0  0  0  0  # atno 10718 bound_to 10713
  154.7322  135.3049  154.8872 H   0  0  0  0  0  0  0  0  0  0  0  0  # atno 10763 bound_to 10752
  153.9711  135.6741  153.4751 H   0  0  0  0  0  0  0  0  0  0  0  0  # atno 10764 bound_to 10752
  153.0929  135.4950  154.8645 H   0  0  0  0  0  0  0  0  0  0  0  0  # atno 10765 bound_to 10752
  139.8864  134.9461  156.6145 H   0  0  0  0  0  0  0  0  0  0  0  0  # atno 11005 bound_to 11000
  144.9605  140.8270  143.5516 LP  0  0  0  0  0  0  0  0  0  0  0  0  # atno 17320 bound_to 7965
  145.2216  139.2156  143.5090 LP  0  0  0  0  0  0  0  0  0  0  0  0  # atno 17321 bound_to 7965
  140.7457  143.6421  150.8325 LP  0  0  0  0  0  0  0  0  0  0  0  0  # atno 17342 bound_to 10162
  140.0050  143.5703  152.2861 LP  0  0  0  0  0  0  0  0  0  0  0  0  # atno 17343 bound_to 10162
  156.2279  130.3679  149.8479 LP  0  0  0  0  0  0  0  0  0  0  0  0  # atno 17370 bound_to 10713
  156.6314  130.8667  151.3496 LP  0  0  0  0  0  0  0  0  0  0  0  0  # atno 17371 bound_to 10713
  140.7786  133.8678  155.8549 LP  0  0  0  0  0  0  0  0  0  0  0  0  # atno 17394 bound_to 11000
  140.9780  134.1444  157.4519 LP  0  0  0  0  0  0  0  0  0  0  0  0  # atno 17395 bound_to 11000

$$$$
