AV-unprocessed.smi:170|AV-procd|sdf|1411|dock4
  -GOLD-   2262019173D 1   1.00000     0.00000
 Structure written by MMmdl.
 57 61  0  0  0  0  0  0  0  0  1 V2000
  147.2239  138.6163  151.7454 O   0  0  0  0  0  0  0  0  0  0  0  0
  146.9104  138.2133  153.0655 C   0  0  1  0  0  0  0  0  0  0  0  0
  147.0024  139.4341  154.0019 C   0  0  0  0  0  0  0  0  0  0  0  0
  148.2319  139.4503  154.7741 N   0  0  0  0  0  0  0  0  0  0  0  0
  149.4666  139.8923  154.3545 C   0  0  0  0  0  0  0  0  0  0  0  0
  150.4191  139.8102  155.2436 N   0  0  0  0  0  0  0  0  0  0  0  0
  149.7903  139.2692  156.3576 C   0  0  0  0  0  0  0  0  0  0  0  0
  150.2234  138.9275  157.6644 C   0  0  0  0  0  0  0  0  0  0  0  0
  151.4989  139.1282  158.0662 N   0  0  0  0  0  0  0  0  0  0  0  0
  152.0862  137.9130  158.6207 C   0  0  0  0  0  0  0  0  0  0  0  0
  153.5773  138.1292  158.9085 C   0  0  0  0  0  0  0  0  0  0  0  0
  153.7166  139.2314  159.7945 O   0  0  0  0  0  0  0  0  0  0  0  0
  153.2255  140.4390  159.2230 C   0  0  0  0  0  0  0  0  0  0  0  0
  151.7168  140.3185  158.8983 C   0  0  1  0  0  0  0  0  0  0  0  0
  151.1724  141.6115  158.2334 C   0  0  0  0  0  0  0  0  0  0  0  0
  151.4992  142.8970  158.9905 C   0  0  0  0  0  0  0  0  0  0  0  0
  150.7413  144.1928  158.6644 C   0  0  0  0  0  0  0  0  0  0  0  0
  152.0353  144.9641  158.9368 C   0  0  0  0  0  0  0  0  0  0  0  0
  152.7914  143.6609  158.6647 C   0  0  0  0  0  0  0  0  0  0  0  0
  149.3073  138.4122  158.5268 N   0  0  0  0  0  0  0  0  0  0  0  0
  148.0425  138.2408  158.1292 C   0  0  0  0  0  0  0  0  0  0  0  0
  147.4943  138.5173  156.9433 N   0  0  0  0  0  0  0  0  0  0  0  0
  148.4152  139.0361  156.0808 C   0  0  0  0  0  0  0  0  0  0  0  0
  145.5081  137.5770  153.0736 C   0  0  1  0  0  0  0  0  0  0  0  0
  145.3546  136.3718  152.1463 C   0  0  0  0  0  0  0  0  0  0  0  0
  144.1557  135.6752  152.7486 C   0  0  0  0  0  0  0  0  0  0  0  0
  144.3645  135.9033  154.2444 C   0  0  0  0  0  0  0  0  0  0  0  0
  145.2056  137.0489  154.3618 O   0  0  0  0  0  0  0  0  0  0  0  0
  147.7744  139.3832  151.7882 H   0  0  0  0  0  0  0  0  0  0  0  0
  147.6448  137.4675  153.3728 H   0  0  0  0  0  0  0  0  0  0  0  0
  146.9354  140.3610  153.4311 H   0  0  0  0  0  0  0  0  0  0  0  0
  146.1662  139.4392  154.7018 H   0  0  0  0  0  0  0  0  0  0  0  0
  149.6399  140.2803  153.3612 H   0  0  0  0  0  0  0  0  0  0  0  0
  151.5707  137.6372  159.5424 H   0  0  0  0  0  0  0  0  0  0  0  0
  151.9604  137.0866  157.9196 H   0  0  0  0  0  0  0  0  0  0  0  0
  154.0049  137.2413  159.3742 H   0  0  0  0  0  0  0  0  0  0  0  0
  154.1335  138.3094  157.9870 H   0  0  0  0  0  0  0  0  0  0  0  0
  153.4046  141.2370  159.9428 H   0  0  0  0  0  0  0  0  0  0  0  0
  153.7986  140.6838  158.3271 H   0  0  0  0  0  0  0  0  0  0  0  0
  151.1839  140.1644  159.8380 H   0  0  0  0  0  0  0  0  0  0  0  0
  151.5574  141.6813  157.2153 H   0  0  0  0  0  0  0  0  0  0  0  0
  150.0888  141.5460  158.1309 H   0  0  0  0  0  0  0  0  0  0  0  0
  151.4670  142.7347  160.0696 H   0  0  0  0  0  0  0  0  0  0  0  0
  150.4294  144.2501  157.6199 H   0  0  0  0  0  0  0  0  0  0  0  0
  149.9188  144.4224  159.3425 H   0  0  0  0  0  0  0  0  0  0  0  0
  152.2446  145.7695  158.2324 H   0  0  0  0  0  0  0  0  0  0  0  0
  152.1216  145.2959  159.9728 H   0  0  0  0  0  0  0  0  0  0  0  0
  153.6217  143.4640  159.3435 H   0  0  0  0  0  0  0  0  0  0  0  0
  153.0940  143.5618  157.6207 H   0  0  0  0  0  0  0  0  0  0  0  0
  147.3731  137.8250  158.8677 H   0  0  0  0  0  0  0  0  0  0  0  0
  144.7491  138.3220  152.8280 H   0  0  0  0  0  0  0  0  0  0  0  0
  145.2052  136.6516  151.1031 H   0  0  0  0  0  0  0  0  0  0  0  0
  146.2312  135.7251  152.2058 H   0  0  0  0  0  0  0  0  0  0  0  0
  143.2379  136.1645  152.4194 H   0  0  0  0  0  0  0  0  0  0  0  0
  144.0937  134.6199  152.4821 H   0  0  0  0  0  0  0  0  0  0  0  0
  143.4203  136.0539  154.7684 H   0  0  0  0  0  0  0  0  0  0  0  0
  144.8720  135.0521  154.6995 H   0  0  0  0  0  0  0  0  0  0  0  0
  1  2  1  0  0  0  0
  1 29  1  0  0  0  0
  2  3  1  0  0  0  0
  2 24  1  0  0  0  0
  2 30  1  0  0  0  0
  3  4  1  0  0  0  0
  3 31  1  0  0  0  0
  3 32  1  0  0  0  0
  4 23  1  0  0  0  0
  4  5  1  0  0  0  0
  5  6  2  0  0  0  0
  5 33  1  0  0  0  0
  6  7  1  0  0  0  0
  7 23  2  0  0  0  0
  7  8  1  0  0  0  0
  8  9  1  0  0  0  0
  8 20  2  0  0  0  0
  9 14  1  0  0  0  0
  9 10  1  0  0  0  0
 10 11  1  0  0  0  0
 10 34  1  0  0  0  0
 10 35  1  0  0  0  0
 11 12  1  0  0  0  0
 11 36  1  0  0  0  0
 11 37  1  0  0  0  0
 12 13  1  0  0  0  0
 13 14  1  0  0  0  0
 13 38  1  0  0  0  0
 13 39  1  0  0  0  0
 14 15  1  0  0  0  0
 14 40  1  0  0  0  0
 15 16  1  0  0  0  0
 15 41  1  0  0  0  0
 15 42  1  0  0  0  0
 16 19  1  0  0  0  0
 16 17  1  0  0  0  0
 16 43  1  0  0  0  0
 17 18  1  0  0  0  0
 17 44  1  0  0  0  0
 17 45  1  0  0  0  0
 18 19  1  0  0  0  0
 18 46  1  0  0  0  0
 18 47  1  0  0  0  0
 19 48  1  0  0  0  0
 19 49  1  0  0  0  0
 20 21  1  0  0  0  0
 21 22  2  0  0  0  0
 21 50  1  0  0  0  0
 22 23  1  0  0  0  0
 24 28  1  0  0  0  0
 24 25  1  0  0  0  0
 24 51  1  0  0  0  0
 25 26  1  0  0  0  0
 25 52  1  0  0  0  0
 25 53  1  0  0  0  0
 26 27  1  0  0  0  0
 26 54  1  0  0  0  0
 26 55  1  0  0  0  0
 27 28  1  0  0  0  0
 27 56  1  0  0  0  0
 27 57  1  0  0  0  0
M  END
> <s_m_source_file>
AV-unprocessed.smi

> <i_m_source_file_index>
170

> <i_lp_mmshare_version>
43012

> <i_f3d_flags>
0

> <s_epik_input>
TzFbQ0gyXVtDSDJdW0NIMl1bQ0BIXTFbQ0BIXShbT0hdKVtDSDJdbihbY0hdbjIpYyhjMjMpbltjSF1uYzNONFtDSDJdW0NIMl1PW0NIMl1bQ0BIXTRbQ0gyXVtDSF01W0NIMl1bQ0gyXVtDSDJdNQ==

> <s_epik_cmdline>
J2VwaWtfcHl0aG9uJywgJy1waCcsICc3LjAnLCAnLXRuJywgJzgnLCAnLW1hJywgJzIwMCcsICctbWV0YWxfYmluZGluZycsICctaW1hZScsICc8aW5maWxlLm1hZT4nLCAnLW9tYWUnLCAnPG91dGZpbGUubWFlPic=

> <r_lp_tautomer_probability>
1

> <r_epik_Ionization_Penalty>
4.98275e-05

> <r_epik_Ionization_Penalty_Charging>
0

> <r_epik_Ionization_Penalty_Neutral>
4.98275e-05

> <r_epik_State_Penalty>
-0

> <r_epik_Charging_Adjusted_Penalty>
0

> <i_epik_Tot_Q>
0

> <i_epik_Tot_abs_Q>
0

> <r_epik_Metal_State_Penalty>
-0

> <b_epik_Metal_Only>
0

> <s_lp_Force_Field>
OPLS_2005

> <r_lp_Energy>
51.0174

> <b_lp_Chiralities_Consistent>
1

> <s_lp_Variant>
AV-unprocessed.smi:170-6

> <Gold.Version>
5.8.1

> <Gold.Id.Protein>
6NUR|6NUR_protein|mol2

> <Gold.PLP.Fitness>
44.6779

> <Gold.PLP.PLP>
-38.9009

> <Gold.PLP.part.hbond>
-2.9625

> <Gold.PLP.part.metal>
0.0000

> <Gold.PLP.part.buried>
-4.1000

> <Gold.PLP.part.nonpolar>
-32.3590

> <Gold.PLP.part.repulsive>
0.1457

> <Gold.PLP.ligand.clash>
0.0000

> <Gold.PLP.ligand.torsion>
1.4921

> <Gold.PLP.Chemscore.Hbond>
1.8080

> <Gold.PLP.Chemscore.CHOScore>
1.0000

> <Gold.PLP.Chemscore.Metal>
0.0000

> <Gold.Chemscore.Hbonds>
donor molecule, donor type, donor heavy atom, donor atom, acceptor molecule, acceptor atom, score
      L1  H     1    29       P1  7957  0.78
      P1  H  7954  7966       L1     1  0.37
      P1  H  7989  7998       L1     6  0.01
      L1  C     5    33       P1  7957  1.00

> <Gold.PLP.Chemscore.Internal.Correction>
0.3372

> <Gold.Rescore>
     Score         DG    S(hbond)    S(metal)    S(lipo)     H(rot)  DE(clash)    DE(int)     intcor
     12.59     -14.45       0.97        0.00     106.15       2.61       0.03       1.83       ----

> <Gold.Chemscore.Fitness>
12.5906

> <Gold.Chemscore.DG>
-14.4504

> <Gold.Chemscore.ZeroCoef>
-5.4800

> <Gold.Chemscore.Hbond>
0.9711

> <Gold.Chemscore.Metal>
0.0000

> <Gold.Chemscore.Lipo>
106.1534

> <Gold.Chemscore.Internal_Hbond>
0.0000

> <Gold.Chemscore.DEClash>
0.0276

> <Gold.Chemscore.DEInternal>
1.8323

> <Gold.Chemscore.Rot>
2.6144

> <Gold.Chemscore.Internal.Correction>
   9.000000E+99

> <Gold.Chemscore.Hbonds>
donor molecule, donor type, donor heavy atom, donor atom, acceptor molecule, acceptor atom, score
      L1  H     1    29       P1  7957  0.74
      P1  H  7954  7966       L1     1  0.03

> <Gold.Chemscore.Hbond.Weighted>
-3.2434

> <Gold.Chemscore.Metal.Weighted>
-0.0000

> <Gold.Chemscore.Lipo.Weighted>
-12.4199

> <Gold.Chemscore.Internal_Hbond.Weighted>
0.0000

> <Gold.Chemscore.DEClash.Weighted>
0.0276

> <Gold.Chemscore.DEInternal.Weighted>
1.8323

> <Gold.Chemscore.Rot.Weighted>
6.6929

> <Gold.Chemscore.Internal.Correction.Weighted>
   9.000000E+99

> <Gold.Protein.RotatedTorsions>
[ 6907 6896 6895 6894 ] final  -55.23 input  -60.11 | X-H torsion
[ 7974 7965 7964 7962 ] final -134.80 input  175.53 | X-H torsion
[ 8008 7997 7996 7995 ] final  159.16 input   59.86 | X-H torsion
[ 10167 10162 10161 10158 ] final  -57.27 input  -65.29 | X-H torsion
[ 10718 10713 10712 10709 ] final   14.30 input   66.30 | X-H torsion
[ 10763 10752 10751 10750 ] final  -45.51 input  -60.55 | X-H torsion
[ 11005 11000 10999 10996 ] final  -81.01 input  -57.11 | X-H torsion

> <Gold.Protein.ActiveResidues>
 VAL166  LYS551  ARG553  GLY616  TRP617  ASP618  TYR619  PRO620  LYS621  CYS622 
 ASP623  PHE694  ASN695  SER759  ASP760  ASP761  ALA762  ILE779  LEU786  VAL792 
 PHE793  MET794  SER795  GLU796  ALA797  LYS798  CYS799  TRP800  GLU811  SER814 

> <Gold.Protein.RotatedAtoms>
  150.8269  134.7504  159.6820 H   0  0  0  0  0  0  0  0  0  0  0  0  # atno 6907 bound_to 6896
  152.4379  134.5647  159.9914 H   0  0  0  0  0  0  0  0  0  0  0  0  # atno 6908 bound_to 6896
  151.5817  133.3339  159.3045 H   0  0  0  0  0  0  0  0  0  0  0  0  # atno 6909 bound_to 6896
  144.9070  140.6846  143.5049 H   0  0  0  0  0  0  0  0  0  0  0  0  # atno 7974 bound_to 7965
  156.2256  140.1838  156.7370 H   0  0  0  0  0  0  0  0  0  0  0  0  # atno 8008 bound_to 7997
  154.5936  140.0647  156.9301 H   0  0  0  0  0  0  0  0  0  0  0  0  # atno 8009 bound_to 7997
  155.2294  140.3313  155.4308 H   0  0  0  0  0  0  0  0  0  0  0  0  # atno 8010 bound_to 7997
  140.6268  143.2442  151.5343 H   0  0  0  0  0  0  0  0  0  0  0  0  # atno 10167 bound_to 10162
  157.0371  130.6216  149.5745 H   0  0  0  0  0  0  0  0  0  0  0  0  # atno 10718 bound_to 10713
  154.0297  135.6658  153.4779 H   0  0  0  0  0  0  0  0  0  0  0  0  # atno 10763 bound_to 10752
  153.0545  135.5064  154.7945 H   0  0  0  0  0  0  0  0  0  0  0  0  # atno 10764 bound_to 10752
  154.6886  135.3057  154.9477 H   0  0  0  0  0  0  0  0  0  0  0  0  # atno 10765 bound_to 10752
  141.1667  133.7176  156.8358 H   0  0  0  0  0  0  0  0  0  0  0  0  # atno 11005 bound_to 11000
  145.3518  139.1704  143.4430 LP  0  0  0  0  0  0  0  0  0  0  0  0  # atno 17320 bound_to 7965
  146.3139  140.3571  142.8661 LP  0  0  0  0  0  0  0  0  0  0  0  0  # atno 17321 bound_to 7965
  139.5487  144.2452  152.1491 LP  0  0  0  0  0  0  0  0  0  0  0  0  # atno 17342 bound_to 10162
  140.1686  144.4958  150.6592 LP  0  0  0  0  0  0  0  0  0  0  0  0  # atno 17343 bound_to 10162
  156.0050  130.5135  150.7798 LP  0  0  0  0  0  0  0  0  0  0  0  0  # atno 17370 bound_to 10713
  157.5133  131.0927  151.0171 LP  0  0  0  0  0  0  0  0  0  0  0  0  # atno 17371 bound_to 10713
  140.2018  134.8891  157.3178 LP  0  0  0  0  0  0  0  0  0  0  0  0  # atno 17394 bound_to 11000
  140.2179  134.4059  155.7580 LP  0  0  0  0  0  0  0  0  0  0  0  0  # atno 17395 bound_to 11000

$$$$
