AV-unprocessed.smi:283|AV-procd|sdf|2141|dock5
  -GOLD-   2262021473D 1   1.00000     0.00000
 Structure written by MMmdl.
 48 51  0  0  0  0  0  0  0  0  1 V2000
  151.8036  139.6604  156.4634 C   0  0  0  0  0  0  0  0  0  0  0  0
  150.7450  140.7359  156.7405 C   0  0  2  0  0  0  0  0  0  0  0  0
  150.3473  141.3774  155.4884 N   0  0  0  0  0  0  0  0  0  0  0  0
  149.1847  141.0548  154.8788 C   0  0  0  0  0  0  0  0  0  0  0  0
  148.3767  142.0121  154.3522 N   0  0  0  0  0  0  0  0  0  0  0  0
  147.2333  141.6669  153.7534 C   0  0  0  0  0  0  0  0  0  0  0  0
  146.7177  140.4482  153.5804 N   0  0  0  0  0  0  0  0  0  0  0  0
  147.5241  139.4832  154.1118 C   0  0  0  0  0  0  0  0  0  0  0  0
  148.7626  139.7045  154.7750 C   0  0  0  0  0  0  0  0  0  0  0  0
  149.2995  138.4912  155.1865 N   0  0  0  0  0  0  0  0  0  0  0  0
  148.4237  137.6070  154.7891 C   0  0  0  0  0  0  0  0  0  0  0  0
  147.3253  138.1172  154.1338 N   0  0  0  0  0  0  0  0  0  0  0  0
  146.1684  137.3618  153.5584 C   0  0  2  0  0  0  0  0  0  0  0  0
  146.3612  136.0109  153.8090 O   0  0  0  0  0  0  0  0  0  0  0  0
  145.6156  135.2756  152.8545 C   0  0  2  0  0  0  0  0  0  0  0  0
  146.1860  133.8524  152.7231 C   0  0  0  0  0  0  0  0  0  0  0  0
  147.5951  133.8585  152.6173 O   0  0  0  0  0  0  0  0  0  0  0  0
  145.5838  136.1304  151.5722 C   0  0  1  0  0  0  0  0  0  0  0  0
  144.2642  136.1716  151.0649 O   0  0  0  0  0  0  0  0  0  0  0  0
  146.0170  137.5249  152.0318 C   0  0  2  0  0  0  0  0  0  0  0  0
  147.2051  137.9269  151.3750 O   0  0  0  0  0  0  0  0  0  0  0  0
  151.2362  141.7047  157.8189 C   0  0  0  0  0  0  0  0  0  0  0  0
  151.2601  143.0943  157.5559 C   0  0  0  0  0  0  0  0  0  0  0  0
  151.7108  144.0023  158.5324 C   0  0  0  0  0  0  0  0  0  0  0  0
  152.1492  143.5294  159.7822 C   0  0  0  0  0  0  0  0  0  0  0  0
  152.1395  142.1483  160.0511 C   0  0  0  0  0  0  0  0  0  0  0  0
  151.6890  141.2345  159.0773 C   0  0  0  0  0  0  0  0  0  0  0  0
  151.7115  139.5483  159.4601 Cl  0  0  0  0  0  0  0  0  0  0  0  0
  145.2932  137.7129  154.1073 H   0  0  0  0  0  0  0  0  0  0  0  0
  144.6081  135.2041  153.2695 H   0  0  0  0  0  0  0  0  0  0  0  0
  146.2487  135.7453  150.7983 H   0  0  0  0  0  0  0  0  0  0  0  0
  145.2570  138.2838  151.8402 H   0  0  0  0  0  0  0  0  0  0  0  0
  152.0529  139.1131  157.3730 H   0  0  0  0  0  0  0  0  0  0  0  0
  152.7239  140.0988  156.0758 H   0  0  0  0  0  0  0  0  0  0  0  0
  151.4453  138.9350  155.7324 H   0  0  0  0  0  0  0  0  0  0  0  0
  149.8564  140.2227  157.1066 H   0  0  0  0  0  0  0  0  0  0  0  0
  150.9205  142.1544  155.1929 H   0  0  0  0  0  0  0  0  0  0  0  0
  146.6477  142.4833  153.3570 H   0  0  0  0  0  0  0  0  0  0  0  0
  148.5563  136.5493  154.9642 H   0  0  0  0  0  0  0  0  0  0  0  0
  145.8889  133.2409  153.5755 H   0  0  0  0  0  0  0  0  0  0  0  0
  145.7827  133.3741  151.8302 H   0  0  0  0  0  0  0  0  0  0  0  0
  147.8794  134.7424  152.4412 H   0  0  0  0  0  0  0  0  0  0  0  0
  144.1827  136.9290  150.5053 H   0  0  0  0  0  0  0  0  0  0  0  0
  147.8251  137.2141  151.4220 H   0  0  0  0  0  0  0  0  0  0  0  0
  150.9309  143.4737  156.5998 H   0  0  0  0  0  0  0  0  0  0  0  0
  151.7206  145.0616  158.3212 H   0  0  0  0  0  0  0  0  0  0  0  0
  152.4956  144.2240  160.5332 H   0  0  0  0  0  0  0  0  0  0  0  0
  152.4814  141.7883  161.0102 H   0  0  0  0  0  0  0  0  0  0  0  0
  1  2  1  0  0  0  0
  1 33  1  0  0  0  0
  1 34  1  0  0  0  0
  1 35  1  0  0  0  0
  2  3  1  0  0  0  0
  2 22  1  0  0  0  0
  2 36  1  0  0  0  0
  3  4  1  0  0  0  0
  3 37  1  0  0  0  0
  4  9  1  0  0  0  0
  4  5  2  0  0  0  0
  5  6  1  0  0  0  0
  6  7  2  0  0  0  0
  6 38  1  0  0  0  0
  7  8  1  0  0  0  0
  8 12  1  0  0  0  0
  8  9  2  0  0  0  0
  9 10  1  0  0  0  0
 10 11  2  0  0  0  0
 11 12  1  0  0  0  0
 11 39  1  0  0  0  0
 12 13  1  0  0  0  0
 13 29  1  0  0  0  0
 13 20  1  0  0  0  0
 13 14  1  0  0  0  0
 14 15  1  0  0  0  0
 15 30  1  0  0  0  0
 15 16  1  0  0  0  0
 15 18  1  0  0  0  0
 16 17  1  0  0  0  0
 16 40  1  0  0  0  0
 16 41  1  0  0  0  0
 17 42  1  0  0  0  0
 18 31  1  0  0  0  0
 18 19  1  0  0  0  0
 18 20  1  0  0  0  0
 19 43  1  0  0  0  0
 20 32  1  0  0  0  0
 20 21  1  0  0  0  0
 21 44  1  0  0  0  0
 22 27  1  0  0  0  0
 22 23  2  0  0  0  0
 23 24  1  0  0  0  0
 23 45  1  0  0  0  0
 24 25  2  0  0  0  0
 24 46  1  0  0  0  0
 25 26  1  0  0  0  0
 25 47  1  0  0  0  0
 26 27  2  0  0  0  0
 26 48  1  0  0  0  0
 27 28  1  0  0  0  0
M  END
> <s_m_source_file>
AV-unprocessed.smi

> <i_m_source_file_index>
283

> <i_lp_mmshare_version>
43012

> <i_f3d_flags>
0

> <s_epik_input>
Q2xjMVtjSF1bY0hdW2NIXVtjSF1jMVtDQEhdKFtDSDNdKVtOSF1jKG5bY0hdbjIpYyhjMjMpbltjSF1uM1tDQEBIXTRPW0NASF0oW0NIMl1bT0hdKVtDQEBIXShbT0hdKVtDQEhdNFtPSF0=

> <s_epik_cmdline>
J2VwaWtfcHl0aG9uJywgJy1waCcsICc3LjAnLCAnLXRuJywgJzgnLCAnLW1hJywgJzIwMCcsICctbWV0YWxfYmluZGluZycsICctaW1hZScsICc8aW5maWxlLm1hZT4nLCAnLW9tYWUnLCAnPG91dGZpbGUubWFlPic=

> <r_lp_tautomer_probability>
1

> <r_epik_Ionization_Penalty>
0.000266407

> <r_epik_Ionization_Penalty_Charging>
0

> <r_epik_Ionization_Penalty_Neutral>
0.000266407

> <r_epik_State_Penalty>
-0

> <r_epik_Charging_Adjusted_Penalty>
0

> <i_epik_Tot_Q>
0

> <i_epik_Tot_abs_Q>
0

> <r_epik_Metal_State_Penalty>
-0

> <b_epik_Metal_Only>
0

> <s_epik_Chemistry_Notes>
This compound contains an acetal/aminal-like group ( X-CH(R)-Y where X, Y are N, S, or O) that may be acid/base labile, releasing an aldehyde.

> <s_lp_Force_Field>
OPLS_2005

> <r_lp_Energy>
47.2056

> <b_lp_Chiralities_Consistent>
1

> <s_lp_Variant>
AV-unprocessed.smi:283-17

> <Gold.Version>
5.8.1

> <Gold.Id.Protein>
6NUR|6NUR_protein|mol2

> <Gold.PLP.Fitness>
54.0902

> <Gold.PLP.PLP>
-46.3600

> <Gold.PLP.part.hbond>
-5.6137

> <Gold.PLP.part.metal>
0.0000

> <Gold.PLP.part.buried>
-6.1179

> <Gold.PLP.part.nonpolar>
-38.7747

> <Gold.PLP.part.repulsive>
3.0762

> <Gold.PLP.ligand.clash>
0.0000

> <Gold.PLP.ligand.torsion>
0.6800

> <Gold.PLP.Chemscore.Hbond>
3.0114

> <Gold.PLP.Chemscore.CHOScore>
0.0000

> <Gold.PLP.Chemscore.Metal>
0.0000

> <Gold.Chemscore.Hbonds>
donor molecule, donor type, donor heavy atom, donor atom, acceptor molecule, acceptor atom, score
      L1  H    17    42       P1  7948  1.00
      L1  H    19    43       P1 10171  1.00
      L1  H    21    44       P1  7948  0.96

> <Gold.PLP.Chemscore.Internal.Correction>
0.0558

> <Gold.Rescore>
     Score         DG    S(hbond)    S(metal)    S(lipo)     H(rot)  DE(clash)    DE(int)     intcor
     14.09     -15.63       2.76        0.00      97.53       4.10       0.39       1.15       ----

> <Gold.Chemscore.Fitness>
14.0923

> <Gold.Chemscore.DG>
-15.6304

> <Gold.Chemscore.ZeroCoef>
-5.4800

> <Gold.Chemscore.Hbond>
2.7628

> <Gold.Chemscore.Metal>
0.0000

> <Gold.Chemscore.Lipo>
97.5259

> <Gold.Chemscore.Internal_Hbond>
0.0000

> <Gold.Chemscore.DEClash>
0.3909

> <Gold.Chemscore.DEInternal>
1.1472

> <Gold.Chemscore.Rot>
4.0968

> <Gold.Chemscore.Internal.Correction>
   9.000000E+99

> <Gold.Chemscore.Hbonds>
donor molecule, donor type, donor heavy atom, donor atom, acceptor molecule, acceptor atom, score
      L1  H    17    42       P1  7948  0.74
      L1  H    19    43       P1 10171  1.00
      L1  H    21    44       P1  7948  0.91

> <Gold.Chemscore.Hbond.Weighted>
-9.2278

> <Gold.Chemscore.Metal.Weighted>
-0.0000

> <Gold.Chemscore.Lipo.Weighted>
-11.4105

> <Gold.Chemscore.Internal_Hbond.Weighted>
0.0000

> <Gold.Chemscore.DEClash.Weighted>
0.3909

> <Gold.Chemscore.DEInternal.Weighted>
1.1472

> <Gold.Chemscore.Rot.Weighted>
10.4879

> <Gold.Chemscore.Internal.Correction.Weighted>
   9.000000E+99

> <Gold.Protein.RotatedTorsions>
[ 6907 6896 6895 6894 ] final   49.61 input  -60.11 | X-H torsion
[ 7974 7965 7964 7962 ] final  -37.42 input  175.53 | X-H torsion
[ 8008 7997 7996 7995 ] final  -24.24 input   59.86 | X-H torsion
[ 10167 10162 10161 10158 ] final  108.20 input  -65.29 | X-H torsion
[ 10718 10713 10712 10709 ] final  -78.69 input   66.30 | X-H torsion
[ 10763 10752 10751 10750 ] final   -0.31 input  -60.55 | X-H torsion
[ 11005 11000 10999 10996 ] final  166.09 input  -57.11 | X-H torsion

> <Gold.Protein.ActiveResidues>
 VAL166  LYS551  ARG553  GLY616  TRP617  ASP618  TYR619  PRO620  LYS621  CYS622 
 ASP623  PHE694  ASN695  SER759  ASP760  ASP761  ALA762  ILE779  LEU786  VAL792 
 PHE793  MET794  SER795  GLU796  ALA797  LYS798  CYS799  TRP800  GLU811  SER814 

> <Gold.Protein.RotatedAtoms>
  152.2927  134.7703  160.0374 H   0  0  0  0  0  0  0  0  0  0  0  0  # atno 6907 bound_to 6896
  151.8243  133.3394  159.3602 H   0  0  0  0  0  0  0  0  0  0  0  0  # atno 6908 bound_to 6896
  150.7237  134.5473  159.5821 H   0  0  0  0  0  0  0  0  0  0  0  0  # atno 6909 bound_to 6896
  146.0577  140.6393  142.9012 H   0  0  0  0  0  0  0  0  0  0  0  0  # atno 7974 bound_to 7965
  154.4540  140.1959  156.0434 H   0  0  0  0  0  0  0  0  0  0  0  0  # atno 8008 bound_to 7997
  156.0708  140.3284  155.7546 H   0  0  0  0  0  0  0  0  0  0  0  0  # atno 8009 bound_to 7997
  155.5266  140.0574  157.2887 H   0  0  0  0  0  0  0  0  0  0  0  0  # atno 8010 bound_to 7997
  139.6866  144.7113  151.1422 H   0  0  0  0  0  0  0  0  0  0  0  0  # atno 10167 bound_to 10162
  156.0111  130.4525  150.3535 H   0  0  0  0  0  0  0  0  0  0  0  0  # atno 10718 bound_to 10713
  153.3303  135.6974  153.6954 H   0  0  0  0  0  0  0  0  0  0  0  0  # atno 10763 bound_to 10752
  153.5759  135.3507  155.2856 H   0  0  0  0  0  0  0  0  0  0  0  0  # atno 10764 bound_to 10752
  154.8616  135.4283  154.2490 H   0  0  0  0  0  0  0  0  0  0  0  0  # atno 10765 bound_to 10752
  140.2628  134.7888  157.3605 H   0  0  0  0  0  0  0  0  0  0  0  0  # atno 11005 bound_to 11000
  144.7157  140.4200  143.7046 LP  0  0  0  0  0  0  0  0  0  0  0  0  # atno 17320 bound_to 7965
  145.6615  139.1582  143.2805 LP  0  0  0  0  0  0  0  0  0  0  0  0  # atno 17321 bound_to 7965
  140.7669  143.5621  150.9088 LP  0  0  0  0  0  0  0  0  0  0  0  0  # atno 17342 bound_to 10162
  139.9296  143.6509  152.3079 LP  0  0  0  0  0  0  0  0  0  0  0  0  # atno 17343 bound_to 10162
  157.1626  131.0349  151.2833 LP  0  0  0  0  0  0  0  0  0  0  0  0  # atno 17370 bound_to 10713
  157.4298  130.7484  149.6980 LP  0  0  0  0  0  0  0  0  0  0  0  0  # atno 17371 bound_to 10713
  140.1448  134.4926  155.8004 LP  0  0  0  0  0  0  0  0  0  0  0  0  # atno 17394 bound_to 11000
  141.2188  133.6839  156.7274 LP  0  0  0  0  0  0  0  0  0  0  0  0  # atno 17395 bound_to 11000

$$$$
