AV-unprocessed.smi:1511|AV-procd|sdf|6099|dock4
  -GOLD-   22720 6233D 1   1.00000     0.00000
 Structure written by MMmdl.
 32 33  0  0  0  0  0  0  0  0  1 V2000
  147.1839  132.1442  153.5200 O   0  0  0  0  0  0  0  0  0  0  0  0
  147.5335  133.1746  152.9451 C   0  0  0  0  0  0  0  0  0  0  0  0
  147.5100  133.2434  151.4191 C   0  0  0  0  0  0  0  0  0  0  0  0
  146.1745  132.9614  150.9227 N   0  0  0  0  0  0  0  0  0  0  0  0
  145.7888  132.0194  149.9917 C   0  0  0  0  0  0  0  0  0  0  0  0
  144.4394  132.1425  149.8238 C   0  0  0  0  0  0  0  0  0  0  0  0
  144.0839  133.2004  150.7064 C   0  0  0  0  0  0  0  0  0  0  0  0
  145.1241  133.6892  151.3625 N   0  0  0  0  0  0  0  0  0  0  0  0
  147.9874  134.2660  153.5809 N   0  0  0  0  0  0  0  0  0  0  0  0
  148.2659  134.3588  155.0098 C   0  0  0  0  0  0  0  0  0  0  0  0
  149.6870  134.8985  155.2612 C   0  0  1  0  0  0  0  0  0  0  0  0
  149.7467  136.4381  155.2461 C   0  0  0  0  0  0  0  0  0  0  0  0
  151.1245  136.8804  155.7507 C   0  0  0  0  0  0  0  0  0  0  0  0
  151.6206  135.6334  156.9976 S   0  0  0  0  0  0  0  0  0  0  0  0
  152.9328  135.0827  156.6264 O   0  0  0  0  0  0  0  0  0  0  0  0
  151.3753  136.1622  158.3479 O   0  0  0  0  0  0  0  0  0  0  0  0
  150.3102  134.4216  156.5852 C   0  0  0  0  0  0  0  0  0  0  0  0
  147.8081  134.2375  151.0833 H   0  0  0  0  0  0  0  0  0  0  0  0
  148.2195  132.5312  150.9944 H   0  0  0  0  0  0  0  0  0  0  0  0
  146.5007  131.3524  149.5278 H   0  0  0  0  0  0  0  0  0  0  0  0
  143.8034  131.5660  149.1687 H   0  0  0  0  0  0  0  0  0  0  0  0
  143.1077  133.6260  150.8872 H   0  0  0  0  0  0  0  0  0  0  0  0
  148.2455  135.0627  153.0163 H   0  0  0  0  0  0  0  0  0  0  0  0
  147.5323  135.0328  155.4530 H   0  0  0  0  0  0  0  0  0  0  0  0
  148.1310  133.3949  155.5033 H   0  0  0  0  0  0  0  0  0  0  0  0
  150.3328  134.5455  154.4553 H   0  0  0  0  0  0  0  0  0  0  0  0
  149.5380  136.8416  154.2548 H   0  0  0  0  0  0  0  0  0  0  0  0
  148.9830  136.8328  155.9178 H   0  0  0  0  0  0  0  0  0  0  0  0
  151.8574  136.8601  154.9437 H   0  0  0  0  0  0  0  0  0  0  0  0
  151.1187  137.8766  156.1931 H   0  0  0  0  0  0  0  0  0  0  0  0
  149.5763  134.4369  157.3917 H   0  0  0  0  0  0  0  0  0  0  0  0
  150.7336  133.4187  156.5216 H   0  0  0  0  0  0  0  0  0  0  0  0
  1  2  2  0  0  0  0
  2  3  1  0  0  0  0
  2  9  1  0  0  0  0
  3  4  1  0  0  0  0
  3 18  1  0  0  0  0
  3 19  1  0  0  0  0
  4  8  1  0  0  0  0
  4  5  1  0  0  0  0
  5  6  2  0  0  0  0
  5 20  1  0  0  0  0
  6  7  1  0  0  0  0
  6 21  1  0  0  0  0
  7  8  2  0  0  0  0
  7 22  1  0  0  0  0
  9 10  1  0  0  0  0
  9 23  1  0  0  0  0
 10 11  1  0  0  0  0
 10 24  1  0  0  0  0
 10 25  1  0  0  0  0
 11 17  1  0  0  0  0
 11 12  1  0  0  0  0
 11 26  1  0  0  0  0
 12 13  1  0  0  0  0
 12 27  1  0  0  0  0
 12 28  1  0  0  0  0
 13 14  1  0  0  0  0
 13 29  1  0  0  0  0
 13 30  1  0  0  0  0
 14 15  2  0  0  0  0
 14 16  2  0  0  0  0
 14 17  1  0  0  0  0
 17 31  1  0  0  0  0
 17 32  1  0  0  0  0
M  END
> <s_m_source_file>
AV-unprocessed.smi

> <i_m_source_file_index>
1511

> <i_lp_mmshare_version>
43012

> <i_f3d_flags>
0

> <s_epik_input>
bjFbY0hdW2NIXVtjSF1uMVtDSDJdQyg9TylbTkhdW0NIMl1bQ0BASF0oW0NIMl0yKVtDSDJdW0NIMl1TMig9Tyk9Tw==

> <s_epik_cmdline>
J2VwaWtfcHl0aG9uJywgJy1waCcsICc3LjAnLCAnLXRuJywgJzgnLCAnLW1hJywgJzIwMCcsICctbWV0YWxfYmluZGluZycsICctaW1hZScsICc8aW5maWxlLm1hZT4nLCAnLW9tYWUnLCAnPG91dGZpbGUubWFlPic=

> <r_lp_tautomer_probability>
1

> <r_epik_Ionization_Penalty>
1.34373e-05

> <r_epik_Ionization_Penalty_Charging>
0

> <r_epik_Ionization_Penalty_Neutral>
1.34373e-05

> <r_epik_State_Penalty>
-0

> <r_epik_Charging_Adjusted_Penalty>
0

> <i_epik_Tot_Q>
0

> <i_epik_Tot_abs_Q>
0

> <r_epik_Metal_State_Penalty>
-0

> <b_epik_Metal_Only>
0

> <s_lp_Force_Field>
OPLS_2005

> <r_lp_Energy>
3.15153

> <b_lp_Chiralities_Consistent>
1

> <s_lp_Variant>
AV-unprocessed.smi:1511-2

> <Gold.Version>
5.8.1

> <Gold.Id.Protein>
6NUR|6NUR_protein|mol2

> <Gold.PLP.Fitness>
37.6158

> <Gold.PLP.PLP>
-23.8146

> <Gold.PLP.part.hbond>
-3.0000

> <Gold.PLP.part.metal>
0.0000

> <Gold.PLP.part.buried>
-3.3599

> <Gold.PLP.part.nonpolar>
-18.1616

> <Gold.PLP.part.repulsive>
0.2023

> <Gold.PLP.ligand.clash>
0.0000

> <Gold.PLP.ligand.torsion>
0.3757

> <Gold.PLP.Chemscore.Hbond>
2.8480

> <Gold.PLP.Chemscore.CHOScore>
2.0000

> <Gold.PLP.Chemscore.Metal>
0.0000

> <Gold.Chemscore.Hbonds>
donor molecule, donor type, donor heavy atom, donor atom, acceptor molecule, acceptor atom, score
      L1  H     9    23       P1  7948  1.00
      P1  H  6896  6908       L1    16  0.51
      P1  H 10752 10763       L1    15  0.83
      L1  C     5    20       P1 10747  0.78
      L1  C     7    22       P1 10186  0.80

> <Gold.PLP.Chemscore.Internal.Correction>
0.0085

> <Gold.Rescore>
     Score         DG    S(hbond)    S(metal)    S(lipo)     H(rot)  DE(clash)    DE(int)     intcor
     15.57     -16.21       2.71        0.00      54.14       1.82       0.13       0.51       ----

> <Gold.Chemscore.Fitness>
15.5681

> <Gold.Chemscore.DG>
-16.2095

> <Gold.Chemscore.ZeroCoef>
-5.4800

> <Gold.Chemscore.Hbond>
2.7091

> <Gold.Chemscore.Metal>
0.0000

> <Gold.Chemscore.Lipo>
54.1426

> <Gold.Chemscore.Internal_Hbond>
0.0000

> <Gold.Chemscore.DEClash>
0.1311

> <Gold.Chemscore.DEInternal>
0.5103

> <Gold.Chemscore.Rot>
1.8178

> <Gold.Chemscore.Internal.Correction>
   9.000000E+99

> <Gold.Chemscore.Hbonds>
donor molecule, donor type, donor heavy atom, donor atom, acceptor molecule, acceptor atom, score
      L1  H     9    23       P1  7948  0.91
      P1  H  6896  6908       L1    16  0.49
      P1  H 10752 10763       L1    15  0.73

> <Gold.Chemscore.Hbond.Weighted>
-9.0485

> <Gold.Chemscore.Metal.Weighted>
-0.0000

> <Gold.Chemscore.Lipo.Weighted>
-6.3347

> <Gold.Chemscore.Internal_Hbond.Weighted>
0.0000

> <Gold.Chemscore.DEClash.Weighted>
0.1311

> <Gold.Chemscore.DEInternal.Weighted>
0.5103

> <Gold.Chemscore.Rot.Weighted>
4.6537

> <Gold.Chemscore.Internal.Correction.Weighted>
   9.000000E+99

> <Gold.Protein.RotatedTorsions>
[ 6907 6896 6895 6894 ] final -147.73 input  -60.11 | X-H torsion
[ 7974 7965 7964 7962 ] final -175.78 input  175.53 | X-H torsion
[ 8008 7997 7996 7995 ] final -133.00 input   59.86 | X-H torsion
[ 10167 10162 10161 10158 ] final  150.10 input  -65.29 | X-H torsion
[ 10718 10713 10712 10709 ] final  163.68 input   66.30 | X-H torsion
[ 10763 10752 10751 10750 ] final  107.93 input  -60.55 | X-H torsion
[ 11005 11000 10999 10996 ] final -137.44 input  -57.11 | X-H torsion

> <Gold.Protein.ActiveResidues>
 VAL166  LYS551  ARG553  GLY616  TRP617  ASP618  TYR619  PRO620  LYS621  CYS622 
 ASP623  PHE694  ASN695  SER759  ASP760  ASP761  ALA762  ILE779  LEU786  VAL792 
 PHE793  MET794  SER795  GLU796  ALA797  LYS798  CYS799  TRP800  GLU811  SER814 

> <Gold.Protein.RotatedAtoms>
  151.1598  133.4852  159.2594 H   0  0  0  0  0  0  0  0  0  0  0  0  # atno 6907 bound_to 6896
  151.1466  135.0206  159.8659 H   0  0  0  0  0  0  0  0  0  0  0  0  # atno 6908 bound_to 6896
  152.5463  134.1487  159.8562 H   0  0  0  0  0  0  0  0  0  0  0  0  # atno 6909 bound_to 6896
  144.7127  140.1269  143.6401 H   0  0  0  0  0  0  0  0  0  0  0  0  # atno 7974 bound_to 7965
  155.3382  140.0470  157.3044 H   0  0  0  0  0  0  0  0  0  0  0  0  # atno 8008 bound_to 7997
  154.5291  140.2251  155.8801 H   0  0  0  0  0  0  0  0  0  0  0  0  # atno 8009 bound_to 7997
  156.1770  140.3083  155.9084 H   0  0  0  0  0  0  0  0  0  0  0  0  # atno 8010 bound_to 7997
  139.4854  144.5549  151.7335 H   0  0  0  0  0  0  0  0  0  0  0  0  # atno 10167 bound_to 10162
  157.1050  131.0453  151.2481 H   0  0  0  0  0  0  0  0  0  0  0  0  # atno 10718 bound_to 10713
  153.4136  135.3828  155.2066 H   0  0  0  0  0  0  0  0  0  0  0  0  # atno 10763 bound_to 10752
  154.8739  135.3800  154.4471 H   0  0  0  0  0  0  0  0  0  0  0  0  # atno 10764 bound_to 10752
  153.4982  135.7088  153.5908 H   0  0  0  0  0  0  0  0  0  0  0  0  # atno 10765 bound_to 10752
  140.8710  134.2050  157.4651 H   0  0  0  0  0  0  0  0  0  0  0  0  # atno 11005 bound_to 11000
  145.9322  139.2613  143.1318 LP  0  0  0  0  0  0  0  0  0  0  0  0  # atno 17320 bound_to 7965
  145.9511  140.8908  143.0258 LP  0  0  0  0  0  0  0  0  0  0  0  0  # atno 17321 bound_to 7965
  140.5109  144.1026  150.5995 LP  0  0  0  0  0  0  0  0  0  0  0  0  # atno 17342 bound_to 10162
  140.3951  143.2732  152.0014 LP  0  0  0  0  0  0  0  0  0  0  0  0  # atno 17343 bound_to 10162
  157.4608  130.7652  149.7234 LP  0  0  0  0  0  0  0  0  0  0  0  0  # atno 17370 bound_to 10713
  155.9864  130.3975  150.3214 LP  0  0  0  0  0  0  0  0  0  0  0  0  # atno 17371 bound_to 10713
  139.8712  134.9774  156.4958 LP  0  0  0  0  0  0  0  0  0  0  0  0  # atno 17394 bound_to 11000
  140.8573  133.8086  155.9229 LP  0  0  0  0  0  0  0  0  0  0  0  0  # atno 17395 bound_to 11000

$$$$
