AV-unprocessed.smi:3148|AV-procd|sdf|11991|dock1
  -GOLD-   2272017393D 1   1.00000     0.00000
 Structure written by MMmdl.
 34 36  0  0  0  0  0  0  0  0  1 V2000
  153.0828  138.1563  155.4430 C   0  0  0  0  0  0  0  0  0  0  0  0
  152.8501  139.2056  156.3764 O   0  0  0  0  0  0  0  0  0  0  0  0
  151.7566  140.0220  156.1752 C   0  0  0  0  0  0  0  0  0  0  0  0
  150.8077  139.6813  155.1900 C   0  0  0  0  0  0  0  0  0  0  0  0
  149.7159  140.5615  155.0389 C   0  0  0  0  0  0  0  0  0  0  0  0
  148.6264  140.3041  154.0197 C   0  0  0  0  0  0  0  0  0  0  0  0
  149.5858  141.6724  155.7975 N   0  0  0  0  0  0  0  0  0  0  0  0
  150.5387  141.9021  156.7039 C   0  0  0  0  0  0  0  0  0  0  0  0
  150.3705  143.0409  157.4699 N   0  0  0  0  0  0  0  0  0  0  0  0
  150.7882  143.1659  158.8609 C   0  0  2  0  0  0  0  0  0  0  0  0
  150.3655  144.4969  159.4951 C   0  0  0  0  0  0  0  0  0  0  0  0
  151.7085  145.0571  159.9797 C   0  0  1  0  0  0  0  0  0  0  0  0
  152.2862  144.2516  161.1514 C   0  0  0  0  0  0  0  0  0  0  0  0
  152.7473  142.9723  160.4532 C   0  0  0  0  0  0  0  0  0  0  0  0
  152.3181  143.2308  159.0024 C   0  0  2  0  0  0  0  0  0  0  0  0
  152.5512  144.6280  158.9251 O   0  0  0  0  0  0  0  0  0  0  0  0
  151.6137  141.1388  156.9312 N   0  0  0  0  0  0  0  0  0  0  0  0
  153.9724  137.6006  155.7387 H   0  0  0  0  0  0  0  0  0  0  0  0
  153.2551  138.5474  154.4392 H   0  0  0  0  0  0  0  0  0  0  0  0
  152.2481  137.4545  155.4148 H   0  0  0  0  0  0  0  0  0  0  0  0
  150.9144  138.7920  154.5865 H   0  0  0  0  0  0  0  0  0  0  0  0
  148.8746  139.4536  153.3842 H   0  0  0  0  0  0  0  0  0  0  0  0
  148.4874  141.1769  153.3810 H   0  0  0  0  0  0  0  0  0  0  0  0
  147.6824  140.0913  154.5219 H   0  0  0  0  0  0  0  0  0  0  0  0
  149.7897  143.7712  157.0841 H   0  0  0  0  0  0  0  0  0  0  0  0
  150.3990  142.3157  159.4227 H   0  0  0  0  0  0  0  0  0  0  0  0
  149.9212  145.1703  158.7604 H   0  0  0  0  0  0  0  0  0  0  0  0
  149.6495  144.3662  160.3070 H   0  0  0  0  0  0  0  0  0  0  0  0
  151.7048  146.1352  160.1410 H   0  0  0  0  0  0  0  0  0  0  0  0
  153.1347  144.7695  161.5999 H   0  0  0  0  0  0  0  0  0  0  0  0
  151.5459  144.0669  161.9305 H   0  0  0  0  0  0  0  0  0  0  0  0
  153.8310  142.8693  160.5224 H   0  0  0  0  0  0  0  0  0  0  0  0
  152.2919  142.0737  160.8704 H   0  0  0  0  0  0  0  0  0  0  0  0
  152.8678  142.6353  158.2725 H   0  0  0  0  0  0  0  0  0  0  0  0
  1  2  1  0  0  0  0
  1 18  1  0  0  0  0
  1 19  1  0  0  0  0
  1 20  1  0  0  0  0
  2  3  1  0  0  0  0
  3 17  1  0  0  0  0
  3  4  2  0  0  0  0
  4  5  1  0  0  0  0
  4 21  1  0  0  0  0
  5  6  1  0  0  0  0
  5  7  2  0  0  0  0
  6 22  1  0  0  0  0
  6 23  1  0  0  0  0
  6 24  1  0  0  0  0
  7  8  1  0  0  0  0
  8  9  1  0  0  0  0
  8 17  2  0  0  0  0
  9 10  1  0  0  0  0
  9 25  1  0  0  0  0
 10 15  1  0  0  0  0
 10 11  1  0  0  0  0
 10 26  1  0  0  0  0
 11 12  1  0  0  0  0
 11 27  1  0  0  0  0
 11 28  1  0  0  0  0
 12 16  1  0  0  0  0
 12 13  1  0  0  0  0
 12 29  1  0  0  0  0
 13 14  1  0  0  0  0
 13 30  1  0  0  0  0
 13 31  1  0  0  0  0
 14 15  1  0  0  0  0
 14 32  1  0  0  0  0
 14 33  1  0  0  0  0
 15 16  1  0  0  0  0
 15 34  1  0  0  0  0
M  END
> <s_m_source_file>
AV-unprocessed.smi

> <i_m_source_file_index>
3148

> <i_lp_mmshare_version>
43012

> <i_f3d_flags>
0

> <s_epik_input>
W0NIM11PYzFbY0hdYyhbQ0gzXSluYyhuMSlbTkhdW0NASF0oW0NIMl1bQ0BASF0yMylbQ0BASF0oTzMpW0NIMl1bQ0gyXTI=

> <s_epik_cmdline>
J2VwaWtfcHl0aG9uJywgJy1waCcsICc3LjAnLCAnLXRuJywgJzgnLCAnLW1hJywgJzIwMCcsICctbWV0YWxfYmluZGluZycsICctaW1hZScsICc8aW5maWxlLm1hZT4nLCAnLW9tYWUnLCAnPG91dGZpbGUubWFlPic=

> <r_lp_tautomer_probability>
1

> <r_epik_Ionization_Penalty>
0.101645

> <r_epik_Ionization_Penalty_Charging>
0

> <r_epik_Ionization_Penalty_Neutral>
0.101645

> <r_epik_State_Penalty>
0.0916212

> <r_epik_Charging_Adjusted_Penalty>
0.0916212

> <i_epik_Tot_Q>
0

> <i_epik_Tot_abs_Q>
0

> <r_epik_Metal_State_Penalty>
0.0781

> <b_epik_Metal_Only>
0

> <s_lp_Force_Field>
OPLS_2005

> <r_lp_Energy>
31.271

> <b_lp_Chiralities_Consistent>
1

> <s_lp_Variant>
AV-unprocessed.smi:3148-1

> <Gold.Version>
5.8.1

> <Gold.Id.Protein>
6NUR|6NUR_protein|mol2

> <Gold.PLP.Fitness>
42.7213

> <Gold.PLP.PLP>
-37.4446

> <Gold.PLP.part.hbond>
-2.0000

> <Gold.PLP.part.metal>
0.0000

> <Gold.PLP.part.buried>
-2.5192

> <Gold.PLP.part.nonpolar>
-33.4159

> <Gold.PLP.part.repulsive>
0.2844

> <Gold.PLP.ligand.clash>
0.0000

> <Gold.PLP.ligand.torsion>
0.3739

> <Gold.PLP.Chemscore.Hbond>
2.0000

> <Gold.PLP.Chemscore.CHOScore>
0.0000

> <Gold.PLP.Chemscore.Metal>
0.0000

> <Gold.Chemscore.Hbonds>
donor molecule, donor type, donor heavy atom, donor atom, acceptor molecule, acceptor atom, score
      L1  H     9    25       P1  8028  1.00
      P1  H  7997  8010       L1     2  1.00

> <Gold.PLP.Chemscore.Internal.Correction>
0.0245

> <Gold.Rescore>
     Score         DG    S(hbond)    S(metal)    S(lipo)     H(rot)  DE(clash)    DE(int)     intcor
     18.30     -18.83       1.72        0.00      91.78       1.22       0.09       0.44       ----

> <Gold.Chemscore.Fitness>
18.2976

> <Gold.Chemscore.DG>
-18.8334

> <Gold.Chemscore.ZeroCoef>
-5.4800

> <Gold.Chemscore.Hbond>
1.7207

> <Gold.Chemscore.Metal>
0.0000

> <Gold.Chemscore.Lipo>
91.7757

> <Gold.Chemscore.Internal_Hbond>
0.0000

> <Gold.Chemscore.DEClash>
0.0938

> <Gold.Chemscore.DEInternal>
0.4421

> <Gold.Chemscore.Rot>
1.2232

> <Gold.Chemscore.Internal.Correction>
   9.000000E+99

> <Gold.Chemscore.Hbonds>
donor molecule, donor type, donor heavy atom, donor atom, acceptor molecule, acceptor atom, score
      L1  H     9    25       P1  8028  0.91
      P1  H  7997  8010       L1     2  0.62

> <Gold.Chemscore.Hbond.Weighted>
-5.7470

> <Gold.Chemscore.Metal.Weighted>
-0.0000

> <Gold.Chemscore.Lipo.Weighted>
-10.7378

> <Gold.Chemscore.Internal_Hbond.Weighted>
0.0000

> <Gold.Chemscore.DEClash.Weighted>
0.0938

> <Gold.Chemscore.DEInternal.Weighted>
0.4421

> <Gold.Chemscore.Rot.Weighted>
3.1314

> <Gold.Chemscore.Internal.Correction.Weighted>
   9.000000E+99

> <Gold.Protein.RotatedTorsions>
[ 6907 6896 6895 6894 ] final -178.04 input  -60.11 | X-H torsion
[ 7974 7965 7964 7962 ] final -140.69 input  175.53 | X-H torsion
[ 8008 7997 7996 7995 ] final   52.73 input   59.86 | X-H torsion
[ 10167 10162 10161 10158 ] final   -7.08 input  -65.29 | X-H torsion
[ 10718 10713 10712 10709 ] final  -13.62 input   66.30 | X-H torsion
[ 10763 10752 10751 10750 ] final -147.35 input  -60.55 | X-H torsion
[ 11005 11000 10999 10996 ] final  167.48 input  -57.11 | X-H torsion

> <Gold.Protein.ActiveResidues>
 VAL166  LYS551  ARG553  GLY616  TRP617  ASP618  TYR619  PRO620  LYS621  CYS622 
 ASP623  PHE694  ASN695  SER759  ASP760  ASP761  ALA762  ILE779  LEU786  VAL792 
 PHE793  MET794  SER795  GLU796  ALA797  LYS798  CYS799  TRP800  GLU811  SER814 

> <Gold.Protein.RotatedAtoms>
  151.6307  133.3332  159.3107 H   0  0  0  0  0  0  0  0  0  0  0  0  # atno 6907 bound_to 6896
  150.8058  134.7185  159.6654 H   0  0  0  0  0  0  0  0  0  0  0  0  # atno 6908 bound_to 6896
  152.4153  134.6057  160.0063 H   0  0  0  0  0  0  0  0  0  0  0  0  # atno 6909 bound_to 6896
  144.8577  140.6170  143.5348 H   0  0  0  0  0  0  0  0  0  0  0  0  # atno 7974 bound_to 7965
  155.4566  140.3460  155.4307 H   0  0  0  0  0  0  0  0  0  0  0  0  # atno 8008 bound_to 7997
  156.1187  140.1481  156.9265 H   0  0  0  0  0  0  0  0  0  0  0  0  # atno 8009 bound_to 7997
  154.4807  140.0870  156.7351 H   0  0  0  0  0  0  0  0  0  0  0  0  # atno 8010 bound_to 7997
  140.7018  143.6121  150.8694 H   0  0  0  0  0  0  0  0  0  0  0  0  # atno 10167 bound_to 10162
  156.6276  130.4892  149.6141 H   0  0  0  0  0  0  0  0  0  0  0  0  # atno 10718 bound_to 10713
  154.8290  135.3362  154.6805 H   0  0  0  0  0  0  0  0  0  0  0  0  # atno 10763 bound_to 10752
  153.7427  135.6944  153.4968 H   0  0  0  0  0  0  0  0  0  0  0  0  # atno 10764 bound_to 10752
  153.2232  135.4441  155.0464 H   0  0  0  0  0  0  0  0  0  0  0  0  # atno 10765 bound_to 10752
  140.2772  134.7779  157.3727 H   0  0  0  0  0  0  0  0  0  0  0  0  # atno 11005 bound_to 11000
  145.4373  139.1540  143.3990 LP  0  0  0  0  0  0  0  0  0  0  0  0  # atno 17320 bound_to 7965
  146.2836  140.4492  142.8766 LP  0  0  0  0  0  0  0  0  0  0  0  0  # atno 17321 bound_to 7965
  139.9843  143.5916  152.2932 LP  0  0  0  0  0  0  0  0  0  0  0  0  # atno 17342 bound_to 10162
  139.6549  144.7662  151.2076 LP  0  0  0  0  0  0  0  0  0  0  0  0  # atno 17343 bound_to 10162
  156.2261  130.6766  151.1417 LP  0  0  0  0  0  0  0  0  0  0  0  0  # atno 17370 bound_to 10713
  157.7209  131.0682  150.6138 LP  0  0  0  0  0  0  0  0  0  0  0  0  # atno 17371 bound_to 10713
  140.1317  134.5087  155.8100 LP  0  0  0  0  0  0  0  0  0  0  0  0  # atno 17394 bound_to 11000
  141.2168  133.6792  156.7051 LP  0  0  0  0  0  0  0  0  0  0  0  0  # atno 17395 bound_to 11000

$$$$
