AV-unprocessed.smi:2816|AV-procd|sdf|10842|dock4
  -GOLD-   2272015283D 1   1.00000     0.00000
 Structure written by MMmdl.
 43 45  0  0  0  0  0  0  0  0  1 V2000
  152.2105  130.5887  155.8681 C   0  0  0  0  0  0  0  0  0  0  0  0
  151.3090  130.8330  157.0909 C   0  0  0  0  0  0  0  0  0  0  0  0
  150.1275  129.8461  157.0606 C   0  0  0  0  0  0  0  0  0  0  0  0
  152.1295  130.6492  158.3804 C   0  0  0  0  0  0  0  0  0  0  0  0
  150.6820  132.5835  156.9943 S   0  0  0  0  0  0  0  0  0  0  0  0
  149.7003  132.7697  158.0747 O   0  0  0  0  0  0  0  0  0  0  0  0
  151.8405  133.4876  156.9154 O   0  0  0  0  0  0  0  0  0  0  0  0
  149.7979  132.7042  155.4377 C   0  0  0  0  0  0  0  0  0  0  0  0
  149.1271  133.8966  155.0989 C   0  0  0  0  0  0  0  0  0  0  0  0
  148.4068  133.9327  153.8904 C   0  0  0  0  0  0  0  0  0  0  0  0
  148.3757  132.7772  153.0740 C   0  0  0  0  0  0  0  0  0  0  0  0
  147.6800  132.7089  151.8578 N   0  0  0  0  0  0  0  0  0  0  0  0
  146.2421  132.9414  151.7914 C   0  0  2  0  0  0  0  0  0  0  0  0
  145.4129  131.7275  152.2332 C   0  0  0  0  0  0  0  0  0  0  0  0
  144.5253  131.4848  151.0065 C   0  0  1  0  0  0  0  0  0  0  0  0
  143.4860  132.5971  150.8110 C   0  0  0  0  0  0  0  0  0  0  0  0
  144.3543  133.7497  150.3074 C   0  0  0  0  0  0  0  0  0  0  0  0
  145.7575  133.1284  150.3430 C   0  0  2  0  0  0  0  0  0  0  0  0
  145.4427  131.7956  149.9733 O   0  0  0  0  0  0  0  0  0  0  0  0
  149.0816  131.6381  153.5190 C   0  0  0  0  0  0  0  0  0  0  0  0
  149.7744  131.5895  154.6761 N   0  0  0  0  0  0  0  0  0  0  0  0
  152.6123  129.5748  155.8663 H   0  0  0  0  0  0  0  0  0  0  0  0
  153.0562  131.2771  155.8551 H   0  0  0  0  0  0  0  0  0  0  0  0
  151.6609  130.7270  154.9365 H   0  0  0  0  0  0  0  0  0  0  0  0
  149.4992  130.0023  156.1834 H   0  0  0  0  0  0  0  0  0  0  0  0
  149.4960  129.9442  157.9427 H   0  0  0  0  0  0  0  0  0  0  0  0
  150.4784  128.8141  157.0320 H   0  0  0  0  0  0  0  0  0  0  0  0
  152.5596  129.6485  158.4339 H   0  0  0  0  0  0  0  0  0  0  0  0
  151.5152  130.7853  159.2705 H   0  0  0  0  0  0  0  0  0  0  0  0
  152.9522  131.3627  158.4343 H   0  0  0  0  0  0  0  0  0  0  0  0
  149.1579  134.7602  155.7464 H   0  0  0  0  0  0  0  0  0  0  0  0
  147.8893  134.8388  153.6135 H   0  0  0  0  0  0  0  0  0  0  0  0
  148.1238  132.2669  151.0652 H   0  0  0  0  0  0  0  0  0  0  0  0
  145.9978  133.8306  152.3738 H   0  0  0  0  0  0  0  0  0  0  0  0
  146.0409  130.8546  152.4178 H   0  0  0  0  0  0  0  0  0  0  0  0
  144.8321  131.9213  153.1352 H   0  0  0  0  0  0  0  0  0  0  0  0
  144.1124  130.4770  150.9523 H   0  0  0  0  0  0  0  0  0  0  0  0
  142.7497  132.3155  150.0575 H   0  0  0  0  0  0  0  0  0  0  0  0
  142.9571  132.8354  151.7343 H   0  0  0  0  0  0  0  0  0  0  0  0
  144.0774  134.0178  149.2873 H   0  0  0  0  0  0  0  0  0  0  0  0
  144.2763  134.6432  150.9277 H   0  0  0  0  0  0  0  0  0  0  0  0
  146.4711  133.6270  149.6855 H   0  0  0  0  0  0  0  0  0  0  0  0
  149.0847  130.7316  152.9313 H   0  0  0  0  0  0  0  0  0  0  0  0
  1  2  1  0  0  0  0
  1 22  1  0  0  0  0
  1 23  1  0  0  0  0
  1 24  1  0  0  0  0
  2  3  1  0  0  0  0
  2  4  1  0  0  0  0
  2  5  1  0  0  0  0
  3 25  1  0  0  0  0
  3 26  1  0  0  0  0
  3 27  1  0  0  0  0
  4 28  1  0  0  0  0
  4 29  1  0  0  0  0
  4 30  1  0  0  0  0
  5  6  2  0  0  0  0
  5  7  2  0  0  0  0
  5  8  1  0  0  0  0
  8 21  1  0  0  0  0
  8  9  2  0  0  0  0
  9 10  1  0  0  0  0
  9 31  1  0  0  0  0
 10 11  2  0  0  0  0
 10 32  1  0  0  0  0
 11 12  1  0  0  0  0
 11 20  1  0  0  0  0
 12 13  1  0  0  0  0
 12 33  1  0  0  0  0
 13 18  1  0  0  0  0
 13 14  1  0  0  0  0
 13 34  1  0  0  0  0
 14 15  1  0  0  0  0
 14 35  1  0  0  0  0
 14 36  1  0  0  0  0
 15 19  1  0  0  0  0
 15 16  1  0  0  0  0
 15 37  1  0  0  0  0
 16 17  1  0  0  0  0
 16 38  1  0  0  0  0
 16 39  1  0  0  0  0
 17 18  1  0  0  0  0
 17 40  1  0  0  0  0
 17 41  1  0  0  0  0
 18 19  1  0  0  0  0
 18 42  1  0  0  0  0
 20 21  2  0  0  0  0
 20 43  1  0  0  0  0
M  END
> <s_m_source_file>
AV-unprocessed.smi

> <i_m_source_file_index>
2816

> <i_lp_mmshare_version>
43012

> <i_f3d_flags>
0

> <s_epik_input>
W0NIM11DKFtDSDNdKShbQ0gzXSlTKD1PKSg9TyljMVtjSF1bY0hdYyhbY0hdbjEpW05IXVtDQEhdKFtDSDJdW0NAQEhdMjMpW0NAQEhdKE8zKVtDSDJdW0NIMl0y

> <s_epik_cmdline>
J2VwaWtfcHl0aG9uJywgJy1waCcsICc3LjAnLCAnLXRuJywgJzgnLCAnLW1hJywgJzIwMCcsICctbWV0YWxfYmluZGluZycsICctaW1hZScsICc8aW5maWxlLm1hZT4nLCAnLW9tYWUnLCAnPG91dGZpbGUubWFlPic=

> <r_lp_tautomer_probability>
1

> <r_epik_Ionization_Penalty>
1.94439e-07

> <r_epik_Ionization_Penalty_Charging>
0

> <r_epik_Ionization_Penalty_Neutral>
1.94439e-07

> <r_epik_State_Penalty>
-0

> <r_epik_Charging_Adjusted_Penalty>
0

> <i_epik_Tot_Q>
0

> <i_epik_Tot_abs_Q>
0

> <r_epik_Metal_State_Penalty>
-0

> <b_epik_Metal_Only>
0

> <s_lp_Force_Field>
OPLS_2005

> <r_lp_Energy>
42.0373

> <b_lp_Chiralities_Consistent>
1

> <s_lp_Variant>
AV-unprocessed.smi:2816-1

> <Gold.Version>
5.8.1

> <Gold.Id.Protein>
6NUR|6NUR_protein|mol2

> <Gold.PLP.Fitness>
40.8353

> <Gold.PLP.PLP>
-34.5250

> <Gold.PLP.part.hbond>
-2.6263

> <Gold.PLP.part.metal>
0.0000

> <Gold.PLP.part.buried>
-3.6746

> <Gold.PLP.part.nonpolar>
-27.6299

> <Gold.PLP.part.repulsive>
0.1956

> <Gold.PLP.ligand.clash>
0.0000

> <Gold.PLP.ligand.torsion>
2.0696

> <Gold.PLP.Chemscore.Hbond>
2.0000

> <Gold.PLP.Chemscore.CHOScore>
0.7382

> <Gold.PLP.Chemscore.Metal>
0.0000

> <Gold.Chemscore.Hbonds>
donor molecule, donor type, donor heavy atom, donor atom, acceptor molecule, acceptor atom, score
      L1  H    12    33       P1 10747  1.00
      P1  H  6896  6908       L1     6  0.80
      L1  C    20    43       P1 10747  0.63

> <Gold.PLP.Chemscore.Internal.Correction>
2.2348

> <Gold.Rescore>
     Score         DG    S(hbond)    S(metal)    S(lipo)     H(rot)  DE(clash)    DE(int)     intcor
     13.10     -18.18       1.80        0.00      82.36       1.15       0.71       4.37       ----

> <Gold.Chemscore.Fitness>
13.1033

> <Gold.Chemscore.DG>
-18.1794

> <Gold.Chemscore.ZeroCoef>
-5.4800

> <Gold.Chemscore.Hbond>
1.7963

> <Gold.Chemscore.Metal>
0.0000

> <Gold.Chemscore.Lipo>
82.3617

> <Gold.Chemscore.Internal_Hbond>
0.0000

> <Gold.Chemscore.DEClash>
0.7064

> <Gold.Chemscore.DEInternal>
4.3697

> <Gold.Chemscore.Rot>
1.1471

> <Gold.Chemscore.Internal.Correction>
   9.000000E+99

> <Gold.Chemscore.Hbonds>
donor molecule, donor type, donor heavy atom, donor atom, acceptor molecule, acceptor atom, score
      L1  H    12    33       P1 10747  0.96
      P1  H  6896  6908       L1     6  0.12

> <Gold.Chemscore.Hbond.Weighted>
-5.9997

> <Gold.Chemscore.Metal.Weighted>
-0.0000

> <Gold.Chemscore.Lipo.Weighted>
-9.6363

> <Gold.Chemscore.Internal_Hbond.Weighted>
0.0000

> <Gold.Chemscore.DEClash.Weighted>
0.7064

> <Gold.Chemscore.DEInternal.Weighted>
4.3697

> <Gold.Chemscore.Rot.Weighted>
2.9366

> <Gold.Chemscore.Internal.Correction.Weighted>
   9.000000E+99

> <Gold.Protein.RotatedTorsions>
[ 6907 6896 6895 6894 ] final  113.07 input  -60.11 | X-H torsion
[ 7974 7965 7964 7962 ] final -141.72 input  175.53 | X-H torsion
[ 8008 7997 7996 7995 ] final  -79.55 input   59.86 | X-H torsion
[ 10167 10162 10161 10158 ] final  169.84 input  -65.29 | X-H torsion
[ 10718 10713 10712 10709 ] final  171.97 input   66.30 | X-H torsion
[ 10763 10752 10751 10750 ] final -173.69 input  -60.55 | X-H torsion
[ 11005 11000 10999 10996 ] final   22.44 input  -57.11 | X-H torsion

> <Gold.Protein.ActiveResidues>
 VAL166  LYS551  ARG553  GLY616  TRP617  ASP618  TYR619  PRO620  LYS621  CYS622 
 ASP623  PHE694  ASN695  SER759  ASP760  ASP761  ALA762  ILE779  LEU786  VAL792 
 PHE793  MET794  SER795  GLU796  ALA797  LYS798  CYS799  TRP800  GLU811  SER814 

> <Gold.Protein.RotatedAtoms>
  152.4881  133.8427  159.7160 H   0  0  0  0  0  0  0  0  0  0  0  0  # atno 6907 bound_to 6896
  150.8986  133.7139  159.2892 H   0  0  0  0  0  0  0  0  0  0  0  0  # atno 6908 bound_to 6896
  151.4588  135.1040  159.9771 H   0  0  0  0  0  0  0  0  0  0  0  0  # atno 6909 bound_to 6896
  144.8498  140.6046  143.5397 H   0  0  0  0  0  0  0  0  0  0  0  0  # atno 7974 bound_to 7965
  154.5796  140.0676  156.9085 H   0  0  0  0  0  0  0  0  0  0  0  0  # atno 8008 bound_to 7997
  155.2486  140.3350  155.4266 H   0  0  0  0  0  0  0  0  0  0  0  0  # atno 8009 bound_to 7997
  156.2179  140.1786  156.7530 H   0  0  0  0  0  0  0  0  0  0  0  0  # atno 8010 bound_to 7997
  139.5003  144.3662  151.9773 H   0  0  0  0  0  0  0  0  0  0  0  0  # atno 10167 bound_to 10162
  156.9858  131.0133  151.2869 H   0  0  0  0  0  0  0  0  0  0  0  0  # atno 10718 bound_to 10713
  154.6049  135.2858  155.0495 H   0  0  0  0  0  0  0  0  0  0  0  0  # atno 10763 bound_to 10752
  154.1746  135.6467  153.5022 H   0  0  0  0  0  0  0  0  0  0  0  0  # atno 10764 bound_to 10752
  153.0171  135.5409  154.6782 H   0  0  0  0  0  0  0  0  0  0  0  0  # atno 10765 bound_to 10752
  140.3806  134.1925  155.7664 H   0  0  0  0  0  0  0  0  0  0  0  0  # atno 11005 bound_to 11000
  145.4523  139.1522  143.3912 LP  0  0  0  0  0  0  0  0  0  0  0  0  # atno 17320 bound_to 7965
  146.2775  140.4649  142.8789 LP  0  0  0  0  0  0  0  0  0  0  0  0  # atno 17321 bound_to 7965
  140.3098  144.3551  150.6037 LP  0  0  0  0  0  0  0  0  0  0  0  0  # atno 17342 bound_to 10162
  140.5808  143.2173  151.7432 LP  0  0  0  0  0  0  0  0  0  0  0  0  # atno 17343 bound_to 10162
  157.5494  130.8172  149.8126 LP  0  0  0  0  0  0  0  0  0  0  0  0  # atno 17370 bound_to 10713
  156.0226  130.3790  150.1916 LP  0  0  0  0  0  0  0  0  0  0  0  0  # atno 17371 bound_to 10713
  141.1925  133.8172  157.0838 LP  0  0  0  0  0  0  0  0  0  0  0  0  # atno 17394 bound_to 11000
  140.0481  134.9819  157.1087 LP  0  0  0  0  0  0  0  0  0  0  0  0  # atno 17395 bound_to 11000

$$$$
