AV-unprocessed.smi:396|AV-procd|sdf|2487|dock10
  -GOLD-   2262022433D 1   1.00000     0.00000
 Structure written by MMmdl.
 40 42  0  0  0  0  0  0  0  0  1 V2000
  152.2893  137.0616  159.4464 N   0  0  0  0  0  0  0  0  0  0  0  0
  152.2325  138.2077  159.2952 C   0  0  0  0  0  0  0  0  0  0  0  0
  152.1929  139.6211  159.1155 C   0  0  0  0  0  0  0  0  0  0  0  0
  152.7855  140.4650  159.9850 C   0  0  0  0  0  0  0  0  0  0  0  0
  152.7673  141.8327  159.8193 N   0  0  0  0  0  0  0  0  0  0  0  0
  153.2867  142.7167  160.8243 C   0  0  0  0  0  0  0  0  0  0  0  0
  152.9537  142.4912  162.2865 C   0  0  0  0  0  0  0  0  0  0  0  0
  152.3366  143.6501  161.5429 C   0  0  0  0  0  0  0  0  0  0  0  0
  152.0386  142.4096  158.7564 C   0  0  0  0  0  0  0  0  0  0  0  0
  151.9426  143.6339  158.6386 O   0  0  0  0  0  0  0  0  0  0  0  0
  151.4203  141.5379  157.8272 N   0  0  0  0  0  0  0  0  0  0  0  0
  150.7133  142.1264  156.6684 C   0  0  0  0  0  0  0  0  0  0  0  0
  149.2717  141.6192  156.5110 C   0  0  0  0  0  0  0  0  0  0  0  0
  148.7927  140.8057  157.3029 O   0  0  0  0  0  0  0  0  0  0  0  0
  148.5852  142.1227  155.4745 N   0  0  0  0  0  0  0  0  0  0  0  0
  147.2044  141.7831  155.1412 C   0  0  0  0  0  0  0  0  0  0  0  0
  146.7838  142.4553  153.8216 C   0  0  0  0  0  0  0  0  0  0  0  0
  145.8026  143.5626  154.2075 C   0  0  0  0  0  0  0  0  0  0  0  0
  145.1096  143.0257  155.4557 C   0  0  0  0  0  0  0  0  0  0  0  0
  146.2153  142.2882  156.2127 C   0  0  0  0  0  0  0  0  0  0  0  0
  151.4777  140.1256  157.9455 C   0  0  0  0  0  0  0  0  0  0  0  0
  150.9522  139.3954  157.1034 O   0  0  0  0  0  0  0  0  0  0  0  0
  153.3029  140.0554  160.8406 H   0  0  0  0  0  0  0  0  0  0  0  0
  154.2785  143.1172  160.6215 H   0  0  0  0  0  0  0  0  0  0  0  0
  152.2981  141.6613  162.5439 H   0  0  0  0  0  0  0  0  0  0  0  0
  153.7286  142.7155  163.0164 H   0  0  0  0  0  0  0  0  0  0  0  0
  152.6983  144.6489  161.7783 H   0  0  0  0  0  0  0  0  0  0  0  0
  151.2756  143.5823  161.3097 H   0  0  0  0  0  0  0  0  0  0  0  0
  150.6886  143.2153  156.7325 H   0  0  0  0  0  0  0  0  0  0  0  0
  151.2558  141.9304  155.7420 H   0  0  0  0  0  0  0  0  0  0  0  0
  149.0506  142.7867  154.8727 H   0  0  0  0  0  0  0  0  0  0  0  0
  147.1174  140.7008  155.0274 H   0  0  0  0  0  0  0  0  0  0  0  0
  147.6247  142.8360  153.2402 H   0  0  0  0  0  0  0  0  0  0  0  0
  146.2689  141.7247  153.1959 H   0  0  0  0  0  0  0  0  0  0  0  0
  146.3518  144.4723  154.4545 H   0  0  0  0  0  0  0  0  0  0  0  0
  145.1022  143.8012  153.4067 H   0  0  0  0  0  0  0  0  0  0  0  0
  144.6455  143.8122  156.0514 H   0  0  0  0  0  0  0  0  0  0  0  0
  144.3287  142.3211  155.1666 H   0  0  0  0  0  0  0  0  0  0  0  0
  145.8196  141.4750  156.8218 H   0  0  0  0  0  0  0  0  0  0  0  0
  146.7064  142.9877  156.8915 H   0  0  0  0  0  0  0  0  0  0  0  0
  1  2  3  0  0  0  0
  2  3  1  0  0  0  0
  3 21  1  0  0  0  0
  3  4  2  0  0  0  0
  4  5  1  0  0  0  0
  4 23  1  0  0  0  0
  5  6  1  0  0  0  0
  5  9  1  0  0  0  0
  6  8  1  0  0  0  0
  6  7  1  0  0  0  0
  6 24  1  0  0  0  0
  7  8  1  0  0  0  0
  7 25  1  0  0  0  0
  7 26  1  0  0  0  0
  8 27  1  0  0  0  0
  8 28  1  0  0  0  0
  9 10  2  0  0  0  0
  9 11  1  0  0  0  0
 11 12  1  0  0  0  0
 11 21  1  0  0  0  0
 12 13  1  0  0  0  0
 12 29  1  0  0  0  0
 12 30  1  0  0  0  0
 13 14  2  0  0  0  0
 13 15  1  0  0  0  0
 15 16  1  0  0  0  0
 15 31  1  0  0  0  0
 16 20  1  0  0  0  0
 16 17  1  0  0  0  0
 16 32  1  0  0  0  0
 17 18  1  0  0  0  0
 17 33  1  0  0  0  0
 17 34  1  0  0  0  0
 18 19  1  0  0  0  0
 18 35  1  0  0  0  0
 18 36  1  0  0  0  0
 19 20  1  0  0  0  0
 19 37  1  0  0  0  0
 19 38  1  0  0  0  0
 20 39  1  0  0  0  0
 20 40  1  0  0  0  0
 21 22  2  0  0  0  0
M  END
> <s_m_source_file>
AV-unprocessed.smi

> <i_m_source_file_index>
396

> <i_lp_mmshare_version>
43012

> <i_f3d_flags>
0

> <s_epik_input>
TiNDYzFbY0hdbihbQ0hdMltDSDJdW0NIMl0yKWMoPU8pbihjMT1PKVtDSDJdQyg9TylbTkhdW0NIXTNbQ0gyXVtDSDJdW0NIMl1bQ0gyXTM=

> <s_epik_cmdline>
J2VwaWtfcHl0aG9uJywgJy1waCcsICc3LjAnLCAnLXRuJywgJzgnLCAnLW1hJywgJzIwMCcsICctbWV0YWxfYmluZGluZycsICctaW1hZScsICc8aW5maWxlLm1hZT4nLCAnLW9tYWUnLCAnPG91dGZpbGUubWFlPic=

> <r_lp_tautomer_probability>
1

> <r_epik_Ionization_Penalty>
1.93885e-08

> <r_epik_Ionization_Penalty_Charging>
8.67893e-11

> <r_epik_Ionization_Penalty_Neutral>
1.93017e-08

> <r_epik_State_Penalty>
-0

> <r_epik_Charging_Adjusted_Penalty>
8.67893e-11

> <i_epik_Tot_Q>
0

> <i_epik_Tot_abs_Q>
0

> <r_epik_Metal_State_Penalty>
-0

> <b_epik_Metal_Only>
0

> <s_lp_Force_Field>
OPLS_2005

> <r_lp_Energy>
43.3866

> <b_lp_Chiralities_Consistent>
1

> <s_lp_Variant>
AV-unprocessed.smi:396-1

> <Gold.Version>
5.8.1

> <Gold.Id.Protein>
6NUR|6NUR_protein|mol2

> <Gold.PLP.Fitness>
49.2015

> <Gold.PLP.PLP>
-46.2162

> <Gold.PLP.part.hbond>
-2.0000

> <Gold.PLP.part.metal>
0.0000

> <Gold.PLP.part.buried>
-8.6700

> <Gold.PLP.part.nonpolar>
-36.1284

> <Gold.PLP.part.repulsive>
0.1808

> <Gold.PLP.ligand.clash>
0.0000

> <Gold.PLP.ligand.torsion>
0.2162

> <Gold.PLP.Chemscore.Hbond>
1.0728

> <Gold.PLP.Chemscore.CHOScore>
0.0000

> <Gold.PLP.Chemscore.Metal>
0.0000

> <Gold.Chemscore.Hbonds>
donor molecule, donor type, donor heavy atom, donor atom, acceptor molecule, acceptor atom, score
      L1  H    15    31       P1  8028  0.20
      P1  H  6896  6908       L1     1  0.91

> <Gold.PLP.Chemscore.Internal.Correction>
0.1992

> <Gold.Rescore>
     Score         DG    S(hbond)    S(metal)    S(lipo)     H(rot)  DE(clash)    DE(int)     intcor
     11.37     -13.84       0.98        0.00      81.96       1.76       0.00       2.47       ----

> <Gold.Chemscore.Fitness>
11.3661

> <Gold.Chemscore.DG>
-13.8355

> <Gold.Chemscore.ZeroCoef>
-5.4800

> <Gold.Chemscore.Hbond>
0.9818

> <Gold.Chemscore.Metal>
0.0000

> <Gold.Chemscore.Lipo>
81.9551

> <Gold.Chemscore.Internal_Hbond>
0.0000

> <Gold.Chemscore.DEClash>
0.0000

> <Gold.Chemscore.DEInternal>
2.4694

> <Gold.Chemscore.Rot>
1.7627

> <Gold.Chemscore.Internal.Correction>
   9.000000E+99

> <Gold.Chemscore.Hbonds>
donor molecule, donor type, donor heavy atom, donor atom, acceptor molecule, acceptor atom, score
      L1  H    15    31       P1  8028  0.19
      P1  H  6896  6908       L1     1  0.87

> <Gold.Chemscore.Hbond.Weighted>
-3.2793

> <Gold.Chemscore.Metal.Weighted>
-0.0000

> <Gold.Chemscore.Lipo.Weighted>
-9.5887

> <Gold.Chemscore.Internal_Hbond.Weighted>
0.0000

> <Gold.Chemscore.DEClash.Weighted>
0.0000

> <Gold.Chemscore.DEInternal.Weighted>
2.4694

> <Gold.Chemscore.Rot.Weighted>
4.5126

> <Gold.Chemscore.Internal.Correction.Weighted>
   9.000000E+99

> <Gold.Protein.RotatedTorsions>
[ 6907 6896 6895 6894 ] final -105.10 input  -60.11 | X-H torsion
[ 7974 7965 7964 7962 ] final  -29.70 input  175.53 | X-H torsion
[ 8008 7997 7996 7995 ] final -107.16 input   59.86 | X-H torsion
[ 10167 10162 10161 10158 ] final -108.60 input  -65.29 | X-H torsion
[ 10718 10713 10712 10709 ] final -157.36 input   66.30 | X-H torsion
[ 10763 10752 10751 10750 ] final  145.96 input  -60.55 | X-H torsion
[ 11005 11000 10999 10996 ] final   66.20 input  -57.11 | X-H torsion

> <Gold.Protein.ActiveResidues>
 VAL166  LYS551  ARG553  GLY616  TRP617  ASP618  TYR619  PRO620  LYS621  CYS622 
 ASP623  PHE694  ASN695  SER759  ASP760  ASP761  ALA762  ILE779  LEU786  VAL792 
 PHE793  MET794  SER795  GLU796  ALA797  LYS798  CYS799  TRP800  GLU811  SER814 

> <Gold.Protein.RotatedAtoms>
  150.7320  134.0177  159.3690 H   0  0  0  0  0  0  0  0  0  0  0  0  # atno 6907 bound_to 6896
  151.8140  135.0670  160.0426 H   0  0  0  0  0  0  0  0  0  0  0  0  # atno 6908 bound_to 6896
  152.3052  133.5659  159.5680 H   0  0  0  0  0  0  0  0  0  0  0  0  # atno 6909 bound_to 6896
  146.1197  140.5445  142.8741 H   0  0  0  0  0  0  0  0  0  0  0  0  # atno 7974 bound_to 7965
  154.9252  140.0406  157.2019 H   0  0  0  0  0  0  0  0  0  0  0  0  # atno 8008 bound_to 7997
  154.8215  140.2884  155.5762 H   0  0  0  0  0  0  0  0  0  0  0  0  # atno 8009 bound_to 7997
  156.2980  140.2518  156.3122 H   0  0  0  0  0  0  0  0  0  0  0  0  # atno 8010 bound_to 7997
  140.1643  143.4094  152.1402 H   0  0  0  0  0  0  0  0  0  0  0  0  # atno 10167 bound_to 10162
  156.5392  130.8555  151.2743 H   0  0  0  0  0  0  0  0  0  0  0  0  # atno 10718 bound_to 10713
  154.0141  135.2912  155.3389 H   0  0  0  0  0  0  0  0  0  0  0  0  # atno 10763 bound_to 10752
  154.7086  135.5159  153.8635 H   0  0  0  0  0  0  0  0  0  0  0  0  # atno 10764 bound_to 10752
  153.0710  135.6647  154.0369 H   0  0  0  0  0  0  0  0  0  0  0  0  # atno 10765 bound_to 10752
  139.9846  134.6688  156.0199 H   0  0  0  0  0  0  0  0  0  0  0  0  # atno 11005 bound_to 11000
  144.7586  140.5367  143.6751 LP  0  0  0  0  0  0  0  0  0  0  0  0  # atno 17320 bound_to 7965
  145.5491  139.1476  143.3404 LP  0  0  0  0  0  0  0  0  0  0  0  0  # atno 17321 bound_to 7965
  139.5366  144.7216  151.4871 LP  0  0  0  0  0  0  0  0  0  0  0  0  # atno 17342 bound_to 10162
  140.6623  143.8473  150.6901 LP  0  0  0  0  0  0  0  0  0  0  0  0  # atno 17343 bound_to 10162
  157.7408  130.9858  150.2403 LP  0  0  0  0  0  0  0  0  0  0  0  0  # atno 17370 bound_to 10713
  156.2987  130.3755  149.7771 LP  0  0  0  0  0  0  0  0  0  0  0  0  # atno 17371 bound_to 10713
  141.1513  133.6548  156.4023 LP  0  0  0  0  0  0  0  0  0  0  0  0  # atno 17394 bound_to 11000
  140.5027  134.6470  157.5255 LP  0  0  0  0  0  0  0  0  0  0  0  0  # atno 17395 bound_to 11000

$$$$
