AV-unprocessed.smi:241|AV-procd|sdf|1841|dock2
  -GOLD-   2262020453D 1   1.00000     0.00000
 Structure written by MMmdl.
 54 57  0  0  0  0  0  0  0  0  1 V2000
  145.4222  131.8245  160.9978 C   0  0  0  0  0  0  0  0  0  0  0  0
  146.6822  131.8110  161.6447 O   0  0  0  0  0  0  0  0  0  0  0  0
  147.6568  132.5779  160.9580 C   0  0  0  0  0  0  0  0  0  0  0  0
  147.1085  133.9792  160.6280 C   0  0  1  0  0  0  0  0  0  0  0  0
  147.0164  134.8732  161.8671 C   0  0  0  0  0  0  0  0  0  0  0  0
  147.0234  136.2787  161.2667 C   0  0  1  0  0  0  0  0  0  0  0  0
  147.4750  137.2787  162.1681 O   0  0  0  0  0  0  0  0  0  0  0  0
  146.9101  137.1693  163.4647 C   0  0  0  0  0  0  0  0  0  0  0  0
  147.9878  136.1374  160.0862 C   0  0  0  0  0  0  0  0  0  0  0  0
  147.9684  134.7276  159.7100 N   0  0  0  0  0  0  0  0  0  0  0  0
  147.9758  134.4752  158.3764 C   0  0  0  0  0  0  0  0  0  0  0  0
  149.0838  133.9597  157.7817 N   0  0  0  0  0  0  0  0  0  0  0  0
  149.0893  133.6991  156.4715 C   0  0  0  0  0  0  0  0  0  0  0  0
  148.1078  133.8675  155.5838 N   0  0  0  0  0  0  0  0  0  0  0  0
  146.9899  134.3785  156.1745 C   0  0  0  0  0  0  0  0  0  0  0  0
  146.8416  134.7130  157.5502 C   0  0  0  0  0  0  0  0  0  0  0  0
  145.5709  135.2286  157.7773 N   0  0  0  0  0  0  0  0  0  0  0  0
  145.0011  135.1996  156.6036 C   0  0  0  0  0  0  0  0  0  0  0  0
  145.7712  134.6747  155.5902 N   0  0  0  0  0  0  0  0  0  0  0  0
  145.4096  134.5542  154.2089 C   0  0  0  0  0  0  0  0  0  0  0  0
  145.6195  133.2453  153.4451 C   0  0  0  0  0  0  0  0  0  0  0  0
  145.9007  134.0497  152.1556 C   0  0  0  0  0  0  0  0  0  0  0  0
  147.0714  133.5570  151.2874 C   0  0  0  0  0  0  0  0  0  0  0  0
  146.7780  132.3220  150.6685 O   0  0  0  0  0  0  0  0  0  0  0  0
  144.6857  134.3453  151.2518 C   0  0  0  0  0  0  0  0  0  0  0  0
  144.9816  135.3009  150.2538 O   0  0  0  0  0  0  0  0  0  0  0  0
  146.2592  135.2056  153.1155 C   0  0  0  0  0  0  0  0  0  0  0  0
  146.1056  133.8930  160.2070 H   0  0  0  0  0  0  0  0  0  0  0  0
  146.0312  136.5219  160.8818 H   0  0  0  0  0  0  0  0  0  0  0  0
  144.7132  131.2219  161.5650 H   0  0  0  0  0  0  0  0  0  0  0  0
  145.4898  131.4075  159.9922 H   0  0  0  0  0  0  0  0  0  0  0  0
  145.0244  132.8382  160.9315 H   0  0  0  0  0  0  0  0  0  0  0  0
  148.5328  132.6745  161.6017 H   0  0  0  0  0  0  0  0  0  0  0  0
  147.9802  132.0707  160.0471 H   0  0  0  0  0  0  0  0  0  0  0  0
  146.1309  134.6688  162.4696 H   0  0  0  0  0  0  0  0  0  0  0  0
  147.8958  134.7372  162.4989 H   0  0  0  0  0  0  0  0  0  0  0  0
  147.2757  137.9832  164.0907 H   0  0  0  0  0  0  0  0  0  0  0  0
  147.1868  136.2303  163.9447 H   0  0  0  0  0  0  0  0  0  0  0  0
  145.8221  137.2374  163.4285 H   0  0  0  0  0  0  0  0  0  0  0  0
  147.7062  136.8007  159.2669 H   0  0  0  0  0  0  0  0  0  0  0  0
  149.0041  136.3922  160.3891 H   0  0  0  0  0  0  0  0  0  0  0  0
  150.0106  133.2945  156.0795 H   0  0  0  0  0  0  0  0  0  0  0  0
  143.9932  135.5559  156.4475 H   0  0  0  0  0  0  0  0  0  0  0  0
  144.3704  134.8800  154.1388 H   0  0  0  0  0  0  0  0  0  0  0  0
  146.4931  132.6916  153.7946 H   0  0  0  0  0  0  0  0  0  0  0  0
  144.7408  132.6008  153.4056 H   0  0  0  0  0  0  0  0  0  0  0  0
  147.3308  134.2859  150.5194 H   0  0  0  0  0  0  0  0  0  0  0  0
  147.9692  133.4136  151.8891 H   0  0  0  0  0  0  0  0  0  0  0  0
  147.5872  131.8453  150.5586 H   0  0  0  0  0  0  0  0  0  0  0  0
  144.3425  133.4420  150.7474 H   0  0  0  0  0  0  0  0  0  0  0  0
  143.8387  134.7030  151.8381 H   0  0  0  0  0  0  0  0  0  0  0  0
  145.2696  134.8448  149.4776 H   0  0  0  0  0  0  0  0  0  0  0  0
  145.9105  136.1900  152.8018 H   0  0  0  0  0  0  0  0  0  0  0  0
  147.3178  135.2360  153.3803 H   0  0  0  0  0  0  0  0  0  0  0  0
  1  2  1  0  0  0  0
  1 30  1  0  0  0  0
  1 31  1  0  0  0  0
  1 32  1  0  0  0  0
  2  3  1  0  0  0  0
  3  4  1  0  0  0  0
  3 33  1  0  0  0  0
  3 34  1  0  0  0  0
  4 28  1  0  0  0  0
  4 10  1  0  0  0  0
  4  5  1  0  0  0  0
  5  6  1  0  0  0  0
  5 35  1  0  0  0  0
  5 36  1  0  0  0  0
  6 29  1  0  0  0  0
  6  7  1  0  0  0  0
  6  9  1  0  0  0  0
  7  8  1  0  0  0  0
  8 37  1  0  0  0  0
  8 38  1  0  0  0  0
  8 39  1  0  0  0  0
  9 10  1  0  0  0  0
  9 40  1  0  0  0  0
  9 41  1  0  0  0  0
 10 11  1  0  0  0  0
 11 16  1  0  0  0  0
 11 12  2  0  0  0  0
 12 13  1  0  0  0  0
 13 14  2  0  0  0  0
 13 42  1  0  0  0  0
 14 15  1  0  0  0  0
 15 19  1  0  0  0  0
 15 16  2  0  0  0  0
 16 17  1  0  0  0  0
 17 18  2  0  0  0  0
 18 19  1  0  0  0  0
 18 43  1  0  0  0  0
 19 20  1  0  0  0  0
 20 27  1  0  0  0  0
 20 21  1  0  0  0  0
 20 44  1  0  0  0  0
 21 22  1  0  0  0  0
 21 45  1  0  0  0  0
 21 46  1  0  0  0  0
 22 23  1  0  0  0  0
 22 25  1  0  0  0  0
 22 27  1  0  0  0  0
 23 24  1  0  0  0  0
 23 47  1  0  0  0  0
 23 48  1  0  0  0  0
 24 49  1  0  0  0  0
 25 26  1  0  0  0  0
 25 50  1  0  0  0  0
 25 51  1  0  0  0  0
 26 52  1  0  0  0  0
 27 53  1  0  0  0  0
 27 54  1  0  0  0  0
M  END
> <s_m_source_file>
AV-unprocessed.smi

> <i_m_source_file_index>
241

> <i_lp_mmshare_version>
43012

> <i_f3d_flags>
0

> <s_epik_input>
W0NIM11PW0NIMl1bQ0BASF0xW0NIMl1bQ0BASF0oT1tDSDNdKVtDSDJdTjFjKG5bY0hdbjIpYyhjMjMpbltjSF1uM1tDSF0oW0NIMl00KVtDSDJdQzQoW0NIMl1bT0hdKVtDSDJdW09IXQ==

> <s_epik_cmdline>
J2VwaWtfcHl0aG9uJywgJy1waCcsICc3LjAnLCAnLXRuJywgJzgnLCAnLW1hJywgJzIwMCcsICctbWV0YWxfYmluZGluZycsICctaW1hZScsICc8aW5maWxlLm1hZT4nLCAnLW9tYWUnLCAnPG91dGZpbGUubWFlPic=

> <r_lp_tautomer_probability>
1

> <r_epik_Ionization_Penalty>
0.00568677

> <r_epik_Ionization_Penalty_Charging>
0

> <r_epik_Ionization_Penalty_Neutral>
0.00568677

> <r_epik_State_Penalty>
0.00400877

> <r_epik_Charging_Adjusted_Penalty>
0.00400877

> <i_epik_Tot_Q>
0

> <i_epik_Tot_abs_Q>
0

> <r_epik_Metal_State_Penalty>
-0

> <b_epik_Metal_Only>
0

> <s_lp_Force_Field>
OPLS_2005

> <r_lp_Energy>
53.235

> <b_lp_Chiralities_Consistent>
1

> <s_lp_Variant>
AV-unprocessed.smi:241-2

> <Gold.Version>
5.8.1

> <Gold.Id.Protein>
6NUR|6NUR_protein|mol2

> <Gold.PLP.Fitness>
40.4239

> <Gold.PLP.PLP>
-29.5128

> <Gold.PLP.part.hbond>
-4.1962

> <Gold.PLP.part.metal>
0.0000

> <Gold.PLP.part.buried>
-4.4030

> <Gold.PLP.part.nonpolar>
-19.6269

> <Gold.PLP.part.repulsive>
0.0537

> <Gold.PLP.ligand.clash>
0.0000

> <Gold.PLP.ligand.torsion>
0.6659

> <Gold.PLP.Chemscore.Hbond>
3.7915

> <Gold.PLP.Chemscore.CHOScore>
0.0000

> <Gold.PLP.Chemscore.Metal>
0.0000

> <Gold.Chemscore.Hbonds>
donor molecule, donor type, donor heavy atom, donor atom, acceptor molecule, acceptor atom, score
      L1  H    24    49       P1 10747  1.00
      L1  H    26    52       P1  7921  0.99
      P1  H  6896  6907       L1    12  0.52
      P1  H  6931  6943       L1     7  0.85
      P1  H  6934  6947       L1     7  0.43

> <Gold.PLP.Chemscore.Internal.Correction>
0.8682

> <Gold.Rescore>
     Score         DG    S(hbond)    S(metal)    S(lipo)     H(rot)  DE(clash)    DE(int)     intcor
     12.54     -13.53       3.07        0.00      67.96       3.97       0.35       0.64       ----

> <Gold.Chemscore.Fitness>
12.5398

> <Gold.Chemscore.DG>
-13.5291

> <Gold.Chemscore.ZeroCoef>
-5.4800

> <Gold.Chemscore.Hbond>
3.0744

> <Gold.Chemscore.Metal>
0.0000

> <Gold.Chemscore.Lipo>
67.9565

> <Gold.Chemscore.Internal_Hbond>
0.0000

> <Gold.Chemscore.DEClash>
0.3535

> <Gold.Chemscore.DEInternal>
0.6357

> <Gold.Chemscore.Rot>
3.9727

> <Gold.Chemscore.Internal.Correction>
   9.000000E+99

> <Gold.Chemscore.Hbonds>
donor molecule, donor type, donor heavy atom, donor atom, acceptor molecule, acceptor atom, score
      L1  H    24    49       P1 10747  1.00
      L1  H    26    52       P1  7921  0.88
      P1  H  6896  6907       L1    12  0.31
      P1  H  6931  6943       L1     7  0.82
      P1  H  6934  6947       L1     7  0.11

> <Gold.Chemscore.Hbond.Weighted>
-10.2684

> <Gold.Chemscore.Metal.Weighted>
-0.0000

> <Gold.Chemscore.Lipo.Weighted>
-7.9509

> <Gold.Chemscore.Internal_Hbond.Weighted>
0.0000

> <Gold.Chemscore.DEClash.Weighted>
0.3535

> <Gold.Chemscore.DEInternal.Weighted>
0.6357

> <Gold.Chemscore.Rot.Weighted>
10.1702

> <Gold.Chemscore.Internal.Correction.Weighted>
   9.000000E+99

> <Gold.Protein.RotatedTorsions>
[ 6907 6896 6895 6894 ] final -107.37 input  -60.11 | X-H torsion
[ 7974 7965 7964 7962 ] final   12.69 input  175.53 | X-H torsion
[ 8008 7997 7996 7995 ] final   13.82 input   59.86 | X-H torsion
[ 10167 10162 10161 10158 ] final  -24.69 input  -65.29 | X-H torsion
[ 10718 10713 10712 10709 ] final -154.74 input   66.30 | X-H torsion
[ 10763 10752 10751 10750 ] final  -94.18 input  -60.55 | X-H torsion
[ 11005 11000 10999 10996 ] final  143.74 input  -57.11 | X-H torsion

> <Gold.Protein.ActiveResidues>
 VAL166  LYS551  ARG553  GLY616  TRP617  ASP618  TYR619  PRO620  LYS621  CYS622 
 ASP623  PHE694  ASN695  SER759  ASP760  ASP761  ALA762  ILE779  LEU786  VAL792 
 PHE793  MET794  SER795  GLU796  ALA797  LYS798  CYS799  TRP800  GLU811  SER814 

> <Gold.Protein.RotatedAtoms>
  150.7441  133.9836  159.3583 H   0  0  0  0  0  0  0  0  0  0  0  0  # atno 6907 bound_to 6896
  151.7779  135.0767  160.0379 H   0  0  0  0  0  0  0  0  0  0  0  0  # atno 6908 bound_to 6896
  152.3294  133.5905  159.5835 H   0  0  0  0  0  0  0  0  0  0  0  0  # atno 6909 bound_to 6896
  146.2346  139.9300  142.8498 H   0  0  0  0  0  0  0  0  0  0  0  0  # atno 7974 bound_to 7965
  154.8398  140.2913  155.5667 H   0  0  0  0  0  0  0  0  0  0  0  0  # atno 8008 bound_to 7997
  156.3011  140.2516  156.3270 H   0  0  0  0  0  0  0  0  0  0  0  0  # atno 8009 bound_to 7997
  154.9138  140.0388  157.1950 H   0  0  0  0  0  0  0  0  0  0  0  0  # atno 8010 bound_to 7997
  140.7288  143.4330  151.0772 H   0  0  0  0  0  0  0  0  0  0  0  0  # atno 10167 bound_to 10162
  156.5033  130.8401  151.2618 H   0  0  0  0  0  0  0  0  0  0  0  0  # atno 10718 bound_to 10713
  154.7030  135.5167  153.8555 H   0  0  0  0  0  0  0  0  0  0  0  0  # atno 10763 bound_to 10752
  153.0719  135.6604  154.0238 H   0  0  0  0  0  0  0  0  0  0  0  0  # atno 10764 bound_to 10752
  154.0093  135.3003  155.3373 H   0  0  0  0  0  0  0  0  0  0  0  0  # atno 10765 bound_to 10752
  140.0577  134.9221  157.1130 H   0  0  0  0  0  0  0  0  0  0  0  0  # atno 11005 bound_to 11000
  145.2054  140.9872  143.4131 LP  0  0  0  0  0  0  0  0  0  0  0  0  # atno 17320 bound_to 7965
  144.9737  139.3853  143.6296 LP  0  0  0  0  0  0  0  0  0  0  0  0  # atno 17321 bound_to 7965
  139.7989  143.8112  152.3161 LP  0  0  0  0  0  0  0  0  0  0  0  0  # atno 17342 bound_to 10162
  139.8121  144.7331  150.9683 LP  0  0  0  0  0  0  0  0  0  0  0  0  # atno 17343 bound_to 10162
  157.7460  130.9974  150.2815 LP  0  0  0  0  0  0  0  0  0  0  0  0  # atno 17370 bound_to 10713
  156.3311  130.3800  149.7490 LP  0  0  0  0  0  0  0  0  0  0  0  0  # atno 17371 bound_to 10713
  140.3818  134.2279  155.7170 LP  0  0  0  0  0  0  0  0  0  0  0  0  # atno 17394 bound_to 11000
  141.1959  133.8094  157.0693 LP  0  0  0  0  0  0  0  0  0  0  0  0  # atno 17395 bound_to 11000

$$$$
