AV-unprocessed.smi:1521|AV-procd|sdf|6130|dock7
  -GOLD-   22720 6273D 1   1.00000     0.00000
 Structure written by MMmdl.
 36 37  0  0  0  0  0  0  0  0  1 V2000
  147.0001  133.5613  154.6556 O   0  0  0  0  0  0  0  0  0  0  0  0
  146.6149  134.6923  154.9519 C   0  0  0  0  0  0  0  0  0  0  0  0
  146.8367  135.2550  156.1478 N   0  0  0  0  0  0  0  0  0  0  0  0
  147.5611  134.6300  157.2493 C   0  0  0  0  0  0  0  0  0  0  0  0
  147.1723  135.2448  158.6046 C   0  0  2  0  0  0  0  0  0  0  0  0
  147.7181  136.6777  158.7656 C   0  0  0  0  0  0  0  0  0  0  0  0
  147.3684  137.1725  160.0519 O   0  0  0  0  0  0  0  0  0  0  0  0
  147.9120  136.3603  161.0836 C   0  0  0  0  0  0  0  0  0  0  0  0
  147.3743  134.9281  160.9296 C   0  0  0  0  0  0  0  0  0  0  0  0
  147.7245  134.4396  159.6415 O   0  0  0  0  0  0  0  0  0  0  0  0
  145.9461  135.5336  154.1421 N   0  0  0  0  0  0  0  0  0  0  0  0
  145.4872  135.3229  152.8312 C   0  0  0  0  0  0  0  0  0  0  0  0
  145.3595  134.1050  152.2425 C   0  0  0  0  0  0  0  0  0  0  0  0
  144.8599  133.9526  150.8861 C   0  0  0  0  0  0  0  0  0  0  0  0
  144.7959  132.5925  150.2085 C   0  0  0  0  0  0  0  0  0  0  0  0
  144.0049  132.6235  149.1354 F   0  0  0  0  0  0  0  0  0  0  0  0
  146.0079  132.1917  149.8237 F   0  0  0  0  0  0  0  0  0  0  0  0
  144.3095  131.6872  151.0565 F   0  0  0  0  0  0  0  0  0  0  0  0
  144.5371  135.0852  150.2349 C   0  0  0  0  0  0  0  0  0  0  0  0
  144.6445  136.3392  150.8406 N   0  0  0  0  0  0  0  0  0  0  0  0
  145.0951  136.5389  152.0995 C   0  0  0  0  0  0  0  0  0  0  0  0
  145.1583  137.6770  152.5631 O   0  0  0  0  0  0  0  0  0  0  0  0
  144.3665  137.1397  150.2915 H   0  0  0  0  0  0  0  0  0  0  0  0
  146.4934  136.1914  156.3047 H   0  0  0  0  0  0  0  0  0  0  0  0
  147.3382  133.5629  157.2447 H   0  0  0  0  0  0  0  0  0  0  0  0
  148.6362  134.7207  157.0856 H   0  0  0  0  0  0  0  0  0  0  0  0
  146.0848  135.2620  158.6961 H   0  0  0  0  0  0  0  0  0  0  0  0
  148.8015  136.7026  158.6364 H   0  0  0  0  0  0  0  0  0  0  0  0
  147.2904  137.3352  158.0084 H   0  0  0  0  0  0  0  0  0  0  0  0
  149.0019  136.3734  161.0386 H   0  0  0  0  0  0  0  0  0  0  0  0
  147.6248  136.7721  162.0512 H   0  0  0  0  0  0  0  0  0  0  0  0
  147.8079  134.2765  161.6881 H   0  0  0  0  0  0  0  0  0  0  0  0
  146.2918  134.9015  161.0629 H   0  0  0  0  0  0  0  0  0  0  0  0
  145.7754  136.4615  154.5022 H   0  0  0  0  0  0  0  0  0  0  0  0
  145.6046  133.2030  152.7793 H   0  0  0  0  0  0  0  0  0  0  0  0
  144.1819  135.1205  149.2154 H   0  0  0  0  0  0  0  0  0  0  0  0
  1  2  2  0  0  0  0
  2  3  1  0  0  0  0
  2 11  1  0  0  0  0
  3  4  1  0  0  0  0
  3 24  1  0  0  0  0
  4  5  1  0  0  0  0
  4 25  1  0  0  0  0
  4 26  1  0  0  0  0
  5 10  1  0  0  0  0
  5  6  1  0  0  0  0
  5 27  1  0  0  0  0
  6  7  1  0  0  0  0
  6 28  1  0  0  0  0
  6 29  1  0  0  0  0
  7  8  1  0  0  0  0
  8  9  1  0  0  0  0
  8 30  1  0  0  0  0
  8 31  1  0  0  0  0
  9 10  1  0  0  0  0
  9 32  1  0  0  0  0
  9 33  1  0  0  0  0
 11 12  1  0  0  0  0
 11 34  1  0  0  0  0
 12 21  1  0  0  0  0
 12 13  2  0  0  0  0
 13 14  1  0  0  0  0
 13 35  1  0  0  0  0
 14 15  1  0  0  0  0
 14 19  2  0  0  0  0
 15 16  1  0  0  0  0
 15 17  1  0  0  0  0
 15 18  1  0  0  0  0
 19 20  1  0  0  0  0
 19 36  1  0  0  0  0
 20 23  1  0  0  0  0
 20 21  1  0  0  0  0
 21 22  2  0  0  0  0
M  END
> <s_m_source_file>
AV-unprocessed.smi

> <i_m_source_file_index>
1521

> <i_lp_mmshare_version>
43012

> <i_f3d_flags>
0

> <s_epik_input>
Tz1jMVtuSF1bY0hdYyhDKEYpKEYpRilbY0hdYzFbTkhdQyg9TylbTkhdW0NIMl1bQ0BASF0yW0NIMl1PW0NIMl1bQ0gyXU8y

> <s_epik_cmdline>
J2VwaWtfcHl0aG9uJywgJy1waCcsICc3LjAnLCAnLXRuJywgJzgnLCAnLW1hJywgJzIwMCcsICctbWV0YWxfYmluZGluZycsICctaW1hZScsICc8aW5maWxlLm1hZT4nLCAnLW9tYWUnLCAnPG91dGZpbGUubWFlPic=

> <r_lp_tautomer_probability>
1

> <r_epik_Ionization_Penalty>
0.00396636

> <r_epik_Ionization_Penalty_Charging>
0.00394789

> <r_epik_Ionization_Penalty_Neutral>
1.84676e-05

> <r_epik_State_Penalty>
-0

> <r_epik_Charging_Adjusted_Penalty>
0.00394789

> <i_epik_Tot_Q>
0

> <i_epik_Tot_abs_Q>
0

> <r_epik_Metal_State_Penalty>
0.372669

> <b_epik_Metal_Only>
0

> <s_lp_Force_Field>
OPLS_2005

> <r_lp_Energy>
18.8562

> <b_lp_Chiralities_Consistent>
1

> <s_lp_Variant>
AV-unprocessed.smi:1521-1

> <Gold.Version>
5.8.1

> <Gold.Id.Protein>
6NUR|6NUR_protein|mol2

> <Gold.PLP.Fitness>
35.9691

> <Gold.PLP.PLP>
-30.1774

> <Gold.PLP.part.hbond>
-2.0000

> <Gold.PLP.part.metal>
0.0000

> <Gold.PLP.part.buried>
-5.2883

> <Gold.PLP.part.nonpolar>
-24.3723

> <Gold.PLP.part.repulsive>
0.3505

> <Gold.PLP.ligand.clash>
0.0657

> <Gold.PLP.ligand.torsion>
1.0044

> <Gold.PLP.Chemscore.Hbond>
1.9913

> <Gold.PLP.Chemscore.CHOScore>
0.6105

> <Gold.PLP.Chemscore.Metal>
0.0000

> <Gold.Chemscore.Hbonds>
donor molecule, donor type, donor heavy atom, donor atom, acceptor molecule, acceptor atom, score
      L1  H    20    23       P1 10171  1.00
      P1  H  6934  6947       L1     7  0.96
      L1  C    19    36       P1  7921  0.60

> <Gold.PLP.Chemscore.Internal.Correction>
0.0611

> <Gold.Rescore>
     Score         DG    S(hbond)    S(metal)    S(lipo)     H(rot)  DE(clash)    DE(int)     intcor
     12.30     -13.95       1.94        0.00      47.20       1.37       0.01       1.64       ----

> <Gold.Chemscore.Fitness>
12.2974

> <Gold.Chemscore.DG>
-13.9515

> <Gold.Chemscore.ZeroCoef>
-5.4800

> <Gold.Chemscore.Hbond>
1.9357

> <Gold.Chemscore.Metal>
0.0000

> <Gold.Chemscore.Lipo>
47.2014

> <Gold.Chemscore.Internal_Hbond>
0.0000

> <Gold.Chemscore.DEClash>
0.0133

> <Gold.Chemscore.DEInternal>
1.6407

> <Gold.Chemscore.Rot>
1.3735

> <Gold.Chemscore.Internal.Correction>
   9.000000E+99

> <Gold.Chemscore.Hbonds>
donor molecule, donor type, donor heavy atom, donor atom, acceptor molecule, acceptor atom, score
      L1  H    20    23       P1 10171  0.98
      P1  H  6934  6947       L1     7  0.38

> <Gold.Chemscore.Hbond.Weighted>
-6.4651

> <Gold.Chemscore.Metal.Weighted>
-0.0000

> <Gold.Chemscore.Lipo.Weighted>
-5.5226

> <Gold.Chemscore.Internal_Hbond.Weighted>
0.0000

> <Gold.Chemscore.DEClash.Weighted>
0.0133

> <Gold.Chemscore.DEInternal.Weighted>
1.6407

> <Gold.Chemscore.Rot.Weighted>
3.5162

> <Gold.Chemscore.Internal.Correction.Weighted>
   9.000000E+99

> <Gold.Protein.RotatedTorsions>
[ 6907 6896 6895 6894 ] final  -85.71 input  -60.11 | X-H torsion
[ 7974 7965 7964 7962 ] final -170.79 input  175.53 | X-H torsion
[ 8008 7997 7996 7995 ] final  -59.73 input   59.86 | X-H torsion
[ 10167 10162 10161 10158 ] final -121.04 input  -65.29 | X-H torsion
[ 10718 10713 10712 10709 ] final  -38.57 input   66.30 | X-H torsion
[ 10763 10752 10751 10750 ] final   21.41 input  -60.55 | X-H torsion
[ 11005 11000 10999 10996 ] final -115.52 input  -57.11 | X-H torsion

> <Gold.Protein.ActiveResidues>
 VAL166  LYS551  ARG553  GLY616  TRP617  ASP618  TYR619  PRO620  LYS621  CYS622 
 ASP623  PHE694  ASN695  SER759  ASP760  ASP761  ALA762  ILE779  LEU786  VAL792 
 PHE793  MET794  SER795  GLU796  ALA797  LYS798  CYS799  TRP800  GLU811  SER814 

> <Gold.Protein.RotatedAtoms>
  150.6869  134.3162  159.4766 H   0  0  0  0  0  0  0  0  0  0  0  0  # atno 6907 bound_to 6896
  152.1043  134.9317  160.0578 H   0  0  0  0  0  0  0  0  0  0  0  0  # atno 6908 bound_to 6896
  152.0584  133.4016  159.4444 H   0  0  0  0  0  0  0  0  0  0  0  0  # atno 6909 bound_to 6896
  144.7165  140.2020  143.6337 H   0  0  0  0  0  0  0  0  0  0  0  0  # atno 7974 bound_to 7965
  154.4365  140.1055  156.6161 H   0  0  0  0  0  0  0  0  0  0  0  0  # atno 8008 bound_to 7997
  155.5757  140.3490  155.4508 H   0  0  0  0  0  0  0  0  0  0  0  0  # atno 8009 bound_to 7997
  156.0356  140.1270  157.0200 H   0  0  0  0  0  0  0  0  0  0  0  0  # atno 8010 bound_to 7997
  140.0293  143.5264  152.2184 H   0  0  0  0  0  0  0  0  0  0  0  0  # atno 10167 bound_to 10162
  156.3023  130.4241  149.8131 H   0  0  0  0  0  0  0  0  0  0  0  0  # atno 10718 bound_to 10713
  153.0997  135.6669  153.9695 H   0  0  0  0  0  0  0  0  0  0  0  0  # atno 10763 bound_to 10752
  153.9269  135.3008  155.3448 H   0  0  0  0  0  0  0  0  0  0  0  0  # atno 10764 bound_to 10752
  154.7418  135.5076  153.9210 H   0  0  0  0  0  0  0  0  0  0  0  0  # atno 10765 bound_to 10752
  141.0482  133.9729  157.2882 H   0  0  0  0  0  0  0  0  0  0  0  0  # atno 11005 bound_to 11000
  145.8671  139.2253  143.1682 LP  0  0  0  0  0  0  0  0  0  0  0  0  # atno 17320 bound_to 7965
  146.0119  140.8427  142.9966 LP  0  0  0  0  0  0  0  0  0  0  0  0  # atno 17321 bound_to 7965
  139.6086  144.7603  151.3003 LP  0  0  0  0  0  0  0  0  0  0  0  0  # atno 17342 bound_to 10162
  140.7309  143.6867  150.7955 LP  0  0  0  0  0  0  0  0  0  0  0  0  # atno 17343 bound_to 10162
  156.5505  130.8339  151.3298 LP  0  0  0  0  0  0  0  0  0  0  0  0  # atno 17370 bound_to 10713
  157.7371  130.9790  150.2173 LP  0  0  0  0  0  0  0  0  0  0  0  0  # atno 17371 bound_to 10713
  139.9329  135.0199  156.8459 LP  0  0  0  0  0  0  0  0  0  0  0  0  # atno 17394 bound_to 11000
  140.6106  134.0086  155.7575 LP  0  0  0  0  0  0  0  0  0  0  0  0  # atno 17395 bound_to 11000

$$$$
