AV-unprocessed.smi:3104|AV-procd|sdf|11817|dock4
  -GOLD-   2272017183D 1   1.00000     0.00000
 Structure written by MMmdl.
 37 38  0  0  0  0  0  0  0  0  2 V2000
  153.3826  142.6789  162.7314 C   0  0  0  0  0  0  0  0  0  0  0  0
  153.0848  142.4316  161.2808 C   0  0  0  0  0  0  0  0  0  0  0  0
  153.3759  141.2679  160.5151 C   0  0  0  0  0  0  0  0  0  0  0  0
  152.9680  141.3637  159.2607 N   0  0  0  0  0  0  0  0  0  0  0  0
  152.4203  142.5952  159.1719 N   0  0  0  0  0  0  0  0  0  0  0  0
  151.8260  143.0285  157.9118 C   0  0  2  0  0  0  0  0  0  0  0  0
  151.3536  144.4901  158.0299 C   0  0  0  0  0  0  0  0  0  0  0  0
  150.7066  142.0547  157.4538 C   0  0  1  0  0  0  0  0  0  0  0  0
  149.4660  142.1095  158.3609 C   0  0  0  0  0  0  0  0  0  0  0  0
  150.2881  142.3566  156.0643 N   0  3  0  0  0  0  0  0  0  0  0  0
  149.5422  141.2745  155.3907 C   0  0  0  0  0  0  0  0  0  0  0  0
  148.0543  141.5537  155.3942 C   0  0  0  0  0  0  0  0  0  0  0  0
  147.1174  140.6782  154.5940 C   0  0  0  0  0  0  0  0  0  0  0  0
  147.3656  142.1028  154.1655 C   0  0  0  0  0  0  0  0  0  0  0  0
  152.4699  143.2573  160.3829 C   0  0  0  0  0  0  0  0  0  0  0  0
  154.0930  141.9537  163.1291 H   0  0  0  0  0  0  0  0  0  0  0  0
  152.4822  142.6147  163.3424 H   0  0  0  0  0  0  0  0  0  0  0  0
  153.8117  143.6682  162.8914 H   0  0  0  0  0  0  0  0  0  0  0  0
  153.8611  140.3573  160.8352 H   0  0  0  0  0  0  0  0  0  0  0  0
  152.6162  143.0112  157.1584 H   0  0  0  0  0  0  0  0  0  0  0  0
  151.0738  144.9021  157.0608 H   0  0  0  0  0  0  0  0  0  0  0  0
  152.1466  145.1256  158.4260 H   0  0  0  0  0  0  0  0  0  0  0  0
  150.4921  144.5825  158.6919 H   0  0  0  0  0  0  0  0  0  0  0  0
  151.0926  141.0345  157.4939 H   0  0  0  0  0  0  0  0  0  0  0  0
  149.6905  141.7756  159.3737 H   0  0  0  0  0  0  0  0  0  0  0  0
  148.6765  141.4594  157.9820 H   0  0  0  0  0  0  0  0  0  0  0  0
  149.0618  143.1205  158.4229 H   0  0  0  0  0  0  0  0  0  0  0  0
  149.7031  143.1797  156.0772 H   0  0  0  0  0  0  0  0  0  0  0  0
  149.8864  141.1576  154.3629 H   0  0  0  0  0  0  0  0  0  0  0  0
  149.7282  140.3321  155.9070 H   0  0  0  0  0  0  0  0  0  0  0  0
  147.6681  141.8840  156.3569 H   0  0  0  0  0  0  0  0  0  0  0  0
  147.5538  139.8893  153.9844 H   0  0  0  0  0  0  0  0  0  0  0  0
  146.1481  140.4467  155.0311 H   0  0  0  0  0  0  0  0  0  0  0  0
  146.5629  142.8211  154.3183 H   0  0  0  0  0  0  0  0  0  0  0  0
  147.9665  142.2591  153.2717 H   0  0  0  0  0  0  0  0  0  0  0  0
  152.0627  144.2499  160.5082 H   0  0  0  0  0  0  0  0  0  0  0  0
  151.1176  142.5613  155.5243 H   0  0  0  0  0  0  0  0  0  0  0  0
  1  2  1  0  0  0  0
  1 16  1  0  0  0  0
  1 17  1  0  0  0  0
  1 18  1  0  0  0  0
  2 15  2  0  0  0  0
  2  3  1  0  0  0  0
  3  4  2  0  0  0  0
  3 19  1  0  0  0  0
  4  5  1  0  0  0  0
  5  6  1  0  0  0  0
  5 15  1  0  0  0  0
  6  7  1  0  0  0  0
  6  8  1  0  0  0  0
  6 20  1  0  0  0  0
  7 21  1  0  0  0  0
  7 22  1  0  0  0  0
  7 23  1  0  0  0  0
  8  9  1  0  0  0  0
  8 10  1  0  0  0  0
  8 24  1  0  0  0  0
  9 25  1  0  0  0  0
  9 26  1  0  0  0  0
  9 27  1  0  0  0  0
 10 11  1  0  0  0  0
 10 28  1  0  0  0  0
 10 37  1  0  0  0  0
 11 12  1  0  0  0  0
 11 29  1  0  0  0  0
 11 30  1  0  0  0  0
 12 14  1  0  0  0  0
 12 13  1  0  0  0  0
 12 31  1  0  0  0  0
 13 14  1  0  0  0  0
 13 32  1  0  0  0  0
 13 33  1  0  0  0  0
 14 34  1  0  0  0  0
 14 35  1  0  0  0  0
 15 36  1  0  0  0  0
M  CHG  1  10   1
M  END
> <s_m_source_file>
AV-unprocessed.smi

> <i_m_source_file_index>
3104

> <i_lp_mmshare_version>
43012

> <i_f3d_flags>
0

> <s_epik_input>
W0NIM11jMVtjSF1ubihbY0hdMSlbQ0BIXShbQ0gzXSlbQ0BIXShbQ0gzXSlbTkhdW0NIMl1bQ0hdMltDSDJdW0NIMl0y

> <s_epik_cmdline>
J2VwaWtfcHl0aG9uJywgJy1waCcsICc3LjAnLCAnLXRuJywgJzgnLCAnLW1hJywgJzIwMCcsICctbWV0YWxfYmluZGluZycsICctaW1hZScsICc8aW5maWxlLm1hZT4nLCAnLW9tYWUnLCAnPG91dGZpbGUubWFlPic=

> <r_lp_tautomer_probability>
1

> <r_epik_Ionization_Penalty>
0.00120445

> <r_epik_Ionization_Penalty_Charging>
0.00118273

> <r_epik_Ionization_Penalty_Neutral>
2.17265e-05

> <r_epik_State_Penalty>
-0

> <r_epik_Charging_Adjusted_Penalty>
0.00118273

> <i_epik_Tot_Q>
1

> <i_epik_Tot_abs_Q>
1

> <r_epik_Metal_State_Penalty>
-0

> <b_epik_Metal_Only>
0

> <s_lp_Force_Field>
OPLS_2005

> <r_lp_Energy>
20.7188

> <b_lp_Chiralities_Consistent>
1

> <s_lp_Variant>
AV-unprocessed.smi:3104-3

> <Gold.Version>
5.8.1

> <Gold.Id.Protein>
6NUR|6NUR_protein|mol2

> <Gold.PLP.Fitness>
44.9412

> <Gold.PLP.PLP>
-39.9395

> <Gold.PLP.part.hbond>
-1.0000

> <Gold.PLP.part.metal>
0.0000

> <Gold.PLP.part.buried>
-4.4054

> <Gold.PLP.part.nonpolar>
-34.0360

> <Gold.PLP.part.repulsive>
0.1325

> <Gold.PLP.ligand.clash>
0.0000

> <Gold.PLP.ligand.torsion>
0.8093

> <Gold.PLP.Chemscore.Hbond>
2.0000

> <Gold.PLP.Chemscore.CHOScore>
0.0000

> <Gold.PLP.Chemscore.Metal>
0.0000

> <Gold.Chemscore.Hbonds>
donor molecule, donor type, donor heavy atom, donor atom, acceptor molecule, acceptor atom, score
      L1  H    10    28       P1  8028  2.00

> <Gold.PLP.Chemscore.Internal.Correction>
0.6202

> <Gold.Rescore>
     Score         DG    S(hbond)    S(metal)    S(lipo)     H(rot)  DE(clash)    DE(int)     intcor
     16.37     -17.40       1.00        0.00     106.02       1.49       0.24       0.79       ----

> <Gold.Chemscore.Fitness>
16.3744

> <Gold.Chemscore.DG>
-17.4036

> <Gold.Chemscore.ZeroCoef>
-5.4800

> <Gold.Chemscore.Hbond>
0.9998

> <Gold.Chemscore.Metal>
0.0000

> <Gold.Chemscore.Lipo>
106.0229

> <Gold.Chemscore.Internal_Hbond>
0.0000

> <Gold.Chemscore.DEClash>
0.2438

> <Gold.Chemscore.DEInternal>
0.7854

> <Gold.Chemscore.Rot>
1.4923

> <Gold.Chemscore.Internal.Correction>
   9.000000E+99

> <Gold.Chemscore.Hbonds>
donor molecule, donor type, donor heavy atom, donor atom, acceptor molecule, acceptor atom, score
      L1  H    10    28       P1  8028  1.00

> <Gold.Chemscore.Hbond.Weighted>
-3.3393

> <Gold.Chemscore.Metal.Weighted>
-0.0000

> <Gold.Chemscore.Lipo.Weighted>
-12.4047

> <Gold.Chemscore.Internal_Hbond.Weighted>
0.0000

> <Gold.Chemscore.DEClash.Weighted>
0.2438

> <Gold.Chemscore.DEInternal.Weighted>
0.7854

> <Gold.Chemscore.Rot.Weighted>
3.8204

> <Gold.Chemscore.Internal.Correction.Weighted>
   9.000000E+99

> <Gold.Protein.RotatedTorsions>
[ 6907 6896 6895 6894 ] final   59.44 input  -60.11 | X-H torsion
[ 7974 7965 7964 7962 ] final   61.61 input  175.53 | X-H torsion
[ 8008 7997 7996 7995 ] final   57.51 input   59.86 | X-H torsion
[ 10167 10162 10161 10158 ] final -158.28 input  -65.29 | X-H torsion
[ 10718 10713 10712 10709 ] final  104.01 input   66.30 | X-H torsion
[ 10763 10752 10751 10750 ] final  -67.20 input  -60.55 | X-H torsion
[ 11005 11000 10999 10996 ] final    3.87 input  -57.11 | X-H torsion

> <Gold.Protein.ActiveResidues>
 VAL166  LYS551  ARG553  GLY616  TRP617  ASP618  TYR619  PRO620  LYS621  CYS622 
 ASP623  PHE694  ASN695  SER759  ASP760  ASP761  ALA762  ILE779  LEU786  VAL792 
 PHE793  MET794  SER795  GLU796  ALA797  LYS798  CYS799  TRP800  GLU811  SER814 

> <Gold.Protein.RotatedAtoms>
  152.3915  134.6433  160.0105 H   0  0  0  0  0  0  0  0  0  0  0  0  # atno 6907 bound_to 6896
  151.6666  133.3309  159.3194 H   0  0  0  0  0  0  0  0  0  0  0  0  # atno 6908 bound_to 6896
  150.7830  134.6835  159.6502 H   0  0  0  0  0  0  0  0  0  0  0  0  # atno 6909 bound_to 6896
  145.8828  139.3455  143.0696 H   0  0  0  0  0  0  0  0  0  0  0  0  # atno 7974 bound_to 7965
  155.5350  140.3483  155.4434 H   0  0  0  0  0  0  0  0  0  0  0  0  # atno 8008 bound_to 7997
  156.0692  140.1359  156.9876 H   0  0  0  0  0  0  0  0  0  0  0  0  # atno 8009 bound_to 7997
  154.4519  140.0969  156.6618 H   0  0  0  0  0  0  0  0  0  0  0  0  # atno 8010 bound_to 7997
  139.6704  143.9755  152.2280 H   0  0  0  0  0  0  0  0  0  0  0  0  # atno 10167 bound_to 10162
  157.6754  131.0793  150.5641 H   0  0  0  0  0  0  0  0  0  0  0  0  # atno 10718 bound_to 10713
  154.3710  135.6095  153.5740 H   0  0  0  0  0  0  0  0  0  0  0  0  # atno 10763 bound_to 10752
  152.9790  135.5838  154.4522 H   0  0  0  0  0  0  0  0  0  0  0  0  # atno 10764 bound_to 10752
  154.4276  135.2847  155.1911 H   0  0  0  0  0  0  0  0  0  0  0  0  # atno 10765 bound_to 10752
  140.5883  133.9948  155.8077 H   0  0  0  0  0  0  0  0  0  0  0  0  # atno 11005 bound_to 11000
  145.9003  140.9247  143.0506 LP  0  0  0  0  0  0  0  0  0  0  0  0  # atno 17320 bound_to 7965
  144.6727  140.1024  143.7460 LP  0  0  0  0  0  0  0  0  0  0  0  0  # atno 17321 bound_to 7965
  139.9518  144.6615  150.8164 LP  0  0  0  0  0  0  0  0  0  0  0  0  # atno 17342 bound_to 10162
  140.7616  143.3177  151.2693 LP  0  0  0  0  0  0  0  0  0  0  0  0  # atno 17343 bound_to 10162
  156.5944  130.4337  149.5923 LP  0  0  0  0  0  0  0  0  0  0  0  0  # atno 17370 bound_to 10713
  156.2557  130.6933  151.1686 LP  0  0  0  0  0  0  0  0  0  0  0  0  # atno 17371 bound_to 10713
  141.0951  133.9855  157.3173 LP  0  0  0  0  0  0  0  0  0  0  0  0  # atno 17394 bound_to 11000
  139.9286  135.0201  156.8320 LP  0  0  0  0  0  0  0  0  0  0  0  0  # atno 17395 bound_to 11000

$$$$
