AV-unprocessed.smi:3308|AV-procd|sdf|12708|dock5
  -GOLD-   2272019 43D 1   1.00000     0.00000
 Structure written by MMmdl.
 41 42  0  0  0  0  0  0  0  0  2 V2000
  153.2517  139.2212  159.3388 C   0  0  0  0  0  0  0  0  0  0  0  0
  152.4180  140.4978  159.1164 C   0  0  2  0  0  0  0  0  0  0  0  0
  151.9277  140.5459  157.7185 N   0  3  0  0  0  0  0  0  0  0  0  0
  150.4604  140.6435  157.5593 C   0  0  0  0  0  0  0  0  0  0  0  0
  150.0252  140.4779  156.0964 C   0  0  0  0  0  0  0  0  0  0  0  0
  150.8705  140.2399  155.2319 O   0  0  0  0  0  0  0  0  0  0  0  0
  148.7141  140.6001  155.8043 N   0  0  0  0  0  0  0  0  0  0  0  0
  148.1730  140.4813  154.4517 C   0  0  0  0  0  0  0  0  0  0  0  0
  146.7222  140.9532  154.5442 C   0  0  0  0  0  0  0  0  0  0  0  0
  146.3388  140.6935  155.9946 C   0  0  0  0  0  0  0  0  0  0  0  0
  147.6466  140.8726  156.7667 C   0  0  0  0  0  0  0  0  0  0  0  0
  153.2169  141.7907  159.4401 C   0  0  2  0  0  0  0  0  0  0  0  0
  153.8851  141.7610  160.8276 C   0  0  0  0  0  0  0  0  0  0  0  0
  152.3867  142.9860  159.3287 N   0  0  0  0  0  0  0  0  0  0  0  0
  152.2580  144.0206  160.2328 C   0  0  0  0  0  0  0  0  0  0  0  0
  151.3595  144.9080  159.7139 C   0  0  0  0  0  0  0  0  0  0  0  0
  150.9757  144.3177  158.4780 C   0  0  0  0  0  0  0  0  0  0  0  0
  151.5879  143.1667  158.2523 N   0  0  0  0  0  0  0  0  0  0  0  0
  153.5613  139.1182  160.3781 H   0  0  0  0  0  0  0  0  0  0  0  0
  154.1508  139.2223  158.7220 H   0  0  0  0  0  0  0  0  0  0  0  0
  152.6857  138.3222  159.0964 H   0  0  0  0  0  0  0  0  0  0  0  0
  151.5507  140.4604  159.7777 H   0  0  0  0  0  0  0  0  0  0  0  0
  152.3192  141.3744  157.2924 H   0  0  0  0  0  0  0  0  0  0  0  0
  149.9725  139.8786  158.1629 H   0  0  0  0  0  0  0  0  0  0  0  0
  150.1287  141.6175  157.9212 H   0  0  0  0  0  0  0  0  0  0  0  0
  148.7363  141.0728  153.7283 H   0  0  0  0  0  0  0  0  0  0  0  0
  148.2171  139.4359  154.1426 H   0  0  0  0  0  0  0  0  0  0  0  0
  146.6721  142.0237  154.3398 H   0  0  0  0  0  0  0  0  0  0  0  0
  146.0668  140.4467  153.8350 H   0  0  0  0  0  0  0  0  0  0  0  0
  145.5451  141.3526  156.3476 H   0  0  0  0  0  0  0  0  0  0  0  0
  145.9902  139.6653  156.0997 H   0  0  0  0  0  0  0  0  0  0  0  0
  147.6835  140.2059  157.6296 H   0  0  0  0  0  0  0  0  0  0  0  0
  147.7392  141.8995  157.1234 H   0  0  0  0  0  0  0  0  0  0  0  0
  154.0096  141.8908  158.6968 H   0  0  0  0  0  0  0  0  0  0  0  0
  154.6451  140.9834  160.8957 H   0  0  0  0  0  0  0  0  0  0  0  0
  153.1551  141.5863  161.6186 H   0  0  0  0  0  0  0  0  0  0  0  0
  154.3824  142.7080  161.0407 H   0  0  0  0  0  0  0  0  0  0  0  0
  152.8112  144.0409  161.1605 H   0  0  0  0  0  0  0  0  0  0  0  0
  151.0223  145.8352  160.1534 H   0  0  0  0  0  0  0  0  0  0  0  0
  150.2740  144.6873  157.7448 H   0  0  0  0  0  0  0  0  0  0  0  0
  152.2684  139.7398  157.2142 H   0  0  0  0  0  0  0  0  0  0  0  0
  1  2  1  0  0  0  0
  1 19  1  0  0  0  0
  1 20  1  0  0  0  0
  1 21  1  0  0  0  0
  2  3  1  0  0  0  0
  2 12  1  0  0  0  0
  2 22  1  0  0  0  0
  3  4  1  0  0  0  0
  3 23  1  0  0  0  0
  3 41  1  0  0  0  0
  4  5  1  0  0  0  0
  4 24  1  0  0  0  0
  4 25  1  0  0  0  0
  5  6  2  0  0  0  0
  5  7  1  0  0  0  0
  7 11  1  0  0  0  0
  7  8  1  0  0  0  0
  8  9  1  0  0  0  0
  8 26  1  0  0  0  0
  8 27  1  0  0  0  0
  9 10  1  0  0  0  0
  9 28  1  0  0  0  0
  9 29  1  0  0  0  0
 10 11  1  0  0  0  0
 10 30  1  0  0  0  0
 10 31  1  0  0  0  0
 11 32  1  0  0  0  0
 11 33  1  0  0  0  0
 12 13  1  0  0  0  0
 12 14  1  0  0  0  0
 12 34  1  0  0  0  0
 13 35  1  0  0  0  0
 13 36  1  0  0  0  0
 13 37  1  0  0  0  0
 14 18  1  0  0  0  0
 14 15  1  0  0  0  0
 15 16  2  0  0  0  0
 15 38  1  0  0  0  0
 16 17  1  0  0  0  0
 16 39  1  0  0  0  0
 17 18  2  0  0  0  0
 17 40  1  0  0  0  0
M  CHG  1   3   1
M  END
> <s_m_source_file>
AV-unprocessed.smi

> <i_m_source_file_index>
3308

> <i_lp_mmshare_version>
43012

> <i_f3d_flags>
0

> <s_epik_input>
bjFbY0hdW2NIXVtjSF1uMVtDQEBIXShbQ0gzXSlbQ0BIXShbQ0gzXSlbTkhdW0NIMl1DKD1PKU4yW0NIMl1bQ0gyXVtDSDJdW0NIMl0y

> <s_epik_cmdline>
J2VwaWtfcHl0aG9uJywgJy1waCcsICc3LjAnLCAnLXRuJywgJzgnLCAnLW1hJywgJzIwMCcsICctbWV0YWxfYmluZGluZycsICctaW1hZScsICc8aW5maWxlLm1hZT4nLCAnLW9tYWUnLCAnPG91dGZpbGUubWFlPic=

> <r_lp_tautomer_probability>
1

> <r_epik_Ionization_Penalty>
0.141739

> <r_epik_Ionization_Penalty_Charging>
0.141731

> <r_epik_Ionization_Penalty_Neutral>
8.82171e-06

> <r_epik_State_Penalty>
0.131043

> <r_epik_Charging_Adjusted_Penalty>
0.272773

> <i_epik_Tot_Q>
1

> <i_epik_Tot_abs_Q>
1

> <r_epik_Metal_State_Penalty>
0.131385

> <b_epik_Metal_Only>
0

> <s_lp_Force_Field>
OPLS_2005

> <r_lp_Energy>
31.7083

> <b_lp_Chiralities_Consistent>
1

> <s_lp_Variant>
AV-unprocessed.smi:3308-1

> <Gold.Version>
5.8.1

> <Gold.Id.Protein>
6NUR|6NUR_protein|mol2

> <Gold.PLP.Fitness>
47.9326

> <Gold.PLP.PLP>
-43.7561

> <Gold.PLP.part.hbond>
-1.0000

> <Gold.PLP.part.metal>
0.0000

> <Gold.PLP.part.buried>
-4.2267

> <Gold.PLP.part.nonpolar>
-36.8887

> <Gold.PLP.part.repulsive>
0.2094

> <Gold.PLP.ligand.clash>
0.0000

> <Gold.PLP.ligand.torsion>
0.9628

> <Gold.PLP.Chemscore.Hbond>
1.0000

> <Gold.PLP.Chemscore.CHOScore>
1.0000

> <Gold.PLP.Chemscore.Metal>
0.0000

> <Gold.Chemscore.Hbonds>
donor molecule, donor type, donor heavy atom, donor atom, acceptor molecule, acceptor atom, score
      P1  H  7989  7998       L1     6  1.00
      L1  C    17    40       P1  8028  0.87
      L1  C    17    40       P1  8029  0.16

> <Gold.PLP.Chemscore.Internal.Correction>
0.1021

> <Gold.Rescore>
     Score         DG    S(hbond)    S(metal)    S(lipo)     H(rot)  DE(clash)    DE(int)     intcor
     14.05     -15.60       0.99        0.00      97.15       1.78       0.05       1.50       ----

> <Gold.Chemscore.Fitness>
14.0543

> <Gold.Chemscore.DG>
-15.6005

> <Gold.Chemscore.ZeroCoef>
-5.4800

> <Gold.Chemscore.Hbond>
0.9939

> <Gold.Chemscore.Metal>
0.0000

> <Gold.Chemscore.Lipo>
97.1516

> <Gold.Chemscore.Internal_Hbond>
0.0000

> <Gold.Chemscore.DEClash>
0.0473

> <Gold.Chemscore.DEInternal>
1.4989

> <Gold.Chemscore.Rot>
1.7836

> <Gold.Chemscore.Internal.Correction>
   9.000000E+99

> <Gold.Chemscore.Hbonds>
donor molecule, donor type, donor heavy atom, donor atom, acceptor molecule, acceptor atom, score
      P1  H  7989  7998       L1     6  0.95

> <Gold.Chemscore.Hbond.Weighted>
-3.3198

> <Gold.Chemscore.Metal.Weighted>
-0.0000

> <Gold.Chemscore.Lipo.Weighted>
-11.3667

> <Gold.Chemscore.Internal_Hbond.Weighted>
0.0000

> <Gold.Chemscore.DEClash.Weighted>
0.0473

> <Gold.Chemscore.DEInternal.Weighted>
1.4989

> <Gold.Chemscore.Rot.Weighted>
4.5660

> <Gold.Chemscore.Internal.Correction.Weighted>
   9.000000E+99

> <Gold.Protein.RotatedTorsions>
[ 6907 6896 6895 6894 ] final   56.32 input  -60.11 | X-H torsion
[ 7974 7965 7964 7962 ] final -115.33 input  175.53 | X-H torsion
[ 8008 7997 7996 7995 ] final  -25.96 input   59.86 | X-H torsion
[ 10167 10162 10161 10158 ] final   33.67 input  -65.29 | X-H torsion
[ 10718 10713 10712 10709 ] final  -25.12 input   66.30 | X-H torsion
[ 10763 10752 10751 10750 ] final  156.29 input  -60.55 | X-H torsion
[ 11005 11000 10999 10996 ] final   63.26 input  -57.11 | X-H torsion

> <Gold.Protein.ActiveResidues>
 VAL166  LYS551  ARG553  GLY616  TRP617  ASP618  TYR619  PRO620  LYS621  CYS622 
 ASP623  PHE694  ASN695  SER759  ASP760  ASP761  ALA762  ILE779  LEU786  VAL792 
 PHE793  MET794  SER795  GLU796  ALA797  LYS798  CYS799  TRP800  GLU811  SER814 

> <Gold.Protein.RotatedAtoms>
  152.3625  134.6852  160.0202 H   0  0  0  0  0  0  0  0  0  0  0  0  # atno 6907 bound_to 6896
  151.7170  133.3308  159.3313 H   0  0  0  0  0  0  0  0  0  0  0  0  # atno 6908 bound_to 6896
  150.7615  134.6416  159.6284 H   0  0  0  0  0  0  0  0  0  0  0  0  # atno 6909 bound_to 6896
  145.1097  140.8604  143.3877 H   0  0  0  0  0  0  0  0  0  0  0  0  # atno 7974 bound_to 7965
  154.4449  140.1912  156.0701 H   0  0  0  0  0  0  0  0  0  0  0  0  # atno 8008 bound_to 7997
  156.0518  140.3307  155.7333 H   0  0  0  0  0  0  0  0  0  0  0  0  # atno 8009 bound_to 7997
  155.5546  140.0598  157.2833 H   0  0  0  0  0  0  0  0  0  0  0  0  # atno 8010 bound_to 7997
  140.4386  144.1220  150.6170 H   0  0  0  0  0  0  0  0  0  0  0  0  # atno 10167 bound_to 10162
  156.4686  130.4519  149.6884 H   0  0  0  0  0  0  0  0  0  0  0  0  # atno 10718 bound_to 10713
  154.1819  135.2799  155.3049 H   0  0  0  0  0  0  0  0  0  0  0  0  # atno 10763 bound_to 10752
  154.5996  135.5534  153.7364 H   0  0  0  0  0  0  0  0  0  0  0  0  # atno 10764 bound_to 10752
  153.0135  135.6388  154.1958 H   0  0  0  0  0  0  0  0  0  0  0  0  # atno 10765 bound_to 10752
  140.0037  134.6403  155.9890 H   0  0  0  0  0  0  0  0  0  0  0  0  # atno 11005 bound_to 11000
  145.0861  139.2924  143.5759 LP  0  0  0  0  0  0  0  0  0  0  0  0  # atno 17320 bound_to 7965
  146.3527  140.0383  142.8645 LP  0  0  0  0  0  0  0  0  0  0  0  0  # atno 17321 bound_to 7965
  140.4344  143.2553  151.9553 LP  0  0  0  0  0  0  0  0  0  0  0  0  # atno 17342 bound_to 10162
  139.4788  144.5713  151.8083 LP  0  0  0  0  0  0  0  0  0  0  0  0  # atno 17343 bound_to 10162
  156.3642  130.7497  151.2473 LP  0  0  0  0  0  0  0  0  0  0  0  0  # atno 17370 bound_to 10713
  157.7493  131.0341  150.4304 LP  0  0  0  0  0  0  0  0  0  0  0  0  # atno 17371 bound_to 10713
  141.1661  133.6537  156.4484 LP  0  0  0  0  0  0  0  0  0  0  0  0  # atno 17394 bound_to 11000
  140.4681  134.6778  157.5117 LP  0  0  0  0  0  0  0  0  0  0  0  0  # atno 17395 bound_to 11000

$$$$
