AV-unprocessed.smi:17|AV-procd|sdf|106|dock5
  -GOLD-   2262015263D 1   1.00000     0.00000
 Structure written by MMmdl.
 57 59  0  0  0  0  0  0  0  0  1 V2000
  150.9567  133.0825  156.4139 C   0  0  0  0  0  0  0  0  0  0  0  0
  150.3301  134.3848  156.9395 C   0  0  0  0  0  0  0  0  0  0  0  0
  149.0587  134.1818  157.6382 N   0  0  0  0  0  0  0  0  0  0  0  0
  148.1371  133.4468  156.9636 C   0  0  0  0  0  0  0  0  0  0  0  0
  147.2293  132.7587  157.6999 N   0  0  0  0  0  0  0  0  0  0  0  0
  146.3064  132.0034  157.0987 C   0  0  0  0  0  0  0  0  0  0  0  0
  146.1178  131.7980  155.7941 N   0  0  0  0  0  0  0  0  0  0  0  0
  147.0289  132.4843  155.0465 C   0  0  0  0  0  0  0  0  0  0  0  0
  148.0691  133.3189  155.5451 C   0  0  0  0  0  0  0  0  0  0  0  0
  148.8028  133.8373  154.4848 N   0  0  0  0  0  0  0  0  0  0  0  0
  148.2296  133.3404  153.4240 C   0  0  0  0  0  0  0  0  0  0  0  0
  147.1441  132.5292  153.6668 N   0  0  0  0  0  0  0  0  0  0  0  0
  146.3216  131.8489  152.6762 C   0  0  0  0  0  0  0  0  0  0  0  0
  146.0855  132.6588  151.3716 C   0  0  1  0  0  0  0  0  0  0  0  0
  145.5437  131.7754  150.2232 C   0  0  0  0  0  0  0  0  0  0  0  0
  144.1499  131.5848  150.3448 O   0  0  0  0  0  0  0  0  0  0  0  0
  145.1810  133.8992  151.5970 C   0  0  1  0  0  0  0  0  0  0  0  0
  145.8067  134.9963  152.4424 C   0  0  0  0  0  0  0  0  0  0  0  0
  144.9344  136.2007  152.1078 C   0  0  0  0  0  0  0  0  0  0  0  0
  144.5277  136.0147  150.7573 O   0  0  0  0  0  0  0  0  0  0  0  0
  144.8515  134.6958  150.3292 C   0  0  0  0  0  0  0  0  0  0  0  0
  148.5430  135.3297  158.4015 C   0  0  1  0  0  0  0  0  0  0  0  0
  147.9717  136.4439  157.5035 C   0  0  0  0  0  0  0  0  0  0  0  0
  147.5465  134.9432  159.5162 C   0  0  0  0  0  0  0  0  0  0  0  0
  147.4418  136.2454  160.8214 S   0  0  0  0  0  0  0  0  0  0  0  0
  146.8579  135.2773  162.2712 C   0  0  0  0  0  0  0  0  0  0  0  0
  148.7946  136.7435  161.1114 O   0  0  0  0  0  0  0  0  0  0  0  0
  146.3871  137.1974  160.4412 O   0  0  0  0  0  0  0  0  0  0  0  0
  151.9336  133.2791  155.9722 H   0  0  0  0  0  0  0  0  0  0  0  0
  150.3413  132.6128  155.6462 H   0  0  0  0  0  0  0  0  0  0  0  0
  151.0970  132.3621  157.2205 H   0  0  0  0  0  0  0  0  0  0  0  0
  151.0329  134.8457  157.6343 H   0  0  0  0  0  0  0  0  0  0  0  0
  150.2069  135.0960  156.1236 H   0  0  0  0  0  0  0  0  0  0  0  0
  145.6220  131.4900  157.7579 H   0  0  0  0  0  0  0  0  0  0  0  0
  148.5867  133.5602  152.4292 H   0  0  0  0  0  0  0  0  0  0  0  0
  146.7857  130.8887  152.4506 H   0  0  0  0  0  0  0  0  0  0  0  0
  145.3662  131.6023  153.1403 H   0  0  0  0  0  0  0  0  0  0  0  0
  147.0605  133.0315  151.0535 H   0  0  0  0  0  0  0  0  0  0  0  0
  145.7720  132.2043  149.2474 H   0  0  0  0  0  0  0  0  0  0  0  0
  145.9990  130.7861  150.2446 H   0  0  0  0  0  0  0  0  0  0  0  0
  143.9966  130.8529  150.9234 H   0  0  0  0  0  0  0  0  0  0  0  0
  144.2400  133.5939  152.0564 H   0  0  0  0  0  0  0  0  0  0  0  0
  145.8166  134.7780  153.5097 H   0  0  0  0  0  0  0  0  0  0  0  0
  146.8339  135.1818  152.1251 H   0  0  0  0  0  0  0  0  0  0  0  0
  144.0457  136.2139  152.7399 H   0  0  0  0  0  0  0  0  0  0  0  0
  145.4601  137.1464  152.2403 H   0  0  0  0  0  0  0  0  0  0  0  0
  145.7197  134.7542  149.6716 H   0  0  0  0  0  0  0  0  0  0  0  0
  144.0283  134.2599  149.7631 H   0  0  0  0  0  0  0  0  0  0  0  0
  149.4043  135.7690  158.9059 H   0  0  0  0  0  0  0  0  0  0  0  0
  147.7223  137.3267  158.0925 H   0  0  0  0  0  0  0  0  0  0  0  0
  147.0606  136.1260  156.9961 H   0  0  0  0  0  0  0  0  0  0  0  0
  148.6898  136.7562  156.7452 H   0  0  0  0  0  0  0  0  0  0  0  0
  146.5451  134.8463  159.0967 H   0  0  0  0  0  0  0  0  0  0  0  0
  147.7825  133.9866  159.9806 H   0  0  0  0  0  0  0  0  0  0  0  0
  146.7447  135.9421  163.1271 H   0  0  0  0  0  0  0  0  0  0  0  0
  147.5855  134.5016  162.5088 H   0  0  0  0  0  0  0  0  0  0  0  0
  145.8970  134.8180  162.0413 H   0  0  0  0  0  0  0  0  0  0  0  0
  1  2  1  0  0  0  0
  1 29  1  0  0  0  0
  1 30  1  0  0  0  0
  1 31  1  0  0  0  0
  2  3  1  0  0  0  0
  2 32  1  0  0  0  0
  2 33  1  0  0  0  0
  3  4  1  0  0  0  0
  3 22  1  0  0  0  0
  4  9  1  0  0  0  0
  4  5  2  0  0  0  0
  5  6  1  0  0  0  0
  6  7  2  0  0  0  0
  6 34  1  0  0  0  0
  7  8  1  0  0  0  0
  8 12  1  0  0  0  0
  8  9  2  0  0  0  0
  9 10  1  0  0  0  0
 10 11  2  0  0  0  0
 11 12  1  0  0  0  0
 11 35  1  0  0  0  0
 12 13  1  0  0  0  0
 13 14  1  0  0  0  0
 13 36  1  0  0  0  0
 13 37  1  0  0  0  0
 14 15  1  0  0  0  0
 14 17  1  0  0  0  0
 14 38  1  0  0  0  0
 15 16  1  0  0  0  0
 15 39  1  0  0  0  0
 15 40  1  0  0  0  0
 16 41  1  0  0  0  0
 17 21  1  0  0  0  0
 17 18  1  0  0  0  0
 17 42  1  0  0  0  0
 18 19  1  0  0  0  0
 18 43  1  0  0  0  0
 18 44  1  0  0  0  0
 19 20  1  0  0  0  0
 19 45  1  0  0  0  0
 19 46  1  0  0  0  0
 20 21  1  0  0  0  0
 21 47  1  0  0  0  0
 21 48  1  0  0  0  0
 22 23  1  0  0  0  0
 22 24  1  0  0  0  0
 22 49  1  0  0  0  0
 23 50  1  0  0  0  0
 23 51  1  0  0  0  0
 23 52  1  0  0  0  0
 24 25  1  0  0  0  0
 24 53  1  0  0  0  0
 24 54  1  0  0  0  0
 25 26  1  0  0  0  0
 25 27  2  0  0  0  0
 25 28  2  0  0  0  0
 26 55  1  0  0  0  0
 26 56  1  0  0  0  0
 26 57  1  0  0  0  0
M  END
> <s_m_source_file>
AV-unprocessed.smi

> <i_m_source_file_index>
17

> <i_lp_mmshare_version>
43012

> <i_f3d_flags>
0

> <s_epik_input>
W0NIM11TKD1PKSg9TylbQ0gyXVtDQEBIXShbQ0gzXSlOKFtDSDJdW0NIM10pYyhuW2NIXW4xKWMoYzEyKW5bY0hdbjJbQ0gyXVtDQEhdKFtDSDJdW09IXSlbQ0BASF0zW0NIMl1bQ0gyXU9bQ0gyXTM=

> <s_epik_cmdline>
J2VwaWtfcHl0aG9uJywgJy1waCcsICc3LjAnLCAnLXRuJywgJzgnLCAnLW1hJywgJzIwMCcsICctbWV0YWxfYmluZGluZycsICctaW1hZScsICc8aW5maWxlLm1hZT4nLCAnLW9tYWUnLCAnPG91dGZpbGUubWFlPic=

> <r_lp_tautomer_probability>
1

> <r_epik_Ionization_Penalty>
0.00119955

> <r_epik_Ionization_Penalty_Charging>
0

> <r_epik_Ionization_Penalty_Neutral>
0.00119955

> <r_epik_State_Penalty>
0.000665399

> <r_epik_Charging_Adjusted_Penalty>
0.000665399

> <i_epik_Tot_Q>
0

> <i_epik_Tot_abs_Q>
0

> <r_epik_Metal_State_Penalty>
-0

> <b_epik_Metal_Only>
0

> <s_lp_Force_Field>
OPLS_2005

> <r_lp_Energy>
32.9267

> <b_lp_Chiralities_Consistent>
1

> <s_lp_Variant>
AV-unprocessed.smi:17-8

> <Gold.Version>
5.8.1

> <Gold.Id.Protein>
6NUR|6NUR_protein|mol2

> <Gold.PLP.Fitness>
36.2071

> <Gold.PLP.PLP>
-31.8619

> <Gold.PLP.part.hbond>
-2.5175

> <Gold.PLP.part.metal>
0.0000

> <Gold.PLP.part.buried>
-6.1531

> <Gold.PLP.part.nonpolar>
-25.0906

> <Gold.PLP.part.repulsive>
2.0224

> <Gold.PLP.ligand.clash>
0.0000

> <Gold.PLP.ligand.torsion>
1.9243

> <Gold.PLP.Chemscore.Hbond>
2.0341

> <Gold.PLP.Chemscore.CHOScore>
0.2358

> <Gold.PLP.Chemscore.Metal>
0.0000

> <Gold.Chemscore.Hbonds>
donor molecule, donor type, donor heavy atom, donor atom, acceptor molecule, acceptor atom, score
      P1  H  6931  6943       L1    27  1.00
      P1  H  6934  6947       L1    28  0.98
      P1  H 10785 10796       L1    16  0.01
      L1  C    11    35       P1  7948  0.07

> <Gold.PLP.Chemscore.Internal.Correction>
1.3840

> <Gold.Rescore>
     Score         DG    S(hbond)    S(metal)    S(lipo)     H(rot)  DE(clash)    DE(int)     intcor
      3.24      -8.72       1.47        0.00      68.76       3.79       0.05       5.43       ----

> <Gold.Chemscore.Fitness>
3.2374

> <Gold.Chemscore.DG>
-8.7194

> <Gold.Chemscore.ZeroCoef>
-5.4800

> <Gold.Chemscore.Hbond>
1.4657

> <Gold.Chemscore.Metal>
0.0000

> <Gold.Chemscore.Lipo>
68.7612

> <Gold.Chemscore.Internal_Hbond>
0.0000

> <Gold.Chemscore.DEClash>
0.0530

> <Gold.Chemscore.DEInternal>
5.4290

> <Gold.Chemscore.Rot>
3.7894

> <Gold.Chemscore.Internal.Correction>
   9.000000E+99

> <Gold.Chemscore.Hbonds>
donor molecule, donor type, donor heavy atom, donor atom, acceptor molecule, acceptor atom, score
      P1  H  6931  6943       L1    27  0.97
      P1  H  6934  6947       L1    28  0.46

> <Gold.Chemscore.Hbond.Weighted>
-4.8954

> <Gold.Chemscore.Metal.Weighted>
-0.0000

> <Gold.Chemscore.Lipo.Weighted>
-8.0451

> <Gold.Chemscore.Internal_Hbond.Weighted>
0.0000

> <Gold.Chemscore.DEClash.Weighted>
0.0530

> <Gold.Chemscore.DEInternal.Weighted>
5.4290

> <Gold.Chemscore.Rot.Weighted>
9.7010

> <Gold.Chemscore.Internal.Correction.Weighted>
   9.000000E+99

> <Gold.Protein.RotatedTorsions>
[ 6907 6896 6895 6894 ] final -145.86 input  -60.11 | X-H torsion
[ 7974 7965 7964 7962 ] final  -12.17 input  175.53 | X-H torsion
[ 8008 7997 7996 7995 ] final   -5.33 input   59.86 | X-H torsion
[ 10167 10162 10161 10158 ] final    3.00 input  -65.29 | X-H torsion
[ 10718 10713 10712 10709 ] final   83.94 input   66.30 | X-H torsion
[ 10763 10752 10751 10750 ] final -160.21 input  -60.55 | X-H torsion
[ 11005 11000 10999 10996 ] final   42.20 input  -57.11 | X-H torsion

> <Gold.Protein.ActiveResidues>
 VAL166  LYS551  ARG553  GLY616  TRP617  ASP618  TYR619  PRO620  LYS621  CYS622 
 ASP623  PHE694  ASN695  SER759  ASP760  ASP761  ALA762  ILE779  LEU786  VAL792 
 PHE793  MET794  SER795  GLU796  ALA797  LYS798  CYS799  TRP800  GLU811  SER814 

> <Gold.Protein.RotatedAtoms>
  151.1336  133.5020  159.2598 H   0  0  0  0  0  0  0  0  0  0  0  0  # atno 6907 bound_to 6896
  151.1731  135.0326  159.8770 H   0  0  0  0  0  0  0  0  0  0  0  0  # atno 6908 bound_to 6896
  152.5460  134.1197  159.8447 H   0  0  0  0  0  0  0  0  0  0  0  0  # atno 6909 bound_to 6896
  146.2162  140.3018  142.8376 H   0  0  0  0  0  0  0  0  0  0  0  0  # atno 7974 bound_to 7965
  154.6050  140.2461  155.7743 H   0  0  0  0  0  0  0  0  0  0  0  0  # atno 8008 bound_to 7997
  156.2335  140.2958  156.0202 H   0  0  0  0  0  0  0  0  0  0  0  0  # atno 8009 bound_to 7997
  155.2148  140.0398  157.2929 H   0  0  0  0  0  0  0  0  0  0  0  0  # atno 8010 bound_to 7997
  140.6607  143.7310  150.7734 H   0  0  0  0  0  0  0  0  0  0  0  0  # atno 10167 bound_to 10162
  157.6889  131.0112  150.2599 H   0  0  0  0  0  0  0  0  0  0  0  0  # atno 10718 bound_to 10713
  154.7410  135.3068  154.8728 H   0  0  0  0  0  0  0  0  0  0  0  0  # atno 10763 bound_to 10752
  153.9543  135.6760  153.4748 H   0  0  0  0  0  0  0  0  0  0  0  0  # atno 10764 bound_to 10752
  153.1009  135.4912  154.8789 H   0  0  0  0  0  0  0  0  0  0  0  0  # atno 10765 bound_to 10752
  140.1761  134.4161  155.8227 H   0  0  0  0  0  0  0  0  0  0  0  0  # atno 11005 bound_to 11000
  144.9052  140.7691  143.5842 LP  0  0  0  0  0  0  0  0  0  0  0  0  # atno 17320 bound_to 7965
  145.2946  139.1871  143.4722 LP  0  0  0  0  0  0  0  0  0  0  0  0  # atno 17321 bound_to 7965
  140.0978  143.4816  152.2442 LP  0  0  0  0  0  0  0  0  0  0  0  0  # atno 17342 bound_to 10162
  139.5841  144.7523  151.3565 LP  0  0  0  0  0  0  0  0  0  0  0  0  # atno 17343 bound_to 10162
  156.3180  130.3781  149.7601 LP  0  0  0  0  0  0  0  0  0  0  0  0  # atno 17370 bound_to 10713
  156.5180  130.8202  151.3193 LP  0  0  0  0  0  0  0  0  0  0  0  0  # atno 17371 bound_to 10713
  141.2220  133.6979  156.7849 LP  0  0  0  0  0  0  0  0  0  0  0  0  # atno 17394 bound_to 11000
  140.2321  134.8678  157.3487 LP  0  0  0  0  0  0  0  0  0  0  0  0  # atno 17395 bound_to 11000

$$$$
