AV-unprocessed.smi:850|AV-procd|sdf|3947|dock3
  -GOLD-   22720 1413D 1   1.00000     0.00000
 Structure written by MMmdl.
 40 42  0  0  0  0  0  0  0  0  1 V2000
  153.9836  140.8941  160.3667 C   0  0  0  0  0  0  0  0  0  0  0  0
  152.9692  141.4857  159.5027 N   0  0  0  0  0  0  0  0  0  0  0  0
  152.5390  141.0163  158.3083 C   0  0  0  0  0  0  0  0  0  0  0  0
  152.9373  139.9982  157.7427 O   0  0  0  0  0  0  0  0  0  0  0  0
  151.5944  141.8664  157.8395 N   0  0  0  0  0  0  0  0  0  0  0  0
  150.8596  141.7410  156.5821 C   0  0  0  0  0  0  0  0  0  0  0  0
  150.7138  140.2683  156.1487 C   0  0  2  0  0  0  0  0  0  0  0  0
  151.3366  140.1041  154.8905 O   0  0  0  0  0  0  0  0  0  0  0  0
  149.2428  139.8568  155.9867 C   0  0  0  0  0  0  0  0  0  0  0  0
  148.6562  140.6509  154.9637 O   0  0  0  0  0  0  0  0  0  0  0  0
  147.3770  141.1255  155.1562 C   0  0  0  0  0  0  0  0  0  0  0  0
  146.8066  141.8703  154.1031 C   0  0  0  0  0  0  0  0  0  0  0  0
  145.5029  142.3912  154.2120 C   0  0  0  0  0  0  0  0  0  0  0  0
  144.7535  142.1715  155.3822 C   0  0  0  0  0  0  0  0  0  0  0  0
  145.3103  141.4313  156.4415 C   0  0  0  0  0  0  0  0  0  0  0  0
  146.6147  140.9107  156.3327 C   0  0  0  0  0  0  0  0  0  0  0  0
  151.4212  142.9124  158.7574 C   0  0  0  0  0  0  0  0  0  0  0  0
  150.5791  144.0383  158.7337 C   0  0  0  0  0  0  0  0  0  0  0  0
  150.6485  144.9204  159.8376 C   0  0  0  0  0  0  0  0  0  0  0  0
  151.5354  144.6680  160.9165 C   0  0  0  0  0  0  0  0  0  0  0  0
  152.3739  143.5285  160.9135 C   0  0  0  0  0  0  0  0  0  0  0  0
  152.2852  142.6699  159.8044 C   0  0  0  0  0  0  0  0  0  0  0  0
  154.4107  139.9865  159.9382 H   0  0  0  0  0  0  0  0  0  0  0  0
  153.5508  140.6384  161.3342 H   0  0  0  0  0  0  0  0  0  0  0  0
  154.7958  141.6023  160.5322 H   0  0  0  0  0  0  0  0  0  0  0  0
  149.8715  142.1777  156.7365 H   0  0  0  0  0  0  0  0  0  0  0  0
  151.3193  142.3401  155.7954 H   0  0  0  0  0  0  0  0  0  0  0  0
  151.1919  139.5990  156.8654 H   0  0  0  0  0  0  0  0  0  0  0  0
  151.6191  139.2057  154.8116 H   0  0  0  0  0  0  0  0  0  0  0  0
  149.1765  138.7949  155.7429 H   0  0  0  0  0  0  0  0  0  0  0  0
  148.7062  140.0248  156.9223 H   0  0  0  0  0  0  0  0  0  0  0  0
  147.3750  142.0427  153.2009 H   0  0  0  0  0  0  0  0  0  0  0  0
  145.0786  142.9593  153.3973 H   0  0  0  0  0  0  0  0  0  0  0  0
  143.7533  142.5705  155.4670 H   0  0  0  0  0  0  0  0  0  0  0  0
  144.7364  141.2623  157.3406 H   0  0  0  0  0  0  0  0  0  0  0  0
  147.0080  140.3495  157.1668 H   0  0  0  0  0  0  0  0  0  0  0  0
  149.9070  144.2279  157.9101 H   0  0  0  0  0  0  0  0  0  0  0  0
  150.0182  145.7972  159.8595 H   0  0  0  0  0  0  0  0  0  0  0  0
  151.5713  145.3545  161.7496 H   0  0  0  0  0  0  0  0  0  0  0  0
  153.0527  143.3295  161.7295 H   0  0  0  0  0  0  0  0  0  0  0  0
  1  2  1  0  0  0  0
  1 23  1  0  0  0  0
  1 24  1  0  0  0  0
  1 25  1  0  0  0  0
  2 22  1  0  0  0  0
  2  3  1  0  0  0  0
  3  4  2  0  0  0  0
  3  5  1  0  0  0  0
  5  6  1  0  0  0  0
  5 17  1  0  0  0  0
  6  7  1  0  0  0  0
  6 26  1  0  0  0  0
  6 27  1  0  0  0  0
  7  8  1  0  0  0  0
  7  9  1  0  0  0  0
  7 28  1  0  0  0  0
  8 29  1  0  0  0  0
  9 10  1  0  0  0  0
  9 30  1  0  0  0  0
  9 31  1  0  0  0  0
 10 11  1  0  0  0  0
 11 16  1  0  0  0  0
 11 12  2  0  0  0  0
 12 13  1  0  0  0  0
 12 32  1  0  0  0  0
 13 14  2  0  0  0  0
 13 33  1  0  0  0  0
 14 15  1  0  0  0  0
 14 34  1  0  0  0  0
 15 16  2  0  0  0  0
 15 35  1  0  0  0  0
 16 36  1  0  0  0  0
 17 22  2  0  0  0  0
 17 18  1  0  0  0  0
 18 19  2  0  0  0  0
 18 37  1  0  0  0  0
 19 20  1  0  0  0  0
 19 38  1  0  0  0  0
 20 21  2  0  0  0  0
 20 39  1  0  0  0  0
 21 22  1  0  0  0  0
 21 40  1  0  0  0  0
M  END
> <s_m_source_file>
AV-unprocessed.smi

> <i_m_source_file_index>
850

> <i_lp_mmshare_version>
43012

> <i_f3d_flags>
0

> <s_epik_input>
W2NIXTFbY0hdW2NIXVtjSF1jKGMxMiluKFtDSDNdKWMoPU8pbjJbQ0gyXVtDQEhdKFtPSF0pW0NIMl1PYzNbY0hdW2NIXVtjSF1bY0hdW2NIXTM=

> <s_epik_cmdline>
J2VwaWtfcHl0aG9uJywgJy1waCcsICc3LjAnLCAnLXRuJywgJzgnLCAnLW1hJywgJzIwMCcsICctbWV0YWxfYmluZGluZycsICctaW1hZScsICc8aW5maWxlLm1hZT4nLCAnLW9tYWUnLCAnPG91dGZpbGUubWFlPic=

> <r_lp_tautomer_probability>
1

> <r_epik_Ionization_Penalty>
2.40205e-06

> <r_epik_Ionization_Penalty_Charging>
2.75209e-09

> <r_epik_Ionization_Penalty_Neutral>
2.3993e-06

> <r_epik_State_Penalty>
-0

> <r_epik_Charging_Adjusted_Penalty>
2.75209e-09

> <i_epik_Tot_Q>
0

> <i_epik_Tot_abs_Q>
0

> <r_epik_Metal_State_Penalty>
-0

> <b_epik_Metal_Only>
0

> <s_lp_Force_Field>
OPLS_2005

> <r_lp_Energy>
46.059

> <b_lp_Chiralities_Consistent>
1

> <s_lp_Variant>
AV-unprocessed.smi:850-1

> <Gold.Version>
5.8.1

> <Gold.Id.Protein>
6NUR|6NUR_protein|mol2

> <Gold.PLP.Fitness>
54.4148

> <Gold.PLP.PLP>
-51.2233

> <Gold.PLP.part.hbond>
-2.0000

> <Gold.PLP.part.metal>
0.0000

> <Gold.PLP.part.buried>
-9.3907

> <Gold.PLP.part.nonpolar>
-40.1906

> <Gold.PLP.part.repulsive>
0.1237

> <Gold.PLP.ligand.clash>
0.0319

> <Gold.PLP.ligand.torsion>
1.4179

> <Gold.PLP.Chemscore.Hbond>
2.0000

> <Gold.PLP.Chemscore.CHOScore>
0.0000

> <Gold.PLP.Chemscore.Metal>
0.0000

> <Gold.Chemscore.Hbonds>
donor molecule, donor type, donor heavy atom, donor atom, acceptor molecule, acceptor atom, score
      P1  H  7989  7998       L1     8  1.00
      P1  H  7997  8009       L1     4  0.94

> <Gold.PLP.Chemscore.Internal.Correction>
0.0591

> <Gold.Rescore>
     Score         DG    S(hbond)    S(metal)    S(lipo)     H(rot)  DE(clash)    DE(int)     intcor
     17.49     -20.43       1.91        0.00     119.47       2.12       0.28       2.66       ----

> <Gold.Chemscore.Fitness>
17.4893

> <Gold.Chemscore.DG>
-20.4289

> <Gold.Chemscore.ZeroCoef>
-5.4800

> <Gold.Chemscore.Hbond>
1.9144

> <Gold.Chemscore.Metal>
0.0000

> <Gold.Chemscore.Lipo>
119.4704

> <Gold.Chemscore.Internal_Hbond>
0.0000

> <Gold.Chemscore.DEClash>
0.2826

> <Gold.Chemscore.DEInternal>
2.6571

> <Gold.Chemscore.Rot>
2.1184

> <Gold.Chemscore.Internal.Correction>
   9.000000E+99

> <Gold.Chemscore.Hbonds>
donor molecule, donor type, donor heavy atom, donor atom, acceptor molecule, acceptor atom, score
      P1  H  7989  7998       L1     8  0.69
      P1  H  7997  8009       L1     4  0.88

> <Gold.Chemscore.Hbond.Weighted>
-6.3941

> <Gold.Chemscore.Metal.Weighted>
-0.0000

> <Gold.Chemscore.Lipo.Weighted>
-13.9780

> <Gold.Chemscore.Internal_Hbond.Weighted>
0.0000

> <Gold.Chemscore.DEClash.Weighted>
0.2826

> <Gold.Chemscore.DEInternal.Weighted>
2.6571

> <Gold.Chemscore.Rot.Weighted>
5.4231

> <Gold.Chemscore.Internal.Correction.Weighted>
   9.000000E+99

> <Gold.Protein.RotatedTorsions>
[ 6907 6896 6895 6894 ] final    5.54 input  -60.11 | X-H torsion
[ 7974 7965 7964 7962 ] final  157.83 input  175.53 | X-H torsion
[ 8008 7997 7996 7995 ] final -178.11 input   59.86 | X-H torsion
[ 10167 10162 10161 10158 ] final   69.48 input  -65.29 | X-H torsion
[ 10718 10713 10712 10709 ] final  -32.48 input   66.30 | X-H torsion
[ 10763 10752 10751 10750 ] final -135.22 input  -60.55 | X-H torsion
[ 11005 11000 10999 10996 ] final -148.55 input  -57.11 | X-H torsion

> <Gold.Protein.ActiveResidues>
 VAL166  LYS551  ARG553  GLY616  TRP617  ASP618  TYR619  PRO620  LYS621  CYS622 
 ASP623  PHE694  ASN695  SER759  ASP760  ASP761  ALA762  ILE779  LEU786  VAL792 
 PHE793  MET794  SER795  GLU796  ALA797  LYS798  CYS799  TRP800  GLU811  SER814 

> <Gold.Protein.RotatedAtoms>
  151.6592  135.0991  160.0175 H   0  0  0  0  0  0  0  0  0  0  0  0  # atno 6907 bound_to 6896
  152.3956  133.6738  159.6282 H   0  0  0  0  0  0  0  0  0  0  0  0  # atno 6908 bound_to 6896
  150.7864  133.8796  159.3323 H   0  0  0  0  0  0  0  0  0  0  0  0  # atno 6909 bound_to 6896
  144.7880  139.7394  143.6233 H   0  0  0  0  0  0  0  0  0  0  0  0  # atno 7974 bound_to 7965
  156.0149  140.1248  157.0416 H   0  0  0  0  0  0  0  0  0  0  0  0  # atno 8008 bound_to 7997
  154.4289  140.1080  156.5951 H   0  0  0  0  0  0  0  0  0  0  0  0  # atno 8009 bound_to 7997
  155.6027  140.3470  155.4601 H   0  0  0  0  0  0  0  0  0  0  0  0  # atno 8010 bound_to 7997
  140.0673  144.5182  150.7252 H   0  0  0  0  0  0  0  0  0  0  0  0  # atno 10167 bound_to 10162
  156.3743  130.4345  149.7520 H   0  0  0  0  0  0  0  0  0  0  0  0  # atno 10718 bound_to 10713
  154.8706  135.3710  154.4862 H   0  0  0  0  0  0  0  0  0  0  0  0  # atno 10763 bound_to 10752
  153.5512  135.7025  153.5595 H   0  0  0  0  0  0  0  0  0  0  0  0  # atno 10764 bound_to 10752
  153.3713  135.4020  155.1754 H   0  0  0  0  0  0  0  0  0  0  0  0  # atno 10765 bound_to 10752
  140.7601  134.3308  157.5104 H   0  0  0  0  0  0  0  0  0  0  0  0  # atno 11005 bound_to 11000
  146.2121  139.5484  142.9674 LP  0  0  0  0  0  0  0  0  0  0  0  0  # atno 17320 bound_to 7965
  145.5869  141.0375  143.2091 LP  0  0  0  0  0  0  0  0  0  0  0  0  # atno 17321 bound_to 7965
  140.7143  143.2531  151.4485 LP  0  0  0  0  0  0  0  0  0  0  0  0  # atno 17342 bound_to 10162
  139.5857  144.1610  152.2026 LP  0  0  0  0  0  0  0  0  0  0  0  0  # atno 17343 bound_to 10162
  156.4635  130.7963  151.2982 LP  0  0  0  0  0  0  0  0  0  0  0  0  # atno 17370 bound_to 10713
  157.7487  131.0058  150.3128 LP  0  0  0  0  0  0  0  0  0  0  0  0  # atno 17371 bound_to 10713
  139.8772  134.9196  156.3232 LP  0  0  0  0  0  0  0  0  0  0  0  0  # atno 17394 bound_to 11000
  140.9671  133.7351  156.0482 LP  0  0  0  0  0  0  0  0  0  0  0  0  # atno 17395 bound_to 11000

$$$$
