AV-unprocessed.smi:711|AV-procd|sdf|3465|dock9
  -GOLD-   22720 0453D 1   1.00000     0.00000
 Structure written by MMmdl.
 29 30  0  0  0  0  0  0  0  0  1 V2000
  146.9946  141.3298  152.8466 O   0  0  0  0  0  0  0  0  0  0  0  0
  147.6619  141.3007  153.8787 C   0  0  0  0  0  0  0  0  0  0  0  0
  148.9509  140.7597  153.8590 N   0  0  0  0  0  0  0  0  0  0  0  0
  149.8113  140.6679  154.9536 C   0  0  0  0  0  0  0  0  0  0  0  0
  150.9250  140.1626  154.8144 O   0  0  0  0  0  0  0  0  0  0  0  0
  149.3321  141.1758  156.1834 N   0  0  0  0  0  0  0  0  0  0  0  0
  150.1909  141.0922  157.3406 C   0  0  0  0  0  0  0  0  0  0  0  0
  151.3168  142.1487  157.3451 C   0  0  1  0  0  0  0  0  0  0  0  0
  150.7974  143.3879  156.9030 O   0  0  0  0  0  0  0  0  0  0  0  0
  151.9327  142.2677  158.7340 C   0  0  0  0  0  0  0  0  0  0  0  0
  151.7995  143.4635  159.4756 C   0  0  0  0  0  0  0  0  0  0  0  0
  152.3533  143.5672  160.7662 C   0  0  0  0  0  0  0  0  0  0  0  0
  153.0407  142.4745  161.3272 C   0  0  0  0  0  0  0  0  0  0  0  0
  153.5717  142.5729  162.5689 F   0  0  0  0  0  0  0  0  0  0  0  0
  153.1722  141.2782  160.5971 C   0  0  0  0  0  0  0  0  0  0  0  0
  152.6183  141.1718  159.3063 C   0  0  0  0  0  0  0  0  0  0  0  0
  152.7442  140.0080  158.6240 F   0  0  0  0  0  0  0  0  0  0  0  0
  148.0553  141.7123  156.2517 C   0  0  0  0  0  0  0  0  0  0  0  0
  147.2254  141.7946  155.1840 C   0  0  0  0  0  0  0  0  0  0  0  0
  145.6482  142.4790  155.3498 Cl  0  0  0  0  0  0  0  0  0  0  0  0
  149.2884  140.4034  152.9766 H   0  0  0  0  0  0  0  0  0  0  0  0
  149.5847  141.0892  158.2489 H   0  0  0  0  0  0  0  0  0  0  0  0
  150.6215  140.0909  157.2779 H   0  0  0  0  0  0  0  0  0  0  0  0
  152.0968  141.8578  156.6404 H   0  0  0  0  0  0  0  0  0  0  0  0
  150.9247  144.0283  157.5862 H   0  0  0  0  0  0  0  0  0  0  0  0
  151.2670  144.3063  159.0595 H   0  0  0  0  0  0  0  0  0  0  0  0
  152.2480  144.4844  161.3268 H   0  0  0  0  0  0  0  0  0  0  0  0
  153.6955  140.4382  161.0293 H   0  0  0  0  0  0  0  0  0  0  0  0
  147.7011  142.0827  157.2037 H   0  0  0  0  0  0  0  0  0  0  0  0
  1  2  2  0  0  0  0
  2 19  1  0  0  0  0
  2  3  1  0  0  0  0
  3 21  1  0  0  0  0
  3  4  1  0  0  0  0
  4  5  2  0  0  0  0
  4  6  1  0  0  0  0
  6  7  1  0  0  0  0
  6 18  1  0  0  0  0
  7  8  1  0  0  0  0
  7 22  1  0  0  0  0
  7 23  1  0  0  0  0
  8  9  1  0  0  0  0
  8 10  1  0  0  0  0
  8 24  1  0  0  0  0
  9 25  1  0  0  0  0
 10 16  1  0  0  0  0
 10 11  2  0  0  0  0
 11 12  1  0  0  0  0
 11 26  1  0  0  0  0
 12 13  2  0  0  0  0
 12 27  1  0  0  0  0
 13 14  1  0  0  0  0
 13 15  1  0  0  0  0
 15 16  2  0  0  0  0
 15 28  1  0  0  0  0
 16 17  1  0  0  0  0
 18 19  2  0  0  0  0
 18 29  1  0  0  0  0
 19 20  1  0  0  0  0
M  END
> <s_m_source_file>
AV-unprocessed.smi

> <i_m_source_file_index>
711

> <i_lp_mmshare_version>
43012

> <i_f3d_flags>
0

> <s_epik_input>
Tz1jMVtuSF1jKD1PKW4oW2NIXWMxQ2wpW0NIMl1bQ0BIXShbT0hdKWMyW2NIXVtjSF1jKEYpW2NIXWMyRg==

> <s_epik_cmdline>
J2VwaWtfcHl0aG9uJywgJy1waCcsICc3LjAnLCAnLXRuJywgJzgnLCAnLW1hJywgJzIwMCcsICctbWV0YWxfYmluZGluZycsICctaW1hZScsICc8aW5maWxlLm1hZT4nLCAnLW9tYWUnLCAnPG91dGZpbGUubWFlPic=

> <r_lp_tautomer_probability>
0.999537

> <r_epik_Ionization_Penalty>
0.0292058

> <r_epik_Ionization_Penalty_Charging>
0.0292057

> <r_epik_Ionization_Penalty_Neutral>
9.07348e-08

> <r_epik_State_Penalty>
0.0240115

> <r_epik_Charging_Adjusted_Penalty>
0.0532172

> <i_epik_Tot_Q>
0

> <i_epik_Tot_abs_Q>
0

> <r_epik_Metal_State_Penalty>
2.21956

> <b_epik_Metal_Only>
0

> <s_lp_Force_Field>
OPLS_2005

> <r_lp_Energy>
13.2316

> <b_lp_Chiralities_Consistent>
1

> <s_lp_Variant>
AV-unprocessed.smi:711-2

> <Gold.Version>
5.8.1

> <Gold.Id.Protein>
6NUR|6NUR_protein|mol2

> <Gold.PLP.Fitness>
47.6384

> <Gold.PLP.PLP>
-42.4561

> <Gold.PLP.part.hbond>
-3.0000

> <Gold.PLP.part.metal>
0.0000

> <Gold.PLP.part.buried>
-4.7618

> <Gold.PLP.part.nonpolar>
-35.0916

> <Gold.PLP.part.repulsive>
0.4365

> <Gold.PLP.ligand.clash>
0.0000

> <Gold.PLP.ligand.torsion>
0.4171

> <Gold.PLP.Chemscore.Hbond>
2.0000

> <Gold.PLP.Chemscore.CHOScore>
0.0000

> <Gold.PLP.Chemscore.Metal>
0.0000

> <Gold.Chemscore.Hbonds>
donor molecule, donor type, donor heavy atom, donor atom, acceptor molecule, acceptor atom, score
      L1  H     3    21       P1  7957  1.00
      P1  H  7989  7998       L1     5  1.00

> <Gold.PLP.Chemscore.Internal.Correction>
0.0166

> <Gold.Rescore>
     Score         DG    S(hbond)    S(metal)    S(lipo)     H(rot)  DE(clash)    DE(int)     intcor
     15.04     -15.50       1.92        0.00      82.67       2.37       0.12       0.33       ----

> <Gold.Chemscore.Fitness>
15.0426

> <Gold.Chemscore.DG>
-15.4951

> <Gold.Chemscore.ZeroCoef>
-5.4800

> <Gold.Chemscore.Hbond>
1.9154

> <Gold.Chemscore.Metal>
0.0000

> <Gold.Chemscore.Lipo>
82.6711

> <Gold.Chemscore.Internal_Hbond>
0.0000

> <Gold.Chemscore.DEClash>
0.1195

> <Gold.Chemscore.DEInternal>
0.3330

> <Gold.Chemscore.Rot>
2.3652

> <Gold.Chemscore.Internal.Correction>
   9.000000E+99

> <Gold.Chemscore.Hbonds>
donor molecule, donor type, donor heavy atom, donor atom, acceptor molecule, acceptor atom, score
      L1  H     3    21       P1  7957  1.00
      P1  H  7989  7998       L1     5  0.65

> <Gold.Chemscore.Hbond.Weighted>
-6.3974

> <Gold.Chemscore.Metal.Weighted>
-0.0000

> <Gold.Chemscore.Lipo.Weighted>
-9.6725

> <Gold.Chemscore.Internal_Hbond.Weighted>
0.0000

> <Gold.Chemscore.DEClash.Weighted>
0.1195

> <Gold.Chemscore.DEInternal.Weighted>
0.3330

> <Gold.Chemscore.Rot.Weighted>
6.0548

> <Gold.Chemscore.Internal.Correction.Weighted>
   9.000000E+99

> <Gold.Protein.RotatedTorsions>
[ 6907 6896 6895 6894 ] final  133.04 input  -60.11 | X-H torsion
[ 7974 7965 7964 7962 ] final  151.02 input  175.53 | X-H torsion
[ 8008 7997 7996 7995 ] final  -35.21 input   59.86 | X-H torsion
[ 10167 10162 10161 10158 ] final    8.31 input  -65.29 | X-H torsion
[ 10718 10713 10712 10709 ] final -135.04 input   66.30 | X-H torsion
[ 10763 10752 10751 10750 ] final -126.83 input  -60.55 | X-H torsion
[ 11005 11000 10999 10996 ] final  -78.31 input  -57.11 | X-H torsion

> <Gold.Protein.ActiveResidues>
 VAL166  LYS551  ARG553  GLY616  TRP617  ASP618  TYR619  PRO620  LYS621  CYS622 
 ASP623  PHE694  ASN695  SER759  ASP760  ASP761  ALA762  ILE779  LEU786  VAL792 
 PHE793  MET794  SER795  GLU796  ALA797  LYS798  CYS799  TRP800  GLU811  SER814 

> <Gold.Protein.RotatedAtoms>
  152.3261  133.5907  159.5777 H   0  0  0  0  0  0  0  0  0  0  0  0  # atno 6907 bound_to 6896
  150.7397  133.9938  159.3624 H   0  0  0  0  0  0  0  0  0  0  0  0  # atno 6908 bound_to 6896
  151.7817  135.0760  160.0426 H   0  0  0  0  0  0  0  0  0  0  0  0  # atno 6909 bound_to 6896
  144.8322  139.6484  143.6054 H   0  0  0  0  0  0  0  0  0  0  0  0  # atno 7974 bound_to 7965
  154.4101  140.1663  156.2174 H   0  0  0  0  0  0  0  0  0  0  0  0  # atno 8008 bound_to 7997
  155.9393  140.3409  155.6290 H   0  0  0  0  0  0  0  0  0  0  0  0  # atno 8009 bound_to 7997
  155.7009  140.0745  157.2401 H   0  0  0  0  0  0  0  0  0  0  0  0  # atno 8010 bound_to 7997
  140.6321  143.7969  150.7310 H   0  0  0  0  0  0  0  0  0  0  0  0  # atno 10167 bound_to 10162
  156.2619  130.7215  151.1152 H   0  0  0  0  0  0  0  0  0  0  0  0  # atno 10718 bound_to 10713
  154.8748  135.3982  154.3494 H   0  0  0  0  0  0  0  0  0  0  0  0  # atno 10763 bound_to 10752
  153.4282  135.7024  153.6253 H   0  0  0  0  0  0  0  0  0  0  0  0  # atno 10764 bound_to 10752
  153.4886  135.3753  155.2450 H   0  0  0  0  0  0  0  0  0  0  0  0  # atno 10765 bound_to 10752
  141.1664  133.7058  156.7952 H   0  0  0  0  0  0  0  0  0  0  0  0  # atno 11005 bound_to 11000
  146.2624  139.6440  142.9353 LP  0  0  0  0  0  0  0  0  0  0  0  0  # atno 17320 bound_to 7965
  145.4871  141.0438  143.2613 LP  0  0  0  0  0  0  0  0  0  0  0  0  # atno 17321 bound_to 7965
  140.1583  143.4298  152.2084 LP  0  0  0  0  0  0  0  0  0  0  0  0  # atno 17342 bound_to 10162
  139.5534  144.7355  151.4365 LP  0  0  0  0  0  0  0  0  0  0  0  0  # atno 17343 bound_to 10162
  157.7254  131.0653  150.5956 LP  0  0  0  0  0  0  0  0  0  0  0  0  # atno 17370 bound_to 10713
  156.6044  130.4363  149.5884 LP  0  0  0  0  0  0  0  0  0  0  0  0  # atno 17371 bound_to 10713
  140.2296  134.8695  157.3463 LP  0  0  0  0  0  0  0  0  0  0  0  0  # atno 17394 bound_to 11000
  140.1904  134.4378  155.7719 LP  0  0  0  0  0  0  0  0  0  0  0  0  # atno 17395 bound_to 11000

$$$$
