AV-unprocessed.smi:928|AV-procd|sdf|4192|dock8
  -GOLD-   22720 2 93D 1   1.00000     0.00000
 Structure written by MMmdl.
 43 44  0  0  0  0  0  0  0  0  1 V2000
  150.2261  141.3357  155.4323 C   0  0  0  0  0  0  0  0  0  0  0  0
  151.4438  140.4262  155.6355 C   0  0  0  0  0  0  0  0  0  0  0  0
  151.1254  138.9805  155.4460 C   0  0  0  0  0  0  0  0  0  0  0  0
  151.6016  138.1361  154.4734 C   0  0  0  0  0  0  0  0  0  0  0  0
  151.1595  136.8175  154.6032 N   0  0  0  0  0  0  0  0  0  0  0  0
  150.3556  136.6518  155.6559 C   0  0  0  0  0  0  0  0  0  0  0  0
  149.8465  135.3185  156.1028 C   0  0  0  0  0  0  0  0  0  0  0  0
  150.0582  134.1902  155.0701 C   0  0  0  0  0  0  0  0  0  0  0  0
  149.1531  134.3002  153.9269 N   0  0  0  0  0  0  0  0  0  0  0  0
  148.1074  133.4944  153.6885 C   0  0  0  0  0  0  0  0  0  0  0  0
  147.8422  132.4906  154.3499 O   0  0  0  0  0  0  0  0  0  0  0  0
  147.3501  133.9475  152.6807 N   0  0  0  0  0  0  0  0  0  0  0  0
  146.0587  133.3873  152.2894 C   0  0  1  0  0  0  0  0  0  0  0  0
  145.2292  134.4304  151.5173 C   0  0  0  0  0  0  0  0  0  0  0  0
  143.8548  133.8620  151.1299 C   0  0  0  0  0  0  0  0  0  0  0  0
  143.9969  132.5649  150.3173 C   0  0  0  0  0  0  0  0  0  0  0  0
  144.8410  131.5172  151.0669 C   0  0  0  0  0  0  0  0  0  0  0  0
  146.2157  132.0698  151.4929 C   0  0  1  0  0  0  0  0  0  0  0  0
  147.0127  132.2706  150.3403 O   0  0  0  0  0  0  0  0  0  0  0  0
  150.0520  138.1457  156.5377 S   0  0  0  0  0  0  0  0  0  0  0  0
  150.4907  142.3814  155.5896 H   0  0  0  0  0  0  0  0  0  0  0  0
  149.4272  141.0847  156.1308 H   0  0  0  0  0  0  0  0  0  0  0  0
  149.8265  141.2423  154.4220 H   0  0  0  0  0  0  0  0  0  0  0  0
  152.2334  140.7173  154.9421 H   0  0  0  0  0  0  0  0  0  0  0  0
  151.8469  140.5830  156.6366 H   0  0  0  0  0  0  0  0  0  0  0  0
  152.2782  138.3828  153.6686 H   0  0  0  0  0  0  0  0  0  0  0  0
  150.3466  135.0582  157.0363 H   0  0  0  0  0  0  0  0  0  0  0  0
  148.7858  135.4093  156.3387 H   0  0  0  0  0  0  0  0  0  0  0  0
  151.0830  134.2205  154.7000 H   0  0  0  0  0  0  0  0  0  0  0  0
  149.9408  133.2190  155.5540 H   0  0  0  0  0  0  0  0  0  0  0  0
  149.2848  135.0962  153.3202 H   0  0  0  0  0  0  0  0  0  0  0  0
  147.6488  134.7814  152.1965 H   0  0  0  0  0  0  0  0  0  0  0  0
  145.5055  133.1596  153.2032 H   0  0  0  0  0  0  0  0  0  0  0  0
  145.0953  135.3255  152.1259 H   0  0  0  0  0  0  0  0  0  0  0  0
  145.7619  134.7452  150.6188 H   0  0  0  0  0  0  0  0  0  0  0  0
  143.2737  133.6666  152.0323 H   0  0  0  0  0  0  0  0  0  0  0  0
  143.2953  134.6010  150.5560 H   0  0  0  0  0  0  0  0  0  0  0  0
  143.0107  132.1557  150.0969 H   0  0  0  0  0  0  0  0  0  0  0  0
  144.4579  132.7873  149.3542 H   0  0  0  0  0  0  0  0  0  0  0  0
  144.2970  131.1964  151.9563 H   0  0  0  0  0  0  0  0  0  0  0  0
  144.9664  130.6260  150.4507 H   0  0  0  0  0  0  0  0  0  0  0  0
  146.7186  131.3245  152.1102 H   0  0  0  0  0  0  0  0  0  0  0  0
  147.8483  131.8522  150.4812 H   0  0  0  0  0  0  0  0  0  0  0  0
  1  2  1  0  0  0  0
  1 21  1  0  0  0  0
  1 22  1  0  0  0  0
  1 23  1  0  0  0  0
  2  3  1  0  0  0  0
  2 24  1  0  0  0  0
  2 25  1  0  0  0  0
  3 20  1  0  0  0  0
  3  4  2  0  0  0  0
  4  5  1  0  0  0  0
  4 26  1  0  0  0  0
  5  6  2  0  0  0  0
  6  7  1  0  0  0  0
  6 20  1  0  0  0  0
  7  8  1  0  0  0  0
  7 27  1  0  0  0  0
  7 28  1  0  0  0  0
  8  9  1  0  0  0  0
  8 29  1  0  0  0  0
  8 30  1  0  0  0  0
  9 10  1  0  0  0  0
  9 31  1  0  0  0  0
 10 11  2  0  0  0  0
 10 12  1  0  0  0  0
 12 13  1  0  0  0  0
 12 32  1  0  0  0  0
 13 18  1  0  0  0  0
 13 14  1  0  0  0  0
 13 33  1  0  0  0  0
 14 15  1  0  0  0  0
 14 34  1  0  0  0  0
 14 35  1  0  0  0  0
 15 16  1  0  0  0  0
 15 36  1  0  0  0  0
 15 37  1  0  0  0  0
 16 17  1  0  0  0  0
 16 38  1  0  0  0  0
 16 39  1  0  0  0  0
 17 18  1  0  0  0  0
 17 40  1  0  0  0  0
 17 41  1  0  0  0  0
 18 19  1  0  0  0  0
 18 42  1  0  0  0  0
 19 43  1  0  0  0  0
M  END
> <s_m_source_file>
AV-unprocessed.smi

> <i_m_source_file_index>
928

> <i_lp_mmshare_version>
43012

> <i_f3d_flags>
0

> <s_epik_input>
W0NIM11bQ0gyXWMxW2NIXW5jKHMxKVtDSDJdW0NIMl1bTkhdQyg9TylbTkhdW0NAQEhdMltDSDJdW0NIMl1bQ0gyXVtDSDJdW0NASF0yW09IXQ==

> <s_epik_cmdline>
J2VwaWtfcHl0aG9uJywgJy1waCcsICc3LjAnLCAnLXRuJywgJzgnLCAnLW1hJywgJzIwMCcsICctbWV0YWxfYmluZGluZycsICctaW1hZScsICc8aW5maWxlLm1hZT4nLCAnLW9tYWUnLCAnPG91dGZpbGUubWFlPic=

> <r_epik_Ionization_Penalty>
0.000957396

> <r_epik_Ionization_Penalty_Charging>
0

> <r_epik_Ionization_Penalty_Neutral>
0.000957396

> <r_epik_State_Penalty>
0.000586538

> <r_epik_Charging_Adjusted_Penalty>
0.000586538

> <i_epik_Tot_Q>
0

> <i_epik_Tot_abs_Q>
0

> <r_epik_Metal_State_Penalty>
-0

> <b_epik_Metal_Only>
0

> <s_lp_Force_Field>
OPLS_2005

> <r_lp_Energy>
0.733769

> <b_lp_Chiralities_Consistent>
1

> <s_lp_Variant>
AV-unprocessed.smi:928-2

> <Gold.Version>
5.8.1

> <Gold.Id.Protein>
6NUR|6NUR_protein|mol2

> <Gold.PLP.Fitness>
47.6459

> <Gold.PLP.PLP>
-37.9876

> <Gold.PLP.part.hbond>
-3.9392

> <Gold.PLP.part.metal>
0.0000

> <Gold.PLP.part.buried>
-5.0069

> <Gold.PLP.part.nonpolar>
-28.6836

> <Gold.PLP.part.repulsive>
0.4365

> <Gold.PLP.ligand.clash>
0.0000

> <Gold.PLP.ligand.torsion>
0.5227

> <Gold.PLP.Chemscore.Hbond>
3.5500

> <Gold.PLP.Chemscore.CHOScore>
0.0000

> <Gold.PLP.Chemscore.Metal>
0.0000

> <Gold.Chemscore.Hbonds>
donor molecule, donor type, donor heavy atom, donor atom, acceptor molecule, acceptor atom, score
      L1  H     9    31       P1  7948  0.75
      L1  H    12    32       P1  7948  1.00
      L1  H    19    43       P1 10747  0.96
      P1  H 10752 10764       L1     5  0.73

> <Gold.PLP.Chemscore.Internal.Correction>
0.0537

> <Gold.Rescore>
     Score         DG    S(hbond)    S(metal)    S(lipo)     H(rot)  DE(clash)    DE(int)     intcor
     17.26     -18.02       2.66        0.00      79.51       2.21       0.02       0.74       ----

> <Gold.Chemscore.Fitness>
17.2601

> <Gold.Chemscore.DG>
-18.0244

> <Gold.Chemscore.ZeroCoef>
-5.4800

> <Gold.Chemscore.Hbond>
2.6632

> <Gold.Chemscore.Metal>
0.0000

> <Gold.Chemscore.Lipo>
79.5111

> <Gold.Chemscore.Internal_Hbond>
0.0000

> <Gold.Chemscore.DEClash>
0.0202

> <Gold.Chemscore.DEInternal>
0.7440

> <Gold.Chemscore.Rot>
2.2084

> <Gold.Chemscore.Internal.Correction>
   9.000000E+99

> <Gold.Chemscore.Hbonds>
donor molecule, donor type, donor heavy atom, donor atom, acceptor molecule, acceptor atom, score
      L1  H     9    31       P1  7948  0.09
      L1  H    12    32       P1  7948  0.75
      L1  H    19    43       P1 10747  0.89
      P1  H 10752 10764       L1     5  0.34

> <Gold.Chemscore.Hbond.Weighted>
-8.8951

> <Gold.Chemscore.Metal.Weighted>
-0.0000

> <Gold.Chemscore.Lipo.Weighted>
-9.3028

> <Gold.Chemscore.Internal_Hbond.Weighted>
0.0000

> <Gold.Chemscore.DEClash.Weighted>
0.0202

> <Gold.Chemscore.DEInternal.Weighted>
0.7440

> <Gold.Chemscore.Rot.Weighted>
5.6535

> <Gold.Chemscore.Internal.Correction.Weighted>
   9.000000E+99

> <Gold.Protein.RotatedTorsions>
[ 6907 6896 6895 6894 ] final -133.78 input  -60.11 | X-H torsion
[ 7974 7965 7964 7962 ] final  117.02 input  175.53 | X-H torsion
[ 8008 7997 7996 7995 ] final   75.25 input   59.86 | X-H torsion
[ 10167 10162 10161 10158 ] final   -7.85 input  -65.29 | X-H torsion
[ 10718 10713 10712 10709 ] final  -14.15 input   66.30 | X-H torsion
[ 10763 10752 10751 10750 ] final  -63.78 input  -60.55 | X-H torsion
[ 11005 11000 10999 10996 ] final -116.12 input  -57.11 | X-H torsion

> <Gold.Protein.ActiveResidues>
 VAL166  LYS551  ARG553  GLY616  TRP617  ASP618  TYR619  PRO620  LYS621  CYS622 
 ASP623  PHE694  ASN695  SER759  ASP760  ASP761  ALA762  ILE779  LEU786  VAL792 
 PHE793  MET794  SER795  GLU796  ALA797  LYS798  CYS799  TRP800  GLU811  SER814 

> <Gold.Protein.RotatedAtoms>
  150.9781  133.6274  159.2726 H   0  0  0  0  0  0  0  0  0  0  0  0  # atno 6907 bound_to 6896
  151.3539  135.0889  159.9422 H   0  0  0  0  0  0  0  0  0  0  0  0  # atno 6908 bound_to 6896
  152.5206  133.9368  159.7661 H   0  0  0  0  0  0  0  0  0  0  0  0  # atno 6909 bound_to 6896
  145.1725  139.3094  143.4460 H   0  0  0  0  0  0  0  0  0  0  0  0  # atno 7974 bound_to 7965
  155.8102  140.3473  155.5453 H   0  0  0  0  0  0  0  0  0  0  0  0  # atno 8008 bound_to 7997
  155.8448  140.0947  157.1732 H   0  0  0  0  0  0  0  0  0  0  0  0  # atno 8009 bound_to 7997
  154.4006  140.1387  156.3760 H   0  0  0  0  0  0  0  0  0  0  0  0  # atno 8010 bound_to 7997
  140.7041  143.6035  150.8774 H   0  0  0  0  0  0  0  0  0  0  0  0  # atno 10167 bound_to 10162
  156.6201  130.4873  149.6168 H   0  0  0  0  0  0  0  0  0  0  0  0  # atno 10718 bound_to 10713
  154.3201  135.6198  153.5504 H   0  0  0  0  0  0  0  0  0  0  0  0  # atno 10763 bound_to 10752
  152.9821  135.5722  154.5079 H   0  0  0  0  0  0  0  0  0  0  0  0  # atno 10764 bound_to 10752
  154.4746  135.2860  155.1594 H   0  0  0  0  0  0  0  0  0  0  0  0  # atno 10765 bound_to 10752
  141.0443  133.9787  157.2944 H   0  0  0  0  0  0  0  0  0  0  0  0  # atno 11005 bound_to 11000
  146.3466  140.1876  142.8589 LP  0  0  0  0  0  0  0  0  0  0  0  0  # atno 17320 bound_to 7965
  145.0218  140.8800  143.5162 LP  0  0  0  0  0  0  0  0  0  0  0  0  # atno 17321 bound_to 7965
  139.9759  143.6005  152.2959 LP  0  0  0  0  0  0  0  0  0  0  0  0  # atno 17342 bound_to 10162
  139.6608  144.7662  151.1966 LP  0  0  0  0  0  0  0  0  0  0  0  0  # atno 17343 bound_to 10162
  156.2318  130.6799  151.1471 LP  0  0  0  0  0  0  0  0  0  0  0  0  # atno 17370 bound_to 10713
  157.7230  131.0669  150.6055 LP  0  0  0  0  0  0  0  0  0  0  0  0  # atno 17371 bound_to 10713
  139.9299  135.0200  156.8365 LP  0  0  0  0  0  0  0  0  0  0  0  0  # atno 17394 bound_to 11000
  140.6177  134.0023  155.7604 LP  0  0  0  0  0  0  0  0  0  0  0  0  # atno 17395 bound_to 11000

$$$$
