AV-unprocessed.smi:2451|AV-procd|sdf|9670|dock10
  -GOLD-   2272013313D 1   1.00000     0.00000
 Structure written by MMmdl.
 38 39  0  0  0  0  0  0  0  0  1 V2000
  151.9122  145.5969  159.5774 C   0  0  0  0  0  0  0  0  0  0  0  0
  152.2781  144.1484  159.2140 C   0  0  1  0  0  0  0  0  0  0  0  0
  152.4933  143.2790  160.4714 C   0  0  0  0  0  0  0  0  0  0  0  0
  152.9564  141.8578  160.1087 C   0  0  0  0  0  0  0  0  0  0  0  0
  152.0008  141.1845  159.1113 C   0  0  0  0  0  0  0  0  0  0  0  0
  151.7989  142.0685  157.8678 C   0  0  1  0  0  0  0  0  0  0  0  0
  150.9165  141.4055  156.9037 N   0  0  0  0  0  0  0  0  0  0  0  0
  151.4175  139.9054  156.2184 S   0  0  0  0  0  0  0  0  0  0  0  0
  151.2576  140.0082  154.7595 O   0  0  0  0  0  0  0  0  0  0  0  0
  152.7321  139.5770  156.7909 O   0  0  0  0  0  0  0  0  0  0  0  0
  150.1593  138.7275  156.8678 C   0  0  0  0  0  0  0  0  0  0  0  0
  150.4742  137.3392  156.3887 C   0  0  0  0  0  0  0  0  0  0  0  0
  149.7279  136.5200  155.4968 C   0  0  0  0  0  0  0  0  0  0  0  0
  150.4700  135.3769  155.4172 C   0  0  0  0  0  0  0  0  0  0  0  0
  151.5775  135.4746  156.1951 O   0  0  0  0  0  0  0  0  0  0  0  0
  151.5706  136.7304  156.8125 N   0  0  0  0  0  0  0  0  0  0  0  0
  151.2821  143.4846  158.2253 C   0  0  1  0  0  0  0  0  0  0  0  0
  149.8221  143.4871  158.7364 C   0  0  0  0  0  0  0  0  0  0  0  0
  151.0095  145.6482  160.1862 H   0  0  0  0  0  0  0  0  0  0  0  0
  151.7511  146.1991  158.6829 H   0  0  0  0  0  0  0  0  0  0  0  0
  152.7141  146.0666  160.1479 H   0  0  0  0  0  0  0  0  0  0  0  0
  153.2392  144.2040  158.7000 H   0  0  0  0  0  0  0  0  0  0  0  0
  153.2372  143.7436  161.1194 H   0  0  0  0  0  0  0  0  0  0  0  0
  151.5743  143.2279  161.0563 H   0  0  0  0  0  0  0  0  0  0  0  0
  153.9561  141.9035  159.6750 H   0  0  0  0  0  0  0  0  0  0  0  0
  153.0398  141.2519  161.0113 H   0  0  0  0  0  0  0  0  0  0  0  0
  152.4052  140.2150  158.8181 H   0  0  0  0  0  0  0  0  0  0  0  0
  151.0443  140.9836  159.5944 H   0  0  0  0  0  0  0  0  0  0  0  0
  152.7760  142.1853  157.3958 H   0  0  0  0  0  0  0  0  0  0  0  0
  149.9598  141.3535  157.2530 H   0  0  0  0  0  0  0  0  0  0  0  0
  150.1666  138.7842  157.9566 H   0  0  0  0  0  0  0  0  0  0  0  0
  149.1763  139.0488  156.5242 H   0  0  0  0  0  0  0  0  0  0  0  0
  148.7989  136.7395  154.9917 H   0  0  0  0  0  0  0  0  0  0  0  0
  150.3495  134.4497  154.8770 H   0  0  0  0  0  0  0  0  0  0  0  0
  151.2925  144.0736  157.3068 H   0  0  0  0  0  0  0  0  0  0  0  0
  149.7096  142.9366  159.6697 H   0  0  0  0  0  0  0  0  0  0  0  0
  149.1441  143.0393  158.0098 H   0  0  0  0  0  0  0  0  0  0  0  0
  149.4607  144.5007  158.9062 H   0  0  0  0  0  0  0  0  0  0  0  0
  1  2  1  0  0  0  0
  1 19  1  0  0  0  0
  1 20  1  0  0  0  0
  1 21  1  0  0  0  0
  2 17  1  0  0  0  0
  2  3  1  0  0  0  0
  2 22  1  0  0  0  0
  3  4  1  0  0  0  0
  3 23  1  0  0  0  0
  3 24  1  0  0  0  0
  4  5  1  0  0  0  0
  4 25  1  0  0  0  0
  4 26  1  0  0  0  0
  5  6  1  0  0  0  0
  5 27  1  0  0  0  0
  5 28  1  0  0  0  0
  6  7  1  0  0  0  0
  6 17  1  0  0  0  0
  6 29  1  0  0  0  0
  7  8  1  0  0  0  0
  7 30  1  0  0  0  0
  8  9  2  0  0  0  0
  8 10  2  0  0  0  0
  8 11  1  0  0  0  0
 11 12  1  0  0  0  0
 11 31  1  0  0  0  0
 11 32  1  0  0  0  0
 12 16  2  0  0  0  0
 12 13  1  0  0  0  0
 13 14  2  0  0  0  0
 13 33  1  0  0  0  0
 14 15  1  0  0  0  0
 14 34  1  0  0  0  0
 15 16  1  0  0  0  0
 17 18  1  0  0  0  0
 17 35  1  0  0  0  0
 18 36  1  0  0  0  0
 18 37  1  0  0  0  0
 18 38  1  0  0  0  0
M  END
> <s_m_source_file>
AV-unprocessed.smi

> <i_m_source_file_index>
2451

> <i_lp_mmshare_version>
43012

> <i_f3d_flags>
0

> <s_epik_input>
W0NIM11bQ0BASF0xW0NIMl1bQ0gyXVtDSDJdW0NASF0oW0NASF0xW0NIM10pW05IXVMoPU8pKD1PKVtDSDJdYzJbY0hdW2NIXW9uMg==

> <s_epik_cmdline>
J2VwaWtfcHl0aG9uJywgJy1waCcsICc3LjAnLCAnLXRuJywgJzgnLCAnLW1hJywgJzIwMCcsICctbWV0YWxfYmluZGluZycsICctaW1hZScsICc8aW5maWxlLm1hZT4nLCAnLW9tYWUnLCAnPG91dGZpbGUubWFlPic=

> <r_lp_tautomer_probability>
1

> <r_epik_Ionization_Penalty>
8.73668e-05

> <r_epik_Ionization_Penalty_Charging>
0

> <r_epik_Ionization_Penalty_Neutral>
8.73668e-05

> <r_epik_State_Penalty>
-0

> <r_epik_Charging_Adjusted_Penalty>
0

> <i_epik_Tot_Q>
0

> <i_epik_Tot_abs_Q>
0

> <r_epik_Metal_State_Penalty>
0.0716439

> <b_epik_Metal_Only>
0

> <s_lp_Force_Field>
OPLS_2005

> <r_lp_Energy>
8.89421

> <b_lp_Chiralities_Consistent>
1

> <s_lp_Variant>
AV-unprocessed.smi:2451-2

> <Gold.Version>
5.8.1

> <Gold.Id.Protein>
6NUR|6NUR_protein|mol2

> <Gold.PLP.Fitness>
43.5471

> <Gold.PLP.PLP>
-34.7263

> <Gold.PLP.part.hbond>
-2.9815

> <Gold.PLP.part.metal>
0.0000

> <Gold.PLP.part.buried>
-5.4143

> <Gold.PLP.part.nonpolar>
-26.1619

> <Gold.PLP.part.repulsive>
0.0848

> <Gold.PLP.ligand.clash>
0.0000

> <Gold.PLP.ligand.torsion>
0.1614

> <Gold.PLP.Chemscore.Hbond>
3.0000

> <Gold.PLP.Chemscore.CHOScore>
0.0000

> <Gold.PLP.Chemscore.Metal>
0.0000

> <Gold.Chemscore.Hbonds>
donor molecule, donor type, donor heavy atom, donor atom, acceptor molecule, acceptor atom, score
      P1  H  7989  7998       L1     9  1.00
      P1  H  7997  8008       L1    10  1.00
      P1  H 10752 10765       L1    15  1.00

> <Gold.PLP.Chemscore.Internal.Correction>
0.1434

> <Gold.Rescore>
     Score         DG    S(hbond)    S(metal)    S(lipo)     H(rot)  DE(clash)    DE(int)     intcor
     20.38     -21.79       2.78        0.00      96.31       1.66       0.01       1.40       ----

> <Gold.Chemscore.Fitness>
20.3762

> <Gold.Chemscore.DG>
-21.7865

> <Gold.Chemscore.ZeroCoef>
-5.4800

> <Gold.Chemscore.Hbond>
2.7799

> <Gold.Chemscore.Metal>
0.0000

> <Gold.Chemscore.Lipo>
96.3091

> <Gold.Chemscore.Internal_Hbond>
0.0000

> <Gold.Chemscore.DEClash>
0.0067

> <Gold.Chemscore.DEInternal>
1.4036

> <Gold.Chemscore.Rot>
1.6588

> <Gold.Chemscore.Internal.Correction>
   9.000000E+99

> <Gold.Chemscore.Hbonds>
donor molecule, donor type, donor heavy atom, donor atom, acceptor molecule, acceptor atom, score
      P1  H  7989  7998       L1     9  0.97
      P1  H  7997  8008       L1    10  1.00
      P1  H 10752 10765       L1    15  0.17

> <Gold.Chemscore.Hbond.Weighted>
-9.2849

> <Gold.Chemscore.Metal.Weighted>
-0.0000

> <Gold.Chemscore.Lipo.Weighted>
-11.2682

> <Gold.Chemscore.Internal_Hbond.Weighted>
0.0000

> <Gold.Chemscore.DEClash.Weighted>
0.0067

> <Gold.Chemscore.DEInternal.Weighted>
1.4036

> <Gold.Chemscore.Rot.Weighted>
4.2466

> <Gold.Chemscore.Internal.Correction.Weighted>
   9.000000E+99

> <Gold.Protein.RotatedTorsions>
[ 6907 6896 6895 6894 ] final -131.43 input  -60.11 | X-H torsion
[ 7974 7965 7964 7962 ] final    6.76 input  175.53 | X-H torsion
[ 8008 7997 7996 7995 ] final  -62.64 input   59.86 | X-H torsion
[ 10167 10162 10161 10158 ] final -106.27 input  -65.29 | X-H torsion
[ 10718 10713 10712 10709 ] final  131.68 input   66.30 | X-H torsion
[ 10763 10752 10751 10750 ] final -166.52 input  -60.55 | X-H torsion
[ 11005 11000 10999 10996 ] final   36.63 input  -57.11 | X-H torsion

> <Gold.Protein.ActiveResidues>
 VAL166  LYS551  ARG553  GLY616  TRP617  ASP618  TYR619  PRO620  LYS621  CYS622 
 ASP623  PHE694  ASN695  SER759  ASP760  ASP761  ALA762  ILE779  LEU786  VAL792 
 PHE793  MET794  SER795  GLU796  ALA797  LYS798  CYS799  TRP800  GLU811  SER814 

> <Gold.Protein.RotatedAtoms>
  150.9509  133.6550  159.2771 H   0  0  0  0  0  0  0  0  0  0  0  0  # atno 6907 bound_to 6896
  151.3907  135.0954  159.9535 H   0  0  0  0  0  0  0  0  0  0  0  0  # atno 6908 bound_to 6896
  152.5109  133.9024  159.7502 H   0  0  0  0  0  0  0  0  0  0  0  0  # atno 6909 bound_to 6896
  146.2432  140.0185  142.8400 H   0  0  0  0  0  0  0  0  0  0  0  0  # atno 7974 bound_to 7965
  154.4511  140.0992  156.6619 H   0  0  0  0  0  0  0  0  0  0  0  0  # atno 8008 bound_to 7997
  155.5284  140.3480  155.4402 H   0  0  0  0  0  0  0  0  0  0  0  0  # atno 8009 bound_to 7997
  156.0681  140.1343  156.9850 H   0  0  0  0  0  0  0  0  0  0  0  0  # atno 8010 bound_to 7997
  140.1895  143.3903  152.1217 H   0  0  0  0  0  0  0  0  0  0  0  0  # atno 10167 bound_to 10162
  157.4944  131.1092  150.9512 H   0  0  0  0  0  0  0  0  0  0  0  0  # atno 10718 bound_to 10713
  154.6824  135.2957  154.9594 H   0  0  0  0  0  0  0  0  0  0  0  0  # atno 10763 bound_to 10752
  154.0584  135.6635  153.4813 H   0  0  0  0  0  0  0  0  0  0  0  0  # atno 10764 bound_to 10752
  153.0556  135.5146  154.7875 H   0  0  0  0  0  0  0  0  0  0  0  0  # atno 10765 bound_to 10752
  140.2307  134.3531  155.7965 H   0  0  0  0  0  0  0  0  0  0  0  0  # atno 11005 bound_to 11000
  145.1263  140.9492  143.4571 LP  0  0  0  0  0  0  0  0  0  0  0  0  # atno 17320 bound_to 7965
  145.0432  139.3243  143.5966 LP  0  0  0  0  0  0  0  0  0  0  0  0  # atno 17321 bound_to 7965
  139.5262  144.7104  151.5223 LP  0  0  0  0  0  0  0  0  0  0  0  0  # atno 17342 bound_to 10162
  140.6465  143.8784  150.6742 LP  0  0  0  0  0  0  0  0  0  0  0  0  # atno 17343 bound_to 10162
  157.0203  130.5671  149.5330 LP  0  0  0  0  0  0  0  0  0  0  0  0  # atno 17370 bound_to 10713
  156.0192  130.5287  150.8226 LP  0  0  0  0  0  0  0  0  0  0  0  0  # atno 17371 bound_to 10713
  141.2218  133.7244  156.8726 LP  0  0  0  0  0  0  0  0  0  0  0  0  # atno 17394 bound_to 11000
  140.1754  134.9071  157.2884 LP  0  0  0  0  0  0  0  0  0  0  0  0  # atno 17395 bound_to 11000

$$$$
