AV-unprocessed.smi:1585|AV-procd|sdf|6370|dock4
  -GOLD-   22720 6593D 1   1.00000     0.00000
 Structure written by MMmdl.
 43 44  0  0  0  0  0  0  0  0  2 V2000
  152.2451  142.0491  158.6791 C   0  0  0  0  0  0  0  0  0  0  0  0
  151.7425  141.1569  157.5966 C   0  0  0  0  0  0  0  0  0  0  0  0
  150.6578  141.2200  156.7681 C   0  0  0  0  0  0  0  0  0  0  0  0
  150.7850  140.0357  155.9849 C   0  0  0  0  0  0  0  0  0  0  0  0
  149.8996  139.6031  154.9639 N   0  0  0  0  0  0  0  0  0  0  0  0
  148.8802  140.2747  154.4031 C   0  0  0  0  0  0  0  0  0  0  0  0
  148.5673  141.4388  154.6533 O   0  0  0  0  0  0  0  0  0  0  0  0
  148.2272  139.5138  153.5123 N   0  0  0  0  0  0  0  0  0  0  0  0
  147.0486  139.9314  152.7590 C   0  0  0  0  0  0  0  0  0  0  0  0
  146.4024  138.7610  151.9897 C   0  0  1  0  0  0  0  0  0  0  0  0
  147.3918  138.1811  151.1623 O   0  0  0  0  0  0  0  0  0  0  0  0
  145.8962  137.6676  152.9526 C   0  0  0  0  0  0  0  0  0  0  0  0
  146.0764  136.2956  152.4114 N   0  3  0  0  0  0  0  0  0  0  0  0
  146.0704  135.2644  153.4819 C   0  0  0  0  0  0  0  0  0  0  0  0
  146.4039  133.8727  152.9178 C   0  0  0  0  0  0  0  0  0  0  0  0
  145.4400  133.4906  151.7872 C   0  0  0  0  0  0  0  0  0  0  0  0
  145.4351  134.5842  150.7115 C   0  0  0  0  0  0  0  0  0  0  0  0
  145.1188  135.9593  151.3233 C   0  0  0  0  0  0  0  0  0  0  0  0
  151.8499  139.3249  156.3072 N   0  0  0  0  0  0  0  0  0  0  0  0
  152.4698  140.0364  157.3410 O   0  0  0  0  0  0  0  0  0  0  0  0
  151.6658  142.9714  158.7232 H   0  0  0  0  0  0  0  0  0  0  0  0
  153.2891  142.3130  158.5102 H   0  0  0  0  0  0  0  0  0  0  0  0
  152.1721  141.5572  159.6492 H   0  0  0  0  0  0  0  0  0  0  0  0
  149.9050  141.9933  156.7444 H   0  0  0  0  0  0  0  0  0  0  0  0
  150.0453  138.6574  154.6426 H   0  0  0  0  0  0  0  0  0  0  0  0
  148.5492  138.5678  153.3663 H   0  0  0  0  0  0  0  0  0  0  0  0
  146.3317  140.3963  153.4372 H   0  0  0  0  0  0  0  0  0  0  0  0
  147.3512  140.7152  152.0622 H   0  0  0  0  0  0  0  0  0  0  0  0
  145.5853  139.1275  151.3694 H   0  0  0  0  0  0  0  0  0  0  0  0
  147.8872  137.5612  151.6765 H   0  0  0  0  0  0  0  0  0  0  0  0
  146.4333  137.7666  153.8974 H   0  0  0  0  0  0  0  0  0  0  0  0
  144.8417  137.8210  153.1877 H   0  0  0  0  0  0  0  0  0  0  0  0
  146.8047  135.5222  154.2463 H   0  0  0  0  0  0  0  0  0  0  0  0
  145.0945  135.2506  153.9700 H   0  0  0  0  0  0  0  0  0  0  0  0
  147.4289  133.8649  152.5446 H   0  0  0  0  0  0  0  0  0  0  0  0
  146.3588  133.1278  153.7130 H   0  0  0  0  0  0  0  0  0  0  0  0
  145.7296  132.5337  151.3516 H   0  0  0  0  0  0  0  0  0  0  0  0
  144.4336  133.3613  152.1873 H   0  0  0  0  0  0  0  0  0  0  0  0
  146.4073  134.6180  150.2179 H   0  0  0  0  0  0  0  0  0  0  0  0
  144.7041  134.3426  149.9392 H   0  0  0  0  0  0  0  0  0  0  0  0
  144.1010  135.9681  151.7167 H   0  0  0  0  0  0  0  0  0  0  0  0
  145.1563  136.7103  150.5353 H   0  0  0  0  0  0  0  0  0  0  0  0
  147.0026  136.2747  152.0081 H   0  0  0  0  0  0  0  0  0  0  0  0
  1  2  1  0  0  0  0
  1 21  1  0  0  0  0
  1 22  1  0  0  0  0
  1 23  1  0  0  0  0
  2 20  1  0  0  0  0
  2  3  2  0  0  0  0
  3  4  1  0  0  0  0
  3 24  1  0  0  0  0
  4  5  1  0  0  0  0
  4 19  2  0  0  0  0
  5  6  1  0  0  0  0
  5 25  1  0  0  0  0
  6  7  2  0  0  0  0
  6  8  1  0  0  0  0
  8  9  1  0  0  0  0
  8 26  1  0  0  0  0
  9 10  1  0  0  0  0
  9 27  1  0  0  0  0
  9 28  1  0  0  0  0
 10 11  1  0  0  0  0
 10 12  1  0  0  0  0
 10 29  1  0  0  0  0
 11 30  1  0  0  0  0
 12 13  1  0  0  0  0
 12 31  1  0  0  0  0
 12 32  1  0  0  0  0
 13 18  1  0  0  0  0
 13 14  1  0  0  0  0
 13 43  1  0  0  0  0
 14 15  1  0  0  0  0
 14 33  1  0  0  0  0
 14 34  1  0  0  0  0
 15 16  1  0  0  0  0
 15 35  1  0  0  0  0
 15 36  1  0  0  0  0
 16 17  1  0  0  0  0
 16 37  1  0  0  0  0
 16 38  1  0  0  0  0
 17 18  1  0  0  0  0
 17 39  1  0  0  0  0
 17 40  1  0  0  0  0
 18 41  1  0  0  0  0
 18 42  1  0  0  0  0
 19 20  1  0  0  0  0
M  CHG  1  13   1
M  END
> <s_m_source_file>
AV-unprocessed.smi

> <i_m_source_file_index>
1585

> <i_lp_mmshare_version>
43012

> <i_f3d_flags>
0

> <s_epik_input>
W0NIM11jMVtjSF1jKG5vMSlbTkhdQyg9TylbTkhdW0NIMl1bQ0BIXShbT0hdKVtDSDJdTjJbQ0gyXVtDSDJdW0NIMl1bQ0gyXVtDSDJdMg==

> <s_epik_cmdline>
J2VwaWtfcHl0aG9uJywgJy1waCcsICc3LjAnLCAnLXRuJywgJzgnLCAnLW1hJywgJzIwMCcsICctbWV0YWxfYmluZGluZycsICctaW1hZScsICc8aW5maWxlLm1hZT4nLCAnLW9tYWUnLCAnPG91dGZpbGUubWFlPic=

> <r_epik_Ionization_Penalty>
0.00531443

> <r_epik_Ionization_Penalty_Charging>
0.0052814

> <r_epik_Ionization_Penalty_Neutral>
3.3027e-05

> <r_epik_State_Penalty>
0.00385383

> <r_epik_Charging_Adjusted_Penalty>
0.00913523

> <i_epik_Tot_Q>
1

> <i_epik_Tot_abs_Q>
1

> <r_epik_Metal_State_Penalty>
0.0139186

> <b_epik_Metal_Only>
0

> <s_lp_Force_Field>
OPLS_2005

> <r_lp_Energy>
18.0129

> <b_lp_Chiralities_Consistent>
1

> <s_lp_Variant>
AV-unprocessed.smi:1585-2

> <Gold.Version>
5.8.1

> <Gold.Id.Protein>
6NUR|6NUR_protein|mol2

> <Gold.PLP.Fitness>
47.3265

> <Gold.PLP.PLP>
-34.4255

> <Gold.PLP.part.hbond>
-5.7054

> <Gold.PLP.part.metal>
0.0000

> <Gold.PLP.part.buried>
-3.5250

> <Gold.PLP.part.nonpolar>
-25.7017

> <Gold.PLP.part.repulsive>
0.3292

> <Gold.PLP.ligand.clash>
0.0000

> <Gold.PLP.ligand.torsion>
0.6989

> <Gold.PLP.Chemscore.Hbond>
4.7460

> <Gold.PLP.Chemscore.CHOScore>
0.0000

> <Gold.PLP.Chemscore.Metal>
0.0000

> <Gold.Chemscore.Hbonds>
donor molecule, donor type, donor heavy atom, donor atom, acceptor molecule, acceptor atom, score
      L1  H    11    30       P1  7948  1.00
      L1  H    13    43       P1  7948  2.00
      P1  H  7954  7966       L1    11  0.62
      P1  H  7997  8008       L1    20  0.98

> <Gold.PLP.Chemscore.Internal.Correction>
0.0607

> <Gold.Rescore>
     Score         DG    S(hbond)    S(metal)    S(lipo)     H(rot)  DE(clash)    DE(int)     intcor
     14.09     -16.19       2.78        0.00      66.79       2.50       0.35       1.74       ----

> <Gold.Chemscore.Fitness>
14.0949

> <Gold.Chemscore.DG>
-16.1868

> <Gold.Chemscore.ZeroCoef>
-5.4800

> <Gold.Chemscore.Hbond>
2.7787

> <Gold.Chemscore.Metal>
0.0000

> <Gold.Chemscore.Lipo>
66.7859

> <Gold.Chemscore.Internal_Hbond>
0.0000

> <Gold.Chemscore.DEClash>
0.3480

> <Gold.Chemscore.DEInternal>
1.7438

> <Gold.Chemscore.Rot>
2.4953

> <Gold.Chemscore.Internal.Correction>
   9.000000E+99

> <Gold.Chemscore.Hbonds>
donor molecule, donor type, donor heavy atom, donor atom, acceptor molecule, acceptor atom, score
      L1  H    11    30       P1  7948  0.95
      L1  H    13    43       P1  7948  0.99
      P1  H  7954  7966       L1    11  0.05
      P1  H  7997  8008       L1    20  0.40

> <Gold.Chemscore.Hbond.Weighted>
-9.2808

> <Gold.Chemscore.Metal.Weighted>
-0.0000

> <Gold.Chemscore.Lipo.Weighted>
-7.8140

> <Gold.Chemscore.Internal_Hbond.Weighted>
0.0000

> <Gold.Chemscore.DEClash.Weighted>
0.3480

> <Gold.Chemscore.DEInternal.Weighted>
1.7438

> <Gold.Chemscore.Rot.Weighted>
6.3880

> <Gold.Chemscore.Internal.Correction.Weighted>
   9.000000E+99

> <Gold.Protein.RotatedTorsions>
[ 6907 6896 6895 6894 ] final  134.97 input  -60.11 | X-H torsion
[ 7974 7965 7964 7962 ] final  100.73 input  175.53 | X-H torsion
[ 8008 7997 7996 7995 ] final  -70.38 input   59.86 | X-H torsion
[ 10167 10162 10161 10158 ] final  117.55 input  -65.29 | X-H torsion
[ 10718 10713 10712 10709 ] final  115.15 input   66.30 | X-H torsion
[ 10763 10752 10751 10750 ] final -121.35 input  -60.55 | X-H torsion
[ 11005 11000 10999 10996 ] final   60.10 input  -57.11 | X-H torsion

> <Gold.Protein.ActiveResidues>
 VAL166  LYS551  ARG553  GLY616  TRP617  ASP618  TYR619  PRO620  LYS621  CYS622 
 ASP623  PHE694  ASN695  SER759  ASP760  ASP761  ALA762  ILE779  LEU786  VAL792 
 PHE793  MET794  SER795  GLU796  ALA797  LYS798  CYS799  TRP800  GLU811  SER814 

> <Gold.Protein.RotatedAtoms>
  152.3055  133.5699  159.5646 H   0  0  0  0  0  0  0  0  0  0  0  0  # atno 6907 bound_to 6896
  150.7297  134.0229  159.3716 H   0  0  0  0  0  0  0  0  0  0  0  0  # atno 6908 bound_to 6896
  151.8126  135.0676  160.0465 H   0  0  0  0  0  0  0  0  0  0  0  0  # atno 6909 bound_to 6896
  145.3817  139.2378  143.3400 H   0  0  0  0  0  0  0  0  0  0  0  0  # atno 7974 bound_to 7965
  154.5008  140.0835  156.7793 H   0  0  0  0  0  0  0  0  0  0  0  0  # atno 8008 bound_to 7997
  155.4007  140.3437  155.4238 H   0  0  0  0  0  0  0  0  0  0  0  0  # atno 8009 bound_to 7997
  156.1454  140.1542  156.8843 H   0  0  0  0  0  0  0  0  0  0  0  0  # atno 8010 bound_to 7997
  139.6171  144.7094  151.2716 H   0  0  0  0  0  0  0  0  0  0  0  0  # atno 10167 bound_to 10162
  157.6239  131.1008  150.7289 H   0  0  0  0  0  0  0  0  0  0  0  0  # atno 10718 bound_to 10713
  154.8666  135.4171  154.2606 H   0  0  0  0  0  0  0  0  0  0  0  0  # atno 10763 bound_to 10752
  153.3535  135.7000  153.6775 H   0  0  0  0  0  0  0  0  0  0  0  0  # atno 10764 bound_to 10752
  153.5705  135.3592  155.2808 H   0  0  0  0  0  0  0  0  0  0  0  0  # atno 10765 bound_to 10752
  140.0256  134.6088  155.9578 H   0  0  0  0  0  0  0  0  0  0  0  0  # atno 11005 bound_to 11000
  146.2839  140.4486  142.8765 LP  0  0  0  0  0  0  0  0  0  0  0  0  # atno 17320 bound_to 7965
  144.8503  140.6991  143.6173 LP  0  0  0  0  0  0  0  0  0  0  0  0  # atno 17321 bound_to 7965
  140.7358  143.6727  150.8068 LP  0  0  0  0  0  0  0  0  0  0  0  0  # atno 17342 bound_to 10162
  140.0331  143.5423  152.2751 LP  0  0  0  0  0  0  0  0  0  0  0  0  # atno 17343 bound_to 10162
  156.7641  130.4808  149.5431 LP  0  0  0  0  0  0  0  0  0  0  0  0  # atno 17370 bound_to 10713
  156.1399  130.6237  151.0453 LP  0  0  0  0  0  0  0  0  0  0  0  0  # atno 17371 bound_to 10713
  141.1800  133.6545  156.4983 LP  0  0  0  0  0  0  0  0  0  0  0  0  # atno 17394 bound_to 11000
  140.4312  134.7100  157.4943 LP  0  0  0  0  0  0  0  0  0  0  0  0  # atno 17395 bound_to 11000

$$$$
