AV-unprocessed.smi:274|AV-procd|sdf|2058|dock3
  -GOLD-   2262021303D 1   1.00000     0.00000
 Structure written by MMmdl.
 50 53  0  0  0  0  0  0  0  0  1 V2000
  147.9555  140.8790  156.3979 C   0  0  0  0  0  0  0  0  0  0  0  0
  148.4703  139.4570  156.6989 C   0  0  0  0  0  0  0  0  0  0  0  0
  149.9170  139.5529  157.2223 C   0  0  0  0  0  0  0  0  0  0  0  0
  148.3327  138.4811  155.4866 C   0  0  2  0  0  0  0  0  0  0  0  0
  149.0628  139.0035  154.2260 C   0  0  0  0  0  0  0  0  0  0  0  0
  150.2787  138.8573  154.1186 O   0  0  0  0  0  0  0  0  0  0  0  0
  148.3460  139.5852  153.2473 N   0  0  0  0  0  0  0  0  0  0  0  0
  146.8933  139.7613  153.2240 C   0  0  0  0  0  0  0  0  0  0  0  0
  146.1942  139.3215  154.5262 C   0  0  0  0  0  0  0  0  0  0  0  0
  146.9150  138.2271  155.1799 N   0  0  0  0  0  0  0  0  0  0  0  0
  146.5866  136.9476  154.8462 C   0  0  0  0  0  0  0  0  0  0  0  0
  147.2053  135.9064  155.4661 N   0  0  0  0  0  0  0  0  0  0  0  0
  146.8865  134.6458  155.1607 C   0  0  0  0  0  0  0  0  0  0  0  0
  145.9936  134.2033  154.2749 N   0  0  0  0  0  0  0  0  0  0  0  0
  145.3756  135.2386  153.6385 C   0  0  0  0  0  0  0  0  0  0  0  0
  145.6088  136.6260  153.8607 C   0  0  0  0  0  0  0  0  0  0  0  0
  144.7975  137.3775  153.0187 N   0  0  0  0  0  0  0  0  0  0  0  0
  144.1177  136.4888  152.3479 C   0  0  0  0  0  0  0  0  0  0  0  0
  144.4060  135.1782  152.6527 N   0  0  0  0  0  0  0  0  0  0  0  0
  143.8034  133.9943  152.0594 C   0  0  0  0  0  0  0  0  0  0  0  0
  144.4052  133.6223  150.6846 C   0  0  1  0  0  0  0  0  0  0  0  0
  144.4682  134.7873  149.8795 O   0  0  0  0  0  0  0  0  0  0  0  0
  145.7998  133.0072  150.7591 C   0  0  0  0  0  0  0  0  0  0  0  0
  145.8149  132.0549  149.5720 C   0  0  0  0  0  0  0  0  0  0  0  0
  144.5053  131.5134  149.5939 O   0  0  0  0  0  0  0  0  0  0  0  0
  143.5907  132.5519  149.9307 C   0  0  0  0  0  0  0  0  0  0  0  0
  148.4609  141.3075  155.5316 H   0  0  0  0  0  0  0  0  0  0  0  0
  148.1287  141.5454  157.2433 H   0  0  0  0  0  0  0  0  0  0  0  0
  146.8836  140.8958  156.2046 H   0  0  0  0  0  0  0  0  0  0  0  0
  147.8621  139.0762  157.5201 H   0  0  0  0  0  0  0  0  0  0  0  0
  150.5858  139.9549  156.4616 H   0  0  0  0  0  0  0  0  0  0  0  0
  150.3075  138.5848  157.5353 H   0  0  0  0  0  0  0  0  0  0  0  0
  149.9754  140.2113  158.0892 H   0  0  0  0  0  0  0  0  0  0  0  0
  148.8334  137.5509  155.7564 H   0  0  0  0  0  0  0  0  0  0  0  0
  148.8505  139.9121  152.4362 H   0  0  0  0  0  0  0  0  0  0  0  0
  146.6515  140.7990  152.9934 H   0  0  0  0  0  0  0  0  0  0  0  0
  146.5163  139.1660  152.3922 H   0  0  0  0  0  0  0  0  0  0  0  0
  146.1620  140.1631  155.2172 H   0  0  0  0  0  0  0  0  0  0  0  0
  145.1487  139.0690  154.3422 H   0  0  0  0  0  0  0  0  0  0  0  0
  147.4232  133.8828  155.7049 H   0  0  0  0  0  0  0  0  0  0  0  0
  143.3869  136.7660  151.6022 H   0  0  0  0  0  0  0  0  0  0  0  0
  143.9240  133.1649  152.7574 H   0  0  0  0  0  0  0  0  0  0  0  0
  142.7294  134.1637  151.9703 H   0  0  0  0  0  0  0  0  0  0  0  0
  144.8283  134.5507  149.0383 H   0  0  0  0  0  0  0  0  0  0  0  0
  146.6083  133.7392  150.7372 H   0  0  0  0  0  0  0  0  0  0  0  0
  145.9063  132.4227  151.6734 H   0  0  0  0  0  0  0  0  0  0  0  0
  145.9777  132.5930  148.6371 H   0  0  0  0  0  0  0  0  0  0  0  0
  146.5739  131.2775  149.6631 H   0  0  0  0  0  0  0  0  0  0  0  0
  142.7895  132.1341  150.5413 H   0  0  0  0  0  0  0  0  0  0  0  0
  143.1342  132.9465  149.0214 H   0  0  0  0  0  0  0  0  0  0  0  0
  1  2  1  0  0  0  0
  1 27  1  0  0  0  0
  1 28  1  0  0  0  0
  1 29  1  0  0  0  0
  2  3  1  0  0  0  0
  2  4  1  0  0  0  0
  2 30  1  0  0  0  0
  3 31  1  0  0  0  0
  3 32  1  0  0  0  0
  3 33  1  0  0  0  0
  4 10  1  0  0  0  0
  4  5  1  0  0  0  0
  4 34  1  0  0  0  0
  5  6  2  0  0  0  0
  5  7  1  0  0  0  0
  7  8  1  0  0  0  0
  7 35  1  0  0  0  0
  8  9  1  0  0  0  0
  8 36  1  0  0  0  0
  8 37  1  0  0  0  0
  9 10  1  0  0  0  0
  9 38  1  0  0  0  0
  9 39  1  0  0  0  0
 10 11  1  0  0  0  0
 11 16  1  0  0  0  0
 11 12  2  0  0  0  0
 12 13  1  0  0  0  0
 13 14  2  0  0  0  0
 13 40  1  0  0  0  0
 14 15  1  0  0  0  0
 15 19  1  0  0  0  0
 15 16  2  0  0  0  0
 16 17  1  0  0  0  0
 17 18  2  0  0  0  0
 18 19  1  0  0  0  0
 18 41  1  0  0  0  0
 19 20  1  0  0  0  0
 20 21  1  0  0  0  0
 20 42  1  0  0  0  0
 20 43  1  0  0  0  0
 21 26  1  0  0  0  0
 21 22  1  0  0  0  0
 21 23  1  0  0  0  0
 22 44  1  0  0  0  0
 23 24  1  0  0  0  0
 23 45  1  0  0  0  0
 23 46  1  0  0  0  0
 24 25  1  0  0  0  0
 24 47  1  0  0  0  0
 24 48  1  0  0  0  0
 25 26  1  0  0  0  0
 26 49  1  0  0  0  0
 26 50  1  0  0  0  0
M  END
> <s_m_source_file>
AV-unprocessed.smi

> <i_m_source_file_index>
274

> <i_lp_mmshare_version>
43012

> <i_f3d_flags>
0

> <s_epik_input>
W0NIM11bQ0hdKFtDSDNdKVtDQEBIXTFDKD1PKVtOSF1bQ0gyXVtDSDJdTjFjKG5bY0hdbjIpYyhjMjMpbltjSF1uM1tDSDJdW0NAQF00KFtPSF0pW0NIMl1bQ0gyXU9bQ0gyXTQ=

> <s_epik_cmdline>
J2VwaWtfcHl0aG9uJywgJy1waCcsICc3LjAnLCAnLXRuJywgJzgnLCAnLW1hJywgJzIwMCcsICctbWV0YWxfYmluZGluZycsICctaW1hZScsICc8aW5maWxlLm1hZT4nLCAnLW9tYWUnLCAnPG91dGZpbGUubWFlPic=

> <r_lp_tautomer_probability>
1

> <r_epik_Ionization_Penalty>
0.000690079

> <r_epik_Ionization_Penalty_Charging>
0

> <r_epik_Ionization_Penalty_Neutral>
0.000690079

> <r_epik_State_Penalty>
0.000321372

> <r_epik_Charging_Adjusted_Penalty>
0.000321372

> <i_epik_Tot_Q>
0

> <i_epik_Tot_abs_Q>
0

> <r_epik_Metal_State_Penalty>
-0

> <b_epik_Metal_Only>
0

> <s_lp_Force_Field>
OPLS_2005

> <r_lp_Energy>
40.3696

> <b_lp_Chiralities_Consistent>
1

> <s_lp_Variant>
AV-unprocessed.smi:274-1

> <Gold.Version>
5.8.1

> <Gold.Id.Protein>
6NUR|6NUR_protein|mol2

> <Gold.PLP.Fitness>
37.5320

> <Gold.PLP.PLP>
-28.5479

> <Gold.PLP.part.hbond>
-2.9484

> <Gold.PLP.part.metal>
0.0000

> <Gold.PLP.part.buried>
-5.4451

> <Gold.PLP.part.nonpolar>
-21.1897

> <Gold.PLP.part.repulsive>
0.7739

> <Gold.PLP.ligand.clash>
0.0000

> <Gold.PLP.ligand.torsion>
0.7234

> <Gold.PLP.Chemscore.Hbond>
2.3713

> <Gold.PLP.Chemscore.CHOScore>
0.9985

> <Gold.PLP.Chemscore.Metal>
0.0000

> <Gold.Chemscore.Hbonds>
donor molecule, donor type, donor heavy atom, donor atom, acceptor molecule, acceptor atom, score
      L1  H     7    35       P1  7957  0.89
      L1  H    22    44       P1  7921  1.00
      P1  H 10785 10796       L1    25  0.40
      L1  C    18    41       P1 10171  0.74

> <Gold.PLP.Chemscore.Internal.Correction>
0.3216

> <Gold.Rescore>
     Score         DG    S(hbond)    S(metal)    S(lipo)     H(rot)  DE(clash)    DE(int)     intcor
     11.56     -15.23       2.47        0.00      59.67       2.14       0.32       3.36       ----

> <Gold.Chemscore.Fitness>
11.5575

> <Gold.Chemscore.DG>
-15.2319

> <Gold.Chemscore.ZeroCoef>
-5.4800

> <Gold.Chemscore.Hbond>
2.4720

> <Gold.Chemscore.Metal>
0.0000

> <Gold.Chemscore.Lipo>
59.6715

> <Gold.Chemscore.Internal_Hbond>
0.0000

> <Gold.Chemscore.DEClash>
0.3180

> <Gold.Chemscore.DEInternal>
3.3564

> <Gold.Chemscore.Rot>
2.1431

> <Gold.Chemscore.Internal.Correction>
   9.000000E+99

> <Gold.Chemscore.Hbonds>
donor molecule, donor type, donor heavy atom, donor atom, acceptor molecule, acceptor atom, score
      L1  H     7    35       P1  7957  0.86
      L1  H    22    44       P1  7921  0.95
      P1  H  7989  7998       L1     6  0.02
      P1  H 10785 10796       L1    25  0.12

> <Gold.Chemscore.Hbond.Weighted>
-8.2566

> <Gold.Chemscore.Metal.Weighted>
-0.0000

> <Gold.Chemscore.Lipo.Weighted>
-6.9816

> <Gold.Chemscore.Internal_Hbond.Weighted>
0.0000

> <Gold.Chemscore.DEClash.Weighted>
0.3180

> <Gold.Chemscore.DEInternal.Weighted>
3.3564

> <Gold.Chemscore.Rot.Weighted>
5.4863

> <Gold.Chemscore.Internal.Correction.Weighted>
   9.000000E+99

> <Gold.Protein.RotatedTorsions>
[ 6907 6896 6895 6894 ] final    5.53 input  -60.11 | X-H torsion
[ 7974 7965 7964 7962 ] final  163.76 input  175.53 | X-H torsion
[ 8008 7997 7996 7995 ] final   51.40 input   59.86 | X-H torsion
[ 10167 10162 10161 10158 ] final  -22.92 input  -65.29 | X-H torsion
[ 10718 10713 10712 10709 ] final  -85.85 input   66.30 | X-H torsion
[ 10763 10752 10751 10750 ] final  -72.11 input  -60.55 | X-H torsion
[ 11005 11000 10999 10996 ] final   52.93 input  -57.11 | X-H torsion

> <Gold.Protein.ActiveResidues>
 VAL166  LYS551  ARG553  GLY616  TRP617  ASP618  TYR619  PRO620  LYS621  CYS622 
 ASP623  PHE694  ASN695  SER759  ASP760  ASP761  ALA762  ILE779  LEU786  VAL792 
 PHE793  MET794  SER795  GLU796  ALA797  LYS798  CYS799  TRP800  GLU811  SER814 

> <Gold.Protein.RotatedAtoms>
  151.6590  135.0992  160.0175 H   0  0  0  0  0  0  0  0  0  0  0  0  # atno 6907 bound_to 6896
  152.3957  133.6740  159.6283 H   0  0  0  0  0  0  0  0  0  0  0  0  # atno 6908 bound_to 6896
  150.7865  133.8794  159.3322 H   0  0  0  0  0  0  0  0  0  0  0  0  # atno 6909 bound_to 6896
  144.7575  139.8229  143.6344 H   0  0  0  0  0  0  0  0  0  0  0  0  # atno 7974 bound_to 7965
  155.4346  140.3452  155.4283 H   0  0  0  0  0  0  0  0  0  0  0  0  # atno 8008 bound_to 7997
  156.1315  140.1515  156.9088 H   0  0  0  0  0  0  0  0  0  0  0  0  # atno 8009 bound_to 7997
  154.4899  140.0844  156.7550 H   0  0  0  0  0  0  0  0  0  0  0  0  # atno 8010 bound_to 7997
  140.7287  143.4490  151.0544 H   0  0  0  0  0  0  0  0  0  0  0  0  # atno 10167 bound_to 10162
  155.9993  130.4745  150.4625 H   0  0  0  0  0  0  0  0  0  0  0  0  # atno 10718 bound_to 10713
  154.4411  135.5940  153.6130 H   0  0  0  0  0  0  0  0  0  0  0  0  # atno 10763 bound_to 10752
  152.9805  135.5998  154.3721 H   0  0  0  0  0  0  0  0  0  0  0  0  # atno 10764 bound_to 10752
  154.3571  135.2841  155.2319 H   0  0  0  0  0  0  0  0  0  0  0  0  # atno 10765 bound_to 10752
  140.0808  134.5341  155.8948 H   0  0  0  0  0  0  0  0  0  0  0  0  # atno 11005 bound_to 11000
  146.1602  139.4714  142.9993 LP  0  0  0  0  0  0  0  0  0  0  0  0  # atno 17320 bound_to 7965
  145.6729  141.0211  143.1647 LP  0  0  0  0  0  0  0  0  0  0  0  0  # atno 17321 bound_to 7965
  139.8164  143.7879  152.3174 LP  0  0  0  0  0  0  0  0  0  0  0  0  # atno 17342 bound_to 10162
  139.7947  144.7397  150.9907 LP  0  0  0  0  0  0  0  0  0  0  0  0  # atno 17343 bound_to 10162
  157.2647  131.0574  151.2298 LP  0  0  0  0  0  0  0  0  0  0  0  0  # atno 17370 bound_to 10713
  157.3399  130.7028  149.6375 LP  0  0  0  0  0  0  0  0  0  0  0  0  # atno 17371 bound_to 10713
  141.2046  133.6640  156.6131 LP  0  0  0  0  0  0  0  0  0  0  0  0  # atno 17394 bound_to 11000
  140.3490  134.7785  157.4453 LP  0  0  0  0  0  0  0  0  0  0  0  0  # atno 17395 bound_to 11000

$$$$
