AV-unprocessed.smi:949|AV-procd|sdf|4247|dock3
  -GOLD-   22720 2153D 1   1.00000     0.00000
 Structure written by MMmdl.
 32 33  0  0  0  0  0  0  0  0  1 V2000
  151.7132  138.3524  155.0724 C   0  0  0  0  0  0  0  0  0  0  0  0
  150.4238  137.5201  154.9514 C   0  0  1  0  0  0  0  0  0  0  0  0
  149.5875  138.0283  153.8692 N   0  0  0  0  0  0  0  0  0  0  0  0
  148.8430  139.2174  153.9675 C   0  0  0  0  0  0  0  0  0  0  0  0
  149.1238  140.2211  154.9251 C   0  0  0  0  0  0  0  0  0  0  0  0
  148.3240  141.3802  154.9523 C   0  0  0  0  0  0  0  0  0  0  0  0
  147.2929  141.5921  154.1095 N   0  0  0  0  0  0  0  0  0  0  0  0
  147.0232  140.6361  153.1970 C   0  0  0  0  0  0  0  0  0  0  0  0
  147.7591  139.4378  153.0819 C   0  0  0  0  0  0  0  0  0  0  0  0
  147.4038  138.5047  152.1046 N   0  0  0  0  0  0  0  0  0  0  0  0
  150.7456  136.0306  154.7197 C   0  0  2  0  0  0  0  0  0  0  0  0
  149.5133  135.1348  154.5647 C   0  0  0  0  0  0  0  0  0  0  0  0
  150.0480  133.7919  155.0042 C   0  0  0  0  0  0  0  0  0  0  0  0
  150.9537  134.1919  156.1628 C   0  0  0  0  0  0  0  0  0  0  0  0
  151.4455  135.4898  155.8402 O   0  0  0  0  0  0  0  0  0  0  0  0
  152.3309  138.0046  155.9007 H   0  0  0  0  0  0  0  0  0  0  0  0
  151.4993  139.4060  155.2511 H   0  0  0  0  0  0  0  0  0  0  0  0
  152.3128  138.2877  154.1637 H   0  0  0  0  0  0  0  0  0  0  0  0
  149.8686  137.5886  155.8868 H   0  0  0  0  0  0  0  0  0  0  0  0
  149.5383  137.4928  153.0149 H   0  0  0  0  0  0  0  0  0  0  0  0
  149.9323  140.1291  155.6336 H   0  0  0  0  0  0  0  0  0  0  0  0
  148.5192  142.1599  155.6735 H   0  0  0  0  0  0  0  0  0  0  0  0
  146.1911  140.8350  152.5374 H   0  0  0  0  0  0  0  0  0  0  0  0
  147.9145  137.6396  152.0015 H   0  0  0  0  0  0  0  0  0  0  0  0
  146.5260  138.5749  151.6107 H   0  0  0  0  0  0  0  0  0  0  0  0
  151.3852  135.9121  153.8435 H   0  0  0  0  0  0  0  0  0  0  0  0
  148.7156  135.4553  155.2367 H   0  0  0  0  0  0  0  0  0  0  0  0
  149.1192  135.1250  153.5481 H   0  0  0  0  0  0  0  0  0  0  0  0
  149.2660  133.0903  155.2954 H   0  0  0  0  0  0  0  0  0  0  0  0
  150.6351  133.3406  154.2032 H   0  0  0  0  0  0  0  0  0  0  0  0
  150.3790  134.2611  157.0873 H   0  0  0  0  0  0  0  0  0  0  0  0
  151.7673  133.4838  156.3211 H   0  0  0  0  0  0  0  0  0  0  0  0
  1  2  1  0  0  0  0
  1 16  1  0  0  0  0
  1 17  1  0  0  0  0
  1 18  1  0  0  0  0
  2  3  1  0  0  0  0
  2 11  1  0  0  0  0
  2 19  1  0  0  0  0
  3  4  1  0  0  0  0
  3 20  1  0  0  0  0
  4  9  1  0  0  0  0
  4  5  2  0  0  0  0
  5  6  1  0  0  0  0
  5 21  1  0  0  0  0
  6  7  2  0  0  0  0
  6 22  1  0  0  0  0
  7  8  1  0  0  0  0
  8  9  2  0  0  0  0
  8 23  1  0  0  0  0
  9 10  1  0  0  0  0
 10 24  1  0  0  0  0
 10 25  1  0  0  0  0
 11 15  1  0  0  0  0
 11 12  1  0  0  0  0
 11 26  1  0  0  0  0
 12 13  1  0  0  0  0
 12 27  1  0  0  0  0
 12 28  1  0  0  0  0
 13 14  1  0  0  0  0
 13 29  1  0  0  0  0
 13 30  1  0  0  0  0
 14 15  1  0  0  0  0
 14 31  1  0  0  0  0
 14 32  1  0  0  0  0
M  END
> <s_m_source_file>
AV-unprocessed.smi

> <i_m_source_file_index>
949

> <i_lp_mmshare_version>
43012

> <i_f3d_flags>
0

> <s_epik_input>
TzFbQ0gyXVtDSDJdW0NIMl1bQ0BIXTFbQ0BIXShbQ0gzXSlbTkhdYzJbY0hdW2NIXW5bY0hdYzJbTkgyXQ==

> <s_epik_cmdline>
J2VwaWtfcHl0aG9uJywgJy1waCcsICc3LjAnLCAnLXRuJywgJzgnLCAnLW1hJywgJzIwMCcsICctbWV0YWxfYmluZGluZycsICctaW1hZScsICc8aW5maWxlLm1hZT4nLCAnLW9tYWUnLCAnPG91dGZpbGUubWFlPic=

> <r_epik_Ionization_Penalty>
3.88091

> <r_epik_Ionization_Penalty_Charging>
0

> <r_epik_Ionization_Penalty_Neutral>
3.88091

> <r_epik_State_Penalty>
3.88049

> <r_epik_Charging_Adjusted_Penalty>
3.88049

> <i_epik_Tot_Q>
0

> <i_epik_Tot_abs_Q>
0

> <r_epik_Metal_State_Penalty>
0.313783

> <b_epik_Metal_Only>
1

> <s_lp_Force_Field>
OPLS_2005

> <r_lp_Energy>
23.3849

> <b_lp_Chiralities_Consistent>
1

> <s_lp_Variant>
AV-unprocessed.smi:949-6

> <Gold.Version>
5.8.1

> <Gold.Id.Protein>
6NUR|6NUR_protein|mol2

> <Gold.PLP.Fitness>
41.2117

> <Gold.PLP.PLP>
-26.8062

> <Gold.PLP.part.hbond>
-3.5769

> <Gold.PLP.part.metal>
0.0000

> <Gold.PLP.part.buried>
0.6815

> <Gold.PLP.part.nonpolar>
-24.4613

> <Gold.PLP.part.repulsive>
0.3029

> <Gold.PLP.ligand.clash>
0.0000

> <Gold.PLP.ligand.torsion>
0.3052

> <Gold.PLP.Chemscore.Hbond>
3.0000

> <Gold.PLP.Chemscore.CHOScore>
2.0000

> <Gold.PLP.Chemscore.Metal>
0.0000

> <Gold.Chemscore.Hbonds>
donor molecule, donor type, donor heavy atom, donor atom, acceptor molecule, acceptor atom, score
      L1  H     3    20       P1  7948  1.00
      L1  H    10    24       P1  7948  1.00
      P1  H 10752 10764       L1    15  0.94
      L1  C     6    22       P1  8028  0.88
      L1  C     8    23       P1 10175  0.96

> <Gold.PLP.Chemscore.Internal.Correction>
0.0158

> <Gold.Rescore>
     Score         DG    S(hbond)    S(metal)    S(lipo)     H(rot)  DE(clash)    DE(int)     intcor
     18.52     -19.27       2.78        0.00      65.14       1.22       0.32       0.43       ----

> <Gold.Chemscore.Fitness>
18.5211

> <Gold.Chemscore.DG>
-19.2721

> <Gold.Chemscore.ZeroCoef>
-5.4800

> <Gold.Chemscore.Hbond>
2.7802

> <Gold.Chemscore.Metal>
0.0000

> <Gold.Chemscore.Lipo>
65.1390

> <Gold.Chemscore.Internal_Hbond>
0.0000

> <Gold.Chemscore.DEClash>
0.3216

> <Gold.Chemscore.DEInternal>
0.4294

> <Gold.Chemscore.Rot>
1.2169

> <Gold.Chemscore.Internal.Correction>
   9.000000E+99

> <Gold.Chemscore.Hbonds>
donor molecule, donor type, donor heavy atom, donor atom, acceptor molecule, acceptor atom, score
      L1  H     3    20       P1  7948  0.78
      L1  H    10    24       P1  7948  1.00
      P1  H 10752 10764       L1    15  0.22

> <Gold.Chemscore.Hbond.Weighted>
-9.2860

> <Gold.Chemscore.Metal.Weighted>
-0.0000

> <Gold.Chemscore.Lipo.Weighted>
-7.6213

> <Gold.Chemscore.Internal_Hbond.Weighted>
0.0000

> <Gold.Chemscore.DEClash.Weighted>
0.3216

> <Gold.Chemscore.DEInternal.Weighted>
0.4294

> <Gold.Chemscore.Rot.Weighted>
3.1152

> <Gold.Chemscore.Internal.Correction.Weighted>
   9.000000E+99

> <Gold.Protein.RotatedTorsions>
[ 6907 6896 6895 6894 ] final -131.60 input  -60.11 | X-H torsion
[ 7974 7965 7964 7962 ] final -140.68 input  175.53 | X-H torsion
[ 8008 7997 7996 7995 ] final   24.69 input   59.86 | X-H torsion
[ 10167 10162 10161 10158 ] final   68.08 input  -65.29 | X-H torsion
[ 10718 10713 10712 10709 ] final  143.35 input   66.30 | X-H torsion
[ 10763 10752 10751 10750 ] final  -20.28 input  -60.55 | X-H torsion
[ 11005 11000 10999 10996 ] final -105.48 input  -57.11 | X-H torsion

> <Gold.Protein.ActiveResidues>
 VAL166  LYS551  ARG553  GLY616  TRP617  ASP618  TYR619  PRO620  LYS621  CYS622 
 ASP623  PHE694  ASN695  SER759  ASP760  ASP761  ALA762  ILE779  LEU786  VAL792 
 PHE793  MET794  SER795  GLU796  ALA797  LYS798  CYS799  TRP800  GLU811  SER814 

> <Gold.Protein.RotatedAtoms>
  150.9528  133.6531  159.2768 H   0  0  0  0  0  0  0  0  0  0  0  0  # atno 6907 bound_to 6896
  151.3881  135.0950  159.9527 H   0  0  0  0  0  0  0  0  0  0  0  0  # atno 6908 bound_to 6896
  152.5117  133.9048  159.7513 H   0  0  0  0  0  0  0  0  0  0  0  0  # atno 6909 bound_to 6896
  144.8578  140.6171  143.5348 H   0  0  0  0  0  0  0  0  0  0  0  0  # atno 7974 bound_to 7965
  155.0002  140.3124  155.4870 H   0  0  0  0  0  0  0  0  0  0  0  0  # atno 8008 bound_to 7997
  156.2926  140.2233  156.5052 H   0  0  0  0  0  0  0  0  0  0  0  0  # atno 8009 bound_to 7997
  154.7625  140.0458  157.0973 H   0  0  0  0  0  0  0  0  0  0  0  0  # atno 8010 bound_to 7997
  140.0826  144.5058  150.7152 H   0  0  0  0  0  0  0  0  0  0  0  0  # atno 10167 bound_to 10162
  157.3700  131.0977  151.0837 H   0  0  0  0  0  0  0  0  0  0  0  0  # atno 10718 bound_to 10713
  153.6180  135.6994  153.5321 H   0  0  0  0  0  0  0  0  0  0  0  0  # atno 10763 bound_to 10752
  153.2961  135.4142  155.1210 H   0  0  0  0  0  0  0  0  0  0  0  0  # atno 10764 bound_to 10752
  154.8549  135.3637  154.5720 H   0  0  0  0  0  0  0  0  0  0  0  0  # atno 10765 bound_to 10752
  141.1051  133.8811  157.1739 H   0  0  0  0  0  0  0  0  0  0  0  0  # atno 11005 bound_to 11000
  145.4371  139.1541  143.3990 LP  0  0  0  0  0  0  0  0  0  0  0  0  # atno 17320 bound_to 7965
  146.2837  140.4490  142.8766 LP  0  0  0  0  0  0  0  0  0  0  0  0  # atno 17321 bound_to 7965
  140.7070  143.2475  151.4697 LP  0  0  0  0  0  0  0  0  0  0  0  0  # atno 17342 bound_to 10162
  139.5771  144.1795  152.1918 LP  0  0  0  0  0  0  0  0  0  0  0  0  # atno 17343 bound_to 10162
  157.1944  130.6366  149.5716 LP  0  0  0  0  0  0  0  0  0  0  0  0  # atno 17370 bound_to 10713
  155.9753  130.4711  150.6454 LP  0  0  0  0  0  0  0  0  0  0  0  0  # atno 17371 bound_to 10713
  139.9918  135.0061  156.9993 LP  0  0  0  0  0  0  0  0  0  0  0  0  # atno 17394 bound_to 11000
  140.4922  134.1182  155.7235 LP  0  0  0  0  0  0  0  0  0  0  0  0  # atno 17395 bound_to 11000

$$$$
