AV-unprocessed.smi:1559|AV-procd|sdf|6274|dock3
  -GOLD-   22720 6463D 1   1.00000     0.00000
 Structure written by MMmdl.
 51 52  0  0  0  0  0  0  0  0  2 V2000
  147.2573  133.6710  153.3218 C   0  0  0  0  0  0  0  0  0  0  0  0
  146.7829  134.3173  152.0707 N   0  3  0  0  0  0  0  0  0  0  0  0
  146.7682  133.3378  150.9533 C   0  0  0  0  0  0  0  0  0  0  0  0
  145.5391  135.1581  152.2014 C   0  0  0  0  0  0  0  0  0  0  0  0
  145.2276  135.9231  150.8937 C   0  0  0  0  0  0  0  0  0  0  0  0
  144.3131  134.2696  152.5279 C   0  0  0  0  0  0  0  0  0  0  0  0
  145.6983  136.1976  153.3506 C   0  0  0  0  0  0  0  0  0  0  0  0
  147.0531  136.7367  153.4768 N   0  0  0  0  0  0  0  0  0  0  0  0
  147.4682  137.5874  154.4263 C   0  0  0  0  0  0  0  0  0  0  0  0
  146.7418  138.0056  155.3270 O   0  0  0  0  0  0  0  0  0  0  0  0
  148.7574  137.9220  154.2485 N   0  0  0  0  0  0  0  0  0  0  0  0
  149.5656  138.7736  155.0489 C   0  0  0  0  0  0  0  0  0  0  0  0
  150.9132  139.0934  154.7635 C   0  0  0  0  0  0  0  0  0  0  0  0
  151.6047  139.9652  155.6261 C   0  0  0  0  0  0  0  0  0  0  0  0
  150.9344  140.5069  156.7483 C   0  0  0  0  0  0  0  0  0  0  0  0
  151.6105  141.3814  157.6267 N   0  0  0  0  0  0  0  0  0  0  0  0
  151.9501  140.8874  158.9600 C   0  0  0  0  0  0  0  0  0  0  0  0
  152.9262  141.8506  159.6560 C   0  0  0  0  0  0  0  0  0  0  0  0
  152.3704  143.1610  159.6812 O   0  0  0  0  0  0  0  0  0  0  0  0
  152.1506  143.6672  158.3690 C   0  0  0  0  0  0  0  0  0  0  0  0
  151.1494  142.7677  157.6233 C   0  0  0  0  0  0  0  0  0  0  0  0
  149.6395  140.2046  157.0125 N   0  0  0  0  0  0  0  0  0  0  0  0
  148.9801  139.3696  156.1831 C   0  0  0  0  0  0  0  0  0  0  0  0
  146.5076  132.9969  153.7364 H   0  0  0  0  0  0  0  0  0  0  0  0
  147.5287  134.4020  154.0825 H   0  0  0  0  0  0  0  0  0  0  0  0
  148.1571  133.0851  153.1311 H   0  0  0  0  0  0  0  0  0  0  0  0
  146.0633  132.5274  151.1404 H   0  0  0  0  0  0  0  0  0  0  0  0
  147.7553  132.8902  150.8337 H   0  0  0  0  0  0  0  0  0  0  0  0
  146.5196  133.7981  149.9986 H   0  0  0  0  0  0  0  0  0  0  0  0
  144.3034  136.4946  150.9892 H   0  0  0  0  0  0  0  0  0  0  0  0
  145.0987  135.2511  150.0456 H   0  0  0  0  0  0  0  0  0  0  0  0
  146.0100  136.6365  150.6355 H   0  0  0  0  0  0  0  0  0  0  0  0
  143.4431  134.8742  152.7870 H   0  0  0  0  0  0  0  0  0  0  0  0
  144.5065  133.6022  153.3682 H   0  0  0  0  0  0  0  0  0  0  0  0
  144.0140  133.6531  151.6798 H   0  0  0  0  0  0  0  0  0  0  0  0
  145.0342  137.0468  153.1895 H   0  0  0  0  0  0  0  0  0  0  0  0
  145.3684  135.7710  154.2999 H   0  0  0  0  0  0  0  0  0  0  0  0
  147.7176  136.4644  152.7673 H   0  0  0  0  0  0  0  0  0  0  0  0
  149.1985  137.5721  153.4105 H   0  0  0  0  0  0  0  0  0  0  0  0
  151.4267  138.6992  153.9004 H   0  0  0  0  0  0  0  0  0  0  0  0
  152.6397  140.1965  155.4237 H   0  0  0  0  0  0  0  0  0  0  0  0
  151.0388  140.7884  159.5510 H   0  0  0  0  0  0  0  0  0  0  0  0
  152.4054  139.8984  158.8928 H   0  0  0  0  0  0  0  0  0  0  0  0
  153.1111  141.5228  160.6789 H   0  0  0  0  0  0  0  0  0  0  0  0
  153.8910  141.8626  159.1463 H   0  0  0  0  0  0  0  0  0  0  0  0
  151.7606  144.6824  158.4418 H   0  0  0  0  0  0  0  0  0  0  0  0
  153.0962  143.7279  157.8276 H   0  0  0  0  0  0  0  0  0  0  0  0
  151.0169  143.1484  156.6119 H   0  0  0  0  0  0  0  0  0  0  0  0
  150.1741  142.8140  158.1093 H   0  0  0  0  0  0  0  0  0  0  0  0
  147.9503  139.1670  156.4395 H   0  0  0  0  0  0  0  0  0  0  0  0
  147.5100  134.9766  151.8319 H   0  0  0  0  0  0  0  0  0  0  0  0
  1  2  1  0  0  0  0
  1 24  1  0  0  0  0
  1 25  1  0  0  0  0
  1 26  1  0  0  0  0
  2  3  1  0  0  0  0
  2  4  1  0  0  0  0
  2 51  1  0  0  0  0
  3 27  1  0  0  0  0
  3 28  1  0  0  0  0
  3 29  1  0  0  0  0
  4  5  1  0  0  0  0
  4  6  1  0  0  0  0
  4  7  1  0  0  0  0
  5 30  1  0  0  0  0
  5 31  1  0  0  0  0
  5 32  1  0  0  0  0
  6 33  1  0  0  0  0
  6 34  1  0  0  0  0
  6 35  1  0  0  0  0
  7  8  1  0  0  0  0
  7 36  1  0  0  0  0
  7 37  1  0  0  0  0
  8  9  1  0  0  0  0
  8 38  1  0  0  0  0
  9 10  2  0  0  0  0
  9 11  1  0  0  0  0
 11 12  1  0  0  0  0
 11 39  1  0  0  0  0
 12 23  1  0  0  0  0
 12 13  2  0  0  0  0
 13 14  1  0  0  0  0
 13 40  1  0  0  0  0
 14 15  2  0  0  0  0
 14 41  1  0  0  0  0
 15 16  1  0  0  0  0
 15 22  1  0  0  0  0
 16 21  1  0  0  0  0
 16 17  1  0  0  0  0
 17 18  1  0  0  0  0
 17 42  1  0  0  0  0
 17 43  1  0  0  0  0
 18 19  1  0  0  0  0
 18 44  1  0  0  0  0
 18 45  1  0  0  0  0
 19 20  1  0  0  0  0
 20 21  1  0  0  0  0
 20 46  1  0  0  0  0
 20 47  1  0  0  0  0
 21 48  1  0  0  0  0
 21 49  1  0  0  0  0
 22 23  2  0  0  0  0
 23 50  1  0  0  0  0
M  CHG  1   2   1
M  END
> <s_m_source_file>
AV-unprocessed.smi

> <i_m_source_file_index>
1559

> <i_lp_mmshare_version>
43012

> <i_f3d_flags>
0

> <s_epik_input>
W0NIM11OKFtDSDNdKUMoW0NIM10pKFtDSDNdKVtDSDJdW05IXUMoPU8pW05IXWMxW2NIXVtjSF1jKG5bY0hdMSlOMltDSDJdW0NIMl1PW0NIMl1bQ0gyXTI=

> <s_epik_cmdline>
J2VwaWtfcHl0aG9uJywgJy1waCcsICc3LjAnLCAnLXRuJywgJzgnLCAnLW1hJywgJzIwMCcsICctbWV0YWxfYmluZGluZycsICctaW1hZScsICc8aW5maWxlLm1hZT4nLCAnLW9tYWUnLCAnPG91dGZpbGUubWFlPic=

> <r_lp_tautomer_probability>
1

> <r_epik_Ionization_Penalty>
0.00606683

> <r_epik_Ionization_Penalty_Charging>
0.00433655

> <r_epik_Ionization_Penalty_Neutral>
0.00173028

> <r_epik_State_Penalty>
-0

> <r_epik_Charging_Adjusted_Penalty>
0.00433655

> <i_epik_Tot_Q>
1

> <i_epik_Tot_abs_Q>
1

> <r_epik_Metal_State_Penalty>
-0

> <b_epik_Metal_Only>
0

> <s_lp_Force_Field>
OPLS_2005

> <r_lp_Energy>
39.7319

> <b_lp_Chiralities_Consistent>
1

> <s_lp_Variant>
AV-unprocessed.smi:1559-1

> <Gold.Version>
5.8.1

> <Gold.Id.Protein>
6NUR|6NUR_protein|mol2

> <Gold.PLP.Fitness>
47.8411

> <Gold.PLP.PLP>
-37.0182

> <Gold.PLP.part.hbond>
-2.9918

> <Gold.PLP.part.metal>
0.0000

> <Gold.PLP.part.buried>
-4.8051

> <Gold.PLP.part.nonpolar>
-30.3751

> <Gold.PLP.part.repulsive>
0.0997

> <Gold.PLP.ligand.clash>
0.0000

> <Gold.PLP.ligand.torsion>
0.6353

> <Gold.PLP.Chemscore.Hbond>
3.8723

> <Gold.PLP.Chemscore.CHOScore>
0.0000

> <Gold.PLP.Chemscore.Metal>
0.0000

> <Gold.Chemscore.Hbonds>
donor molecule, donor type, donor heavy atom, donor atom, acceptor molecule, acceptor atom, score
      L1  H     2    51       P1  7948  2.00
      L1  H     8    38       P1  7948  1.00
      L1  H    11    39       P1  7948  0.86

> <Gold.PLP.Chemscore.Internal.Correction>
0.4765

> <Gold.Rescore>
     Score         DG    S(hbond)    S(metal)    S(lipo)     H(rot)  DE(clash)    DE(int)     intcor
     18.46     -20.85       2.77        0.00      88.25       1.64       0.35       2.05       ----

> <Gold.Chemscore.Fitness>
18.4550

> <Gold.Chemscore.DG>
-20.8473

> <Gold.Chemscore.ZeroCoef>
-5.4800

> <Gold.Chemscore.Hbond>
2.7676

> <Gold.Chemscore.Metal>
0.0000

> <Gold.Chemscore.Lipo>
88.2542

> <Gold.Chemscore.Internal_Hbond>
0.0000

> <Gold.Chemscore.DEClash>
0.3463

> <Gold.Chemscore.DEInternal>
2.0460

> <Gold.Chemscore.Rot>
1.6414

> <Gold.Chemscore.Internal.Correction>
   9.000000E+99

> <Gold.Chemscore.Hbonds>
donor molecule, donor type, donor heavy atom, donor atom, acceptor molecule, acceptor atom, score
      L1  H     2    51       P1  7948  0.82
      L1  H     8    38       P1  7948  0.95
      L1  H    11    39       P1  7948  0.80

> <Gold.Chemscore.Hbond.Weighted>
-9.2437

> <Gold.Chemscore.Metal.Weighted>
-0.0000

> <Gold.Chemscore.Lipo.Weighted>
-10.3257

> <Gold.Chemscore.Internal_Hbond.Weighted>
0.0000

> <Gold.Chemscore.DEClash.Weighted>
0.3463

> <Gold.Chemscore.DEInternal.Weighted>
2.0460

> <Gold.Chemscore.Rot.Weighted>
4.2021

> <Gold.Chemscore.Internal.Correction.Weighted>
   9.000000E+99

> <Gold.Protein.RotatedTorsions>
[ 6907 6896 6895 6894 ] final  -95.98 input  -60.11 | X-H torsion
[ 7974 7965 7964 7962 ] final  110.13 input  175.53 | X-H torsion
[ 8008 7997 7996 7995 ] final  -88.35 input   59.86 | X-H torsion
[ 10167 10162 10161 10158 ] final   64.44 input  -65.29 | X-H torsion
[ 10718 10713 10712 10709 ] final    8.64 input   66.30 | X-H torsion
[ 10763 10752 10751 10750 ] final   52.95 input  -60.55 | X-H torsion
[ 11005 11000 10999 10996 ] final   -6.01 input  -57.11 | X-H torsion

> <Gold.Protein.ActiveResidues>
 VAL166  LYS551  ARG553  GLY616  TRP617  ASP618  TYR619  PRO620  LYS621  CYS622 
 ASP623  PHE694  ASN695  SER759  ASP760  ASP761  ALA762  ILE779  LEU786  VAL792 
 PHE793  MET794  SER795  GLU796  ALA797  LYS798  CYS799  TRP800  GLU811  SER814 

> <Gold.Protein.RotatedAtoms>
  150.6977  134.1573  159.4162 H   0  0  0  0  0  0  0  0  0  0  0  0  # atno 6907 bound_to 6896
  151.9555  135.0146  160.0554 H   0  0  0  0  0  0  0  0  0  0  0  0  # atno 6908 bound_to 6896
  152.1973  133.4781  159.5077 H   0  0  0  0  0  0  0  0  0  0  0  0  # atno 6909 bound_to 6896
  145.2589  139.2710  143.4027 H   0  0  0  0  0  0  0  0  0  0  0  0  # atno 7974 bound_to 7965
  154.6738  140.0554  157.0194 H   0  0  0  0  0  0  0  0  0  0  0  0  # atno 8008 bound_to 7997
  155.1050  140.3232  155.4518 H   0  0  0  0  0  0  0  0  0  0  0  0  # atno 8009 bound_to 7997
  156.2668  140.2024  156.6176 H   0  0  0  0  0  0  0  0  0  0  0  0  # atno 8010 bound_to 7997
  140.1221  144.4721  150.6914 H   0  0  0  0  0  0  0  0  0  0  0  0  # atno 10167 bound_to 10162
  156.9546  130.5910  149.5658 H   0  0  0  0  0  0  0  0  0  0  0  0  # atno 10718 bound_to 10713
  152.9792  135.5795  154.4663 H   0  0  0  0  0  0  0  0  0  0  0  0  # atno 10763 bound_to 10752
  154.4232  135.2772  155.1964 H   0  0  0  0  0  0  0  0  0  0  0  0  # atno 10764 bound_to 10752
  154.3704  135.6169  153.5791 H   0  0  0  0  0  0  0  0  0  0  0  0  # atno 10765 bound_to 10752
  140.6973  133.9019  155.8659 H   0  0  0  0  0  0  0  0  0  0  0  0  # atno 11005 bound_to 11000
  146.3281  140.3001  142.8620 LP  0  0  0  0  0  0  0  0  0  0  0  0  # atno 17320 bound_to 7965
  144.9436  140.8104  143.5615 LP  0  0  0  0  0  0  0  0  0  0  0  0  # atno 17321 bound_to 7965
  140.6866  143.2353  151.5244 LP  0  0  0  0  0  0  0  0  0  0  0  0  # atno 17342 bound_to 10162
  139.5563  144.2267  152.1618 LP  0  0  0  0  0  0  0  0  0  0  0  0  # atno 17343 bound_to 10162
  156.0348  130.5436  150.8626 LP  0  0  0  0  0  0  0  0  0  0  0  0  # atno 17370 bound_to 10713
  157.5699  131.0946  150.9433 LP  0  0  0  0  0  0  0  0  0  0  0  0  # atno 17371 bound_to 10713
  141.0192  134.0912  157.4139 LP  0  0  0  0  0  0  0  0  0  0  0  0  # atno 17394 bound_to 11000
  139.8906  135.0113  156.6747 LP  0  0  0  0  0  0  0  0  0  0  0  0  # atno 17395 bound_to 11000

$$$$
