AV-unprocessed.smi:2568|AV-procd|sdf|10089|dock2
  -GOLD-   2272014113D 1   1.00000     0.00000
 Structure written by MMmdl.
 25 26  0  0  0  0  0  0  0  0  2 V2000
  153.0946  137.4358  158.5608 C   0  0  0  0  0  0  0  0  0  0  0  0
  152.4836  138.7948  158.6205 C   0  0  0  0  0  0  0  0  0  0  0  0
  151.2250  138.9896  159.0183 N   0  0  0  0  0  0  0  0  0  0  0  0
  150.9433  140.3091  158.9779 N   0  0  0  0  0  0  0  0  0  0  0  0
  152.0863  140.8245  158.5268 C   0  0  0  0  0  0  0  0  0  0  0  0
  152.2461  142.3042  158.3655 C   0  0  1  0  0  0  0  0  0  0  0  0
  151.1692  142.9091  157.4452 C   0  0  0  0  0  0  0  0  0  0  0  0
  151.3170  144.3765  157.3985 N   0  3  0  0  0  0  0  0  0  0  0  0
  151.2911  144.9656  158.7522 C   0  0  0  0  0  0  0  0  0  0  0  0
  152.3471  144.2913  159.6465 C   0  0  0  0  0  0  0  0  0  0  0  0
  152.1372  142.8828  159.6645 O   0  0  0  0  0  0  0  0  0  0  0  0
  153.0971  139.9292  158.3017 N   0  0  0  0  0  0  0  0  0  0  0  0
  150.5593  138.2910  159.3174 H   0  0  0  0  0  0  0  0  0  0  0  0
  154.1194  137.4935  158.1925 H   0  0  0  0  0  0  0  0  0  0  0  0
  152.5195  136.7954  157.8913 H   0  0  0  0  0  0  0  0  0  0  0  0
  153.1056  136.9863  159.5539 H   0  0  0  0  0  0  0  0  0  0  0  0
  153.2418  142.5068  157.9652 H   0  0  0  0  0  0  0  0  0  0  0  0
  151.2515  142.5046  156.4358 H   0  0  0  0  0  0  0  0  0  0  0  0
  150.1714  142.6628  157.8112 H   0  0  0  0  0  0  0  0  0  0  0  0
  152.2022  144.5987  156.9651 H   0  0  0  0  0  0  0  0  0  0  0  0
  151.4740  146.0380  158.6838 H   0  0  0  0  0  0  0  0  0  0  0  0
  150.2963  144.8352  159.1803 H   0  0  0  0  0  0  0  0  0  0  0  0
  153.3556  144.5138  159.2941 H   0  0  0  0  0  0  0  0  0  0  0  0
  152.2756  144.6726  160.6651 H   0  0  0  0  0  0  0  0  0  0  0  0
  150.5707  144.7725  156.8446 H   0  0  0  0  0  0  0  0  0  0  0  0
  1 14  1  0  0  0  0
  1 15  1  0  0  0  0
  1 16  1  0  0  0  0
  1  2  1  0  0  0  0
  2 12  2  0  0  0  0
  2  3  1  0  0  0  0
  3  4  1  0  0  0  0
  3 13  1  0  0  0  0
  4  5  2  0  0  0  0
  5 12  1  0  0  0  0
  5  6  1  0  0  0  0
  6 11  1  0  0  0  0
  6  7  1  0  0  0  0
  6 17  1  0  0  0  0
  7  8  1  0  0  0  0
  7 18  1  0  0  0  0
  7 19  1  0  0  0  0
  8  9  1  0  0  0  0
  8 20  1  0  0  0  0
  8 25  1  0  0  0  0
  9 10  1  0  0  0  0
  9 21  1  0  0  0  0
  9 22  1  0  0  0  0
 10 11  1  0  0  0  0
 10 23  1  0  0  0  0
 10 24  1  0  0  0  0
M  CHG  1   8   1
M  END
> <s_m_source_file>
AV-unprocessed.smi

> <i_m_source_file_index>
2568

> <i_lp_mmshare_version>
43012

> <i_f3d_flags>
0

> <s_epik_input>
W0NIM11jMW5bbkhdYyhuMSlbQ0BASF0yW0NIMl1bTkhdW0NIMl1bQ0gyXU8y

> <s_epik_cmdline>
J2VwaWtfcHl0aG9uJywgJy1waCcsICc3LjAnLCAnLXRuJywgJzgnLCAnLW1hJywgJzIwMCcsICctbWV0YWxfYmluZGluZycsICctaW1hZScsICc8aW5maWxlLm1hZT4nLCAnLW9tYWUnLCAnPG91dGZpbGUubWFlPic=

> <r_lp_tautomer_probability>
0.948284

> <r_epik_Ionization_Penalty>
0.107151

> <r_epik_Ionization_Penalty_Charging>
0.100865

> <r_epik_Ionization_Penalty_Neutral>
0.00628602

> <r_epik_State_Penalty>
0.200426

> <r_epik_Charging_Adjusted_Penalty>
0.30129

> <i_epik_Tot_Q>
1

> <i_epik_Tot_abs_Q>
1

> <r_epik_Metal_State_Penalty>
0.501686

> <b_epik_Metal_Only>
0

> <s_lp_Force_Field>
OPLS_2005

> <r_lp_Energy>
11.0041

> <b_lp_Chiralities_Consistent>
1

> <s_lp_Variant>
AV-unprocessed.smi:2568-2

> <Gold.Version>
5.8.1

> <Gold.Id.Protein>
6NUR|6NUR_protein|mol2

> <Gold.PLP.Fitness>
29.2857

> <Gold.PLP.PLP>
-20.3964

> <Gold.PLP.part.hbond>
-2.0000

> <Gold.PLP.part.metal>
0.0000

> <Gold.PLP.part.buried>
-4.0754

> <Gold.PLP.part.nonpolar>
-13.6565

> <Gold.PLP.part.repulsive>
0.1833

> <Gold.PLP.ligand.clash>
0.0000

> <Gold.PLP.ligand.torsion>
0.0625

> <Gold.PLP.Chemscore.Hbond>
3.0000

> <Gold.PLP.Chemscore.CHOScore>
0.0000

> <Gold.PLP.Chemscore.Metal>
0.0000

> <Gold.Chemscore.Hbonds>
donor molecule, donor type, donor heavy atom, donor atom, acceptor molecule, acceptor atom, score
      L1  H     8    25       P1  8028  2.00
      P1  H  7997  8008       L1    12  0.99

> <Gold.PLP.Chemscore.Internal.Correction>
0.0143

> <Gold.Rescore>
     Score         DG    S(hbond)    S(metal)    S(lipo)     H(rot)  DE(clash)    DE(int)     intcor
     14.94     -15.01       1.98        0.00      46.84       1.00       0.06       0.01       ----

> <Gold.Chemscore.Fitness>
14.9376

> <Gold.Chemscore.DG>
-15.0052

> <Gold.Chemscore.ZeroCoef>
-5.4800

> <Gold.Chemscore.Hbond>
1.9775

> <Gold.Chemscore.Metal>
0.0000

> <Gold.Chemscore.Lipo>
46.8408

> <Gold.Chemscore.Internal_Hbond>
0.0000

> <Gold.Chemscore.DEClash>
0.0580

> <Gold.Chemscore.DEInternal>
0.0096

> <Gold.Chemscore.Rot>
1.0000

> <Gold.Chemscore.Internal.Correction>
   9.000000E+99

> <Gold.Chemscore.Hbonds>
donor molecule, donor type, donor heavy atom, donor atom, acceptor molecule, acceptor atom, score
      L1  H     8    25       P1  8028  0.73
      P1  H  7997  8008       L1    12  0.89

> <Gold.Chemscore.Hbond.Weighted>
-6.6048

> <Gold.Chemscore.Metal.Weighted>
-0.0000

> <Gold.Chemscore.Lipo.Weighted>
-5.4804

> <Gold.Chemscore.Internal_Hbond.Weighted>
0.0000

> <Gold.Chemscore.DEClash.Weighted>
0.0580

> <Gold.Chemscore.DEInternal.Weighted>
0.0096

> <Gold.Chemscore.Rot.Weighted>
2.5600

> <Gold.Chemscore.Internal.Correction.Weighted>
   9.000000E+99

> <Gold.Protein.RotatedTorsions>
[ 6907 6896 6895 6894 ] final  176.96 input  -60.11 | X-H torsion
[ 7974 7965 7964 7962 ] final -107.65 input  175.53 | X-H torsion
[ 8008 7997 7996 7995 ] final  -71.29 input   59.86 | X-H torsion
[ 10167 10162 10161 10158 ] final   23.92 input  -65.29 | X-H torsion
[ 10718 10713 10712 10709 ] final   98.85 input   66.30 | X-H torsion
[ 10763 10752 10751 10750 ] final -151.64 input  -60.55 | X-H torsion
[ 11005 11000 10999 10996 ] final  -66.56 input  -57.11 | X-H torsion

> <Gold.Protein.ActiveResidues>
 VAL166  LYS551  ARG553  GLY616  TRP617  ASP618  TYR619  PRO620  LYS621  CYS622 
 ASP623  PHE694  ASN695  SER759  ASP760  ASP761  ALA762  ILE779  LEU786  VAL792 
 PHE793  MET794  SER795  GLU796  ALA797  LYS798  CYS799  TRP800  GLU811  SER814 

> <Gold.Protein.RotatedAtoms>
  151.7118  133.3312  159.3292 H   0  0  0  0  0  0  0  0  0  0  0  0  # atno 6907 bound_to 6896
  150.7691  134.6526  159.6305 H   0  0  0  0  0  0  0  0  0  0  0  0  # atno 6908 bound_to 6896
  152.3707  134.6741  160.0229 H   0  0  0  0  0  0  0  0  0  0  0  0  # atno 6909 bound_to 6896
  145.2027  140.9063  143.3360 H   0  0  0  0  0  0  0  0  0  0  0  0  # atno 7974 bound_to 7965
  154.5076  140.0818  156.7926 H   0  0  0  0  0  0  0  0  0  0  0  0  # atno 8008 bound_to 7997
  155.3858  140.3430  155.4230 H   0  0  0  0  0  0  0  0  0  0  0  0  # atno 8009 bound_to 7997
  156.1535  140.1566  156.8719 H   0  0  0  0  0  0  0  0  0  0  0  0  # atno 8010 bound_to 7997
  140.5230  143.9970  150.6426 H   0  0  0  0  0  0  0  0  0  0  0  0  # atno 10167 bound_to 10162
  157.6888  131.0652  150.4859 H   0  0  0  0  0  0  0  0  0  0  0  0  # atno 10718 bound_to 10713
  154.8045  135.3255  154.7466 H   0  0  0  0  0  0  0  0  0  0  0  0  # atno 10763 bound_to 10752
  153.8127  135.6894  153.4843 H   0  0  0  0  0  0  0  0  0  0  0  0  # atno 10764 bound_to 10752
  153.1782  135.4597  154.9937 H   0  0  0  0  0  0  0  0  0  0  0  0  # atno 10765 bound_to 10752
  141.1485  133.6702  156.6159 H   0  0  0  0  0  0  0  0  0  0  0  0  # atno 11005 bound_to 11000
  144.9932  139.3669  143.6204 LP  0  0  0  0  0  0  0  0  0  0  0  0  # atno 17320 bound_to 7965
  146.3414  139.9124  142.8778 LP  0  0  0  0  0  0  0  0  0  0  0  0  # atno 17321 bound_to 7965
  140.3324  143.3069  152.0673 LP  0  0  0  0  0  0  0  0  0  0  0  0  # atno 17342 bound_to 10162
  139.4929  144.6500  151.6697 LP  0  0  0  0  0  0  0  0  0  0  0  0  # atno 17343 bound_to 10162
  156.5188  130.4157  149.6261 LP  0  0  0  0  0  0  0  0  0  0  0  0  # atno 17370 bound_to 10713
  156.3173  130.7261  151.2166 LP  0  0  0  0  0  0  0  0  0  0  0  0  # atno 17371 bound_to 10713
  140.3578  134.7713  157.4513 LP  0  0  0  0  0  0  0  0  0  0  0  0  # atno 17394 bound_to 11000
  140.0809  134.5733  155.8542 LP  0  0  0  0  0  0  0  0  0  0  0  0  # atno 17395 bound_to 11000

$$$$
