AV-unprocessed.smi:1381|AV-procd|sdf|5608|dock8
  -GOLD-   22720 5213D 1   1.00000     0.00000
 Structure written by MMmdl.
 43 44  0  0  0  0  0  0  0  0  2 V2000
  153.4501  137.6103  156.7435 C   0  0  0  0  0  0  0  0  0  0  0  0
  152.4445  138.2552  155.8525 C   0  0  0  0  0  0  0  0  0  0  0  0
  151.4472  137.7573  155.0624 C   0  0  0  0  0  0  0  0  0  0  0  0
  150.8776  138.9318  154.4896 C   0  0  0  0  0  0  0  0  0  0  0  0
  149.7911  138.9818  153.5782 N   0  0  0  0  0  0  0  0  0  0  0  0
  148.5388  138.5242  153.7445 C   0  0  0  0  0  0  0  0  0  0  0  0
  148.1104  137.9642  154.7534 O   0  0  0  0  0  0  0  0  0  0  0  0
  147.7871  138.7577  152.6587 N   0  0  0  0  0  0  0  0  0  0  0  0
  146.3855  138.3803  152.5157 C   0  0  0  0  0  0  0  0  0  0  0  0
  146.2168  137.1729  151.5734 C   0  0  0  0  0  0  0  0  0  0  0  0
  144.7901  136.7963  151.3877 N   0  3  1  0  0  0  0  0  0  0  0  0
  144.5978  135.6044  150.5257 C   0  0  0  0  0  0  0  0  0  0  0  0
  144.9076  134.3023  151.2926 C   0  0  2  0  0  0  0  0  0  0  0  0
  144.6322  133.0556  150.4451 C   0  0  0  0  0  0  0  0  0  0  0  0
  144.0811  134.2420  152.4504 O   0  0  0  0  0  0  0  0  0  0  0  0
  144.3150  135.3163  153.3549 C   0  0  2  0  0  0  0  0  0  0  0  0
  143.4267  135.1049  154.5859 C   0  0  0  0  0  0  0  0  0  0  0  0
  144.0121  136.6541  152.6453 C   0  0  0  0  0  0  0  0  0  0  0  0
  151.4757  140.0368  154.8943 N   0  0  0  0  0  0  0  0  0  0  0  0
  152.4823  139.6123  155.7695 O   0  0  0  0  0  0  0  0  0  0  0  0
  153.1959  136.5660  156.9257 H   0  0  0  0  0  0  0  0  0  0  0  0
  153.4979  138.1190  157.7065 H   0  0  0  0  0  0  0  0  0  0  0  0
  154.4420  137.6439  156.2926 H   0  0  0  0  0  0  0  0  0  0  0  0
  151.1844  136.7190  154.9281 H   0  0  0  0  0  0  0  0  0  0  0  0
  149.9940  139.4245  152.6942 H   0  0  0  0  0  0  0  0  0  0  0  0
  148.2175  139.2223  151.8723 H   0  0  0  0  0  0  0  0  0  0  0  0
  146.0116  138.1504  153.5126 H   0  0  0  0  0  0  0  0  0  0  0  0
  145.8054  139.2313  152.1550 H   0  0  0  0  0  0  0  0  0  0  0  0
  146.6359  137.4377  150.6019 H   0  0  0  0  0  0  0  0  0  0  0  0
  146.7985  136.3238  151.9318 H   0  0  0  0  0  0  0  0  0  0  0  0
  143.5597  135.5911  150.1906 H   0  0  0  0  0  0  0  0  0  0  0  0
  145.2066  135.6819  149.6239 H   0  0  0  0  0  0  0  0  0  0  0  0
  145.9556  134.2857  151.5962 H   0  0  0  0  0  0  0  0  0  0  0  0
  145.2491  133.0478  149.5461 H   0  0  0  0  0  0  0  0  0  0  0  0
  143.5877  133.0104  150.1352 H   0  0  0  0  0  0  0  0  0  0  0  0
  144.8524  132.1472  151.0060 H   0  0  0  0  0  0  0  0  0  0  0  0
  145.3554  135.2886  153.6810 H   0  0  0  0  0  0  0  0  0  0  0  0
  143.5730  135.9004  155.3171 H   0  0  0  0  0  0  0  0  0  0  0  0
  143.6580  134.1585  155.0755 H   0  0  0  0  0  0  0  0  0  0  0  0
  142.3706  135.0897  154.3145 H   0  0  0  0  0  0  0  0  0  0  0  0
  144.1898  137.4946  153.3150 H   0  0  0  0  0  0  0  0  0  0  0  0
  142.9523  136.6929  152.3888 H   0  0  0  0  0  0  0  0  0  0  0  0
  144.3808  137.5682  150.8804 H   0  0  0  0  0  0  0  0  0  0  0  0
  1  2  1  0  0  0  0
  1 21  1  0  0  0  0
  1 22  1  0  0  0  0
  1 23  1  0  0  0  0
  2 20  1  0  0  0  0
  2  3  2  0  0  0  0
  3  4  1  0  0  0  0
  3 24  1  0  0  0  0
  4  5  1  0  0  0  0
  4 19  2  0  0  0  0
  5  6  1  0  0  0  0
  5 25  1  0  0  0  0
  6  7  2  0  0  0  0
  6  8  1  0  0  0  0
  8  9  1  0  0  0  0
  8 26  1  0  0  0  0
  9 10  1  0  0  0  0
  9 27  1  0  0  0  0
  9 28  1  0  0  0  0
 10 11  1  0  0  0  0
 10 29  1  0  0  0  0
 10 30  1  0  0  0  0
 11 18  1  0  0  0  0
 11 12  1  0  0  0  0
 11 43  1  0  0  0  0
 12 13  1  0  0  0  0
 12 31  1  0  0  0  0
 12 32  1  0  0  0  0
 13 14  1  0  0  0  0
 13 15  1  0  0  0  0
 13 33  1  0  0  0  0
 14 34  1  0  0  0  0
 14 35  1  0  0  0  0
 14 36  1  0  0  0  0
 15 16  1  0  0  0  0
 16 17  1  0  0  0  0
 16 18  1  0  0  0  0
 16 37  1  0  0  0  0
 17 38  1  0  0  0  0
 17 39  1  0  0  0  0
 17 40  1  0  0  0  0
 18 41  1  0  0  0  0
 18 42  1  0  0  0  0
 19 20  1  0  0  0  0
M  CHG  1  11   1
M  END
> <s_m_source_file>
AV-unprocessed.smi

> <i_m_source_file_index>
1381

> <i_lp_mmshare_version>
43012

> <i_f3d_flags>
0

> <s_epik_input>
W0NIM11jMVtjSF1jKG5vMSlbTkhdQyg9TylbTkhdW0NIMl1bQ0gyXU4yW0NIMl1bQ0BASF0oW0NIM10pT1tDQEBIXShbQ0gzXSlbQ0gyXTI=

> <s_epik_cmdline>
J2VwaWtfcHl0aG9uJywgJy1waCcsICc3LjAnLCAnLXRuJywgJzgnLCAnLW1hJywgJzIwMCcsICctbWV0YWxfYmluZGluZycsICctaW1hZScsICc8aW5maWxlLm1hZT4nLCAnLW9tYWUnLCAnPG91dGZpbGUubWFlPic=

> <r_epik_Ionization_Penalty>
0.707076

> <r_epik_Ionization_Penalty_Charging>
0.707039

> <r_epik_Ionization_Penalty_Neutral>
3.6548e-05

> <r_epik_State_Penalty>
0.730276

> <r_epik_Charging_Adjusted_Penalty>
1.43732

> <i_epik_Tot_Q>
1

> <i_epik_Tot_abs_Q>
1

> <r_epik_Metal_State_Penalty>
0.743132

> <b_epik_Metal_Only>
0

> <s_lp_Force_Field>
OPLS_2005

> <r_lp_Energy>
17.699

> <b_lp_Chiralities_Consistent>
1

> <s_lp_Variant>
AV-unprocessed.smi:1381-7

> <Gold.Version>
5.8.1

> <Gold.Id.Protein>
6NUR|6NUR_protein|mol2

> <Gold.PLP.Fitness>
44.8669

> <Gold.PLP.PLP>
-31.1731

> <Gold.PLP.part.hbond>
-6.0000

> <Gold.PLP.part.metal>
0.0000

> <Gold.PLP.part.buried>
-1.2149

> <Gold.PLP.part.nonpolar>
-24.6066

> <Gold.PLP.part.repulsive>
0.5042

> <Gold.PLP.ligand.clash>
0.0000

> <Gold.PLP.ligand.torsion>
0.6625

> <Gold.PLP.Chemscore.Hbond>
5.0000

> <Gold.PLP.Chemscore.CHOScore>
0.0000

> <Gold.PLP.Chemscore.Metal>
0.0000

> <Gold.Chemscore.Hbonds>
donor molecule, donor type, donor heavy atom, donor atom, acceptor molecule, acceptor atom, score
      L1  H     5    25       P1  7957  1.00
      L1  H     8    26       P1  7957  1.00
      L1  H    11    43       P1 10171  1.00
      P1  H  7989  7998       L1    19  1.00
      P1  H  7997  8010       L1    20  1.00

> <Gold.PLP.Chemscore.Internal.Correction>
0.0186

> <Gold.Rescore>
     Score         DG    S(hbond)    S(metal)    S(lipo)     H(rot)  DE(clash)    DE(int)     intcor
     22.37     -24.09       4.72        0.00      59.49       1.61       1.34       0.38       ----

> <Gold.Chemscore.Fitness>
22.3679

> <Gold.Chemscore.DG>
-24.0850

> <Gold.Chemscore.ZeroCoef>
-5.4800

> <Gold.Chemscore.Hbond>
4.7190

> <Gold.Chemscore.Metal>
0.0000

> <Gold.Chemscore.Lipo>
59.4904

> <Gold.Chemscore.Internal_Hbond>
0.0000

> <Gold.Chemscore.DEClash>
1.3353

> <Gold.Chemscore.DEInternal>
0.3818

> <Gold.Chemscore.Rot>
1.6081

> <Gold.Chemscore.Internal.Correction>
   9.000000E+99

> <Gold.Chemscore.Hbonds>
donor molecule, donor type, donor heavy atom, donor atom, acceptor molecule, acceptor atom, score
      L1  H     5    25       P1  7957  0.94
      L1  H     8    26       P1  7957  0.95
      L1  H    11    43       P1 10171  0.96
      P1  H  7989  7998       L1    19  0.39
      P1  H  7997  8010       L1    20  0.54

> <Gold.Chemscore.Hbond.Weighted>
-15.7613

> <Gold.Chemscore.Metal.Weighted>
-0.0000

> <Gold.Chemscore.Lipo.Weighted>
-6.9604

> <Gold.Chemscore.Internal_Hbond.Weighted>
0.0000

> <Gold.Chemscore.DEClash.Weighted>
1.3353

> <Gold.Chemscore.DEInternal.Weighted>
0.3818

> <Gold.Chemscore.Rot.Weighted>
4.1167

> <Gold.Chemscore.Internal.Correction.Weighted>
   9.000000E+99

> <Gold.Protein.RotatedTorsions>
[ 6907 6896 6895 6894 ] final  147.86 input  -60.11 | X-H torsion
[ 7974 7965 7964 7962 ] final -114.23 input  175.53 | X-H torsion
[ 8008 7997 7996 7995 ] final   85.10 input   59.86 | X-H torsion
[ 10167 10162 10161 10158 ] final -108.75 input  -65.29 | X-H torsion
[ 10718 10713 10712 10709 ] final   18.44 input   66.30 | X-H torsion
[ 10763 10752 10751 10750 ] final  157.07 input  -60.55 | X-H torsion
[ 11005 11000 10999 10996 ] final   21.79 input  -57.11 | X-H torsion

> <Gold.Protein.ActiveResidues>
 VAL166  LYS551  ARG553  GLY616  TRP617  ASP618  TYR619  PRO620  LYS621  CYS622 
 ASP623  PHE694  ASN695  SER759  ASP760  ASP761  ALA762  ILE779  LEU786  VAL792 
 PHE793  MET794  SER795  GLU796  ALA797  LYS798  CYS799  TRP800  GLU811  SER814 

> <Gold.Protein.RotatedAtoms>
  152.1492  133.4511  159.4804 H   0  0  0  0  0  0  0  0  0  0  0  0  # atno 6907 bound_to 6896
  150.6894  134.2210  159.4406 H   0  0  0  0  0  0  0  0  0  0  0  0  # atno 6908 bound_to 6896
  152.0106  134.9878  160.0618 H   0  0  0  0  0  0  0  0  0  0  0  0  # atno 6909 bound_to 6896
  145.1226  140.8678  143.3805 H   0  0  0  0  0  0  0  0  0  0  0  0  # atno 7974 bound_to 7965
  155.9456  140.3405  155.6364 H   0  0  0  0  0  0  0  0  0  0  0  0  # atno 8008 bound_to 7997
  155.6984  140.0757  157.2438 H   0  0  0  0  0  0  0  0  0  0  0  0  # atno 8009 bound_to 7997
  154.4111  140.1644  156.2151 H   0  0  0  0  0  0  0  0  0  0  0  0  # atno 8010 bound_to 7997
  140.1628  143.4106  152.1413 H   0  0  0  0  0  0  0  0  0  0  0  0  # atno 10167 bound_to 10162
  157.0964  130.6449  149.5861 H   0  0  0  0  0  0  0  0  0  0  0  0  # atno 10718 bound_to 10713
  154.1944  135.2793  155.3011 H   0  0  0  0  0  0  0  0  0  0  0  0  # atno 10763 bound_to 10752
  154.5904  135.5561  153.7276 H   0  0  0  0  0  0  0  0  0  0  0  0  # atno 10764 bound_to 10752
  153.0104  135.6367  154.2082 H   0  0  0  0  0  0  0  0  0  0  0  0  # atno 10765 bound_to 10752
  140.3877  134.1852  155.7663 H   0  0  0  0  0  0  0  0  0  0  0  0  # atno 11005 bound_to 11000
  145.0724  139.3021  143.5825 LP  0  0  0  0  0  0  0  0  0  0  0  0  # atno 17320 bound_to 7965
  146.3520  140.0203  142.8659 LP  0  0  0  0  0  0  0  0  0  0  0  0  # atno 17321 bound_to 7965
  139.5373  144.7222  151.4850 LP  0  0  0  0  0  0  0  0  0  0  0  0  # atno 17342 bound_to 10162
  140.6632  143.8454  150.6911 LP  0  0  0  0  0  0  0  0  0  0  0  0  # atno 17343 bound_to 10162
  155.9885  130.4928  150.7171 LP  0  0  0  0  0  0  0  0  0  0  0  0  # atno 17370 bound_to 10713
  157.4678  131.0890  151.0676 LP  0  0  0  0  0  0  0  0  0  0  0  0  # atno 17371 bound_to 10713
  141.1902  133.8223  157.0929 LP  0  0  0  0  0  0  0  0  0  0  0  0  # atno 17394 bound_to 11000
  140.0430  134.9844  157.0997 LP  0  0  0  0  0  0  0  0  0  0  0  0  # atno 17395 bound_to 11000

$$$$
