AV-unprocessed.smi:2252|AV-procd|sdf|9111|dock9
  -GOLD-   2272012313D 1   1.00000     0.00000
 Structure written by MMmdl.
 44 46  0  0  0  0  0  0  0  0  3 V2000
  153.0810  142.1863  159.9555 C   0  0  0  0  0  0  0  0  0  0  0  0
  152.2046  142.7948  158.9727 N   0  0  0  0  0  0  0  0  0  0  0  0
  151.9080  144.1485  158.8807 C   0  0  0  0  0  0  0  0  0  0  0  0
  151.0428  144.2927  157.8242 C   0  0  0  0  0  0  0  0  0  0  0  0
  150.7961  143.0474  157.2591 N   0  0  0  0  0  0  0  0  0  0  0  0
  151.5197  142.1897  157.9789 C   0  0  0  0  0  0  0  0  0  0  0  0
  151.5652  140.7032  157.7205 C   0  0  0  0  0  0  0  0  0  0  0  0
  151.9972  140.2859  156.2935 C   0  0  0  0  0  0  0  0  0  0  0  0
  150.8353  140.1643  155.4159 N   0  5  0  0  0  0  0  0  0  0  0  0
  149.7109  139.4573  155.7207 C   0  0  0  0  0  0  0  0  0  0  0  0
  149.1261  139.3101  156.7982 O   0  0  0  0  0  0  0  0  0  0  0  0
  149.1083  138.7977  154.4659 C   0  0  2  0  0  0  0  0  0  0  0  0
  147.6388  139.2423  154.2739 C   0  0  0  0  0  0  0  0  0  0  0  0
  146.9771  139.2026  152.9132 C   0  0  0  0  0  0  0  0  0  0  0  0
  147.3103  140.5285  153.5471 C   0  0  0  0  0  0  0  0  0  0  0  0
  149.2480  137.3140  154.5164 N   0  3  0  0  0  0  0  0  0  0  0  0
  150.5911  136.8008  154.8636 C   0  0  0  0  0  0  0  0  0  0  0  0
  150.3875  135.3938  155.4430 C   0  0  0  0  0  0  0  0  0  0  0  0
  148.8724  135.2122  155.5628 C   0  0  0  0  0  0  0  0  0  0  0  0
  148.3068  136.6219  155.4208 C   0  0  0  0  0  0  0  0  0  0  0  0
  153.5159  142.9529  160.5976 H   0  0  0  0  0  0  0  0  0  0  0  0
  153.8873  141.6510  159.4537 H   0  0  0  0  0  0  0  0  0  0  0  0
  152.5150  141.4892  160.5738 H   0  0  0  0  0  0  0  0  0  0  0  0
  152.3264  144.8785  159.5577 H   0  0  0  0  0  0  0  0  0  0  0  0
  150.5821  145.1869  157.4311 H   0  0  0  0  0  0  0  0  0  0  0  0
  152.2360  140.2410  158.4445 H   0  0  0  0  0  0  0  0  0  0  0  0
  150.5795  140.2900  157.9386 H   0  0  0  0  0  0  0  0  0  0  0  0
  152.7010  141.0243  155.9091 H   0  0  0  0  0  0  0  0  0  0  0  0
  152.5631  139.3556  156.3553 H   0  0  0  0  0  0  0  0  0  0  0  0
  149.6784  139.1506  153.6046 H   0  0  0  0  0  0  0  0  0  0  0  0
  146.9958  139.0135  155.1225 H   0  0  0  0  0  0  0  0  0  0  0  0
  147.5792  138.8902  152.0622 H   0  0  0  0  0  0  0  0  0  0  0  0
  145.9296  138.9110  152.8748 H   0  0  0  0  0  0  0  0  0  0  0  0
  146.4868  141.1249  153.9346 H   0  0  0  0  0  0  0  0  0  0  0  0
  148.1352  141.0947  153.1191 H   0  0  0  0  0  0  0  0  0  0  0  0
  151.2443  136.7952  153.9903 H   0  0  0  0  0  0  0  0  0  0  0  0
  151.0468  137.4387  155.6222 H   0  0  0  0  0  0  0  0  0  0  0  0
  150.8205  134.6277  154.7988 H   0  0  0  0  0  0  0  0  0  0  0  0
  150.8681  135.3140  156.4187 H   0  0  0  0  0  0  0  0  0  0  0  0
  148.5128  134.5899  154.7425 H   0  0  0  0  0  0  0  0  0  0  0  0
  148.5757  134.7341  156.4967 H   0  0  0  0  0  0  0  0  0  0  0  0
  148.2991  137.1180  156.3927 H   0  0  0  0  0  0  0  0  0  0  0  0
  147.2868  136.6186  155.0347 H   0  0  0  0  0  0  0  0  0  0  0  0
  149.0415  136.9781  153.5856 H   0  0  0  0  0  0  0  0  0  0  0  0
  1  2  1  0  0  0  0
  1 21  1  0  0  0  0
  1 22  1  0  0  0  0
  1 23  1  0  0  0  0
  2  6  1  0  0  0  0
  2  3  1  0  0  0  0
  3  4  2  0  0  0  0
  3 24  1  0  0  0  0
  4  5  1  0  0  0  0
  4 25  1  0  0  0  0
  5  6  2  0  0  0  0
  6  7  1  0  0  0  0
  7  8  1  0  0  0  0
  7 26  1  0  0  0  0
  7 27  1  0  0  0  0
  8  9  1  0  0  0  0
  8 28  1  0  0  0  0
  8 29  1  0  0  0  0
  9 10  1  0  0  0  0
 10 11  2  0  0  0  0
 10 12  1  0  0  0  0
 12 13  1  0  0  0  0
 12 16  1  0  0  0  0
 12 30  1  0  0  0  0
 13 15  1  0  0  0  0
 13 14  1  0  0  0  0
 13 31  1  0  0  0  0
 14 15  1  0  0  0  0
 14 32  1  0  0  0  0
 14 33  1  0  0  0  0
 15 34  1  0  0  0  0
 15 35  1  0  0  0  0
 16 20  1  0  0  0  0
 16 17  1  0  0  0  0
 16 44  1  0  0  0  0
 17 18  1  0  0  0  0
 17 36  1  0  0  0  0
 17 37  1  0  0  0  0
 18 19  1  0  0  0  0
 18 38  1  0  0  0  0
 18 39  1  0  0  0  0
 19 20  1  0  0  0  0
 19 40  1  0  0  0  0
 19 41  1  0  0  0  0
 20 42  1  0  0  0  0
 20 43  1  0  0  0  0
M  CHG  1   9  -1
M  CHG  1  16   1
M  END
> <s_m_source_file>
AV-unprocessed.smi

> <i_m_source_file_index>
2252

> <i_lp_mmshare_version>
43012

> <i_f3d_flags>
0

> <s_epik_input>
W0NIM11uMVtjSF1bY0hdbmMxW0NIMl1bQ0gyXVtOSF1DKD1PKVtDQEhdKFtDSF0yW0NIMl1bQ0gyXTIpTjNbQ0gyXVtDSDJdW0NIMl1bQ0gyXTM=

> <s_epik_cmdline>
J2VwaWtfcHl0aG9uJywgJy1waCcsICc3LjAnLCAnLXRuJywgJzgnLCAnLW1hJywgJzIwMCcsICctbWV0YWxfYmluZGluZycsICctaW1hZScsICc8aW5maWxlLm1hZT4nLCAnLW9tYWUnLCAnPG91dGZpbGUubWFlPic=

> <r_lp_tautomer_probability>
1

> <r_epik_Ionization_Penalty>
7.86289

> <r_epik_Ionization_Penalty_Charging>
7.86289

> <r_epik_Ionization_Penalty_Neutral>
4.79398e-13

> <r_epik_State_Penalty>
7.18546

> <r_epik_Charging_Adjusted_Penalty>
15.0484

> <i_epik_Tot_Q>
0

> <i_epik_Tot_abs_Q>
2

> <r_epik_Metal_State_Penalty>
3.4294

> <b_epik_Metal_Only>
1

> <s_lp_Force_Field>
OPLS_2005

> <r_lp_Energy>
29.989

> <b_lp_Chiralities_Consistent>
1

> <s_lp_Variant>
AV-unprocessed.smi:2252-9

> <Gold.Version>
5.8.1

> <Gold.Id.Protein>
6NUR|6NUR_protein|mol2

> <Gold.PLP.Fitness>
44.8658

> <Gold.PLP.PLP>
-35.0186

> <Gold.PLP.part.hbond>
-2.0000

> <Gold.PLP.part.metal>
0.0000

> <Gold.PLP.part.buried>
-2.3151

> <Gold.PLP.part.nonpolar>
-30.9119

> <Gold.PLP.part.repulsive>
0.1980

> <Gold.PLP.ligand.clash>
0.0000

> <Gold.PLP.ligand.torsion>
1.3019

> <Gold.PLP.Chemscore.Hbond>
3.0000

> <Gold.PLP.Chemscore.CHOScore>
0.7315

> <Gold.PLP.Chemscore.Metal>
0.0000

> <Gold.Chemscore.Hbonds>
donor molecule, donor type, donor heavy atom, donor atom, acceptor molecule, acceptor atom, score
      L1  H    16    44       P1  7948  2.00
      P1  H  7989  7998       L1     9  0.60
      L1  C     4    25       P1  8028  0.56
      L1  C     4    25       P1  8029  0.03

> <Gold.PLP.Chemscore.Internal.Correction>
1.2565

> <Gold.Rescore>
     Score         DG    S(hbond)    S(metal)    S(lipo)     H(rot)  DE(clash)    DE(int)     intcor
     13.51     -17.95       1.80        0.00      96.24       1.88       1.88       2.55       ----

> <Gold.Chemscore.Fitness>
13.5142

> <Gold.Chemscore.DG>
-17.9493

> <Gold.Chemscore.ZeroCoef>
-5.4800

> <Gold.Chemscore.Hbond>
1.8042

> <Gold.Chemscore.Metal>
0.0000

> <Gold.Chemscore.Lipo>
96.2369

> <Gold.Chemscore.Internal_Hbond>
0.0000

> <Gold.Chemscore.DEClash>
1.8830

> <Gold.Chemscore.DEInternal>
2.5521

> <Gold.Chemscore.Rot>
1.8814

> <Gold.Chemscore.Internal.Correction>
   9.000000E+99

> <Gold.Chemscore.Hbonds>
donor molecule, donor type, donor heavy atom, donor atom, acceptor molecule, acceptor atom, score
      L1  H    16    44       P1  7948  1.00
      P1  H  7989  7998       L1     9  0.21

> <Gold.Chemscore.Hbond.Weighted>
-6.0259

> <Gold.Chemscore.Metal.Weighted>
-0.0000

> <Gold.Chemscore.Lipo.Weighted>
-11.2597

> <Gold.Chemscore.Internal_Hbond.Weighted>
0.0000

> <Gold.Chemscore.DEClash.Weighted>
1.8830

> <Gold.Chemscore.DEInternal.Weighted>
2.5521

> <Gold.Chemscore.Rot.Weighted>
4.8163

> <Gold.Chemscore.Internal.Correction.Weighted>
   9.000000E+99

> <Gold.Protein.RotatedTorsions>
[ 6907 6896 6895 6894 ] final   -8.87 input  -60.11 | X-H torsion
[ 7974 7965 7964 7962 ] final  -88.12 input  175.53 | X-H torsion
[ 8008 7997 7996 7995 ] final  -39.14 input   59.86 | X-H torsion
[ 10167 10162 10161 10158 ] final   -0.80 input  -65.29 | X-H torsion
[ 10718 10713 10712 10709 ] final -166.77 input   66.30 | X-H torsion
[ 10763 10752 10751 10750 ] final -130.65 input  -60.55 | X-H torsion
[ 11005 11000 10999 10996 ] final  -37.02 input  -57.11 | X-H torsion

> <Gold.Protein.ActiveResidues>
 VAL166  LYS551  ARG553  GLY616  TRP617  ASP618  TYR619  PRO620  LYS621  CYS622 
 ASP623  PHE694  ASN695  SER759  ASP760  ASP761  ALA762  ILE779  LEU786  VAL792 
 PHE793  MET794  SER795  GLU796  ALA797  LYS798  CYS799  TRP800  GLU811  SER814 

> <Gold.Protein.RotatedAtoms>
  151.4267  135.1004  159.9629 H   0  0  0  0  0  0  0  0  0  0  0  0  # atno 6907 bound_to 6896
  152.4970  133.8656  159.7283 H   0  0  0  0  0  0  0  0  0  0  0  0  # atno 6908 bound_to 6896
  150.9184  133.6853  159.2866 H   0  0  0  0  0  0  0  0  0  0  0  0  # atno 6909 bound_to 6896
  145.4574  140.9561  143.1988 H   0  0  0  0  0  0  0  0  0  0  0  0  # atno 7974 bound_to 7965
  154.4027  140.1559  156.2815 H   0  0  0  0  0  0  0  0  0  0  0  0  # atno 8008 bound_to 7997
  155.8865  140.3441  155.5903 H   0  0  0  0  0  0  0  0  0  0  0  0  # atno 8009 bound_to 7997
  155.7607  140.0817  157.2147 H   0  0  0  0  0  0  0  0  0  0  0  0  # atno 8010 bound_to 7997
  140.6783  143.6851  150.8074 H   0  0  0  0  0  0  0  0  0  0  0  0  # atno 10167 bound_to 10162
  156.6727  130.9090  151.3046 H   0  0  0  0  0  0  0  0  0  0  0  0  # atno 10718 bound_to 10713
  154.8754  135.3855  154.4118 H   0  0  0  0  0  0  0  0  0  0  0  0  # atno 10763 bound_to 10752
  153.4831  135.7030  153.5931 H   0  0  0  0  0  0  0  0  0  0  0  0  # atno 10764 bound_to 10752
  153.4338  135.3872  155.2154 H   0  0  0  0  0  0  0  0  0  0  0  0  # atno 10765 bound_to 10752
  140.9920  133.7000  156.1867 H   0  0  0  0  0  0  0  0  0  0  0  0  # atno 11005 bound_to 11000
  144.8023  139.6116  143.7066 LP  0  0  0  0  0  0  0  0  0  0  0  0  # atno 17320 bound_to 7965
  146.2470  139.6119  142.9453 LP  0  0  0  0  0  0  0  0  0  0  0  0  # atno 17321 bound_to 7965
  140.0547  143.5214  152.2657 LP  0  0  0  0  0  0  0  0  0  0  0  0  # atno 17342 bound_to 10162
  139.6089  144.7603  151.2997 LP  0  0  0  0  0  0  0  0  0  0  0  0  # atno 17343 bound_to 10162
  157.7071  130.9398  150.0968 LP  0  0  0  0  0  0  0  0  0  0  0  0  # atno 17370 bound_to 10713
  156.1927  130.3655  149.8889 LP  0  0  0  0  0  0  0  0  0  0  0  0  # atno 17371 bound_to 10713
  140.7025  134.4549  157.5585 LP  0  0  0  0  0  0  0  0  0  0  0  0  # atno 17394 bound_to 11000
  139.8997  134.8586  156.1951 LP  0  0  0  0  0  0  0  0  0  0  0  0  # atno 17395 bound_to 11000

$$$$
