AV-unprocessed.smi:1126|AV-procd|sdf|4839|dock4
  -GOLD-   22720 3403D 1   1.00000     0.00000
 Structure written by MMmdl.
 47 48  0  0  0  0  0  0  0  0  1 V2000
  152.2924  142.1438  159.5559 C   0  0  0  0  0  0  0  0  0  0  0  0
  151.8383  142.2099  158.2156 O   0  0  0  0  0  0  0  0  0  0  0  0
  151.2235  141.0047  157.7898 C   0  0  0  0  0  0  0  0  0  0  0  0
  151.7956  140.5628  156.4321 C   0  0  0  0  0  0  0  0  0  0  0  0
  150.8376  140.5032  155.3260 N   0  0  0  0  0  0  0  0  0  0  0  0
  149.7683  141.4975  155.4505 C   0  0  0  0  0  0  0  0  0  0  0  0
  148.7792  141.4597  154.2723 C   0  0  0  0  0  0  0  0  0  0  0  0
  148.1626  140.0549  154.1105 C   0  0  0  0  0  0  0  0  0  0  0  0
  147.2262  139.9479  152.8929 C   0  0  0  0  0  0  0  0  0  0  0  0
  146.2235  138.9080  153.0808 N   0  0  0  0  0  0  0  0  0  0  0  0
  145.8889  137.9969  152.1559 C   0  0  0  0  0  0  0  0  0  0  0  0
  146.4163  137.9317  151.0458 O   0  0  0  0  0  0  0  0  0  0  0  0
  144.7894  137.0066  152.5415 C   0  0  0  0  0  0  0  0  0  0  0  0
  144.8049  135.8436  151.6722 N   0  0  0  0  0  0  0  0  0  0  0  0
  145.8099  134.9144  151.5037 C   0  0  0  0  0  0  0  0  0  0  0  0
  145.3797  134.0062  150.5781 C   0  0  0  0  0  0  0  0  0  0  0  0
  146.0953  132.7996  150.0430 C   0  0  0  0  0  0  0  0  0  0  0  0
  144.0798  134.4747  150.2345 C   0  0  0  0  0  0  0  0  0  0  0  0
  143.7381  135.5724  150.8894 N   0  0  0  0  0  0  0  0  0  0  0  0
  149.2979  139.0183  154.0349 C   0  0  0  0  0  0  0  0  0  0  0  0
  150.2548  139.1648  155.2291 C   0  0  0  0  0  0  0  0  0  0  0  0
  152.7659  143.0867  159.8288 H   0  0  0  0  0  0  0  0  0  0  0  0
  153.0276  141.3484  159.6841 H   0  0  0  0  0  0  0  0  0  0  0  0
  151.4645  141.9703  160.2447 H   0  0  0  0  0  0  0  0  0  0  0  0
  151.3514  140.2161  158.5332 H   0  0  0  0  0  0  0  0  0  0  0  0
  150.1514  141.1783  157.6850 H   0  0  0  0  0  0  0  0  0  0  0  0
  152.5676  141.2868  156.1692 H   0  0  0  0  0  0  0  0  0  0  0  0
  152.3116  139.6077  156.5402 H   0  0  0  0  0  0  0  0  0  0  0  0
  149.2286  141.3464  156.3867 H   0  0  0  0  0  0  0  0  0  0  0  0
  150.1922  142.4995  155.4940 H   0  0  0  0  0  0  0  0  0  0  0  0
  147.9995  142.2049  154.4327 H   0  0  0  0  0  0  0  0  0  0  0  0
  149.2962  141.7453  153.3552 H   0  0  0  0  0  0  0  0  0  0  0  0
  147.5761  139.8401  155.0054 H   0  0  0  0  0  0  0  0  0  0  0  0
  146.7252  140.9013  152.7179 H   0  0  0  0  0  0  0  0  0  0  0  0
  147.8077  139.7241  151.9971 H   0  0  0  0  0  0  0  0  0  0  0  0
  145.7356  138.8925  153.9650 H   0  0  0  0  0  0  0  0  0  0  0  0
  144.9293  136.6754  153.5713 H   0  0  0  0  0  0  0  0  0  0  0  0
  143.8125  137.4905  152.4900 H   0  0  0  0  0  0  0  0  0  0  0  0
  146.7395  134.9779  152.0502 H   0  0  0  0  0  0  0  0  0  0  0  0
  145.9453  132.6853  148.9693 H   0  0  0  0  0  0  0  0  0  0  0  0
  145.7438  131.8829  150.5164 H   0  0  0  0  0  0  0  0  0  0  0  0
  147.1708  132.8570  150.2123 H   0  0  0  0  0  0  0  0  0  0  0  0
  143.3777  134.0512  149.5315 H   0  0  0  0  0  0  0  0  0  0  0  0
  148.8851  138.0093  154.0168 H   0  0  0  0  0  0  0  0  0  0  0  0
  149.8554  139.1427  153.1053 H   0  0  0  0  0  0  0  0  0  0  0  0
  151.0499  138.4249  155.1300 H   0  0  0  0  0  0  0  0  0  0  0  0
  149.7244  138.9240  156.1520 H   0  0  0  0  0  0  0  0  0  0  0  0
  1  2  1  0  0  0  0
  1 22  1  0  0  0  0
  1 23  1  0  0  0  0
  1 24  1  0  0  0  0
  2  3  1  0  0  0  0
  3  4  1  0  0  0  0
  3 25  1  0  0  0  0
  3 26  1  0  0  0  0
  4  5  1  0  0  0  0
  4 27  1  0  0  0  0
  4 28  1  0  0  0  0
  5 21  1  0  0  0  0
  5  6  1  0  0  0  0
  6  7  1  0  0  0  0
  6 29  1  0  0  0  0
  6 30  1  0  0  0  0
  7  8  1  0  0  0  0
  7 31  1  0  0  0  0
  7 32  1  0  0  0  0
  8  9  1  0  0  0  0
  8 20  1  0  0  0  0
  8 33  1  0  0  0  0
  9 10  1  0  0  0  0
  9 34  1  0  0  0  0
  9 35  1  0  0  0  0
 10 11  1  0  0  0  0
 10 36  1  0  0  0  0
 11 12  2  0  0  0  0
 11 13  1  0  0  0  0
 13 14  1  0  0  0  0
 13 37  1  0  0  0  0
 13 38  1  0  0  0  0
 14 19  1  0  0  0  0
 14 15  1  0  0  0  0
 15 16  2  0  0  0  0
 15 39  1  0  0  0  0
 16 17  1  0  0  0  0
 16 18  1  0  0  0  0
 17 40  1  0  0  0  0
 17 41  1  0  0  0  0
 17 42  1  0  0  0  0
 18 19  2  0  0  0  0
 18 43  1  0  0  0  0
 20 21  1  0  0  0  0
 20 44  1  0  0  0  0
 20 45  1  0  0  0  0
 21 46  1  0  0  0  0
 21 47  1  0  0  0  0
M  END
> <s_m_source_file>
AV-unprocessed.smi

> <i_m_source_file_index>
1126

> <i_lp_mmshare_version>
43012

> <i_f3d_flags>
0

> <s_epik_input>
W0NIM11PW0NIMl1bQ0gyXU4xW0NIMl1bQ0gyXVtDSF0oW0NIMl1bQ0gyXTEpW0NIMl1bTkhdQyg9TylbQ0gyXW4yW2NIXWMoW0NIM10pW2NIXW4y

> <s_epik_cmdline>
J2VwaWtfcHl0aG9uJywgJy1waCcsICc3LjAnLCAnLXRuJywgJzgnLCAnLW1hJywgJzIwMCcsICctbWV0YWxfYmluZGluZycsICctaW1hZScsICc8aW5maWxlLm1hZT4nLCAnLW9tYWUnLCAnPG91dGZpbGUubWFlPic=

> <r_lp_tautomer_probability>
1

> <r_epik_Ionization_Penalty>
2.42913

> <r_epik_Ionization_Penalty_Charging>
0

> <r_epik_Ionization_Penalty_Neutral>
2.42913

> <r_epik_State_Penalty>
2.58903

> <r_epik_Charging_Adjusted_Penalty>
2.58903

> <i_epik_Tot_Q>
0

> <i_epik_Tot_abs_Q>
0

> <r_epik_Metal_State_Penalty>
2.58902

> <b_epik_Metal_Only>
0

> <s_lp_Force_Field>
OPLS_2005

> <r_lp_Energy>
26.3674

> <b_lp_Chiralities_Consistent>
1

> <s_lp_Variant>
AV-unprocessed.smi:1126-3

> <Gold.Version>
5.8.1

> <Gold.Id.Protein>
6NUR|6NUR_protein|mol2

> <Gold.PLP.Fitness>
44.4582

> <Gold.PLP.PLP>
-36.0541

> <Gold.PLP.part.hbond>
-2.5405

> <Gold.PLP.part.metal>
0.0000

> <Gold.PLP.part.buried>
-1.8453

> <Gold.PLP.part.nonpolar>
-35.0763

> <Gold.PLP.part.repulsive>
2.2939

> <Gold.PLP.ligand.clash>
0.0000

> <Gold.PLP.ligand.torsion>
1.7060

> <Gold.PLP.Chemscore.Hbond>
1.9920

> <Gold.PLP.Chemscore.CHOScore>
1.9007

> <Gold.PLP.Chemscore.Metal>
0.0000

> <Gold.Chemscore.Hbonds>
donor molecule, donor type, donor heavy atom, donor atom, acceptor molecule, acceptor atom, score
      P1  H  7954  7966       L1    12  0.84
      P1  H  7989  7998       L1     5  0.98
      L1  C    15    39       P1  7948  1.00
      L1  C    18    43       P1 10186  0.90

> <Gold.PLP.Chemscore.Internal.Correction>
0.1380

> <Gold.Rescore>
     Score         DG    S(hbond)    S(metal)    S(lipo)     H(rot)  DE(clash)    DE(int)     intcor
     11.29     -15.37       1.12        0.00      96.87       2.03       2.55       1.53       ----

> <Gold.Chemscore.Fitness>
11.2856

> <Gold.Chemscore.DG>
-15.3663

> <Gold.Chemscore.ZeroCoef>
-5.4800

> <Gold.Chemscore.Hbond>
1.1198

> <Gold.Chemscore.Metal>
0.0000

> <Gold.Chemscore.Lipo>
96.8684

> <Gold.Chemscore.Internal_Hbond>
0.0000

> <Gold.Chemscore.DEClash>
2.5502

> <Gold.Chemscore.DEInternal>
1.5306

> <Gold.Chemscore.Rot>
2.0263

> <Gold.Chemscore.Internal.Correction>
   9.000000E+99

> <Gold.Chemscore.Hbonds>
donor molecule, donor type, donor heavy atom, donor atom, acceptor molecule, acceptor atom, score
      P1  H  7954  7966       L1    12  0.82
      P1  H  7989  7998       L1     5  0.19

> <Gold.Chemscore.Hbond.Weighted>
-3.7400

> <Gold.Chemscore.Metal.Weighted>
-0.0000

> <Gold.Chemscore.Lipo.Weighted>
-11.3336

> <Gold.Chemscore.Internal_Hbond.Weighted>
0.0000

> <Gold.Chemscore.DEClash.Weighted>
2.5502

> <Gold.Chemscore.DEInternal.Weighted>
1.5306

> <Gold.Chemscore.Rot.Weighted>
5.1872

> <Gold.Chemscore.Internal.Correction.Weighted>
   9.000000E+99

> <Gold.Protein.RotatedTorsions>
[ 6907 6896 6895 6894 ] final  -16.77 input  -60.11 | X-H torsion
[ 7974 7965 7964 7962 ] final  -48.01 input  175.53 | X-H torsion
[ 8008 7997 7996 7995 ] final   98.82 input   59.86 | X-H torsion
[ 10167 10162 10161 10158 ] final  115.07 input  -65.29 | X-H torsion
[ 10718 10713 10712 10709 ] final  -82.71 input   66.30 | X-H torsion
[ 10763 10752 10751 10750 ] final  -45.93 input  -60.55 | X-H torsion
[ 11005 11000 10999 10996 ] final -142.65 input  -57.11 | X-H torsion

> <Gold.Protein.ActiveResidues>
 VAL166  LYS551  ARG553  GLY616  TRP617  ASP618  TYR619  PRO620  LYS621  CYS622 
 ASP623  PHE694  ASN695  SER759  ASP760  ASP761  ALA762  ILE779  LEU786  VAL792 
 PHE793  MET794  SER795  GLU796  ALA797  LYS798  CYS799  TRP800  GLU811  SER814 

> <Gold.Protein.RotatedAtoms>
  151.3035  135.0775  159.9246 H   0  0  0  0  0  0  0  0  0  0  0  0  # atno 6907 bound_to 6896
  152.5293  133.9809  159.7816 H   0  0  0  0  0  0  0  0  0  0  0  0  # atno 6908 bound_to 6896
  151.0100  133.5923  159.2714 H   0  0  0  0  0  0  0  0  0  0  0  0  # atno 6909 bound_to 6896
  145.9556  140.7530  142.9483 H   0  0  0  0  0  0  0  0  0  0  0  0  # atno 7974 bound_to 7965
  156.1043  140.3238  155.7985 H   0  0  0  0  0  0  0  0  0  0  0  0  # atno 8008 bound_to 7997
  155.4782  140.0552  157.2988 H   0  0  0  0  0  0  0  0  0  0  0  0  # atno 8009 bound_to 7997
  154.4717  140.2014  155.9992 H   0  0  0  0  0  0  0  0  0  0  0  0  # atno 8010 bound_to 7997
  139.6343  144.7118  151.2366 H   0  0  0  0  0  0  0  0  0  0  0  0  # atno 10167 bound_to 10162
  156.0029  130.4643  150.4146 H   0  0  0  0  0  0  0  0  0  0  0  0  # atno 10718 bound_to 10713
  154.0366  135.6649  153.4786 H   0  0  0  0  0  0  0  0  0  0  0  0  # atno 10763 bound_to 10752
  153.0518  135.5079  154.7882 H   0  0  0  0  0  0  0  0  0  0  0  0  # atno 10764 bound_to 10752
  154.6845  135.3050  154.9533 H   0  0  0  0  0  0  0  0  0  0  0  0  # atno 10765 bound_to 10752
  140.8204  134.2638  157.4903 H   0  0  0  0  0  0  0  0  0  0  0  0  # atno 11005 bound_to 11000
  144.6804  140.2506  143.7332 LP  0  0  0  0  0  0  0  0  0  0  0  0  # atno 17320 bound_to 7965
  145.8111  139.2003  143.1992 LP  0  0  0  0  0  0  0  0  0  0  0  0  # atno 17321 bound_to 7965
  140.7457  143.6423  150.8323 LP  0  0  0  0  0  0  0  0  0  0  0  0  # atno 17342 bound_to 10162
  140.0053  143.5701  152.2860 LP  0  0  0  0  0  0  0  0  0  0  0  0  # atno 17343 bound_to 10162
  157.2207  131.0481  151.2548 LP  0  0  0  0  0  0  0  0  0  0  0  0  # atno 17370 bound_to 10713
  157.3803  130.7228  149.6625 LP  0  0  0  0  0  0  0  0  0  0  0  0  # atno 17371 bound_to 10713
  139.8709  134.9532  156.4138 LP  0  0  0  0  0  0  0  0  0  0  0  0  # atno 17394 bound_to 11000
  140.9105  133.7715  155.9786 LP  0  0  0  0  0  0  0  0  0  0  0  0  # atno 17395 bound_to 11000

$$$$
