AV-unprocessed.smi:1865|AV-procd|sdf|7554|dock3
  -GOLD-   22720 9273D 1   1.00000     0.00000
 Structure written by MMmdl.
 40 41  0  0  0  0  0  0  0  0  1 V2000
  150.4839  133.3255  155.0886 O   0  0  0  0  0  0  0  0  0  0  0  0
  149.8081  133.9318  154.2568 C   0  0  0  0  0  0  0  0  0  0  0  0
  149.1359  133.1806  153.1033 C   0  0  0  0  0  0  0  0  0  0  0  0
  147.6315  133.4895  152.9797 C   0  0  0  0  0  0  0  0  0  0  0  0
  146.9548  132.7354  151.8212 C   0  0  0  0  0  0  0  0  0  0  0  0
  146.3018  133.6590  150.7911 C   0  0  0  0  0  0  0  0  0  0  0  0
  145.3356  132.7554  150.0215 C   0  0  0  0  0  0  0  0  0  0  0  0
  144.9290  131.6420  150.9981 C   0  0  0  0  0  0  0  0  0  0  0  0
  145.8009  131.8208  152.2482 C   0  0  0  0  0  0  0  0  0  0  0  0
  149.6206  135.2601  154.2899 N   0  0  0  0  0  0  0  0  0  0  0  0
  150.1843  136.1619  155.2875 C   0  0  0  0  0  0  0  0  0  0  0  0
  151.0709  137.2406  154.6438 C   0  0  0  0  0  0  0  0  0  0  0  0
  150.5121  138.6343  154.8520 C   0  0  0  0  0  0  0  0  0  0  0  0
  151.1820  139.5702  155.6664 C   0  0  0  0  0  0  0  0  0  0  0  0
  150.6190  140.8501  155.8328 C   0  0  0  0  0  0  0  0  0  0  0  0
  149.4063  141.1398  155.1761 C   0  0  0  0  0  0  0  0  0  0  0  0
  148.7553  140.2510  154.3947 N   0  0  0  0  0  0  0  0  0  0  0  0
  149.3022  139.0260  154.2402 C   0  0  0  0  0  0  0  0  0  0  0  0
  149.6373  133.4323  152.1674 H   0  0  0  0  0  0  0  0  0  0  0  0
  149.2881  132.1128  153.2627 H   0  0  0  0  0  0  0  0  0  0  0  0
  147.1217  133.2508  153.9144 H   0  0  0  0  0  0  0  0  0  0  0  0
  147.4989  134.5618  152.8264 H   0  0  0  0  0  0  0  0  0  0  0  0
  147.7017  132.1311  151.3033 H   0  0  0  0  0  0  0  0  0  0  0  0
  145.7401  134.4452  151.2979 H   0  0  0  0  0  0  0  0  0  0  0  0
  147.0302  134.1409  150.1383 H   0  0  0  0  0  0  0  0  0  0  0  0
  144.4756  133.3084  149.6425 H   0  0  0  0  0  0  0  0  0  0  0  0
  145.8471  132.3176  149.1632 H   0  0  0  0  0  0  0  0  0  0  0  0
  143.8705  131.7010  151.2539 H   0  0  0  0  0  0  0  0  0  0  0  0
  145.1001  130.6651  150.5446 H   0  0  0  0  0  0  0  0  0  0  0  0
  146.1511  130.8676  152.6454 H   0  0  0  0  0  0  0  0  0  0  0  0
  145.2135  132.3045  153.0300 H   0  0  0  0  0  0  0  0  0  0  0  0
  149.0524  135.6773  153.5668 H   0  0  0  0  0  0  0  0  0  0  0  0
  149.3834  136.6207  155.8703 H   0  0  0  0  0  0  0  0  0  0  0  0
  150.7733  135.5658  155.9852 H   0  0  0  0  0  0  0  0  0  0  0  0
  152.0788  137.1940  155.0584 H   0  0  0  0  0  0  0  0  0  0  0  0
  151.1703  137.0609  153.5722 H   0  0  0  0  0  0  0  0  0  0  0  0
  152.1095  139.3132  156.1568 H   0  0  0  0  0  0  0  0  0  0  0  0
  151.1044  141.5924  156.4490 H   0  0  0  0  0  0  0  0  0  0  0  0
  148.9463  142.1112  155.2818 H   0  0  0  0  0  0  0  0  0  0  0  0
  148.7570  138.3376  153.6114 H   0  0  0  0  0  0  0  0  0  0  0  0
  1  2  2  0  0  0  0
  2  3  1  0  0  0  0
  2 10  1  0  0  0  0
  3  4  1  0  0  0  0
  3 19  1  0  0  0  0
  3 20  1  0  0  0  0
  4  5  1  0  0  0  0
  4 21  1  0  0  0  0
  4 22  1  0  0  0  0
  5  9  1  0  0  0  0
  5  6  1  0  0  0  0
  5 23  1  0  0  0  0
  6  7  1  0  0  0  0
  6 24  1  0  0  0  0
  6 25  1  0  0  0  0
  7  8  1  0  0  0  0
  7 26  1  0  0  0  0
  7 27  1  0  0  0  0
  8  9  1  0  0  0  0
  8 28  1  0  0  0  0
  8 29  1  0  0  0  0
  9 30  1  0  0  0  0
  9 31  1  0  0  0  0
 10 11  1  0  0  0  0
 10 32  1  0  0  0  0
 11 12  1  0  0  0  0
 11 33  1  0  0  0  0
 11 34  1  0  0  0  0
 12 13  1  0  0  0  0
 12 35  1  0  0  0  0
 12 36  1  0  0  0  0
 13 18  1  0  0  0  0
 13 14  2  0  0  0  0
 14 15  1  0  0  0  0
 14 37  1  0  0  0  0
 15 16  2  0  0  0  0
 15 38  1  0  0  0  0
 16 17  1  0  0  0  0
 16 39  1  0  0  0  0
 17 18  2  0  0  0  0
 18 40  1  0  0  0  0
M  END
> <s_m_source_file>
AV-unprocessed.smi

> <i_m_source_file_index>
1865

> <i_lp_mmshare_version>
43012

> <i_f3d_flags>
0

> <s_epik_input>
W0NIMl0xW0NIMl1bQ0gyXVtDSDJdW0NIXTFbQ0gyXVtDSDJdQyg9TylbTkhdW0NIMl1bQ0gyXWMyW2NIXVtjSF1bY0hdbltjSF0y

> <s_epik_cmdline>
J2VwaWtfcHl0aG9uJywgJy1waCcsICc3LjAnLCAnLXRuJywgJzgnLCAnLW1hJywgJzIwMCcsICctbWV0YWxfYmluZGluZycsICctaW1hZScsICc8aW5maWxlLm1hZT4nLCAnLW9tYWUnLCAnPG91dGZpbGUubWFlPic=

> <r_epik_Ionization_Penalty>
0.0133844

> <r_epik_Ionization_Penalty_Charging>
0

> <r_epik_Ionization_Penalty_Neutral>
0.0133844

> <r_epik_State_Penalty>
0.0104136

> <r_epik_Charging_Adjusted_Penalty>
0.0104136

> <i_epik_Tot_Q>
0

> <i_epik_Tot_abs_Q>
0

> <r_epik_Metal_State_Penalty>
0.0101831

> <b_epik_Metal_Only>
0

> <s_lp_Force_Field>
OPLS_2005

> <r_lp_Energy>
19.5978

> <b_lp_Chiralities_Consistent>
1

> <s_lp_Variant>
AV-unprocessed.smi:1865-1

> <Gold.Version>
5.8.1

> <Gold.Id.Protein>
6NUR|6NUR_protein|mol2

> <Gold.PLP.Fitness>
43.7634

> <Gold.PLP.PLP>
-38.6481

> <Gold.PLP.part.hbond>
-1.0000

> <Gold.PLP.part.metal>
0.0000

> <Gold.PLP.part.buried>
-2.8693

> <Gold.PLP.part.nonpolar>
-34.1942

> <Gold.PLP.part.repulsive>
0.6902

> <Gold.PLP.ligand.clash>
0.0000

> <Gold.PLP.ligand.torsion>
1.2343

> <Gold.PLP.Chemscore.Hbond>
0.9760

> <Gold.PLP.Chemscore.CHOScore>
1.5164

> <Gold.PLP.Chemscore.Metal>
0.0000

> <Gold.Chemscore.Hbonds>
donor molecule, donor type, donor heavy atom, donor atom, acceptor molecule, acceptor atom, score
      L1  H    10    32       P1  7948  0.91
      L1  C    16    39       P1  8028  0.75
      L1  C    18    40       P1  7948  0.51

> <Gold.PLP.Chemscore.Internal.Correction>
0.1066

> <Gold.Rescore>
     Score         DG    S(hbond)    S(metal)    S(lipo)     H(rot)  DE(clash)    DE(int)     intcor
     14.26     -15.58       0.79        0.00      98.05       1.56       0.14       1.19       ----

> <Gold.Chemscore.Fitness>
14.2559

> <Gold.Chemscore.DG>
-15.5784

> <Gold.Chemscore.ZeroCoef>
-5.4800

> <Gold.Chemscore.Hbond>
0.7855

> <Gold.Chemscore.Metal>
0.0000

> <Gold.Chemscore.Lipo>
98.0496

> <Gold.Chemscore.Internal_Hbond>
0.0000

> <Gold.Chemscore.DEClash>
0.1374

> <Gold.Chemscore.DEInternal>
1.1851

> <Gold.Chemscore.Rot>
1.5614

> <Gold.Chemscore.Internal.Correction>
   9.000000E+99

> <Gold.Chemscore.Hbonds>
donor molecule, donor type, donor heavy atom, donor atom, acceptor molecule, acceptor atom, score
      L1  H    10    32       P1  7948  0.69

> <Gold.Chemscore.Hbond.Weighted>
-2.6237

> <Gold.Chemscore.Metal.Weighted>
-0.0000

> <Gold.Chemscore.Lipo.Weighted>
-11.4718

> <Gold.Chemscore.Internal_Hbond.Weighted>
0.0000

> <Gold.Chemscore.DEClash.Weighted>
0.1374

> <Gold.Chemscore.DEInternal.Weighted>
1.1851

> <Gold.Chemscore.Rot.Weighted>
3.9971

> <Gold.Chemscore.Internal.Correction.Weighted>
   9.000000E+99

> <Gold.Protein.RotatedTorsions>
[ 6907 6896 6895 6894 ] final  106.70 input  -60.11 | X-H torsion
[ 7974 7965 7964 7962 ] final  132.13 input  175.53 | X-H torsion
[ 8008 7997 7996 7995 ] final  149.20 input   59.86 | X-H torsion
[ 10167 10162 10161 10158 ] final  -40.08 input  -65.29 | X-H torsion
[ 10718 10713 10712 10709 ] final  157.77 input   66.30 | X-H torsion
[ 10763 10752 10751 10750 ] final   94.60 input  -60.55 | X-H torsion
[ 11005 11000 10999 10996 ] final  162.09 input  -57.11 | X-H torsion

> <Gold.Protein.ActiveResidues>
 VAL166  LYS551  ARG553  GLY616  TRP617  ASP618  TYR619  PRO620  LYS621  CYS622 
 ASP623  PHE694  ASN695  SER759  ASP760  ASP761  ALA762  ILE779  LEU786  VAL792 
 PHE793  MET794  SER795  GLU796  ALA797  LYS798  CYS799  TRP800  GLU811  SER814 

> <Gold.Protein.RotatedAtoms>
  152.5183  133.9342  159.7594 H   0  0  0  0  0  0  0  0  0  0  0  0  # atno 6907 bound_to 6896
  150.9686  133.6360  159.2749 H   0  0  0  0  0  0  0  0  0  0  0  0  # atno 6908 bound_to 6896
  151.3579  135.0903  159.9477 H   0  0  0  0  0  0  0  0  0  0  0  0  # atno 6909 bound_to 6896
  145.0000  139.4321  143.5297 H   0  0  0  0  0  0  0  0  0  0  0  0  # atno 7974 bound_to 7965
  156.2764  140.2108  156.5820 H   0  0  0  0  0  0  0  0  0  0  0  0  # atno 8008 bound_to 7997
  154.7051  140.0517  157.0519 H   0  0  0  0  0  0  0  0  0  0  0  0  # atno 8009 bound_to 7997
  155.0681  140.3174  155.4642 H   0  0  0  0  0  0  0  0  0  0  0  0  # atno 8010 bound_to 7997
  140.7045  143.3175  151.2873 H   0  0  0  0  0  0  0  0  0  0  0  0  # atno 10167 bound_to 10162
  157.1869  131.0645  151.2101 H   0  0  0  0  0  0  0  0  0  0  0  0  # atno 10718 bound_to 10713
  153.2435  135.4284  155.0723 H   0  0  0  0  0  0  0  0  0  0  0  0  # atno 10763 bound_to 10752
  154.8351  135.3408  154.6615 H   0  0  0  0  0  0  0  0  0  0  0  0  # atno 10764 bound_to 10752
  153.7038  135.7027  153.5112 H   0  0  0  0  0  0  0  0  0  0  0  0  # atno 10765 bound_to 10752
  140.2223  134.8187  157.3233 H   0  0  0  0  0  0  0  0  0  0  0  0  # atno 11005 bound_to 11000
  146.3450  139.9383  142.8744 LP  0  0  0  0  0  0  0  0  0  0  0  0  # atno 17320 bound_to 7965
  145.2166  140.9918  143.4070 LP  0  0  0  0  0  0  0  0  0  0  0  0  # atno 17321 bound_to 7965
  139.6618  144.0175  152.2697 LP  0  0  0  0  0  0  0  0  0  0  0  0  # atno 17342 bound_to 10162
  139.9745  144.6471  150.7958 LP  0  0  0  0  0  0  0  0  0  0  0  0  # atno 17343 bound_to 10162
  157.3898  130.7276  149.6689 LP  0  0  0  0  0  0  0  0  0  0  0  0  # atno 17370 bound_to 10713
  155.9717  130.4149  150.4157 LP  0  0  0  0  0  0  0  0  0  0  0  0  # atno 17371 bound_to 10713
  140.1837  134.4458  155.7757 LP  0  0  0  0  0  0  0  0  0  0  0  0  # atno 17394 bound_to 11000
  141.2222  133.6995  156.7911 LP  0  0  0  0  0  0  0  0  0  0  0  0  # atno 17395 bound_to 11000

$$$$
