AV-unprocessed.smi:1258|AV-procd|sdf|5290|dock8
  -GOLD-   22720 4413D 1   1.00000     0.00000
 Structure written by MMmdl.
 33 34  0  0  0  0  0  0  0  0  1 V2000
  152.6426  143.3284  162.5823 C   0  0  0  0  0  0  0  0  0  0  0  0
  152.2562  143.3860  161.0974 C   0  0  1  0  0  0  0  0  0  0  0  0
  151.8030  144.8013  160.6908 C   0  0  0  0  0  0  0  0  0  0  0  0
  151.4222  144.8677  159.2039 C   0  0  0  0  0  0  0  0  0  0  0  0
  152.5810  144.3950  158.3109 C   0  0  0  0  0  0  0  0  0  0  0  0
  153.0703  142.9813  158.6938 C   0  0  2  0  0  0  0  0  0  0  0  0
  152.0864  141.9564  158.3476 N   0  0  0  0  0  0  0  0  0  0  0  0
  152.3099  140.6331  158.3349 C   0  0  0  0  0  0  0  0  0  0  0  0
  153.3987  140.1285  158.6115 O   0  0  0  0  0  0  0  0  0  0  0  0
  151.1234  139.7492  157.9394 C   0  0  0  0  0  0  0  0  0  0  0  0
  150.9322  139.7169  156.5009 N   0  0  0  0  0  0  0  0  0  0  0  0
  150.6138  140.6825  155.6362 C   0  0  0  0  0  0  0  0  0  0  0  0
  150.5454  140.2246  154.3955 N   0  0  0  0  0  0  0  0  0  0  0  0
  150.8490  138.8809  154.5388 N   0  0  0  0  0  0  0  0  0  0  0  0
  151.0799  138.5738  155.7859 N   0  0  0  0  0  0  0  0  0  0  0  0
  153.4137  142.9064  160.1954 C   0  0  0  0  0  0  0  0  0  0  0  0
  153.4809  143.9908  162.8003 H   0  0  0  0  0  0  0  0  0  0  0  0
  152.9316  142.3185  162.8743 H   0  0  0  0  0  0  0  0  0  0  0  0
  151.8081  143.6282  163.2169 H   0  0  0  0  0  0  0  0  0  0  0  0
  151.4121  142.7097  160.9558 H   0  0  0  0  0  0  0  0  0  0  0  0
  150.9520  145.1103  161.2988 H   0  0  0  0  0  0  0  0  0  0  0  0
  152.6014  145.5167  160.8922 H   0  0  0  0  0  0  0  0  0  0  0  0
  150.5403  144.2523  159.0223 H   0  0  0  0  0  0  0  0  0  0  0  0
  151.1441  145.8882  158.9385 H   0  0  0  0  0  0  0  0  0  0  0  0
  152.2834  144.4303  157.2624 H   0  0  0  0  0  0  0  0  0  0  0  0
  153.4112  145.0955  158.4091 H   0  0  0  0  0  0  0  0  0  0  0  0
  153.9832  142.7674  158.1347 H   0  0  0  0  0  0  0  0  0  0  0  0
  151.1621  142.2817  158.1036 H   0  0  0  0  0  0  0  0  0  0  0  0
  151.2626  138.7289  158.3013 H   0  0  0  0  0  0  0  0  0  0  0  0
  150.2166  140.1365  158.4049 H   0  0  0  0  0  0  0  0  0  0  0  0
  150.4367  141.7113  155.9134 H   0  0  0  0  0  0  0  0  0  0  0  0
  154.2933  143.5233  160.3857 H   0  0  0  0  0  0  0  0  0  0  0  0
  153.6990  141.8875  160.4604 H   0  0  0  0  0  0  0  0  0  0  0  0
  1  2  1  0  0  0  0
  1 17  1  0  0  0  0
  1 18  1  0  0  0  0
  1 19  1  0  0  0  0
  2 16  1  0  0  0  0
  2  3  1  0  0  0  0
  2 20  1  0  0  0  0
  3  4  1  0  0  0  0
  3 21  1  0  0  0  0
  3 22  1  0  0  0  0
  4  5  1  0  0  0  0
  4 23  1  0  0  0  0
  4 24  1  0  0  0  0
  5  6  1  0  0  0  0
  5 25  1  0  0  0  0
  5 26  1  0  0  0  0
  6  7  1  0  0  0  0
  6 16  1  0  0  0  0
  6 27  1  0  0  0  0
  7  8  1  0  0  0  0
  7 28  1  0  0  0  0
  8  9  2  0  0  0  0
  8 10  1  0  0  0  0
 10 11  1  0  0  0  0
 10 29  1  0  0  0  0
 10 30  1  0  0  0  0
 11 15  1  0  0  0  0
 11 12  1  0  0  0  0
 12 13  2  0  0  0  0
 12 31  1  0  0  0  0
 13 14  1  0  0  0  0
 14 15  2  0  0  0  0
 16 32  1  0  0  0  0
 16 33  1  0  0  0  0
M  END
> <s_m_source_file>
AV-unprocessed.smi

> <i_m_source_file_index>
1258

> <i_lp_mmshare_version>
43012

> <i_f3d_flags>
0

> <s_epik_input>
W0NIM11bQ0BASF0xW0NIMl1bQ0gyXVtDSDJdW0NASF0oW0NIMl0xKVtOSF1DKD1PKVtDSDJdbjJbY0hdbm5uMg==

> <s_epik_cmdline>
J2VwaWtfcHl0aG9uJywgJy1waCcsICc3LjAnLCAnLXRuJywgJzgnLCAnLW1hJywgJzIwMCcsICctbWV0YWxfYmluZGluZycsICctaW1hZScsICc8aW5maWxlLm1hZT4nLCAnLW9tYWUnLCAnPG91dGZpbGUubWFlPic=

> <r_lp_tautomer_probability>
1

> <r_epik_Ionization_Penalty>
5.03816e-07

> <r_epik_Ionization_Penalty_Charging>
0

> <r_epik_Ionization_Penalty_Neutral>
5.03816e-07

> <r_epik_State_Penalty>
-0

> <r_epik_Charging_Adjusted_Penalty>
0

> <i_epik_Tot_Q>
0

> <i_epik_Tot_abs_Q>
0

> <r_epik_Metal_State_Penalty>
-0

> <b_epik_Metal_Only>
0

> <s_lp_Force_Field>
OPLS_2005

> <r_lp_Energy>
10.3289

> <b_lp_Chiralities_Consistent>
1

> <s_lp_Variant>
AV-unprocessed.smi:1258-4

> <Gold.Version>
5.8.1

> <Gold.Id.Protein>
6NUR|6NUR_protein|mol2

> <Gold.PLP.Fitness>
41.6909

> <Gold.PLP.PLP>
-36.4959

> <Gold.PLP.part.hbond>
-1.9520

> <Gold.PLP.part.metal>
0.0000

> <Gold.PLP.part.buried>
-3.4770

> <Gold.PLP.part.nonpolar>
-30.9754

> <Gold.PLP.part.repulsive>
0.3295

> <Gold.PLP.ligand.clash>
0.0000

> <Gold.PLP.ligand.torsion>
0.3947

> <Gold.PLP.Chemscore.Hbond>
1.9920

> <Gold.PLP.Chemscore.CHOScore>
0.0000

> <Gold.PLP.Chemscore.Metal>
0.0000

> <Gold.Chemscore.Hbonds>
donor molecule, donor type, donor heavy atom, donor atom, acceptor molecule, acceptor atom, score
      P1  H  7989  7998       L1    13  1.00
      P1  H  7997  8010       L1     9  0.99

> <Gold.PLP.Chemscore.Internal.Correction>
0.0083

> <Gold.Rescore>
     Score         DG    S(hbond)    S(metal)    S(lipo)     H(rot)  DE(clash)    DE(int)     intcor
     16.14     -16.64       1.59        0.00      91.90       1.92       0.05       0.46       ----

> <Gold.Chemscore.Fitness>
16.1368

> <Gold.Chemscore.DG>
-16.6409

> <Gold.Chemscore.ZeroCoef>
-5.4800

> <Gold.Chemscore.Hbond>
1.5916

> <Gold.Chemscore.Metal>
0.0000

> <Gold.Chemscore.Lipo>
91.9000

> <Gold.Chemscore.Internal_Hbond>
0.0000

> <Gold.Chemscore.DEClash>
0.0469

> <Gold.Chemscore.DEInternal>
0.4572

> <Gold.Chemscore.Rot>
1.9169

> <Gold.Chemscore.Internal.Correction>
   9.000000E+99

> <Gold.Chemscore.Hbonds>
donor molecule, donor type, donor heavy atom, donor atom, acceptor molecule, acceptor atom, score
      P1  H  7989  7998       L1    13  0.51
      P1  H  7997  8010       L1     9  0.81

> <Gold.Chemscore.Hbond.Weighted>
-5.3158

> <Gold.Chemscore.Metal.Weighted>
-0.0000

> <Gold.Chemscore.Lipo.Weighted>
-10.7523

> <Gold.Chemscore.Internal_Hbond.Weighted>
0.0000

> <Gold.Chemscore.DEClash.Weighted>
0.0469

> <Gold.Chemscore.DEInternal.Weighted>
0.4572

> <Gold.Chemscore.Rot.Weighted>
4.9073

> <Gold.Chemscore.Internal.Correction.Weighted>
   9.000000E+99

> <Gold.Protein.RotatedTorsions>
[ 6907 6896 6895 6894 ] final -169.14 input  -60.11 | X-H torsion
[ 7974 7965 7964 7962 ] final  -16.23 input  175.53 | X-H torsion
[ 8008 7997 7996 7995 ] final   28.74 input   59.86 | X-H torsion
[ 10167 10162 10161 10158 ] final -151.47 input  -65.29 | X-H torsion
[ 10718 10713 10712 10709 ] final   13.00 input   66.30 | X-H torsion
[ 10763 10752 10751 10750 ] final   82.98 input  -60.55 | X-H torsion
[ 11005 11000 10999 10996 ] final -107.48 input  -57.11 | X-H torsion

> <Gold.Protein.ActiveResidues>
 VAL166  LYS551  ARG553  GLY616  TRP617  ASP618  TYR619  PRO620  LYS621  CYS622 
 ASP623  PHE694  ASN695  SER759  ASP760  ASP761  ALA762  ILE779  LEU786  VAL792 
 PHE793  MET794  SER795  GLU796  ALA797  LYS798  CYS799  TRP800  GLU811  SER814 

> <Gold.Protein.RotatedAtoms>
  151.4869  133.3533  159.2846 H   0  0  0  0  0  0  0  0  0  0  0  0  # atno 6907 bound_to 6896
  150.8860  134.8260  159.7270 H   0  0  0  0  0  0  0  0  0  0  0  0  # atno 6908 bound_to 6896
  152.4793  134.4773  159.9706 H   0  0  0  0  0  0  0  0  0  0  0  0  # atno 6909 bound_to 6896
  146.1997  140.3607  142.8428 H   0  0  0  0  0  0  0  0  0  0  0  0  # atno 7974 bound_to 7965
  155.0635  140.3192  155.4653 H   0  0  0  0  0  0  0  0  0  0  0  0  # atno 8008 bound_to 7997
  156.2807  140.2124  156.5706 H   0  0  0  0  0  0  0  0  0  0  0  0  # atno 8009 bound_to 7997
  154.7113  140.0498  157.0540 H   0  0  0  0  0  0  0  0  0  0  0  0  # atno 8010 bound_to 7997
  139.7264  143.8876  152.2520 H   0  0  0  0  0  0  0  0  0  0  0  0  # atno 10167 bound_to 10162
  157.0183  130.6145  149.5717 H   0  0  0  0  0  0  0  0  0  0  0  0  # atno 10718 bound_to 10713
  153.1250  135.4708  154.9258 H   0  0  0  0  0  0  0  0  0  0  0  0  # atno 10763 bound_to 10752
  154.7612  135.3132  154.8377 H   0  0  0  0  0  0  0  0  0  0  0  0  # atno 10764 bound_to 10752
  153.8933  135.6882  153.4813 H   0  0  0  0  0  0  0  0  0  0  0  0  # atno 10765 bound_to 10752
  141.0952  133.8984  157.1981 H   0  0  0  0  0  0  0  0  0  0  0  0  # atno 11005 bound_to 11000
  144.8656  140.7201  143.6080 LP  0  0  0  0  0  0  0  0  0  0  0  0  # atno 17320 bound_to 7965
  145.3526  139.1702  143.4426 LP  0  0  0  0  0  0  0  0  0  0  0  0  # atno 17321 bound_to 7965
  139.8787  144.7029  150.8903 LP  0  0  0  0  0  0  0  0  0  0  0  0  # atno 17342 bound_to 10162
  140.7763  143.3679  151.1705 LP  0  0  0  0  0  0  0  0  0  0  0  0  # atno 17343 bound_to 10162
  156.0111  130.5203  150.7991 LP  0  0  0  0  0  0  0  0  0  0  0  0  # atno 17370 bound_to 10713
  157.5268  131.0934  151.0007 LP  0  0  0  0  0  0  0  0  0  0  0  0  # atno 17371 bound_to 10713
  139.9786  135.0105  156.9694 LP  0  0  0  0  0  0  0  0  0  0  0  0  # atno 17394 bound_to 11000
  140.5158  134.0957  155.7280 LP  0  0  0  0  0  0  0  0  0  0  0  0  # atno 17395 bound_to 11000

$$$$
