AV-unprocessed.smi:2405|AV-procd|sdf|9515|dock3
  -GOLD-   2272013143D 1   1.00000     0.00000
 Structure written by MMmdl.
 36 37  0  0  0  0  0  0  0  0  2 V2000
  153.4175  141.7986  161.5281 C   0  0  0  0  0  0  0  0  0  0  0  0
  152.8318  143.2097  161.4107 C   0  0  0  0  0  0  0  0  0  0  0  0
  152.2478  143.4745  160.0637 C   0  0  0  0  0  0  0  0  0  0  0  0
  151.7647  142.5159  159.2690 N   0  0  0  0  0  0  0  0  0  0  0  0
  151.2261  143.0211  158.0804 C   0  0  0  0  0  0  0  0  0  0  0  0
  150.6311  142.0866  157.0681 C   0  0  0  0  0  0  0  0  0  0  0  0
  151.0873  140.6544  157.3484 C   0  0  0  0  0  0  0  0  0  0  0  0
  150.2914  139.7219  157.2385 O   0  0  0  0  0  0  0  0  0  0  0  0
  152.3687  140.4983  157.7151 N   0  0  0  0  0  0  0  0  0  0  0  0
  152.9970  139.2272  158.0607 C   0  0  1  0  0  0  0  0  0  0  0  0
  152.2393  138.5472  159.2164 C   0  0  0  0  0  0  0  0  0  0  0  0
  151.5723  137.3063  158.6140 C   0  0  0  0  0  0  0  0  0  0  0  0
  152.4864  136.8870  157.4559 C   0  0  2  0  0  0  0  0  0  0  0  0
  153.6417  136.0038  157.9709 C   0  0  0  0  0  0  0  0  0  0  0  0
  153.7215  135.7656  159.1969 O   0  0  0  0  0  0  0  0  0  0  0  0
  154.4342  135.5688  157.1066 O   0  5  0  0  0  0  0  0  0  0  0  0
  152.9531  138.2363  156.8781 C   0  0  0  0  0  0  0  0  0  0  0  0
  151.3130  144.3883  157.9866 C   0  0  0  0  0  0  0  0  0  0  0  0
  152.0583  145.0911  159.3954 S   0  0  0  0  0  0  0  0  0  0  0  0
  153.8359  141.6323  162.5209 H   0  0  0  0  0  0  0  0  0  0  0  0
  154.2137  141.6412  160.7996 H   0  0  0  0  0  0  0  0  0  0  0  0
  152.6528  141.0403  161.3570 H   0  0  0  0  0  0  0  0  0  0  0  0
  152.0552  143.3539  162.1623 H   0  0  0  0  0  0  0  0  0  0  0  0
  153.6043  143.9526  161.6132 H   0  0  0  0  0  0  0  0  0  0  0  0
  149.5418  142.1286  157.1004 H   0  0  0  0  0  0  0  0  0  0  0  0
  150.9199  142.3711  156.0552 H   0  0  0  0  0  0  0  0  0  0  0  0
  152.9456  141.3242  157.7854 H   0  0  0  0  0  0  0  0  0  0  0  0
  154.0302  139.3948  158.3712 H   0  0  0  0  0  0  0  0  0  0  0  0
  152.9537  138.2381  159.9809 H   0  0  0  0  0  0  0  0  0  0  0  0
  151.5147  139.2004  159.7044 H   0  0  0  0  0  0  0  0  0  0  0  0
  151.4194  136.5219  159.3569 H   0  0  0  0  0  0  0  0  0  0  0  0
  150.5904  137.5715  158.2202 H   0  0  0  0  0  0  0  0  0  0  0  0
  151.9353  136.3155  156.7080 H   0  0  0  0  0  0  0  0  0  0  0  0
  152.2203  138.5620  156.1380 H   0  0  0  0  0  0  0  0  0  0  0  0
  153.9075  138.1830  156.3523 H   0  0  0  0  0  0  0  0  0  0  0  0
  150.9744  145.0224  157.1807 H   0  0  0  0  0  0  0  0  0  0  0  0
  1  2  1  0  0  0  0
  1 20  1  0  0  0  0
  1 21  1  0  0  0  0
  1 22  1  0  0  0  0
  2  3  1  0  0  0  0
  2 23  1  0  0  0  0
  2 24  1  0  0  0  0
  3 19  1  0  0  0  0
  3  4  2  0  0  0  0
  4  5  1  0  0  0  0
  5  6  1  0  0  0  0
  5 18  2  0  0  0  0
  6  7  1  0  0  0  0
  6 25  1  0  0  0  0
  6 26  1  0  0  0  0
  7  8  2  0  0  0  0
  7  9  1  0  0  0  0
  9 10  1  0  0  0  0
  9 27  1  0  0  0  0
 10 17  1  0  0  0  0
 10 11  1  0  0  0  0
 10 28  1  0  0  0  0
 11 12  1  0  0  0  0
 11 29  1  0  0  0  0
 11 30  1  0  0  0  0
 12 13  1  0  0  0  0
 12 31  1  0  0  0  0
 12 32  1  0  0  0  0
 13 14  1  0  0  0  0
 13 17  1  0  0  0  0
 13 33  1  0  0  0  0
 14 15  2  0  0  0  0
 14 16  1  0  0  0  0
 17 34  1  0  0  0  0
 17 35  1  0  0  0  0
 18 19  1  0  0  0  0
 18 36  1  0  0  0  0
M  CHG  1  16  -1
M  END
> <s_m_source_file>
AV-unprocessed.smi

> <i_m_source_file_index>
2405

> <i_lp_mmshare_version>
43012

> <i_f3d_flags>
0

> <s_epik_input>
W0NIM11bQ0gyXWMxbmMoW2NIXXMxKVtDSDJdQyg9TylbTkhdW0NAQEhdMltDSDJdW0NIMl1bQ0BIXShbQ0gyXTIpQyg9TylbT0hd

> <s_epik_cmdline>
J2VwaWtfcHl0aG9uJywgJy1waCcsICc3LjAnLCAnLXRuJywgJzgnLCAnLW1hJywgJzIwMCcsICctbWV0YWxfYmluZGluZycsICctaW1hZScsICc8aW5maWxlLm1hZT4nLCAnLW9tYWUnLCAnPG91dGZpbGUubWFlPic=

> <r_epik_Ionization_Penalty>
0.000544611

> <r_epik_Ionization_Penalty_Charging>
0.000481685

> <r_epik_Ionization_Penalty_Neutral>
6.29266e-05

> <r_epik_State_Penalty>
0.00029893

> <r_epik_Charging_Adjusted_Penalty>
0.000780614

> <i_epik_Tot_Q>
-1

> <i_epik_Tot_abs_Q>
1

> <r_epik_Metal_State_Penalty>
-0

> <b_epik_Metal_Only>
0

> <s_lp_Force_Field>
OPLS_2005

> <r_lp_Energy>
7.82971

> <b_lp_Chiralities_Consistent>
1

> <s_lp_Variant>
AV-unprocessed.smi:2405-4

> <Gold.Version>
5.8.1

> <Gold.Id.Protein>
6NUR|6NUR_protein|mol2

> <Gold.PLP.Fitness>
47.3580

> <Gold.PLP.PLP>
-34.1427

> <Gold.PLP.part.hbond>
-2.0000

> <Gold.PLP.part.metal>
0.0000

> <Gold.PLP.part.buried>
-3.2837

> <Gold.PLP.part.nonpolar>
-29.2515

> <Gold.PLP.part.repulsive>
0.0988

> <Gold.PLP.ligand.clash>
0.0000

> <Gold.PLP.ligand.torsion>
0.8935

> <Gold.PLP.Chemscore.Hbond>
4.0000

> <Gold.PLP.Chemscore.CHOScore>
0.9772

> <Gold.PLP.Chemscore.Metal>
0.0000

> <Gold.Chemscore.Hbonds>
donor molecule, donor type, donor heavy atom, donor atom, acceptor molecule, acceptor atom, score
      P1  H  6896  6908       L1    15  2.00
      P1  H 10752 10763       L1    16  2.00
      L1  C    18    36       P1  8028  0.93

> <Gold.PLP.Chemscore.Internal.Correction>
0.0707

> <Gold.Rescore>
     Score         DG    S(hbond)    S(metal)    S(lipo)     H(rot)  DE(clash)    DE(int)     intcor
     15.68     -18.16       1.93        0.00      98.34       2.06       0.08       2.41       ----

> <Gold.Chemscore.Fitness>
15.6771

> <Gold.Chemscore.DG>
-18.1630

> <Gold.Chemscore.ZeroCoef>
-5.4800

> <Gold.Chemscore.Hbond>
1.9339

> <Gold.Chemscore.Metal>
0.0000

> <Gold.Chemscore.Lipo>
98.3432

> <Gold.Chemscore.Internal_Hbond>
0.0000

> <Gold.Chemscore.DEClash>
0.0750

> <Gold.Chemscore.DEInternal>
2.4109

> <Gold.Chemscore.Rot>
2.0635

> <Gold.Chemscore.Internal.Correction>
   9.000000E+99

> <Gold.Chemscore.Hbonds>
donor molecule, donor type, donor heavy atom, donor atom, acceptor molecule, acceptor atom, score
      P1  H  6896  6908       L1    15  0.92
      P1  H 10752 10763       L1    16  1.00

> <Gold.Chemscore.Hbond.Weighted>
-6.4593

> <Gold.Chemscore.Metal.Weighted>
-0.0000

> <Gold.Chemscore.Lipo.Weighted>
-11.5062

> <Gold.Chemscore.Internal_Hbond.Weighted>
0.0000

> <Gold.Chemscore.DEClash.Weighted>
0.0750

> <Gold.Chemscore.DEInternal.Weighted>
2.4109

> <Gold.Chemscore.Rot.Weighted>
5.2825

> <Gold.Chemscore.Internal.Correction.Weighted>
   9.000000E+99

> <Gold.Protein.RotatedTorsions>
[ 6907 6896 6895 6894 ] final  -66.06 input  -60.11 | X-H torsion
[ 7974 7965 7964 7962 ] final  119.39 input  175.53 | X-H torsion
[ 8008 7997 7996 7995 ] final  -59.56 input   59.86 | X-H torsion
[ 10167 10162 10161 10158 ] final -115.51 input  -65.29 | X-H torsion
[ 10718 10713 10712 10709 ] final  166.65 input   66.30 | X-H torsion
[ 10763 10752 10751 10750 ] final  153.21 input  -60.55 | X-H torsion
[ 11005 11000 10999 10996 ] final   81.45 input  -57.11 | X-H torsion

> <Gold.Protein.ActiveResidues>
 VAL166  LYS551  ARG553  GLY616  TRP617  ASP618  TYR619  PRO620  LYS621  CYS622 
 ASP623  PHE694  ASN695  SER759  ASP760  ASP761  ALA762  ILE779  LEU786  VAL792 
 PHE793  MET794  SER795  GLU796  ALA797  LYS798  CYS799  TRP800  GLU811  SER814 

> <Gold.Protein.RotatedAtoms>
  150.7487  134.6074  159.6067 H   0  0  0  0  0  0  0  0  0  0  0  0  # atno 6907 bound_to 6896
  152.3418  134.7122  160.0270 H   0  0  0  0  0  0  0  0  0  0  0  0  # atno 6908 bound_to 6896
  151.7572  133.3295  159.3444 H   0  0  0  0  0  0  0  0  0  0  0  0  # atno 6909 bound_to 6896
  145.1437  139.3252  143.4602 H   0  0  0  0  0  0  0  0  0  0  0  0  # atno 7974 bound_to 7965
  154.4358  140.1059  156.6136 H   0  0  0  0  0  0  0  0  0  0  0  0  # atno 8008 bound_to 7997
  155.5783  140.3490  155.4515 H   0  0  0  0  0  0  0  0  0  0  0  0  # atno 8009 bound_to 7997
  156.0338  140.1266  157.0219 H   0  0  0  0  0  0  0  0  0  0  0  0  # atno 8010 bound_to 7997
  140.0893  143.4714  152.1879 H   0  0  0  0  0  0  0  0  0  0  0  0  # atno 10167 bound_to 10162
  157.0628  131.0345  151.2640 H   0  0  0  0  0  0  0  0  0  0  0  0  # atno 10718 bound_to 10713
  154.1325  135.2826  155.3181 H   0  0  0  0  0  0  0  0  0  0  0  0  # atno 10763 bound_to 10752
  154.6345  135.5424  153.7721 H   0  0  0  0  0  0  0  0  0  0  0  0  # atno 10764 bound_to 10752
  153.0276  135.6471  154.1475 H   0  0  0  0  0  0  0  0  0  0  0  0  # atno 10765 bound_to 10752
  139.9098  134.7997  156.2043 H   0  0  0  0  0  0  0  0  0  0  0  0  # atno 11005 bound_to 11000
  146.3502  140.1484  142.8593 LP  0  0  0  0  0  0  0  0  0  0  0  0  # atno 17320 bound_to 7965
  145.0505  140.9014  143.4998 LP  0  0  0  0  0  0  0  0  0  0  0  0  # atno 17321 bound_to 7965
  139.5734  144.7475  151.3830 LP  0  0  0  0  0  0  0  0  0  0  0  0  # atno 17342 bound_to 10162
  140.7037  143.7568  150.7445 LP  0  0  0  0  0  0  0  0  0  0  0  0  # atno 17343 bound_to 10162
  157.4941  130.7840  149.7537 LP  0  0  0  0  0  0  0  0  0  0  0  0  # atno 17370 bound_to 10713
  155.9973  130.3900  150.2745 LP  0  0  0  0  0  0  0  0  0  0  0  0  # atno 17371 bound_to 10713
  141.0505  133.6891  156.1763 LP  0  0  0  0  0  0  0  0  0  0  0  0  # atno 17394 bound_to 11000
  140.6817  134.4760  157.5589 LP  0  0  0  0  0  0  0  0  0  0  0  0  # atno 17395 bound_to 11000

$$$$
