AV-unprocessed.smi:2520|AV-procd|sdf|9907|dock6
  -GOLD-   2272013543D 1   1.00000     0.00000
 Structure written by MMmdl.
 41 44  0  0  0  0  0  0  0  0  1 V2000
  145.6354  138.4111  153.4515 O   0  0  0  0  0  0  0  0  0  0  0  0
  146.5466  137.7800  152.9194 C   0  0  0  0  0  0  0  0  0  0  0  0
  147.8328  138.1662  153.0563 N   0  0  0  0  0  0  0  0  0  0  0  0
  148.4175  139.2622  153.7559 C   0  0  0  0  0  0  0  0  0  0  0  0
  147.5421  140.3417  154.0017 C   0  0  0  0  0  0  0  0  0  0  0  0
  148.0397  141.4670  154.6805 C   0  0  0  0  0  0  0  0  0  0  0  0
  149.3900  141.4394  155.0682 C   0  0  0  0  0  0  0  0  0  0  0  0
  150.1959  140.3873  154.8093 N   0  0  0  0  0  0  0  0  0  0  0  0
  149.7139  139.3207  154.1627 N   0  0  0  0  0  0  0  0  0  0  0  0
  146.3323  136.6810  152.1801 N   0  0  0  0  0  0  0  0  0  0  0  0
  145.0221  136.1318  151.8549 C   0  0  2  0  0  0  0  0  0  0  0  0
  144.1168  136.0221  153.0814 C   0  0  1  0  0  0  0  0  0  0  0  0
  142.8665  136.7003  153.5147 C   0  0  0  0  0  0  0  0  0  0  0  0
  142.0710  135.4365  153.9356 C   0  0  0  0  0  0  0  0  0  0  0  0
  142.8327  134.3062  153.4467 O   0  0  0  0  0  0  0  0  0  0  0  0
  143.5475  134.8268  152.3440 C   0  0  2  0  0  0  0  0  0  0  0  0
  144.9810  134.5559  151.8432 C   0  0  0  0  0  0  0  0  0  0  0  0
  145.1214  133.8758  150.4744 C   0  0  0  0  0  0  0  0  0  0  0  0
  146.0635  132.6792  150.6205 C   0  0  0  0  0  0  0  0  0  0  0  0
  146.8971  132.9959  151.8534 C   0  0  0  0  0  0  0  0  0  0  0  0
  145.9287  133.7515  152.7580 C   0  0  0  0  0  0  0  0  0  0  0  0
  148.5011  137.5494  152.6179 H   0  0  0  0  0  0  0  0  0  0  0  0
  146.5114  140.3110  153.6795 H   0  0  0  0  0  0  0  0  0  0  0  0
  147.4112  142.3183  154.8951 H   0  0  0  0  0  0  0  0  0  0  0  0
  149.8317  142.2735  155.5929 H   0  0  0  0  0  0  0  0  0  0  0  0
  147.1350  136.2152  151.7808 H   0  0  0  0  0  0  0  0  0  0  0  0
  144.5363  136.6048  150.9962 H   0  0  0  0  0  0  0  0  0  0  0  0
  144.6998  135.7325  153.9612 H   0  0  0  0  0  0  0  0  0  0  0  0
  143.0238  137.3928  154.3419 H   0  0  0  0  0  0  0  0  0  0  0  0
  142.3848  137.2306  152.6920 H   0  0  0  0  0  0  0  0  0  0  0  0
  141.9678  135.3627  155.0186 H   0  0  0  0  0  0  0  0  0  0  0  0
  141.0715  135.4413  153.4992 H   0  0  0  0  0  0  0  0  0  0  0  0
  142.8640  135.0895  151.5284 H   0  0  0  0  0  0  0  0  0  0  0  0
  144.1584  133.5576  150.0737 H   0  0  0  0  0  0  0  0  0  0  0  0
  145.5396  134.5746  149.7497 H   0  0  0  0  0  0  0  0  0  0  0  0
  145.4792  131.7758  150.7997 H   0  0  0  0  0  0  0  0  0  0  0  0
  146.6719  132.5108  149.7314 H   0  0  0  0  0  0  0  0  0  0  0  0
  147.3120  132.1051  152.3254 H   0  0  0  0  0  0  0  0  0  0  0  0
  147.7262  133.6491  151.5782 H   0  0  0  0  0  0  0  0  0  0  0  0
  146.4739  134.3664  153.4742 H   0  0  0  0  0  0  0  0  0  0  0  0
  145.3530  133.0330  153.3428 H   0  0  0  0  0  0  0  0  0  0  0  0
  1  2  2  0  0  0  0
  2  3  1  0  0  0  0
  2 10  1  0  0  0  0
  3  4  1  0  0  0  0
  3 22  1  0  0  0  0
  4  9  1  0  0  0  0
  4  5  2  0  0  0  0
  5  6  1  0  0  0  0
  5 23  1  0  0  0  0
  6  7  2  0  0  0  0
  6 24  1  0  0  0  0
  7  8  1  0  0  0  0
  7 25  1  0  0  0  0
  8  9  2  0  0  0  0
 10 11  1  0  0  0  0
 10 26  1  0  0  0  0
 11 17  1  0  0  0  0
 11 12  1  0  0  0  0
 11 27  1  0  0  0  0
 12 16  1  0  0  0  0
 12 13  1  0  0  0  0
 12 28  1  0  0  0  0
 13 14  1  0  0  0  0
 13 29  1  0  0  0  0
 13 30  1  0  0  0  0
 14 15  1  0  0  0  0
 14 31  1  0  0  0  0
 14 32  1  0  0  0  0
 15 16  1  0  0  0  0
 16 17  1  0  0  0  0
 16 33  1  0  0  0  0
 17 21  1  0  0  0  0
 17 18  1  0  0  0  0
 18 19  1  0  0  0  0
 18 34  1  0  0  0  0
 18 35  1  0  0  0  0
 19 20  1  0  0  0  0
 19 36  1  0  0  0  0
 19 37  1  0  0  0  0
 20 21  1  0  0  0  0
 20 38  1  0  0  0  0
 20 39  1  0  0  0  0
 21 40  1  0  0  0  0
 21 41  1  0  0  0  0
M  END
> <s_m_source_file>
AV-unprocessed.smi

> <i_m_source_file_index>
2520

> <i_lp_mmshare_version>
43012

> <i_f3d_flags>
0

> <s_epik_input>
bjFuW2NIXVtjSF1bY0hdYzFbTkhdQyg9TylbTkhdW0NAQEhdMltDQEBIXShbQ0gyXVtDSDJdTzMpW0NASF0zQzI0W0NIMl1bQ0gyXVtDSDJdW0NIMl00

> <s_epik_cmdline>
J2VwaWtfcHl0aG9uJywgJy1waCcsICc3LjAnLCAnLXRuJywgJzgnLCAnLW1hJywgJzIwMCcsICctbWV0YWxfYmluZGluZycsICctaW1hZScsICc8aW5maWxlLm1hZT4nLCAnLW9tYWUnLCAnPG91dGZpbGUubWFlPic=

> <r_lp_tautomer_probability>
1

> <r_epik_Ionization_Penalty>
0.00552561

> <r_epik_Ionization_Penalty_Charging>
0

> <r_epik_Ionization_Penalty_Neutral>
0.00552561

> <r_epik_State_Penalty>
-0

> <r_epik_Charging_Adjusted_Penalty>
0

> <i_epik_Tot_Q>
0

> <i_epik_Tot_abs_Q>
0

> <r_epik_Metal_State_Penalty>
-0

> <b_epik_Metal_Only>
0

> <s_lp_Force_Field>
OPLS_2005

> <r_lp_Energy>
83.7492

> <b_lp_Chiralities_Consistent>
1

> <s_lp_Variant>
AV-unprocessed.smi:2520-1

> <Gold.Version>
5.8.1

> <Gold.Id.Protein>
6NUR|6NUR_protein|mol2

> <Gold.PLP.Fitness>
43.2964

> <Gold.PLP.PLP>
-32.3501

> <Gold.PLP.part.hbond>
-3.7751

> <Gold.PLP.part.metal>
0.0000

> <Gold.PLP.part.buried>
-0.6821

> <Gold.PLP.part.nonpolar>
-30.8719

> <Gold.PLP.part.repulsive>
3.8451

> <Gold.PLP.ligand.clash>
0.0000

> <Gold.PLP.ligand.torsion>
0.3313

> <Gold.PLP.Chemscore.Hbond>
2.7760

> <Gold.PLP.Chemscore.CHOScore>
1.0000

> <Gold.PLP.Chemscore.Metal>
0.0000

> <Gold.Chemscore.Hbonds>
donor molecule, donor type, donor heavy atom, donor atom, acceptor molecule, acceptor atom, score
      L1  H     3    22       P1  7948  1.00
      L1  H    10    26       P1  7948  0.85
      P1  H  7989  7998       L1     8  0.90
      L1  C     7    25       P1  8028  0.70

> <Gold.PLP.Chemscore.Internal.Correction>
0.2809

> <Gold.Rescore>
     Score         DG    S(hbond)    S(metal)    S(lipo)     H(rot)  DE(clash)    DE(int)     intcor
     12.96     -16.57       1.89        0.00      62.81       1.00       0.45       3.16       ----

> <Gold.Chemscore.Fitness>
12.9604

> <Gold.Chemscore.DG>
-16.5747

> <Gold.Chemscore.ZeroCoef>
-5.4800

> <Gold.Chemscore.Hbond>
1.8880

> <Gold.Chemscore.Metal>
0.0000

> <Gold.Chemscore.Lipo>
62.8102

> <Gold.Chemscore.Internal_Hbond>
0.0000

> <Gold.Chemscore.DEClash>
0.4509

> <Gold.Chemscore.DEInternal>
3.1635

> <Gold.Chemscore.Rot>
1.0000

> <Gold.Chemscore.Internal.Correction>
   9.000000E+99

> <Gold.Chemscore.Hbonds>
donor molecule, donor type, donor heavy atom, donor atom, acceptor molecule, acceptor atom, score
      L1  H     3    22       P1  7948  0.95
      L1  H    10    26       P1  7948  0.83
      P1  H  7989  7998       L1     8  0.13

> <Gold.Chemscore.Hbond.Weighted>
-6.3059

> <Gold.Chemscore.Metal.Weighted>
-0.0000

> <Gold.Chemscore.Lipo.Weighted>
-7.3488

> <Gold.Chemscore.Internal_Hbond.Weighted>
0.0000

> <Gold.Chemscore.DEClash.Weighted>
0.4509

> <Gold.Chemscore.DEInternal.Weighted>
3.1635

> <Gold.Chemscore.Rot.Weighted>
2.5600

> <Gold.Chemscore.Internal.Correction.Weighted>
   9.000000E+99

> <Gold.Protein.RotatedTorsions>
[ 6907 6896 6895 6894 ] final  159.61 input  -60.11 | X-H torsion
[ 7974 7965 7964 7962 ] final   -9.96 input  175.53 | X-H torsion
[ 8008 7997 7996 7995 ] final   87.19 input   59.86 | X-H torsion
[ 10167 10162 10161 10158 ] final -146.96 input  -65.29 | X-H torsion
[ 10718 10713 10712 10709 ] final   -0.75 input   66.30 | X-H torsion
[ 10763 10752 10751 10750 ] final  -23.93 input  -60.55 | X-H torsion
[ 11005 11000 10999 10996 ] final -145.14 input  -57.11 | X-H torsion

> <Gold.Protein.ActiveResidues>
 VAL166  LYS551  ARG553  GLY616  TRP617  ASP618  TYR619  PRO620  LYS621  CYS622 
 ASP623  PHE694  ASN695  SER759  ASP760  ASP761  ALA762  ILE779  LEU786  VAL792 
 PHE793  MET794  SER795  GLU796  ALA797  LYS798  CYS799  TRP800  GLU811  SER814 

> <Gold.Protein.RotatedAtoms>
  151.9830  133.3764  159.4114 H   0  0  0  0  0  0  0  0  0  0  0  0  # atno 6907 bound_to 6896
  150.6932  134.4018  159.5132 H   0  0  0  0  0  0  0  0  0  0  0  0  # atno 6908 bound_to 6896
  152.1740  134.8810  160.0583 H   0  0  0  0  0  0  0  0  0  0  0  0  # atno 6909 bound_to 6896
  146.2235  140.2694  142.8356 H   0  0  0  0  0  0  0  0  0  0  0  0  # atno 7974 bound_to 7965
  155.9722  140.3384  155.6586 H   0  0  0  0  0  0  0  0  0  0  0  0  # atno 8008 bound_to 7997
  155.6659  140.0721  157.2555 H   0  0  0  0  0  0  0  0  0  0  0  0  # atno 8009 bound_to 7997
  154.4169  140.1700  156.1814 H   0  0  0  0  0  0  0  0  0  0  0  0  # atno 8010 bound_to 7997
  139.7666  143.8299  152.2617 H   0  0  0  0  0  0  0  0  0  0  0  0  # atno 10167 bound_to 10162
  156.8159  130.5440  149.5703 H   0  0  0  0  0  0  0  0  0  0  0  0  # atno 10718 bound_to 10713
  153.6757  135.6969  153.5133 H   0  0  0  0  0  0  0  0  0  0  0  0  # atno 10763 bound_to 10752
  153.2523  135.4271  155.0809 H   0  0  0  0  0  0  0  0  0  0  0  0  # atno 10764 bound_to 10752
  154.8414  135.3534  154.6301 H   0  0  0  0  0  0  0  0  0  0  0  0  # atno 10765 bound_to 10752
  140.7952  134.2921  157.4999 H   0  0  0  0  0  0  0  0  0  0  0  0  # atno 11005 bound_to 11000
  144.9280  140.7942  143.5707 LP  0  0  0  0  0  0  0  0  0  0  0  0  # atno 17320 bound_to 7965
  145.2635  139.1983  143.4879 LP  0  0  0  0  0  0  0  0  0  0  0  0  # atno 17321 bound_to 7965
  139.8321  144.7249  150.9437 LP  0  0  0  0  0  0  0  0  0  0  0  0  # atno 17342 bound_to 10162
  140.7811  143.4060  151.1070 LP  0  0  0  0  0  0  0  0  0  0  0  0  # atno 17343 bound_to 10162
  156.1017  130.5974  150.9905 LP  0  0  0  0  0  0  0  0  0  0  0  0  # atno 17370 bound_to 10713
  157.6482  131.0901  150.8108 LP  0  0  0  0  0  0  0  0  0  0  0  0  # atno 17371 bound_to 10713
  139.8727  134.9398  156.3751 LP  0  0  0  0  0  0  0  0  0  0  0  0  # atno 17394 bound_to 11000
  140.9349  133.7554  156.0072 LP  0  0  0  0  0  0  0  0  0  0  0  0  # atno 17395 bound_to 11000

$$$$
