AV-unprocessed.smi:2548|AV-procd|sdf|10007|dock6
  -GOLD-   2272014 53D 1   1.00000     0.00000
 Structure written by MMmdl.
 44 45  0  0  0  0  0  0  0  0  1 V2000
  144.1994  143.2658  154.5146 C   0  0  0  0  0  0  0  0  0  0  0  0
  145.4841  142.5301  154.6888 C   0  0  0  0  0  0  0  0  0  0  0  0
  146.3726  142.0321  153.7780 C   0  0  0  0  0  0  0  0  0  0  0  0
  147.4001  141.4416  154.5724 C   0  0  0  0  0  0  0  0  0  0  0  0
  148.6450  140.7321  154.1032 C   0  0  0  0  0  0  0  0  0  0  0  0
  149.9013  141.2304  154.8285 C   0  0  0  0  0  0  0  0  0  0  0  0
  150.9955  140.6936  154.6480 O   0  0  0  0  0  0  0  0  0  0  0  0
  149.7246  142.2830  155.6432 N   0  0  0  0  0  0  0  0  0  0  0  0
  150.7671  142.9435  156.4291 C   0  0  0  0  0  0  0  0  0  0  0  0
  150.8435  142.4570  157.9089 C   0  0  0  0  0  0  0  0  0  0  0  0
  151.1128  140.9335  157.9099 C   0  0  0  0  0  0  0  0  0  0  0  0
  152.0424  143.1193  158.6484 C   0  0  0  0  0  0  0  0  0  0  0  0
  152.0660  144.6609  158.7135 C   0  0  0  0  0  0  0  0  0  0  0  0
  151.2846  145.2992  159.8745 C   0  0  0  0  0  0  0  0  0  0  0  0
  149.8939  144.7181  160.1794 C   0  0  0  0  0  0  0  0  0  0  0  0
  149.1292  144.1474  158.9751 C   0  0  0  0  0  0  0  0  0  0  0  0
  149.5098  142.6866  158.6683 C   0  0  0  0  0  0  0  0  0  0  0  0
  147.1616  141.5576  155.8716 N   0  0  0  0  0  0  0  0  0  0  0  0
  145.9948  142.2258  155.9293 N   0  0  0  0  0  0  0  0  0  0  0  0
  145.5631  142.4627  156.8112 H   0  0  0  0  0  0  0  0  0  0  0  0
  143.9136  143.3067  153.4633 H   0  0  0  0  0  0  0  0  0  0  0  0
  144.2868  144.2888  154.8806 H   0  0  0  0  0  0  0  0  0  0  0  0
  143.3941  142.7766  155.0630 H   0  0  0  0  0  0  0  0  0  0  0  0
  146.3032  142.0839  152.7014 H   0  0  0  0  0  0  0  0  0  0  0  0
  148.5595  139.6559  154.2594 H   0  0  0  0  0  0  0  0  0  0  0  0
  148.7694  140.8796  153.0297 H   0  0  0  0  0  0  0  0  0  0  0  0
  148.7925  142.6628  155.7228 H   0  0  0  0  0  0  0  0  0  0  0  0
  151.7163  142.7405  155.9322 H   0  0  0  0  0  0  0  0  0  0  0  0
  150.6327  144.0218  156.3647 H   0  0  0  0  0  0  0  0  0  0  0  0
  151.2608  140.5561  158.9225 H   0  0  0  0  0  0  0  0  0  0  0  0
  152.0079  140.6858  157.3382 H   0  0  0  0  0  0  0  0  0  0  0  0
  150.2843  140.3695  157.4800 H   0  0  0  0  0  0  0  0  0  0  0  0
  152.1281  142.7194  159.6598 H   0  0  0  0  0  0  0  0  0  0  0  0
  152.9571  142.8072  158.1419 H   0  0  0  0  0  0  0  0  0  0  0  0
  153.1045  144.9771  158.8182 H   0  0  0  0  0  0  0  0  0  0  0  0
  151.7457  145.1028  157.7730 H   0  0  0  0  0  0  0  0  0  0  0  0
  151.8836  145.2433  160.7843 H   0  0  0  0  0  0  0  0  0  0  0  0
  151.1824  146.3636  159.6612 H   0  0  0  0  0  0  0  0  0  0  0  0
  149.9846  143.9479  160.9462 H   0  0  0  0  0  0  0  0  0  0  0  0
  149.2947  145.5050  160.6391 H   0  0  0  0  0  0  0  0  0  0  0  0
  148.0681  144.1580  159.2264 H   0  0  0  0  0  0  0  0  0  0  0  0
  149.2256  144.7897  158.0998 H   0  0  0  0  0  0  0  0  0  0  0  0
  148.6935  142.2322  158.1073 H   0  0  0  0  0  0  0  0  0  0  0  0
  149.5290  142.1322  159.6076 H   0  0  0  0  0  0  0  0  0  0  0  0
  1  2  1  0  0  0  0
  1 21  1  0  0  0  0
  1 22  1  0  0  0  0
  1 23  1  0  0  0  0
  2 19  1  0  0  0  0
  2  3  2  0  0  0  0
  3  4  1  0  0  0  0
  3 24  1  0  0  0  0
  4  5  1  0  0  0  0
  4 18  2  0  0  0  0
  5  6  1  0  0  0  0
  5 25  1  0  0  0  0
  5 26  1  0  0  0  0
  6  7  2  0  0  0  0
  6  8  1  0  0  0  0
  8  9  1  0  0  0  0
  8 27  1  0  0  0  0
  9 10  1  0  0  0  0
  9 28  1  0  0  0  0
  9 29  1  0  0  0  0
 10 17  1  0  0  0  0
 10 11  1  0  0  0  0
 10 12  1  0  0  0  0
 11 30  1  0  0  0  0
 11 31  1  0  0  0  0
 11 32  1  0  0  0  0
 12 13  1  0  0  0  0
 12 33  1  0  0  0  0
 12 34  1  0  0  0  0
 13 14  1  0  0  0  0
 13 35  1  0  0  0  0
 13 36  1  0  0  0  0
 14 15  1  0  0  0  0
 14 37  1  0  0  0  0
 14 38  1  0  0  0  0
 15 16  1  0  0  0  0
 15 39  1  0  0  0  0
 15 40  1  0  0  0  0
 16 17  1  0  0  0  0
 16 41  1  0  0  0  0
 16 42  1  0  0  0  0
 17 43  1  0  0  0  0
 17 44  1  0  0  0  0
 18 19  1  0  0  0  0
 19 20  1  0  0  0  0
M  END
> <s_m_source_file>
AV-unprocessed.smi

> <i_m_source_file_index>
2548

> <i_lp_mmshare_version>
43012

> <i_f3d_flags>
0

> <s_epik_input>
W0NIM11jMVtjSF1jKG5bbkhdMSlbQ0gyXUMoPU8pW05IXVtDSDJdQzIoW0NIM10pW0NIMl1bQ0gyXVtDSDJdW0NIMl1bQ0gyXVtDSDJdMg==

> <s_epik_cmdline>
J2VwaWtfcHl0aG9uJywgJy1waCcsICc3LjAnLCAnLXRuJywgJzgnLCAnLW1hJywgJzIwMCcsICctbWV0YWxfYmluZGluZycsICctaW1hZScsICc8aW5maWxlLm1hZT4nLCAnLW9tYWUnLCAnPG91dGZpbGUubWFlPic=

> <r_lp_tautomer_probability>
0.5

> <r_epik_Ionization_Penalty>
8.42262e-05

> <r_epik_Ionization_Penalty_Charging>
0

> <r_epik_Ionization_Penalty_Neutral>
8.42262e-05

> <r_epik_State_Penalty>
0.41068

> <r_epik_Charging_Adjusted_Penalty>
0.41068

> <i_epik_Tot_Q>
0

> <i_epik_Tot_abs_Q>
0

> <r_epik_Metal_State_Penalty>
0.410698

> <b_epik_Metal_Only>
0

> <s_lp_Force_Field>
OPLS_2005

> <r_lp_Energy>
22.9227

> <b_lp_Chiralities_Consistent>
1

> <s_lp_Variant>
AV-unprocessed.smi:2548-1

> <Gold.Version>
5.8.1

> <Gold.Id.Protein>
6NUR|6NUR_protein|mol2

> <Gold.PLP.Fitness>
43.1646

> <Gold.PLP.PLP>
-40.8699

> <Gold.PLP.part.hbond>
-2.7289

> <Gold.PLP.part.metal>
0.0000

> <Gold.PLP.part.buried>
-3.5507

> <Gold.PLP.part.nonpolar>
-34.1015

> <Gold.PLP.part.repulsive>
0.3700

> <Gold.PLP.ligand.clash>
2.0138

> <Gold.PLP.ligand.torsion>
0.3272

> <Gold.PLP.Chemscore.Hbond>
1.6503

> <Gold.PLP.Chemscore.CHOScore>
0.0000

> <Gold.PLP.Chemscore.Metal>
0.0000

> <Gold.Chemscore.Hbonds>
donor molecule, donor type, donor heavy atom, donor atom, acceptor molecule, acceptor atom, score
      L1  H     8    27       P1  8028  0.20
      P1  H  7989  7998       L1     7  0.44

> <Gold.PLP.Chemscore.Internal.Correction>
0.0121

> <Gold.Rescore>
     Score         DG    S(hbond)    S(metal)    S(lipo)     H(rot)  DE(clash)    DE(int)     intcor
     16.65     -18.83       1.30        0.00     110.75       1.55       0.65       1.52       ----

> <Gold.Chemscore.Fitness>
16.6548

> <Gold.Chemscore.DG>
-18.8250

> <Gold.Chemscore.ZeroCoef>
-5.4800

> <Gold.Chemscore.Hbond>
1.3031

> <Gold.Chemscore.Metal>
0.0000

> <Gold.Chemscore.Lipo>
110.7514

> <Gold.Chemscore.Internal_Hbond>
0.0000

> <Gold.Chemscore.DEClash>
0.6508

> <Gold.Chemscore.DEInternal>
1.5195

> <Gold.Chemscore.Rot>
1.5489

> <Gold.Chemscore.Internal.Correction>
   9.000000E+99

> <Gold.Chemscore.Hbonds>
donor molecule, donor type, donor heavy atom, donor atom, acceptor molecule, acceptor atom, score
      L1  H     8    27       P1  8028  0.18
      P1  H  7989  7998       L1     7  0.42

> <Gold.Chemscore.Hbond.Weighted>
-4.3523

> <Gold.Chemscore.Metal.Weighted>
-0.0000

> <Gold.Chemscore.Lipo.Weighted>
-12.9579

> <Gold.Chemscore.Internal_Hbond.Weighted>
0.0000

> <Gold.Chemscore.DEClash.Weighted>
0.6508

> <Gold.Chemscore.DEInternal.Weighted>
1.5195

> <Gold.Chemscore.Rot.Weighted>
3.9652

> <Gold.Chemscore.Internal.Correction.Weighted>
   9.000000E+99

> <Gold.Protein.RotatedTorsions>
[ 6907 6896 6895 6894 ] final  165.29 input  -60.11 | X-H torsion
[ 7974 7965 7964 7962 ] final -176.24 input  175.53 | X-H torsion
[ 8008 7997 7996 7995 ] final  176.89 input   59.86 | X-H torsion
[ 10167 10162 10161 10158 ] final   60.18 input  -65.29 | X-H torsion
[ 10718 10713 10712 10709 ] final  -18.14 input   66.30 | X-H torsion
[ 10763 10752 10751 10750 ] final  -99.17 input  -60.55 | X-H torsion
[ 11005 11000 10999 10996 ] final   15.47 input  -57.11 | X-H torsion

> <Gold.Protein.ActiveResidues>
 VAL166  LYS551  ARG553  GLY616  TRP617  ASP618  TYR619  PRO620  LYS621  CYS622 
 ASP623  PHE694  ASN695  SER759  ASP760  ASP761  ALA762  ILE779  LEU786  VAL792 
 PHE793  MET794  SER795  GLU796  ALA797  LYS798  CYS799  TRP800  GLU811  SER814 

> <Gold.Protein.RotatedAtoms>
  151.8967  133.3528  159.3816 H   0  0  0  0  0  0  0  0  0  0  0  0  # atno 6907 bound_to 6896
  150.7090  134.4869  159.5506 H   0  0  0  0  0  0  0  0  0  0  0  0  # atno 6908 bound_to 6896
  152.2450  134.8191  160.0505 H   0  0  0  0  0  0  0  0  0  0  0  0  # atno 6909 bound_to 6896
  144.7127  140.1200  143.6406 H   0  0  0  0  0  0  0  0  0  0  0  0  # atno 7974 bound_to 7965
  156.0716  140.1372  156.9822 H   0  0  0  0  0  0  0  0  0  0  0  0  # atno 8008 bound_to 7997
  154.4535  140.0970  156.6739 H   0  0  0  0  0  0  0  0  0  0  0  0  # atno 8009 bound_to 7997
  155.5219  140.3456  155.4411 H   0  0  0  0  0  0  0  0  0  0  0  0  # atno 8010 bound_to 7997
  140.1684  144.4301  150.6673 H   0  0  0  0  0  0  0  0  0  0  0  0  # atno 10167 bound_to 10162
  156.5637  130.4732  149.6395 H   0  0  0  0  0  0  0  0  0  0  0  0  # atno 10718 bound_to 10713
  154.7475  135.4982  153.9230 H   0  0  0  0  0  0  0  0  0  0  0  0  # atno 10763 bound_to 10752
  153.1108  135.6708  153.9512 H   0  0  0  0  0  0  0  0  0  0  0  0  # atno 10764 bound_to 10752
  153.9272  135.3082  155.3425 H   0  0  0  0  0  0  0  0  0  0  0  0  # atno 10765 bound_to 10752
  140.4579  134.1157  155.7712 H   0  0  0  0  0  0  0  0  0  0  0  0  # atno 11005 bound_to 11000
  145.9379  139.2649  143.1286 LP  0  0  0  0  0  0  0  0  0  0  0  0  # atno 17320 bound_to 7965
  145.9454  140.8948  143.0286 LP  0  0  0  0  0  0  0  0  0  0  0  0  # atno 17321 bound_to 7965
  140.6598  143.2248  151.5883 LP  0  0  0  0  0  0  0  0  0  0  0  0  # atno 17342 bound_to 10162
  139.5349  144.2810  152.1229 LP  0  0  0  0  0  0  0  0  0  0  0  0  # atno 17343 bound_to 10162
  156.2776  130.7052  151.1868 LP  0  0  0  0  0  0  0  0  0  0  0  0  # atno 17370 bound_to 10713
  157.7363  131.0563  150.5421 LP  0  0  0  0  0  0  0  0  0  0  0  0  # atno 17371 bound_to 10713
  141.1635  133.8748  157.1782 LP  0  0  0  0  0  0  0  0  0  0  0  0  # atno 17394 bound_to 11000
  139.9964  135.0045  157.0092 LP  0  0  0  0  0  0  0  0  0  0  0  0  # atno 17395 bound_to 11000

$$$$
