AV-unprocessed.smi:1421|AV-procd|sdf|5791|dock10
  -GOLD-   22720 5443D 1   1.00000     0.00000
 Structure written by MMmdl.
 44 45  0  0  0  0  0  0  0  0  2 V2000
  144.1449  142.4033  159.6090 C   0  0  0  0  0  0  0  0  0  0  0  0
  145.2970  143.0791  160.8802 S   0  0  0  0  0  0  0  0  0  0  0  0
  145.0479  144.5284  160.8839 O   0  0  0  0  0  0  0  0  0  0  0  0
  145.0047  142.3535  162.1279 O   0  0  0  0  0  0  0  0  0  0  0  0
  146.7564  142.7412  160.2463 N   0  5  0  0  0  0  0  0  0  0  0  0
  147.1731  143.2990  158.9677 C   0  0  0  0  0  0  0  0  0  0  0  0
  147.1728  142.1908  157.8923 C   0  0  0  0  0  0  0  0  0  0  0  0
  148.5635  141.5995  157.6158 C   0  0  0  0  0  0  0  0  0  0  0  0
  148.8442  140.4518  157.9689 O   0  0  0  0  0  0  0  0  0  0  0  0
  149.4453  142.4110  157.0116 N   0  0  0  0  0  0  0  0  0  0  0  0
  150.8070  142.0364  156.6545 C   0  0  0  0  0  0  0  0  0  0  0  0
  151.7050  141.8458  157.8745 C   0  0  0  0  0  0  0  0  0  0  0  0
  152.0503  142.9654  158.6649 C   0  0  0  0  0  0  0  0  0  0  0  0
  152.9031  142.7960  159.7700 C   0  0  0  0  0  0  0  0  0  0  0  0
  153.3901  141.5058  160.0421 C   0  0  0  0  0  0  0  0  0  0  0  0
  153.0772  140.4271  159.2958 N   0  0  0  0  0  0  0  0  0  0  0  0
  152.2536  140.5831  158.2303 C   0  0  0  0  0  0  0  0  0  0  0  0
  151.9311  139.4278  157.4961 N   0  0  0  0  0  0  0  0  0  0  0  0
  152.2172  139.4525  156.0657 C   0  0  0  0  0  0  0  0  0  0  0  0
  151.6182  138.2042  155.3952 C   0  0  0  0  0  0  0  0  0  0  0  0
  152.1272  137.0330  156.0280 O   0  0  0  0  0  0  0  0  0  0  0  0
  151.7903  136.9802  157.4120 C   0  0  0  0  0  0  0  0  0  0  0  0
  152.3845  138.1999  158.1373 C   0  0  0  0  0  0  0  0  0  0  0  0
  143.1226  142.6628  159.8813 H   0  0  0  0  0  0  0  0  0  0  0  0
  144.2353  141.3189  159.5600 H   0  0  0  0  0  0  0  0  0  0  0  0
  144.3805  142.8363  158.6373 H   0  0  0  0  0  0  0  0  0  0  0  0
  146.5143  144.1064  158.6462 H   0  0  0  0  0  0  0  0  0  0  0  0
  148.1708  143.7355  159.0317 H   0  0  0  0  0  0  0  0  0  0  0  0
  146.4962  141.3873  158.1889 H   0  0  0  0  0  0  0  0  0  0  0  0
  146.7809  142.5868  156.9543 H   0  0  0  0  0  0  0  0  0  0  0  0
  149.1467  143.3449  156.7707 H   0  0  0  0  0  0  0  0  0  0  0  0
  150.7596  141.1439  156.0319 H   0  0  0  0  0  0  0  0  0  0  0  0
  151.2488  142.8209  156.0383 H   0  0  0  0  0  0  0  0  0  0  0  0
  151.6727  143.9492  158.4269 H   0  0  0  0  0  0  0  0  0  0  0  0
  153.1812  143.6350  160.3905 H   0  0  0  0  0  0  0  0  0  0  0  0
  154.0490  141.3344  160.8803 H   0  0  0  0  0  0  0  0  0  0  0  0
  151.8011  140.3564  155.6192 H   0  0  0  0  0  0  0  0  0  0  0  0
  153.2957  139.4740  155.9026 H   0  0  0  0  0  0  0  0  0  0  0  0
  150.5284  138.2171  155.4523 H   0  0  0  0  0  0  0  0  0  0  0  0
  151.8825  138.1812  154.3381 H   0  0  0  0  0  0  0  0  0  0  0  0
  150.7063  136.9472  157.5321 H   0  0  0  0  0  0  0  0  0  0  0  0
  152.1865  136.0592  157.8397 H   0  0  0  0  0  0  0  0  0  0  0  0
  153.4742  138.1598  158.1040 H   0  0  0  0  0  0  0  0  0  0  0  0
  152.0961  138.1874  159.1890 H   0  0  0  0  0  0  0  0  0  0  0  0
  1  2  1  0  0  0  0
  1 24  1  0  0  0  0
  1 25  1  0  0  0  0
  1 26  1  0  0  0  0
  2  3  2  0  0  0  0
  2  4  2  0  0  0  0
  2  5  1  0  0  0  0
  5  6  1  0  0  0  0
  6  7  1  0  0  0  0
  6 27  1  0  0  0  0
  6 28  1  0  0  0  0
  7  8  1  0  0  0  0
  7 29  1  0  0  0  0
  7 30  1  0  0  0  0
  8  9  2  0  0  0  0
  8 10  1  0  0  0  0
 10 11  1  0  0  0  0
 10 31  1  0  0  0  0
 11 12  1  0  0  0  0
 11 32  1  0  0  0  0
 11 33  1  0  0  0  0
 12 17  1  0  0  0  0
 12 13  2  0  0  0  0
 13 14  1  0  0  0  0
 13 34  1  0  0  0  0
 14 15  2  0  0  0  0
 14 35  1  0  0  0  0
 15 16  1  0  0  0  0
 15 36  1  0  0  0  0
 16 17  2  0  0  0  0
 17 18  1  0  0  0  0
 18 23  1  0  0  0  0
 18 19  1  0  0  0  0
 19 20  1  0  0  0  0
 19 37  1  0  0  0  0
 19 38  1  0  0  0  0
 20 21  1  0  0  0  0
 20 39  1  0  0  0  0
 20 40  1  0  0  0  0
 21 22  1  0  0  0  0
 22 23  1  0  0  0  0
 22 41  1  0  0  0  0
 22 42  1  0  0  0  0
 23 43  1  0  0  0  0
 23 44  1  0  0  0  0
M  CHG  1   5  -1
M  END
> <s_m_source_file>
AV-unprocessed.smi

> <i_m_source_file_index>
1421

> <i_lp_mmshare_version>
43012

> <i_f3d_flags>
0

> <s_epik_input>
W0NIM11TKD1PKSg9TylbTkhdW0NIMl1bQ0gyXUMoPU8pW05IXVtDSDJdYzFbY0hdW2NIXVtjSF1uYzFOMltDSDJdW0NIMl1PW0NIMl1bQ0gyXTI=

> <s_epik_cmdline>
J2VwaWtfcHl0aG9uJywgJy1waCcsICc3LjAnLCAnLXRuJywgJzgnLCAnLW1hJywgJzIwMCcsICctbWV0YWxfYmluZGluZycsICctaW1hZScsICc8aW5maWxlLm1hZT4nLCAnLW9tYWUnLCAnPG91dGZpbGUubWFlPic=

> <r_lp_tautomer_probability>
1

> <r_epik_Ionization_Penalty>
6.31253

> <r_epik_Ionization_Penalty_Charging>
6.30704

> <r_epik_Ionization_Penalty_Neutral>
0.00548981

> <r_epik_State_Penalty>
6.31049

> <r_epik_Charging_Adjusted_Penalty>
12.6175

> <i_epik_Tot_Q>
-1

> <i_epik_Tot_abs_Q>
1

> <r_epik_Metal_State_Penalty>
2.24651

> <b_epik_Metal_Only>
1

> <s_lp_Force_Field>
OPLS_2005

> <r_lp_Energy>
12.571

> <b_lp_Chiralities_Consistent>
1

> <s_lp_Variant>
AV-unprocessed.smi:1421-2

> <Gold.Version>
5.8.1

> <Gold.Id.Protein>
6NUR|6NUR_protein|mol2

> <Gold.PLP.Fitness>
50.3366

> <Gold.PLP.PLP>
-35.7310

> <Gold.PLP.part.hbond>
-5.1017

> <Gold.PLP.part.metal>
0.0000

> <Gold.PLP.part.buried>
-6.4166

> <Gold.PLP.part.nonpolar>
-24.9145

> <Gold.PLP.part.repulsive>
0.1420

> <Gold.PLP.ligand.clash>
0.0000

> <Gold.PLP.ligand.torsion>
1.1242

> <Gold.PLP.Chemscore.Hbond>
5.2013

> <Gold.PLP.Chemscore.CHOScore>
0.0000

> <Gold.PLP.Chemscore.Metal>
0.0000

> <Gold.Chemscore.Hbonds>
donor molecule, donor type, donor heavy atom, donor atom, acceptor molecule, acceptor atom, score
      L1  H    10    31       P1  8028  1.00
      P1  H  6933  6944       L1     5  1.19
      P1  H  6934  6946       L1     5  1.98
      P1  H 10752 10763       L1    21  0.84

> <Gold.PLP.Chemscore.Internal.Correction>
1.2502

> <Gold.Rescore>
     Score         DG    S(hbond)    S(metal)    S(lipo)     H(rot)  DE(clash)    DE(int)     intcor
     15.93     -17.32       2.82        0.00      74.68       2.46       0.15       1.24       ----

> <Gold.Chemscore.Fitness>
15.9347

> <Gold.Chemscore.DG>
-17.3224

> <Gold.Chemscore.ZeroCoef>
-5.4800

> <Gold.Chemscore.Hbond>
2.8170

> <Gold.Chemscore.Metal>
0.0000

> <Gold.Chemscore.Lipo>
74.6812

> <Gold.Chemscore.Internal_Hbond>
0.0000

> <Gold.Chemscore.DEClash>
0.1523

> <Gold.Chemscore.DEInternal>
1.2355

> <Gold.Chemscore.Rot>
2.4625

> <Gold.Chemscore.Internal.Correction>
   9.000000E+99

> <Gold.Chemscore.Hbonds>
donor molecule, donor type, donor heavy atom, donor atom, acceptor molecule, acceptor atom, score
      L1  H    10    31       P1  8028  0.93
      P1  H  6933  6944       L1     5  0.41
      P1  H  6934  6946       L1     5  0.28
      P1  H 10752 10763       L1    21  0.78

> <Gold.Chemscore.Hbond.Weighted>
-9.4088

> <Gold.Chemscore.Metal.Weighted>
-0.0000

> <Gold.Chemscore.Lipo.Weighted>
-8.7377

> <Gold.Chemscore.Internal_Hbond.Weighted>
0.0000

> <Gold.Chemscore.DEClash.Weighted>
0.1523

> <Gold.Chemscore.DEInternal.Weighted>
1.2355

> <Gold.Chemscore.Rot.Weighted>
6.3040

> <Gold.Chemscore.Internal.Correction.Weighted>
   9.000000E+99

> <Gold.Protein.RotatedTorsions>
[ 6907 6896 6895 6894 ] final   65.30 input  -60.11 | X-H torsion
[ 7974 7965 7964 7962 ] final  142.84 input  175.53 | X-H torsion
[ 8008 7997 7996 7995 ] final  -52.39 input   59.86 | X-H torsion
[ 10167 10162 10161 10158 ] final  174.93 input  -65.29 | X-H torsion
[ 10718 10713 10712 10709 ] final   59.76 input   66.30 | X-H torsion
[ 10763 10752 10751 10750 ] final   87.85 input  -60.55 | X-H torsion
[ 11005 11000 10999 10996 ] final   -8.15 input  -57.11 | X-H torsion

> <Gold.Protein.ActiveResidues>
 VAL166  LYS551  ARG553  GLY616  TRP617  ASP618  TYR619  PRO620  LYS621  CYS622 
 ASP623  PHE694  ASN695  SER759  ASP760  ASP761  ALA762  ILE779  LEU786  VAL792 
 PHE793  MET794  SER795  GLU796  ALA797  LYS798  CYS799  TRP800  GLU811  SER814 

> <Gold.Protein.RotatedAtoms>
  152.4397  134.5616  159.9895 H   0  0  0  0  0  0  0  0  0  0  0  0  # atno 6907 bound_to 6896
  151.5717  133.3383  159.2999 H   0  0  0  0  0  0  0  0  0  0  0  0  # atno 6908 bound_to 6896
  150.8301  134.7584  159.6910 H   0  0  0  0  0  0  0  0  0  0  0  0  # atno 6909 bound_to 6896
  144.8973  139.5473  143.5770 H   0  0  0  0  0  0  0  0  0  0  0  0  # atno 7974 bound_to 7965
  154.4105  140.1225  156.4984 H   0  0  0  0  0  0  0  0  0  0  0  0  # atno 8008 bound_to 7997
  155.6920  140.3495  155.4878 H   0  0  0  0  0  0  0  0  0  0  0  0  # atno 8009 bound_to 7997
  155.9461  140.1096  157.1006 H   0  0  0  0  0  0  0  0  0  0  0  0  # atno 8010 bound_to 7997
  139.5159  144.3090  152.0309 H   0  0  0  0  0  0  0  0  0  0  0  0  # atno 10167 bound_to 10162
  157.5701  130.8901  149.9252 H   0  0  0  0  0  0  0  0  0  0  0  0  # atno 10718 bound_to 10713
  153.1709  135.4528  154.9901 H   0  0  0  0  0  0  0  0  0  0  0  0  # atno 10763 bound_to 10752
  154.7965  135.3239  154.7656 H   0  0  0  0  0  0  0  0  0  0  0  0  # atno 10764 bound_to 10752
  153.8132  135.6953  153.4892 H   0  0  0  0  0  0  0  0  0  0  0  0  # atno 10765 bound_to 10752
  140.7204  133.8833  155.8817 H   0  0  0  0  0  0  0  0  0  0  0  0  # atno 11005 bound_to 11000
  146.3088  139.7674  142.9035 LP  0  0  0  0  0  0  0  0  0  0  0  0  # atno 17320 bound_to 7965
  145.3678  141.0337  143.3248 LP  0  0  0  0  0  0  0  0  0  0  0  0  # atno 17321 bound_to 7965
  140.2535  144.4143  150.6212 LP  0  0  0  0  0  0  0  0  0  0  0  0  # atno 17342 bound_to 10162
  140.6208  143.2176  151.6699 LP  0  0  0  0  0  0  0  0  0  0  0  0  # atno 17343 bound_to 10162
  156.0747  130.3680  150.0703 LP  0  0  0  0  0  0  0  0  0  0  0  0  # atno 17370 bound_to 10713
  156.8857  130.9571  151.3594 LP  0  0  0  0  0  0  0  0  0  0  0  0  # atno 17371 bound_to 10713
  141.0008  134.1153  157.4319 LP  0  0  0  0  0  0  0  0  0  0  0  0  # atno 17394 bound_to 11000
  139.8849  135.0067  156.6402 LP  0  0  0  0  0  0  0  0  0  0  0  0  # atno 17395 bound_to 11000

$$$$
