AV-unprocessed.smi:2124|AV-procd|sdf|8652|dock1
  -GOLD-   2272011403D 1   1.00000     0.00000
 Structure written by MMmdl.
 47 49  0  0  0  0  0  0  0  0  1 V2000
  146.3286  137.9528  152.0812 C   0  0  0  0  0  0  0  0  0  0  0  0
  147.0143  139.0356  152.8870 C   0  0  0  0  0  0  0  0  0  0  0  0
  146.4453  140.1419  153.2369 N   0  0  0  0  0  0  0  0  0  0  0  0
  147.1821  141.0720  153.9831 C   0  0  0  0  0  0  0  0  0  0  0  0
  146.4429  142.3444  154.3589 C   0  0  0  0  0  0  0  0  0  0  0  0
  148.4785  140.8367  154.3409 C   0  0  0  0  0  0  0  0  0  0  0  0
  149.3099  141.8287  155.1534 C   0  0  0  0  0  0  0  0  0  0  0  0
  149.7866  141.3499  156.5272 C   0  0  0  0  0  0  0  0  0  0  0  0
  148.9766  140.9931  157.3832 O   0  0  0  0  0  0  0  0  0  0  0  0
  151.1157  141.3414  156.7134 N   0  0  0  0  0  0  0  0  0  0  0  0
  151.8117  140.9075  157.9241 C   0  0  2  0  0  0  0  0  0  0  0  0
  151.3368  139.4869  158.2712 C   0  0  0  0  0  0  0  0  0  0  0  0
  151.5596  141.9112  159.0773 C   0  0  1  0  0  0  0  0  0  0  0  0
  152.6447  141.8670  160.1817 C   0  0  0  0  0  0  0  0  0  0  0  0
  153.1046  143.3316  160.2882 C   0  0  2  0  0  0  0  0  0  0  0  0
  151.9816  144.1811  160.9100 C   0  0  0  0  0  0  0  0  0  0  0  0
  150.9457  144.2526  159.7730 C   0  0  0  0  0  0  0  0  0  0  0  0
  151.5985  143.4060  158.6635 C   0  0  1  0  0  0  0  0  0  0  0  0
  153.0695  143.7705  158.8305 C   0  0  0  0  0  0  0  0  0  0  0  0
  149.1167  139.5677  153.9411 C   0  0  0  0  0  0  0  0  0  0  0  0
  150.2712  139.2494  154.2217 O   0  0  0  0  0  0  0  0  0  0  0  0
  148.3325  138.7319  153.2237 N   0  0  0  0  0  0  0  0  0  0  0  0
  148.7236  137.8500  152.9263 H   0  0  0  0  0  0  0  0  0  0  0  0
  145.4527  137.5854  152.6162 H   0  0  0  0  0  0  0  0  0  0  0  0
  146.9928  137.1084  151.8922 H   0  0  0  0  0  0  0  0  0  0  0  0
  146.0015  138.3513  151.1208 H   0  0  0  0  0  0  0  0  0  0  0  0
  146.8920  143.2064  153.8653 H   0  0  0  0  0  0  0  0  0  0  0  0
  146.4738  142.5046  155.4366 H   0  0  0  0  0  0  0  0  0  0  0  0
  145.3950  142.2956  154.0603 H   0  0  0  0  0  0  0  0  0  0  0  0
  150.1796  142.1477  154.5771 H   0  0  0  0  0  0  0  0  0  0  0  0
  148.7266  142.7376  155.3014 H   0  0  0  0  0  0  0  0  0  0  0  0
  151.6966  141.6523  155.9484 H   0  0  0  0  0  0  0  0  0  0  0  0
  152.8854  140.8564  157.7373 H   0  0  0  0  0  0  0  0  0  0  0  0
  151.8653  139.0857  159.1356 H   0  0  0  0  0  0  0  0  0  0  0  0
  151.5116  138.8024  157.4401 H   0  0  0  0  0  0  0  0  0  0  0  0
  150.2701  139.4685  158.4972 H   0  0  0  0  0  0  0  0  0  0  0  0
  150.5840  141.6853  159.5115 H   0  0  0  0  0  0  0  0  0  0  0  0
  152.2593  141.4824  161.1269 H   0  0  0  0  0  0  0  0  0  0  0  0
  153.4880  141.2394  159.8910 H   0  0  0  0  0  0  0  0  0  0  0  0
  154.0691  143.4515  160.7824 H   0  0  0  0  0  0  0  0  0  0  0  0
  151.5762  143.7295  161.8163 H   0  0  0  0  0  0  0  0  0  0  0  0
  152.3418  145.1790  161.1636 H   0  0  0  0  0  0  0  0  0  0  0  0
  149.9688  143.8707  160.0716 H   0  0  0  0  0  0  0  0  0  0  0  0
  150.8123  145.2839  159.4437 H   0  0  0  0  0  0  0  0  0  0  0  0
  151.1865  143.6206  157.6776 H   0  0  0  0  0  0  0  0  0  0  0  0
  153.2700  144.8346  158.6936 H   0  0  0  0  0  0  0  0  0  0  0  0
  153.7373  143.1960  158.1866 H   0  0  0  0  0  0  0  0  0  0  0  0
  1  2  1  0  0  0  0
  1 24  1  0  0  0  0
  1 25  1  0  0  0  0
  1 26  1  0  0  0  0
  2 22  1  0  0  0  0
  2  3  2  0  0  0  0
  3  4  1  0  0  0  0
  4  5  1  0  0  0  0
  4  6  2  0  0  0  0
  5 27  1  0  0  0  0
  5 28  1  0  0  0  0
  5 29  1  0  0  0  0
  6  7  1  0  0  0  0
  6 20  1  0  0  0  0
  7  8  1  0  0  0  0
  7 30  1  0  0  0  0
  7 31  1  0  0  0  0
  8  9  2  0  0  0  0
  8 10  1  0  0  0  0
 10 11  1  0  0  0  0
 10 32  1  0  0  0  0
 11 12  1  0  0  0  0
 11 13  1  0  0  0  0
 11 33  1  0  0  0  0
 12 34  1  0  0  0  0
 12 35  1  0  0  0  0
 12 36  1  0  0  0  0
 13 18  1  0  0  0  0
 13 14  1  0  0  0  0
 13 37  1  0  0  0  0
 14 15  1  0  0  0  0
 14 38  1  0  0  0  0
 14 39  1  0  0  0  0
 15 19  1  0  0  0  0
 15 16  1  0  0  0  0
 15 40  1  0  0  0  0
 16 17  1  0  0  0  0
 16 41  1  0  0  0  0
 16 42  1  0  0  0  0
 17 18  1  0  0  0  0
 17 43  1  0  0  0  0
 17 44  1  0  0  0  0
 18 19  1  0  0  0  0
 18 45  1  0  0  0  0
 19 46  1  0  0  0  0
 19 47  1  0  0  0  0
 20 21  2  0  0  0  0
 20 22  1  0  0  0  0
 22 23  1  0  0  0  0
M  END
> <s_m_source_file>
AV-unprocessed.smi

> <i_m_source_file_index>
2124

> <i_lp_mmshare_version>
43012

> <i_f3d_flags>
0

> <s_epik_input>
W0NIM11jMW5jKFtDSDNdKWMoYyg9TylbbkhdMSlbQ0gyXUMoPU8pW05IXVtDQEhdKFtDSDNdKVtDQEhdKFtDSDJdW0NASF0yMylbQ0BIXShbQ0gyXTMpW0NIMl1bQ0gyXTI=

> <s_epik_cmdline>
J2VwaWtfcHl0aG9uJywgJy1waCcsICc3LjAnLCAnLXRuJywgJzgnLCAnLW1hJywgJzIwMCcsICctbWV0YWxfYmluZGluZycsICctaW1hZScsICc8aW5maWxlLm1hZT4nLCAnLW9tYWUnLCAnPG91dGZpbGUubWFlPic=

> <r_lp_tautomer_probability>
0.839158

> <r_epik_Ionization_Penalty>
0.000383628

> <r_epik_Ionization_Penalty_Charging>
0.00035045

> <r_epik_Ionization_Penalty_Neutral>
3.31781e-05

> <r_epik_State_Penalty>
0.09125

> <r_epik_Charging_Adjusted_Penalty>
0.0916005

> <i_epik_Tot_Q>
0

> <i_epik_Tot_abs_Q>
0

> <r_epik_Metal_State_Penalty>
0.255229

> <b_epik_Metal_Only>
0

> <s_lp_Force_Field>
OPLS_2005

> <r_lp_Energy>
52.5512

> <b_lp_Chiralities_Consistent>
1

> <s_lp_Variant>
AV-unprocessed.smi:2124-3

> <Gold.Version>
5.8.1

> <Gold.Id.Protein>
6NUR|6NUR_protein|mol2

> <Gold.PLP.Fitness>
51.4160

> <Gold.PLP.PLP>
-46.2671

> <Gold.PLP.part.hbond>
-2.6124

> <Gold.PLP.part.metal>
0.0000

> <Gold.PLP.part.buried>
1.6492

> <Gold.PLP.part.nonpolar>
-46.7035

> <Gold.PLP.part.repulsive>
1.4192

> <Gold.PLP.ligand.clash>
0.0000

> <Gold.PLP.ligand.torsion>
0.4545

> <Gold.PLP.Chemscore.Hbond>
2.0000

> <Gold.PLP.Chemscore.CHOScore>
0.0000

> <Gold.PLP.Chemscore.Metal>
0.0000

> <Gold.Chemscore.Hbonds>
donor molecule, donor type, donor heavy atom, donor atom, acceptor molecule, acceptor atom, score
      L1  H    22    23       P1  7948  1.00
      P1  H  7989  7998       L1    21  0.50

> <Gold.PLP.Chemscore.Internal.Correction>
0.0579

> <Gold.Rescore>
     Score         DG    S(hbond)    S(metal)    S(lipo)     H(rot)  DE(clash)    DE(int)     intcor
     17.77     -20.27       1.56        0.00     118.08       1.65       0.60       1.89       ----

> <Gold.Chemscore.Fitness>
17.7740

> <Gold.Chemscore.DG>
-20.2659

> <Gold.Chemscore.ZeroCoef>
-5.4800

> <Gold.Chemscore.Hbond>
1.5577

> <Gold.Chemscore.Metal>
0.0000

> <Gold.Chemscore.Lipo>
118.0823

> <Gold.Chemscore.Internal_Hbond>
0.0000

> <Gold.Chemscore.DEClash>
0.5992

> <Gold.Chemscore.DEInternal>
1.8927

> <Gold.Chemscore.Rot>
1.6534

> <Gold.Chemscore.Internal.Correction>
   9.000000E+99

> <Gold.Chemscore.Hbonds>
donor molecule, donor type, donor heavy atom, donor atom, acceptor molecule, acceptor atom, score
      L1  H    22    23       P1  7948  0.99
      P1  H  7989  7998       L1    21  0.32

> <Gold.Chemscore.Hbond.Weighted>
-5.2029

> <Gold.Chemscore.Metal.Weighted>
-0.0000

> <Gold.Chemscore.Lipo.Weighted>
-13.8156

> <Gold.Chemscore.Internal_Hbond.Weighted>
0.0000

> <Gold.Chemscore.DEClash.Weighted>
0.5992

> <Gold.Chemscore.DEInternal.Weighted>
1.8927

> <Gold.Chemscore.Rot.Weighted>
4.2326

> <Gold.Chemscore.Internal.Correction.Weighted>
   9.000000E+99

> <Gold.Protein.RotatedTorsions>
[ 6907 6896 6895 6894 ] final  -25.46 input  -60.11 | X-H torsion
[ 7974 7965 7964 7962 ] final   22.31 input  175.53 | X-H torsion
[ 8008 7997 7996 7995 ] final -152.67 input   59.86 | X-H torsion
[ 10167 10162 10161 10158 ] final -121.14 input  -65.29 | X-H torsion
[ 10718 10713 10712 10709 ] final  -60.79 input   66.30 | X-H torsion
[ 10763 10752 10751 10750 ] final  -17.91 input  -60.55 | X-H torsion
[ 11005 11000 10999 10996 ] final   49.13 input  -57.11 | X-H torsion

> <Gold.Protein.ActiveResidues>
 VAL166  LYS551  ARG553  GLY616  TRP617  ASP618  TYR619  PRO620  LYS621  CYS622 
 ASP623  PHE694  ASN695  SER759  ASP760  ASP761  ALA762  ILE779  LEU786  VAL792 
 PHE793  MET794  SER795  GLU796  ALA797  LYS798  CYS799  TRP800  GLU811  SER814 

> <Gold.Protein.RotatedAtoms>
  151.1748  135.0334  159.8767 H   0  0  0  0  0  0  0  0  0  0  0  0  # atno 6907 bound_to 6896
  152.5447  134.1129  159.8376 H   0  0  0  0  0  0  0  0  0  0  0  0  # atno 6908 bound_to 6896
  151.1239  133.5038  159.2633 H   0  0  0  0  0  0  0  0  0  0  0  0  # atno 6909 bound_to 6896
  146.2034  139.7903  142.8744 H   0  0  0  0  0  0  0  0  0  0  0  0  # atno 7974 bound_to 7965
  155.6587  140.0720  157.2561 H   0  0  0  0  0  0  0  0  0  0  0  0  # atno 8008 bound_to 7997
  154.4147  140.1720  156.1804 H   0  0  0  0  0  0  0  0  0  0  0  0  # atno 8009 bound_to 7997
  155.9715  140.3361  155.6583 H   0  0  0  0  0  0  0  0  0  0  0  0  # atno 8010 bound_to 7997
  140.0283  143.5274  152.2188 H   0  0  0  0  0  0  0  0  0  0  0  0  # atno 10167 bound_to 10162
  156.0966  130.4192  150.0904 H   0  0  0  0  0  0  0  0  0  0  0  0  # atno 10718 bound_to 10713
  153.5811  135.7005  153.5463 H   0  0  0  0  0  0  0  0  0  0  0  0  # atno 10763 bound_to 10752
  153.3260  135.4061  155.1456 H   0  0  0  0  0  0  0  0  0  0  0  0  # atno 10764 bound_to 10752
  154.8617  135.3707  154.5339 H   0  0  0  0  0  0  0  0  0  0  0  0  # atno 10765 bound_to 10752
  140.1130  134.4930  155.8662 H   0  0  0  0  0  0  0  0  0  0  0  0  # atno 11005 bound_to 11000
  145.3405  141.0286  143.3395 LP  0  0  0  0  0  0  0  0  0  0  0  0  # atno 17320 bound_to 7965
  144.8735  139.5004  143.6756 LP  0  0  0  0  0  0  0  0  0  0  0  0  # atno 17321 bound_to 7965
  139.6093  144.7604  151.2988 LP  0  0  0  0  0  0  0  0  0  0  0  0  # atno 17342 bound_to 10162
  140.7313  143.6855  150.7965 LP  0  0  0  0  0  0  0  0  0  0  0  0  # atno 17343 bound_to 10162
  156.8901  130.9585  151.3589 LP  0  0  0  0  0  0  0  0  0  0  0  0  # atno 17370 bound_to 10713
  157.6128  130.8596  149.8979 LP  0  0  0  0  0  0  0  0  0  0  0  0  # atno 17371 bound_to 10713
  141.2134  133.6734  156.6741 LP  0  0  0  0  0  0  0  0  0  0  0  0  # atno 17394 bound_to 11000
  140.3066  134.8120  157.4142 LP  0  0  0  0  0  0  0  0  0  0  0  0  # atno 17395 bound_to 11000

$$$$
