AV-unprocessed.smi:157|AV-procd|sdf|1295|dock4
  -GOLD-   2262018583D 1   1.00000     0.00000
 Structure written by MMmdl.
 35 37  0  0  0  0  0  0  0  0  1 V2000
  147.3539  142.4048  155.5192 O   0  0  0  0  0  0  0  0  0  0  0  0
  147.6516  141.8868  154.2400 C   0  0  0  0  0  0  0  0  0  0  0  0
  149.0303  141.2091  154.2509 C   0  0  1  0  0  0  0  0  0  0  0  0
  149.7755  141.6749  155.3675 O   0  0  0  0  0  0  0  0  0  0  0  0
  150.7340  140.7163  155.6526 C   0  0  1  0  0  0  0  0  0  0  0  0
  151.2147  140.9169  157.0566 N   0  0  0  0  0  0  0  0  0  0  0  0
  151.4576  139.9363  157.9344 C   0  0  0  0  0  0  0  0  0  0  0  0
  151.8769  140.3483  159.1184 N   0  0  0  0  0  0  0  0  0  0  0  0
  151.9218  141.7358  158.9948 C   0  0  0  0  0  0  0  0  0  0  0  0
  151.5222  142.1121  157.7201 C   0  0  0  0  0  0  0  0  0  0  0  0
  151.3665  143.3061  157.0407 N   0  0  0  0  0  0  0  0  0  0  0  0
  151.9589  144.3590  157.5085 C   0  0  0  0  0  0  0  0  0  0  0  0
  152.6812  144.5348  158.6796 N   0  0  0  0  0  0  0  0  0  0  0  0
  152.2160  144.0832  159.9797 C   0  0  0  0  0  0  0  0  0  0  0  0
  152.3310  142.5670  160.1766 C   0  0  2  0  0  0  0  0  0  0  0  0
  153.6729  142.2363  160.4707 O   0  0  0  0  0  0  0  0  0  0  0  0
  150.0487  139.3639  155.4737 C   0  0  0  0  0  0  0  0  0  0  0  0
  148.9614  139.6813  154.4522 C   0  0  2  0  0  0  0  0  0  0  0  0
  149.2094  139.0019  153.2377 O   0  0  0  0  0  0  0  0  0  0  0  0
  149.5881  141.4404  153.3405 H   0  0  0  0  0  0  0  0  0  0  0  0
  151.6072  140.8460  155.0106 H   0  0  0  0  0  0  0  0  0  0  0  0
  151.7389  142.2866  161.0484 H   0  0  0  0  0  0  0  0  0  0  0  0
  147.9913  139.3730  154.8444 H   0  0  0  0  0  0  0  0  0  0  0  0
  147.9423  143.1224  155.6972 H   0  0  0  0  0  0  0  0  0  0  0  0
  146.8731  141.1940  153.9182 H   0  0  0  0  0  0  0  0  0  0  0  0
  147.6511  142.7242  153.5418 H   0  0  0  0  0  0  0  0  0  0  0  0
  151.3170  138.8912  157.7007 H   0  0  0  0  0  0  0  0  0  0  0  0
  151.9048  145.2827  156.9305 H   0  0  0  0  0  0  0  0  0  0  0  0
  153.2702  145.3506  158.7639 H   0  0  0  0  0  0  0  0  0  0  0  0
  152.7449  144.6181  160.7692 H   0  0  0  0  0  0  0  0  0  0  0  0
  151.1671  144.3705  160.0670 H   0  0  0  0  0  0  0  0  0  0  0  0
  153.6726  141.5513  161.1220 H   0  0  0  0  0  0  0  0  0  0  0  0
  150.7698  138.6112  155.1524 H   0  0  0  0  0  0  0  0  0  0  0  0
  149.5999  139.0360  156.4115 H   0  0  0  0  0  0  0  0  0  0  0  0
  149.6501  139.5937  152.6473 H   0  0  0  0  0  0  0  0  0  0  0  0
  1  2  1  0  0  0  0
  1 24  1  0  0  0  0
  2  3  1  0  0  0  0
  2 25  1  0  0  0  0
  2 26  1  0  0  0  0
  3 20  1  0  0  0  0
  3 18  1  0  0  0  0
  3  4  1  0  0  0  0
  4  5  1  0  0  0  0
  5 21  1  0  0  0  0
  5  6  1  0  0  0  0
  5 17  1  0  0  0  0
  6 10  1  0  0  0  0
  6  7  1  0  0  0  0
  7  8  2  0  0  0  0
  7 27  1  0  0  0  0
  8  9  1  0  0  0  0
  9 15  1  0  0  0  0
  9 10  2  0  0  0  0
 10 11  1  0  0  0  0
 11 12  2  0  0  0  0
 12 13  1  0  0  0  0
 12 28  1  0  0  0  0
 13 14  1  0  0  0  0
 13 29  1  0  0  0  0
 14 15  1  0  0  0  0
 14 30  1  0  0  0  0
 14 31  1  0  0  0  0
 15 22  1  0  0  0  0
 15 16  1  0  0  0  0
 16 32  1  0  0  0  0
 17 18  1  0  0  0  0
 17 33  1  0  0  0  0
 17 34  1  0  0  0  0
 18 23  1  0  0  0  0
 18 19  1  0  0  0  0
 19 35  1  0  0  0  0
M  END
> <s_m_source_file>
AV-unprocessed.smi

> <i_m_source_file_index>
157

> <i_lp_mmshare_version>
43012

> <i_f3d_flags>
0

> <s_epik_input>
W09IXVtDSDJdW0NASF0xT1tDQEhdKFtDSDJdW0NAQEhdMVtPSF0pbihbY0hdbjIpYyhjMjMpTj1bQ0hdW05IXVtDSDJdW0NASF0zW09IXQ==

> <s_epik_cmdline>
J2VwaWtfcHl0aG9uJywgJy1waCcsICc3LjAnLCAnLXRuJywgJzgnLCAnLW1hJywgJzIwMCcsICctbWV0YWxfYmluZGluZycsICctaW1hZScsICc8aW5maWxlLm1hZT4nLCAnLW9tYWUnLCAnPG91dGZpbGUubWFlPic=

> <r_lp_tautomer_probability>
1

> <r_epik_Ionization_Penalty>
0.0357149

> <r_epik_Ionization_Penalty_Charging>
0.0355056

> <r_epik_Ionization_Penalty_Neutral>
0.000209255

> <r_epik_State_Penalty>
0.0296046

> <r_epik_Charging_Adjusted_Penalty>
0.0651102

> <i_epik_Tot_Q>
0

> <i_epik_Tot_abs_Q>
0

> <r_epik_Metal_State_Penalty>
3.03559e-05

> <b_epik_Metal_Only>
0

> <s_epik_Chemistry_Notes>
This compound has an imine and may undergo hydrolysis. This compound contains an acetal/aminal-like group ( X-CH(R)-Y where X, Y are N, S, or O) that may be acid/base labile, releasing an aldehyde.

> <s_lp_Force_Field>
OPLS_2005

> <r_lp_Energy>
44.773

> <b_lp_Chiralities_Consistent>
1

> <s_lp_Variant>
AV-unprocessed.smi:157-5

> <Gold.Version>
5.8.1

> <Gold.Id.Protein>
6NUR|6NUR_protein|mol2

> <Gold.PLP.Fitness>
41.9022

> <Gold.PLP.PLP>
-38.5667

> <Gold.PLP.part.hbond>
-2.2697

> <Gold.PLP.part.metal>
0.0000

> <Gold.PLP.part.buried>
-6.1306

> <Gold.PLP.part.nonpolar>
-29.6908

> <Gold.PLP.part.repulsive>
0.4627

> <Gold.PLP.ligand.clash>
0.0000

> <Gold.PLP.ligand.torsion>
1.0879

> <Gold.PLP.Chemscore.Hbond>
1.8320

> <Gold.PLP.Chemscore.CHOScore>
0.0000

> <Gold.PLP.Chemscore.Metal>
0.0000

> <Gold.Chemscore.Hbonds>
donor molecule, donor type, donor heavy atom, donor atom, acceptor molecule, acceptor atom, score
      L1  H     1    24       P1  8028  1.00
      L1  H    19    35       P1  7957  0.80

> <Gold.PLP.Chemscore.Internal.Correction>
0.0153

> <Gold.Rescore>
     Score         DG    S(hbond)    S(metal)    S(lipo)     H(rot)  DE(clash)    DE(int)     intcor
      5.82      -8.51       1.68        0.00      57.60       3.64       0.33       2.35       ----

> <Gold.Chemscore.Fitness>
5.8205

> <Gold.Chemscore.DG>
-8.5059

> <Gold.Chemscore.ZeroCoef>
-5.4800

> <Gold.Chemscore.Hbond>
1.6754

> <Gold.Chemscore.Metal>
0.0000

> <Gold.Chemscore.Lipo>
57.5953

> <Gold.Chemscore.Internal_Hbond>
0.0000

> <Gold.Chemscore.DEClash>
0.3329

> <Gold.Chemscore.DEInternal>
2.3526

> <Gold.Chemscore.Rot>
3.6362

> <Gold.Chemscore.Internal.Correction>
   9.000000E+99

> <Gold.Chemscore.Hbonds>
donor molecule, donor type, donor heavy atom, donor atom, acceptor molecule, acceptor atom, score
      L1  H     1    24       P1  8028  0.60
      L1  H    19    35       P1  7957  0.76

> <Gold.Chemscore.Hbond.Weighted>
-5.5960

> <Gold.Chemscore.Metal.Weighted>
-0.0000

> <Gold.Chemscore.Lipo.Weighted>
-6.7387

> <Gold.Chemscore.Internal_Hbond.Weighted>
0.0000

> <Gold.Chemscore.DEClash.Weighted>
0.3329

> <Gold.Chemscore.DEInternal.Weighted>
2.3526

> <Gold.Chemscore.Rot.Weighted>
9.3087

> <Gold.Chemscore.Internal.Correction.Weighted>
   9.000000E+99

> <Gold.Protein.RotatedTorsions>
[ 6907 6896 6895 6894 ] final  165.97 input  -60.11 | X-H torsion
[ 7974 7965 7964 7962 ] final -147.60 input  175.53 | X-H torsion
[ 8008 7997 7996 7995 ] final   -4.42 input   59.86 | X-H torsion
[ 10167 10162 10161 10158 ] final   15.83 input  -65.29 | X-H torsion
[ 10718 10713 10712 10709 ] final  -76.35 input   66.30 | X-H torsion
[ 10763 10752 10751 10750 ] final  115.43 input  -60.55 | X-H torsion
[ 11005 11000 10999 10996 ] final   28.44 input  -57.11 | X-H torsion

> <Gold.Protein.ActiveResidues>
 VAL166  LYS551  ARG553  GLY616  TRP617  ASP618  TYR619  PRO620  LYS621  CYS622 
 ASP623  PHE694  ASN695  SER759  ASP760  ASP761  ALA762  ILE779  LEU786  VAL792 
 PHE793  MET794  SER795  GLU796  ALA797  LYS798  CYS799  TRP800  GLU811  SER814 

> <Gold.Protein.RotatedAtoms>
  151.8862  133.3506  159.3782 H   0  0  0  0  0  0  0  0  0  0  0  0  # atno 6907 bound_to 6896
  150.7115  134.4969  159.5552 H   0  0  0  0  0  0  0  0  0  0  0  0  # atno 6908 bound_to 6896
  152.2531  134.8113  160.0494 H   0  0  0  0  0  0  0  0  0  0  0  0  # atno 6909 bound_to 6896
  144.8083  140.5306  143.5660 H   0  0  0  0  0  0  0  0  0  0  0  0  # atno 7974 bound_to 7965
  154.6145  140.2484  155.7626 H   0  0  0  0  0  0  0  0  0  0  0  0  # atno 8008 bound_to 7997
  156.2391  140.2939  156.0343 H   0  0  0  0  0  0  0  0  0  0  0  0  # atno 8009 bound_to 7997
  155.1997  140.0394  157.2905 H   0  0  0  0  0  0  0  0  0  0  0  0  # atno 8010 bound_to 7997
  140.5840  143.8926  150.6814 H   0  0  0  0  0  0  0  0  0  0  0  0  # atno 10167 bound_to 10162
  156.0178  130.4463  150.3181 H   0  0  0  0  0  0  0  0  0  0  0  0  # atno 10718 bound_to 10713
  153.5220  135.3596  155.2636 H   0  0  0  0  0  0  0  0  0  0  0  0  # atno 10763 bound_to 10752
  154.8734  135.4048  154.3248 H   0  0  0  0  0  0  0  0  0  0  0  0  # atno 10764 bound_to 10752
  153.3921  135.7072  153.6554 H   0  0  0  0  0  0  0  0  0  0  0  0  # atno 10765 bound_to 10752
  140.3156  134.2601  155.7726 H   0  0  0  0  0  0  0  0  0  0  0  0  # atno 11005 bound_to 11000
  145.5385  139.1475  143.3460 LP  0  0  0  0  0  0  0  0  0  0  0  0  # atno 17320 bound_to 7965
  146.2378  140.5525  142.8947 LP  0  0  0  0  0  0  0  0  0  0  0  0  # atno 17321 bound_to 7965
  140.2432  143.3648  152.1469 LP  0  0  0  0  0  0  0  0  0  0  0  0  # atno 17342 bound_to 10162
  139.5186  144.7009  151.5497 LP  0  0  0  0  0  0  0  0  0  0  0  0  # atno 17343 bound_to 10162
  157.1281  131.0264  151.2981 LP  0  0  0  0  0  0  0  0  0  0  0  0  # atno 17370 bound_to 10713
  157.4573  130.7633  149.7204 LP  0  0  0  0  0  0  0  0  0  0  0  0  # atno 17371 bound_to 10713
  141.2098  133.7737  156.9971 LP  0  0  0  0  0  0  0  0  0  0  0  0  # atno 17394 bound_to 11000
  140.0987  134.9549  157.1889 LP  0  0  0  0  0  0  0  0  0  0  0  0  # atno 17395 bound_to 11000

$$$$
