AV-unprocessed.smi:655|AV-procd|sdf|3217|dock2
  -GOLD-   22720 0153D 1   1.00000     0.00000
 Structure written by MMmdl.
 34 35  0  0  0  0  0  0  0  0  2 V2000
  151.0295  141.3715  157.5398 C   0  0  0  0  0  0  0  0  0  0  0  0
  151.4113  140.2874  156.5218 C   0  0  2  0  0  0  0  0  0  0  0  0
  150.4043  140.2275  155.3594 C   0  0  0  0  0  0  0  0  0  0  0  0
  150.7717  139.1358  154.3369 C   0  0  0  0  0  0  0  0  0  0  0  0
  150.9202  137.7362  154.9825 C   0  0  2  0  0  0  0  0  0  0  0  0
  151.5495  136.8918  154.0372 O   0  0  0  0  0  0  0  0  0  0  0  0
  149.5837  137.0528  155.4036 C   0  0  0  0  0  0  0  0  0  0  0  0
  149.7136  135.6468  155.8374 N   0  0  0  0  0  0  0  0  0  0  0  0
  149.5663  134.6567  154.8489 C   0  0  0  0  0  0  0  0  0  0  0  0
  149.6679  133.3423  155.1241 C   0  0  0  0  0  0  0  0  0  0  0  0
  149.4759  132.1543  153.8844 Cl  0  0  0  0  0  0  0  0  0  0  0  0
  149.9488  132.9518  156.5032 C   0  0  0  0  0  0  0  0  0  0  0  0
  150.0308  131.7594  156.7946 O   0  0  0  0  0  0  0  0  0  0  0  0
  150.1134  133.9478  157.4213 N   0  5  0  0  0  0  0  0  0  0  0  0
  150.0189  135.2794  157.1191 C   0  0  0  0  0  0  0  0  0  0  0  0
  150.2007  136.1521  157.9665 O   0  0  0  0  0  0  0  0  0  0  0  0
  151.9088  137.8180  156.1704 C   0  0  0  0  0  0  0  0  0  0  0  0
  151.5342  138.9068  157.1908 C   0  0  0  0  0  0  0  0  0  0  0  0
  150.0555  141.1696  157.9869 H   0  0  0  0  0  0  0  0  0  0  0  0
  150.9821  142.3536  157.0688 H   0  0  0  0  0  0  0  0  0  0  0  0
  151.7607  141.4277  158.3465 H   0  0  0  0  0  0  0  0  0  0  0  0
  152.3865  140.5512  156.1101 H   0  0  0  0  0  0  0  0  0  0  0  0
  149.4076  140.0484  155.7583 H   0  0  0  0  0  0  0  0  0  0  0  0
  150.3602  141.1935  154.8557 H   0  0  0  0  0  0  0  0  0  0  0  0
  150.0437  139.1192  153.5259 H   0  0  0  0  0  0  0  0  0  0  0  0
  151.7180  139.4175  153.8721 H   0  0  0  0  0  0  0  0  0  0  0  0
  151.0169  136.8729  153.2567 H   0  0  0  0  0  0  0  0  0  0  0  0
  149.1249  137.6245  156.2121 H   0  0  0  0  0  0  0  0  0  0  0  0
  148.8616  137.1244  154.5902 H   0  0  0  0  0  0  0  0  0  0  0  0
  149.3676  135.0308  153.8551 H   0  0  0  0  0  0  0  0  0  0  0  0
  151.9811  136.8517  156.6714 H   0  0  0  0  0  0  0  0  0  0  0  0
  152.9110  138.0363  155.7971 H   0  0  0  0  0  0  0  0  0  0  0  0
  152.2916  138.9421  157.9746 H   0  0  0  0  0  0  0  0  0  0  0  0
  150.5982  138.6486  157.6865 H   0  0  0  0  0  0  0  0  0  0  0  0
  1  2  1  0  0  0  0
  1 19  1  0  0  0  0
  1 20  1  0  0  0  0
  1 21  1  0  0  0  0
  2 18  1  0  0  0  0
  2  3  1  0  0  0  0
  2 22  1  0  0  0  0
  3  4  1  0  0  0  0
  3 23  1  0  0  0  0
  3 24  1  0  0  0  0
  4  5  1  0  0  0  0
  4 25  1  0  0  0  0
  4 26  1  0  0  0  0
  5  6  1  0  0  0  0
  5  7  1  0  0  0  0
  5 17  1  0  0  0  0
  6 27  1  0  0  0  0
  7  8  1  0  0  0  0
  7 28  1  0  0  0  0
  7 29  1  0  0  0  0
  8 15  1  0  0  0  0
  8  9  1  0  0  0  0
  9 10  2  0  0  0  0
  9 30  1  0  0  0  0
 10 11  1  0  0  0  0
 10 12  1  0  0  0  0
 12 13  2  0  0  0  0
 12 14  1  0  0  0  0
 14 15  1  0  0  0  0
 15 16  2  0  0  0  0
 17 18  1  0  0  0  0
 17 31  1  0  0  0  0
 17 32  1  0  0  0  0
 18 33  1  0  0  0  0
 18 34  1  0  0  0  0
M  CHG  1  14  -1
M  END
> <s_m_source_file>
AV-unprocessed.smi

> <i_m_source_file_index>
655

> <i_lp_mmshare_version>
43012

> <i_f3d_flags>
0

> <s_epik_input>
W0NIMl0xW0NIMl1bQ0BIXShbQ0gzXSlbQ0gyXVtDSDJdW0NAQF0xKFtPSF0pW0NIMl1uMltjSF1jKENsKWMoPU8pW25IXWMyPU8=

> <s_epik_cmdline>
J2VwaWtfcHl0aG9uJywgJy1waCcsICc3LjAnLCAnLXRuJywgJzgnLCAnLW1hJywgJzIwMCcsICctbWV0YWxfYmluZGluZycsICctaW1hZScsICc8aW5maWxlLm1hZT4nLCAnLW9tYWUnLCAnPG91dGZpbGUubWFlPic=

> <r_epik_Ionization_Penalty>
2.34257

> <r_epik_Ionization_Penalty_Charging>
1.00552e-07

> <r_epik_Ionization_Penalty_Neutral>
2.34257

> <r_epik_State_Penalty>
2.4963

> <r_epik_Charging_Adjusted_Penalty>
2.4963

> <i_epik_Tot_Q>
-1

> <i_epik_Tot_abs_Q>
1

> <r_epik_Metal_State_Penalty>
0.0381881

> <b_epik_Metal_Only>
0

> <s_lp_Force_Field>
OPLS_2005

> <r_lp_Energy>
26.7084

> <b_lp_Chiralities_Consistent>
1

> <s_lp_Variant>
AV-unprocessed.smi:655-4

> <Gold.Version>
5.8.1

> <Gold.Id.Protein>
6NUR|6NUR_protein|mol2

> <Gold.PLP.Fitness>
40.7528

> <Gold.PLP.PLP>
-27.3191

> <Gold.PLP.part.hbond>
-3.4659

> <Gold.PLP.part.metal>
0.0000

> <Gold.PLP.part.buried>
-2.9377

> <Gold.PLP.part.nonpolar>
-21.2844

> <Gold.PLP.part.repulsive>
0.0000

> <Gold.PLP.ligand.clash>
0.0000

> <Gold.PLP.ligand.torsion>
0.4040

> <Gold.PLP.Chemscore.Hbond>
3.7200

> <Gold.PLP.Chemscore.CHOScore>
1.0000

> <Gold.PLP.Chemscore.Metal>
0.0000

> <Gold.Chemscore.Hbonds>
donor molecule, donor type, donor heavy atom, donor atom, acceptor molecule, acceptor atom, score
      L1  H     6    27       P1  7949  0.69
      P1  H  6896  6907       L1    14  1.86
      P1  H 10752 10763       L1     6  1.00
      L1  C     9    30       P1  7948  0.91

> <Gold.PLP.Chemscore.Internal.Correction>
0.0817

> <Gold.Rescore>
     Score         DG    S(hbond)    S(metal)    S(lipo)     H(rot)  DE(clash)    DE(int)     intcor
     14.17     -15.61       2.20        0.00      63.28       1.81       0.15       1.28       ----

> <Gold.Chemscore.Fitness>
14.1714

> <Gold.Chemscore.DG>
-15.6087

> <Gold.Chemscore.ZeroCoef>
-5.4800

> <Gold.Chemscore.Hbond>
2.2027

> <Gold.Chemscore.Metal>
0.0000

> <Gold.Chemscore.Lipo>
63.2763

> <Gold.Chemscore.Internal_Hbond>
0.0000

> <Gold.Chemscore.DEClash>
0.1526

> <Gold.Chemscore.DEInternal>
1.2847

> <Gold.Chemscore.Rot>
1.8092

> <Gold.Chemscore.Internal.Correction>
   9.000000E+99

> <Gold.Chemscore.Hbonds>
donor molecule, donor type, donor heavy atom, donor atom, acceptor molecule, acceptor atom, score
      L1  H     6    27       P1  7949  0.20
      P1  H  6896  6907       L1    14  0.45
      P1  H 10752 10763       L1     6  0.94

> <Gold.Chemscore.Hbond.Weighted>
-7.3569

> <Gold.Chemscore.Metal.Weighted>
-0.0000

> <Gold.Chemscore.Lipo.Weighted>
-7.4033

> <Gold.Chemscore.Internal_Hbond.Weighted>
0.0000

> <Gold.Chemscore.DEClash.Weighted>
0.1526

> <Gold.Chemscore.DEInternal.Weighted>
1.2847

> <Gold.Chemscore.Rot.Weighted>
4.6316

> <Gold.Chemscore.Internal.Correction.Weighted>
   9.000000E+99

> <Gold.Protein.RotatedTorsions>
[ 6907 6896 6895 6894 ] final -114.07 input  -60.11 | X-H torsion
[ 7974 7965 7964 7962 ] final -172.50 input  175.53 | X-H torsion
[ 8008 7997 7996 7995 ] final   58.55 input   59.86 | X-H torsion
[ 10167 10162 10161 10158 ] final   36.27 input  -65.29 | X-H torsion
[ 10718 10713 10712 10709 ] final   10.40 input   66.30 | X-H torsion
[ 10763 10752 10751 10750 ] final   32.99 input  -60.55 | X-H torsion
[ 11005 11000 10999 10996 ] final  116.35 input  -57.11 | X-H torsion

> <Gold.Protein.ActiveResidues>
 VAL166  LYS551  ARG553  GLY616  TRP617  ASP618  TYR619  PRO620  LYS621  CYS622 
 ASP623  PHE694  ASN695  SER759  ASP760  ASP761  ALA762  ILE779  LEU786  VAL792 
 PHE793  MET794  SER795  GLU796  ALA797  LYS798  CYS799  TRP800  GLU811  SER814 

> <Gold.Protein.RotatedAtoms>
  150.7875  133.8854  159.3297 H   0  0  0  0  0  0  0  0  0  0  0  0  # atno 6907 bound_to 6896
  151.6700  135.0975  160.0205 H   0  0  0  0  0  0  0  0  0  0  0  0  # atno 6908 bound_to 6896
  152.3942  133.6684  159.6298 H   0  0  0  0  0  0  0  0  0  0  0  0  # atno 6909 bound_to 6896
  144.7146  140.1763  143.6362 H   0  0  0  0  0  0  0  0  0  0  0  0  # atno 7974 bound_to 7965
  155.5518  140.3486  155.4470 H   0  0  0  0  0  0  0  0  0  0  0  0  # atno 8008 bound_to 7997
  156.0578  140.1333  157.0003 H   0  0  0  0  0  0  0  0  0  0  0  0  # atno 8009 bound_to 7997
  154.4464  140.0991  156.6456 H   0  0  0  0  0  0  0  0  0  0  0  0  # atno 8010 bound_to 7997
  140.4143  144.1548  150.6142 H   0  0  0  0  0  0  0  0  0  0  0  0  # atno 10167 bound_to 10162
  156.9805  130.6004  149.5676 H   0  0  0  0  0  0  0  0  0  0  0  0  # atno 10718 bound_to 10713
  153.0234  135.6399  154.1441 H   0  0  0  0  0  0  0  0  0  0  0  0  # atno 10763 bound_to 10752
  154.1172  135.2849  155.3218 H   0  0  0  0  0  0  0  0  0  0  0  0  # atno 10764 bound_to 10752
  154.6289  135.5499  153.7720 H   0  0  0  0  0  0  0  0  0  0  0  0  # atno 10765 bound_to 10752
  139.9038  134.9597  156.7185 H   0  0  0  0  0  0  0  0  0  0  0  0  # atno 11005 bound_to 11000
  145.8897  139.2369  143.1556 LP  0  0  0  0  0  0  0  0  0  0  0  0  # atno 17320 bound_to 7965
  145.9915  140.8598  143.0064 LP  0  0  0  0  0  0  0  0  0  0  0  0  # atno 17321 bound_to 7965
  140.4603  143.2451  151.9229 LP  0  0  0  0  0  0  0  0  0  0  0  0  # atno 17342 bound_to 10162
  139.4782  144.5474  151.8438 LP  0  0  0  0  0  0  0  0  0  0  0  0  # atno 17343 bound_to 10162
  156.0246  130.5340  150.8372 LP  0  0  0  0  0  0  0  0  0  0  0  0  # atno 17370 bound_to 10713
  157.5530  131.0944  150.9669 LP  0  0  0  0  0  0  0  0  0  0  0  0  # atno 17371 bound_to 10713
  140.7019  133.9298  155.8030 LP  0  0  0  0  0  0  0  0  0  0  0  0  # atno 17394 bound_to 11000
  141.0365  134.0682  157.3953 LP  0  0  0  0  0  0  0  0  0  0  0  0  # atno 17395 bound_to 11000

$$$$
