AV-unprocessed.smi:2224|AV-procd|sdf|8992|dock3
  -GOLD-   2272012203D 1   1.00000     0.00000
 Structure written by MMmdl.
 44 46  0  0  0  0  0  0  0  0  1 V2000
  144.7794  132.5652  149.7759 C   0  0  0  0  0  0  0  0  0  0  0  0
  144.5111  133.5407  150.9027 C   0  0  0  0  0  0  0  0  0  0  0  0
  143.2332  133.6376  151.4856 C   0  0  0  0  0  0  0  0  0  0  0  0
  143.0478  134.5641  152.5303 C   0  0  0  0  0  0  0  0  0  0  0  0
  141.6989  134.7221  153.2002 C   0  0  0  0  0  0  0  0  0  0  0  0
  144.0355  135.3599  152.9933 N   0  0  0  0  0  0  0  0  0  0  0  0
  145.2708  135.2751  152.4400 C   0  0  0  0  0  0  0  0  0  0  0  0
  146.3750  136.0673  152.8529 N   0  0  0  0  0  0  0  0  0  0  0  0
  146.4115  137.0016  153.8194 C   0  0  0  0  0  0  0  0  0  0  0  0
  145.4653  137.3204  154.5402 O   0  0  0  0  0  0  0  0  0  0  0  0
  147.6246  137.5648  153.9058 N   0  0  0  0  0  0  0  0  0  0  0  0
  147.9812  138.6240  154.8561 C   0  0  1  0  0  0  0  0  0  0  0  0
  149.4440  138.5505  155.3025 C   0  0  1  0  0  0  0  0  0  0  0  0
  150.5144  137.5201  155.2809 C   0  0  0  0  0  0  0  0  0  0  0  0
  151.6767  138.4573  154.8530 C   0  0  0  0  0  0  0  0  0  0  0  0
  151.0585  139.7151  154.4775 O   0  0  0  0  0  0  0  0  0  0  0  0
  149.7625  139.3434  154.0521 C   0  0  2  0  0  0  0  0  0  0  0  0
  148.3791  140.0124  154.2133 C   0  0  0  0  0  0  0  0  0  0  0  0
  147.6848  140.4055  152.9045 C   0  0  0  0  0  0  0  0  0  0  0  0
  148.3014  141.2556  155.1178 C   0  0  0  0  0  0  0  0  0  0  0  0
  145.5418  134.3708  151.3884 C   0  0  0  0  0  0  0  0  0  0  0  0
  143.8658  132.0577  149.4648 H   0  0  0  0  0  0  0  0  0  0  0  0
  145.4981  131.8097  150.0941 H   0  0  0  0  0  0  0  0  0  0  0  0
  145.1892  133.0885  148.9118 H   0  0  0  0  0  0  0  0  0  0  0  0
  142.4172  133.0188  151.1416 H   0  0  0  0  0  0  0  0  0  0  0  0
  141.0167  133.9237  152.9067 H   0  0  0  0  0  0  0  0  0  0  0  0
  141.2493  135.6755  152.9217 H   0  0  0  0  0  0  0  0  0  0  0  0
  141.8048  134.6952  154.2852 H   0  0  0  0  0  0  0  0  0  0  0  0
  147.2336  135.9117  152.3460 H   0  0  0  0  0  0  0  0  0  0  0  0
  148.3492  137.2468  153.2793 H   0  0  0  0  0  0  0  0  0  0  0  0
  147.2885  138.7178  155.6943 H   0  0  0  0  0  0  0  0  0  0  0  0
  149.5519  139.1411  156.2156 H   0  0  0  0  0  0  0  0  0  0  0  0
  150.6818  137.0602  156.2552 H   0  0  0  0  0  0  0  0  0  0  0  0
  150.3239  136.7402  154.5425 H   0  0  0  0  0  0  0  0  0  0  0  0
  152.3838  138.6273  155.6654 H   0  0  0  0  0  0  0  0  0  0  0  0
  152.2253  138.0359  154.0097 H   0  0  0  0  0  0  0  0  0  0  0  0
  149.8212  138.7374  153.1420 H   0  0  0  0  0  0  0  0  0  0  0  0
  148.0996  141.3252  152.4911 H   0  0  0  0  0  0  0  0  0  0  0  0
  146.6161  140.5630  153.0524 H   0  0  0  0  0  0  0  0  0  0  0  0
  147.7950  139.6397  152.1365 H   0  0  0  0  0  0  0  0  0  0  0  0
  148.8966  142.0746  154.7132 H   0  0  0  0  0  0  0  0  0  0  0  0
  148.6567  141.0797  156.1316 H   0  0  0  0  0  0  0  0  0  0  0  0
  147.2757  141.6146  155.2098 H   0  0  0  0  0  0  0  0  0  0  0  0
  146.5302  134.3127  150.9556 H   0  0  0  0  0  0  0  0  0  0  0  0
  1  2  1  0  0  0  0
  1 22  1  0  0  0  0
  1 23  1  0  0  0  0
  1 24  1  0  0  0  0
  2 21  1  0  0  0  0
  2  3  2  0  0  0  0
  3  4  1  0  0  0  0
  3 25  1  0  0  0  0
  4  5  1  0  0  0  0
  4  6  2  0  0  0  0
  5 26  1  0  0  0  0
  5 27  1  0  0  0  0
  5 28  1  0  0  0  0
  6  7  1  0  0  0  0
  7  8  1  0  0  0  0
  7 21  2  0  0  0  0
  8  9  1  0  0  0  0
  8 29  1  0  0  0  0
  9 10  2  0  0  0  0
  9 11  1  0  0  0  0
 11 12  1  0  0  0  0
 11 30  1  0  0  0  0
 12 18  1  0  0  0  0
 12 13  1  0  0  0  0
 12 31  1  0  0  0  0
 13 17  1  0  0  0  0
 13 14  1  0  0  0  0
 13 32  1  0  0  0  0
 14 15  1  0  0  0  0
 14 33  1  0  0  0  0
 14 34  1  0  0  0  0
 15 16  1  0  0  0  0
 15 35  1  0  0  0  0
 15 36  1  0  0  0  0
 16 17  1  0  0  0  0
 17 18  1  0  0  0  0
 17 37  1  0  0  0  0
 18 19  1  0  0  0  0
 18 20  1  0  0  0  0
 19 38  1  0  0  0  0
 19 39  1  0  0  0  0
 19 40  1  0  0  0  0
 20 41  1  0  0  0  0
 20 42  1  0  0  0  0
 20 43  1  0  0  0  0
 21 44  1  0  0  0  0
M  END
> <s_m_source_file>
AV-unprocessed.smi

> <i_m_source_file_index>
2224

> <i_lp_mmshare_version>
43012

> <i_f3d_flags>
0

> <s_epik_input>
W0NIM11jMVtjSF1jKFtDSDNdKW5jKFtjSF0xKVtOSF1DKD1PKVtOSF1bQ0BIXTJDKFtDSDNdKShbQ0gzXSlbQ0BIXShbQ0BASF0yMylPW0NIMl1bQ0gyXTM=

> <s_epik_cmdline>
J2VwaWtfcHl0aG9uJywgJy1waCcsICc3LjAnLCAnLXRuJywgJzgnLCAnLW1hJywgJzIwMCcsICctbWV0YWxfYmluZGluZycsICctaW1hZScsICc8aW5maWxlLm1hZT4nLCAnLW9tYWUnLCAnPG91dGZpbGUubWFlPic=

> <r_lp_tautomer_probability>
1

> <r_epik_Ionization_Penalty>
0.000276544

> <r_epik_Ionization_Penalty_Charging>
0

> <r_epik_Ionization_Penalty_Neutral>
0.000276544

> <r_epik_State_Penalty>
-0

> <r_epik_Charging_Adjusted_Penalty>
0

> <i_epik_Tot_Q>
0

> <i_epik_Tot_abs_Q>
0

> <r_epik_Metal_State_Penalty>
-0

> <b_epik_Metal_Only>
0

> <s_lp_Force_Field>
OPLS_2005

> <r_lp_Energy>
64.3875

> <b_lp_Chiralities_Consistent>
1

> <s_lp_Variant>
AV-unprocessed.smi:2224-2

> <Gold.Version>
5.8.1

> <Gold.Id.Protein>
6NUR|6NUR_protein|mol2

> <Gold.PLP.Fitness>
40.6624

> <Gold.PLP.PLP>
-31.7895

> <Gold.PLP.part.hbond>
-3.0000

> <Gold.PLP.part.metal>
0.0000

> <Gold.PLP.part.buried>
0.8035

> <Gold.PLP.part.nonpolar>
-29.3268

> <Gold.PLP.part.repulsive>
0.2644

> <Gold.PLP.ligand.clash>
0.0000

> <Gold.PLP.ligand.torsion>
0.1930

> <Gold.PLP.Chemscore.Hbond>
3.0000

> <Gold.PLP.Chemscore.CHOScore>
0.0000

> <Gold.PLP.Chemscore.Metal>
0.0000

> <Gold.Chemscore.Hbonds>
donor molecule, donor type, donor heavy atom, donor atom, acceptor molecule, acceptor atom, score
      L1  H     8    29       P1  7948  1.00
      L1  H    11    30       P1  7948  1.00
      P1  H  7989  7998       L1    16  1.00

> <Gold.PLP.Chemscore.Internal.Correction>
0.2588

> <Gold.Rescore>
     Score         DG    S(hbond)    S(metal)    S(lipo)     H(rot)  DE(clash)    DE(int)     intcor
     18.95     -22.11       2.71        0.00      86.64       1.00       1.72       1.44       ----

> <Gold.Chemscore.Fitness>
18.9500

> <Gold.Chemscore.DG>
-22.1103

> <Gold.Chemscore.ZeroCoef>
-5.4800

> <Gold.Chemscore.Hbond>
2.7105

> <Gold.Chemscore.Metal>
0.0000

> <Gold.Chemscore.Lipo>
86.6430

> <Gold.Chemscore.Internal_Hbond>
0.0000

> <Gold.Chemscore.DEClash>
1.7160

> <Gold.Chemscore.DEInternal>
1.4443

> <Gold.Chemscore.Rot>
1.0000

> <Gold.Chemscore.Internal.Correction>
   9.000000E+99

> <Gold.Chemscore.Hbonds>
donor molecule, donor type, donor heavy atom, donor atom, acceptor molecule, acceptor atom, score
      L1  H     8    29       P1  7948  0.99
      L1  H    11    30       P1  7948  0.97
      P1  H  7989  7998       L1    16  0.69

> <Gold.Chemscore.Hbond.Weighted>
-9.0530

> <Gold.Chemscore.Metal.Weighted>
-0.0000

> <Gold.Chemscore.Lipo.Weighted>
-10.1372

> <Gold.Chemscore.Internal_Hbond.Weighted>
0.0000

> <Gold.Chemscore.DEClash.Weighted>
1.7160

> <Gold.Chemscore.DEInternal.Weighted>
1.4443

> <Gold.Chemscore.Rot.Weighted>
2.5600

> <Gold.Chemscore.Internal.Correction.Weighted>
   9.000000E+99

> <Gold.Protein.RotatedTorsions>
[ 6907 6896 6895 6894 ] final  147.98 input  -60.11 | X-H torsion
[ 7974 7965 7964 7962 ] final -141.81 input  175.53 | X-H torsion
[ 8008 7997 7996 7995 ] final -145.85 input   59.86 | X-H torsion
[ 10167 10162 10161 10158 ] final  -70.42 input  -65.29 | X-H torsion
[ 10718 10713 10712 10709 ] final  175.04 input   66.30 | X-H torsion
[ 10763 10752 10751 10750 ] final  102.29 input  -60.55 | X-H torsion
[ 11005 11000 10999 10996 ] final  178.71 input  -57.11 | X-H torsion

> <Gold.Protein.ActiveResidues>
 VAL166  LYS551  ARG553  GLY616  TRP617  ASP618  TYR619  PRO620  LYS621  CYS622 
 ASP623  PHE694  ASN695  SER759  ASP760  ASP761  ALA762  ILE779  LEU786  VAL792 
 PHE793  MET794  SER795  GLU796  ALA797  LYS798  CYS799  TRP800  GLU811  SER814 

> <Gold.Protein.RotatedAtoms>
  152.1476  133.4502  159.4797 H   0  0  0  0  0  0  0  0  0  0  0  0  # atno 6907 bound_to 6896
  150.6892  134.2229  159.4413 H   0  0  0  0  0  0  0  0  0  0  0  0  # atno 6908 bound_to 6896
  152.0124  134.9868  160.0619 H   0  0  0  0  0  0  0  0  0  0  0  0  # atno 6909 bound_to 6896
  144.8491  140.6035  143.5402 H   0  0  0  0  0  0  0  0  0  0  0  0  # atno 7974 bound_to 7965
  155.5498  140.0615  157.2852 H   0  0  0  0  0  0  0  0  0  0  0  0  # atno 8008 bound_to 7997
  154.4424  140.1904  156.0720 H   0  0  0  0  0  0  0  0  0  0  0  0  # atno 8009 bound_to 7997
  156.0524  140.3282  155.7370 H   0  0  0  0  0  0  0  0  0  0  0  0  # atno 8010 bound_to 7997
  140.5353  143.2318  151.7187 H   0  0  0  0  0  0  0  0  0  0  0  0  # atno 10167 bound_to 10162
  156.9407  131.0000  151.2969 H   0  0  0  0  0  0  0  0  0  0  0  0  # atno 10718 bound_to 10713
  153.3376  135.4015  155.1546 H   0  0  0  0  0  0  0  0  0  0  0  0  # atno 10763 bound_to 10752
  154.8637  135.3626  154.5388 H   0  0  0  0  0  0  0  0  0  0  0  0  # atno 10764 bound_to 10752
  153.5830  135.7076  153.5514 H   0  0  0  0  0  0  0  0  0  0  0  0  # atno 10765 bound_to 10752
  140.3981  134.6802  157.4546 H   0  0  0  0  0  0  0  0  0  0  0  0  # atno 11005 bound_to 11000
  145.4536  139.1520  143.3905 LP  0  0  0  0  0  0  0  0  0  0  0  0  # atno 17320 bound_to 7965
  146.2769  140.4663  142.8791 LP  0  0  0  0  0  0  0  0  0  0  0  0  # atno 17321 bound_to 7965
  139.4969  144.4051  152.0140 LP  0  0  0  0  0  0  0  0  0  0  0  0  # atno 17342 bound_to 10162
  140.3156  144.3487  150.6022 LP  0  0  0  0  0  0  0  0  0  0  0  0  # atno 17343 bound_to 10162
  157.5787  130.8361  149.8492 LP  0  0  0  0  0  0  0  0  0  0  0  0  # atno 17370 bound_to 10713
  156.0406  130.3740  150.1446 LP  0  0  0  0  0  0  0  0  0  0  0  0  # atno 17371 bound_to 10713
  140.0357  134.6341  155.9047 LP  0  0  0  0  0  0  0  0  0  0  0  0  # atno 17394 bound_to 11000
  141.1867  133.6558  156.5249 LP  0  0  0  0  0  0  0  0  0  0  0  0  # atno 17395 bound_to 11000

$$$$
