AV-unprocessed.smi:2563|AV-procd|sdf|10060|dock6
  -GOLD-   2272014 93D 1   1.00000     0.00000
 Structure written by MMmdl.
 34 35  0  0  0  0  0  0  0  0  1 V2000
  151.6615  138.8732  154.6542 C   0  0  0  0  0  0  0  0  0  0  0  0
  151.1284  139.5075  155.9455 C   0  0  0  0  0  0  0  0  0  0  0  0
  150.2932  140.6792  155.6809 N   0  0  0  0  0  0  0  0  0  0  0  0
  150.7054  141.9706  156.2284 C   0  0  0  0  0  0  0  0  0  0  0  0
  150.8439  141.9418  157.7608 C   0  0  2  0  0  0  0  0  0  0  0  0
  150.8626  143.3652  158.3531 C   0  0  0  0  0  0  0  0  0  0  0  0
  151.0624  143.3141  159.8007 N   0  0  0  0  0  0  0  0  0  0  0  0
  152.2734  142.5708  160.1426 C   0  0  0  0  0  0  0  0  0  0  0  0
  152.2396  141.1733  159.5007 C   0  0  0  0  0  0  0  0  0  0  0  0
  152.0753  141.3046  158.0931 O   0  0  0  0  0  0  0  0  0  0  0  0
  149.1557  140.5780  154.8432 C   0  0  0  0  0  0  0  0  0  0  0  0
  148.3371  141.6979  154.5545 C   0  0  0  0  0  0  0  0  0  0  0  0
  147.2271  141.5105  153.7136 C   0  0  0  0  0  0  0  0  0  0  0  0
  147.0055  140.2162  153.2145 C   0  0  0  0  0  0  0  0  0  0  0  0
  147.8113  139.1758  153.5156 N   0  0  0  0  0  0  0  0  0  0  0  0
  148.8661  139.3588  154.3169 N   0  0  0  0  0  0  0  0  0  0  0  0
  152.2943  138.0146  154.8793 H   0  0  0  0  0  0  0  0  0  0  0  0
  152.2579  139.5830  154.0804 H   0  0  0  0  0  0  0  0  0  0  0  0
  150.8476  138.5264  154.0168 H   0  0  0  0  0  0  0  0  0  0  0  0
  150.5881  138.7691  156.5385 H   0  0  0  0  0  0  0  0  0  0  0  0
  151.9719  139.8146  156.5642 H   0  0  0  0  0  0  0  0  0  0  0  0
  151.6580  142.2622  155.7842 H   0  0  0  0  0  0  0  0  0  0  0  0
  150.0003  142.7422  155.9198 H   0  0  0  0  0  0  0  0  0  0  0  0
  150.0116  141.3827  158.1926 H   0  0  0  0  0  0  0  0  0  0  0  0
  151.6593  143.9485  157.8892 H   0  0  0  0  0  0  0  0  0  0  0  0
  149.9270  143.8773  158.1263 H   0  0  0  0  0  0  0  0  0  0  0  0
  151.1267  144.2575  160.1696 H   0  0  0  0  0  0  0  0  0  0  0  0
  153.1524  143.1132  159.7923 H   0  0  0  0  0  0  0  0  0  0  0  0
  152.3685  142.4849  161.2252 H   0  0  0  0  0  0  0  0  0  0  0  0
  153.1731  140.6467  159.6992 H   0  0  0  0  0  0  0  0  0  0  0  0
  151.4363  140.5664  159.9214 H   0  0  0  0  0  0  0  0  0  0  0  0
  148.5285  142.6794  154.9601 H   0  0  0  0  0  0  0  0  0  0  0  0
  146.5689  142.3289  153.4627 H   0  0  0  0  0  0  0  0  0  0  0  0
  146.1681  140.0103  152.5644 H   0  0  0  0  0  0  0  0  0  0  0  0
  1  2  1  0  0  0  0
  1 17  1  0  0  0  0
  1 18  1  0  0  0  0
  1 19  1  0  0  0  0
  2  3  1  0  0  0  0
  2 20  1  0  0  0  0
  2 21  1  0  0  0  0
  3  4  1  0  0  0  0
  3 11  1  0  0  0  0
  4  5  1  0  0  0  0
  4 22  1  0  0  0  0
  4 23  1  0  0  0  0
  5 10  1  0  0  0  0
  5  6  1  0  0  0  0
  5 24  1  0  0  0  0
  6  7  1  0  0  0  0
  6 25  1  0  0  0  0
  6 26  1  0  0  0  0
  7  8  1  0  0  0  0
  7 27  1  0  0  0  0
  8  9  1  0  0  0  0
  8 28  1  0  0  0  0
  8 29  1  0  0  0  0
  9 10  1  0  0  0  0
  9 30  1  0  0  0  0
  9 31  1  0  0  0  0
 11 16  1  0  0  0  0
 11 12  2  0  0  0  0
 12 13  1  0  0  0  0
 12 32  1  0  0  0  0
 13 14  2  0  0  0  0
 13 33  1  0  0  0  0
 14 15  1  0  0  0  0
 14 34  1  0  0  0  0
 15 16  2  0  0  0  0
M  END
> <s_m_source_file>
AV-unprocessed.smi

> <i_m_source_file_index>
2563

> <i_lp_mmshare_version>
43012

> <i_f3d_flags>
0

> <s_epik_input>
bjFuW2NIXVtjSF1bY0hdYzFOKFtDSDJdW0NIM10pW0NIMl1bQ0BASF0yW0NIMl1bTkhdW0NIMl1bQ0gyXU8y

> <s_epik_cmdline>
J2VwaWtfcHl0aG9uJywgJy1waCcsICc3LjAnLCAnLXRuJywgJzgnLCAnLW1hJywgJzIwMCcsICctbWV0YWxfYmluZGluZycsICctaW1hZScsICc8aW5maWxlLm1hZT4nLCAnLW9tYWUnLCAnPG91dGZpbGUubWFlPic=

> <r_lp_tautomer_probability>
1

> <r_epik_Ionization_Penalty>
2.34719

> <r_epik_Ionization_Penalty_Charging>
0

> <r_epik_Ionization_Penalty_Neutral>
2.34719

> <r_epik_State_Penalty>
2.60452

> <r_epik_Charging_Adjusted_Penalty>
2.60452

> <i_epik_Tot_Q>
0

> <i_epik_Tot_abs_Q>
0

> <r_epik_Metal_State_Penalty>
2.56937

> <b_epik_Metal_Only>
0

> <s_lp_Force_Field>
OPLS_2005

> <r_lp_Energy>
25.5001

> <b_lp_Chiralities_Consistent>
1

> <s_lp_Variant>
AV-unprocessed.smi:2563-5

> <Gold.Version>
5.8.1

> <Gold.Id.Protein>
6NUR|6NUR_protein|mol2

> <Gold.PLP.Fitness>
35.2955

> <Gold.PLP.PLP>
-32.6860

> <Gold.PLP.part.hbond>
-0.2923

> <Gold.PLP.part.metal>
0.0000

> <Gold.PLP.part.buried>
-5.0436

> <Gold.PLP.part.nonpolar>
-28.5167

> <Gold.PLP.part.repulsive>
0.7860

> <Gold.PLP.ligand.clash>
0.0000

> <Gold.PLP.ligand.torsion>
0.1709

> <Gold.PLP.Chemscore.Hbond>
0.0000

> <Gold.PLP.Chemscore.CHOScore>
0.9712

> <Gold.PLP.Chemscore.Metal>
0.0000

> <Gold.Chemscore.Hbonds>
donor molecule, donor type, donor heavy atom, donor atom, acceptor molecule, acceptor atom, score
      L1  C    14    34       P1 10175  1.00

> <Gold.PLP.Chemscore.Internal.Correction>
0.0377

> <Gold.Rescore>
     Score         DG    S(hbond)    S(metal)    S(lipo)     H(rot)  DE(clash)    DE(int)     intcor
     11.30     -11.69       0.00        0.00      82.91       1.36       0.03       0.37       ----

> <Gold.Chemscore.Fitness>
11.2955

> <Gold.Chemscore.DG>
-11.6946

> <Gold.Chemscore.ZeroCoef>
-5.4800

> <Gold.Chemscore.Hbond>
0.0000

> <Gold.Chemscore.Metal>
0.0000

> <Gold.Chemscore.Lipo>
82.9120

> <Gold.Chemscore.Internal_Hbond>
0.0000

> <Gold.Chemscore.DEClash>
0.0335

> <Gold.Chemscore.DEInternal>
0.3656

> <Gold.Chemscore.Rot>
1.3618

> <Gold.Chemscore.Internal.Correction>
   9.000000E+99

> <Gold.Chemscore.Hbond.Weighted>
-0.0000

> <Gold.Chemscore.Metal.Weighted>
-0.0000

> <Gold.Chemscore.Lipo.Weighted>
-9.7007

> <Gold.Chemscore.Internal_Hbond.Weighted>
0.0000

> <Gold.Chemscore.DEClash.Weighted>
0.0335

> <Gold.Chemscore.DEInternal.Weighted>
0.3656

> <Gold.Chemscore.Rot.Weighted>
3.4861

> <Gold.Chemscore.Internal.Correction.Weighted>
   9.000000E+99

> <Gold.Protein.RotatedTorsions>
[ 6907 6896 6895 6894 ] final -129.18 input  -60.11 | X-H torsion
[ 7974 7965 7964 7962 ] final  146.35 input  175.53 | X-H torsion
[ 8008 7997 7996 7995 ] final  -32.18 input   59.86 | X-H torsion
[ 10167 10162 10161 10158 ] final  -31.22 input  -65.29 | X-H torsion
[ 10718 10713 10712 10709 ] final  -71.31 input   66.30 | X-H torsion
[ 10763 10752 10751 10750 ] final -136.42 input  -60.55 | X-H torsion
[ 11005 11000 10999 10996 ] final -172.70 input  -57.11 | X-H torsion

> <Gold.Protein.ActiveResidues>
 VAL166  LYS551  ARG553  GLY616  TRP617  ASP618  TYR619  PRO620  LYS621  CYS622 
 ASP623  PHE694  ASN695  SER759  ASP760  ASP761  ALA762  ILE779  LEU786  VAL792 
 PHE793  MET794  SER795  GLU796  ALA797  LYS798  CYS799  TRP800  GLU811  SER814 

> <Gold.Protein.RotatedAtoms>
  150.9259  133.6824  159.2821 H   0  0  0  0  0  0  0  0  0  0  0  0  # atno 6907 bound_to 6896
  151.4262  135.1003  159.9638 H   0  0  0  0  0  0  0  0  0  0  0  0  # atno 6908 bound_to 6896
  152.5002  133.8700  159.7348 H   0  0  0  0  0  0  0  0  0  0  0  0  # atno 6909 bound_to 6896
  144.8678  139.5894  143.5900 H   0  0  0  0  0  0  0  0  0  0  0  0  # atno 7974 bound_to 7965
  154.4188  140.1744  156.1685 H   0  0  0  0  0  0  0  0  0  0  0  0  # atno 8008 bound_to 7997
  155.9780  140.3380  155.6612 H   0  0  0  0  0  0  0  0  0  0  0  0  # atno 8009 bound_to 7997
  155.6538  140.0693  157.2568 H   0  0  0  0  0  0  0  0  0  0  0  0  # atno 8010 bound_to 7997
  140.7239  143.3787  151.1640 H   0  0  0  0  0  0  0  0  0  0  0  0  # atno 10167 bound_to 10162
  156.0368  130.4349  150.2425 H   0  0  0  0  0  0  0  0  0  0  0  0  # atno 10718 bound_to 10713
  154.8684  135.3673  154.5058 H   0  0  0  0  0  0  0  0  0  0  0  0  # atno 10763 bound_to 10752
  153.5696  135.7021  153.5515 H   0  0  0  0  0  0  0  0  0  0  0  0  # atno 10764 bound_to 10752
  153.3554  135.4061  155.1641 H   0  0  0  0  0  0  0  0  0  0  0  0  # atno 10765 bound_to 10752
  140.4940  134.5958  157.4964 H   0  0  0  0  0  0  0  0  0  0  0  0  # atno 11005 bound_to 11000
  146.2909  139.7136  142.9162 LP  0  0  0  0  0  0  0  0  0  0  0  0  # atno 17320 bound_to 7965
  145.4187  141.0404  143.2976 LP  0  0  0  0  0  0  0  0  0  0  0  0  # atno 17321 bound_to 7965
  139.7372  143.8980  152.3039 LP  0  0  0  0  0  0  0  0  0  0  0  0  # atno 17342 bound_to 10162
  139.8789  144.7028  150.8901 LP  0  0  0  0  0  0  0  0  0  0  0  0  # atno 17343 bound_to 10162
  157.0524  131.0066  151.3249 LP  0  0  0  0  0  0  0  0  0  0  0  0  # atno 17370 bound_to 10713
  157.5131  130.7951  149.7726 LP  0  0  0  0  0  0  0  0  0  0  0  0  # atno 17371 bound_to 10713
  139.9752  134.7226  155.9963 LP  0  0  0  0  0  0  0  0  0  0  0  0  # atno 17394 bound_to 11000
  141.1470  133.6554  156.3896 LP  0  0  0  0  0  0  0  0  0  0  0  0  # atno 17395 bound_to 11000

$$$$
