AV-unprocessed.smi:2365|AV-procd|sdf|9419|dock3
  -GOLD-   2272013 53D 1   1.00000     0.00000
 Structure written by MMmdl.
 29 30  0  0  0  0  0  0  0  0  1 V2000
  147.0641  139.7956  152.3039 C   0  0  0  0  0  0  0  0  0  0  0  0
  147.6124  140.2420  153.6630 C   0  0  2  0  0  0  0  0  0  0  0  0
  146.6251  141.0364  154.5098 C   0  0  0  0  0  0  0  0  0  0  0  0
  147.5320  141.8006  155.4599 C   0  0  0  0  0  0  0  0  0  0  0  0
  148.8869  141.8632  154.7254 C   0  0  1  0  0  0  0  0  0  0  0  0
  150.0392  141.2182  155.5175 C   0  0  0  0  0  0  0  0  0  0  0  0
  150.5805  140.2042  155.0771 O   0  0  0  0  0  0  0  0  0  0  0  0
  150.3884  141.8202  156.6697 N   0  0  0  0  0  0  0  0  0  0  0  0
  151.4312  141.4677  157.5683 C   0  0  0  0  0  0  0  0  0  0  0  0
  152.2007  140.2860  157.4364 C   0  0  0  0  0  0  0  0  0  0  0  0
  153.1769  139.9333  158.2992 N   0  0  0  0  0  0  0  0  0  0  0  0
  153.4246  140.7506  159.3434 C   0  0  0  0  0  0  0  0  0  0  0  0
  152.7118  141.9421  159.5807 C   0  0  0  0  0  0  0  0  0  0  0  0
  153.0964  142.9203  160.9519 Cl  0  0  0  0  0  0  0  0  0  0  0  0
  151.6897  142.3058  158.6772 C   0  0  0  0  0  0  0  0  0  0  0  0
  150.7776  143.7580  158.9188 Cl  0  0  0  0  0  0  0  0  0  0  0  0
  148.6753  141.1675  153.4943 O   0  0  0  0  0  0  0  0  0  0  0  0
  146.2244  139.1118  152.4272 H   0  0  0  0  0  0  0  0  0  0  0  0
  147.8320  139.2804  151.7266 H   0  0  0  0  0  0  0  0  0  0  0  0
  146.7208  140.6472  151.7161 H   0  0  0  0  0  0  0  0  0  0  0  0
  147.9759  139.3784  154.2229 H   0  0  0  0  0  0  0  0  0  0  0  0
  146.0728  141.7398  153.8852 H   0  0  0  0  0  0  0  0  0  0  0  0
  145.9033  140.4031  155.0262 H   0  0  0  0  0  0  0  0  0  0  0  0
  147.1375  142.7943  155.6741 H   0  0  0  0  0  0  0  0  0  0  0  0
  147.6029  141.2670  156.4091 H   0  0  0  0  0  0  0  0  0  0  0  0
  149.1587  142.8945  154.4986 H   0  0  0  0  0  0  0  0  0  0  0  0
  149.9171  142.6917  156.8673 H   0  0  0  0  0  0  0  0  0  0  0  0
  152.0271  139.5834  156.6360 H   0  0  0  0  0  0  0  0  0  0  0  0
  154.2132  140.4412  160.0135 H   0  0  0  0  0  0  0  0  0  0  0  0
  1  2  1  0  0  0  0
  1 18  1  0  0  0  0
  1 19  1  0  0  0  0
  1 20  1  0  0  0  0
  2 17  1  0  0  0  0
  2  3  1  0  0  0  0
  2 21  1  0  0  0  0
  3  4  1  0  0  0  0
  3 22  1  0  0  0  0
  3 23  1  0  0  0  0
  4  5  1  0  0  0  0
  4 24  1  0  0  0  0
  4 25  1  0  0  0  0
  5  6  1  0  0  0  0
  5 17  1  0  0  0  0
  5 26  1  0  0  0  0
  6  7  2  0  0  0  0
  6  8  1  0  0  0  0
  8  9  1  0  0  0  0
  8 27  1  0  0  0  0
  9 15  1  0  0  0  0
  9 10  2  0  0  0  0
 10 11  1  0  0  0  0
 10 28  1  0  0  0  0
 11 12  2  0  0  0  0
 12 13  1  0  0  0  0
 12 29  1  0  0  0  0
 13 14  1  0  0  0  0
 13 15  2  0  0  0  0
 15 16  1  0  0  0  0
M  END
> <s_m_source_file>
AV-unprocessed.smi

> <i_m_source_file_index>
2365

> <i_lp_mmshare_version>
43012

> <i_f3d_flags>
0

> <s_epik_input>
W0NIM11bQ0BASF0xW0NIMl1bQ0gyXVtDQEhdKE8xKUMoPU8pW05IXWMyW2NIXW5bY0hdYyhDbCljMkNs

> <s_epik_cmdline>
J2VwaWtfcHl0aG9uJywgJy1waCcsICc3LjAnLCAnLXRuJywgJzgnLCAnLW1hJywgJzIwMCcsICctbWV0YWxfYmluZGluZycsICctaW1hZScsICc8aW5maWxlLm1hZT4nLCAnLW9tYWUnLCAnPG91dGZpbGUubWFlPic=

> <r_lp_tautomer_probability>
1

> <r_epik_Ionization_Penalty>
7.32461e-06

> <r_epik_Ionization_Penalty_Charging>
0

> <r_epik_Ionization_Penalty_Neutral>
7.32461e-06

> <r_epik_State_Penalty>
-0

> <r_epik_Charging_Adjusted_Penalty>
0

> <i_epik_Tot_Q>
0

> <i_epik_Tot_abs_Q>
0

> <r_epik_Metal_State_Penalty>
-0

> <b_epik_Metal_Only>
0

> <s_lp_Force_Field>
OPLS_2005

> <r_lp_Energy>
23.4255

> <b_lp_Chiralities_Consistent>
1

> <s_lp_Variant>
AV-unprocessed.smi:2365-1

> <Gold.Version>
5.8.1

> <Gold.Id.Protein>
6NUR|6NUR_protein|mol2

> <Gold.PLP.Fitness>
37.8306

> <Gold.PLP.PLP>
-29.1940

> <Gold.PLP.part.hbond>
-3.0000

> <Gold.PLP.part.metal>
0.0000

> <Gold.PLP.part.buried>
1.4751

> <Gold.PLP.part.nonpolar>
-29.0282

> <Gold.PLP.part.repulsive>
2.4877

> <Gold.PLP.ligand.clash>
0.0000

> <Gold.PLP.ligand.torsion>
0.0530

> <Gold.PLP.Chemscore.Hbond>
2.9120

> <Gold.PLP.Chemscore.CHOScore>
0.0000

> <Gold.PLP.Chemscore.Metal>
0.0000

> <Gold.Chemscore.Hbonds>
donor molecule, donor type, donor heavy atom, donor atom, acceptor molecule, acceptor atom, score
      P1  H  7989  7998       L1     7  1.00
      P1  H  7997  8010       L1    11  0.99
      P1  H  8011  8017       L1    17  0.78

> <Gold.PLP.Chemscore.Internal.Correction>
0.0066

> <Gold.Rescore>
     Score         DG    S(hbond)    S(metal)    S(lipo)     H(rot)  DE(clash)    DE(int)     intcor
     15.62     -19.14       1.70        0.00      90.04       1.00       2.19       1.33       ----

> <Gold.Chemscore.Fitness>
15.6229

> <Gold.Chemscore.DG>
-19.1406

> <Gold.Chemscore.ZeroCoef>
-5.4800

> <Gold.Chemscore.Hbond>
1.7024

> <Gold.Chemscore.Metal>
0.0000

> <Gold.Chemscore.Lipo>
90.0379

> <Gold.Chemscore.Internal_Hbond>
0.0000

> <Gold.Chemscore.DEClash>
2.1880

> <Gold.Chemscore.DEInternal>
1.3296

> <Gold.Chemscore.Rot>
1.0000

> <Gold.Chemscore.Internal.Correction>
   9.000000E+99

> <Gold.Chemscore.Hbonds>
donor molecule, donor type, donor heavy atom, donor atom, acceptor molecule, acceptor atom, score
      P1  H  7989  7998       L1     7  0.37
      P1  H  7997  8010       L1    11  0.16
      P1  H  8011  8017       L1    17  0.12

> <Gold.Chemscore.Hbond.Weighted>
-5.6862

> <Gold.Chemscore.Metal.Weighted>
-0.0000

> <Gold.Chemscore.Lipo.Weighted>
-10.5344

> <Gold.Chemscore.Internal_Hbond.Weighted>
0.0000

> <Gold.Chemscore.DEClash.Weighted>
2.1880

> <Gold.Chemscore.DEInternal.Weighted>
1.3296

> <Gold.Chemscore.Rot.Weighted>
2.5600

> <Gold.Chemscore.Internal.Correction.Weighted>
   9.000000E+99

> <Gold.Protein.RotatedTorsions>
[ 6907 6896 6895 6894 ] final -158.87 input  -60.11 | X-H torsion
[ 7974 7965 7964 7962 ] final -149.33 input  175.53 | X-H torsion
[ 8008 7997 7996 7995 ] final   22.15 input   59.86 | X-H torsion
[ 10167 10162 10161 10158 ] final  -58.73 input  -65.29 | X-H torsion
[ 10718 10713 10712 10709 ] final  -86.50 input   66.30 | X-H torsion
[ 10763 10752 10751 10750 ] final -115.96 input  -60.55 | X-H torsion
[ 11005 11000 10999 10996 ] final   45.94 input  -57.11 | X-H torsion

> <Gold.Protein.ActiveResidues>
 VAL166  LYS551  ARG553  GLY616  TRP617  ASP618  TYR619  PRO620  LYS621  CYS622 
 ASP623  PHE694  ASN695  SER759  ASP760  ASP761  ALA762  ILE779  LEU786  VAL792 
 PHE793  MET794  SER795  GLU796  ALA797  LYS798  CYS799  TRP800  GLU811  SER814 

> <Gold.Protein.RotatedAtoms>
  151.3249  133.4024  159.2657 H   0  0  0  0  0  0  0  0  0  0  0  0  # atno 6907 bound_to 6896
  151.0004  134.9318  159.7961 H   0  0  0  0  0  0  0  0  0  0  0  0  # atno 6908 bound_to 6896
  152.5273  134.3214  159.9202 H   0  0  0  0  0  0  0  0  0  0  0  0  # atno 6909 bound_to 6896
  144.7974  140.5078  143.5731 H   0  0  0  0  0  0  0  0  0  0  0  0  # atno 7974 bound_to 7965
  154.9614  140.3078  155.5029 H   0  0  0  0  0  0  0  0  0  0  0  0  # atno 8008 bound_to 7997
  156.2976  140.2300  156.4638 H   0  0  0  0  0  0  0  0  0  0  0  0  # atno 8009 bound_to 7997
  154.7961  140.0437  157.1226 H   0  0  0  0  0  0  0  0  0  0  0  0  # atno 8010 bound_to 7997
  140.6179  143.2409  151.5552 H   0  0  0  0  0  0  0  0  0  0  0  0  # atno 10167 bound_to 10162
  155.9989  130.4767  150.4725 H   0  0  0  0  0  0  0  0  0  0  0  0  # atno 10718 bound_to 10713
  154.8501  135.4363  154.1745 H   0  0  0  0  0  0  0  0  0  0  0  0  # atno 10763 bound_to 10752
  153.2850  135.6957  153.7354 H   0  0  0  0  0  0  0  0  0  0  0  0  # atno 10764 bound_to 10752
  153.6543  135.3446  155.3084 H   0  0  0  0  0  0  0  0  0  0  0  0  # atno 10765 bound_to 10752
  140.1413  134.4579  155.8447 H   0  0  0  0  0  0  0  0  0  0  0  0  # atno 11005 bound_to 11000
  145.5639  139.1480  143.3326 LP  0  0  0  0  0  0  0  0  0  0  0  0  # atno 17320 bound_to 7965
  146.2246  140.5774  142.9002 LP  0  0  0  0  0  0  0  0  0  0  0  0  # atno 17321 bound_to 7965
  139.5414  144.2638  152.1358 LP  0  0  0  0  0  0  0  0  0  0  0  0  # atno 17342 bound_to 10162
  140.1851  144.4806  150.6508 LP  0  0  0  0  0  0  0  0  0  0  0  0  # atno 17343 bound_to 10162
  157.2738  131.0592  151.2242 LP  0  0  0  0  0  0  0  0  0  0  0  0  # atno 17370 bound_to 10713
  157.3313  130.6986  149.6326 LP  0  0  0  0  0  0  0  0  0  0  0  0  # atno 17371 bound_to 10713
  141.2186  133.6834  156.7253 LP  0  0  0  0  0  0  0  0  0  0  0  0  # atno 17394 bound_to 11000
  140.2718  134.8386  157.3854 LP  0  0  0  0  0  0  0  0  0  0  0  0  # atno 17395 bound_to 11000

$$$$
