AV-unprocessed.smi:77|AV-procd|sdf|772|dock3
  -GOLD-   2262017123D 1   1.00000     0.00000
 Structure written by MMmdl.
 57 61  0  0  0  0  0  0  0  0  1 V2000
  146.5312  137.3950  150.9020 O   0  0  0  0  0  0  0  0  0  0  0  0
  145.8521  137.1417  151.8975 C   0  0  0  0  0  0  0  0  0  0  0  0
  145.9075  138.0582  153.1254 C   0  0  0  0  0  0  0  0  0  0  0  0
  146.8266  137.5622  154.1553 N   0  0  0  0  0  0  0  0  0  0  0  0
  147.2905  138.5298  154.9785 C   0  0  0  0  0  0  0  0  0  0  0  0
  146.4468  139.1323  155.8574 N   0  0  0  0  0  0  0  0  0  0  0  0
  146.8951  140.1188  156.6399 C   0  0  0  0  0  0  0  0  0  0  0  0
  148.1180  140.6522  156.6939 N   0  0  0  0  0  0  0  0  0  0  0  0
  148.9641  140.0427  155.8146 C   0  0  0  0  0  0  0  0  0  0  0  0
  148.6380  138.9724  154.9376 C   0  0  0  0  0  0  0  0  0  0  0  0
  149.7552  138.5973  154.2029 N   0  0  0  0  0  0  0  0  0  0  0  0
  150.6874  139.4162  154.6066 C   0  0  0  0  0  0  0  0  0  0  0  0
  150.2895  140.3383  155.5493 N   0  0  0  0  0  0  0  0  0  0  0  0
  151.1079  141.3769  156.1463 C   0  0  0  0  0  0  0  0  0  0  0  0
  151.3625  141.2059  157.6709 C   0  0  1  0  0  0  0  0  0  0  0  0
  151.7875  139.7435  157.9500 C   0  0  0  0  0  0  0  0  0  0  0  0
  152.9286  139.3854  157.1980 O   0  0  0  0  0  0  0  0  0  0  0  0
  152.3963  142.2244  158.2431 C   0  0  2  0  0  0  0  0  0  0  0  0
  152.4646  142.2915  159.7625 C   0  0  0  0  0  0  0  0  0  0  0  0
  153.1480  143.6289  160.0007 C   0  0  0  0  0  0  0  0  0  0  0  0
  152.5799  144.4816  159.0221 O   0  0  0  0  0  0  0  0  0  0  0  0
  152.1338  143.7067  157.9136 C   0  0  0  0  0  0  0  0  0  0  0  0
  146.4256  136.3483  154.8536 C   0  0  0  0  0  0  0  0  0  0  0  0
  147.4890  135.4758  155.4802 C   0  0  0  0  0  0  0  0  0  0  0  0
  146.7712  135.0176  154.2310 C   0  0  0  0  0  0  0  0  0  0  0  0
  145.0524  136.0696  151.9943 N   0  0  0  0  0  0  0  0  0  0  0  0
  144.8468  135.0938  150.9735 C   0  0  0  0  0  0  0  0  0  0  0  0
  143.9493  133.9189  151.2956 C   0  0  0  0  0  0  0  0  0  0  0  0
  145.4354  133.7164  151.1904 C   0  0  0  0  0  0  0  0  0  0  0  0
  146.1745  139.0751  152.8303 H   0  0  0  0  0  0  0  0  0  0  0  0
  144.8996  138.1163  153.5388 H   0  0  0  0  0  0  0  0  0  0  0  0
  146.1676  140.5496  157.3121 H   0  0  0  0  0  0  0  0  0  0  0  0
  151.6906  139.3845  154.2074 H   0  0  0  0  0  0  0  0  0  0  0  0
  152.0505  141.3899  155.5984 H   0  0  0  0  0  0  0  0  0  0  0  0
  150.6328  142.3404  155.9570 H   0  0  0  0  0  0  0  0  0  0  0  0
  150.4212  141.3668  158.1980 H   0  0  0  0  0  0  0  0  0  0  0  0
  151.9925  139.5950  159.0107 H   0  0  0  0  0  0  0  0  0  0  0  0
  151.0052  139.0385  157.6726 H   0  0  0  0  0  0  0  0  0  0  0  0
  152.7635  138.5551  156.7780 H   0  0  0  0  0  0  0  0  0  0  0  0
  153.3914  141.9605  157.8809 H   0  0  0  0  0  0  0  0  0  0  0  0
  151.4616  142.3053  160.1916 H   0  0  0  0  0  0  0  0  0  0  0  0
  153.0190  141.4642  160.2065 H   0  0  0  0  0  0  0  0  0  0  0  0
  152.9902  144.0129  161.0087 H   0  0  0  0  0  0  0  0  0  0  0  0
  154.2220  143.5487  159.8265 H   0  0  0  0  0  0  0  0  0  0  0  0
  152.6563  144.0250  157.0124 H   0  0  0  0  0  0  0  0  0  0  0  0
  151.0706  143.9052  157.7761 H   0  0  0  0  0  0  0  0  0  0  0  0
  145.4731  136.3948  155.3791 H   0  0  0  0  0  0  0  0  0  0  0  0
  148.5280  135.7832  155.3760 H   0  0  0  0  0  0  0  0  0  0  0  0
  147.2417  134.9772  156.4151 H   0  0  0  0  0  0  0  0  0  0  0  0
  146.0467  134.2122  154.3333 H   0  0  0  0  0  0  0  0  0  0  0  0
  147.3321  135.0256  153.2983 H   0  0  0  0  0  0  0  0  0  0  0  0
  144.5415  135.9390  152.8555 H   0  0  0  0  0  0  0  0  0  0  0  0
  144.8190  135.4456  149.9431 H   0  0  0  0  0  0  0  0  0  0  0  0
  143.5034  133.8762  152.2876 H   0  0  0  0  0  0  0  0  0  0  0  0
  143.3312  133.5257  150.4908 H   0  0  0  0  0  0  0  0  0  0  0  0
  145.8090  133.1873  150.3161 H   0  0  0  0  0  0  0  0  0  0  0  0
  145.9830  133.5351  152.1135 H   0  0  0  0  0  0  0  0  0  0  0  0
  1  2  2  0  0  0  0
  2  3  1  0  0  0  0
  2 26  1  0  0  0  0
  3  4  1  0  0  0  0
  3 30  1  0  0  0  0
  3 31  1  0  0  0  0
  4  5  1  0  0  0  0
  4 23  1  0  0  0  0
  5 10  1  0  0  0  0
  5  6  2  0  0  0  0
  6  7  1  0  0  0  0
  7  8  2  0  0  0  0
  7 32  1  0  0  0  0
  8  9  1  0  0  0  0
  9 13  1  0  0  0  0
  9 10  2  0  0  0  0
 10 11  1  0  0  0  0
 11 12  2  0  0  0  0
 12 13  1  0  0  0  0
 12 33  1  0  0  0  0
 13 14  1  0  0  0  0
 14 15  1  0  0  0  0
 14 34  1  0  0  0  0
 14 35  1  0  0  0  0
 15 16  1  0  0  0  0
 15 18  1  0  0  0  0
 15 36  1  0  0  0  0
 16 17  1  0  0  0  0
 16 37  1  0  0  0  0
 16 38  1  0  0  0  0
 17 39  1  0  0  0  0
 18 22  1  0  0  0  0
 18 19  1  0  0  0  0
 18 40  1  0  0  0  0
 19 20  1  0  0  0  0
 19 41  1  0  0  0  0
 19 42  1  0  0  0  0
 20 21  1  0  0  0  0
 20 43  1  0  0  0  0
 20 44  1  0  0  0  0
 21 22  1  0  0  0  0
 22 45  1  0  0  0  0
 22 46  1  0  0  0  0
 23 25  1  0  0  0  0
 23 24  1  0  0  0  0
 23 47  1  0  0  0  0
 24 25  1  0  0  0  0
 24 48  1  0  0  0  0
 24 49  1  0  0  0  0
 25 50  1  0  0  0  0
 25 51  1  0  0  0  0
 26 27  1  0  0  0  0
 26 52  1  0  0  0  0
 27 29  1  0  0  0  0
 27 28  1  0  0  0  0
 27 53  1  0  0  0  0
 28 29  1  0  0  0  0
 28 54  1  0  0  0  0
 28 55  1  0  0  0  0
 29 56  1  0  0  0  0
 29 57  1  0  0  0  0
M  END
> <s_m_source_file>
AV-unprocessed.smi

> <i_m_source_file_index>
77

> <i_lp_mmshare_version>
43012

> <i_f3d_flags>
0

> <s_epik_input>
W0NIMl0xW0NIMl1bQ0hdMVtOSF1DKD1PKVtDSDJdTihbQ0hdMltDSDJdW0NIMl0yKWMobltjSF1uMyljKGMzNCluW2NIXW40W0NIMl1bQ0BIXShbQ0gyXVtPSF0pW0NAQEhdNVtDSDJdW0NIMl1PW0NIMl01

> <s_epik_cmdline>
J2VwaWtfcHl0aG9uJywgJy1waCcsICc3LjAnLCAnLXRuJywgJzgnLCAnLW1hJywgJzIwMCcsICctbWV0YWxfYmluZGluZycsICctaW1hZScsICc8aW5maWxlLm1hZT4nLCAnLW9tYWUnLCAnPG91dGZpbGUubWFlPic=

> <r_lp_tautomer_probability>
1

> <r_epik_Ionization_Penalty>
0.000703847

> <r_epik_Ionization_Penalty_Charging>
0

> <r_epik_Ionization_Penalty_Neutral>
0.000703847

> <r_epik_State_Penalty>
0.00034025

> <r_epik_Charging_Adjusted_Penalty>
0.00034025

> <i_epik_Tot_Q>
0

> <i_epik_Tot_abs_Q>
0

> <r_epik_Metal_State_Penalty>
-0

> <b_epik_Metal_Only>
0

> <s_lp_Force_Field>
OPLS_2005

> <r_lp_Energy>
54.5586

> <b_lp_Chiralities_Consistent>
1

> <s_lp_Variant>
AV-unprocessed.smi:77-2

> <Gold.Version>
5.8.1

> <Gold.Id.Protein>
6NUR|6NUR_protein|mol2

> <Gold.PLP.Fitness>
43.3757

> <Gold.PLP.PLP>
-38.2998

> <Gold.PLP.part.hbond>
-2.0000

> <Gold.PLP.part.metal>
0.0000

> <Gold.PLP.part.buried>
-5.1901

> <Gold.PLP.part.nonpolar>
-33.5546

> <Gold.PLP.part.repulsive>
2.8797

> <Gold.PLP.ligand.clash>
0.0000

> <Gold.PLP.ligand.torsion>
1.4337

> <Gold.PLP.Chemscore.Hbond>
2.0000

> <Gold.PLP.Chemscore.CHOScore>
0.0000

> <Gold.PLP.Chemscore.Metal>
0.0000

> <Gold.Chemscore.Hbonds>
donor molecule, donor type, donor heavy atom, donor atom, acceptor molecule, acceptor atom, score
      P1  H  7954  7966       L1     1  1.00
      P1  H  7997  8009       L1    17  1.00

> <Gold.PLP.Chemscore.Internal.Correction>
1.9432

> <Gold.Rescore>
     Score         DG    S(hbond)    S(metal)    S(lipo)     H(rot)  DE(clash)    DE(int)     intcor
      9.74     -13.12       1.92        0.00      93.02       3.77       1.76       1.62       ----

> <Gold.Chemscore.Fitness>
9.7418

> <Gold.Chemscore.DG>
-13.1227

> <Gold.Chemscore.ZeroCoef>
-5.4800

> <Gold.Chemscore.Hbond>
1.9202

> <Gold.Chemscore.Metal>
0.0000

> <Gold.Chemscore.Lipo>
93.0249

> <Gold.Chemscore.Internal_Hbond>
0.0000

> <Gold.Chemscore.DEClash>
1.7576

> <Gold.Chemscore.DEInternal>
1.6233

> <Gold.Chemscore.Rot>
3.7714

> <Gold.Chemscore.Internal.Correction>
   9.000000E+99

> <Gold.Chemscore.Hbonds>
donor molecule, donor type, donor heavy atom, donor atom, acceptor molecule, acceptor atom, score
      P1  H  7954  7966       L1     1  0.97
      P1  H  7997  8009       L1    17  0.78

> <Gold.Chemscore.Hbond.Weighted>
-6.4136

> <Gold.Chemscore.Metal.Weighted>
-0.0000

> <Gold.Chemscore.Lipo.Weighted>
-10.8839

> <Gold.Chemscore.Internal_Hbond.Weighted>
0.0000

> <Gold.Chemscore.DEClash.Weighted>
1.7576

> <Gold.Chemscore.DEInternal.Weighted>
1.6233

> <Gold.Chemscore.Rot.Weighted>
9.6548

> <Gold.Chemscore.Internal.Correction.Weighted>
   9.000000E+99

> <Gold.Protein.RotatedTorsions>
[ 6907 6896 6895 6894 ] final  -74.49 input  -60.11 | X-H torsion
[ 7974 7965 7964 7962 ] final  -66.87 input  175.53 | X-H torsion
[ 8008 7997 7996 7995 ] final -178.25 input   59.86 | X-H torsion
[ 10167 10162 10161 10158 ] final -149.25 input  -65.29 | X-H torsion
[ 10718 10713 10712 10709 ] final   44.11 input   66.30 | X-H torsion
[ 10763 10752 10751 10750 ] final -167.62 input  -60.55 | X-H torsion
[ 11005 11000 10999 10996 ] final -172.08 input  -57.11 | X-H torsion

> <Gold.Protein.ActiveResidues>
 VAL166  LYS551  ARG553  GLY616  TRP617  ASP618  TYR619  PRO620  LYS621  CYS622 
 ASP623  PHE694  ASN695  SER759  ASP760  ASP761  ALA762  ILE779  LEU786  VAL792 
 PHE793  MET794  SER795  GLU796  ALA797  LYS798  CYS799  TRP800  GLU811  SER814 

> <Gold.Protein.RotatedAtoms>
  150.7091  134.4862  159.5493 H   0  0  0  0  0  0  0  0  0  0  0  0  # atno 6907 bound_to 6896
  152.2489  134.8150  160.0458 H   0  0  0  0  0  0  0  0  0  0  0  0  # atno 6908 bound_to 6896
  151.8905  133.3480  159.3833 H   0  0  0  0  0  0  0  0  0  0  0  0  # atno 6909 bound_to 6896
  145.7363  140.8974  143.0553 H   0  0  0  0  0  0  0  0  0  0  0  0  # atno 7974 bound_to 7965
  156.0166  140.1252  157.0400 H   0  0  0  0  0  0  0  0  0  0  0  0  # atno 8008 bound_to 7997
  154.4295  140.1077  156.5974 H   0  0  0  0  0  0  0  0  0  0  0  0  # atno 8009 bound_to 7997
  155.6005  140.3470  155.4594 H   0  0  0  0  0  0  0  0  0  0  0  0  # atno 8010 bound_to 7997
  139.7459  143.8591  152.2574 H   0  0  0  0  0  0  0  0  0  0  0  0  # atno 10167 bound_to 10162
  157.4233  130.7982  149.7535 H   0  0  0  0  0  0  0  0  0  0  0  0  # atno 10718 bound_to 10713
  154.6713  135.2940  154.9738 H   0  0  0  0  0  0  0  0  0  0  0  0  # atno 10763 bound_to 10752
  154.0764  135.6611  153.4835 H   0  0  0  0  0  0  0  0  0  0  0  0  # atno 10764 bound_to 10752
  153.0488  135.5187  154.7710 H   0  0  0  0  0  0  0  0  0  0  0  0  # atno 10765 bound_to 10752
  140.5010  134.5894  157.4987 H   0  0  0  0  0  0  0  0  0  0  0  0  # atno 11005 bound_to 11000
  144.6881  139.9399  143.7475 LP  0  0  0  0  0  0  0  0  0  0  0  0  # atno 17320 bound_to 7965
  146.0490  139.3493  143.0651 LP  0  0  0  0  0  0  0  0  0  0  0  0  # atno 17321 bound_to 7965
  139.8555  144.7143  150.9162 LP  0  0  0  0  0  0  0  0  0  0  0  0  # atno 17342 bound_to 10162
  140.7792  143.3862  151.1389 LP  0  0  0  0  0  0  0  0  0  0  0  0  # atno 17343 bound_to 10162
  155.9888  130.3956  150.3102 LP  0  0  0  0  0  0  0  0  0  0  0  0  # atno 17370 bound_to 10713
  157.1252  131.0257  151.2992 LP  0  0  0  0  0  0  0  0  0  0  0  0  # atno 17371 bound_to 10713
  139.9713  134.7288  156.0035 LP  0  0  0  0  0  0  0  0  0  0  0  0  # atno 17394 bound_to 11000
  141.1435  133.6560  156.3800 LP  0  0  0  0  0  0  0  0  0  0  0  0  # atno 17395 bound_to 11000

$$$$
