AV-unprocessed.smi:1172|AV-procd|sdf|4943|dock8
  -GOLD-   22720 3533D 1   1.00000     0.00000
 Structure written by MMmdl.
 36 37  0  0  0  0  0  0  0  0  1 V2000
  143.3152  132.9591  148.8428 N   0  0  0  0  0  0  0  0  0  0  0  0
  144.4658  132.4844  149.3276 C   0  0  0  0  0  0  0  0  0  0  0  0
  145.3344  132.0029  148.6037 O   0  0  0  0  0  0  0  0  0  0  0  0
  144.6726  132.5632  150.8415 C   0  0  0  0  0  0  0  0  0  0  0  0
  144.2717  133.8600  151.3578 N   0  0  0  0  0  0  0  0  0  0  0  0
  143.1619  134.1689  152.1202 C   0  0  0  0  0  0  0  0  0  0  0  0
  143.2307  135.5144  152.3468 C   0  0  0  0  0  0  0  0  0  0  0  0
  142.3475  136.3534  153.0726 N   0  0  0  0  0  0  0  0  0  0  0  0
  141.2274  136.0004  153.7323 C   0  0  0  0  0  0  0  0  0  0  0  0
  140.7819  134.8521  153.7325 O   0  0  0  0  0  0  0  0  0  0  0  0
  140.6023  137.0292  154.3606 N   0  0  0  0  0  0  0  0  0  0  0  0
  139.1807  137.0766  154.7485 C   0  0  0  0  0  0  0  0  0  0  0  0
  138.4263  137.9821  153.7573 C   0  0  0  0  0  0  0  0  0  0  0  0
  139.0550  139.3875  153.7100 C   0  0  0  0  0  0  0  0  0  0  0  0
  140.5805  139.3184  153.4944 C   0  0  1  0  0  0  0  0  0  0  0  0
  141.1367  140.6071  153.6439 O   0  0  0  0  0  0  0  0  0  0  0  0
  141.2329  138.3492  154.4996 C   0  0  0  0  0  0  0  0  0  0  0  0
  144.4105  135.9567  151.6943 C   0  0  0  0  0  0  0  0  0  0  0  0
  145.0352  134.9516  151.1001 N   0  0  0  0  0  0  0  0  0  0  0  0
  143.1404  132.9251  147.8489 H   0  0  0  0  0  0  0  0  0  0  0  0
  142.6246  133.3493  149.4676 H   0  0  0  0  0  0  0  0  0  0  0  0
  144.0946  131.7898  151.3494 H   0  0  0  0  0  0  0  0  0  0  0  0
  145.7229  132.3842  151.0780 H   0  0  0  0  0  0  0  0  0  0  0  0
  142.4461  133.4173  152.4188 H   0  0  0  0  0  0  0  0  0  0  0  0
  142.6035  137.3290  153.1136 H   0  0  0  0  0  0  0  0  0  0  0  0
  138.6992  136.1000  154.7947 H   0  0  0  0  0  0  0  0  0  0  0  0
  139.0994  137.4834  155.7576 H   0  0  0  0  0  0  0  0  0  0  0  0
  138.4523  137.5351  152.7626 H   0  0  0  0  0  0  0  0  0  0  0  0
  137.3752  138.0533  154.0378 H   0  0  0  0  0  0  0  0  0  0  0  0
  138.5861  139.9833  152.9261 H   0  0  0  0  0  0  0  0  0  0  0  0
  138.8443  139.8963  154.6520 H   0  0  0  0  0  0  0  0  0  0  0  0
  140.7881  138.9778  152.4789 H   0  0  0  0  0  0  0  0  0  0  0  0
  141.3134  140.9603  152.7856 H   0  0  0  0  0  0  0  0  0  0  0  0
  141.0918  138.7083  155.5205 H   0  0  0  0  0  0  0  0  0  0  0  0
  142.3130  138.3162  154.3471 H   0  0  0  0  0  0  0  0  0  0  0  0
  144.8266  136.9514  151.6329 H   0  0  0  0  0  0  0  0  0  0  0  0
  1  2  1  0  0  0  0
  1 20  1  0  0  0  0
  1 21  1  0  0  0  0
  2  3  2  0  0  0  0
  2  4  1  0  0  0  0
  4  5  1  0  0  0  0
  4 22  1  0  0  0  0
  4 23  1  0  0  0  0
  5 19  1  0  0  0  0
  5  6  1  0  0  0  0
  6  7  2  0  0  0  0
  6 24  1  0  0  0  0
  7  8  1  0  0  0  0
  7 18  1  0  0  0  0
  8  9  1  0  0  0  0
  8 25  1  0  0  0  0
  9 10  2  0  0  0  0
  9 11  1  0  0  0  0
 11 17  1  0  0  0  0
 11 12  1  0  0  0  0
 12 13  1  0  0  0  0
 12 26  1  0  0  0  0
 12 27  1  0  0  0  0
 13 14  1  0  0  0  0
 13 28  1  0  0  0  0
 13 29  1  0  0  0  0
 14 15  1  0  0  0  0
 14 30  1  0  0  0  0
 14 31  1  0  0  0  0
 15 16  1  0  0  0  0
 15 17  1  0  0  0  0
 15 32  1  0  0  0  0
 16 33  1  0  0  0  0
 17 34  1  0  0  0  0
 17 35  1  0  0  0  0
 18 19  2  0  0  0  0
 18 36  1  0  0  0  0
M  END
> <s_m_source_file>
AV-unprocessed.smi

> <i_m_source_file_index>
1172

> <i_lp_mmshare_version>
43012

> <i_f3d_flags>
0

> <s_epik_input>
W05IMl1DKD1PKVtDSDJdbjFbY0hdYyhbY0hdbjEpW05IXUMoPU8pTjJbQ0gyXVtDSDJdW0NIMl1bQ0BASF0oW09IXSlbQ0gyXTI=

> <s_epik_cmdline>
J2VwaWtfcHl0aG9uJywgJy1waCcsICc3LjAnLCAnLXRuJywgJzgnLCAnLW1hJywgJzIwMCcsICctbWV0YWxfYmluZGluZycsICctaW1hZScsICc8aW5maWxlLm1hZT4nLCAnLW9tYWUnLCAnPG91dGZpbGUubWFlPic=

> <r_lp_tautomer_probability>
1

> <r_epik_Ionization_Penalty>
4.44977e-05

> <r_epik_Ionization_Penalty_Charging>
0

> <r_epik_Ionization_Penalty_Neutral>
4.44977e-05

> <r_epik_State_Penalty>
-0

> <r_epik_Charging_Adjusted_Penalty>
0

> <i_epik_Tot_Q>
0

> <i_epik_Tot_abs_Q>
0

> <r_epik_Metal_State_Penalty>
-0

> <b_epik_Metal_Only>
0

> <s_lp_Force_Field>
OPLS_2005

> <r_lp_Energy>
33.3056

> <b_lp_Chiralities_Consistent>
1

> <s_lp_Variant>
AV-unprocessed.smi:1172-1

> <Gold.Version>
5.8.1

> <Gold.Id.Protein>
6NUR|6NUR_protein|mol2

> <Gold.PLP.Fitness>
47.1349

> <Gold.PLP.PLP>
-37.7139

> <Gold.PLP.part.hbond>
-7.4612

> <Gold.PLP.part.metal>
0.0000

> <Gold.PLP.part.buried>
-5.4765

> <Gold.PLP.part.nonpolar>
-25.9652

> <Gold.PLP.part.repulsive>
0.7679

> <Gold.PLP.ligand.clash>
1.9879

> <Gold.PLP.ligand.torsion>
0.4457

> <Gold.PLP.Chemscore.Hbond>
2.6640

> <Gold.PLP.Chemscore.CHOScore>
1.4236

> <Gold.PLP.Chemscore.Metal>
0.0000

> <Gold.Chemscore.Hbonds>
donor molecule, donor type, donor heavy atom, donor atom, acceptor molecule, acceptor atom, score
      L1  H     1    21       P1 10186  0.86
      L1  H    16    33       P1 10160  0.50
      P1  H 11000 11005       L1    10  0.80
      L1  C     6    24       P1 10957  0.13
      L1  C    18    36       P1 10171  0.57

> <Gold.PLP.Chemscore.Internal.Correction>
0.0376

> <Gold.Rescore>
     Score         DG    S(hbond)    S(metal)    S(lipo)     H(rot)  DE(clash)    DE(int)     intcor
     14.58     -16.59       3.15        0.00      53.06       2.20       0.51       1.50       ----

> <Gold.Chemscore.Fitness>
14.5776

> <Gold.Chemscore.DG>
-16.5897

> <Gold.Chemscore.ZeroCoef>
-5.4800

> <Gold.Chemscore.Hbond>
3.1511

> <Gold.Chemscore.Metal>
0.0000

> <Gold.Chemscore.Lipo>
53.0634

> <Gold.Chemscore.Internal_Hbond>
0.0000

> <Gold.Chemscore.DEClash>
0.5073

> <Gold.Chemscore.DEInternal>
1.5049

> <Gold.Chemscore.Rot>
2.1966

> <Gold.Chemscore.Internal.Correction>
   9.000000E+99

> <Gold.Chemscore.Hbonds>
donor molecule, donor type, donor heavy atom, donor atom, acceptor molecule, acceptor atom, score
      L1  H     1    21       P1 10186  0.86
      L1  H    16    33       P1 10160  0.49
      P1  H 11000 11005       L1    10  0.62

> <Gold.Chemscore.Hbond.Weighted>
-10.5245

> <Gold.Chemscore.Metal.Weighted>
-0.0000

> <Gold.Chemscore.Lipo.Weighted>
-6.2084

> <Gold.Chemscore.Internal_Hbond.Weighted>
0.0000

> <Gold.Chemscore.DEClash.Weighted>
0.5073

> <Gold.Chemscore.DEInternal.Weighted>
1.5049

> <Gold.Chemscore.Rot.Weighted>
5.6232

> <Gold.Chemscore.Internal.Correction.Weighted>
   9.000000E+99

> <Gold.Protein.RotatedTorsions>
[ 6907 6896 6895 6894 ] final  129.51 input  -60.11 | X-H torsion
[ 7974 7965 7964 7962 ] final -101.38 input  175.53 | X-H torsion
[ 8008 7997 7996 7995 ] final  -95.67 input   59.86 | X-H torsion
[ 10167 10162 10161 10158 ] final  111.89 input  -65.29 | X-H torsion
[ 10718 10713 10712 10709 ] final  -86.96 input   66.30 | X-H torsion
[ 10763 10752 10751 10750 ] final   61.84 input  -60.55 | X-H torsion
[ 11005 11000 10999 10996 ] final   18.78 input  -57.11 | X-H torsion

> <Gold.Protein.ActiveResidues>
 VAL166  LYS551  ARG553  GLY616  TRP617  ASP618  TYR619  PRO620  LYS621  CYS622 
 ASP623  PHE694  ASN695  SER759  ASP760  ASP761  ALA762  ILE779  LEU786  VAL792 
 PHE793  MET794  SER795  GLU796  ALA797  LYS798  CYS799  TRP800  GLU811  SER814 

> <Gold.Protein.RotatedAtoms>
  152.3617  133.6305  159.6019 H   0  0  0  0  0  0  0  0  0  0  0  0  # atno 6907 bound_to 6896
  150.7605  133.9413  159.3466 H   0  0  0  0  0  0  0  0  0  0  0  0  # atno 6908 bound_to 6896
  151.7250  135.0887  160.0342 H   0  0  0  0  0  0  0  0  0  0  0  0  # atno 6909 bound_to 6896
  145.2824  140.9330  143.2924 H   0  0  0  0  0  0  0  0  0  0  0  0  # atno 7974 bound_to 7965
  154.7644  140.0478  157.1000 H   0  0  0  0  0  0  0  0  0  0  0  0  # atno 8008 bound_to 7997
  154.9897  140.3111  155.4892 H   0  0  0  0  0  0  0  0  0  0  0  0  # atno 8009 bound_to 7997
  156.2910  140.2221  156.5001 H   0  0  0  0  0  0  0  0  0  0  0  0  # atno 8010 bound_to 7997
  139.6577  144.7129  151.1926 H   0  0  0  0  0  0  0  0  0  0  0  0  # atno 10167 bound_to 10162
  155.9987  130.4783  150.4795 H   0  0  0  0  0  0  0  0  0  0  0  0  # atno 10718 bound_to 10713
  152.9963  135.5486  154.6098 H   0  0  0  0  0  0  0  0  0  0  0  0  # atno 10763 bound_to 10752
  154.5421  135.2820  155.1088 H   0  0  0  0  0  0  0  0  0  0  0  0  # atno 10764 bound_to 10752
  154.2361  135.6425  153.5244 H   0  0  0  0  0  0  0  0  0  0  0  0  # atno 10765 bound_to 10752
  140.4210  134.1519  155.7673 H   0  0  0  0  0  0  0  0  0  0  0  0  # atno 11005 bound_to 11000
  144.9242  139.4375  143.6526 LP  0  0  0  0  0  0  0  0  0  0  0  0  # atno 17320 bound_to 7965
  146.3212  139.8119  142.8944 LP  0  0  0  0  0  0  0  0  0  0  0  0  # atno 17321 bound_to 7965
  140.7566  143.6046  150.8666 LP  0  0  0  0  0  0  0  0  0  0  0  0  # atno 17342 bound_to 10162
  139.9700  143.6067  152.2976 LP  0  0  0  0  0  0  0  0  0  0  0  0  # atno 17343 bound_to 10162
  157.2802  131.0605  151.2203 LP  0  0  0  0  0  0  0  0  0  0  0  0  # atno 17370 bound_to 10713
  157.3252  130.6957  149.6292 LP  0  0  0  0  0  0  0  0  0  0  0  0  # atno 17371 bound_to 10713
  141.1784  133.8466  157.1343 LP  0  0  0  0  0  0  0  0  0  0  0  0  # atno 17394 bound_to 11000
  140.0200  134.9950  157.0572 LP  0  0  0  0  0  0  0  0  0  0  0  0  # atno 17395 bound_to 11000

$$$$
