AV-unprocessed.smi:91|AV-procd|sdf|840|dock8
  -GOLD-   2262017273D 1   1.00000     0.00000
 Structure written by MMmdl.
 60 63  0  0  0  0  0  0  0  0  1 V2000
  140.5040  136.4150  154.1301 C   0  0  0  0  0  0  0  0  0  0  0  0
  140.8903  135.0770  154.3893 O   0  0  0  0  0  0  0  0  0  0  0  0
  141.3574  134.4107  153.2279 C   0  0  0  0  0  0  0  0  0  0  0  0
  142.7007  135.0164  152.8024 C   0  0  1  0  0  0  0  0  0  0  0  0
  143.4490  135.6577  153.9833 C   0  0  0  0  0  0  0  0  0  0  0  0
  144.7606  136.1098  153.5440 N   0  0  0  0  0  0  0  0  0  0  0  0
  145.4373  136.8625  154.4358 C   0  0  0  0  0  0  0  0  0  0  0  0
  145.3506  136.4968  155.7380 N   0  0  0  0  0  0  0  0  0  0  0  0
  145.9858  137.2077  156.6748 C   0  0  0  0  0  0  0  0  0  0  0  0
  146.7414  138.2984  156.5272 N   0  0  0  0  0  0  0  0  0  0  0  0
  146.8252  138.6697  155.2172 C   0  0  0  0  0  0  0  0  0  0  0  0
  146.2077  138.0159  154.1141 C   0  0  0  0  0  0  0  0  0  0  0  0
  146.5059  138.6912  152.9362 N   0  0  0  0  0  0  0  0  0  0  0  0
  147.2632  139.6826  153.3204 C   0  0  0  0  0  0  0  0  0  0  0  0
  147.5108  139.7411  154.6732 N   0  0  0  0  0  0  0  0  0  0  0  0
  148.3051  140.7349  155.3727 C   0  0  0  0  0  0  0  0  0  0  0  0
  149.5937  140.1526  156.0165 C   0  0  1  0  0  0  0  0  0  0  0  0
  150.3419  139.1725  155.0833 C   0  0  0  0  0  0  0  0  0  0  0  0
  150.2540  139.5600  153.7281 O   0  0  0  0  0  0  0  0  0  0  0  0
  150.5612  141.2478  156.5375 C   0  0  1  0  0  0  0  0  0  0  0  0
  149.9765  142.2277  157.5536 C   0  0  0  0  0  0  0  0  0  0  0  0
  151.1659  142.5344  158.4537 C   0  0  0  0  0  0  0  0  0  0  0  0
  151.8251  141.2823  158.5294 O   0  0  0  0  0  0  0  0  0  0  0  0
  151.8373  140.7251  157.2217 C   0  0  0  0  0  0  0  0  0  0  0  0
  145.5610  135.0360  152.9736 C   0  0  0  0  0  0  0  0  0  0  0  0
  144.8108  134.3466  151.8114 C   0  0  0  0  0  0  0  0  0  0  0  0
  144.7383  135.2461  150.5593 C   0  0  0  0  0  0  0  0  0  0  0  0
  145.5159  133.0307  151.4484 C   0  0  0  0  0  0  0  0  0  0  0  0
  143.4998  133.9685  152.2494 O   0  0  0  0  0  0  0  0  0  0  0  0
  140.1516  136.8790  155.0513 H   0  0  0  0  0  0  0  0  0  0  0  0
  139.6942  136.4574  153.4005 H   0  0  0  0  0  0  0  0  0  0  0  0
  141.3436  137.0026  153.7570 H   0  0  0  0  0  0  0  0  0  0  0  0
  141.4621  133.3399  153.4112 H   0  0  0  0  0  0  0  0  0  0  0  0
  140.6294  134.5350  152.4244 H   0  0  0  0  0  0  0  0  0  0  0  0
  142.5051  135.7660  152.0354 H   0  0  0  0  0  0  0  0  0  0  0  0
  142.8801  136.4996  154.3803 H   0  0  0  0  0  0  0  0  0  0  0  0
  143.5555  134.9290  154.7873 H   0  0  0  0  0  0  0  0  0  0  0  0
  145.8713  136.8523  157.6881 H   0  0  0  0  0  0  0  0  0  0  0  0
  147.6675  140.4009  152.6222 H   0  0  0  0  0  0  0  0  0  0  0  0
  148.5508  141.5296  154.6682 H   0  0  0  0  0  0  0  0  0  0  0  0
  147.6592  141.1871  156.1244 H   0  0  0  0  0  0  0  0  0  0  0  0
  149.2987  139.5877  156.9022 H   0  0  0  0  0  0  0  0  0  0  0  0
  151.3902  139.0854  155.3703 H   0  0  0  0  0  0  0  0  0  0  0  0
  149.9107  138.1736  155.1557 H   0  0  0  0  0  0  0  0  0  0  0  0
  150.2286  138.7813  153.1935 H   0  0  0  0  0  0  0  0  0  0  0  0
  150.8973  141.8299  155.6776 H   0  0  0  0  0  0  0  0  0  0  0  0
  149.5611  143.1219  157.0882 H   0  0  0  0  0  0  0  0  0  0  0  0
  149.1899  141.7710  158.1518 H   0  0  0  0  0  0  0  0  0  0  0  0
  151.8255  143.2734  157.9961 H   0  0  0  0  0  0  0  0  0  0  0  0
  150.8691  142.8958  159.4383 H   0  0  0  0  0  0  0  0  0  0  0  0
  151.9025  139.6378  157.2627 H   0  0  0  0  0  0  0  0  0  0  0  0
  152.7228  141.0823  156.6935 H   0  0  0  0  0  0  0  0  0  0  0  0
  146.5194  135.4254  152.6262 H   0  0  0  0  0  0  0  0  0  0  0  0
  145.7797  134.3097  153.7581 H   0  0  0  0  0  0  0  0  0  0  0  0
  145.7341  135.4334  150.1564 H   0  0  0  0  0  0  0  0  0  0  0  0
  144.2959  136.2195  150.7697 H   0  0  0  0  0  0  0  0  0  0  0  0
  144.1473  134.7770  149.7722 H   0  0  0  0  0  0  0  0  0  0  0  0
  146.5422  133.2066  151.1244 H   0  0  0  0  0  0  0  0  0  0  0  0
  144.9967  132.5137  150.6407 H   0  0  0  0  0  0  0  0  0  0  0  0
  145.5504  132.3530  152.3020 H   0  0  0  0  0  0  0  0  0  0  0  0
  1  2  1  0  0  0  0
  1 30  1  0  0  0  0
  1 31  1  0  0  0  0
  1 32  1  0  0  0  0
  2  3  1  0  0  0  0
  3  4  1  0  0  0  0
  3 33  1  0  0  0  0
  3 34  1  0  0  0  0
  4 29  1  0  0  0  0
  4  5  1  0  0  0  0
  4 35  1  0  0  0  0
  5  6  1  0  0  0  0
  5 36  1  0  0  0  0
  5 37  1  0  0  0  0
  6  7  1  0  0  0  0
  6 25  1  0  0  0  0
  7 12  1  0  0  0  0
  7  8  2  0  0  0  0
  8  9  1  0  0  0  0
  9 10  2  0  0  0  0
  9 38  1  0  0  0  0
 10 11  1  0  0  0  0
 11 15  1  0  0  0  0
 11 12  2  0  0  0  0
 12 13  1  0  0  0  0
 13 14  2  0  0  0  0
 14 15  1  0  0  0  0
 14 39  1  0  0  0  0
 15 16  1  0  0  0  0
 16 17  1  0  0  0  0
 16 40  1  0  0  0  0
 16 41  1  0  0  0  0
 17 18  1  0  0  0  0
 17 20  1  0  0  0  0
 17 42  1  0  0  0  0
 18 19  1  0  0  0  0
 18 43  1  0  0  0  0
 18 44  1  0  0  0  0
 19 45  1  0  0  0  0
 20 24  1  0  0  0  0
 20 21  1  0  0  0  0
 20 46  1  0  0  0  0
 21 22  1  0  0  0  0
 21 47  1  0  0  0  0
 21 48  1  0  0  0  0
 22 23  1  0  0  0  0
 22 49  1  0  0  0  0
 22 50  1  0  0  0  0
 23 24  1  0  0  0  0
 24 51  1  0  0  0  0
 24 52  1  0  0  0  0
 25 26  1  0  0  0  0
 25 53  1  0  0  0  0
 25 54  1  0  0  0  0
 26 27  1  0  0  0  0
 26 28  1  0  0  0  0
 26 29  1  0  0  0  0
 27 55  1  0  0  0  0
 27 56  1  0  0  0  0
 27 57  1  0  0  0  0
 28 58  1  0  0  0  0
 28 59  1  0  0  0  0
 28 60  1  0  0  0  0
M  END
> <s_m_source_file>
AV-unprocessed.smi

> <i_m_source_file_index>
91

> <i_lp_mmshare_version>
43012

> <i_f3d_flags>
0

> <s_epik_input>
W0NIM11PW0NIMl1bQ0BASF0oTzEpW0NIMl1OKFtDSDJdQzEoW0NIM10pW0NIM10pYyhuW2NIXW4yKWMoYzIzKW5bY0hdbjNbQ0gyXVtDQEhdKFtDSDJdW09IXSlbQ0BASF00W0NIMl1bQ0gyXU9bQ0gyXTQ=

> <s_epik_cmdline>
J2VwaWtfcHl0aG9uJywgJy1waCcsICc3LjAnLCAnLXRuJywgJzgnLCAnLW1hJywgJzIwMCcsICctbWV0YWxfYmluZGluZycsICctaW1hZScsICc8aW5maWxlLm1hZT4nLCAnLW9tYWUnLCAnPG91dGZpbGUubWFlPic=

> <r_lp_tautomer_probability>
1

> <r_epik_Ionization_Penalty>
8.63591e-05

> <r_epik_Ionization_Penalty_Charging>
0

> <r_epik_Ionization_Penalty_Neutral>
8.63591e-05

> <r_epik_State_Penalty>
-0

> <r_epik_Charging_Adjusted_Penalty>
0

> <i_epik_Tot_Q>
0

> <i_epik_Tot_abs_Q>
0

> <r_epik_Metal_State_Penalty>
-0

> <b_epik_Metal_Only>
0

> <s_lp_Force_Field>
OPLS_2005

> <r_lp_Energy>
49.4407

> <b_lp_Chiralities_Consistent>
1

> <s_lp_Variant>
AV-unprocessed.smi:91-8

> <Gold.Version>
5.8.1

> <Gold.Id.Protein>
6NUR|6NUR_protein|mol2

> <Gold.PLP.Fitness>
40.9324

> <Gold.PLP.PLP>
-35.0370

> <Gold.PLP.part.hbond>
-3.0824

> <Gold.PLP.part.metal>
0.0000

> <Gold.PLP.part.buried>
-6.6053

> <Gold.PLP.part.nonpolar>
-26.2847

> <Gold.PLP.part.repulsive>
0.6315

> <Gold.PLP.ligand.clash>
0.0000

> <Gold.PLP.ligand.torsion>
1.6310

> <Gold.PLP.Chemscore.Hbond>
1.9840

> <Gold.PLP.Chemscore.CHOScore>
0.9544

> <Gold.PLP.Chemscore.Metal>
0.0000

> <Gold.Chemscore.Hbonds>
donor molecule, donor type, donor heavy atom, donor atom, acceptor molecule, acceptor atom, score
      P1  H  7989  7998       L1    19  0.93
      P1  H 11000 11005       L1     2  1.00
      L1  C    14    39       P1  7957  0.92

> <Gold.PLP.Chemscore.Internal.Correction>
0.3422

> <Gold.Rescore>
     Score         DG    S(hbond)    S(metal)    S(lipo)     H(rot)  DE(clash)    DE(int)     intcor
     12.06     -13.49       1.87        0.00      81.37       3.03       0.02       1.40       ----

> <Gold.Chemscore.Fitness>
12.0647

> <Gold.Chemscore.DG>
-13.4887

> <Gold.Chemscore.ZeroCoef>
-5.4800

> <Gold.Chemscore.Hbond>
1.8686

> <Gold.Chemscore.Metal>
0.0000

> <Gold.Chemscore.Lipo>
81.3705

> <Gold.Chemscore.Internal_Hbond>
0.0000

> <Gold.Chemscore.DEClash>
0.0249

> <Gold.Chemscore.DEInternal>
1.3992

> <Gold.Chemscore.Rot>
3.0284

> <Gold.Chemscore.Internal.Correction>
   9.000000E+99

> <Gold.Chemscore.Hbonds>
donor molecule, donor type, donor heavy atom, donor atom, acceptor molecule, acceptor atom, score
      P1  H  7989  7998       L1    19  0.48
      P1  H 11000 11005       L1     2  0.93

> <Gold.Chemscore.Hbond.Weighted>
-6.2412

> <Gold.Chemscore.Metal.Weighted>
-0.0000

> <Gold.Chemscore.Lipo.Weighted>
-9.5203

> <Gold.Chemscore.Internal_Hbond.Weighted>
0.0000

> <Gold.Chemscore.DEClash.Weighted>
0.0249

> <Gold.Chemscore.DEInternal.Weighted>
1.3992

> <Gold.Chemscore.Rot.Weighted>
7.7528

> <Gold.Chemscore.Internal.Correction.Weighted>
   9.000000E+99

> <Gold.Protein.RotatedTorsions>
[ 6907 6896 6895 6894 ] final   18.37 input  -60.11 | X-H torsion
[ 7974 7965 7964 7962 ] final   -0.06 input  175.53 | X-H torsion
[ 8008 7997 7996 7995 ] final  -36.50 input   59.86 | X-H torsion
[ 10167 10162 10161 10158 ] final -126.78 input  -65.29 | X-H torsion
[ 10718 10713 10712 10709 ] final   82.28 input   66.30 | X-H torsion
[ 10763 10752 10751 10750 ] final  179.88 input  -60.55 | X-H torsion
[ 11005 11000 10999 10996 ] final   24.68 input  -57.11 | X-H torsion

> <Gold.Protein.ActiveResidues>
 VAL166  LYS551  ARG553  GLY616  TRP617  ASP618  TYR619  PRO620  LYS621  CYS622 
 ASP623  PHE694  ASN695  SER759  ASP760  ASP761  ALA762  ILE779  LEU786  VAL792 
 PHE793  MET794  SER795  GLU796  ALA797  LYS798  CYS799  TRP800  GLU811  SER814 

> <Gold.Protein.RotatedAtoms>
  151.8642  135.0513  160.0472 H   0  0  0  0  0  0  0  0  0  0  0  0  # atno 6907 bound_to 6896
  152.2639  133.5317  159.5406 H   0  0  0  0  0  0  0  0  0  0  0  0  # atno 6908 bound_to 6896
  150.7126  134.0708  159.3906 H   0  0  0  0  0  0  0  0  0  0  0  0  # atno 6909 bound_to 6896
  146.2430  140.1212  142.8340 H   0  0  0  0  0  0  0  0  0  0  0  0  # atno 7974 bound_to 7965
  154.4072  140.1629  156.2384 H   0  0  0  0  0  0  0  0  0  0  0  0  # atno 8008 bound_to 7997
  155.9222  140.3420  155.6159 H   0  0  0  0  0  0  0  0  0  0  0  0  # atno 8009 bound_to 7997
  155.7208  140.0768  157.2322 H   0  0  0  0  0  0  0  0  0  0  0  0  # atno 8010 bound_to 7997
  139.9678  143.5879  152.2423 H   0  0  0  0  0  0  0  0  0  0  0  0  # atno 10167 bound_to 10162
  157.6853  131.0041  150.2351 H   0  0  0  0  0  0  0  0  0  0  0  0  # atno 10718 bound_to 10713
  154.5264  135.2797  155.1218 H   0  0  0  0  0  0  0  0  0  0  0  0  # atno 10763 bound_to 10752
  154.2755  135.6295  153.5330 H   0  0  0  0  0  0  0  0  0  0  0  0  # atno 10764 bound_to 10752
  152.9947  135.5638  154.5766 H   0  0  0  0  0  0  0  0  0  0  0  0  # atno 10765 bound_to 10752
  140.3560  134.2177  155.7676 H   0  0  0  0  0  0  0  0  0  0  0  0  # atno 11005 bound_to 11000
  145.0404  140.8941  143.5056 LP  0  0  0  0  0  0  0  0  0  0  0  0  # atno 17320 bound_to 7965
  145.1292  139.2643  143.5548 LP  0  0  0  0  0  0  0  0  0  0  0  0  # atno 17321 bound_to 7965
  139.6504  144.7660  151.2159 LP  0  0  0  0  0  0  0  0  0  0  0  0  # atno 17342 bound_to 10162
  140.7532  143.6169  150.8550 LP  0  0  0  0  0  0  0  0  0  0  0  0  # atno 17343 bound_to 10162
  156.2976  130.3754  149.7781 LP  0  0  0  0  0  0  0  0  0  0  0  0  # atno 17370 bound_to 10713
  156.5421  130.8304  151.3272 LP  0  0  0  0  0  0  0  0  0  0  0  0  # atno 17371 bound_to 10713
  141.1998  133.8002  157.0519 LP  0  0  0  0  0  0  0  0  0  0  0  0  # atno 17394 bound_to 11000
  140.0664  134.9726  157.1394 LP  0  0  0  0  0  0  0  0  0  0  0  0  # atno 17395 bound_to 11000

$$$$
