AV-unprocessed.smi:2178|AV-procd|sdf|8853|dock10
  -GOLD-   2272012 43D 1   1.00000     0.00000
 Structure written by MMmdl.
 46 48  0  0  0  0  0  0  0  0  1 V2000
  151.4475  143.5830  157.9559 C   0  0  0  0  0  0  0  0  0  0  0  0
  151.9349  143.1698  159.3321 C   0  0  0  0  0  0  0  0  0  0  0  0
  151.7242  144.0247  160.4336 C   0  0  0  0  0  0  0  0  0  0  0  0
  152.1809  143.6571  161.7128 C   0  0  0  0  0  0  0  0  0  0  0  0
  152.8563  142.4362  161.8947 C   0  0  0  0  0  0  0  0  0  0  0  0
  153.0744  141.5740  160.8002 C   0  0  0  0  0  0  0  0  0  0  0  0
  153.8204  140.2707  161.0168 C   0  0  0  0  0  0  0  0  0  0  0  0
  152.5995  141.9346  159.5165 C   0  0  0  0  0  0  0  0  0  0  0  0
  152.8039  141.1063  158.4434 O   0  0  0  0  0  0  0  0  0  0  0  0
  152.0030  139.9335  158.4668 C   0  0  0  0  0  0  0  0  0  0  0  0
  152.1293  139.2198  157.1141 C   0  0  1  0  0  0  0  0  0  0  0  0
  153.4308  138.6786  157.0090 O   0  0  0  0  0  0  0  0  0  0  0  0
  151.0788  138.1046  156.9405 C   0  0  0  0  0  0  0  0  0  0  0  0
  149.7344  138.5459  157.2870 N   0  0  0  0  0  0  0  0  0  0  0  0
  148.9037  138.0577  158.2430 C   0  0  0  0  0  0  0  0  0  0  0  0
  149.3120  136.9136  159.1274 C   0  0  0  0  0  0  0  0  0  0  0  0
  150.5615  137.0949  159.7634 O   0  0  0  0  0  0  0  0  0  0  0  0
  147.7187  138.6660  158.3410 N   0  0  0  0  0  0  0  0  0  0  0  0
  147.7877  139.6334  157.3582 C   0  0  0  0  0  0  0  0  0  0  0  0
  146.8433  140.6052  156.9569 C   0  0  0  0  0  0  0  0  0  0  0  0
  147.1430  141.5025  155.9108 C   0  0  0  0  0  0  0  0  0  0  0  0
  148.3891  141.4424  155.2536 C   0  0  0  0  0  0  0  0  0  0  0  0
  149.3442  140.4818  155.6384 C   0  0  0  0  0  0  0  0  0  0  0  0
  149.0386  139.5870  156.6815 C   0  0  0  0  0  0  0  0  0  0  0  0
  151.1349  144.6275  157.9426 H   0  0  0  0  0  0  0  0  0  0  0  0
  150.5981  142.9705  157.6536 H   0  0  0  0  0  0  0  0  0  0  0  0
  152.2403  143.4613  157.2173 H   0  0  0  0  0  0  0  0  0  0  0  0
  151.2132  144.9673  160.3021 H   0  0  0  0  0  0  0  0  0  0  0  0
  152.0177  144.3146  162.5539 H   0  0  0  0  0  0  0  0  0  0  0  0
  153.2099  142.1652  162.8789 H   0  0  0  0  0  0  0  0  0  0  0  0
  154.4471  140.0299  160.1578 H   0  0  0  0  0  0  0  0  0  0  0  0
  153.1161  139.4533  161.1715 H   0  0  0  0  0  0  0  0  0  0  0  0
  154.4675  140.3327  161.8923 H   0  0  0  0  0  0  0  0  0  0  0  0
  152.3512  139.2805  159.2682 H   0  0  0  0  0  0  0  0  0  0  0  0
  150.9582  140.1704  158.6760 H   0  0  0  0  0  0  0  0  0  0  0  0
  152.0177  139.9553  156.3165 H   0  0  0  0  0  0  0  0  0  0  0  0
  153.5440  138.3355  156.1357 H   0  0  0  0  0  0  0  0  0  0  0  0
  151.0919  137.7194  155.9211 H   0  0  0  0  0  0  0  0  0  0  0  0
  151.3254  137.2591  157.5834 H   0  0  0  0  0  0  0  0  0  0  0  0
  148.5563  136.7645  159.8984 H   0  0  0  0  0  0  0  0  0  0  0  0
  149.3553  136.0023  158.5302 H   0  0  0  0  0  0  0  0  0  0  0  0
  150.6392  138.0007  160.0199 H   0  0  0  0  0  0  0  0  0  0  0  0
  145.8865  140.6598  157.4547 H   0  0  0  0  0  0  0  0  0  0  0  0
  146.4131  142.2404  155.6114 H   0  0  0  0  0  0  0  0  0  0  0  0
  148.6111  142.1337  154.4539 H   0  0  0  0  0  0  0  0  0  0  0  0
  150.2994  140.4321  155.1371 H   0  0  0  0  0  0  0  0  0  0  0  0
  1  2  1  0  0  0  0
  1 25  1  0  0  0  0
  1 26  1  0  0  0  0
  1 27  1  0  0  0  0
  2  8  1  0  0  0  0
  2  3  2  0  0  0  0
  3  4  1  0  0  0  0
  3 28  1  0  0  0  0
  4  5  2  0  0  0  0
  4 29  1  0  0  0  0
  5  6  1  0  0  0  0
  5 30  1  0  0  0  0
  6  7  1  0  0  0  0
  6  8  2  0  0  0  0
  7 31  1  0  0  0  0
  7 32  1  0  0  0  0
  7 33  1  0  0  0  0
  8  9  1  0  0  0  0
  9 10  1  0  0  0  0
 10 11  1  0  0  0  0
 10 34  1  0  0  0  0
 10 35  1  0  0  0  0
 11 12  1  0  0  0  0
 11 13  1  0  0  0  0
 11 36  1  0  0  0  0
 12 37  1  0  0  0  0
 13 14  1  0  0  0  0
 13 38  1  0  0  0  0
 13 39  1  0  0  0  0
 14 24  1  0  0  0  0
 14 15  1  0  0  0  0
 15 16  1  0  0  0  0
 15 18  2  0  0  0  0
 16 17  1  0  0  0  0
 16 40  1  0  0  0  0
 16 41  1  0  0  0  0
 17 42  1  0  0  0  0
 18 19  1  0  0  0  0
 19 24  2  0  0  0  0
 19 20  1  0  0  0  0
 20 21  2  0  0  0  0
 20 43  1  0  0  0  0
 21 22  1  0  0  0  0
 21 44  1  0  0  0  0
 22 23  2  0  0  0  0
 22 45  1  0  0  0  0
 23 24  1  0  0  0  0
 23 46  1  0  0  0  0
M  END
> <s_m_source_file>
AV-unprocessed.smi

> <i_m_source_file_index>
2178

> <i_lp_mmshare_version>
43012

> <i_f3d_flags>
0

> <s_epik_input>
W0NIM11jMVtjSF1bY0hdW2NIXWMoW0NIM10pYzFPW0NIMl1bQ0BIXShbT0hdKVtDSDJdbihjKG4yKVtDSDJdW09IXSljKGMyMylbY0hdW2NIXVtjSF1bY0hdMw==

> <s_epik_cmdline>
J2VwaWtfcHl0aG9uJywgJy1waCcsICc3LjAnLCAnLXRuJywgJzgnLCAnLW1hJywgJzIwMCcsICctbWV0YWxfYmluZGluZycsICctaW1hZScsICc8aW5maWxlLm1hZT4nLCAnLW9tYWUnLCAnPG91dGZpbGUubWFlPic=

> <r_lp_tautomer_probability>
1

> <r_epik_Ionization_Penalty>
0.0555874

> <r_epik_Ionization_Penalty_Charging>
0

> <r_epik_Ionization_Penalty_Neutral>
0.0555874

> <r_epik_State_Penalty>
0.0478234

> <r_epik_Charging_Adjusted_Penalty>
0.0478234

> <i_epik_Tot_Q>
0

> <i_epik_Tot_abs_Q>
0

> <r_epik_Metal_State_Penalty>
4.98044e-05

> <b_epik_Metal_Only>
0

> <s_lp_Force_Field>
OPLS_2005

> <r_lp_Energy>
18.9383

> <b_lp_Chiralities_Consistent>
1

> <s_lp_Variant>
AV-unprocessed.smi:2178-2

> <Gold.Version>
5.8.1

> <Gold.Id.Protein>
6NUR|6NUR_protein|mol2

> <Gold.PLP.Fitness>
48.1739

> <Gold.PLP.PLP>
-42.9426

> <Gold.PLP.part.hbond>
-3.8379

> <Gold.PLP.part.metal>
0.0000

> <Gold.PLP.part.buried>
-2.9157

> <Gold.PLP.part.nonpolar>
-36.2133

> <Gold.PLP.part.repulsive>
0.0000

> <Gold.PLP.ligand.clash>
0.0000

> <Gold.PLP.ligand.torsion>
0.3404

> <Gold.PLP.Chemscore.Hbond>
1.9188

> <Gold.PLP.Chemscore.CHOScore>
0.0000

> <Gold.PLP.Chemscore.Metal>
0.0000

> <Gold.Chemscore.Hbonds>
donor molecule, donor type, donor heavy atom, donor atom, acceptor molecule, acceptor atom, score
      P1  H  6896  6909       L1    17  0.88
      P1  H  7997  8009       L1    12  0.80

> <Gold.PLP.Chemscore.Internal.Correction>
0.1560

> <Gold.Rescore>
     Score         DG    S(hbond)    S(metal)    S(lipo)     H(rot)  DE(clash)    DE(int)     intcor
     14.91     -15.27       1.11        0.00     116.73       2.96       0.04       0.33       ----

> <Gold.Chemscore.Fitness>
14.9119

> <Gold.Chemscore.DG>
-15.2746

> <Gold.Chemscore.ZeroCoef>
-5.4800

> <Gold.Chemscore.Hbond>
1.1092

> <Gold.Chemscore.Metal>
0.0000

> <Gold.Chemscore.Lipo>
116.7302

> <Gold.Chemscore.Internal_Hbond>
0.0000

> <Gold.Chemscore.DEClash>
0.0351

> <Gold.Chemscore.DEInternal>
0.3277

> <Gold.Chemscore.Rot>
2.9561

> <Gold.Chemscore.Internal.Correction>
   9.000000E+99

> <Gold.Chemscore.Hbonds>
donor molecule, donor type, donor heavy atom, donor atom, acceptor molecule, acceptor atom, score
      P1  H  6896  6909       L1    17  0.29
      P1  H  7997  8009       L1    12  0.06

> <Gold.Chemscore.Hbond.Weighted>
-3.7049

> <Gold.Chemscore.Metal.Weighted>
-0.0000

> <Gold.Chemscore.Lipo.Weighted>
-13.6574

> <Gold.Chemscore.Internal_Hbond.Weighted>
0.0000

> <Gold.Chemscore.DEClash.Weighted>
0.0351

> <Gold.Chemscore.DEInternal.Weighted>
0.3277

> <Gold.Chemscore.Rot.Weighted>
7.5677

> <Gold.Chemscore.Internal.Correction.Weighted>
   9.000000E+99

> <Gold.Protein.RotatedTorsions>
[ 6907 6896 6895 6894 ] final  101.21 input  -60.11 | X-H torsion
[ 7974 7965 7964 7962 ] final  -15.76 input  175.53 | X-H torsion
[ 8008 7997 7996 7995 ] final  168.12 input   59.86 | X-H torsion
[ 10167 10162 10161 10158 ] final  137.75 input  -65.29 | X-H torsion
[ 10718 10713 10712 10709 ] final   -4.12 input   66.30 | X-H torsion
[ 10763 10752 10751 10750 ] final   -6.06 input  -60.55 | X-H torsion
[ 11005 11000 10999 10996 ] final   50.71 input  -57.11 | X-H torsion

> <Gold.Protein.ActiveResidues>
 VAL166  LYS551  ARG553  GLY616  TRP617  ASP618  TYR619  PRO620  LYS621  CYS622 
 ASP623  PHE694  ASN695  SER759  ASP760  ASP761  ALA762  ILE779  LEU786  VAL792 
 PHE793  MET794  SER795  GLU796  ALA797  LYS798  CYS799  TRP800  GLU811  SER814 

> <Gold.Protein.RotatedAtoms>
  152.5355  134.0161  159.7960 H   0  0  0  0  0  0  0  0  0  0  0  0  # atno 6907 bound_to 6896
  151.0355  133.5744  159.2663 H   0  0  0  0  0  0  0  0  0  0  0  0  # atno 6908 bound_to 6896
  151.2733  135.0699  159.9196 H   0  0  0  0  0  0  0  0  0  0  0  0  # atno 6909 bound_to 6896
  146.2018  140.3539  142.8421 H   0  0  0  0  0  0  0  0  0  0  0  0  # atno 7974 bound_to 7965
  156.1575  140.1599  156.8668 H   0  0  0  0  0  0  0  0  0  0  0  0  # atno 8008 bound_to 7997
  154.5129  140.0796  156.8060 H   0  0  0  0  0  0  0  0  0  0  0  0  # atno 8009 bound_to 7997
  155.3774  140.3403  155.4247 H   0  0  0  0  0  0  0  0  0  0  0  0  # atno 8010 bound_to 7997
  139.5134  144.6392  151.5614 H   0  0  0  0  0  0  0  0  0  0  0  0  # atno 10167 bound_to 10162
  156.7660  130.5284  149.5776 H   0  0  0  0  0  0  0  0  0  0  0  0  # atno 10718 bound_to 10713
  153.4072  135.7006  153.6385 H   0  0  0  0  0  0  0  0  0  0  0  0  # atno 10763 bound_to 10752
  153.4894  135.3676  155.2484 H   0  0  0  0  0  0  0  0  0  0  0  0  # atno 10764 bound_to 10752
  154.8714  135.4085  154.3417 H   0  0  0  0  0  0  0  0  0  0  0  0  # atno 10765 bound_to 10752
  140.0994  134.5101  155.8776 H   0  0  0  0  0  0  0  0  0  0  0  0  # atno 11005 bound_to 11000
  144.8700  140.7259  143.6053 LP  0  0  0  0  0  0  0  0  0  0  0  0  # atno 17320 bound_to 7965
  145.3458  139.1719  143.4461 LP  0  0  0  0  0  0  0  0  0  0  0  0  # atno 17321 bound_to 7965
  140.6153  143.9360  150.6484 LP  0  0  0  0  0  0  0  0  0  0  0  0  # atno 17342 bound_to 10162
  140.2616  143.3520  152.1317 LP  0  0  0  0  0  0  0  0  0  0  0  0  # atno 17343 bound_to 10162
  156.1308  130.6177  151.0331 LP  0  0  0  0  0  0  0  0  0  0  0  0  # atno 17370 bound_to 10713
  157.6713  131.0861  150.7605 LP  0  0  0  0  0  0  0  0  0  0  0  0  # atno 17371 bound_to 10713
  141.2101  133.6691  156.6488 LP  0  0  0  0  0  0  0  0  0  0  0  0  # atno 17394 bound_to 11000
  140.3240  134.7984  157.4275 LP  0  0  0  0  0  0  0  0  0  0  0  0  # atno 17395 bound_to 11000

$$$$
