AV-unprocessed.smi:1240|AV-procd|sdf|5210|dock8
  -GOLD-   22720 4303D 1   1.00000     0.00000
 Structure written by MMmdl.
 49 51  0  0  0  0  0  0  0  0  3 V2000
  144.7966  137.2259  151.9666 O   0  0  0  0  0  0  0  0  0  0  0  0
  146.0033  136.9886  151.9202 C   0  0  0  0  0  0  0  0  0  0  0  0
  146.9435  137.9098  152.1751 N   0  0  0  0  0  0  0  0  0  0  0  0
  146.6724  139.3025  152.5152 C   0  0  0  0  0  0  0  0  0  0  0  0
  146.5941  139.5734  154.0454 C   0  0  1  0  0  0  0  0  0  0  0  0
  147.9748  139.5478  154.7603 C   0  0  1  0  0  0  0  0  0  0  0  0
  148.6910  138.2091  154.6761 C   0  0  0  0  0  0  0  0  0  0  0  0
  150.1235  138.5830  155.0361 C   0  0  0  0  0  0  0  0  0  0  0  0
  150.3110  139.8937  154.5183 O   0  0  0  0  0  0  0  0  0  0  0  0
  149.0541  140.4644  154.1696 C   0  0  0  0  0  0  0  0  0  0  0  0
  145.8918  140.8579  154.3446 N   0  3  0  0  0  0  0  0  0  0  0  0
  145.5464  141.0972  155.7692 C   0  0  0  0  0  0  0  0  0  0  0  0
  144.6808  142.3618  155.8939 C   0  0  0  0  0  0  0  0  0  0  0  0
  145.3766  143.4706  155.3368 O   0  0  0  0  0  0  0  0  0  0  0  0
  145.6494  143.2914  153.9518 C   0  0  0  0  0  0  0  0  0  0  0  0
  146.5414  142.0540  153.7542 C   0  0  0  0  0  0  0  0  0  0  0  0
  146.5526  135.7941  151.6392 N   0  0  0  0  0  0  0  0  0  0  0  0
  145.9034  134.5752  151.2998 C   0  0  0  0  0  0  0  0  0  0  0  0
  144.5039  134.5091  151.4821 C   0  0  0  0  0  0  0  0  0  0  0  0
  143.8173  133.3164  151.1761 C   0  0  0  0  0  0  0  0  0  0  0  0
  144.5010  132.2449  150.7210 N   0  3  0  0  0  0  0  0  0  0  0  0
  145.8395  132.2550  150.5432 C   0  0  0  0  0  0  0  0  0  0  0  0
  146.5800  133.4196  150.8319 C   0  0  0  0  0  0  0  0  0  0  0  0
  147.9135  137.6339  152.1201 H   0  0  0  0  0  0  0  0  0  0  0  0
  147.4665  139.9002  152.0675 H   0  0  0  0  0  0  0  0  0  0  0  0
  145.7496  139.6017  152.0171 H   0  0  0  0  0  0  0  0  0  0  0  0
  145.9941  138.7842  154.5010 H   0  0  0  0  0  0  0  0  0  0  0  0
  147.8526  139.8070  155.8128 H   0  0  0  0  0  0  0  0  0  0  0  0
  148.2775  137.4546  155.3459 H   0  0  0  0  0  0  0  0  0  0  0  0
  148.6528  137.8188  153.6576 H   0  0  0  0  0  0  0  0  0  0  0  0
  150.2479  138.6146  156.1191 H   0  0  0  0  0  0  0  0  0  0  0  0
  150.8543  137.8836  154.6294 H   0  0  0  0  0  0  0  0  0  0  0  0
  148.9868  140.4942  153.0813 H   0  0  0  0  0  0  0  0  0  0  0  0
  148.9838  141.4865  154.5419 H   0  0  0  0  0  0  0  0  0  0  0  0
  145.0058  140.2456  156.1810 H   0  0  0  0  0  0  0  0  0  0  0  0
  146.4520  141.2245  156.3633 H   0  0  0  0  0  0  0  0  0  0  0  0
  143.7199  142.2288  155.3940 H   0  0  0  0  0  0  0  0  0  0  0  0
  144.4684  142.5694  156.9428 H   0  0  0  0  0  0  0  0  0  0  0  0
  144.7159  143.1919  153.3955 H   0  0  0  0  0  0  0  0  0  0  0  0
  146.1524  144.1811  153.5726 H   0  0  0  0  0  0  0  0  0  0  0  0
  147.5130  142.2243  154.2186 H   0  0  0  0  0  0  0  0  0  0  0  0
  146.7174  141.8984  152.6893 H   0  0  0  0  0  0  0  0  0  0  0  0
  147.5573  135.7389  151.7225 H   0  0  0  0  0  0  0  0  0  0  0  0
  143.9559  135.3648  151.8493 H   0  0  0  0  0  0  0  0  0  0  0  0
  142.7501  133.1878  151.2834 H   0  0  0  0  0  0  0  0  0  0  0  0
  146.2771  131.3351  150.1838 H   0  0  0  0  0  0  0  0  0  0  0  0
  147.6509  133.3957  150.7009 H   0  0  0  0  0  0  0  0  0  0  0  0
  145.0080  140.7825  153.8613 H   0  0  0  0  0  0  0  0  0  0  0  0
  143.9860  131.3900  150.5075 H   0  0  0  0  0  0  0  0  0  0  0  0
  1  2  2  0  0  0  0
  2  3  1  0  0  0  0
  2 17  1  0  0  0  0
  3  4  1  0  0  0  0
  3 24  1  0  0  0  0
  4  5  1  0  0  0  0
  4 25  1  0  0  0  0
  4 26  1  0  0  0  0
  5  6  1  0  0  0  0
  5 11  1  0  0  0  0
  5 27  1  0  0  0  0
  6 10  1  0  0  0  0
  6  7  1  0  0  0  0
  6 28  1  0  0  0  0
  7  8  1  0  0  0  0
  7 29  1  0  0  0  0
  7 30  1  0  0  0  0
  8  9  1  0  0  0  0
  8 31  1  0  0  0  0
  8 32  1  0  0  0  0
  9 10  1  0  0  0  0
 10 33  1  0  0  0  0
 10 34  1  0  0  0  0
 11 16  1  0  0  0  0
 11 12  1  0  0  0  0
 11 48  1  0  0  0  0
 12 13  1  0  0  0  0
 12 35  1  0  0  0  0
 12 36  1  0  0  0  0
 13 14  1  0  0  0  0
 13 37  1  0  0  0  0
 13 38  1  0  0  0  0
 14 15  1  0  0  0  0
 15 16  1  0  0  0  0
 15 39  1  0  0  0  0
 15 40  1  0  0  0  0
 16 41  1  0  0  0  0
 16 42  1  0  0  0  0
 17 18  1  0  0  0  0
 17 43  1  0  0  0  0
 18 23  1  0  0  0  0
 18 19  2  0  0  0  0
 19 20  1  0  0  0  0
 19 44  1  0  0  0  0
 20 21  2  0  0  0  0
 20 45  1  0  0  0  0
 21 22  1  0  0  0  0
 21 49  1  0  0  0  0
 22 23  2  0  0  0  0
 22 46  1  0  0  0  0
 23 47  1  0  0  0  0
M  CHG  1  11   1
M  CHG  1  21   1
M  END
> <s_m_source_file>
AV-unprocessed.smi

> <i_m_source_file_index>
1240

> <i_lp_mmshare_version>
43012

> <i_f3d_flags>
0

> <s_epik_input>
W2NIXTFbY0hdbltjSF1bY0hdYzFbTkhdQyg9TylbTkhdW0NIMl1bQ0BIXShbQ0BASF0yW0NIMl1bQ0gyXU9bQ0gyXTIpTjNbQ0gyXVtDSDJdT1tDSDJdW0NIMl0z

> <s_epik_cmdline>
J2VwaWtfcHl0aG9uJywgJy1waCcsICc3LjAnLCAnLXRuJywgJzgnLCAnLW1hJywgJzIwMCcsICctbWV0YWxfYmluZGluZycsICctaW1hZScsICc8aW5maWxlLm1hZT4nLCAnLW9tYWUnLCAnPG91dGZpbGUubWFlPic=

> <r_epik_Ionization_Penalty>
2.08105

> <r_epik_Ionization_Penalty_Charging>
2.08103

> <r_epik_Ionization_Penalty_Neutral>
2.04144e-05

> <r_epik_State_Penalty>
2.15598

> <r_epik_Charging_Adjusted_Penalty>
4.23701

> <i_epik_Tot_Q>
2

> <i_epik_Tot_abs_Q>
2

> <r_epik_Metal_State_Penalty>
2.25158

> <b_epik_Metal_Only>
0

> <s_lp_Force_Field>
OPLS_2005

> <r_lp_Energy>
49.3852

> <b_lp_Chiralities_Consistent>
1

> <s_lp_Variant>
AV-unprocessed.smi:1240-16

> <Gold.Version>
5.8.1

> <Gold.Id.Protein>
6NUR|6NUR_protein|mol2

> <Gold.PLP.Fitness>
49.8159

> <Gold.PLP.PLP>
-35.7065

> <Gold.PLP.part.hbond>
-3.9766

> <Gold.PLP.part.metal>
0.0000

> <Gold.PLP.part.buried>
-6.1528

> <Gold.PLP.part.nonpolar>
-29.2737

> <Gold.PLP.part.repulsive>
2.5722

> <Gold.PLP.ligand.clash>
0.0000

> <Gold.PLP.ligand.torsion>
0.4469

> <Gold.PLP.Chemscore.Hbond>
4.9280

> <Gold.PLP.Chemscore.CHOScore>
0.0000

> <Gold.PLP.Chemscore.Metal>
0.0000

> <Gold.Chemscore.Hbonds>
donor molecule, donor type, donor heavy atom, donor atom, acceptor molecule, acceptor atom, score
      L1  H     3    24       P1  7948  0.86
      L1  H    11    48       P1 10175  2.00
      L1  H    17    43       P1  7948  0.80
      P1  H  7989  7998       L1     9  1.00

> <Gold.PLP.Chemscore.Internal.Correction>
0.2193

> <Gold.Rescore>
     Score         DG    S(hbond)    S(metal)    S(lipo)     H(rot)  DE(clash)    DE(int)     intcor
     19.61     -22.76       3.71        0.00      79.90       1.74       0.18       2.96       ----

> <Gold.Chemscore.Fitness>
19.6127

> <Gold.Chemscore.DG>
-22.7623

> <Gold.Chemscore.ZeroCoef>
-5.4800

> <Gold.Chemscore.Hbond>
3.7108

> <Gold.Chemscore.Metal>
0.0000

> <Gold.Chemscore.Lipo>
79.8966

> <Gold.Chemscore.Internal_Hbond>
0.0000

> <Gold.Chemscore.DEClash>
0.1850

> <Gold.Chemscore.DEInternal>
2.9646

> <Gold.Chemscore.Rot>
1.7421

> <Gold.Chemscore.Internal.Correction>
   9.000000E+99

> <Gold.Chemscore.Hbonds>
donor molecule, donor type, donor heavy atom, donor atom, acceptor molecule, acceptor atom, score
      L1  H     3    24       P1  7948  0.85
      L1  H    11    48       P1 10175  0.95
      L1  H    17    43       P1  7948  0.78
      P1  H  7989  7998       L1     9  0.50

> <Gold.Chemscore.Hbond.Weighted>
-12.3941

> <Gold.Chemscore.Metal.Weighted>
-0.0000

> <Gold.Chemscore.Lipo.Weighted>
-9.3479

> <Gold.Chemscore.Internal_Hbond.Weighted>
0.0000

> <Gold.Chemscore.DEClash.Weighted>
0.1850

> <Gold.Chemscore.DEInternal.Weighted>
2.9646

> <Gold.Chemscore.Rot.Weighted>
4.4597

> <Gold.Chemscore.Internal.Correction.Weighted>
   9.000000E+99

> <Gold.Protein.RotatedTorsions>
[ 6907 6896 6895 6894 ] final   22.13 input  -60.11 | X-H torsion
[ 7974 7965 7964 7962 ] final -153.17 input  175.53 | X-H torsion
[ 8008 7997 7996 7995 ] final  135.20 input   59.86 | X-H torsion
[ 10167 10162 10161 10158 ] final   49.99 input  -65.29 | X-H torsion
[ 10718 10713 10712 10709 ] final  118.68 input   66.30 | X-H torsion
[ 10763 10752 10751 10750 ] final   46.19 input  -60.55 | X-H torsion
[ 11005 11000 10999 10996 ] final   45.08 input  -57.11 | X-H torsion

> <Gold.Protein.ActiveResidues>
 VAL166  LYS551  ARG553  GLY616  TRP617  ASP618  TYR619  PRO620  LYS621  CYS622 
 ASP623  PHE694  ASN695  SER759  ASP760  ASP761  ALA762  ILE779  LEU786  VAL792 
 PHE793  MET794  SER795  GLU796  ALA797  LYS798  CYS799  TRP800  GLU811  SER814 

> <Gold.Protein.RotatedAtoms>
  151.9224  135.0292  160.0522 H   0  0  0  0  0  0  0  0  0  0  0  0  # atno 6907 bound_to 6896
  152.2188  133.4963  159.5159 H   0  0  0  0  0  0  0  0  0  0  0  0  # atno 6908 bound_to 6896
  150.6994  134.1287  159.4104 H   0  0  0  0  0  0  0  0  0  0  0  0  # atno 6909 bound_to 6896
  144.7755  140.4562  143.5877 H   0  0  0  0  0  0  0  0  0  0  0  0  # atno 7974 bound_to 7965
  156.3002  140.2477  156.3542 H   0  0  0  0  0  0  0  0  0  0  0  0  # atno 8008 bound_to 7997
  154.8938  140.0408  157.1873 H   0  0  0  0  0  0  0  0  0  0  0  0  # atno 8009 bound_to 7997
  154.8571  140.2915  155.5566 H   0  0  0  0  0  0  0  0  0  0  0  0  # atno 8010 bound_to 7997
  140.2771  144.3199  150.6274 H   0  0  0  0  0  0  0  0  0  0  0  0  # atno 10167 bound_to 10162
  157.6013  131.1050  150.7790 H   0  0  0  0  0  0  0  0  0  0  0  0  # atno 10718 bound_to 10713
  152.9814  135.6016  154.3559 H   0  0  0  0  0  0  0  0  0  0  0  0  # atno 10763 bound_to 10752
  154.3245  135.2769  155.2505 H   0  0  0  0  0  0  0  0  0  0  0  0  # atno 10764 bound_to 10752
  154.4657  135.5954  153.6342 H   0  0  0  0  0  0  0  0  0  0  0  0  # atno 10765 bound_to 10752
  140.1492  134.4483  155.8394 H   0  0  0  0  0  0  0  0  0  0  0  0  # atno 11005 bound_to 11000
  145.6200  139.1523  143.3028 LP  0  0  0  0  0  0  0  0  0  0  0  0  # atno 17320 bound_to 7965
  146.1931  140.6311  142.9136 LP  0  0  0  0  0  0  0  0  0  0  0  0  # atno 17321 bound_to 7965
  140.5842  143.2171  151.7372 LP  0  0  0  0  0  0  0  0  0  0  0  0  # atno 17342 bound_to 10162
  139.4973  144.4035  152.0156 LP  0  0  0  0  0  0  0  0  0  0  0  0  # atno 17343 bound_to 10162
  156.8189  130.4977  149.5346 LP  0  0  0  0  0  0  0  0  0  0  0  0  # atno 17370 bound_to 10713
  156.1087  130.6024  151.0013 LP  0  0  0  0  0  0  0  0  0  0  0  0  # atno 17371 bound_to 10713
  141.2197  133.6865  156.7391 LP  0  0  0  0  0  0  0  0  0  0  0  0  # atno 17394 bound_to 11000
  140.2625  134.8455  157.3772 LP  0  0  0  0  0  0  0  0  0  0  0  0  # atno 17395 bound_to 11000

$$$$
