AV-unprocessed.smi:1346|AV-procd|sdf|5512|dock8
  -GOLD-   22720 5 93D 1   1.00000     0.00000
 Structure written by MMmdl.
 47 48  0  0  0  0  0  0  0  0  1 V2000
  152.4399  136.5228  157.2923 C   0  0  0  0  0  0  0  0  0  0  0  0
  151.0315  136.2468  156.8495 C   0  0  0  0  0  0  0  0  0  0  0  0
  150.2198  135.5754  157.6487 N   0  0  0  0  0  0  0  0  0  0  0  0
  149.0025  135.4819  156.9677 O   0  0  0  0  0  0  0  0  0  0  0  0
  149.1312  136.1051  155.7692 C   0  0  0  0  0  0  0  0  0  0  0  0
  147.9232  136.1134  154.8943 C   0  0  0  0  0  0  0  0  0  0  0  0
  150.3941  136.6134  155.6290 C   0  0  0  0  0  0  0  0  0  0  0  0
  150.9833  137.3784  154.4708 C   0  0  0  0  0  0  0  0  0  0  0  0
  151.0400  138.8705  154.8002 C   0  0  0  0  0  0  0  0  0  0  0  0
  150.4127  139.6754  154.1122 O   0  0  0  0  0  0  0  0  0  0  0  0
  151.7854  139.2226  155.8597 N   0  0  0  0  0  0  0  0  0  0  0  0
  151.9386  140.5806  156.3694 C   0  0  0  0  0  0  0  0  0  0  0  0
  151.5546  140.6629  157.8531 C   0  0  0  0  0  0  0  0  0  0  0  0
  152.4664  141.5181  158.5258 O   0  0  0  0  0  0  0  0  0  0  0  0
  151.8537  142.5642  159.2667 C   0  0  2  0  0  0  0  0  0  0  0  0
  151.5244  143.7265  158.3060 C   0  0  0  0  0  0  0  0  0  0  0  0
  150.9860  144.9495  159.0625 C   0  0  0  0  0  0  0  0  0  0  0  0
  151.9725  145.4025  160.1479 C   0  0  0  0  0  0  0  0  0  0  0  0
  152.2983  144.2515  161.1119 C   0  0  0  0  0  0  0  0  0  0  0  0
  152.8415  143.0156  160.3664 C   0  0  1  0  0  0  0  0  0  0  0  0
  153.1507  141.8794  161.3546 C   0  0  0  0  0  0  0  0  0  0  0  0
  152.8350  137.4219  156.8188 H   0  0  0  0  0  0  0  0  0  0  0  0
  153.0991  135.6940  157.0332 H   0  0  0  0  0  0  0  0  0  0  0  0
  152.4964  136.6702  158.3712 H   0  0  0  0  0  0  0  0  0  0  0  0
  148.1600  136.4863  153.8980 H   0  0  0  0  0  0  0  0  0  0  0  0
  147.1468  136.7514  155.3166 H   0  0  0  0  0  0  0  0  0  0  0  0
  147.5152  135.1082  154.7888 H   0  0  0  0  0  0  0  0  0  0  0  0
  151.9893  137.0268  154.2389 H   0  0  0  0  0  0  0  0  0  0  0  0
  150.4018  137.2406  153.5587 H   0  0  0  0  0  0  0  0  0  0  0  0
  152.2682  138.4911  156.3607 H   0  0  0  0  0  0  0  0  0  0  0  0
  152.9862  140.8582  156.2506 H   0  0  0  0  0  0  0  0  0  0  0  0
  151.3616  141.2938  155.7787 H   0  0  0  0  0  0  0  0  0  0  0  0
  150.5265  141.0131  157.9517 H   0  0  0  0  0  0  0  0  0  0  0  0
  151.6023  139.6711  158.3046 H   0  0  0  0  0  0  0  0  0  0  0  0
  150.9392  142.2073  159.7452 H   0  0  0  0  0  0  0  0  0  0  0  0
  152.4229  144.0085  157.7550 H   0  0  0  0  0  0  0  0  0  0  0  0
  150.7944  143.4140  157.5595 H   0  0  0  0  0  0  0  0  0  0  0  0
  150.7996  145.7663  158.3646 H   0  0  0  0  0  0  0  0  0  0  0  0
  150.0255  144.7049  159.5179 H   0  0  0  0  0  0  0  0  0  0  0  0
  152.8910  145.7619  159.6820 H   0  0  0  0  0  0  0  0  0  0  0  0
  151.5561  146.2448  160.7012 H   0  0  0  0  0  0  0  0  0  0  0  0
  153.0253  144.5915  161.8503 H   0  0  0  0  0  0  0  0  0  0  0  0
  151.3996  143.9808  161.6681 H   0  0  0  0  0  0  0  0  0  0  0  0
  153.7784  143.3006  159.8849 H   0  0  0  0  0  0  0  0  0  0  0  0
  152.2469  141.5364  161.8591 H   0  0  0  0  0  0  0  0  0  0  0  0
  153.8559  142.2059  162.1196 H   0  0  0  0  0  0  0  0  0  0  0  0
  153.5942  141.0218  160.8477 H   0  0  0  0  0  0  0  0  0  0  0  0
  1  2  1  0  0  0  0
  1 22  1  0  0  0  0
  1 23  1  0  0  0  0
  1 24  1  0  0  0  0
  2  7  1  0  0  0  0
  2  3  2  0  0  0  0
  3  4  1  0  0  0  0
  4  5  1  0  0  0  0
  5  6  1  0  0  0  0
  5  7  2  0  0  0  0
  6 25  1  0  0  0  0
  6 26  1  0  0  0  0
  6 27  1  0  0  0  0
  7  8  1  0  0  0  0
  8  9  1  0  0  0  0
  8 28  1  0  0  0  0
  8 29  1  0  0  0  0
  9 10  2  0  0  0  0
  9 11  1  0  0  0  0
 11 12  1  0  0  0  0
 11 30  1  0  0  0  0
 12 13  1  0  0  0  0
 12 31  1  0  0  0  0
 12 32  1  0  0  0  0
 13 14  1  0  0  0  0
 13 33  1  0  0  0  0
 13 34  1  0  0  0  0
 14 15  1  0  0  0  0
 15 20  1  0  0  0  0
 15 16  1  0  0  0  0
 15 35  1  0  0  0  0
 16 17  1  0  0  0  0
 16 36  1  0  0  0  0
 16 37  1  0  0  0  0
 17 18  1  0  0  0  0
 17 38  1  0  0  0  0
 17 39  1  0  0  0  0
 18 19  1  0  0  0  0
 18 40  1  0  0  0  0
 18 41  1  0  0  0  0
 19 20  1  0  0  0  0
 19 42  1  0  0  0  0
 19 43  1  0  0  0  0
 20 21  1  0  0  0  0
 20 44  1  0  0  0  0
 21 45  1  0  0  0  0
 21 46  1  0  0  0  0
 21 47  1  0  0  0  0
M  END
> <s_m_source_file>
AV-unprocessed.smi

> <i_m_source_file_index>
1346

> <i_lp_mmshare_version>
43012

> <i_f3d_flags>
0

> <s_epik_input>
W0NIM11jMW5vYyhbQ0gzXSljMVtDSDJdQyg9TylbTkhdW0NIMl1bQ0gyXU9bQ0BASF0yW0NIMl1bQ0gyXVtDSDJdW0NIMl1bQ0BIXTJbQ0gzXQ==

> <s_epik_cmdline>
J2VwaWtfcHl0aG9uJywgJy1waCcsICc3LjAnLCAnLXRuJywgJzgnLCAnLW1hJywgJzIwMCcsICctbWV0YWxfYmluZGluZycsICctaW1hZScsICc8aW5maWxlLm1hZT4nLCAnLW9tYWUnLCAnPG91dGZpbGUubWFlPic=

> <r_lp_tautomer_probability>
1

> <r_epik_Ionization_Penalty>
3.26154e-08

> <r_epik_Ionization_Penalty_Charging>
0

> <r_epik_Ionization_Penalty_Neutral>
3.26154e-08

> <r_epik_State_Penalty>
-0

> <r_epik_Charging_Adjusted_Penalty>
0

> <i_epik_Tot_Q>
0

> <i_epik_Tot_abs_Q>
0

> <r_epik_Metal_State_Penalty>
-0

> <b_epik_Metal_Only>
0

> <s_lp_Force_Field>
OPLS_2005

> <r_lp_Energy>
5.71646

> <b_lp_Chiralities_Consistent>
1

> <s_lp_Variant>
AV-unprocessed.smi:1346-1

> <Gold.Version>
5.8.1

> <Gold.Id.Protein>
6NUR|6NUR_protein|mol2

> <Gold.PLP.Fitness>
44.1293

> <Gold.PLP.PLP>
-41.3058

> <Gold.PLP.part.hbond>
-2.0000

> <Gold.PLP.part.metal>
0.0000

> <Gold.PLP.part.buried>
-7.2105

> <Gold.PLP.part.nonpolar>
-32.8796

> <Gold.PLP.part.repulsive>
0.5133

> <Gold.PLP.ligand.clash>
0.0000

> <Gold.PLP.ligand.torsion>
1.1295

> <Gold.PLP.Chemscore.Hbond>
1.6596

> <Gold.PLP.Chemscore.CHOScore>
0.0000

> <Gold.PLP.Chemscore.Metal>
0.0000

> <Gold.Chemscore.Hbonds>
donor molecule, donor type, donor heavy atom, donor atom, acceptor molecule, acceptor atom, score
      P1  H  6896  6909       L1     3  0.45
      P1  H  7989  7998       L1    10  1.00

> <Gold.PLP.Chemscore.Internal.Correction>
0.1036

> <Gold.Rescore>
     Score         DG    S(hbond)    S(metal)    S(lipo)     H(rot)  DE(clash)    DE(int)     intcor
     19.00     -20.20       1.76        0.00     113.56       1.74       0.03       1.17       ----

> <Gold.Chemscore.Fitness>
19.0021

> <Gold.Chemscore.DG>
-20.2000

> <Gold.Chemscore.ZeroCoef>
-5.4800

> <Gold.Chemscore.Hbond>
1.7591

> <Gold.Chemscore.Metal>
0.0000

> <Gold.Chemscore.Lipo>
113.5614

> <Gold.Chemscore.Internal_Hbond>
0.0000

> <Gold.Chemscore.DEClash>
0.0317

> <Gold.Chemscore.DEInternal>
1.1663

> <Gold.Chemscore.Rot>
1.7352

> <Gold.Chemscore.Internal.Correction>
   9.000000E+99

> <Gold.Chemscore.Hbonds>
donor molecule, donor type, donor heavy atom, donor atom, acceptor molecule, acceptor atom, score
      P1  H  6896  6909       L1     3  0.44
      P1  H  7989  7998       L1    10  0.60

> <Gold.Chemscore.Hbond.Weighted>
-5.8754

> <Gold.Chemscore.Metal.Weighted>
-0.0000

> <Gold.Chemscore.Lipo.Weighted>
-13.2867

> <Gold.Chemscore.Internal_Hbond.Weighted>
0.0000

> <Gold.Chemscore.DEClash.Weighted>
0.0317

> <Gold.Chemscore.DEInternal.Weighted>
1.1663

> <Gold.Chemscore.Rot.Weighted>
4.4420

> <Gold.Chemscore.Internal.Correction.Weighted>
   9.000000E+99

> <Gold.Protein.RotatedTorsions>
[ 6907 6896 6895 6894 ] final   43.75 input  -60.11 | X-H torsion
[ 7974 7965 7964 7962 ] final  121.38 input  175.53 | X-H torsion
[ 8008 7997 7996 7995 ] final -168.28 input   59.86 | X-H torsion
[ 10167 10162 10161 10158 ] final -107.55 input  -65.29 | X-H torsion
[ 10718 10713 10712 10709 ] final  -30.87 input   66.30 | X-H torsion
[ 10763 10752 10751 10750 ] final   31.47 input  -60.55 | X-H torsion
[ 11005 11000 10999 10996 ] final   -4.90 input  -57.11 | X-H torsion

> <Gold.Protein.ActiveResidues>
 VAL166  LYS551  ARG553  GLY616  TRP617  ASP618  TYR619  PRO620  LYS621  CYS622 
 ASP623  PHE694  ASN695  SER759  ASP760  ASP761  ALA762  ILE779  LEU786  VAL792 
 PHE793  MET794  SER795  GLU796  ALA797  LYS798  CYS799  TRP800  GLU811  SER814 

> <Gold.Protein.RotatedAtoms>
  152.2241  134.8385  160.0482 H   0  0  0  0  0  0  0  0  0  0  0  0  # atno 6907 bound_to 6896
  151.9158  133.3568  159.3888 H   0  0  0  0  0  0  0  0  0  0  0  0  # atno 6908 bound_to 6896
  150.7007  134.4611  159.5425 H   0  0  0  0  0  0  0  0  0  0  0  0  # atno 6909 bound_to 6896
  145.1200  139.3395  143.4719 H   0  0  0  0  0  0  0  0  0  0  0  0  # atno 7974 bound_to 7965
  155.8893  140.1022  157.1430 H   0  0  0  0  0  0  0  0  0  0  0  0  # atno 8008 bound_to 7997
  154.4013  140.1314  156.4359 H   0  0  0  0  0  0  0  0  0  0  0  0  # atno 8009 bound_to 7997
  155.7552  140.3464  155.5172 H   0  0  0  0  0  0  0  0  0  0  0  0  # atno 8010 bound_to 7997
  140.1757  143.4007  152.1320 H   0  0  0  0  0  0  0  0  0  0  0  0  # atno 10167 bound_to 10162
  156.3943  130.4378  149.7370 H   0  0  0  0  0  0  0  0  0  0  0  0  # atno 10718 bound_to 10713
  153.0314  135.6438  154.1205 H   0  0  0  0  0  0  0  0  0  0  0  0  # atno 10763 bound_to 10752
  154.0926  135.2865  155.3270 H   0  0  0  0  0  0  0  0  0  0  0  0  # atno 10764 bound_to 10752
  154.6454  135.5445  153.7902 H   0  0  0  0  0  0  0  0  0  0  0  0  # atno 10765 bound_to 10752
  140.6853  133.9118  155.8582 H   0  0  0  0  0  0  0  0  0  0  0  0  # atno 11005 bound_to 11000
  146.3521  140.1155  142.8602 LP  0  0  0  0  0  0  0  0  0  0  0  0  # atno 17320 bound_to 7965
  145.0751  140.9182  143.4859 LP  0  0  0  0  0  0  0  0  0  0  0  0  # atno 17321 bound_to 7965
  139.5318  144.7167  151.5029 LP  0  0  0  0  0  0  0  0  0  0  0  0  # atno 17342 bound_to 10162
  140.6553  143.8612  150.6828 LP  0  0  0  0  0  0  0  0  0  0  0  0  # atno 17343 bound_to 10162
  156.4411  130.7862  151.2883 LP  0  0  0  0  0  0  0  0  0  0  0  0  # atno 17370 bound_to 10713
  157.7501  131.0124  150.3384 LP  0  0  0  0  0  0  0  0  0  0  0  0  # atno 17371 bound_to 10713
  141.0285  134.0790  157.4041 LP  0  0  0  0  0  0  0  0  0  0  0  0  # atno 17394 bound_to 11000
  139.8939  135.0133  156.6925 LP  0  0  0  0  0  0  0  0  0  0  0  0  # atno 17395 bound_to 11000

$$$$
