AV-unprocessed.smi:2837|AV-procd|sdf|10920|dock8
  -GOLD-   2272015373D 1   1.00000     0.00000
 Structure written by MMmdl.
 32 34  0  0  0  0  0  0  0  0  1 V2000
  147.8951  134.8410  158.9201 F   0  0  0  0  0  0  0  0  0  0  0  0
  148.3324  136.0962  159.1867 C   0  0  0  0  0  0  0  0  0  0  0  0
  148.1242  136.3294  160.5049 F   0  0  0  0  0  0  0  0  0  0  0  0
  149.6576  136.2078  158.9044 O   0  0  0  0  0  0  0  0  0  0  0  0
  150.2009  137.4559  158.6982 C   0  0  0  0  0  0  0  0  0  0  0  0
  151.5028  137.8261  159.1104 C   0  0  0  0  0  0  0  0  0  0  0  0
  151.9524  139.1370  158.8618 C   0  0  0  0  0  0  0  0  0  0  0  0
  151.0865  140.0436  158.2168 C   0  0  0  0  0  0  0  0  0  0  0  0
  151.5408  141.3480  157.9752 N   0  0  0  0  0  0  0  0  0  0  0  0
  151.3541  142.4164  158.9509 C   0  0  2  0  0  0  0  0  0  0  0  0
  150.8948  143.7382  158.3215 C   0  0  0  0  0  0  0  0  0  0  0  0
  151.9766  144.7121  158.8047 C   0  0  1  0  0  0  0  0  0  0  0  0
  151.9012  144.9655  160.3169 C   0  0  0  0  0  0  0  0  0  0  0  0
  152.4337  143.6489  160.8815 C   0  0  0  0  0  0  0  0  0  0  0  0
  152.6821  142.8354  159.6043 C   0  0  2  0  0  0  0  0  0  0  0  0
  153.1139  143.8708  158.7359 O   0  0  0  0  0  0  0  0  0  0  0  0
  149.8356  139.6996  157.8301 N   0  0  0  0  0  0  0  0  0  0  0  0
  149.4119  138.4404  158.0697 C   0  0  0  0  0  0  0  0  0  0  0  0
  147.7382  136.8163  158.6236 H   0  0  0  0  0  0  0  0  0  0  0  0
  152.1544  137.1285  159.6151 H   0  0  0  0  0  0  0  0  0  0  0  0
  152.9440  139.4381  159.1669 H   0  0  0  0  0  0  0  0  0  0  0  0
  151.9960  141.5668  157.1007 H   0  0  0  0  0  0  0  0  0  0  0  0
  150.6568  142.0776  159.7186 H   0  0  0  0  0  0  0  0  0  0  0  0
  150.8955  143.6866  157.2317 H   0  0  0  0  0  0  0  0  0  0  0  0
  149.8956  144.0312  158.6443 H   0  0  0  0  0  0  0  0  0  0  0  0
  152.0527  145.6200  158.2060 H   0  0  0  0  0  0  0  0  0  0  0  0
  152.5485  145.7940  160.6064 H   0  0  0  0  0  0  0  0  0  0  0  0
  150.8869  145.1904  160.6486 H   0  0  0  0  0  0  0  0  0  0  0  0
  153.3671  143.8143  161.4210 H   0  0  0  0  0  0  0  0  0  0  0  0
  151.7308  143.1613  161.5577 H   0  0  0  0  0  0  0  0  0  0  0  0
  153.3986  142.0236  159.7372 H   0  0  0  0  0  0  0  0  0  0  0  0
  148.4081  138.2087  157.7457 H   0  0  0  0  0  0  0  0  0  0  0  0
  1  2  1  0  0  0  0
  2  3  1  0  0  0  0
  2  4  1  0  0  0  0
  2 19  1  0  0  0  0
  4  5  1  0  0  0  0
  5 18  1  0  0  0  0
  5  6  2  0  0  0  0
  6  7  1  0  0  0  0
  6 20  1  0  0  0  0
  7  8  2  0  0  0  0
  7 21  1  0  0  0  0
  8  9  1  0  0  0  0
  8 17  1  0  0  0  0
  9 10  1  0  0  0  0
  9 22  1  0  0  0  0
 10 15  1  0  0  0  0
 10 11  1  0  0  0  0
 10 23  1  0  0  0  0
 11 12  1  0  0  0  0
 11 24  1  0  0  0  0
 11 25  1  0  0  0  0
 12 16  1  0  0  0  0
 12 13  1  0  0  0  0
 12 26  1  0  0  0  0
 13 14  1  0  0  0  0
 13 27  1  0  0  0  0
 13 28  1  0  0  0  0
 14 15  1  0  0  0  0
 14 29  1  0  0  0  0
 14 30  1  0  0  0  0
 15 16  1  0  0  0  0
 15 31  1  0  0  0  0
 17 18  2  0  0  0  0
 18 32  1  0  0  0  0
M  END
> <s_m_source_file>
AV-unprocessed.smi

> <i_m_source_file_index>
2837

> <i_lp_mmshare_version>
43012

> <i_f3d_flags>
0

> <s_epik_input>
RltDSF0oRilPYzFbY0hdW2NIXWMobltjSF0xKVtOSF1bQ0BIXShbQ0gyXVtDQEBIXTIzKVtDQEBIXShPMylbQ0gyXVtDSDJdMg==

> <s_epik_cmdline>
J2VwaWtfcHl0aG9uJywgJy1waCcsICc3LjAnLCAnLXRuJywgJzgnLCAnLW1hJywgJzIwMCcsICctbWV0YWxfYmluZGluZycsICctaW1hZScsICc8aW5maWxlLm1hZT4nLCAnLW9tYWUnLCAnPG91dGZpbGUubWFlPic=

> <r_lp_tautomer_probability>
1

> <r_epik_Ionization_Penalty>
0.0124072

> <r_epik_Ionization_Penalty_Charging>
0

> <r_epik_Ionization_Penalty_Neutral>
0.0124072

> <r_epik_State_Penalty>
0.00959565

> <r_epik_Charging_Adjusted_Penalty>
0.00959565

> <i_epik_Tot_Q>
0

> <i_epik_Tot_abs_Q>
0

> <r_epik_Metal_State_Penalty>
9.67369e-06

> <b_epik_Metal_Only>
0

> <s_lp_Force_Field>
OPLS_2005

> <r_lp_Energy>
39.7079

> <b_lp_Chiralities_Consistent>
1

> <s_lp_Variant>
AV-unprocessed.smi:2837-1

> <Gold.Version>
5.8.1

> <Gold.Id.Protein>
6NUR|6NUR_protein|mol2

> <Gold.PLP.Fitness>
36.7087

> <Gold.PLP.PLP>
-36.6109

> <Gold.PLP.part.hbond>
-1.0000

> <Gold.PLP.part.metal>
0.0000

> <Gold.PLP.part.buried>
-6.3928

> <Gold.PLP.part.nonpolar>
-29.2949

> <Gold.PLP.part.repulsive>
0.0719

> <Gold.PLP.ligand.clash>
0.0000

> <Gold.PLP.ligand.torsion>
1.4631

> <Gold.PLP.Chemscore.Hbond>
1.0000

> <Gold.PLP.Chemscore.CHOScore>
0.0000

> <Gold.PLP.Chemscore.Metal>
0.0000

> <Gold.Chemscore.Hbonds>
donor molecule, donor type, donor heavy atom, donor atom, acceptor molecule, acceptor atom, score
      P1  H  6896  6909       L1     4  1.00

> <Gold.PLP.Chemscore.Internal.Correction>
0.0240

> <Gold.Rescore>
     Score         DG    S(hbond)    S(metal)    S(lipo)     H(rot)  DE(clash)    DE(int)     intcor
     14.58     -15.89       0.96        0.00      90.61       1.32       0.00       1.31       ----

> <Gold.Chemscore.Fitness>
14.5806

> <Gold.Chemscore.DG>
-15.8934

> <Gold.Chemscore.ZeroCoef>
-5.4800

> <Gold.Chemscore.Hbond>
0.9565

> <Gold.Chemscore.Metal>
0.0000

> <Gold.Chemscore.Lipo>
90.6087

> <Gold.Chemscore.Internal_Hbond>
0.0000

> <Gold.Chemscore.DEClash>
0.0000

> <Gold.Chemscore.DEInternal>
1.3128

> <Gold.Chemscore.Rot>
1.3213

> <Gold.Chemscore.Internal.Correction>
   9.000000E+99

> <Gold.Chemscore.Hbonds>
donor molecule, donor type, donor heavy atom, donor atom, acceptor molecule, acceptor atom, score
      P1  H  6896  6909       L1     4  0.88

> <Gold.Chemscore.Hbond.Weighted>
-3.1947

> <Gold.Chemscore.Metal.Weighted>
-0.0000

> <Gold.Chemscore.Lipo.Weighted>
-10.6012

> <Gold.Chemscore.Internal_Hbond.Weighted>
0.0000

> <Gold.Chemscore.DEClash.Weighted>
0.0000

> <Gold.Chemscore.DEInternal.Weighted>
1.3128

> <Gold.Chemscore.Rot.Weighted>
3.3825

> <Gold.Chemscore.Internal.Correction.Weighted>
   9.000000E+99

> <Gold.Protein.RotatedTorsions>
[ 6907 6896 6895 6894 ] final   66.53 input  -60.11 | X-H torsion
[ 7974 7965 7964 7962 ] final  -13.51 input  175.53 | X-H torsion
[ 8008 7997 7996 7995 ] final   46.05 input   59.86 | X-H torsion
[ 10167 10162 10161 10158 ] final  -67.47 input  -65.29 | X-H torsion
[ 10718 10713 10712 10709 ] final    0.87 input   66.30 | X-H torsion
[ 10763 10752 10751 10750 ] final  -53.59 input  -60.55 | X-H torsion
[ 11005 11000 10999 10996 ] final  159.22 input  -57.11 | X-H torsion

> <Gold.Protein.ActiveResidues>
 VAL166  LYS551  ARG553  GLY616  TRP617  ASP618  TYR619  PRO620  LYS621  CYS622 
 ASP623  PHE694  ASN695  SER759  ASP760  ASP761  ALA762  ILE779  LEU786  VAL792 
 PHE793  MET794  SER795  GLU796  ALA797  LYS798  CYS799  TRP800  GLU811  SER814 

> <Gold.Protein.RotatedAtoms>
  152.4488  134.5439  159.9846 H   0  0  0  0  0  0  0  0  0  0  0  0  # atno 6907 bound_to 6896
  151.5517  133.3411  159.2962 H   0  0  0  0  0  0  0  0  0  0  0  0  # atno 6908 bound_to 6896
  150.8411  134.7735  159.6996 H   0  0  0  0  0  0  0  0  0  0  0  0  # atno 6909 bound_to 6896
  146.2111  140.3214  142.8391 H   0  0  0  0  0  0  0  0  0  0  0  0  # atno 7974 bound_to 7965
  155.3461  140.3411  155.4239 H   0  0  0  0  0  0  0  0  0  0  0  0  # atno 8008 bound_to 7997
  156.1788  140.1657  156.8348 H   0  0  0  0  0  0  0  0  0  0  0  0  # atno 8009 bound_to 7997
  154.5311  140.0745  156.8329 H   0  0  0  0  0  0  0  0  0  0  0  0  # atno 8010 bound_to 7997
  140.5580  143.2312  151.6783 H   0  0  0  0  0  0  0  0  0  0  0  0  # atno 10167 bound_to 10162
  156.8397  130.5517  149.5679 H   0  0  0  0  0  0  0  0  0  0  0  0  # atno 10718 bound_to 10713
  154.1612  135.6474  153.4986 H   0  0  0  0  0  0  0  0  0  0  0  0  # atno 10763 bound_to 10752
  153.0110  135.5361  154.6709 H   0  0  0  0  0  0  0  0  0  0  0  0  # atno 10764 bound_to 10752
  154.6023  135.2945  155.0494 H   0  0  0  0  0  0  0  0  0  0  0  0  # atno 10765 bound_to 10752
  140.1941  134.8386  157.2945 H   0  0  0  0  0  0  0  0  0  0  0  0  # atno 11005 bound_to 11000
  144.8917  140.7532  143.5922 LP  0  0  0  0  0  0  0  0  0  0  0  0  # atno 17320 bound_to 7965
  145.3137  139.1810  143.4625 LP  0  0  0  0  0  0  0  0  0  0  0  0  # atno 17321 bound_to 7965
  139.5057  144.3709  152.0471 LP  0  0  0  0  0  0  0  0  0  0  0  0  # atno 17342 bound_to 10162
  140.2832  144.3836  150.6112 LP  0  0  0  0  0  0  0  0  0  0  0  0  # atno 17343 bound_to 10162
  156.0887  130.5879  150.9695 LP  0  0  0  0  0  0  0  0  0  0  0  0  # atno 17370 bound_to 10713
  157.6362  131.0915  150.8343 LP  0  0  0  0  0  0  0  0  0  0  0  0  # atno 17371 bound_to 10713
  140.2127  134.4119  155.7604 LP  0  0  0  0  0  0  0  0  0  0  0  0  # atno 17394 bound_to 11000
  141.2227  133.7126  156.8364 LP  0  0  0  0  0  0  0  0  0  0  0  0  # atno 17395 bound_to 11000

$$$$
