AV-unprocessed.smi:3004|AV-procd|sdf|11442|dock2
  -GOLD-   2272016373D 1   1.00000     0.00000
 Structure written by MMmdl.
 47 48  0  0  0  0  0  0  0  0  2 V2000
  147.5312  131.9263  161.4960 C   0  0  0  0  0  0  0  0  0  0  0  0
  147.4626  133.4239  161.4473 C   0  0  0  0  0  0  0  0  0  0  0  0
  147.0514  134.3214  162.4722 C   0  0  0  0  0  0  0  0  0  0  0  0
  147.1778  135.5594  161.9078 C   0  0  0  0  0  0  0  0  0  0  0  0
  146.8990  136.9107  162.4792 C   0  0  0  0  0  0  0  0  0  0  0  0
  147.6419  135.3668  160.6183 N   0  0  0  0  0  0  0  0  0  0  0  0
  147.9525  136.3543  159.5970 C   0  0  0  0  0  0  0  0  0  0  0  0
  148.3217  135.6819  158.2742 C   0  0  0  0  0  0  0  0  0  0  0  0
  149.2390  134.8619  158.2345 O   0  0  0  0  0  0  0  0  0  0  0  0
  147.6020  136.0372  157.1980 N   0  0  0  0  0  0  0  0  0  0  0  0
  147.7798  135.4935  155.8568 C   0  0  0  0  0  0  0  0  0  0  0  0
  146.6513  135.9373  154.9063 C   0  0  0  0  0  0  0  0  0  0  0  0
  146.7988  135.3284  153.5545 N   0  3  1  0  0  0  0  0  0  0  0  0
  147.0569  133.8638  153.6638 C   0  0  0  0  0  0  0  0  0  0  0  0
  147.3447  133.2214  152.3013 C   0  0  0  0  0  0  0  0  0  0  0  0
  146.1751  133.4630  151.3483 C   0  0  0  0  0  0  0  0  0  0  0  0
  145.9273  134.9680  151.2286 C   0  0  0  0  0  0  0  0  0  0  0  0
  145.6847  135.6410  152.5994 C   0  0  2  0  0  0  0  0  0  0  0  0
  145.5057  137.1563  152.3576 C   0  0  0  0  0  0  0  0  0  0  0  0
  147.8165  134.0560  160.3406 N   0  0  0  0  0  0  0  0  0  0  0  0
  147.1526  131.5456  162.4449 H   0  0  0  0  0  0  0  0  0  0  0  0
  148.5576  131.5766  161.3838 H   0  0  0  0  0  0  0  0  0  0  0  0
  146.9365  131.4794  160.6990 H   0  0  0  0  0  0  0  0  0  0  0  0
  146.7140  134.0907  163.4719 H   0  0  0  0  0  0  0  0  0  0  0  0
  146.5575  136.8336  163.5116 H   0  0  0  0  0  0  0  0  0  0  0  0
  146.1236  137.4216  161.9083 H   0  0  0  0  0  0  0  0  0  0  0  0
  147.7950  137.5314  162.4685 H   0  0  0  0  0  0  0  0  0  0  0  0
  147.0945  137.0141  159.4567 H   0  0  0  0  0  0  0  0  0  0  0  0
  148.7768  136.9793  159.9419 H   0  0  0  0  0  0  0  0  0  0  0  0
  146.8616  136.7126  157.3267 H   0  0  0  0  0  0  0  0  0  0  0  0
  148.7510  135.7983  155.4630 H   0  0  0  0  0  0  0  0  0  0  0  0
  147.8091  134.4082  155.9453 H   0  0  0  0  0  0  0  0  0  0  0  0
  145.6749  135.6874  155.3244 H   0  0  0  0  0  0  0  0  0  0  0  0
  146.6710  137.0216  154.8587 H   0  0  0  0  0  0  0  0  0  0  0  0
  147.9056  133.6789  154.3216 H   0  0  0  0  0  0  0  0  0  0  0  0
  146.1951  133.3765  154.1230 H   0  0  0  0  0  0  0  0  0  0  0  0
  148.2620  133.6351  151.8804 H   0  0  0  0  0  0  0  0  0  0  0  0
  147.5120  132.1506  152.4208 H   0  0  0  0  0  0  0  0  0  0  0  0
  146.3907  133.0361  150.3682 H   0  0  0  0  0  0  0  0  0  0  0  0
  145.2785  132.9645  151.7192 H   0  0  0  0  0  0  0  0  0  0  0  0
  146.7847  135.4323  150.7383 H   0  0  0  0  0  0  0  0  0  0  0  0
  145.0727  135.1381  150.5725 H   0  0  0  0  0  0  0  0  0  0  0  0
  144.7588  135.2437  153.0188 H   0  0  0  0  0  0  0  0  0  0  0  0
  144.8198  137.3380  151.5295 H   0  0  0  0  0  0  0  0  0  0  0  0
  146.4534  137.6330  152.1045 H   0  0  0  0  0  0  0  0  0  0  0  0
  145.0797  137.6796  153.2121 H   0  0  0  0  0  0  0  0  0  0  0  0
  147.6261  135.7415  153.1480 H   0  0  0  0  0  0  0  0  0  0  0  0
  1  2  1  0  0  0  0
  1 21  1  0  0  0  0
  1 22  1  0  0  0  0
  1 23  1  0  0  0  0
  2 20  2  0  0  0  0
  2  3  1  0  0  0  0
  3  4  2  0  0  0  0
  3 24  1  0  0  0  0
  4  5  1  0  0  0  0
  4  6  1  0  0  0  0
  5 25  1  0  0  0  0
  5 26  1  0  0  0  0
  5 27  1  0  0  0  0
  6  7  1  0  0  0  0
  6 20  1  0  0  0  0
  7  8  1  0  0  0  0
  7 28  1  0  0  0  0
  7 29  1  0  0  0  0
  8  9  2  0  0  0  0
  8 10  1  0  0  0  0
 10 11  1  0  0  0  0
 10 30  1  0  0  0  0
 11 12  1  0  0  0  0
 11 31  1  0  0  0  0
 11 32  1  0  0  0  0
 12 13  1  0  0  0  0
 12 33  1  0  0  0  0
 12 34  1  0  0  0  0
 13 18  1  0  0  0  0
 13 14  1  0  0  0  0
 13 47  1  0  0  0  0
 14 15  1  0  0  0  0
 14 35  1  0  0  0  0
 14 36  1  0  0  0  0
 15 16  1  0  0  0  0
 15 37  1  0  0  0  0
 15 38  1  0  0  0  0
 16 17  1  0  0  0  0
 16 39  1  0  0  0  0
 16 40  1  0  0  0  0
 17 18  1  0  0  0  0
 17 41  1  0  0  0  0
 17 42  1  0  0  0  0
 18 19  1  0  0  0  0
 18 43  1  0  0  0  0
 19 44  1  0  0  0  0
 19 45  1  0  0  0  0
 19 46  1  0  0  0  0
M  CHG  1  13   1
M  END
> <s_m_source_file>
AV-unprocessed.smi

> <i_m_source_file_index>
3004

> <i_lp_mmshare_version>
43012

> <i_f3d_flags>
0

> <s_epik_input>
W0NIM11jMVtjSF1jKFtDSDNdKW4objEpW0NIMl1DKD1PKVtOSF1bQ0gyXVtDSDJdTjJbQ0gyXVtDSDJdW0NIMl1bQ0gyXVtDQEhdMltDSDNd

> <s_epik_cmdline>
J2VwaWtfcHl0aG9uJywgJy1waCcsICc3LjAnLCAnLXRuJywgJzgnLCAnLW1hJywgJzIwMCcsICctbWV0YWxfYmluZGluZycsICctaW1hZScsICc8aW5maWxlLm1hZT4nLCAnLW9tYWUnLCAnPG91dGZpbGUubWFlPic=

> <r_lp_tautomer_probability>
1

> <r_epik_Ionization_Penalty>
0.00303644

> <r_epik_Ionization_Penalty_Charging>
0.00284254

> <r_epik_Ionization_Penalty_Neutral>
0.000193908

> <r_epik_State_Penalty>
-0

> <r_epik_Charging_Adjusted_Penalty>
0.00284254

> <i_epik_Tot_Q>
1

> <i_epik_Tot_abs_Q>
1

> <r_epik_Metal_State_Penalty>
-0

> <b_epik_Metal_Only>
0

> <s_lp_Force_Field>
OPLS_2005

> <r_lp_Energy>
17.2859

> <b_lp_Chiralities_Consistent>
1

> <s_lp_Variant>
AV-unprocessed.smi:3004-4

> <Gold.Version>
5.8.1

> <Gold.Id.Protein>
6NUR|6NUR_protein|mol2

> <Gold.PLP.Fitness>
43.1841

> <Gold.PLP.PLP>
-34.4029

> <Gold.PLP.part.hbond>
-2.0000

> <Gold.PLP.part.metal>
0.0000

> <Gold.PLP.part.buried>
-4.6344

> <Gold.PLP.part.nonpolar>
-28.1707

> <Gold.PLP.part.repulsive>
0.0000

> <Gold.PLP.ligand.clash>
0.0000

> <Gold.PLP.ligand.torsion>
0.1282

> <Gold.PLP.Chemscore.Hbond>
3.0000

> <Gold.PLP.Chemscore.CHOScore>
0.0000

> <Gold.PLP.Chemscore.Metal>
0.0000

> <Gold.Chemscore.Hbonds>
donor molecule, donor type, donor heavy atom, donor atom, acceptor molecule, acceptor atom, score
      L1  H    13    47       P1  7948  2.00
      P1  H  6896  6907       L1     9  1.00

> <Gold.PLP.Chemscore.Internal.Correction>
0.0375

> <Gold.Rescore>
     Score         DG    S(hbond)    S(metal)    S(lipo)     H(rot)  DE(clash)    DE(int)     intcor
     15.28     -16.82       1.99        0.00      76.53       1.67       0.02       1.51       ----

> <Gold.Chemscore.Fitness>
15.2823

> <Gold.Chemscore.DG>
-16.8171

> <Gold.Chemscore.ZeroCoef>
-5.4800

> <Gold.Chemscore.Hbond>
1.9900

> <Gold.Chemscore.Metal>
0.0000

> <Gold.Chemscore.Lipo>
76.5349

> <Gold.Chemscore.Internal_Hbond>
0.0000

> <Gold.Chemscore.DEClash>
0.0234

> <Gold.Chemscore.DEInternal>
1.5114

> <Gold.Chemscore.Rot>
1.6657

> <Gold.Chemscore.Internal.Correction>
   9.000000E+99

> <Gold.Chemscore.Hbonds>
donor molecule, donor type, donor heavy atom, donor atom, acceptor molecule, acceptor atom, score
      L1  H    13    47       P1  7948  0.99
      P1  H  6896  6907       L1     9  0.96

> <Gold.Chemscore.Hbond.Weighted>
-6.6466

> <Gold.Chemscore.Metal.Weighted>
-0.0000

> <Gold.Chemscore.Lipo.Weighted>
-8.9546

> <Gold.Chemscore.Internal_Hbond.Weighted>
0.0000

> <Gold.Chemscore.DEClash.Weighted>
0.0234

> <Gold.Chemscore.DEInternal.Weighted>
1.5114

> <Gold.Chemscore.Rot.Weighted>
4.2641

> <Gold.Chemscore.Internal.Correction.Weighted>
   9.000000E+99

> <Gold.Protein.RotatedTorsions>
[ 6907 6896 6895 6894 ] final -102.82 input  -60.11 | X-H torsion
[ 7974 7965 7964 7962 ] final -161.55 input  175.53 | X-H torsion
[ 8008 7997 7996 7995 ] final   18.19 input   59.86 | X-H torsion
[ 10167 10162 10161 10158 ] final   35.68 input  -65.29 | X-H torsion
[ 10718 10713 10712 10709 ] final -105.99 input   66.30 | X-H torsion
[ 10763 10752 10751 10750 ] final   19.54 input  -60.55 | X-H torsion
[ 11005 11000 10999 10996 ] final   21.60 input  -57.11 | X-H torsion

> <Gold.Protein.ActiveResidues>
 VAL166  LYS551  ARG553  GLY616  TRP617  ASP618  TYR619  PRO620  LYS621  CYS622 
 ASP623  PHE694  ASN695  SER759  ASP760  ASP761  ALA762  ILE779  LEU786  VAL792 
 PHE793  MET794  SER795  GLU796  ALA797  LYS798  CYS799  TRP800  GLU811  SER814 

> <Gold.Protein.RotatedAtoms>
  150.7213  134.0523  159.3802 H   0  0  0  0  0  0  0  0  0  0  0  0  # atno 6907 bound_to 6896
  151.8500  135.0559  160.0467 H   0  0  0  0  0  0  0  0  0  0  0  0  # atno 6908 bound_to 6896
  152.2798  133.5423  159.5527 H   0  0  0  0  0  0  0  0  0  0  0  0  # atno 6909 bound_to 6896
  144.7387  140.3381  143.6140 H   0  0  0  0  0  0  0  0  0  0  0  0  # atno 7974 bound_to 7965
  154.9024  140.3002  155.5310 H   0  0  0  0  0  0  0  0  0  0  0  0  # atno 8008 bound_to 7997
  156.3018  140.2404  156.3989 H   0  0  0  0  0  0  0  0  0  0  0  0  # atno 8009 bound_to 7997
  154.8508  140.0409  157.1591 H   0  0  0  0  0  0  0  0  0  0  0  0  # atno 8010 bound_to 7997
  140.4199  144.1474  150.6147 H   0  0  0  0  0  0  0  0  0  0  0  0  # atno 10167 bound_to 10162
  156.0370  130.5591  150.7618 H   0  0  0  0  0  0  0  0  0  0  0  0  # atno 10718 bound_to 10713
  153.1153  135.6706  153.9429 H   0  0  0  0  0  0  0  0  0  0  0  0  # atno 10763 bound_to 10752
  153.8960  135.3041  155.3449 H   0  0  0  0  0  0  0  0  0  0  0  0  # atno 10764 bound_to 10752
  154.7570  135.5007  153.9471 H   0  0  0  0  0  0  0  0  0  0  0  0  # atno 10765 bound_to 10752
  140.3897  134.1832  155.7662 H   0  0  0  0  0  0  0  0  0  0  0  0  # atno 11005 bound_to 11000
  145.7403  139.1762  143.2380 LP  0  0  0  0  0  0  0  0  0  0  0  0  # atno 17320 bound_to 7965
  146.1139  140.7394  142.9490 LP  0  0  0  0  0  0  0  0  0  0  0  0  # atno 17321 bound_to 7965
  140.4545  143.2473  151.9303 LP  0  0  0  0  0  0  0  0  0  0  0  0  # atno 17342 bound_to 10162
  139.4782  144.5529  151.8358 LP  0  0  0  0  0  0  0  0  0  0  0  0  # atno 17343 bound_to 10162
  157.5135  131.0927  151.0168 LP  0  0  0  0  0  0  0  0  0  0  0  0  # atno 17370 bound_to 10713
  157.0518  130.5790  149.5371 LP  0  0  0  0  0  0  0  0  0  0  0  0  # atno 17371 bound_to 10713
  141.1895  133.8237  157.0955 LP  0  0  0  0  0  0  0  0  0  0  0  0  # atno 17394 bound_to 11000
  140.0416  134.9851  157.0971 LP  0  0  0  0  0  0  0  0  0  0  0  0  # atno 17395 bound_to 11000

$$$$
