AV-unprocessed.smi:101|AV-procd|sdf|939|dock6
  -GOLD-   2262017463D 1   1.00000     0.00000
 Structure written by MMmdl.
 43 45  0  0  0  0  0  0  0  0  2 V2000
  142.7008  139.7824  158.3339 C   0  0  0  0  0  0  0  0  0  0  0  0
  144.1351  140.2665  158.2137 C   0  0  0  0  0  0  0  0  0  0  0  0
  144.9015  139.9909  157.1352 C   0  0  0  0  0  0  0  0  0  0  0  0
  146.2074  140.4366  157.0315 N   0  0  0  0  0  0  0  0  0  0  0  0
  147.0439  140.1076  155.8138 C   0  0  2  0  0  0  0  0  0  0  0  0
  148.2938  139.6625  156.2341 O   0  0  0  0  0  0  0  0  0  0  0  0
  149.2350  139.9539  155.2169 C   0  0  2  0  0  0  0  0  0  0  0  0
  150.6479  139.9361  155.8125 C   0  0  0  0  0  0  0  0  0  0  0  0
  150.7393  140.8962  156.8524 O   0  0  0  0  0  0  0  0  0  0  0  0
  151.8284  140.9297  157.6442 C   0  0  0  0  0  0  0  0  0  0  0  0
  152.6758  140.0349  157.6766 O   0  0  0  0  0  0  0  0  0  0  0  0
  151.9049  142.1656  158.4759 C   0  0  0  0  0  0  0  0  0  0  0  0
  151.3309  143.3637  157.9900 C   0  0  0  0  0  0  0  0  0  0  0  0
  151.3839  144.5460  158.7534 C   0  0  0  0  0  0  0  0  0  0  0  0
  152.0125  144.5452  160.0122 C   0  0  0  0  0  0  0  0  0  0  0  0
  152.5888  143.3603  160.5062 C   0  0  0  0  0  0  0  0  0  0  0  0
  152.5367  142.1766  159.7441 C   0  0  0  0  0  0  0  0  0  0  0  0
  148.7895  141.3216  154.6849 C   0  0  1  0  0  0  0  0  0  0  0  0
  149.1193  141.4413  153.3147 O   0  0  0  0  0  0  0  0  0  0  0  0
  147.2727  141.3149  154.8754 C   0  0  2  0  0  0  0  0  0  0  0  0
  146.8354  142.5536  155.4053 O   0  0  0  0  0  0  0  0  0  0  0  0
  146.7847  141.1778  158.0939 C   0  0  0  0  0  0  0  0  0  0  0  0
  147.9633  141.5175  157.9873 O   0  0  0  0  0  0  0  0  0  0  0  0
  146.0174  141.4675  159.1831 N   0  5  0  0  0  0  0  0  0  0  0  0
  144.7209  141.0590  159.3022 C   0  0  0  0  0  0  0  0  0  0  0  0
  144.0378  141.3319  160.2887 O   0  0  0  0  0  0  0  0  0  0  0  0
  142.4021  139.2065  157.4577 H   0  0  0  0  0  0  0  0  0  0  0  0
  142.0208  140.6296  158.4291 H   0  0  0  0  0  0  0  0  0  0  0  0
  142.5852  139.1465  159.2121 H   0  0  0  0  0  0  0  0  0  0  0  0
  144.4796  139.3992  156.3363 H   0  0  0  0  0  0  0  0  0  0  0  0
  146.5515  139.2713  155.3142 H   0  0  0  0  0  0  0  0  0  0  0  0
  149.1319  139.1842  154.4490 H   0  0  0  0  0  0  0  0  0  0  0  0
  150.8903  138.9393  156.1842 H   0  0  0  0  0  0  0  0  0  0  0  0
  151.3778  140.1829  155.0406 H   0  0  0  0  0  0  0  0  0  0  0  0
  150.8425  143.3888  157.0265 H   0  0  0  0  0  0  0  0  0  0  0  0
  150.9411  145.4545  158.3720 H   0  0  0  0  0  0  0  0  0  0  0  0
  152.0526  145.4519  160.5978 H   0  0  0  0  0  0  0  0  0  0  0  0
  153.0720  143.3586  161.4720 H   0  0  0  0  0  0  0  0  0  0  0  0
  152.9898  141.2850  160.1523 H   0  0  0  0  0  0  0  0  0  0  0  0
  149.2546  142.1233  155.2611 H   0  0  0  0  0  0  0  0  0  0  0  0
  149.1565  140.5750  152.9390 H   0  0  0  0  0  0  0  0  0  0  0  0
  146.7395  141.1167  153.9446 H   0  0  0  0  0  0  0  0  0  0  0  0
  147.5742  143.1433  155.4273 H   0  0  0  0  0  0  0  0  0  0  0  0
  1  2  1  0  0  0  0
  1 27  1  0  0  0  0
  1 28  1  0  0  0  0
  1 29  1  0  0  0  0
  2 25  1  0  0  0  0
  2  3  2  0  0  0  0
  3  4  1  0  0  0  0
  3 30  1  0  0  0  0
  4  5  1  0  0  0  0
  4 22  1  0  0  0  0
  5 20  1  0  0  0  0
  5  6  1  0  0  0  0
  5 31  1  0  0  0  0
  6  7  1  0  0  0  0
  7  8  1  0  0  0  0
  7 18  1  0  0  0  0
  7 32  1  0  0  0  0
  8  9  1  0  0  0  0
  8 33  1  0  0  0  0
  8 34  1  0  0  0  0
  9 10  1  0  0  0  0
 10 11  2  0  0  0  0
 10 12  1  0  0  0  0
 12 17  1  0  0  0  0
 12 13  2  0  0  0  0
 13 14  1  0  0  0  0
 13 35  1  0  0  0  0
 14 15  2  0  0  0  0
 14 36  1  0  0  0  0
 15 16  1  0  0  0  0
 15 37  1  0  0  0  0
 16 17  2  0  0  0  0
 16 38  1  0  0  0  0
 17 39  1  0  0  0  0
 18 19  1  0  0  0  0
 18 20  1  0  0  0  0
 18 40  1  0  0  0  0
 19 41  1  0  0  0  0
 20 21  1  0  0  0  0
 20 42  1  0  0  0  0
 21 43  1  0  0  0  0
 22 23  2  0  0  0  0
 22 24  1  0  0  0  0
 24 25  1  0  0  0  0
 25 26  2  0  0  0  0
M  CHG  1  24  -1
M  END
> <s_m_source_file>
AV-unprocessed.smi

> <i_m_source_file_index>
101

> <i_lp_mmshare_version>
43012

> <i_f3d_flags>
0

> <s_epik_input>
Tz1jMVtuSF1jKD1PKW4oW2NIXWMxW0NIM10pW0NAQEhdMk9bQ0BIXShbQ0BASF0oW09IXSlbQ0BIXTJbT0hdKVtDSDJdT0MoPU8pYzNbY0hdW2NIXVtjSF1bY0hdW2NIXTM=

> <s_epik_cmdline>
J2VwaWtfcHl0aG9uJywgJy1waCcsICc3LjAnLCAnLXRuJywgJzgnLCAnLW1hJywgJzIwMCcsICctbWV0YWxfYmluZGluZycsICctaW1hZScsICc8aW5maWxlLm1hZT4nLCAnLW9tYWUnLCAnPG91dGZpbGUubWFlPic=

> <r_lp_tautomer_probability>
0.999537

> <r_epik_Ionization_Penalty>
3.21006

> <r_epik_Ionization_Penalty_Charging>
5.75142e-08

> <r_epik_Ionization_Penalty_Neutral>
3.21006

> <r_epik_State_Penalty>
3.20925

> <r_epik_Charging_Adjusted_Penalty>
3.20925

> <i_epik_Tot_Q>
-1

> <i_epik_Tot_abs_Q>
1

> <r_epik_Metal_State_Penalty>
0.119957

> <b_epik_Metal_Only>
1

> <s_epik_Chemistry_Notes>
This compound has an ester and may undergo hydrolysis at high or low pH. This compound contains an acetal/aminal-like group ( X-CH(R)-Y where X, Y are N, S, or O) that may be acid/base labile, releasing an aldehyde.

> <s_lp_Force_Field>
OPLS_2005

> <r_lp_Energy>
44.2535

> <b_lp_Chiralities_Consistent>
1

> <s_lp_Variant>
AV-unprocessed.smi:101-27

> <Gold.Version>
5.8.1

> <Gold.Id.Protein>
6NUR|6NUR_protein|mol2

> <Gold.PLP.Fitness>
53.6297

> <Gold.PLP.PLP>
-39.3369

> <Gold.PLP.part.hbond>
-5.4967

> <Gold.PLP.part.metal>
0.0000

> <Gold.PLP.part.buried>
-5.6656

> <Gold.PLP.part.nonpolar>
-28.5962

> <Gold.PLP.part.repulsive>
0.1299

> <Gold.PLP.ligand.clash>
0.0000

> <Gold.PLP.ligand.torsion>
0.8629

> <Gold.PLP.Chemscore.Hbond>
5.2560

> <Gold.PLP.Chemscore.CHOScore>
0.0000

> <Gold.PLP.Chemscore.Metal>
0.0000

> <Gold.Chemscore.Hbonds>
donor molecule, donor type, donor heavy atom, donor atom, acceptor molecule, acceptor atom, score
      L1  H    19    41       P1  7957  0.58
      L1  H    21    43       P1  8028  1.00
      P1  H  6934  6946       L1    24  1.70
      P1  H  7997  8008       L1    11  1.00
      P1  H  8011  8017       L1    19  0.94

> <Gold.PLP.Chemscore.Internal.Correction>
0.2507

> <Gold.Rescore>
     Score         DG    S(hbond)    S(metal)    S(lipo)     H(rot)  DE(clash)    DE(int)     intcor
     16.12     -19.85       3.59        0.00      91.69       3.27       0.03       3.70       ----

> <Gold.Chemscore.Fitness>
16.1210

> <Gold.Chemscore.DG>
-19.8519

> <Gold.Chemscore.ZeroCoef>
-5.4800

> <Gold.Chemscore.Hbond>
3.5939

> <Gold.Chemscore.Metal>
0.0000

> <Gold.Chemscore.Lipo>
91.6923

> <Gold.Chemscore.Internal_Hbond>
0.0000

> <Gold.Chemscore.DEClash>
0.0314

> <Gold.Chemscore.DEInternal>
3.6995

> <Gold.Chemscore.Rot>
3.2656

> <Gold.Chemscore.Internal.Correction>
   9.000000E+99

> <Gold.Chemscore.Hbonds>
donor molecule, donor type, donor heavy atom, donor atom, acceptor molecule, acceptor atom, score
      L1  H    19    41       P1  7957  0.58
      L1  H    21    43       P1  8028  0.28
      P1  H  6934  6946       L1    24  0.30
      P1  H  7997  8008       L1    11  0.96
      P1  H  8011  8017       L1    19  0.56

> <Gold.Chemscore.Hbond.Weighted>
-12.0037

> <Gold.Chemscore.Metal.Weighted>
-0.0000

> <Gold.Chemscore.Lipo.Weighted>
-10.7280

> <Gold.Chemscore.Internal_Hbond.Weighted>
0.0000

> <Gold.Chemscore.DEClash.Weighted>
0.0314

> <Gold.Chemscore.DEInternal.Weighted>
3.6995

> <Gold.Chemscore.Rot.Weighted>
8.3598

> <Gold.Chemscore.Internal.Correction.Weighted>
   9.000000E+99

> <Gold.Protein.RotatedTorsions>
[ 6907 6896 6895 6894 ] final  -96.42 input  -60.11 | X-H torsion
[ 7974 7965 7964 7962 ] final -131.45 input  175.53 | X-H torsion
[ 8008 7997 7996 7995 ] final  -65.97 input   59.86 | X-H torsion
[ 10167 10162 10161 10158 ] final   70.27 input  -65.29 | X-H torsion
[ 10718 10713 10712 10709 ] final  -94.10 input   66.30 | X-H torsion
[ 10763 10752 10751 10750 ] final   81.48 input  -60.55 | X-H torsion
[ 11005 11000 10999 10996 ] final  148.78 input  -57.11 | X-H torsion

> <Gold.Protein.ActiveResidues>
 VAL166  LYS551  ARG553  GLY616  TRP617  ASP618  TYR619  PRO620  LYS621  CYS622 
 ASP623  PHE694  ASN695  SER759  ASP760  ASP761  ALA762  ILE779  LEU786  VAL792 
 PHE793  MET794  SER795  GLU796  ALA797  LYS798  CYS799  TRP800  GLU811  SER814 

> <Gold.Protein.RotatedAtoms>
  150.6988  134.1506  159.4138 H   0  0  0  0  0  0  0  0  0  0  0  0  # atno 6907 bound_to 6896
  151.9489  135.0176  160.0550 H   0  0  0  0  0  0  0  0  0  0  0  0  # atno 6908 bound_to 6896
  152.2028  133.4818  159.5104 H   0  0  0  0  0  0  0  0  0  0  0  0  # atno 6909 bound_to 6896
  144.9378  140.7203  143.4866 H   0  0  0  0  0  0  0  0  0  0  0  0  # atno 7974 bound_to 7965
  154.4705  140.0922  156.7132 H   0  0  0  0  0  0  0  0  0  0  0  0  # atno 8008 bound_to 7997
  155.4738  140.3465  155.4311 H   0  0  0  0  0  0  0  0  0  0  0  0  # atno 8009 bound_to 7997
  156.1031  140.1427  156.9430 H   0  0  0  0  0  0  0  0  0  0  0  0  # atno 8010 bound_to 7997
  140.0588  144.5250  150.7309 H   0  0  0  0  0  0  0  0  0  0  0  0  # atno 10167 bound_to 10162
  156.0022  130.5054  150.5876 H   0  0  0  0  0  0  0  0  0  0  0  0  # atno 10718 bound_to 10713
  153.1120  135.4764  154.9051 H   0  0  0  0  0  0  0  0  0  0  0  0  # atno 10763 bound_to 10752
  154.7490  135.3101  154.8594 H   0  0  0  0  0  0  0  0  0  0  0  0  # atno 10764 bound_to 10752
  153.9181  135.6858  153.4802 H   0  0  0  0  0  0  0  0  0  0  0  0  # atno 10765 bound_to 10752
  140.0989  134.8995  157.1765 H   0  0  0  0  0  0  0  0  0  0  0  0  # atno 11005 bound_to 11000
  145.3039  139.1841  143.4675 LP  0  0  0  0  0  0  0  0  0  0  0  0  # atno 17320 bound_to 7965
  146.3273  140.3034  142.8622 LP  0  0  0  0  0  0  0  0  0  0  0  0  # atno 17321 bound_to 7965
  140.7182  143.2563  151.4366 LP  0  0  0  0  0  0  0  0  0  0  0  0  # atno 17342 bound_to 10162
  139.5907  144.1506  152.2084 LP  0  0  0  0  0  0  0  0  0  0  0  0  # atno 17343 bound_to 10162
  157.3746  131.0771  151.1529 LP  0  0  0  0  0  0  0  0  0  0  0  0  # atno 17370 bound_to 10713
  157.2271  130.6508  149.5834 LP  0  0  0  0  0  0  0  0  0  0  0  0  # atno 17371 bound_to 10713
  140.3248  134.2876  155.7239 LP  0  0  0  0  0  0  0  0  0  0  0  0  # atno 17394 bound_to 11000
  141.2100  133.7732  156.9961 LP  0  0  0  0  0  0  0  0  0  0  0  0  # atno 17395 bound_to 11000

$$$$
