AV-unprocessed.smi:2809|AV-procd|sdf|10826|dock1
  -GOLD-   2272015263D 1   1.00000     0.00000
 Structure written by MMmdl.
 44 45  0  0  0  0  0  0  0  0  1 V2000
  153.0485  142.6934  162.8448 C   0  0  0  0  0  0  0  0  0  0  0  0
  153.5851  141.6926  161.8158 C   0  0  0  0  0  0  0  0  0  0  0  0
  152.8633  141.7917  160.4853 C   0  0  0  0  0  0  0  0  0  0  0  0
  152.1166  142.9431  160.1663 C   0  0  0  0  0  0  0  0  0  0  0  0
  151.4451  143.0302  158.9318 C   0  0  0  0  0  0  0  0  0  0  0  0
  151.5070  141.9746  157.9994 C   0  0  0  0  0  0  0  0  0  0  0  0
  150.8139  142.1425  156.8204 O   0  0  0  0  0  0  0  0  0  0  0  0
  150.8277  141.0833  155.8709 C   0  0  0  0  0  0  0  0  0  0  0  0
  149.4532  140.9814  155.1887 C   0  0  1  0  0  0  0  0  0  0  0  0
  149.2953  142.1265  154.3753 O   0  0  0  0  0  0  0  0  0  0  0  0
  149.2849  139.6955  154.3489 C   0  0  0  0  0  0  0  0  0  0  0  0
  149.8561  138.5169  155.0216 N   0  0  0  0  0  0  0  0  0  0  0  0
  150.7633  137.7517  154.2708 C   0  0  0  0  0  0  0  0  0  0  0  0
  151.3218  136.6912  154.7557 N   0  0  0  0  0  0  0  0  0  0  0  0
  151.0225  136.2791  156.0575 C   0  0  0  0  0  0  0  0  0  0  0  0
  151.7284  135.0188  156.5254 C   0  0  0  0  0  0  0  0  0  0  0  0
  150.1490  136.9745  156.8361 C   0  0  0  0  0  0  0  0  0  0  0  0
  149.7798  136.5697  158.2577 C   0  0  0  0  0  0  0  0  0  0  0  0
  149.5040  138.1826  156.2967 C   0  0  0  0  0  0  0  0  0  0  0  0
  148.6955  138.8533  156.9415 O   0  0  0  0  0  0  0  0  0  0  0  0
  152.2649  140.8210  158.3230 C   0  0  0  0  0  0  0  0  0  0  0  0
  152.9366  140.7329  159.5580 C   0  0  0  0  0  0  0  0  0  0  0  0
  153.5836  142.6020  163.7902 H   0  0  0  0  0  0  0  0  0  0  0  0
  151.9899  142.5244  163.0440 H   0  0  0  0  0  0  0  0  0  0  0  0
  153.1646  143.7194  162.4946 H   0  0  0  0  0  0  0  0  0  0  0  0
  154.6513  141.8599  161.6579 H   0  0  0  0  0  0  0  0  0  0  0  0
  153.4886  140.6774  162.2028 H   0  0  0  0  0  0  0  0  0  0  0  0
  152.0557  143.7630  160.8671 H   0  0  0  0  0  0  0  0  0  0  0  0
  150.8744  143.9172  158.6985 H   0  0  0  0  0  0  0  0  0  0  0  0
  151.5833  141.2971  155.1131 H   0  0  0  0  0  0  0  0  0  0  0  0
  151.0878  140.1323  156.3393 H   0  0  0  0  0  0  0  0  0  0  0  0
  148.6908  141.0269  155.9671 H   0  0  0  0  0  0  0  0  0  0  0  0
  149.2292  142.8842  154.9365 H   0  0  0  0  0  0  0  0  0  0  0  0
  148.2364  139.5466  154.0820 H   0  0  0  0  0  0  0  0  0  0  0  0
  149.7892  139.8241  153.3893 H   0  0  0  0  0  0  0  0  0  0  0  0
  150.9566  138.1114  153.2586 H   0  0  0  0  0  0  0  0  0  0  0  0
  152.3545  135.2313  157.3921 H   0  0  0  0  0  0  0  0  0  0  0  0
  152.3691  134.6081  155.7438 H   0  0  0  0  0  0  0  0  0  0  0  0
  151.0019  134.2528  156.7980 H   0  0  0  0  0  0  0  0  0  0  0  0
  148.7175  136.3311  158.3149 H   0  0  0  0  0  0  0  0  0  0  0  0
  149.9811  137.3896  158.9480 H   0  0  0  0  0  0  0  0  0  0  0  0
  150.3323  135.7017  158.6139 H   0  0  0  0  0  0  0  0  0  0  0  0
  152.3474  139.9888  157.6409 H   0  0  0  0  0  0  0  0  0  0  0  0
  153.5098  139.8475  159.7911 H   0  0  0  0  0  0  0  0  0  0  0  0
  1  2  1  0  0  0  0
  1 23  1  0  0  0  0
  1 24  1  0  0  0  0
  1 25  1  0  0  0  0
  2  3  1  0  0  0  0
  2 26  1  0  0  0  0
  2 27  1  0  0  0  0
  3 22  1  0  0  0  0
  3  4  2  0  0  0  0
  4  5  1  0  0  0  0
  4 28  1  0  0  0  0
  5  6  2  0  0  0  0
  5 29  1  0  0  0  0
  6  7  1  0  0  0  0
  6 21  1  0  0  0  0
  7  8  1  0  0  0  0
  8  9  1  0  0  0  0
  8 30  1  0  0  0  0
  8 31  1  0  0  0  0
  9 10  1  0  0  0  0
  9 11  1  0  0  0  0
  9 32  1  0  0  0  0
 10 33  1  0  0  0  0
 11 12  1  0  0  0  0
 11 34  1  0  0  0  0
 11 35  1  0  0  0  0
 12 19  1  0  0  0  0
 12 13  1  0  0  0  0
 13 14  2  0  0  0  0
 13 36  1  0  0  0  0
 14 15  1  0  0  0  0
 15 16  1  0  0  0  0
 15 17  2  0  0  0  0
 16 37  1  0  0  0  0
 16 38  1  0  0  0  0
 16 39  1  0  0  0  0
 17 18  1  0  0  0  0
 17 19  1  0  0  0  0
 18 40  1  0  0  0  0
 18 41  1  0  0  0  0
 18 42  1  0  0  0  0
 19 20  2  0  0  0  0
 21 22  2  0  0  0  0
 21 43  1  0  0  0  0
 22 44  1  0  0  0  0
M  END
> <s_m_source_file>
AV-unprocessed.smi

> <i_m_source_file_index>
2809

> <i_lp_mmshare_version>
43012

> <i_f3d_flags>
0

> <s_epik_input>
W0NIM11bQ0gyXWMxW2NIXVtjSF1jKFtjSF1bY0hdMSlPW0NIMl1bQ0BIXShbT0hdKVtDSDJdbjJbY0hdbmMoW0NIM10pYyhbQ0gzXSljMj1P

> <s_epik_cmdline>
J2VwaWtfcHl0aG9uJywgJy1waCcsICc3LjAnLCAnLXRuJywgJzgnLCAnLW1hJywgJzIwMCcsICctbWV0YWxfYmluZGluZycsICctaW1hZScsICc8aW5maWxlLm1hZT4nLCAnLW9tYWUnLCAnPG91dGZpbGUubWFlPic=

> <r_lp_tautomer_probability>
1

> <r_epik_Ionization_Penalty>
3.74127e-05

> <r_epik_Ionization_Penalty_Charging>
8.43242e-08

> <r_epik_Ionization_Penalty_Neutral>
3.73284e-05

> <r_epik_State_Penalty>
-0

> <r_epik_Charging_Adjusted_Penalty>
8.43242e-08

> <i_epik_Tot_Q>
0

> <i_epik_Tot_abs_Q>
0

> <r_epik_Metal_State_Penalty>
-0

> <b_epik_Metal_Only>
0

> <s_lp_Force_Field>
OPLS_2005

> <r_lp_Energy>
23.3526

> <b_lp_Chiralities_Consistent>
1

> <s_lp_Variant>
AV-unprocessed.smi:2809-2

> <Gold.Version>
5.8.1

> <Gold.Id.Protein>
6NUR|6NUR_protein|mol2

> <Gold.PLP.Fitness>
48.6252

> <Gold.PLP.PLP>
-42.4054

> <Gold.PLP.part.hbond>
-3.6291

> <Gold.PLP.part.metal>
0.0000

> <Gold.PLP.part.buried>
-3.0564

> <Gold.PLP.part.nonpolar>
-36.0062

> <Gold.PLP.part.repulsive>
0.2382

> <Gold.PLP.ligand.clash>
0.0000

> <Gold.PLP.ligand.torsion>
0.7806

> <Gold.PLP.Chemscore.Hbond>
2.2912

> <Gold.PLP.Chemscore.CHOScore>
0.2837

> <Gold.PLP.Chemscore.Metal>
0.0000

> <Gold.Chemscore.Hbonds>
donor molecule, donor type, donor heavy atom, donor atom, acceptor molecule, acceptor atom, score
      L1  H    10    33       P1  8028  1.00
      P1  H  8011  8017       L1    10  0.23
      P1  H 10752 10764       L1    14  0.85
      L1  C    13    36       P1  7949  0.26

> <Gold.PLP.Chemscore.Internal.Correction>
0.0562

> <Gold.Rescore>
     Score         DG    S(hbond)    S(metal)    S(lipo)     H(rot)  DE(clash)    DE(int)     intcor
     16.74     -18.58       1.92        0.00     111.25       2.47       0.04       1.81       ----

> <Gold.Chemscore.Fitness>
16.7363

> <Gold.Chemscore.DG>
-18.5806

> <Gold.Chemscore.ZeroCoef>
-5.4800

> <Gold.Chemscore.Hbond>
1.9151

> <Gold.Chemscore.Metal>
0.0000

> <Gold.Chemscore.Lipo>
111.2485

> <Gold.Chemscore.Internal_Hbond>
0.0000

> <Gold.Chemscore.DEClash>
0.0378

> <Gold.Chemscore.DEInternal>
1.8065

> <Gold.Chemscore.Rot>
2.4657

> <Gold.Chemscore.Internal.Correction>
   9.000000E+99

> <Gold.Chemscore.Hbonds>
donor molecule, donor type, donor heavy atom, donor atom, acceptor molecule, acceptor atom, score
      L1  H    10    33       P1  8028  0.97
      P1  H  8011  8017       L1    10  0.23
      P1  H 10752 10764       L1    14  0.14

> <Gold.Chemscore.Hbond.Weighted>
-6.3966

> <Gold.Chemscore.Metal.Weighted>
-0.0000

> <Gold.Chemscore.Lipo.Weighted>
-13.0161

> <Gold.Chemscore.Internal_Hbond.Weighted>
0.0000

> <Gold.Chemscore.DEClash.Weighted>
0.0378

> <Gold.Chemscore.DEInternal.Weighted>
1.8065

> <Gold.Chemscore.Rot.Weighted>
6.3121

> <Gold.Chemscore.Internal.Correction.Weighted>
   9.000000E+99

> <Gold.Protein.RotatedTorsions>
[ 6907 6896 6895 6894 ] final  -88.24 input  -60.11 | X-H torsion
[ 7974 7965 7964 7962 ] final -144.05 input  175.53 | X-H torsion
[ 8008 7997 7996 7995 ] final -107.61 input   59.86 | X-H torsion
[ 10167 10162 10161 10158 ] final   -9.40 input  -65.29 | X-H torsion
[ 10718 10713 10712 10709 ] final   64.34 input   66.30 | X-H torsion
[ 10763 10752 10751 10750 ] final  -62.78 input  -60.55 | X-H torsion
[ 11005 11000 10999 10996 ] final  -20.41 input  -57.11 | X-H torsion

> <Gold.Protein.ActiveResidues>
 VAL166  LYS551  ARG553  GLY616  TRP617  ASP618  TYR619  PRO620  LYS621  CYS622 
 ASP623  PHE694  ASN695  SER759  ASP760  ASP761  ALA762  ILE779  LEU786  VAL792 
 PHE793  MET794  SER795  GLU796  ALA797  LYS798  CYS799  TRP800  GLU811  SER814 

> <Gold.Protein.RotatedAtoms>
  150.6868  134.2771  159.4611 H   0  0  0  0  0  0  0  0  0  0  0  0  # atno 6907 bound_to 6896
  152.0689  134.9544  160.0584 H   0  0  0  0  0  0  0  0  0  0  0  0  # atno 6908 bound_to 6896
  152.0942  133.4181  159.4594 H   0  0  0  0  0  0  0  0  0  0  0  0  # atno 6909 bound_to 6896
  144.8325  140.5758  143.5505 H   0  0  0  0  0  0  0  0  0  0  0  0  # atno 7974 bound_to 7965
  154.9320  140.0405  157.2053 H   0  0  0  0  0  0  0  0  0  0  0  0  # atno 8008 bound_to 7997
  154.8152  140.2874  155.5803 H   0  0  0  0  0  0  0  0  0  0  0  0  # atno 8009 bound_to 7997
  156.2975  140.2529  156.3048 H   0  0  0  0  0  0  0  0  0  0  0  0  # atno 8010 bound_to 7997
  140.7086  143.5862  150.8940 H   0  0  0  0  0  0  0  0  0  0  0  0  # atno 10167 bound_to 10162
  157.6032  130.9154  149.9832 H   0  0  0  0  0  0  0  0  0  0  0  0  # atno 10718 bound_to 10713
  154.3051  135.6227  153.5441 H   0  0  0  0  0  0  0  0  0  0  0  0  # atno 10763 bound_to 10752
  152.9836  135.5688  154.5240 H   0  0  0  0  0  0  0  0  0  0  0  0  # atno 10764 bound_to 10752
  154.4879  135.2866  155.1496 H   0  0  0  0  0  0  0  0  0  0  0  0  # atno 10765 bound_to 10752
  140.8461  133.7890  155.9914 H   0  0  0  0  0  0  0  0  0  0  0  0  # atno 11005 bound_to 11000
  145.4865  139.1491  143.3733 LP  0  0  0  0  0  0  0  0  0  0  0  0  # atno 17320 bound_to 7965
  146.2627  140.5002  142.8847 LP  0  0  0  0  0  0  0  0  0  0  0  0  # atno 17321 bound_to 7965
  139.9588  143.6187  152.3008 LP  0  0  0  0  0  0  0  0  0  0  0  0  # atno 17342 bound_to 10162
  139.6733  144.7660  151.1743 LP  0  0  0  0  0  0  0  0  0  0  0  0  # atno 17343 bound_to 10162
  156.1111  130.3650  150.0047 LP  0  0  0  0  0  0  0  0  0  0  0  0  # atno 17370 bound_to 10713
  156.8145  130.9336  151.3643 LP  0  0  0  0  0  0  0  0  0  0  0  0  # atno 17371 bound_to 10713
  140.8842  134.2575  157.5128 LP  0  0  0  0  0  0  0  0  0  0  0  0  # atno 17394 bound_to 11000
  139.8703  134.9630  156.4446 LP  0  0  0  0  0  0  0  0  0  0  0  0  # atno 17395 bound_to 11000

$$$$
