AV-unprocessed.smi:3009|AV-procd|sdf|11449|dock6
  -GOLD-   2272016383D 1   1.00000     0.00000
 Structure written by MMmdl.
 44 45  0  0  0  0  0  0  0  0  2 V2000
  148.7419  128.0130  152.2640 C   0  0  0  0  0  0  0  0  0  0  0  0
  147.3229  127.9035  151.6866 C   0  0  0  0  0  0  0  0  0  0  0  0
  147.3687  127.9094  150.1493 C   0  0  0  0  0  0  0  0  0  0  0  0
  146.4238  129.0295  152.2430 C   0  0  0  0  0  0  0  0  0  0  0  0
  146.9635  130.3911  151.9933 N   0  3  1  0  0  0  0  0  0  0  0  0
  145.9166  131.4153  151.7541 C   0  0  0  0  0  0  0  0  0  0  0  0
  146.5596  132.7830  151.4711 C   0  0  0  0  0  0  0  0  0  0  0  0
  147.4093  133.1429  152.5528 O   0  0  0  0  0  0  0  0  0  0  0  0
  148.4788  132.2189  152.7282 C   0  0  1  0  0  0  0  0  0  0  0  0
  149.3941  132.7395  153.8511 C   0  0  0  0  0  0  0  0  0  0  0  0
  149.7645  134.1364  153.6501 N   0  0  0  0  0  0  0  0  0  0  0  0
  150.6877  134.7953  154.3641 C   0  0  0  0  0  0  0  0  0  0  0  0
  151.3313  134.2805  155.2786 O   0  0  0  0  0  0  0  0  0  0  0  0
  150.8123  136.0662  153.9500 N   0  0  0  0  0  0  0  0  0  0  0  0
  151.7009  137.0482  154.4550 C   0  0  0  0  0  0  0  0  0  0  0  0
  152.6187  136.9603  155.5427 C   0  0  0  0  0  0  0  0  0  0  0  0
  153.2809  138.0970  155.7046 N   0  0  0  0  0  0  0  0  0  0  0  0
  152.7970  138.9063  154.7357 N   0  0  0  0  0  0  0  0  0  0  0  0
  151.8347  138.3082  153.9524 C   0  0  0  0  0  0  0  0  0  0  0  0
  147.8849  130.8379  153.0650 C   0  0  0  0  0  0  0  0  0  0  0  0
  153.1303  139.8533  154.6233 H   0  0  0  0  0  0  0  0  0  0  0  0
  149.2149  128.9532  151.9785 H   0  0  0  0  0  0  0  0  0  0  0  0
  149.3761  127.2002  151.9085 H   0  0  0  0  0  0  0  0  0  0  0  0
  148.7289  127.9646  153.3533 H   0  0  0  0  0  0  0  0  0  0  0  0
  146.9300  126.9391  152.0068 H   0  0  0  0  0  0  0  0  0  0  0  0
  147.7569  128.8540  149.7668 H   0  0  0  0  0  0  0  0  0  0  0  0
  146.3790  127.7563  149.7185 H   0  0  0  0  0  0  0  0  0  0  0  0
  148.0106  127.1116  149.7745 H   0  0  0  0  0  0  0  0  0  0  0  0
  145.4191  128.9609  151.8227 H   0  0  0  0  0  0  0  0  0  0  0  0
  146.3129  128.8778  153.3178 H   0  0  0  0  0  0  0  0  0  0  0  0
  145.2897  131.1347  150.9088 H   0  0  0  0  0  0  0  0  0  0  0  0
  145.2654  131.4853  152.6268 H   0  0  0  0  0  0  0  0  0  0  0  0
  147.1244  132.7636  150.5376 H   0  0  0  0  0  0  0  0  0  0  0  0
  145.7883  133.5453  151.3599 H   0  0  0  0  0  0  0  0  0  0  0  0
  149.0500  132.1440  151.8010 H   0  0  0  0  0  0  0  0  0  0  0  0
  148.8931  132.6519  154.8156 H   0  0  0  0  0  0  0  0  0  0  0  0
  150.2978  132.1313  153.9164 H   0  0  0  0  0  0  0  0  0  0  0  0
  149.2840  134.6346  152.9152 H   0  0  0  0  0  0  0  0  0  0  0  0
  150.2119  136.3619  153.1942 H   0  0  0  0  0  0  0  0  0  0  0  0
  152.8292  136.1361  156.2079 H   0  0  0  0  0  0  0  0  0  0  0  0
  151.3468  138.8171  153.1343 H   0  0  0  0  0  0  0  0  0  0  0  0
  147.3487  130.8764  154.0149 H   0  0  0  0  0  0  0  0  0  0  0  0
  148.6915  130.1127  153.1806 H   0  0  0  0  0  0  0  0  0  0  0  0
  147.5189  130.3313  151.1515 H   0  0  0  0  0  0  0  0  0  0  0  0
  1  2  1  0  0  0  0
  1 22  1  0  0  0  0
  1 23  1  0  0  0  0
  1 24  1  0  0  0  0
  2  3  1  0  0  0  0
  2  4  1  0  0  0  0
  2 25  1  0  0  0  0
  3 26  1  0  0  0  0
  3 27  1  0  0  0  0
  3 28  1  0  0  0  0
  4  5  1  0  0  0  0
  4 29  1  0  0  0  0
  4 30  1  0  0  0  0
  5 20  1  0  0  0  0
  5  6  1  0  0  0  0
  5 44  1  0  0  0  0
  6  7  1  0  0  0  0
  6 31  1  0  0  0  0
  6 32  1  0  0  0  0
  7  8  1  0  0  0  0
  7 33  1  0  0  0  0
  7 34  1  0  0  0  0
  8  9  1  0  0  0  0
  9 10  1  0  0  0  0
  9 20  1  0  0  0  0
  9 35  1  0  0  0  0
 10 11  1  0  0  0  0
 10 36  1  0  0  0  0
 10 37  1  0  0  0  0
 11 12  1  0  0  0  0
 11 38  1  0  0  0  0
 12 13  2  0  0  0  0
 12 14  1  0  0  0  0
 14 15  1  0  0  0  0
 14 39  1  0  0  0  0
 15 19  2  0  0  0  0
 15 16  1  0  0  0  0
 16 17  2  0  0  0  0
 16 40  1  0  0  0  0
 17 18  1  0  0  0  0
 18 21  1  0  0  0  0
 18 19  1  0  0  0  0
 19 41  1  0  0  0  0
 20 42  1  0  0  0  0
 20 43  1  0  0  0  0
M  CHG  1   5   1
M  END
> <s_m_source_file>
AV-unprocessed.smi

> <i_m_source_file_index>
3009

> <i_lp_mmshare_version>
43012

> <i_f3d_flags>
0

> <s_epik_input>
W0NIM11bQ0hdKFtDSDNdKVtDSDJdTjFbQ0gyXVtDSDJdT1tDQEhdKFtDSDJdMSlbQ0gyXVtOSF1DKD1PKVtOSF1jMltjSF1uW25IXVtjSF0y

> <s_epik_cmdline>
J2VwaWtfcHl0aG9uJywgJy1waCcsICc3LjAnLCAnLXRuJywgJzgnLCAnLW1hJywgJzIwMCcsICctbWV0YWxfYmluZGluZycsICctaW1hZScsICc8aW5maWxlLm1hZT4nLCAnLW9tYWUnLCAnPG91dGZpbGUubWFlPic=

> <r_lp_tautomer_probability>
0.5

> <r_epik_Ionization_Penalty>
0.0974064

> <r_epik_Ionization_Penalty_Charging>
0.0973651

> <r_epik_Ionization_Penalty_Neutral>
4.13573e-05

> <r_epik_State_Penalty>
0.0874853

> <r_epik_Charging_Adjusted_Penalty>
0.18485

> <i_epik_Tot_Q>
1

> <i_epik_Tot_abs_Q>
1

> <r_epik_Metal_State_Penalty>
0.0874855

> <b_epik_Metal_Only>
0

> <s_lp_Force_Field>
OPLS_2005

> <r_lp_Energy>
19.2351

> <b_lp_Chiralities_Consistent>
1

> <s_lp_Variant>
AV-unprocessed.smi:3009-1

> <Gold.Version>
5.8.1

> <Gold.Id.Protein>
6NUR|6NUR_protein|mol2

> <Gold.PLP.Fitness>
45.4064

> <Gold.PLP.PLP>
-35.1458

> <Gold.PLP.part.hbond>
-3.6906

> <Gold.PLP.part.metal>
0.0000

> <Gold.PLP.part.buried>
-5.5482

> <Gold.PLP.part.nonpolar>
-27.0492

> <Gold.PLP.part.repulsive>
0.4046

> <Gold.PLP.ligand.clash>
0.0000

> <Gold.PLP.ligand.torsion>
0.5041

> <Gold.PLP.Chemscore.Hbond>
2.9920

> <Gold.PLP.Chemscore.CHOScore>
0.7544

> <Gold.PLP.Chemscore.Metal>
0.0000

> <Gold.Chemscore.Hbonds>
donor molecule, donor type, donor heavy atom, donor atom, acceptor molecule, acceptor atom, score
      L1  H     5    44       P1 10747  0.96
      L1  H    11    38       P1  7948  0.15
      L1  H    14    39       P1  7948  0.25
      L1  C    19    41       P1  7957  0.11

> <Gold.PLP.Chemscore.Internal.Correction>
0.0297

> <Gold.Rescore>
     Score         DG    S(hbond)    S(metal)    S(lipo)     H(rot)  DE(clash)    DE(int)     intcor
     16.77     -18.99       2.43        0.00      85.32       1.80       0.47       1.74       ----

> <Gold.Chemscore.Fitness>
16.7747

> <Gold.Chemscore.DG>
-18.9860

> <Gold.Chemscore.ZeroCoef>
-5.4800

> <Gold.Chemscore.Hbond>
2.4317

> <Gold.Chemscore.Metal>
0.0000

> <Gold.Chemscore.Lipo>
85.3227

> <Gold.Chemscore.Internal_Hbond>
0.0000

> <Gold.Chemscore.DEClash>
0.4715

> <Gold.Chemscore.DEInternal>
1.7398

> <Gold.Chemscore.Rot>
1.7963

> <Gold.Chemscore.Internal.Correction>
   9.000000E+99

> <Gold.Chemscore.Hbonds>
donor molecule, donor type, donor heavy atom, donor atom, acceptor molecule, acceptor atom, score
      L1  H     5    44       P1 10747  0.92

> <Gold.Chemscore.Hbond.Weighted>
-8.1217

> <Gold.Chemscore.Metal.Weighted>
-0.0000

> <Gold.Chemscore.Lipo.Weighted>
-9.9828

> <Gold.Chemscore.Internal_Hbond.Weighted>
0.0000

> <Gold.Chemscore.DEClash.Weighted>
0.4715

> <Gold.Chemscore.DEInternal.Weighted>
1.7398

> <Gold.Chemscore.Rot.Weighted>
4.5985

> <Gold.Chemscore.Internal.Correction.Weighted>
   9.000000E+99

> <Gold.Protein.RotatedTorsions>
[ 6907 6896 6895 6894 ] final  -78.84 input  -60.11 | X-H torsion
[ 7974 7965 7964 7962 ] final -161.28 input  175.53 | X-H torsion
[ 8008 7997 7996 7995 ] final -107.69 input   59.86 | X-H torsion
[ 10167 10162 10161 10158 ] final   79.38 input  -65.29 | X-H torsion
[ 10718 10713 10712 10709 ] final    8.24 input   66.30 | X-H torsion
[ 10763 10752 10751 10750 ] final  -98.74 input  -60.55 | X-H torsion
[ 11005 11000 10999 10996 ] final  139.03 input  -57.11 | X-H torsion

> <Gold.Protein.ActiveResidues>
 VAL166  LYS551  ARG553  GLY616  TRP617  ASP618  TYR619  PRO620  LYS621  CYS622 
 ASP623  PHE694  ASN695  SER759  ASP760  ASP761  ALA762  ILE779  LEU786  VAL792 
 PHE793  MET794  SER795  GLU796  ALA797  LYS798  CYS799  TRP800  GLU811  SER814 

> <Gold.Protein.RotatedAtoms>
  150.6963  134.4211  159.5205 H   0  0  0  0  0  0  0  0  0  0  0  0  # atno 6907 bound_to 6896
  152.1954  134.8632  160.0522 H   0  0  0  0  0  0  0  0  0  0  0  0  # atno 6908 bound_to 6896
  151.9572  133.3649  159.4059 H   0  0  0  0  0  0  0  0  0  0  0  0  # atno 6909 bound_to 6896
  144.7397  140.3421  143.6132 H   0  0  0  0  0  0  0  0  0  0  0  0  # atno 7974 bound_to 7965
  154.9330  140.0404  157.2058 H   0  0  0  0  0  0  0  0  0  0  0  0  # atno 8008 bound_to 7997
  154.8142  140.2873  155.5810 H   0  0  0  0  0  0  0  0  0  0  0  0  # atno 8009 bound_to 7997
  156.2974  140.2531  156.3036 H   0  0  0  0  0  0  0  0  0  0  0  0  # atno 8010 bound_to 7997
  139.9609  144.5961  150.8073 H   0  0  0  0  0  0  0  0  0  0  0  0  # atno 10167 bound_to 10162
  156.9488  130.5889  149.5655 H   0  0  0  0  0  0  0  0  0  0  0  0  # atno 10718 bound_to 10713
  154.7439  135.4998  153.9170 H   0  0  0  0  0  0  0  0  0  0  0  0  # atno 10763 bound_to 10752
  153.1072  135.6700  153.9574 H   0  0  0  0  0  0  0  0  0  0  0  0  # atno 10764 bound_to 10752
  153.9343  135.3074  155.3424 H   0  0  0  0  0  0  0  0  0  0  0  0  # atno 10765 bound_to 10752
  140.0226  134.9390  157.0504 H   0  0  0  0  0  0  0  0  0  0  0  0  # atno 11005 bound_to 11000
  145.7364  139.1751  143.2401 LP  0  0  0  0  0  0  0  0  0  0  0  0  # atno 17320 bound_to 7965
  146.1167  140.7360  142.9477 LP  0  0  0  0  0  0  0  0  0  0  0  0  # atno 17321 bound_to 7965
  140.7553  143.3044  151.2999 LP  0  0  0  0  0  0  0  0  0  0  0  0  # atno 17342 bound_to 10162
  139.6555  144.0285  152.2656 LP  0  0  0  0  0  0  0  0  0  0  0  0  # atno 17343 bound_to 10162
  156.0372  130.5458  150.8682 LP  0  0  0  0  0  0  0  0  0  0  0  0  # atno 17370 bound_to 10713
  157.5736  131.0946  150.9380 LP  0  0  0  0  0  0  0  0  0  0  0  0  # atno 17371 bound_to 10713
  140.4361  134.1729  155.7171 LP  0  0  0  0  0  0  0  0  0  0  0  0  # atno 17394 bound_to 11000
  141.1783  133.8468  157.1346 LP  0  0  0  0  0  0  0  0  0  0  0  0  # atno 17395 bound_to 11000

$$$$
