AV-unprocessed.smi:2774|AV-procd|sdf|10681|dock2
  -GOLD-   2272015123D 1   1.00000     0.00000
 Structure written by MMmdl.
 35 36  0  0  0  0  0  0  0  0  2 V2000
  149.4621  141.0554  153.7459 O   0  0  0  0  0  0  0  0  0  0  0  0
  150.5506  141.2148  154.6348 C   0  0  1  0  0  0  0  0  0  0  0  0
  150.0031  141.5647  156.0294 C   0  0  0  0  0  0  0  0  0  0  0  0
  150.4410  142.9110  156.4584 N   0  3  0  0  0  0  0  0  0  0  0  0
  150.9084  143.0123  157.8589 C   0  0  2  0  0  0  0  0  0  0  0  0
  151.3346  144.4574  158.2018 C   0  0  0  0  0  0  0  0  0  0  0  0
  151.7793  144.6172  159.6653 C   0  0  0  0  0  0  0  0  0  0  0  0
  152.9882  143.7386  160.0141 C   0  0  0  0  0  0  0  0  0  0  0  0
  152.5955  141.9812  159.8114 S   0  0  0  0  0  0  0  0  0  0  0  0
  152.0681  142.0238  158.0769 C   0  0  0  0  0  0  0  0  0  0  0  0
  151.4241  139.9709  154.6832 C   0  0  0  0  0  0  0  0  0  0  0  0
  151.1022  138.8399  153.9037 C   0  0  0  0  0  0  0  0  0  0  0  0
  151.9426  137.7107  153.9751 C   0  0  0  0  0  0  0  0  0  0  0  0
  153.0452  137.6551  154.7521 N   0  0  0  0  0  0  0  0  0  0  0  0
  153.3503  138.7403  155.4949 C   0  0  0  0  0  0  0  0  0  0  0  0
  152.5777  139.9190  155.4957 C   0  0  0  0  0  0  0  0  0  0  0  0
  149.6704  140.3611  153.1385 H   0  0  0  0  0  0  0  0  0  0  0  0
  151.1537  142.0457  154.2653 H   0  0  0  0  0  0  0  0  0  0  0  0
  148.9149  141.5020  156.0293 H   0  0  0  0  0  0  0  0  0  0  0  0
  150.3647  140.8352  156.7555 H   0  0  0  0  0  0  0  0  0  0  0  0
  151.2087  143.1789  155.8595 H   0  0  0  0  0  0  0  0  0  0  0  0
  150.0854  142.7144  158.5109 H   0  0  0  0  0  0  0  0  0  0  0  0
  152.1424  144.7719  157.5395 H   0  0  0  0  0  0  0  0  0  0  0  0
  150.5102  145.1472  158.0226 H   0  0  0  0  0  0  0  0  0  0  0  0
  152.0310  145.6618  159.8514 H   0  0  0  0  0  0  0  0  0  0  0  0
  150.9484  144.3816  160.3316 H   0  0  0  0  0  0  0  0  0  0  0  0
  153.8389  143.9900  159.3796 H   0  0  0  0  0  0  0  0  0  0  0  0
  153.2961  143.9112  161.0456 H   0  0  0  0  0  0  0  0  0  0  0  0
  151.7674  141.0154  157.7909 H   0  0  0  0  0  0  0  0  0  0  0  0
  152.9234  142.2901  157.4544 H   0  0  0  0  0  0  0  0  0  0  0  0
  150.2321  138.8313  153.2635 H   0  0  0  0  0  0  0  0  0  0  0  0
  151.7233  136.8292  153.3910 H   0  0  0  0  0  0  0  0  0  0  0  0
  154.2378  138.6683  156.1060 H   0  0  0  0  0  0  0  0  0  0  0  0
  152.8689  140.7605  156.1074 H   0  0  0  0  0  0  0  0  0  0  0  0
  149.6837  143.5642  156.3162 H   0  0  0  0  0  0  0  0  0  0  0  0
  1  2  1  0  0  0  0
  1 17  1  0  0  0  0
  2  3  1  0  0  0  0
  2 11  1  0  0  0  0
  2 18  1  0  0  0  0
  3  4  1  0  0  0  0
  3 19  1  0  0  0  0
  3 20  1  0  0  0  0
  4  5  1  0  0  0  0
  4 21  1  0  0  0  0
  4 35  1  0  0  0  0
  5 10  1  0  0  0  0
  5  6  1  0  0  0  0
  5 22  1  0  0  0  0
  6  7  1  0  0  0  0
  6 23  1  0  0  0  0
  6 24  1  0  0  0  0
  7  8  1  0  0  0  0
  7 25  1  0  0  0  0
  7 26  1  0  0  0  0
  8  9  1  0  0  0  0
  8 27  1  0  0  0  0
  8 28  1  0  0  0  0
  9 10  1  0  0  0  0
 10 29  1  0  0  0  0
 10 30  1  0  0  0  0
 11 16  1  0  0  0  0
 11 12  2  0  0  0  0
 12 13  1  0  0  0  0
 12 31  1  0  0  0  0
 13 14  2  0  0  0  0
 13 32  1  0  0  0  0
 14 15  1  0  0  0  0
 15 16  2  0  0  0  0
 15 33  1  0  0  0  0
 16 34  1  0  0  0  0
M  CHG  1   4   1
M  END
> <s_m_source_file>
AV-unprocessed.smi

> <i_m_source_file_index>
2774

> <i_lp_mmshare_version>
43012

> <i_f3d_flags>
0

> <s_epik_input>
W2NIXTFbY0hdbltjSF1bY0hdYzFbQ0BIXShbT0hdKVtDSDJdW05IXVtDQEBIXTJbQ0gyXVtDSDJdW0NIMl1TW0NIMl0y

> <s_epik_cmdline>
J2VwaWtfcHl0aG9uJywgJy1waCcsICc3LjAnLCAnLXRuJywgJzgnLCAnLW1hJywgJzIwMCcsICctbWV0YWxfYmluZGluZycsICctaW1hZScsICc8aW5maWxlLm1hZT4nLCAnLW9tYWUnLCAnPG91dGZpbGUubWFlPic=

> <r_epik_Ionization_Penalty>
0.0205977

> <r_epik_Ionization_Penalty_Charging>
0.0185619

> <r_epik_Ionization_Penalty_Neutral>
0.00203589

> <r_epik_State_Penalty>
0.0147768

> <r_epik_Charging_Adjusted_Penalty>
0.0333386

> <i_epik_Tot_Q>
1

> <i_epik_Tot_abs_Q>
1

> <r_epik_Metal_State_Penalty>
0.0152254

> <b_epik_Metal_Only>
0

> <s_lp_Force_Field>
OPLS_2005

> <r_lp_Energy>
10.436

> <b_lp_Chiralities_Consistent>
1

> <s_lp_Variant>
AV-unprocessed.smi:2774-2

> <Gold.Version>
5.8.1

> <Gold.Id.Protein>
6NUR|6NUR_protein|mol2

> <Gold.PLP.Fitness>
52.0103

> <Gold.PLP.PLP>
-37.9704

> <Gold.PLP.part.hbond>
-5.0000

> <Gold.PLP.part.metal>
0.0000

> <Gold.PLP.part.buried>
1.4360

> <Gold.PLP.part.nonpolar>
-34.4611

> <Gold.PLP.part.repulsive>
0.1625

> <Gold.PLP.ligand.clash>
0.0000

> <Gold.PLP.ligand.torsion>
1.0634

> <Gold.PLP.Chemscore.Hbond>
4.5692

> <Gold.PLP.Chemscore.CHOScore>
0.8017

> <Gold.PLP.Chemscore.Metal>
0.0000

> <Gold.Chemscore.Hbonds>
donor molecule, donor type, donor heavy atom, donor atom, acceptor molecule, acceptor atom, score
      L1  H     1    17       P1  7957  0.75
      L1  H     4    35       P1  8028  2.00
      P1  H  8011  8017       L1     1  0.48
      P1  H 10752 10765       L1    14  0.11
      L1  C    13    32       P1  7949  1.00

> <Gold.PLP.Chemscore.Internal.Correction>
0.0542

> <Gold.Rescore>
     Score         DG    S(hbond)    S(metal)    S(lipo)     H(rot)  DE(clash)    DE(int)     intcor
     18.81     -22.81       2.61        0.00     116.64       1.97       2.82       1.18       ----

> <Gold.Chemscore.Fitness>
18.8053

> <Gold.Chemscore.DG>
-22.8073

> <Gold.Chemscore.ZeroCoef>
-5.4800

> <Gold.Chemscore.Hbond>
2.6108

> <Gold.Chemscore.Metal>
0.0000

> <Gold.Chemscore.Lipo>
116.6410

> <Gold.Chemscore.Internal_Hbond>
0.0000

> <Gold.Chemscore.DEClash>
2.8245

> <Gold.Chemscore.DEInternal>
1.1776

> <Gold.Chemscore.Rot>
1.9686

> <Gold.Chemscore.Internal.Correction>
   9.000000E+99

> <Gold.Chemscore.Hbonds>
donor molecule, donor type, donor heavy atom, donor atom, acceptor molecule, acceptor atom, score
      L1  H     1    17       P1  7957  0.73
      L1  H     4    35       P1  8028  0.94
      P1  H  8011  8017       L1     1  0.01

> <Gold.Chemscore.Hbond.Weighted>
-8.7200

> <Gold.Chemscore.Metal.Weighted>
-0.0000

> <Gold.Chemscore.Lipo.Weighted>
-13.6470

> <Gold.Chemscore.Internal_Hbond.Weighted>
0.0000

> <Gold.Chemscore.DEClash.Weighted>
2.8245

> <Gold.Chemscore.DEInternal.Weighted>
1.1776

> <Gold.Chemscore.Rot.Weighted>
5.0396

> <Gold.Chemscore.Internal.Correction.Weighted>
   9.000000E+99

> <Gold.Protein.RotatedTorsions>
[ 6907 6896 6895 6894 ] final -161.71 input  -60.11 | X-H torsion
[ 7974 7965 7964 7962 ] final  -80.20 input  175.53 | X-H torsion
[ 8008 7997 7996 7995 ] final  -40.19 input   59.86 | X-H torsion
[ 10167 10162 10161 10158 ] final  179.50 input  -65.29 | X-H torsion
[ 10718 10713 10712 10709 ] final  109.02 input   66.30 | X-H torsion
[ 10763 10752 10751 10750 ] final -178.02 input  -60.55 | X-H torsion
[ 11005 11000 10999 10996 ] final -178.38 input  -57.11 | X-H torsion

> <Gold.Protein.ActiveResidues>
 VAL166  LYS551  ARG553  GLY616  TRP617  ASP618  TYR619  PRO620  LYS621  CYS622 
 ASP623  PHE694  ASN695  SER759  ASP760  ASP761  ALA762  ILE779  LEU786  VAL792 
 PHE793  MET794  SER795  GLU796  ALA797  LYS798  CYS799  TRP800  GLU811  SER814 

> <Gold.Protein.RotatedAtoms>
  151.3690  133.3862  159.2697 H   0  0  0  0  0  0  0  0  0  0  0  0  # atno 6907 bound_to 6896
  150.9666  134.9047  159.7773 H   0  0  0  0  0  0  0  0  0  0  0  0  # atno 6908 bound_to 6896
  152.5169  134.3650  159.9350 H   0  0  0  0  0  0  0  0  0  0  0  0  # atno 6909 bound_to 6896
  145.5631  140.9479  143.1436 H   0  0  0  0  0  0  0  0  0  0  0  0  # atno 7974 bound_to 7965
  154.4015  140.1532  156.2986 H   0  0  0  0  0  0  0  0  0  0  0  0  # atno 8008 bound_to 7997
  155.8721  140.3448  155.5807 H   0  0  0  0  0  0  0  0  0  0  0  0  # atno 8009 bound_to 7997
  155.7762  140.0837  157.2073 H   0  0  0  0  0  0  0  0  0  0  0  0  # atno 8010 bound_to 7997
  139.5339  144.2554  152.0751 H   0  0  0  0  0  0  0  0  0  0  0  0  # atno 10167 bound_to 10162
  157.6560  131.0905  150.6392 H   0  0  0  0  0  0  0  0  0  0  0  0  # atno 10718 bound_to 10713
  154.5528  135.2814  155.0992 H   0  0  0  0  0  0  0  0  0  0  0  0  # atno 10763 bound_to 10752
  154.2431  135.6353  153.5218 H   0  0  0  0  0  0  0  0  0  0  0  0  # atno 10764 bound_to 10752
  153.0007  135.5564  154.6100 H   0  0  0  0  0  0  0  0  0  0  0  0  # atno 10765 bound_to 10752
  140.4304  134.6524  157.4709 H   0  0  0  0  0  0  0  0  0  0  0  0  # atno 11005 bound_to 11000
  144.7473  139.7285  143.7287 LP  0  0  0  0  0  0  0  0  0  0  0  0  # atno 17320 bound_to 7965
  146.1837  139.5042  142.9850 LP  0  0  0  0  0  0  0  0  0  0  0  0  # atno 17321 bound_to 7965
  140.2021  144.4647  150.6426 LP  0  0  0  0  0  0  0  0  0  0  0  0  # atno 17342 bound_to 10162
  140.6534  143.2231  151.6024 LP  0  0  0  0  0  0  0  0  0  0  0  0  # atno 17343 bound_to 10162
  156.6699  130.4536  149.5660 LP  0  0  0  0  0  0  0  0  0  0  0  0  # atno 17370 bound_to 10713
  156.2005  130.6617  151.1162 LP  0  0  0  0  0  0  0  0  0  0  0  0  # atno 17371 bound_to 10713
  140.0138  134.6650  155.9340 LP  0  0  0  0  0  0  0  0  0  0  0  0  # atno 17394 bound_to 11000
  141.1748  133.6539  156.4786 LP  0  0  0  0  0  0  0  0  0  0  0  0  # atno 17395 bound_to 11000

$$$$
