AV-unprocessed.smi:2772|AV-procd|sdf|10665|dock10
  -GOLD-   2272015113D 1   1.00000     0.00000
 Structure written by MMmdl.
 55 57  0  0  0  0  0  0  0  0  3 V2000
  154.2418  140.9581  162.1889 C   0  0  0  0  0  0  0  0  0  0  0  0
  153.3357  141.3940  161.0566 C   0  0  0  0  0  0  0  0  0  0  0  0
  153.0894  142.7605  160.8101 C   0  0  0  0  0  0  0  0  0  0  0  0
  152.2380  143.1094  159.7441 C   0  0  0  0  0  0  0  0  0  0  0  0
  151.6564  142.0786  158.9671 C   0  0  0  0  0  0  0  0  0  0  0  0
  150.8004  142.3022  157.8554 N   0  0  0  0  0  0  0  0  0  0  0  0
  149.8972  141.4665  157.3151 C   0  0  0  0  0  0  0  0  0  0  0  0
  149.6830  140.3132  157.6873 O   0  0  0  0  0  0  0  0  0  0  0  0
  149.2591  142.0460  156.2878 N   0  0  0  0  0  0  0  0  0  0  0  0
  148.2209  141.4263  155.4682 C   0  0  2  0  0  0  0  0  0  0  0  0
  147.8327  142.3665  154.3116 C   0  0  0  0  0  0  0  0  0  0  0  0
  146.6147  141.8252  153.5374 C   0  0  0  0  0  0  0  0  0  0  0  0
  145.4426  141.6000  154.4320 N   0  3  2  0  0  0  0  0  0  0  0  0
  144.7701  142.8469  154.9381 C   0  0  2  0  0  0  0  0  0  0  0  0
  143.2680  142.6213  155.2478 C   0  0  0  0  0  0  0  0  0  0  0  0
  142.5551  143.9113  155.6881 C   0  0  0  0  0  0  0  0  0  0  0  0
  142.6994  144.9767  154.6700 N   0  3  1  0  0  0  0  0  0  0  0  0
  141.9216  146.1888  155.0066 C   0  0  0  0  0  0  0  0  0  0  0  0
  144.1248  145.2754  154.4029 C   0  0  0  0  0  0  0  0  0  0  0  0
  144.8768  144.0195  153.9299 C   0  0  0  0  0  0  0  0  0  0  0  0
  145.8164  140.6045  155.4778 C   0  0  0  0  0  0  0  0  0  0  0  0
  146.9952  141.0961  156.3399 C   0  0  0  0  0  0  0  0  0  0  0  0
  151.9834  140.7455  159.2936 C   0  0  0  0  0  0  0  0  0  0  0  0
  152.7979  140.4024  160.3142 N   0  0  0  0  0  0  0  0  0  0  0  0
  154.6307  141.8159  162.7384 H   0  0  0  0  0  0  0  0  0  0  0  0
  155.0883  140.3912  161.8005 H   0  0  0  0  0  0  0  0  0  0  0  0
  153.6963  140.3249  162.8891 H   0  0  0  0  0  0  0  0  0  0  0  0
  153.5451  143.5276  161.4188 H   0  0  0  0  0  0  0  0  0  0  0  0
  152.0621  144.1535  159.5367 H   0  0  0  0  0  0  0  0  0  0  0  0
  150.9268  143.1868  157.3856 H   0  0  0  0  0  0  0  0  0  0  0  0
  149.5126  142.9954  156.0567 H   0  0  0  0  0  0  0  0  0  0  0  0
  148.5818  140.4916  155.0346 H   0  0  0  0  0  0  0  0  0  0  0  0
  147.6183  143.3661  154.6912 H   0  0  0  0  0  0  0  0  0  0  0  0
  148.6776  142.4777  153.6310 H   0  0  0  0  0  0  0  0  0  0  0  0
  146.3727  142.4665  152.6927 H   0  0  0  0  0  0  0  0  0  0  0  0
  146.8826  140.8693  153.0845 H   0  0  0  0  0  0  0  0  0  0  0  0
  145.2563  143.1572  155.8631 H   0  0  0  0  0  0  0  0  0  0  0  0
  142.7662  142.2086  154.3714 H   0  0  0  0  0  0  0  0  0  0  0  0
  143.1380  141.9005  156.0535 H   0  0  0  0  0  0  0  0  0  0  0  0
  141.4965  143.7039  155.8504 H   0  0  0  0  0  0  0  0  0  0  0  0
  142.9591  144.2580  156.6408 H   0  0  0  0  0  0  0  0  0  0  0  0
  142.2825  146.6434  155.9303 H   0  0  0  0  0  0  0  0  0  0  0  0
  140.8661  145.9458  155.1341 H   0  0  0  0  0  0  0  0  0  0  0  0
  141.9966  146.9283  154.2087 H   0  0  0  0  0  0  0  0  0  0  0  0
  144.1974  146.0512  153.6393 H   0  0  0  0  0  0  0  0  0  0  0  0
  144.5908  145.6754  155.3051 H   0  0  0  0  0  0  0  0  0  0  0  0
  145.9143  144.3129  153.7772 H   0  0  0  0  0  0  0  0  0  0  0  0
  144.4915  143.7088  152.9577 H   0  0  0  0  0  0  0  0  0  0  0  0
  144.9698  140.3189  156.0984 H   0  0  0  0  0  0  0  0  0  0  0  0
  146.1086  139.6805  154.9766 H   0  0  0  0  0  0  0  0  0  0  0  0
  147.2600  140.3287  157.0682 H   0  0  0  0  0  0  0  0  0  0  0  0
  146.6946  141.9700  156.9189 H   0  0  0  0  0  0  0  0  0  0  0  0
  151.5750  139.9255  158.7210 H   0  0  0  0  0  0  0  0  0  0  0  0
  144.7491  141.1405  153.8588 H   0  0  0  0  0  0  0  0  0  0  0  0
  142.3082  144.6173  153.8108 H   0  0  0  0  0  0  0  0  0  0  0  0
  1  2  1  0  0  0  0
  1 25  1  0  0  0  0
  1 26  1  0  0  0  0
  1 27  1  0  0  0  0
  2 24  1  0  0  0  0
  2  3  2  0  0  0  0
  3  4  1  0  0  0  0
  3 28  1  0  0  0  0
  4  5  2  0  0  0  0
  4 29  1  0  0  0  0
  5  6  1  0  0  0  0
  5 23  1  0  0  0  0
  6  7  1  0  0  0  0
  6 30  1  0  0  0  0
  7  8  2  0  0  0  0
  7  9  1  0  0  0  0
  9 10  1  0  0  0  0
  9 31  1  0  0  0  0
 10 22  1  0  0  0  0
 10 11  1  0  0  0  0
 10 32  1  0  0  0  0
 11 12  1  0  0  0  0
 11 33  1  0  0  0  0
 11 34  1  0  0  0  0
 12 13  1  0  0  0  0
 12 35  1  0  0  0  0
 12 36  1  0  0  0  0
 13 14  1  0  0  0  0
 13 21  1  0  0  0  0
 13 54  1  0  0  0  0
 14 20  1  0  0  0  0
 14 15  1  0  0  0  0
 14 37  1  0  0  0  0
 15 16  1  0  0  0  0
 15 38  1  0  0  0  0
 15 39  1  0  0  0  0
 16 17  1  0  0  0  0
 16 40  1  0  0  0  0
 16 41  1  0  0  0  0
 17 18  1  0  0  0  0
 17 19  1  0  0  0  0
 17 55  1  0  0  0  0
 18 42  1  0  0  0  0
 18 43  1  0  0  0  0
 18 44  1  0  0  0  0
 19 20  1  0  0  0  0
 19 45  1  0  0  0  0
 19 46  1  0  0  0  0
 20 47  1  0  0  0  0
 20 48  1  0  0  0  0
 21 22  1  0  0  0  0
 21 49  1  0  0  0  0
 21 50  1  0  0  0  0
 22 51  1  0  0  0  0
 22 52  1  0  0  0  0
 23 24  2  0  0  0  0
 23 53  1  0  0  0  0
M  CHG  1  13   1
M  CHG  1  17   1
M  END
> <s_m_source_file>
AV-unprocessed.smi

> <i_m_source_file_index>
2772

> <i_lp_mmshare_version>
43012

> <i_f3d_flags>
0

> <s_epik_input>
W0NIM11jMVtjSF1bY0hdYyhbY0hdbjEpW05IXUMoPU8pW05IXVtDSF0yW0NIMl1bQ0gyXU4oW0NIMl1bQ0gyXTIpW0NIXTNbQ0gyXVtDSDJdTihbQ0gzXSlbQ0gyXVtDSDJdMw==

> <s_epik_cmdline>
J2VwaWtfcHl0aG9uJywgJy1waCcsICc3LjAnLCAnLXRuJywgJzgnLCAnLW1hJywgJzIwMCcsICctbWV0YWxfYmluZGluZycsICctaW1hZScsICc8aW5maWxlLm1hZT4nLCAnLW9tYWUnLCAnPG91dGZpbGUubWFlPic=

> <r_epik_Ionization_Penalty>
0.196786

> <r_epik_Ionization_Penalty_Charging>
0.180787

> <r_epik_Ionization_Penalty_Neutral>
0.0159988

> <r_epik_State_Penalty>
0.163322

> <r_epik_Charging_Adjusted_Penalty>
0.344109

> <i_epik_Tot_Q>
2

> <i_epik_Tot_abs_Q>
2

> <r_epik_Metal_State_Penalty>
0.163596

> <b_epik_Metal_Only>
0

> <s_lp_Force_Field>
OPLS_2005

> <r_lp_Energy>
45.3322

> <b_lp_Chiralities_Consistent>
1

> <s_lp_Variant>
AV-unprocessed.smi:2772-2

> <Gold.Version>
5.8.1

> <Gold.Id.Protein>
6NUR|6NUR_protein|mol2

> <Gold.PLP.Fitness>
44.9756

> <Gold.PLP.PLP>
-37.5379

> <Gold.PLP.part.hbond>
-2.0000

> <Gold.PLP.part.metal>
0.0000

> <Gold.PLP.part.buried>
-3.1610

> <Gold.PLP.part.nonpolar>
-32.0472

> <Gold.PLP.part.repulsive>
0.1539

> <Gold.PLP.ligand.clash>
0.0000

> <Gold.PLP.ligand.torsion>
0.6702

> <Gold.PLP.Chemscore.Hbond>
2.9120

> <Gold.PLP.Chemscore.CHOScore>
0.0000

> <Gold.PLP.Chemscore.Metal>
0.0000

> <Gold.Chemscore.Hbonds>
donor molecule, donor type, donor heavy atom, donor atom, acceptor molecule, acceptor atom, score
      L1  H     9    31       P1  8028  0.91
      L1  H    13    54       P1 10175  2.00

> <Gold.PLP.Chemscore.Internal.Correction>
0.0421

> <Gold.Rescore>
     Score         DG    S(hbond)    S(metal)    S(lipo)     H(rot)  DE(clash)    DE(int)     intcor
     18.43     -20.86       1.89        0.00     103.96       1.21       0.16       2.27       ----

> <Gold.Chemscore.Fitness>
18.4270

> <Gold.Chemscore.DG>
-20.8578

> <Gold.Chemscore.ZeroCoef>
-5.4800

> <Gold.Chemscore.Hbond>
1.8891

> <Gold.Chemscore.Metal>
0.0000

> <Gold.Chemscore.Lipo>
103.9629

> <Gold.Chemscore.Internal_Hbond>
0.0000

> <Gold.Chemscore.DEClash>
0.1602

> <Gold.Chemscore.DEInternal>
2.2706

> <Gold.Chemscore.Rot>
1.2092

> <Gold.Chemscore.Internal.Correction>
   9.000000E+99

> <Gold.Chemscore.Hbonds>
donor molecule, donor type, donor heavy atom, donor atom, acceptor molecule, acceptor atom, score
      L1  H     9    31       P1  8028  0.90
      L1  H    13    54       P1 10175  0.65

> <Gold.Chemscore.Hbond.Weighted>
-6.3096

> <Gold.Chemscore.Metal.Weighted>
-0.0000

> <Gold.Chemscore.Lipo.Weighted>
-12.1637

> <Gold.Chemscore.Internal_Hbond.Weighted>
0.0000

> <Gold.Chemscore.DEClash.Weighted>
0.1602

> <Gold.Chemscore.DEInternal.Weighted>
2.2706

> <Gold.Chemscore.Rot.Weighted>
3.0955

> <Gold.Chemscore.Internal.Correction.Weighted>
   9.000000E+99

> <Gold.Protein.RotatedTorsions>
[ 6907 6896 6895 6894 ] final  -17.31 input  -60.11 | X-H torsion
[ 7974 7965 7964 7962 ] final   76.55 input  175.53 | X-H torsion
[ 8008 7997 7996 7995 ] final   72.85 input   59.86 | X-H torsion
[ 10167 10162 10161 10158 ] final  -37.29 input  -65.29 | X-H torsion
[ 10718 10713 10712 10709 ] final -160.91 input   66.30 | X-H torsion
[ 10763 10752 10751 10750 ] final  -17.19 input  -60.55 | X-H torsion
[ 11005 11000 10999 10996 ] final  107.84 input  -57.11 | X-H torsion

> <Gold.Protein.ActiveResidues>
 VAL166  LYS551  ARG553  GLY616  TRP617  ASP618  TYR619  PRO620  LYS621  CYS622 
 ASP623  PHE694  ASN695  SER759  ASP760  ASP761  ALA762  ILE779  LEU786  VAL792 
 PHE793  MET794  SER795  GLU796  ALA797  LYS798  CYS799  TRP800  GLU811  SER814 

> <Gold.Protein.RotatedAtoms>
  151.2953  135.0753  159.9218 H   0  0  0  0  0  0  0  0  0  0  0  0  # atno 6907 bound_to 6896
  152.5308  133.9889  159.7852 H   0  0  0  0  0  0  0  0  0  0  0  0  # atno 6908 bound_to 6896
  151.0166  133.5864  159.2706 H   0  0  0  0  0  0  0  0  0  0  0  0  # atno 6909 bound_to 6896
  145.7014  139.2584  143.1703 H   0  0  0  0  0  0  0  0  0  0  0  0  # atno 7974 bound_to 7965
  155.7750  140.3483  155.5267 H   0  0  0  0  0  0  0  0  0  0  0  0  # atno 8008 bound_to 7997
  155.8784  140.0998  157.1523 H   0  0  0  0  0  0  0  0  0  0  0  0  # atno 8009 bound_to 7997
  154.4023  140.1327  156.4153 H   0  0  0  0  0  0  0  0  0  0  0  0  # atno 8010 bound_to 7997
  140.7122  143.3352  151.2480 H   0  0  0  0  0  0  0  0  0  0  0  0  # atno 10167 bound_to 10162
  156.5888  130.8761  151.2884 H   0  0  0  0  0  0  0  0  0  0  0  0  # atno 10718 bound_to 10713
  153.5701  135.7007  153.5508 H   0  0  0  0  0  0  0  0  0  0  0  0  # atno 10763 bound_to 10752
  153.3352  135.4036  155.1527 H   0  0  0  0  0  0  0  0  0  0  0  0  # atno 10764 bound_to 10752
  154.8634  135.3728  154.5223 H   0  0  0  0  0  0  0  0  0  0  0  0  # atno 10765 bound_to 10752
  139.8834  134.9413  156.5881 H   0  0  0  0  0  0  0  0  0  0  0  0  # atno 11005 bound_to 11000
  146.0794  140.7780  142.9649 LP  0  0  0  0  0  0  0  0  0  0  0  0  # atno 17320 bound_to 7965
  144.6967  140.3466  143.7189 LP  0  0  0  0  0  0  0  0  0  0  0  0  # atno 17321 bound_to 7965
  139.6844  143.9798  152.2826 LP  0  0  0  0  0  0  0  0  0  0  0  0  # atno 17342 bound_to 10162
  139.9439  144.6664  150.8239 LP  0  0  0  0  0  0  0  0  0  0  0  0  # atno 17343 bound_to 10162
  157.7309  130.9692  150.1853 LP  0  0  0  0  0  0  0  0  0  0  0  0  # atno 17370 bound_to 10713
  156.2568  130.3706  149.8173 LP  0  0  0  0  0  0  0  0  0  0  0  0  # atno 17371 bound_to 10713
  140.7976  133.8531  155.8699 LP  0  0  0  0  0  0  0  0  0  0  0  0  # atno 17394 bound_to 11000
  140.9621  134.1641  157.4645 LP  0  0  0  0  0  0  0  0  0  0  0  0  # atno 17395 bound_to 11000

$$$$
