AV-unprocessed.smi:289|AV-procd|sdf|2213|dock1
  -GOLD-   2262022 43D 1   1.00000     0.00000
 Structure written by MMmdl.
 51 54  0  0  0  0  0  0  0  0  1 V2000
  151.6039  136.8028  155.3653 O   0  0  0  0  0  0  0  0  0  0  0  0
  151.3864  137.9983  155.1577 C   0  0  0  0  0  0  0  0  0  0  0  0
  150.4604  138.3980  153.9892 C   0  0  0  0  0  0  0  0  0  0  0  0
  149.1442  138.9205  154.4212 N   0  0  0  0  0  0  0  0  0  0  0  0
  148.8861  140.3072  154.2917 C   0  0  0  0  0  0  0  0  0  0  0  0
  149.7238  141.0714  153.8104 O   0  0  0  0  0  0  0  0  0  0  0  0
  147.5863  140.7520  154.7792 C   0  0  0  0  0  0  0  0  0  0  0  0
  147.2693  142.0570  154.7317 F   0  0  0  0  0  0  0  0  0  0  0  0
  146.7000  139.8763  155.2954 C   0  0  0  0  0  0  0  0  0  0  0  0
  146.9464  138.5158  155.3823 N   0  0  0  0  0  0  0  0  0  0  0  0
  145.9792  137.5457  156.0450 C   0  0  2  0  0  0  0  0  0  0  0  0
  145.5566  136.3675  155.1570 C   0  0  0  0  0  0  0  0  0  0  0  0
  144.2208  136.8261  154.5776 C   0  0  0  0  0  0  0  0  0  0  0  0
  143.9826  138.2104  155.1906 C   0  0  0  0  0  0  0  0  0  0  0  0
  144.8062  138.2305  156.3485 O   0  0  0  0  0  0  0  0  0  0  0  0
  148.2080  138.0194  154.9834 C   0  0  0  0  0  0  0  0  0  0  0  0
  148.4888  136.8270  155.1253 O   0  0  0  0  0  0  0  0  0  0  0  0
  151.9353  138.9724  155.9242 N   0  0  0  0  0  0  0  0  0  0  0  0
  151.6854  140.4157  155.7929 C   0  0  0  0  0  0  0  0  0  0  0  0
  151.0094  140.9362  157.0779 C   0  0  0  0  0  0  0  0  0  0  0  0
  151.8636  140.6318  158.2401 N   0  0  0  0  0  0  0  0  0  0  0  0
  152.4834  141.5431  159.0319 C   0  0  0  0  0  0  0  0  0  0  0  0
  153.4122  141.2455  159.7836 O   0  0  0  0  0  0  0  0  0  0  0  0
  152.0279  142.9501  159.0104 C   0  0  0  0  0  0  0  0  0  0  0  0
  151.8678  143.8413  160.0371 C   0  0  0  0  0  0  0  0  0  0  0  0
  151.3484  145.0349  159.4640 C   0  0  0  0  0  0  0  0  0  0  0  0
  151.2053  144.7796  158.1305 C   0  0  0  0  0  0  0  0  0  0  0  0
  151.5996  143.5102  157.8404 O   0  0  0  0  0  0  0  0  0  0  0  0
  152.1275  139.1884  158.3540 C   0  0  0  0  0  0  0  0  0  0  0  0
  152.8124  138.6878  157.0685 C   0  0  0  0  0  0  0  0  0  0  0  0
  150.9793  139.1288  153.3668 H   0  0  0  0  0  0  0  0  0  0  0  0
  150.3200  137.5343  153.3375 H   0  0  0  0  0  0  0  0  0  0  0  0
  145.7706  140.2817  155.6626 H   0  0  0  0  0  0  0  0  0  0  0  0
  146.4873  137.2002  156.9469 H   0  0  0  0  0  0  0  0  0  0  0  0
  146.3151  136.0984  154.4221 H   0  0  0  0  0  0  0  0  0  0  0  0
  145.3978  135.4995  155.7979 H   0  0  0  0  0  0  0  0  0  0  0  0
  144.2333  136.8684  153.4883 H   0  0  0  0  0  0  0  0  0  0  0  0
  143.4304  136.1358  154.8744 H   0  0  0  0  0  0  0  0  0  0  0  0
  144.2928  138.9998  154.5048 H   0  0  0  0  0  0  0  0  0  0  0  0
  142.9364  138.3804  155.4449 H   0  0  0  0  0  0  0  0  0  0  0  0
  152.6371  140.9268  155.6387 H   0  0  0  0  0  0  0  0  0  0  0  0
  151.0701  140.6817  154.9358 H   0  0  0  0  0  0  0  0  0  0  0  0
  150.8180  141.9982  156.9404 H   0  0  0  0  0  0  0  0  0  0  0  0
  150.0352  140.4647  157.2143 H   0  0  0  0  0  0  0  0  0  0  0  0
  152.0992  143.6566  161.0760 H   0  0  0  0  0  0  0  0  0  0  0  0
  151.1019  145.9592  159.9654 H   0  0  0  0  0  0  0  0  0  0  0  0
  150.8484  145.3565  157.2900 H   0  0  0  0  0  0  0  0  0  0  0  0
  152.7434  138.9386  159.2189 H   0  0  0  0  0  0  0  0  0  0  0  0
  151.1820  138.6646  158.5034 H   0  0  0  0  0  0  0  0  0  0  0  0
  153.0475  137.6278  157.1706 H   0  0  0  0  0  0  0  0  0  0  0  0
  153.7686  139.1937  156.9265 H   0  0  0  0  0  0  0  0  0  0  0  0
  1  2  2  0  0  0  0
  2  3  1  0  0  0  0
  2 18  1  0  0  0  0
  3  4  1  0  0  0  0
  3 31  1  0  0  0  0
  3 32  1  0  0  0  0
  4 16  1  0  0  0  0
  4  5  1  0  0  0  0
  5  6  2  0  0  0  0
  5  7  1  0  0  0  0
  7  8  1  0  0  0  0
  7  9  2  0  0  0  0
  9 10  1  0  0  0  0
  9 33  1  0  0  0  0
 10 11  1  0  0  0  0
 10 16  1  0  0  0  0
 11 15  1  0  0  0  0
 11 12  1  0  0  0  0
 11 34  1  0  0  0  0
 12 13  1  0  0  0  0
 12 35  1  0  0  0  0
 12 36  1  0  0  0  0
 13 14  1  0  0  0  0
 13 37  1  0  0  0  0
 13 38  1  0  0  0  0
 14 15  1  0  0  0  0
 14 39  1  0  0  0  0
 14 40  1  0  0  0  0
 16 17  2  0  0  0  0
 18 30  1  0  0  0  0
 18 19  1  0  0  0  0
 19 20  1  0  0  0  0
 19 41  1  0  0  0  0
 19 42  1  0  0  0  0
 20 21  1  0  0  0  0
 20 43  1  0  0  0  0
 20 44  1  0  0  0  0
 21 22  1  0  0  0  0
 21 29  1  0  0  0  0
 22 23  2  0  0  0  0
 22 24  1  0  0  0  0
 24 28  1  0  0  0  0
 24 25  2  0  0  0  0
 25 26  1  0  0  0  0
 25 45  1  0  0  0  0
 26 27  2  0  0  0  0
 26 46  1  0  0  0  0
 27 28  1  0  0  0  0
 27 47  1  0  0  0  0
 29 30  1  0  0  0  0
 29 48  1  0  0  0  0
 29 49  1  0  0  0  0
 30 50  1  0  0  0  0
 30 51  1  0  0  0  0
M  END
> <s_m_source_file>
AV-unprocessed.smi

> <i_m_source_file_index>
289

> <i_lp_mmshare_version>
43012

> <i_f3d_flags>
0

> <s_epik_input>
bzFbY0hdW2NIXVtjSF1jMUMoPU8pTihbQ0gyXVtDSDJdMilbQ0gyXVtDSDJdTjJDKD1PKVtDSDJdbjNjKD1PKWMoRilbY0hdbihjMz1PKVtDQEBIXTRbQ0gyXVtDSDJdW0NIMl1PNA==

> <s_epik_cmdline>
J2VwaWtfcHl0aG9uJywgJy1waCcsICc3LjAnLCAnLXRuJywgJzgnLCAnLW1hJywgJzIwMCcsICctbWV0YWxfYmluZGluZycsICctaW1hZScsICc8aW5maWxlLm1hZT4nLCAnLW9tYWUnLCAnPG91dGZpbGUubWFlPic=

> <r_lp_tautomer_probability>
1

> <r_epik_Ionization_Penalty>
6.38128e-09

> <r_epik_Ionization_Penalty_Charging>
4.20153e-09

> <r_epik_Ionization_Penalty_Neutral>
2.17976e-09

> <r_epik_State_Penalty>
-0

> <r_epik_Charging_Adjusted_Penalty>
4.20153e-09

> <i_epik_Tot_Q>
0

> <i_epik_Tot_abs_Q>
0

> <r_epik_Metal_State_Penalty>
-0

> <b_epik_Metal_Only>
0

> <s_epik_Chemistry_Notes>
This compound contains an acetal/aminal-like group ( X-CH(R)-Y where X, Y are N, S, or O) that may be acid/base labile, releasing an aldehyde.

> <s_lp_Force_Field>
OPLS_2005

> <r_lp_Energy>
70.009

> <b_lp_Chiralities_Consistent>
1

> <s_lp_Variant>
AV-unprocessed.smi:289-1

> <Gold.Version>
5.8.1

> <Gold.Id.Protein>
6NUR|6NUR_protein|mol2

> <Gold.PLP.Fitness>
51.0905

> <Gold.PLP.PLP>
-42.9604

> <Gold.PLP.part.hbond>
-3.0000

> <Gold.PLP.part.metal>
0.0000

> <Gold.PLP.part.buried>
-5.2648

> <Gold.PLP.part.nonpolar>
-37.4705

> <Gold.PLP.part.repulsive>
2.2382

> <Gold.PLP.ligand.clash>
0.0502

> <Gold.PLP.ligand.torsion>
0.9525

> <Gold.PLP.Chemscore.Hbond>
2.2800

> <Gold.PLP.Chemscore.CHOScore>
0.8171

> <Gold.PLP.Chemscore.Metal>
0.0000

> <Gold.Chemscore.Hbonds>
donor molecule, donor type, donor heavy atom, donor atom, acceptor molecule, acceptor atom, score
      P1  H  7989  7998       L1     6  0.35
      P1  H  8011  8017       L1     6  0.90
      P1  H 10752 10765       L1     1  1.00
      L1  C    27    47       P1  8028  0.77

> <Gold.PLP.Chemscore.Internal.Correction>
0.7940

> <Gold.Rescore>
     Score         DG    S(hbond)    S(metal)    S(lipo)     H(rot)  DE(clash)    DE(int)     intcor
     12.75     -18.81       2.24        0.00      86.21       1.66       1.36       4.70       ----

> <Gold.Chemscore.Fitness>
12.7526

> <Gold.Chemscore.DG>
-18.8109

> <Gold.Chemscore.ZeroCoef>
-5.4800

> <Gold.Chemscore.Hbond>
2.2422

> <Gold.Chemscore.Metal>
0.0000

> <Gold.Chemscore.Lipo>
86.2100

> <Gold.Chemscore.Internal_Hbond>
0.0000

> <Gold.Chemscore.DEClash>
1.3576

> <Gold.Chemscore.DEInternal>
4.7006

> <Gold.Chemscore.Rot>
1.6580

> <Gold.Chemscore.Internal.Correction>
   9.000000E+99

> <Gold.Chemscore.Hbonds>
donor molecule, donor type, donor heavy atom, donor atom, acceptor molecule, acceptor atom, score
      P1  H  7989  7998       L1     6  0.34
      P1  H  8011  8017       L1     6  0.85
      P1  H 10752 10765       L1     1  0.99

> <Gold.Chemscore.Hbond.Weighted>
-7.4889

> <Gold.Chemscore.Metal.Weighted>
-0.0000

> <Gold.Chemscore.Lipo.Weighted>
-10.0866

> <Gold.Chemscore.Internal_Hbond.Weighted>
0.0000

> <Gold.Chemscore.DEClash.Weighted>
1.3576

> <Gold.Chemscore.DEInternal.Weighted>
4.7006

> <Gold.Chemscore.Rot.Weighted>
4.2446

> <Gold.Chemscore.Internal.Correction.Weighted>
   9.000000E+99

> <Gold.Protein.RotatedTorsions>
[ 6907 6896 6895 6894 ] final   -5.77 input  -60.11 | X-H torsion
[ 7974 7965 7964 7962 ] final  108.57 input  175.53 | X-H torsion
[ 8008 7997 7996 7995 ] final -136.43 input   59.86 | X-H torsion
[ 10167 10162 10161 10158 ] final  145.97 input  -65.29 | X-H torsion
[ 10718 10713 10712 10709 ] final -146.33 input   66.30 | X-H torsion
[ 10763 10752 10751 10750 ] final -175.12 input  -60.55 | X-H torsion
[ 11005 11000 10999 10996 ] final -123.07 input  -57.11 | X-H torsion

> <Gold.Protein.ActiveResidues>
 VAL166  LYS551  ARG553  GLY616  TRP617  ASP618  TYR619  PRO620  LYS621  CYS622 
 ASP623  PHE694  ASN695  SER759  ASP760  ASP761  ALA762  ILE779  LEU786  VAL792 
 PHE793  MET794  SER795  GLU796  ALA797  LYS798  CYS799  TRP800  GLU811  SER814 

> <Gold.Protein.RotatedAtoms>
  151.4762  135.1049  159.9764 H   0  0  0  0  0  0  0  0  0  0  0  0  # atno 6907 bound_to 6896
  152.4797  133.8220  159.7069 H   0  0  0  0  0  0  0  0  0  0  0  0  # atno 6908 bound_to 6896
  150.8860  133.7246  159.2945 H   0  0  0  0  0  0  0  0  0  0  0  0  # atno 6909 bound_to 6896
  145.2790  139.2639  143.3926 H   0  0  0  0  0  0  0  0  0  0  0  0  # atno 7974 bound_to 7965
  155.3951  140.0502  157.3039 H   0  0  0  0  0  0  0  0  0  0  0  0  # atno 8008 bound_to 7997
  154.5018  140.2159  155.9293 H   0  0  0  0  0  0  0  0  0  0  0  0  # atno 8009 bound_to 7997
  156.1476  140.3142  155.8601 H   0  0  0  0  0  0  0  0  0  0  0  0  # atno 8010 bound_to 7997
  139.4916  144.5863  151.6771 H   0  0  0  0  0  0  0  0  0  0  0  0  # atno 10167 bound_to 10162
  156.3936  130.7898  151.2103 H   0  0  0  0  0  0  0  0  0  0  0  0  # atno 10718 bound_to 10713
  154.5881  135.2842  155.0663 H   0  0  0  0  0  0  0  0  0  0  0  0  # atno 10763 bound_to 10752
  154.1974  135.6430  153.5081 H   0  0  0  0  0  0  0  0  0  0  0  0  # atno 10764 bound_to 10752
  153.0111  135.5461  154.6558 H   0  0  0  0  0  0  0  0  0  0  0  0  # atno 10765 bound_to 10752
  140.9947  134.0489  157.3612 H   0  0  0  0  0  0  0  0  0  0  0  0  # atno 11005 bound_to 11000
  146.3222  140.3252  142.8636 LP  0  0  0  0  0  0  0  0  0  0  0  0  # atno 17320 bound_to 7965
  144.9270  140.7932  143.5713 LP  0  0  0  0  0  0  0  0  0  0  0  0  # atno 17321 bound_to 7965
  140.5480  144.0471  150.6115 LP  0  0  0  0  0  0  0  0  0  0  0  0  # atno 17342 bound_to 10162
  140.3516  143.2960  152.0481 LP  0  0  0  0  0  0  0  0  0  0  0  0  # atno 17343 bound_to 10162
  157.7500  131.0308  150.4153 LP  0  0  0  0  0  0  0  0  0  0  0  0  # atno 17370 bound_to 10713
  156.4419  130.3993  149.6692 LP  0  0  0  0  0  0  0  0  0  0  0  0  # atno 17371 bound_to 10713
  139.9009  135.0164  156.7262 LP  0  0  0  0  0  0  0  0  0  0  0  0  # atno 17394 bound_to 11000
  140.6985  133.9327  155.8010 LP  0  0  0  0  0  0  0  0  0  0  0  0  # atno 17395 bound_to 11000

$$$$
