AV-unprocessed.smi:1464|AV-procd|sdf|5944|dock5
  -GOLD-   22720 6 23D 1   1.00000     0.00000
 Structure written by MMmdl.
 41 42  0  0  0  0  0  0  0  0  1 V2000
  152.7013  142.6102  162.2474 C   0  0  0  0  0  0  0  0  0  0  0  0
  151.8959  143.2936  161.1297 C   0  0  1  0  0  0  0  0  0  0  0  0
  152.1218  144.8192  161.1126 C   0  0  0  0  0  0  0  0  0  0  0  0
  151.2387  145.5079  160.0601 C   0  0  0  0  0  0  0  0  0  0  0  0
  151.4355  144.8924  158.6666 C   0  0  0  0  0  0  0  0  0  0  0  0
  151.2033  143.3693  158.6912 C   0  0  1  0  0  0  0  0  0  0  0  0
  151.3606  142.8221  157.3454 N   0  0  0  0  0  0  0  0  0  0  0  0
  150.5261  141.9515  156.7572 C   0  0  0  0  0  0  0  0  0  0  0  0
  149.5228  141.4987  157.3106 O   0  0  0  0  0  0  0  0  0  0  0  0
  150.9056  141.5135  155.3352 C   0  0  0  0  0  0  0  0  0  0  0  0
  151.0284  140.0559  155.1872 N   0  0  0  0  0  0  0  0  0  0  0  0
  150.0069  139.4723  154.4529 N   0  0  0  0  0  0  0  0  0  0  0  0
  150.0102  138.1993  154.2432 C   0  0  0  0  0  0  0  0  0  0  0  0
  148.9823  137.6632  153.5072 O   0  0  0  0  0  0  0  0  0  0  0  0
  151.0635  137.3569  154.7658 C   0  0  0  0  0  0  0  0  0  0  0  0
  152.0518  137.9340  155.4839 C   0  0  0  0  0  0  0  0  0  0  0  0
  152.0795  139.3752  155.7397 C   0  0  0  0  0  0  0  0  0  0  0  0
  152.9660  139.9271  156.3913 O   0  0  0  0  0  0  0  0  0  0  0  0
  152.1223  142.6660  159.7282 C   0  0  1  0  0  0  0  0  0  0  0  0
  153.6080  142.6302  159.2999 C   0  0  0  0  0  0  0  0  0  0  0  0
  149.3797  136.9927  152.9731 H   0  0  0  0  0  0  0  0  0  0  0  0
  153.7700  142.8026  162.1530 H   0  0  0  0  0  0  0  0  0  0  0  0
  152.5504  141.5306  162.2383 H   0  0  0  0  0  0  0  0  0  0  0  0
  152.3921  142.9759  163.2270 H   0  0  0  0  0  0  0  0  0  0  0  0
  150.8452  143.1329  161.3773 H   0  0  0  0  0  0  0  0  0  0  0  0
  151.9024  145.2374  162.0956 H   0  0  0  0  0  0  0  0  0  0  0  0
  153.1707  145.0425  160.9158 H   0  0  0  0  0  0  0  0  0  0  0  0
  150.1912  145.4184  160.3510 H   0  0  0  0  0  0  0  0  0  0  0  0
  151.4595  146.5752  160.0303 H   0  0  0  0  0  0  0  0  0  0  0  0
  150.7460  145.3620  157.9639 H   0  0  0  0  0  0  0  0  0  0  0  0
  152.4392  145.1177  158.3048 H   0  0  0  0  0  0  0  0  0  0  0  0
  150.1662  143.2102  158.9941 H   0  0  0  0  0  0  0  0  0  0  0  0
  152.1640  143.1350  156.8198 H   0  0  0  0  0  0  0  0  0  0  0  0
  150.1712  141.8982  154.6249 H   0  0  0  0  0  0  0  0  0  0  0  0
  151.8472  141.9999  155.0737 H   0  0  0  0  0  0  0  0  0  0  0  0
  151.0508  136.2929  154.5810 H   0  0  0  0  0  0  0  0  0  0  0  0
  152.8448  137.3168  155.8800 H   0  0  0  0  0  0  0  0  0  0  0  0
  151.7987  141.6259  159.7915 H   0  0  0  0  0  0  0  0  0  0  0  0
  154.0392  143.6281  159.2292 H   0  0  0  0  0  0  0  0  0  0  0  0
  153.7341  142.1495  158.3299 H   0  0  0  0  0  0  0  0  0  0  0  0
  154.2130  142.0595  160.0036 H   0  0  0  0  0  0  0  0  0  0  0  0
  1  2  1  0  0  0  0
  1 22  1  0  0  0  0
  1 23  1  0  0  0  0
  1 24  1  0  0  0  0
  2 19  1  0  0  0  0
  2  3  1  0  0  0  0
  2 25  1  0  0  0  0
  3  4  1  0  0  0  0
  3 26  1  0  0  0  0
  3 27  1  0  0  0  0
  4  5  1  0  0  0  0
  4 28  1  0  0  0  0
  4 29  1  0  0  0  0
  5  6  1  0  0  0  0
  5 30  1  0  0  0  0
  5 31  1  0  0  0  0
  6  7  1  0  0  0  0
  6 19  1  0  0  0  0
  6 32  1  0  0  0  0
  7  8  1  0  0  0  0
  7 33  1  0  0  0  0
  8  9  2  0  0  0  0
  8 10  1  0  0  0  0
 10 34  1  0  0  0  0
 10 35  1  0  0  0  0
 10 11  1  0  0  0  0
 11 12  1  0  0  0  0
 11 17  1  0  0  0  0
 12 13  2  0  0  0  0
 13 14  1  0  0  0  0
 13 15  1  0  0  0  0
 14 21  1  0  0  0  0
 15 36  1  0  0  0  0
 15 16  2  0  0  0  0
 16 37  1  0  0  0  0
 16 17  1  0  0  0  0
 17 18  2  0  0  0  0
 19 20  1  0  0  0  0
 19 38  1  0  0  0  0
 20 39  1  0  0  0  0
 20 40  1  0  0  0  0
 20 41  1  0  0  0  0
M  END
> <s_m_source_file>
AV-unprocessed.smi

> <i_m_source_file_index>
1464

> <i_lp_mmshare_version>
43012

> <i_f3d_flags>
0

> <s_epik_input>
W0NIM11bQ0BASF0xW0NIMl1bQ0gyXVtDSDJdW0NASF0oW0NASF0xW0NIM10pW05IXUMoPU8pW0NIMl1uMltuSF1jKD1PKVtjSF1bY0hdYzI9Tw==

> <s_epik_cmdline>
J2VwaWtfcHl0aG9uJywgJy1waCcsICc3LjAnLCAnLXRuJywgJzgnLCAnLW1hJywgJzIwMCcsICctbWV0YWxfYmluZGluZycsICctaW1hZScsICc8aW5maWxlLm1hZT4nLCAnLW9tYWUnLCAnPG91dGZpbGUubWFlPic=

> <r_lp_tautomer_probability>
0.9996

> <r_epik_Ionization_Penalty>
2.10335

> <r_epik_Ionization_Penalty_Charging>
3.98079e-08

> <r_epik_Ionization_Penalty_Neutral>
2.10335

> <r_epik_State_Penalty>
1.67957

> <r_epik_Charging_Adjusted_Penalty>
1.67957

> <i_epik_Tot_Q>
0

> <i_epik_Tot_abs_Q>
0

> <r_epik_Metal_State_Penalty>
1.67957

> <b_epik_Metal_Only>
0

> <s_lp_Force_Field>
OPLS_2005

> <r_lp_Energy>
25.7359

> <b_lp_Chiralities_Consistent>
1

> <s_lp_Variant>
AV-unprocessed.smi:1464-10

> <Gold.Version>
5.8.1

> <Gold.Id.Protein>
6NUR|6NUR_protein|mol2

> <Gold.PLP.Fitness>
47.2449

> <Gold.PLP.PLP>
-41.9393

> <Gold.PLP.part.hbond>
-2.0000

> <Gold.PLP.part.metal>
0.0000

> <Gold.PLP.part.buried>
-3.5875

> <Gold.PLP.part.nonpolar>
-35.8010

> <Gold.PLP.part.repulsive>
0.2182

> <Gold.PLP.ligand.clash>
0.0000

> <Gold.PLP.ligand.torsion>
0.3551

> <Gold.PLP.Chemscore.Hbond>
2.0000

> <Gold.PLP.Chemscore.CHOScore>
0.0000

> <Gold.PLP.Chemscore.Metal>
0.0000

> <Gold.Chemscore.Hbonds>
donor molecule, donor type, donor heavy atom, donor atom, acceptor molecule, acceptor atom, score
      L1  H    14    21       P1  7948  0.46
      P1  H  7997  8010       L1    18  0.78

> <Gold.PLP.Chemscore.Internal.Correction>
0.0159

> <Gold.Rescore>
     Score         DG    S(hbond)    S(metal)    S(lipo)     H(rot)  DE(clash)    DE(int)     intcor
     17.35     -18.71       1.87        0.00     108.33       2.22       0.36       1.00       ----

> <Gold.Chemscore.Fitness>
17.3469

> <Gold.Chemscore.DG>
-18.7061

> <Gold.Chemscore.ZeroCoef>
-5.4800

> <Gold.Chemscore.Hbond>
1.8686

> <Gold.Chemscore.Metal>
0.0000

> <Gold.Chemscore.Lipo>
108.3270

> <Gold.Chemscore.Internal_Hbond>
0.0000

> <Gold.Chemscore.DEClash>
0.3565

> <Gold.Chemscore.DEInternal>
1.0028

> <Gold.Chemscore.Rot>
2.2224

> <Gold.Chemscore.Internal.Correction>
   9.000000E+99

> <Gold.Chemscore.Hbonds>
donor molecule, donor type, donor heavy atom, donor atom, acceptor molecule, acceptor atom, score
      L1  H    14    21       P1  7948  0.40
      P1  H  7997  8010       L1    18  0.75

> <Gold.Chemscore.Hbond.Weighted>
-6.2412

> <Gold.Chemscore.Metal.Weighted>
-0.0000

> <Gold.Chemscore.Lipo.Weighted>
-12.6743

> <Gold.Chemscore.Internal_Hbond.Weighted>
0.0000

> <Gold.Chemscore.DEClash.Weighted>
0.3565

> <Gold.Chemscore.DEInternal.Weighted>
1.0028

> <Gold.Chemscore.Rot.Weighted>
5.6893

> <Gold.Chemscore.Internal.Correction.Weighted>
   9.000000E+99

> <Gold.Protein.RotatedTorsions>
[ 6907 6896 6895 6894 ] final  151.40 input  -60.11 | X-H torsion
[ 7974 7965 7964 7962 ] final   13.61 input  175.53 | X-H torsion
[ 8008 7997 7996 7995 ] final   93.62 input   59.86 | X-H torsion
[ 10167 10162 10161 10158 ] final -165.98 input  -65.29 | X-H torsion
[ 10718 10713 10712 10709 ] final  130.97 input   66.30 | X-H torsion
[ 10763 10752 10751 10750 ] final  128.99 input  -60.55 | X-H torsion
[ 11005 11000 10999 10996 ] final   46.99 input  -57.11 | X-H torsion

> <Gold.Protein.ActiveResidues>
 VAL166  LYS551  ARG553  GLY616  TRP617  ASP618  TYR619  PRO620  LYS621  CYS622 
 ASP623  PHE694  ASN695  SER759  ASP760  ASP761  ALA762  ILE779  LEU786  VAL792 
 PHE793  MET794  SER795  GLU796  ALA797  LYS798  CYS799  TRP800  GLU811  SER814 

> <Gold.Protein.RotatedAtoms>
  152.1012  133.4251  159.4587 H   0  0  0  0  0  0  0  0  0  0  0  0  # atno 6907 bound_to 6896
  150.6864  134.2758  159.4616 H   0  0  0  0  0  0  0  0  0  0  0  0  # atno 6908 bound_to 6896
  152.0619  134.9588  160.0625 H   0  0  0  0  0  0  0  0  0  0  0  0  # atno 6909 bound_to 6896
  146.2325  139.9163  142.8516 H   0  0  0  0  0  0  0  0  0  0  0  0  # atno 7974 bound_to 7965
  156.0487  140.3310  155.7326 H   0  0  0  0  0  0  0  0  0  0  0  0  # atno 8008 bound_to 7997
  155.5633  140.0621  157.2841 H   0  0  0  0  0  0  0  0  0  0  0  0  # atno 8009 bound_to 7997
  154.4426  140.1873  156.0793 H   0  0  0  0  0  0  0  0  0  0  0  0  # atno 8010 bound_to 7997
  139.6146  144.0746  152.1875 H   0  0  0  0  0  0  0  0  0  0  0  0  # atno 10167 bound_to 10162
  157.5012  131.1094  150.9425 H   0  0  0  0  0  0  0  0  0  0  0  0  # atno 10718 bound_to 10713
  153.7345  135.3233  155.3292 H   0  0  0  0  0  0  0  0  0  0  0  0  # atno 10763 bound_to 10752
  154.8315  135.4530  154.1089 H   0  0  0  0  0  0  0  0  0  0  0  0  # atno 10764 bound_to 10752
  153.2245  135.6952  153.8042 H   0  0  0  0  0  0  0  0  0  0  0  0  # atno 10765 bound_to 10752
  140.1319  134.4694  155.8515 H   0  0  0  0  0  0  0  0  0  0  0  0  # atno 11005 bound_to 11000
  145.2180  140.9923  143.4062 LP  0  0  0  0  0  0  0  0  0  0  0  0  # atno 17320 bound_to 7965
  144.9634  139.3955  143.6344 LP  0  0  0  0  0  0  0  0  0  0  0  0  # atno 17321 bound_to 7965
  140.0373  144.6034  150.7439 LP  0  0  0  0  0  0  0  0  0  0  0  0  # atno 17342 bound_to 10162
  140.7342  143.2726  151.3841 LP  0  0  0  0  0  0  0  0  0  0  0  0  # atno 17343 bound_to 10162
  157.0095  130.5631  149.5319 LP  0  0  0  0  0  0  0  0  0  0  0  0  # atno 17370 bound_to 10713
  156.0230  130.5325  150.8329 LP  0  0  0  0  0  0  0  0  0  0  0  0  # atno 17371 bound_to 10713
  141.2172  133.6799  156.7086 LP  0  0  0  0  0  0  0  0  0  0  0  0  # atno 17394 bound_to 11000
  140.2831  134.8301  157.3951 LP  0  0  0  0  0  0  0  0  0  0  0  0  # atno 17395 bound_to 11000

$$$$
