AV-unprocessed.smi:435|AV-procd|sdf|2557|dock3
  -GOLD-   2262022523D 1   1.00000     0.00000
 Structure written by MMmdl.
 44 45  0  0  0  0  0  0  0  0  1 V2000
  145.1275  148.0485  159.4443 C   0  0  0  0  0  0  0  0  0  0  0  0
  145.3806  146.5649  159.4380 C   0  0  0  0  0  0  0  0  0  0  0  0
  146.3989  146.1471  160.1156 N   0  0  0  0  0  0  0  0  0  0  0  0
  146.7242  144.8055  160.1717 N   0  0  0  0  0  0  0  0  0  0  0  0
  147.9197  144.5088  160.9744 C   0  0  0  0  0  0  0  0  0  0  0  0
  149.2227  144.9660  160.3035 C   0  0  0  0  0  0  0  0  0  0  0  0
  149.8226  145.9615  160.7114 O   0  0  0  0  0  0  0  0  0  0  0  0
  149.6586  144.2073  159.2864 N   0  0  0  0  0  0  0  0  0  0  0  0
  150.8774  144.4385  158.5131 C   0  0  2  0  0  0  0  0  0  0  0  0
  151.2000  143.2077  157.6441 C   0  0  0  0  0  0  0  0  0  0  0  0
  151.6663  142.0047  158.4836 C   0  0  0  0  0  0  0  0  0  0  0  0
  152.8630  142.3664  159.3839 C   0  0  2  0  0  0  0  0  0  0  0  0
  153.3163  141.1629  160.2223 C   0  0  0  0  0  0  0  0  0  0  0  0
  152.5213  143.5775  160.2732 C   0  0  0  0  0  0  0  0  0  0  0  0
  152.0638  144.7853  159.4360 C   0  0  0  0  0  0  0  0  0  0  0  0
  146.0288  143.8110  159.5482 C   0  0  0  0  0  0  0  0  0  0  0  0
  146.3521  142.6249  159.6301 O   0  0  0  0  0  0  0  0  0  0  0  0
  144.8759  144.2915  158.7835 C   0  0  0  0  0  0  0  0  0  0  0  0
  144.1238  143.2824  158.1100 C   0  0  0  0  0  0  0  0  0  0  0  0
  143.4981  142.4678  157.5761 N   0  0  0  0  0  0  0  0  0  0  0  0
  144.5470  145.6060  158.7196 C   0  0  0  0  0  0  0  0  0  0  0  0
  143.3605  146.1550  157.9392 C   0  0  0  0  0  0  0  0  0  0  0  0
  144.1774  148.2761  159.9280 H   0  0  0  0  0  0  0  0  0  0  0  0
  145.0927  148.4404  158.4276 H   0  0  0  0  0  0  0  0  0  0  0  0
  145.9086  148.5920  159.9785 H   0  0  0  0  0  0  0  0  0  0  0  0
  147.8545  144.9988  161.9475 H   0  0  0  0  0  0  0  0  0  0  0  0
  147.9667  143.4393  161.1891 H   0  0  0  0  0  0  0  0  0  0  0  0
  149.1036  143.4052  159.0253 H   0  0  0  0  0  0  0  0  0  0  0  0
  150.7034  145.2804  157.8403 H   0  0  0  0  0  0  0  0  0  0  0  0
  150.3319  142.9307  157.0446 H   0  0  0  0  0  0  0  0  0  0  0  0
  151.9853  143.4697  156.9341 H   0  0  0  0  0  0  0  0  0  0  0  0
  150.8399  141.6422  159.0964 H   0  0  0  0  0  0  0  0  0  0  0  0
  151.9364  141.1830  157.8195 H   0  0  0  0  0  0  0  0  0  0  0  0
  153.6960  142.6486  158.7382 H   0  0  0  0  0  0  0  0  0  0  0  0
  152.5256  140.8270  160.8938 H   0  0  0  0  0  0  0  0  0  0  0  0
  154.1856  141.4128  160.8308 H   0  0  0  0  0  0  0  0  0  0  0  0
  153.5918  140.3223  159.5849 H   0  0  0  0  0  0  0  0  0  0  0  0
  151.7385  143.3061  160.9831 H   0  0  0  0  0  0  0  0  0  0  0  0
  153.3901  143.8581  160.8698 H   0  0  0  0  0  0  0  0  0  0  0  0
  152.8996  145.1309  158.8263 H   0  0  0  0  0  0  0  0  0  0  0  0
  151.8064  145.6183  160.0912 H   0  0  0  0  0  0  0  0  0  0  0  0
  142.7478  145.3634  157.5090 H   0  0  0  0  0  0  0  0  0  0  0  0
  143.7040  146.7881  157.1205 H   0  0  0  0  0  0  0  0  0  0  0  0
  142.7142  146.7489  158.5863 H   0  0  0  0  0  0  0  0  0  0  0  0
  1  2  1  0  0  0  0
  1 23  1  0  0  0  0
  1 24  1  0  0  0  0
  1 25  1  0  0  0  0
  2 21  1  0  0  0  0
  2  3  2  0  0  0  0
  3  4  1  0  0  0  0
  4  5  1  0  0  0  0
  4 16  1  0  0  0  0
  5  6  1  0  0  0  0
  5 26  1  0  0  0  0
  5 27  1  0  0  0  0
  6  7  2  0  0  0  0
  6  8  1  0  0  0  0
  8  9  1  0  0  0  0
  8 28  1  0  0  0  0
  9 15  1  0  0  0  0
  9 10  1  0  0  0  0
  9 29  1  0  0  0  0
 10 11  1  0  0  0  0
 10 30  1  0  0  0  0
 10 31  1  0  0  0  0
 11 12  1  0  0  0  0
 11 32  1  0  0  0  0
 11 33  1  0  0  0  0
 12 13  1  0  0  0  0
 12 14  1  0  0  0  0
 12 34  1  0  0  0  0
 13 35  1  0  0  0  0
 13 36  1  0  0  0  0
 13 37  1  0  0  0  0
 14 15  1  0  0  0  0
 14 38  1  0  0  0  0
 14 39  1  0  0  0  0
 15 40  1  0  0  0  0
 15 41  1  0  0  0  0
 16 17  2  0  0  0  0
 16 18  1  0  0  0  0
 18 19  1  0  0  0  0
 18 21  2  0  0  0  0
 19 20  3  0  0  0  0
 21 22  1  0  0  0  0
 22 42  1  0  0  0  0
 22 43  1  0  0  0  0
 22 44  1  0  0  0  0
M  END
> <s_m_source_file>
AV-unprocessed.smi

> <i_m_source_file_index>
435

> <i_lp_mmshare_version>
43012

> <i_f3d_flags>
0

> <s_epik_input>
TiNDYyhjMVtDSDNdKWMoPU8pbihuYzFbQ0gzXSlbQ0gyXUMoPU8pW05IXVtDQEBIXTJbQ0gyXVtDSDJdW0NAQEhdKFtDSDNdKVtDSDJdW0NIMl0y

> <s_epik_cmdline>
J2VwaWtfcHl0aG9uJywgJy1waCcsICc3LjAnLCAnLXRuJywgJzgnLCAnLW1hJywgJzIwMCcsICctbWV0YWxfYmluZGluZycsICctaW1hZScsICc8aW5maWxlLm1hZT4nLCAnLW9tYWUnLCAnPG91dGZpbGUubWFlPic=

> <r_lp_tautomer_probability>
1

> <r_epik_Ionization_Penalty>
1.90703e-08

> <r_epik_Ionization_Penalty_Charging>
2.32563e-11

> <r_epik_Ionization_Penalty_Neutral>
1.90471e-08

> <r_epik_State_Penalty>
-0

> <r_epik_Charging_Adjusted_Penalty>
2.32563e-11

> <i_epik_Tot_Q>
0

> <i_epik_Tot_abs_Q>
0

> <r_epik_Metal_State_Penalty>
-0

> <b_epik_Metal_Only>
0

> <s_lp_Force_Field>
OPLS_2005

> <r_lp_Energy>
22.9488

> <b_lp_Chiralities_Consistent>
1

> <s_lp_Variant>
AV-unprocessed.smi:435-2

> <Gold.Version>
5.8.1

> <Gold.Id.Protein>
6NUR|6NUR_protein|mol2

> <Gold.PLP.Fitness>
40.5544

> <Gold.PLP.PLP>
-38.4847

> <Gold.PLP.part.hbond>
-2.0904

> <Gold.PLP.part.metal>
0.0000

> <Gold.PLP.part.buried>
-6.2621

> <Gold.PLP.part.nonpolar>
-33.5064

> <Gold.PLP.part.repulsive>
2.6238

> <Gold.PLP.ligand.clash>
0.0000

> <Gold.PLP.ligand.torsion>
0.4690

> <Gold.PLP.Chemscore.Hbond>
1.0000

> <Gold.PLP.Chemscore.CHOScore>
0.0000

> <Gold.PLP.Chemscore.Metal>
0.0000

> <Gold.Chemscore.Hbonds>
donor molecule, donor type, donor heavy atom, donor atom, acceptor molecule, acceptor atom, score
      P1  H  6934  6946       L1    17  0.71

> <Gold.PLP.Chemscore.Internal.Correction>
0.0078

> <Gold.Rescore>
     Score         DG    S(hbond)    S(metal)    S(lipo)     H(rot)  DE(clash)    DE(int)     intcor
     12.65     -16.20       0.99        0.00      95.38       1.46       1.79       1.77       ----

> <Gold.Chemscore.Fitness>
12.6480

> <Gold.Chemscore.DG>
-16.2038

> <Gold.Chemscore.ZeroCoef>
-5.4800

> <Gold.Chemscore.Hbond>
0.9898

> <Gold.Chemscore.Metal>
0.0000

> <Gold.Chemscore.Lipo>
95.3797

> <Gold.Chemscore.Internal_Hbond>
0.0000

> <Gold.Chemscore.DEClash>
1.7896

> <Gold.Chemscore.DEInternal>
1.7662

> <Gold.Chemscore.Rot>
1.4615

> <Gold.Chemscore.Internal.Correction>
   9.000000E+99

> <Gold.Chemscore.Hbonds>
donor molecule, donor type, donor heavy atom, donor atom, acceptor molecule, acceptor atom, score
      P1  H  6934  6946       L1    17  0.70

> <Gold.Chemscore.Hbond.Weighted>
-3.3058

> <Gold.Chemscore.Metal.Weighted>
-0.0000

> <Gold.Chemscore.Lipo.Weighted>
-11.1594

> <Gold.Chemscore.Internal_Hbond.Weighted>
0.0000

> <Gold.Chemscore.DEClash.Weighted>
1.7896

> <Gold.Chemscore.DEInternal.Weighted>
1.7662

> <Gold.Chemscore.Rot.Weighted>
3.7414

> <Gold.Chemscore.Internal.Correction.Weighted>
   9.000000E+99

> <Gold.Protein.RotatedTorsions>
[ 6907 6896 6895 6894 ] final -131.70 input  -60.11 | X-H torsion
[ 7974 7965 7964 7962 ] final  173.07 input  175.53 | X-H torsion
[ 8008 7997 7996 7995 ] final   17.38 input   59.86 | X-H torsion
[ 10167 10162 10161 10158 ] final -149.85 input  -65.29 | X-H torsion
[ 10718 10713 10712 10709 ] final   46.15 input   66.30 | X-H torsion
[ 10763 10752 10751 10750 ] final -143.60 input  -60.55 | X-H torsion
[ 11005 11000 10999 10996 ] final -116.61 input  -57.11 | X-H torsion

> <Gold.Protein.ActiveResidues>
 VAL166  LYS551  ARG553  GLY616  TRP617  ASP618  TYR619  PRO620  LYS621  CYS622 
 ASP623  PHE694  ASN695  SER759  ASP760  ASP761  ALA762  ILE779  LEU786  VAL792 
 PHE793  MET794  SER795  GLU796  ALA797  LYS798  CYS799  TRP800  GLU811  SER814 

> <Gold.Protein.RotatedAtoms>
  150.9540  133.6518  159.2766 H   0  0  0  0  0  0  0  0  0  0  0  0  # atno 6907 bound_to 6896
  151.3864  135.0947  159.9522 H   0  0  0  0  0  0  0  0  0  0  0  0  # atno 6908 bound_to 6896
  152.5121  133.9064  159.7521 H   0  0  0  0  0  0  0  0  0  0  0  0  # atno 6909 bound_to 6896
  144.7252  139.9593  143.6434 H   0  0  0  0  0  0  0  0  0  0  0  0  # atno 7974 bound_to 7965
  154.8906  140.2986  155.5373 H   0  0  0  0  0  0  0  0  0  0  0  0  # atno 8008 bound_to 7997
  156.3021  140.2425  156.3855 H   0  0  0  0  0  0  0  0  0  0  0  0  # atno 8009 bound_to 7997
  154.8623  140.0405  157.1661 H   0  0  0  0  0  0  0  0  0  0  0  0  # atno 8010 bound_to 7997
  139.7406  143.8668  152.2561 H   0  0  0  0  0  0  0  0  0  0  0  0  # atno 10167 bound_to 10162
  157.4451  130.8105  149.7733 H   0  0  0  0  0  0  0  0  0  0  0  0  # atno 10718 bound_to 10713
  154.8463  135.3463  154.6212 H   0  0  0  0  0  0  0  0  0  0  0  0  # atno 10763 bound_to 10752
  153.6821  135.6979  153.5119 H   0  0  0  0  0  0  0  0  0  0  0  0  # atno 10764 bound_to 10752
  153.2660  135.4308  155.0897 H   0  0  0  0  0  0  0  0  0  0  0  0  # atno 10765 bound_to 10752
  141.0410  133.9835  157.2994 H   0  0  0  0  0  0  0  0  0  0  0  0  # atno 11005 bound_to 11000
  146.0650  139.3641  143.0558 LP  0  0  0  0  0  0  0  0  0  0  0  0  # atno 17320 bound_to 7965
  145.8043  140.9756  143.0982 LP  0  0  0  0  0  0  0  0  0  0  0  0  # atno 17321 bound_to 7965
  139.8617  144.7113  150.9091 LP  0  0  0  0  0  0  0  0  0  0  0  0  # atno 17342 bound_to 10162
  140.7785  143.3812  151.1474 LP  0  0  0  0  0  0  0  0  0  0  0  0  # atno 17343 bound_to 10162
  155.9964  130.3906  150.2780 LP  0  0  0  0  0  0  0  0  0  0  0  0  # atno 17370 bound_to 10713
  157.0948  131.0179  151.3108 LP  0  0  0  0  0  0  0  0  0  0  0  0  # atno 17371 bound_to 10713
  139.9276  135.0201  156.8288 LP  0  0  0  0  0  0  0  0  0  0  0  0  # atno 17394 bound_to 11000
  140.6234  133.9973  155.7628 LP  0  0  0  0  0  0  0  0  0  0  0  0  # atno 17395 bound_to 11000

$$$$
