AV-unprocessed.smi:766|AV-procd|sdf|3651|dock7
  -GOLD-   22720 1 53D 1   1.00000     0.00000
 Structure written by MMmdl.
 47 49  0  0  0  0  0  0  0  0  2 V2000
  153.6159  142.4563  160.3571 C   0  0  0  0  0  0  0  0  0  0  0  0
  152.5953  142.1215  159.2836 C   0  0  0  0  0  0  0  0  0  0  0  0
  152.6302  140.8461  158.6757 C   0  0  0  0  0  0  0  0  0  0  0  0
  151.6967  140.4945  157.6761 C   0  0  0  0  0  0  0  0  0  0  0  0
  151.5464  139.3205  156.9584 N   0  0  0  0  0  0  0  0  0  0  0  0
  150.5036  139.6097  156.1857 C   0  0  0  0  0  0  0  0  0  0  0  0
  149.9583  140.8341  156.3194 N   0  0  0  0  0  0  0  0  0  0  0  0
  148.8220  141.3751  155.5957 C   0  0  0  0  0  0  0  0  0  0  0  0
  148.4369  140.5114  154.3793 C   0  0  2  0  0  0  0  0  0  0  0  0
  149.2369  140.8780  153.2709 O   0  0  0  0  0  0  0  0  0  0  0  0
  146.9564  140.6742  154.0003 C   0  0  0  0  0  0  0  0  0  0  0  0
  146.5990  139.7968  152.8686 N   0  3  0  0  0  0  0  0  0  0  0  0
  146.6085  138.3555  153.1893 C   0  0  0  0  0  0  0  0  0  0  0  0
  145.9241  137.5254  152.0909 C   0  0  0  0  0  0  0  0  0  0  0  0
  144.7852  136.7761  152.5914 N   0  0  0  0  0  0  0  0  0  0  0  0
  143.4461  137.0954  152.5072 C   0  0  0  0  0  0  0  0  0  0  0  0
  142.7502  136.0923  153.1187 C   0  0  0  0  0  0  0  0  0  0  0  0
  143.7633  135.1910  153.5495 C   0  0  0  0  0  0  0  0  0  0  0  0
  144.9806  135.6039  153.2341 N   0  0  0  0  0  0  0  0  0  0  0  0
  150.7205  141.4620  157.2981 C   0  0  0  0  0  0  0  0  0  0  0  0
  150.6773  142.7350  157.8928 C   0  0  0  0  0  0  0  0  0  0  0  0
  151.6172  143.0699  158.8898 C   0  0  0  0  0  0  0  0  0  0  0  0
  151.5616  144.4470  159.5266 C   0  0  0  0  0  0  0  0  0  0  0  0
  154.2440  141.5961  160.5913 H   0  0  0  0  0  0  0  0  0  0  0  0
  153.1189  142.7653  161.2769 H   0  0  0  0  0  0  0  0  0  0  0  0
  154.2659  143.2661  160.0251 H   0  0  0  0  0  0  0  0  0  0  0  0
  153.3762  140.1240  158.9737 H   0  0  0  0  0  0  0  0  0  0  0  0
  150.1106  138.8880  155.4844 H   0  0  0  0  0  0  0  0  0  0  0  0
  147.9833  141.4451  156.2893 H   0  0  0  0  0  0  0  0  0  0  0  0
  149.0562  142.3945  155.2850 H   0  0  0  0  0  0  0  0  0  0  0  0
  148.6345  139.4637  154.6109 H   0  0  0  0  0  0  0  0  0  0  0  0
  149.0687  140.2761  152.5616 H   0  0  0  0  0  0  0  0  0  0  0  0
  146.3281  140.4072  154.8513 H   0  0  0  0  0  0  0  0  0  0  0  0
  146.7341  141.7132  153.7518 H   0  0  0  0  0  0  0  0  0  0  0  0
  145.6758  140.0509  152.5461 H   0  0  0  0  0  0  0  0  0  0  0  0
  147.6355  138.0161  153.3311 H   0  0  0  0  0  0  0  0  0  0  0  0
  146.0892  138.2054  154.1365 H   0  0  0  0  0  0  0  0  0  0  0  0
  145.5721  138.1860  151.2975 H   0  0  0  0  0  0  0  0  0  0  0  0
  146.6310  136.8345  151.6287 H   0  0  0  0  0  0  0  0  0  0  0  0
  143.1028  137.9987  152.0247 H   0  0  0  0  0  0  0  0  0  0  0  0
  141.6798  136.0127  153.2377 H   0  0  0  0  0  0  0  0  0  0  0  0
  143.6512  134.2563  154.0788 H   0  0  0  0  0  0  0  0  0  0  0  0
  149.9262  143.4472  157.5848 H   0  0  0  0  0  0  0  0  0  0  0  0
  150.7933  145.0679  159.0650 H   0  0  0  0  0  0  0  0  0  0  0  0
  152.5166  144.9606  159.4146 H   0  0  0  0  0  0  0  0  0  0  0  0
  151.3332  144.3658  160.5894 H   0  0  0  0  0  0  0  0  0  0  0  0
  147.2537  139.9591  152.1163 H   0  0  0  0  0  0  0  0  0  0  0  0
  1  2  1  0  0  0  0
  1 24  1  0  0  0  0
  1 25  1  0  0  0  0
  1 26  1  0  0  0  0
  2 22  1  0  0  0  0
  2  3  2  0  0  0  0
  3  4  1  0  0  0  0
  3 27  1  0  0  0  0
  4 20  2  0  0  0  0
  4  5  1  0  0  0  0
  5  6  2  0  0  0  0
  6  7  1  0  0  0  0
  6 28  1  0  0  0  0
  7  8  1  0  0  0  0
  7 20  1  0  0  0  0
  8  9  1  0  0  0  0
  8 29  1  0  0  0  0
  8 30  1  0  0  0  0
  9 10  1  0  0  0  0
  9 11  1  0  0  0  0
  9 31  1  0  0  0  0
 10 32  1  0  0  0  0
 11 12  1  0  0  0  0
 11 33  1  0  0  0  0
 11 34  1  0  0  0  0
 12 13  1  0  0  0  0
 12 35  1  0  0  0  0
 12 47  1  0  0  0  0
 13 14  1  0  0  0  0
 13 36  1  0  0  0  0
 13 37  1  0  0  0  0
 14 15  1  0  0  0  0
 14 38  1  0  0  0  0
 14 39  1  0  0  0  0
 15 19  1  0  0  0  0
 15 16  1  0  0  0  0
 16 17  2  0  0  0  0
 16 40  1  0  0  0  0
 17 18  1  0  0  0  0
 17 41  1  0  0  0  0
 18 19  2  0  0  0  0
 18 42  1  0  0  0  0
 20 21  1  0  0  0  0
 21 22  2  0  0  0  0
 21 43  1  0  0  0  0
 22 23  1  0  0  0  0
 23 44  1  0  0  0  0
 23 45  1  0  0  0  0
 23 46  1  0  0  0  0
M  CHG  1  12   1
M  END
> <s_m_source_file>
AV-unprocessed.smi

> <i_m_source_file_index>
766

> <i_lp_mmshare_version>
43012

> <i_f3d_flags>
0

> <s_epik_input>
W0NIM11jKFtjSF0xKWMoW0NIM10pW2NIXWMoYzEyKW4oW2NIXW4yKVtDSDJdW0NASF0oW09IXSlbQ0gyXVtOSF1bQ0gyXVtDSDJdbjNbY0hdW2NIXVtjSF1uMw==

> <s_epik_cmdline>
J2VwaWtfcHl0aG9uJywgJy1waCcsICc3LjAnLCAnLXRuJywgJzgnLCAnLW1hJywgJzIwMCcsICctbWV0YWxfYmluZGluZycsICctaW1hZScsICc8aW5maWxlLm1hZT4nLCAnLW9tYWUnLCAnPG91dGZpbGUubWFlPic=

> <r_lp_tautomer_probability>
1

> <r_epik_Ionization_Penalty>
0.127222

> <r_epik_Ionization_Penalty_Charging>
0.043815

> <r_epik_Ionization_Penalty_Neutral>
0.0834074

> <r_epik_State_Penalty>
0.115563

> <r_epik_Charging_Adjusted_Penalty>
0.159378

> <i_epik_Tot_Q>
1

> <i_epik_Tot_abs_Q>
1

> <r_epik_Metal_State_Penalty>
0.102594

> <b_epik_Metal_Only>
0

> <s_lp_Force_Field>
OPLS_2005

> <r_lp_Energy>
9.49244

> <b_lp_Chiralities_Consistent>
1

> <s_lp_Variant>
AV-unprocessed.smi:766-1

> <Gold.Version>
5.8.1

> <Gold.Id.Protein>
6NUR|6NUR_protein|mol2

> <Gold.PLP.Fitness>
58.6144

> <Gold.PLP.PLP>
-42.8822

> <Gold.PLP.part.hbond>
-3.1085

> <Gold.PLP.part.metal>
0.0000

> <Gold.PLP.part.buried>
-6.9196

> <Gold.PLP.part.nonpolar>
-34.5669

> <Gold.PLP.part.repulsive>
0.0702

> <Gold.PLP.ligand.clash>
0.0000

> <Gold.PLP.ligand.torsion>
1.1586

> <Gold.PLP.Chemscore.Hbond>
3.6885

> <Gold.PLP.Chemscore.CHOScore>
2.2799

> <Gold.PLP.Chemscore.Metal>
0.0000

> <Gold.Chemscore.Hbonds>
donor molecule, donor type, donor heavy atom, donor atom, acceptor molecule, acceptor atom, score
      L1  H    10    32       P1  7957  0.72
      L1  H    12    35       P1 10175  1.98
      P1  H  7989  7998       L1    10  0.04
      P1  H  8011  8017       L1    10  1.00
      L1  C    16    40       P1 10171  0.84
      L1  C    16    40       P1 10175  1.00
      L1  C    18    42       P1 10957  0.40

> <Gold.PLP.Chemscore.Internal.Correction>
0.1443

> <Gold.Rescore>
     Score         DG    S(hbond)    S(metal)    S(lipo)     H(rot)  DE(clash)    DE(int)     intcor
     18.05     -19.21       2.27        0.00     116.87       2.93       0.19       0.97       ----

> <Gold.Chemscore.Fitness>
18.0519

> <Gold.Chemscore.DG>
-19.2134

> <Gold.Chemscore.ZeroCoef>
-5.4800

> <Gold.Chemscore.Hbond>
2.2663

> <Gold.Chemscore.Metal>
0.0000

> <Gold.Chemscore.Lipo>
116.8680

> <Gold.Chemscore.Internal_Hbond>
0.0000

> <Gold.Chemscore.DEClash>
0.1888

> <Gold.Chemscore.DEInternal>
0.9728

> <Gold.Chemscore.Rot>
2.9335

> <Gold.Chemscore.Internal.Correction>
   9.000000E+99

> <Gold.Chemscore.Hbonds>
donor molecule, donor type, donor heavy atom, donor atom, acceptor molecule, acceptor atom, score
      L1  H    10    32       P1  7957  0.67
      L1  H    12    35       P1 10175  0.84
      L1  H    12    47       P1  7957  0.01
      P1  H  7989  7998       L1    10  0.02
      P1  H  8011  8017       L1    10  0.30

> <Gold.Chemscore.Hbond.Weighted>
-7.5696

> <Gold.Chemscore.Metal.Weighted>
-0.0000

> <Gold.Chemscore.Lipo.Weighted>
-13.6736

> <Gold.Chemscore.Internal_Hbond.Weighted>
0.0000

> <Gold.Chemscore.DEClash.Weighted>
0.1888

> <Gold.Chemscore.DEInternal.Weighted>
0.9728

> <Gold.Chemscore.Rot.Weighted>
7.5097

> <Gold.Chemscore.Internal.Correction.Weighted>
   9.000000E+99

> <Gold.Protein.RotatedTorsions>
[ 6907 6896 6895 6894 ] final  168.16 input  -60.11 | X-H torsion
[ 7974 7965 7964 7962 ] final   73.05 input  175.53 | X-H torsion
[ 8008 7997 7996 7995 ] final  178.45 input   59.86 | X-H torsion
[ 10167 10162 10161 10158 ] final -130.32 input  -65.29 | X-H torsion
[ 10718 10713 10712 10709 ] final   85.49 input   66.30 | X-H torsion
[ 10763 10752 10751 10750 ] final  -23.13 input  -60.55 | X-H torsion
[ 11005 11000 10999 10996 ] final -102.41 input  -57.11 | X-H torsion

> <Gold.Protein.ActiveResidues>
 VAL166  LYS551  ARG553  GLY616  TRP617  ASP618  TYR619  PRO620  LYS621  CYS622 
 ASP623  PHE694  ASN695  SER759  ASP760  ASP761  ALA762  ILE779  LEU786  VAL792 
 PHE793  MET794  SER795  GLU796  ALA797  LYS798  CYS799  TRP800  GLU811  SER814 

> <Gold.Protein.RotatedAtoms>
  151.8520  133.3441  159.3676 H   0  0  0  0  0  0  0  0  0  0  0  0  # atno 6907 bound_to 6896
  150.7203  134.5290  159.5700 H   0  0  0  0  0  0  0  0  0  0  0  0  # atno 6908 bound_to 6896
  152.2785  134.7855  160.0452 H   0  0  0  0  0  0  0  0  0  0  0  0  # atno 6909 bound_to 6896
  145.7457  139.2739  143.1460 H   0  0  0  0  0  0  0  0  0  0  0  0  # atno 7974 bound_to 7965
  156.0545  140.1333  157.0012 H   0  0  0  0  0  0  0  0  0  0  0  0  # atno 8008 bound_to 7997
  154.4451  140.1004  156.6496 H   0  0  0  0  0  0  0  0  0  0  0  0  # atno 8009 bound_to 7997
  155.5473  140.3462  155.4462 H   0  0  0  0  0  0  0  0  0  0  0  0  # atno 8010 bound_to 7997
  139.9306  143.6277  152.2531 H   0  0  0  0  0  0  0  0  0  0  0  0  # atno 10167 bound_to 10162
  157.6915  131.0177  150.2830 H   0  0  0  0  0  0  0  0  0  0  0  0  # atno 10718 bound_to 10713
  153.6629  135.6975  153.5171 H   0  0  0  0  0  0  0  0  0  0  0  0  # atno 10763 bound_to 10752
  153.2617  135.4242  155.0900 H   0  0  0  0  0  0  0  0  0  0  0  0  # atno 10764 bound_to 10752
  154.8447  135.3556  154.6174 H   0  0  0  0  0  0  0  0  0  0  0  0  # atno 10765 bound_to 10752
  141.1190  133.8556  157.1357 H   0  0  0  0  0  0  0  0  0  0  0  0  # atno 11005 bound_to 11000
  146.0405  140.8170  142.9831 LP  0  0  0  0  0  0  0  0  0  0  0  0  # atno 17320 bound_to 7965
  144.6860  140.2902  143.7279 LP  0  0  0  0  0  0  0  0  0  0  0  0  # atno 17321 bound_to 7965
  139.6786  144.7657  151.1651 LP  0  0  0  0  0  0  0  0  0  0  0  0  # atno 17342 bound_to 10162
  140.7638  143.5759  150.8946 LP  0  0  0  0  0  0  0  0  0  0  0  0  # atno 17343 bound_to 10162
  156.3374  130.3810  149.7438 LP  0  0  0  0  0  0  0  0  0  0  0  0  # atno 17370 bound_to 10713
  156.4959  130.8106  151.3113 LP  0  0  0  0  0  0  0  0  0  0  0  0  # atno 17371 bound_to 10713
  140.0133  134.9978  157.0440 LP  0  0  0  0  0  0  0  0  0  0  0  0  # atno 17394 bound_to 11000
  140.4563  134.1530  155.7186 LP  0  0  0  0  0  0  0  0  0  0  0  0  # atno 17395 bound_to 11000

$$$$
