AV-unprocessed.smi:1360|AV-procd|sdf|5552|dock5
  -GOLD-   22720 5143D 1   1.00000     0.00000
 Structure written by MMmdl.
 36 37  0  0  0  0  0  0  0  0  1 V2000
  147.1189  141.9622  155.5664 C   0  0  0  0  0  0  0  0  0  0  0  0
  148.4544  141.2132  155.7057 C   0  0  1  0  0  0  0  0  0  0  0  0
  149.0533  140.7788  154.3502 C   0  0  0  0  0  0  0  0  0  0  0  0
  150.1084  139.7918  154.4939 N   0  0  0  0  0  0  0  0  0  0  0  0
  150.0817  138.4572  154.1480 C   0  0  0  0  0  0  0  0  0  0  0  0
  151.3001  137.9301  154.4675 C   0  0  0  0  0  0  0  0  0  0  0  0
  152.0129  139.0339  155.0138 C   0  0  0  0  0  0  0  0  0  0  0  0
  151.2970  140.1467  155.0292 N   0  0  0  0  0  0  0  0  0  0  0  0
  149.4023  142.0579  156.4266 N   0  0  0  0  0  0  0  0  0  0  0  0
  150.1913  141.6589  157.4367 C   0  0  0  0  0  0  0  0  0  0  0  0
  150.2015  140.5066  157.8712 O   0  0  0  0  0  0  0  0  0  0  0  0
  151.1093  142.7257  158.0486 C   0  0  2  0  0  0  0  0  0  0  0  0
  151.9900  142.1329  159.1732 C   0  0  0  0  0  0  0  0  0  0  0  0
  152.7162  143.2103  159.9595 C   0  0  0  0  0  0  0  0  0  0  0  0
  152.3799  144.5109  159.9162 C   0  0  0  0  0  0  0  0  0  0  0  0
  151.2319  145.0498  159.0809 C   0  0  0  0  0  0  0  0  0  0  0  0
  150.3028  143.9299  158.5746 C   0  0  0  0  0  0  0  0  0  0  0  0
  146.3516  141.3321  155.1165 H   0  0  0  0  0  0  0  0  0  0  0  0
  147.2265  142.8515  154.9446 H   0  0  0  0  0  0  0  0  0  0  0  0
  146.7447  142.2799  156.5402 H   0  0  0  0  0  0  0  0  0  0  0  0
  148.2632  140.3192  156.3026 H   0  0  0  0  0  0  0  0  0  0  0  0
  148.2732  140.3717  153.7044 H   0  0  0  0  0  0  0  0  0  0  0  0
  149.4709  141.6394  153.8258 H   0  0  0  0  0  0  0  0  0  0  0  0
  149.2080  138.0008  153.7060 H   0  0  0  0  0  0  0  0  0  0  0  0
  151.6317  136.9114  154.3324 H   0  0  0  0  0  0  0  0  0  0  0  0
  153.0223  139.0592  155.3976 H   0  0  0  0  0  0  0  0  0  0  0  0
  149.4610  143.0232  156.1365 H   0  0  0  0  0  0  0  0  0  0  0  0
  151.7723  143.0934  157.2629 H   0  0  0  0  0  0  0  0  0  0  0  0
  151.3968  141.5471  159.8770 H   0  0  0  0  0  0  0  0  0  0  0  0
  152.7305  141.4573  158.7437 H   0  0  0  0  0  0  0  0  0  0  0  0
  153.5334  142.8876  160.5877 H   0  0  0  0  0  0  0  0  0  0  0  0
  152.9453  145.2312  160.4889 H   0  0  0  0  0  0  0  0  0  0  0  0
  150.6617  145.7667  159.6720 H   0  0  0  0  0  0  0  0  0  0  0  0
  151.6553  145.5979  158.2388 H   0  0  0  0  0  0  0  0  0  0  0  0
  149.6441  144.3239  157.7995 H   0  0  0  0  0  0  0  0  0  0  0  0
  149.6563  143.6060  159.3921 H   0  0  0  0  0  0  0  0  0  0  0  0
  1  2  1  0  0  0  0
  1 18  1  0  0  0  0
  1 19  1  0  0  0  0
  1 20  1  0  0  0  0
  2  3  1  0  0  0  0
  2  9  1  0  0  0  0
  2 21  1  0  0  0  0
  3  4  1  0  0  0  0
  3 22  1  0  0  0  0
  3 23  1  0  0  0  0
  4  8  1  0  0  0  0
  4  5  1  0  0  0  0
  5  6  2  0  0  0  0
  5 24  1  0  0  0  0
  6  7  1  0  0  0  0
  6 25  1  0  0  0  0
  7  8  2  0  0  0  0
  7 26  1  0  0  0  0
  9 10  1  0  0  0  0
  9 27  1  0  0  0  0
 10 11  2  0  0  0  0
 10 12  1  0  0  0  0
 12 17  1  0  0  0  0
 12 13  1  0  0  0  0
 12 28  1  0  0  0  0
 13 14  1  0  0  0  0
 13 29  1  0  0  0  0
 13 30  1  0  0  0  0
 14 15  2  0  0  0  0
 14 31  1  0  0  0  0
 15 16  1  0  0  0  0
 15 32  1  0  0  0  0
 16 17  1  0  0  0  0
 16 33  1  0  0  0  0
 16 34  1  0  0  0  0
 17 35  1  0  0  0  0
 17 36  1  0  0  0  0
M  END
> <s_m_source_file>
AV-unprocessed.smi

> <i_m_source_file_index>
1360

> <i_lp_mmshare_version>
43012

> <i_f3d_flags>
0

> <s_epik_input>
bjFbY0hdW2NIXVtjSF1uMVtDSDJdW0NAQEhdKFtDSDNdKVtOSF1DKD1PKVtDQEBIXTJbQ0gyXVtDSF09W0NIXVtDSDJdW0NIMl0y

> <s_epik_cmdline>
J2VwaWtfcHl0aG9uJywgJy1waCcsICc3LjAnLCAnLXRuJywgJzgnLCAnLW1hJywgJzIwMCcsICctbWV0YWxfYmluZGluZycsICctaW1hZScsICc8aW5maWxlLm1hZT4nLCAnLW9tYWUnLCAnPG91dGZpbGUubWFlPic=

> <r_lp_tautomer_probability>
1

> <r_epik_Ionization_Penalty>
0.000315076

> <r_epik_Ionization_Penalty_Charging>
0

> <r_epik_Ionization_Penalty_Neutral>
0.000315076

> <r_epik_State_Penalty>
-0

> <r_epik_Charging_Adjusted_Penalty>
0

> <i_epik_Tot_Q>
0

> <i_epik_Tot_abs_Q>
0

> <r_epik_Metal_State_Penalty>
-0

> <b_epik_Metal_Only>
0

> <s_lp_Force_Field>
OPLS_2005

> <r_lp_Energy>
7.97441

> <b_lp_Chiralities_Consistent>
1

> <s_lp_Variant>
AV-unprocessed.smi:1360-2

> <Gold.Version>
5.8.1

> <Gold.Id.Protein>
6NUR|6NUR_protein|mol2

> <Gold.PLP.Fitness>
46.2867

> <Gold.PLP.PLP>
-39.8054

> <Gold.PLP.part.hbond>
-2.0000

> <Gold.PLP.part.metal>
0.0000

> <Gold.PLP.part.buried>
-4.0460

> <Gold.PLP.part.nonpolar>
-34.3395

> <Gold.PLP.part.repulsive>
0.1015

> <Gold.PLP.ligand.clash>
0.0000

> <Gold.PLP.ligand.torsion>
0.4111

> <Gold.PLP.Chemscore.Hbond>
1.4500

> <Gold.PLP.Chemscore.CHOScore>
0.9715

> <Gold.PLP.Chemscore.Metal>
0.0000

> <Gold.Chemscore.Hbonds>
donor molecule, donor type, donor heavy atom, donor atom, acceptor molecule, acceptor atom, score
      L1  H     9    27       P1  8028  1.00
      P1  H  7989  7998       L1     8  0.35
      L1  C     5    24       P1  7948  0.97

> <Gold.PLP.Chemscore.Internal.Correction>
0.0389

> <Gold.Rescore>
     Score         DG    S(hbond)    S(metal)    S(lipo)     H(rot)  DE(clash)    DE(int)     intcor
     18.62     -19.78       1.76        0.00     104.92       1.51       0.48       0.68       ----

> <Gold.Chemscore.Fitness>
18.6218

> <Gold.Chemscore.DG>
-19.7800

> <Gold.Chemscore.ZeroCoef>
-5.4800

> <Gold.Chemscore.Hbond>
1.7601

> <Gold.Chemscore.Metal>
0.0000

> <Gold.Chemscore.Lipo>
104.9208

> <Gold.Chemscore.Internal_Hbond>
0.0000

> <Gold.Chemscore.DEClash>
0.4786

> <Gold.Chemscore.DEInternal>
0.6796

> <Gold.Chemscore.Rot>
1.5057

> <Gold.Chemscore.Internal.Correction>
   9.000000E+99

> <Gold.Chemscore.Hbonds>
donor molecule, donor type, donor heavy atom, donor atom, acceptor molecule, acceptor atom, score
      L1  H     9    27       P1  8028  0.99

> <Gold.Chemscore.Hbond.Weighted>
-5.8789

> <Gold.Chemscore.Metal.Weighted>
-0.0000

> <Gold.Chemscore.Lipo.Weighted>
-12.2757

> <Gold.Chemscore.Internal_Hbond.Weighted>
0.0000

> <Gold.Chemscore.DEClash.Weighted>
0.4786

> <Gold.Chemscore.DEInternal.Weighted>
0.6796

> <Gold.Chemscore.Rot.Weighted>
3.8546

> <Gold.Chemscore.Internal.Correction.Weighted>
   9.000000E+99

> <Gold.Protein.RotatedTorsions>
[ 6907 6896 6895 6894 ] final  -27.57 input  -60.11 | X-H torsion
[ 7974 7965 7964 7962 ] final  -21.39 input  175.53 | X-H torsion
[ 8008 7997 7996 7995 ] final   18.89 input   59.86 | X-H torsion
[ 10167 10162 10161 10158 ] final    6.66 input  -65.29 | X-H torsion
[ 10718 10713 10712 10709 ] final -133.31 input   66.30 | X-H torsion
[ 10763 10752 10751 10750 ] final  -26.99 input  -60.55 | X-H torsion
[ 11005 11000 10999 10996 ] final  -15.64 input  -57.11 | X-H torsion

> <Gold.Protein.ActiveResidues>
 VAL166  LYS551  ARG553  GLY616  TRP617  ASP618  TYR619  PRO620  LYS621  CYS622 
 ASP623  PHE694  ASN695  SER759  ASP760  ASP761  ALA762  ILE779  LEU786  VAL792 
 PHE793  MET794  SER795  GLU796  ALA797  LYS798  CYS799  TRP800  GLU811  SER814 

> <Gold.Protein.RotatedAtoms>
  151.1450  135.0199  159.8642 H   0  0  0  0  0  0  0  0  0  0  0  0  # atno 6907 bound_to 6896
  152.5453  134.1455  159.8507 H   0  0  0  0  0  0  0  0  0  0  0  0  # atno 6908 bound_to 6896
  151.1534  133.4847  159.2628 H   0  0  0  0  0  0  0  0  0  0  0  0  # atno 6909 bound_to 6896
  146.1735  140.4335  142.8523 H   0  0  0  0  0  0  0  0  0  0  0  0  # atno 7974 bound_to 7965
  154.9127  140.3016  155.5258 H   0  0  0  0  0  0  0  0  0  0  0  0  # atno 8008 bound_to 7997
  156.3014  140.2386  156.4103 H   0  0  0  0  0  0  0  0  0  0  0  0  # atno 8009 bound_to 7997
  154.8409  140.0414  157.1530 H   0  0  0  0  0  0  0  0  0  0  0  0  # atno 8010 bound_to 7997
  140.6415  143.7762  150.7435 H   0  0  0  0  0  0  0  0  0  0  0  0  # atno 10167 bound_to 10162
  156.2436  130.7111  151.0982 H   0  0  0  0  0  0  0  0  0  0  0  0  # atno 10718 bound_to 10713
  153.7248  135.6942  153.5004 H   0  0  0  0  0  0  0  0  0  0  0  0  # atno 10763 bound_to 10752
  153.2178  135.4380  155.0453 H   0  0  0  0  0  0  0  0  0  0  0  0  # atno 10764 bound_to 10752
  154.8272  135.3453  154.6780 H   0  0  0  0  0  0  0  0  0  0  0  0  # atno 10765 bound_to 10752
  140.7987  133.8231  155.9448 H   0  0  0  0  0  0  0  0  0  0  0  0  # atno 11005 bound_to 11000
  144.8200  140.6533  143.6359 LP  0  0  0  0  0  0  0  0  0  0  0  0  # atno 17320 bound_to 7965
  145.4275  139.1554  143.4040 LP  0  0  0  0  0  0  0  0  0  0  0  0  # atno 17321 bound_to 7965
  140.1395  143.4454  152.2203 LP  0  0  0  0  0  0  0  0  0  0  0  0  # atno 17342 bound_to 10162
  139.5625  144.7414  151.4116 LP  0  0  0  0  0  0  0  0  0  0  0  0  # atno 17343 bound_to 10162
  157.7186  131.0695  150.6229 LP  0  0  0  0  0  0  0  0  0  0  0  0  # atno 17370 bound_to 10713
  156.6304  130.4430  149.5789 LP  0  0  0  0  0  0  0  0  0  0  0  0  # atno 17371 bound_to 10713
  140.9317  134.2013  157.4859 LP  0  0  0  0  0  0  0  0  0  0  0  0  # atno 17394 bound_to 11000
  139.8724  134.9835  156.5202 LP  0  0  0  0  0  0  0  0  0  0  0  0  # atno 17395 bound_to 11000

$$$$
