AV-unprocessed.smi:651|AV-procd|sdf|3188|dock10
  -GOLD-   22720 0113D 1   1.00000     0.00000
 Structure written by MMmdl.
 39 40  0  0  0  0  0  0  0  0  2 V2000
  143.8105  132.3827  148.4914 C   0  0  0  0  0  0  0  0  0  0  0  0
  144.4109  132.9340  149.7672 C   0  0  0  0  0  0  0  0  0  0  0  0
  145.6846  132.5405  150.2306 C   0  0  0  0  0  0  0  0  0  0  0  0
  146.1872  133.1016  151.4226 C   0  0  0  0  0  0  0  0  0  0  0  0
  145.4088  134.0476  152.1263 C   0  0  0  0  0  0  0  0  0  0  0  0
  145.9315  134.6880  153.4004 C   0  0  0  0  0  0  0  0  0  0  0  0
  147.1852  133.9574  153.8825 C   0  0  0  0  0  0  0  0  0  0  0  0
  147.0826  132.9963  154.6438 O   0  0  0  0  0  0  0  0  0  0  0  0
  148.3604  134.4340  153.4435 N   0  0  0  0  0  0  0  0  0  0  0  0
  149.6740  133.9223  153.8246 C   0  0  2  0  0  0  0  0  0  0  0  0
  149.7638  132.3917  153.6861 C   0  0  0  0  0  0  0  0  0  0  0  0
  150.6387  131.9355  154.8492 C   0  0  0  0  0  0  0  0  0  0  0  0
  150.2684  132.8876  155.9830 C   0  0  0  0  0  0  0  0  0  0  0  0
  149.9789  134.2445  155.3123 C   0  0  1  0  0  0  0  0  0  0  0  0
  151.1505  135.2291  155.4643 C   0  0  0  0  0  0  0  0  0  0  0  0
  151.0200  136.4253  154.8849 N   0  0  0  0  0  0  0  0  0  0  0  0
  152.1571  134.9174  156.0982 O   0  0  0  0  0  0  0  0  0  0  0  0
  144.1397  134.3991  151.6168 C   0  0  0  0  0  0  0  0  0  0  0  0
  143.6939  133.8385  150.4714 N   0  3  0  0  0  0  0  0  0  0  0  0
  144.3226  131.4713  148.1813 H   0  0  0  0  0  0  0  0  0  0  0  0
  143.8971  133.1138  147.6871 H   0  0  0  0  0  0  0  0  0  0  0  0
  142.7553  132.1473  148.6318 H   0  0  0  0  0  0  0  0  0  0  0  0
  146.2727  131.8210  149.6795 H   0  0  0  0  0  0  0  0  0  0  0  0
  147.1629  132.8134  151.7859 H   0  0  0  0  0  0  0  0  0  0  0  0
  146.1612  135.7383  153.2148 H   0  0  0  0  0  0  0  0  0  0  0  0
  145.1684  134.6638  154.1797 H   0  0  0  0  0  0  0  0  0  0  0  0
  148.3468  135.2236  152.8149 H   0  0  0  0  0  0  0  0  0  0  0  0
  150.4253  134.3742  153.1729 H   0  0  0  0  0  0  0  0  0  0  0  0
  148.7753  131.9413  153.7896 H   0  0  0  0  0  0  0  0  0  0  0  0
  150.1641  132.0838  152.7195 H   0  0  0  0  0  0  0  0  0  0  0  0
  150.4796  130.8887  155.1097 H   0  0  0  0  0  0  0  0  0  0  0  0
  151.6910  132.0599  154.5902 H   0  0  0  0  0  0  0  0  0  0  0  0
  149.3645  132.5295  156.4771 H   0  0  0  0  0  0  0  0  0  0  0  0
  151.0492  132.9337  156.7437 H   0  0  0  0  0  0  0  0  0  0  0  0
  149.1042  134.6807  155.7994 H   0  0  0  0  0  0  0  0  0  0  0  0
  151.7630  137.1053  154.9531 H   0  0  0  0  0  0  0  0  0  0  0  0
  150.1758  136.6438  154.3756 H   0  0  0  0  0  0  0  0  0  0  0  0
  143.4769  135.1141  152.0827 H   0  0  0  0  0  0  0  0  0  0  0  0
  142.7758  134.1126  150.1204 H   0  0  0  0  0  0  0  0  0  0  0  0
  1  2  1  0  0  0  0
  1 20  1  0  0  0  0
  1 21  1  0  0  0  0
  1 22  1  0  0  0  0
  2 19  1  0  0  0  0
  2  3  2  0  0  0  0
  3  4  1  0  0  0  0
  3 23  1  0  0  0  0
  4  5  2  0  0  0  0
  4 24  1  0  0  0  0
  5  6  1  0  0  0  0
  5 18  1  0  0  0  0
  6  7  1  0  0  0  0
  6 25  1  0  0  0  0
  6 26  1  0  0  0  0
  7  8  2  0  0  0  0
  7  9  1  0  0  0  0
  9 10  1  0  0  0  0
  9 27  1  0  0  0  0
 10 14  1  0  0  0  0
 10 11  1  0  0  0  0
 10 28  1  0  0  0  0
 11 12  1  0  0  0  0
 11 29  1  0  0  0  0
 11 30  1  0  0  0  0
 12 13  1  0  0  0  0
 12 31  1  0  0  0  0
 12 32  1  0  0  0  0
 13 14  1  0  0  0  0
 13 33  1  0  0  0  0
 13 34  1  0  0  0  0
 14 15  1  0  0  0  0
 14 35  1  0  0  0  0
 15 16  1  0  0  0  0
 15 17  2  0  0  0  0
 16 36  1  0  0  0  0
 16 37  1  0  0  0  0
 18 19  2  0  0  0  0
 18 38  1  0  0  0  0
 19 39  1  0  0  0  0
M  CHG  1  19   1
M  END
> <s_m_source_file>
AV-unprocessed.smi

> <i_m_source_file_index>
651

> <i_lp_mmshare_version>
43012

> <i_f3d_flags>
0

> <s_epik_input>
W0NIM11jMVtjSF1bY0hdYyhbY0hdbjEpW0NIMl1DKD1PKVtOSF1bQ0BASF0yW0NIMl1bQ0gyXVtDSDJdW0NASF0yQyg9TylbTkgyXQ==

> <s_epik_cmdline>
J2VwaWtfcHl0aG9uJywgJy1waCcsICc3LjAnLCAnLXRuJywgJzgnLCAnLW1hJywgJzIwMCcsICctbWV0YWxfYmluZGluZycsICctaW1hZScsICc8aW5maWxlLm1hZT4nLCAnLW9tYWUnLCAnPG91dGZpbGUubWFlPic=

> <r_epik_Ionization_Penalty>
2.14971

> <r_epik_Ionization_Penalty_Charging>
2.14971

> <r_epik_Ionization_Penalty_Neutral>
1.65229e-07

> <r_epik_State_Penalty>
2.28946

> <r_epik_Charging_Adjusted_Penalty>
4.43917

> <i_epik_Tot_Q>
1

> <i_epik_Tot_abs_Q>
1

> <r_epik_Metal_State_Penalty>
2.30508

> <b_epik_Metal_Only>
0

> <s_lp_Force_Field>
OPLS_2005

> <r_lp_Energy>
20.422

> <b_lp_Chiralities_Consistent>
1

> <s_lp_Variant>
AV-unprocessed.smi:651-5

> <Gold.Version>
5.8.1

> <Gold.Id.Protein>
6NUR|6NUR_protein|mol2

> <Gold.PLP.Fitness>
41.8381

> <Gold.PLP.PLP>
-31.5488

> <Gold.PLP.part.hbond>
-3.0000

> <Gold.PLP.part.metal>
0.0000

> <Gold.PLP.part.buried>
-2.0794

> <Gold.PLP.part.nonpolar>
-25.3202

> <Gold.PLP.part.repulsive>
0.1527

> <Gold.PLP.ligand.clash>
0.0000

> <Gold.PLP.ligand.torsion>
0.5821

> <Gold.PLP.Chemscore.Hbond>
3.8160

> <Gold.PLP.Chemscore.CHOScore>
0.0000

> <Gold.PLP.Chemscore.Metal>
0.0000

> <Gold.Chemscore.Hbonds>
donor molecule, donor type, donor heavy atom, donor atom, acceptor molecule, acceptor atom, score
      L1  H     9    27       P1  7948  0.89
      L1  H    19    39       P1 10186  2.00
      P1  H 10752 10763       L1    17  0.84

> <Gold.PLP.Chemscore.Internal.Correction>
0.0054

> <Gold.Rescore>
     Score         DG    S(hbond)    S(metal)    S(lipo)     H(rot)  DE(clash)    DE(int)     intcor
     15.91     -18.06       2.57        0.00      78.90       2.04       0.40       1.75       ----

> <Gold.Chemscore.Fitness>
15.9117

> <Gold.Chemscore.DG>
-18.0628

> <Gold.Chemscore.ZeroCoef>
-5.4800

> <Gold.Chemscore.Hbond>
2.5660

> <Gold.Chemscore.Metal>
0.0000

> <Gold.Chemscore.Lipo>
78.8989

> <Gold.Chemscore.Internal_Hbond>
0.0000

> <Gold.Chemscore.DEClash>
0.3984

> <Gold.Chemscore.DEInternal>
1.7526

> <Gold.Chemscore.Rot>
2.0386

> <Gold.Chemscore.Internal.Correction>
   9.000000E+99

> <Gold.Chemscore.Hbonds>
donor molecule, donor type, donor heavy atom, donor atom, acceptor molecule, acceptor atom, score
      L1  H     9    27       P1  7948  0.76
      L1  H    19    39       P1 10186  0.97
      P1  H 10752 10763       L1    17  0.36

> <Gold.Chemscore.Hbond.Weighted>
-8.5704

> <Gold.Chemscore.Metal.Weighted>
-0.0000

> <Gold.Chemscore.Lipo.Weighted>
-9.2312

> <Gold.Chemscore.Internal_Hbond.Weighted>
0.0000

> <Gold.Chemscore.DEClash.Weighted>
0.3984

> <Gold.Chemscore.DEInternal.Weighted>
1.7526

> <Gold.Chemscore.Rot.Weighted>
5.2188

> <Gold.Chemscore.Internal.Correction.Weighted>
   9.000000E+99

> <Gold.Protein.RotatedTorsions>
[ 6907 6896 6895 6894 ] final  -23.47 input  -60.11 | X-H torsion
[ 7974 7965 7964 7962 ] final -152.47 input  175.53 | X-H torsion
[ 8008 7997 7996 7995 ] final -129.18 input   59.86 | X-H torsion
[ 10167 10162 10161 10158 ] final    9.82 input  -65.29 | X-H torsion
[ 10718 10713 10712 10709 ] final -128.17 input   66.30 | X-H torsion
[ 10763 10752 10751 10750 ] final  104.14 input  -60.55 | X-H torsion
[ 11005 11000 10999 10996 ] final  -74.31 input  -57.11 | X-H torsion

> <Gold.Protein.ActiveResidues>
 VAL166  LYS551  ARG553  GLY616  TRP617  ASP618  TYR619  PRO620  LYS621  CYS622 
 ASP623  PHE694  ASN695  SER759  ASP760  ASP761  ALA762  ILE779  LEU786  VAL792 
 PHE793  MET794  SER795  GLU796  ALA797  LYS798  CYS799  TRP800  GLU811  SER814 

> <Gold.Protein.RotatedAtoms>
  151.2036  135.0452  159.8882 H   0  0  0  0  0  0  0  0  0  0  0  0  # atno 6907 bound_to 6896
  152.5430  134.0823  159.8251 H   0  0  0  0  0  0  0  0  0  0  0  0  # atno 6908 bound_to 6896
  151.0967  133.5227  159.2644 H   0  0  0  0  0  0  0  0  0  0  0  0  # atno 6909 bound_to 6896
  144.7792  140.4657  143.5851 H   0  0  0  0  0  0  0  0  0  0  0  0  # atno 7974 bound_to 7965
  155.2750  140.0441  157.3010 H   0  0  0  0  0  0  0  0  0  0  0  0  # atno 8008 bound_to 7997
  154.5630  140.2352  155.8274 H   0  0  0  0  0  0  0  0  0  0  0  0  # atno 8009 bound_to 7997
  156.2063  140.3011  155.9641 H   0  0  0  0  0  0  0  0  0  0  0  0  # atno 8010 bound_to 7997
  140.6232  143.8159  150.7200 H   0  0  0  0  0  0  0  0  0  0  0  0  # atno 10167 bound_to 10162
  156.1926  130.6805  151.0442 H   0  0  0  0  0  0  0  0  0  0  0  0  # atno 10718 bound_to 10713
  153.3619  135.3953  155.1725 H   0  0  0  0  0  0  0  0  0  0  0  0  # atno 10763 bound_to 10752
  154.8680  135.3681  154.5088 H   0  0  0  0  0  0  0  0  0  0  0  0  # atno 10764 bound_to 10752
  153.5548  135.7082  153.5635 H   0  0  0  0  0  0  0  0  0  0  0  0  # atno 10765 bound_to 10752
  141.1633  133.6907  156.7345 H   0  0  0  0  0  0  0  0  0  0  0  0  # atno 11005 bound_to 11000
  145.6098  139.1512  143.3082 LP  0  0  0  0  0  0  0  0  0  0  0  0  # atno 17320 bound_to 7965
  146.1991  140.6214  142.9111 LP  0  0  0  0  0  0  0  0  0  0  0  0  # atno 17321 bound_to 7965
  140.1754  143.4159  152.1971 LP  0  0  0  0  0  0  0  0  0  0  0  0  # atno 17342 bound_to 10162
  139.5456  144.7296  151.4593 LP  0  0  0  0  0  0  0  0  0  0  0  0  # atno 17343 bound_to 10162
  157.6938  131.0801  150.7030 LP  0  0  0  0  0  0  0  0  0  0  0  0  # atno 17370 bound_to 10713
  156.7086  130.4645  149.5553 LP  0  0  0  0  0  0  0  0  0  0  0  0  # atno 17371 bound_to 10713
  140.2720  134.8384  157.3856 LP  0  0  0  0  0  0  0  0  0  0  0  0  # atno 17394 bound_to 11000
  140.1512  134.4847  155.7960 LP  0  0  0  0  0  0  0  0  0  0  0  0  # atno 17395 bound_to 11000

$$$$
