AV-unprocessed.smi:594|AV-procd|sdf|3015|dock7
  -GOLD-   2262023523D 1   1.00000     0.00000
 Structure written by MMmdl.
 40 41  0  0  0  0  0  0  0  0  3 V2000
  148.7417  141.6454  155.1276 C   0  0  0  0  0  0  0  0  0  0  0  0
  149.5577  140.3844  155.4602 C   0  0  1  0  0  0  0  0  0  0  0  0
  150.8312  140.2890  154.5937 C   0  0  0  0  0  0  0  0  0  0  0  0
  151.6238  139.0056  154.8890 C   0  0  0  0  0  0  0  0  0  0  0  0
  151.9683  138.8921  156.3813 C   0  0  0  0  0  0  0  0  0  0  0  0
  150.7029  138.9799  157.2511 C   0  0  0  0  0  0  0  0  0  0  0  0
  149.8913  140.2636  156.9683 C   0  0  1  0  0  0  0  0  0  0  0  0
  150.6044  141.4481  157.4475 N   0  0  0  0  0  0  0  0  0  0  0  0
  150.2110  142.2451  158.4518 C   0  0  0  0  0  0  0  0  0  0  0  0
  149.1623  142.0802  159.0763 O   0  0  0  0  0  0  0  0  0  0  0  0
  151.1459  143.4151  158.7867 C   0  0  0  0  0  0  0  0  0  0  0  0
  151.9258  143.1942  160.0160 N   0  0  0  0  0  0  0  0  0  0  0  0
  152.8964  142.1733  159.9869 C   0  0  0  0  0  0  0  0  0  0  0  0
  153.6670  141.8873  161.0546 C   0  0  0  0  0  0  0  0  0  0  0  0
  154.6598  140.8363  161.0065 N   0  3  0  0  0  0  0  0  0  0  0  0
  154.6854  140.0953  160.0292 O   0  0  0  0  0  0  0  0  0  0  0  0
  155.4468  140.7172  161.9410 O   0  5  0  0  0  0  0  0  0  0  0  0
  153.4691  142.6715  162.2582 C   0  0  0  0  0  0  0  0  0  0  0  0
  152.5444  143.6511  162.2918 C   0  0  0  0  0  0  0  0  0  0  0  0
  151.7083  143.9618  161.1279 C   0  0  0  0  0  0  0  0  0  0  0  0
  150.8633  144.8572  161.1510 O   0  0  0  0  0  0  0  0  0  0  0  0
  149.3161  142.5561  155.2987 H   0  0  0  0  0  0  0  0  0  0  0  0
  147.8393  141.7004  155.7370 H   0  0  0  0  0  0  0  0  0  0  0  0
  148.4321  141.6448  154.0822 H   0  0  0  0  0  0  0  0  0  0  0  0
  148.9298  139.5299  155.2033 H   0  0  0  0  0  0  0  0  0  0  0  0
  150.5642  140.3145  153.5365 H   0  0  0  0  0  0  0  0  0  0  0  0
  151.4675  141.1576  154.7689 H   0  0  0  0  0  0  0  0  0  0  0  0
  151.0395  138.1370  154.5824 H   0  0  0  0  0  0  0  0  0  0  0  0
  152.5377  138.9882  154.2946 H   0  0  0  0  0  0  0  0  0  0  0  0
  152.4847  137.9511  156.5721 H   0  0  0  0  0  0  0  0  0  0  0  0
  152.6634  139.6855  156.6591 H   0  0  0  0  0  0  0  0  0  0  0  0
  150.0751  138.1102  157.0534 H   0  0  0  0  0  0  0  0  0  0  0  0
  150.9722  138.9206  158.3063 H   0  0  0  0  0  0  0  0  0  0  0  0
  148.9473  140.1964  157.5126 H   0  0  0  0  0  0  0  0  0  0  0  0
  151.4763  141.6658  156.9872 H   0  0  0  0  0  0  0  0  0  0  0  0
  151.8199  143.5987  157.9474 H   0  0  0  0  0  0  0  0  0  0  0  0
  150.5406  144.3189  158.8682 H   0  0  0  0  0  0  0  0  0  0  0  0
  152.9712  141.6519  159.0434 H   0  0  0  0  0  0  0  0  0  0  0  0
  154.0617  142.4797  163.1408 H   0  0  0  0  0  0  0  0  0  0  0  0
  152.4144  144.2234  163.1986 H   0  0  0  0  0  0  0  0  0  0  0  0
  1  2  1  0  0  0  0
  1 22  1  0  0  0  0
  1 23  1  0  0  0  0
  1 24  1  0  0  0  0
  2  7  1  0  0  0  0
  2  3  1  0  0  0  0
  2 25  1  0  0  0  0
  3  4  1  0  0  0  0
  3 26  1  0  0  0  0
  3 27  1  0  0  0  0
  4  5  1  0  0  0  0
  4 28  1  0  0  0  0
  4 29  1  0  0  0  0
  5  6  1  0  0  0  0
  5 30  1  0  0  0  0
  5 31  1  0  0  0  0
  6  7  1  0  0  0  0
  6 32  1  0  0  0  0
  6 33  1  0  0  0  0
  7  8  1  0  0  0  0
  7 34  1  0  0  0  0
  8  9  1  0  0  0  0
  8 35  1  0  0  0  0
  9 10  2  0  0  0  0
  9 11  1  0  0  0  0
 11 12  1  0  0  0  0
 11 36  1  0  0  0  0
 11 37  1  0  0  0  0
 12 20  1  0  0  0  0
 12 13  1  0  0  0  0
 13 14  2  0  0  0  0
 13 38  1  0  0  0  0
 14 15  1  0  0  0  0
 14 18  1  0  0  0  0
 15 16  2  0  0  0  0
 15 17  1  0  0  0  0
 18 19  2  0  0  0  0
 18 39  1  0  0  0  0
 19 20  1  0  0  0  0
 19 40  1  0  0  0  0
 20 21  2  0  0  0  0
M  CHG  1  15   1
M  CHG  1  17  -1
M  END
> <s_m_source_file>
AV-unprocessed.smi

> <i_m_source_file_index>
594

> <i_lp_mmshare_version>
43012

> <i_f3d_flags>
0

> <s_epik_input>
W0NIM11bQ0BASF0xW0NIMl1bQ0gyXVtDSDJdW0NIMl1bQ0BIXTFbTkhdQyg9TylbQ0gyXW4yW2NIXWMoW04rXSg9TylbTy1dKVtjSF1bY0hdYzI9Tw==

> <s_epik_cmdline>
J2VwaWtfcHl0aG9uJywgJy1waCcsICc3LjAnLCAnLXRuJywgJzgnLCAnLW1hJywgJzIwMCcsICctbWV0YWxfYmluZGluZycsICctaW1hZScsICc8aW5maWxlLm1hZT4nLCAnLW9tYWUnLCAnPG91dGZpbGUubWFlPic=

> <r_lp_tautomer_probability>
1

> <r_epik_Ionization_Penalty>
1.91305e-08

> <r_epik_Ionization_Penalty_Charging>
8.35811e-11

> <r_epik_Ionization_Penalty_Neutral>
1.90469e-08

> <r_epik_State_Penalty>
-0

> <r_epik_Charging_Adjusted_Penalty>
8.35811e-11

> <i_epik_Tot_Q>
0

> <i_epik_Tot_abs_Q>
2

> <r_epik_Metal_State_Penalty>
-0

> <b_epik_Metal_Only>
0

> <s_lp_Force_Field>
OPLS_2005

> <r_lp_Energy>
20.421

> <b_lp_Chiralities_Consistent>
1

> <s_lp_Variant>
AV-unprocessed.smi:594-2

> <Gold.Version>
5.8.1

> <Gold.Id.Protein>
6NUR|6NUR_protein|mol2

> <Gold.PLP.Fitness>
42.8919

> <Gold.PLP.PLP>
-43.4990

> <Gold.PLP.part.hbond>
-1.0661

> <Gold.PLP.part.metal>
0.0000

> <Gold.PLP.part.buried>
-4.3076

> <Gold.PLP.part.nonpolar>
-37.1982

> <Gold.PLP.part.repulsive>
0.3853

> <Gold.PLP.ligand.clash>
0.0000

> <Gold.PLP.ligand.torsion>
0.3103

> <Gold.PLP.Chemscore.Hbond>
0.0000

> <Gold.PLP.Chemscore.CHOScore>
0.0000

> <Gold.PLP.Chemscore.Metal>
0.0000

> <Gold.PLP.Chemscore.Internal.Correction>
0.0135

> <Gold.Rescore>
     Score         DG    S(hbond)    S(metal)    S(lipo)     H(rot)  DE(clash)    DE(int)     intcor
     11.90     -12.18       0.00        0.00      91.17       1.55       0.03       0.26       ----

> <Gold.Chemscore.Fitness>
11.8962

> <Gold.Chemscore.DG>
-12.1780

> <Gold.Chemscore.ZeroCoef>
-5.4800

> <Gold.Chemscore.Hbond>
0.0000

> <Gold.Chemscore.Metal>
0.0000

> <Gold.Chemscore.Lipo>
91.1723

> <Gold.Chemscore.Internal_Hbond>
0.0000

> <Gold.Chemscore.DEClash>
0.0251

> <Gold.Chemscore.DEInternal>
0.2567

> <Gold.Chemscore.Rot>
1.5505

> <Gold.Chemscore.Internal.Correction>
   9.000000E+99

> <Gold.Chemscore.Hbond.Weighted>
-0.0000

> <Gold.Chemscore.Metal.Weighted>
-0.0000

> <Gold.Chemscore.Lipo.Weighted>
-10.6672

> <Gold.Chemscore.Internal_Hbond.Weighted>
0.0000

> <Gold.Chemscore.DEClash.Weighted>
0.0251

> <Gold.Chemscore.DEInternal.Weighted>
0.2567

> <Gold.Chemscore.Rot.Weighted>
3.9692

> <Gold.Chemscore.Internal.Correction.Weighted>
   9.000000E+99

> <Gold.Protein.RotatedTorsions>
[ 6907 6896 6895 6894 ] final  -79.75 input  -60.11 | X-H torsion
[ 7974 7965 7964 7962 ] final -123.05 input  175.53 | X-H torsion
[ 8008 7997 7996 7995 ] final -109.27 input   59.86 | X-H torsion
[ 10167 10162 10161 10158 ] final   62.08 input  -65.29 | X-H torsion
[ 10718 10713 10712 10709 ] final  135.16 input   66.30 | X-H torsion
[ 10763 10752 10751 10750 ] final   17.83 input  -60.55 | X-H torsion
[ 11005 11000 10999 10996 ] final  116.96 input  -57.11 | X-H torsion

> <Gold.Protein.ActiveResidues>
 VAL166  LYS551  ARG553  GLY616  TRP617  ASP618  TYR619  PRO620  LYS621  CYS622 
 ASP623  PHE694  ASN695  SER759  ASP760  ASP761  ALA762  ILE779  LEU786  VAL792 
 PHE793  MET794  SER795  GLU796  ALA797  LYS798  CYS799  TRP800  GLU811  SER814 

> <Gold.Protein.RotatedAtoms>
  150.6943  134.4073  159.5145 H   0  0  0  0  0  0  0  0  0  0  0  0  # atno 6907 bound_to 6896
  152.1837  134.8729  160.0533 H   0  0  0  0  0  0  0  0  0  0  0  0  # atno 6908 bound_to 6896
  151.9710  133.3691  159.4108 H   0  0  0  0  0  0  0  0  0  0  0  0  # atno 6909 bound_to 6896
  145.0229  140.8003  143.4370 H   0  0  0  0  0  0  0  0  0  0  0  0  # atno 7974 bound_to 7965
  154.9568  140.0400  157.2171 H   0  0  0  0  0  0  0  0  0  0  0  0  # atno 8008 bound_to 7997
  154.7926  140.2838  155.5958 H   0  0  0  0  0  0  0  0  0  0  0  0  # atno 8009 bound_to 7997
  156.2951  140.2570  156.2777 H   0  0  0  0  0  0  0  0  0  0  0  0  # atno 8010 bound_to 7997
  140.1478  144.4492  150.6776 H   0  0  0  0  0  0  0  0  0  0  0  0  # atno 10167 bound_to 10162
  157.4599  131.1072  150.9933 H   0  0  0  0  0  0  0  0  0  0  0  0  # atno 10718 bound_to 10713
  153.1304  135.6739  153.9188 H   0  0  0  0  0  0  0  0  0  0  0  0  # atno 10763 bound_to 10752
  153.8676  135.3073  155.3442 H   0  0  0  0  0  0  0  0  0  0  0  0  # atno 10764 bound_to 10752
  154.7702  135.4943  153.9715 H   0  0  0  0  0  0  0  0  0  0  0  0  # atno 10765 bound_to 10752
  139.9058  134.9604  156.7278 H   0  0  0  0  0  0  0  0  0  0  0  0  # atno 11005 bound_to 11000
  145.1872  139.2320  143.5261 LP  0  0  0  0  0  0  0  0  0  0  0  0  # atno 17320 bound_to 7965
  146.3488  140.1659  142.8590 LP  0  0  0  0  0  0  0  0  0  0  0  0  # atno 17321 bound_to 7965
  140.6721  143.2290  151.5598 LP  0  0  0  0  0  0  0  0  0  0  0  0  # atno 17342 bound_to 10162
  139.5441  144.2569  152.1407 LP  0  0  0  0  0  0  0  0  0  0  0  0  # atno 17343 bound_to 10162
  157.0734  130.5873  149.5406 LP  0  0  0  0  0  0  0  0  0  0  0  0  # atno 17370 bound_to 10713
  156.0024  130.5105  150.7710 LP  0  0  0  0  0  0  0  0  0  0  0  0  # atno 17371 bound_to 10713
  140.6949  133.9357  155.7989 LP  0  0  0  0  0  0  0  0  0  0  0  0  # atno 17394 bound_to 11000
  141.0414  134.0616  157.3897 LP  0  0  0  0  0  0  0  0  0  0  0  0  # atno 17395 bound_to 11000

$$$$
