AV-unprocessed.smi:956|AV-procd|sdf|4263|dock1
  -GOLD-   22720 2173D 1   1.00000     0.00000
 Structure written by MMmdl.
 42 43  0  0  0  0  0  0  0  0  1 V2000
  151.6814  137.7517  158.9708 C   0  0  0  0  0  0  0  0  0  0  0  0
  149.9209  137.5008  158.4416 S   0  0  2  0  0  0  0  0  0  0  0  0
  149.3581  136.3517  159.2801 O   0  0  0  0  0  0  0  0  0  0  0  0
  150.3325  136.7309  156.8355 C   0  0  0  0  0  0  0  0  0  0  0  0
  150.9905  135.5743  156.7114 N   0  0  0  0  0  0  0  0  0  0  0  0
  151.0985  135.3696  155.3491 N   0  0  0  0  0  0  0  0  0  0  0  0
  150.4885  136.4212  154.7992 C   0  0  0  0  0  0  0  0  0  0  0  0
  149.9889  137.3125  155.6707 N   0  0  0  0  0  0  0  0  0  0  0  0
  149.3013  138.5637  155.3943 C   0  0  0  0  0  0  0  0  0  0  0  0
  150.3042  139.7151  155.3647 C   0  0  0  0  0  0  0  0  0  0  0  0
  151.2564  139.6780  154.5865 O   0  0  0  0  0  0  0  0  0  0  0  0
  150.1052  140.6989  156.2561 N   0  0  0  0  0  0  0  0  0  0  0  0
  151.0718  141.7375  156.5968 C   0  0  0  0  0  0  0  0  0  0  0  0
  150.5580  142.6186  157.7535 C   0  0  0  0  0  0  0  0  0  0  0  0
  151.6064  142.9796  158.8318 C   0  0  0  0  0  0  0  0  0  0  0  0
  152.0176  141.7384  159.6483 C   0  0  0  0  0  0  0  0  0  0  0  0
  153.1050  142.0813  160.6790 C   0  0  0  0  0  0  0  0  0  0  0  0
  152.6439  143.2074  161.6165 C   0  0  0  0  0  0  0  0  0  0  0  0
  152.2073  144.4476  160.8218 C   0  0  0  0  0  0  0  0  0  0  0  0
  151.1292  144.0970  159.7832 C   0  0  0  0  0  0  0  0  0  0  0  0
  152.3616  137.7146  158.1218 H   0  0  0  0  0  0  0  0  0  0  0  0
  151.9750  136.9781  159.6801 H   0  0  0  0  0  0  0  0  0  0  0  0
  151.7910  138.7226  159.4531 H   0  0  0  0  0  0  0  0  0  0  0  0
  150.4157  136.5516  153.7293 H   0  0  0  0  0  0  0  0  0  0  0  0
  148.7970  138.4810  154.4307 H   0  0  0  0  0  0  0  0  0  0  0  0
  148.5323  138.7453  156.1450 H   0  0  0  0  0  0  0  0  0  0  0  0
  149.2774  140.6498  156.8319 H   0  0  0  0  0  0  0  0  0  0  0  0
  152.0460  141.3162  156.8476 H   0  0  0  0  0  0  0  0  0  0  0  0
  151.2321  142.3549  155.7127 H   0  0  0  0  0  0  0  0  0  0  0  0
  150.1286  143.5328  157.3423 H   0  0  0  0  0  0  0  0  0  0  0  0
  149.7303  142.0946  158.2331 H   0  0  0  0  0  0  0  0  0  0  0  0
  152.5069  143.3331  158.3305 H   0  0  0  0  0  0  0  0  0  0  0  0
  151.1462  141.3266  160.1593 H   0  0  0  0  0  0  0  0  0  0  0  0
  152.3839  140.9547  158.9846 H   0  0  0  0  0  0  0  0  0  0  0  0
  153.3596  141.1946  161.2603 H   0  0  0  0  0  0  0  0  0  0  0  0
  154.0165  142.3846  160.1617 H   0  0  0  0  0  0  0  0  0  0  0  0
  151.8123  142.8549  162.2279 H   0  0  0  0  0  0  0  0  0  0  0  0
  153.4466  143.4701  162.3060 H   0  0  0  0  0  0  0  0  0  0  0  0
  151.8323  145.2121  161.5029 H   0  0  0  0  0  0  0  0  0  0  0  0
  153.0719  144.8811  160.3173 H   0  0  0  0  0  0  0  0  0  0  0  0
  150.8753  144.9956  159.2222 H   0  0  0  0  0  0  0  0  0  0  0  0
  150.2170  143.7841  160.2928 H   0  0  0  0  0  0  0  0  0  0  0  0
  1  2  1  0  0  0  0
  1 21  1  0  0  0  0
  1 22  1  0  0  0  0
  1 23  1  0  0  0  0
  2  3  2  0  0  0  0
  2  4  1  0  0  0  0
  4  8  1  0  0  0  0
  4  5  2  0  0  0  0
  5  6  1  0  0  0  0
  6  7  2  0  0  0  0
  7  8  1  0  0  0  0
  7 24  1  0  0  0  0
  8  9  1  0  0  0  0
  9 10  1  0  0  0  0
  9 25  1  0  0  0  0
  9 26  1  0  0  0  0
 10 11  2  0  0  0  0
 10 12  1  0  0  0  0
 12 13  1  0  0  0  0
 12 27  1  0  0  0  0
 13 14  1  0  0  0  0
 13 28  1  0  0  0  0
 13 29  1  0  0  0  0
 14 15  1  0  0  0  0
 14 30  1  0  0  0  0
 14 31  1  0  0  0  0
 15 20  1  0  0  0  0
 15 16  1  0  0  0  0
 15 32  1  0  0  0  0
 16 17  1  0  0  0  0
 16 33  1  0  0  0  0
 16 34  1  0  0  0  0
 17 18  1  0  0  0  0
 17 35  1  0  0  0  0
 17 36  1  0  0  0  0
 18 19  1  0  0  0  0
 18 37  1  0  0  0  0
 18 38  1  0  0  0  0
 19 20  1  0  0  0  0
 19 39  1  0  0  0  0
 19 40  1  0  0  0  0
 20 41  1  0  0  0  0
 20 42  1  0  0  0  0
M  END
> <s_m_source_file>
AV-unprocessed.smi

> <i_m_source_file_index>
956

> <i_lp_mmshare_version>
43012

> <i_f3d_flags>
0

> <s_epik_input>
W0NIM11bU0BdKD1PKWMxbm5bY0hdbjFbQ0gyXUMoPU8pW05IXVtDSDJdW0NIMl1bQ0hdMltDSDJdW0NIMl1bQ0gyXVtDSDJdW0NIMl0y

> <s_epik_cmdline>
J2VwaWtfcHl0aG9uJywgJy1waCcsICc3LjAnLCAnLXRuJywgJzgnLCAnLW1hJywgJzIwMCcsICctbWV0YWxfYmluZGluZycsICctaW1hZScsICc8aW5maWxlLm1hZT4nLCAnLW9tYWUnLCAnPG91dGZpbGUubWFlPic=

> <r_lp_tautomer_probability>
1

> <r_epik_Ionization_Penalty>
7.32521e-08

> <r_epik_Ionization_Penalty_Charging>
0

> <r_epik_Ionization_Penalty_Neutral>
7.32521e-08

> <r_epik_State_Penalty>
-0

> <r_epik_Charging_Adjusted_Penalty>
0

> <i_epik_Tot_Q>
0

> <i_epik_Tot_abs_Q>
0

> <r_epik_Metal_State_Penalty>
-0

> <b_epik_Metal_Only>
0

> <s_lp_Force_Field>
OPLS_2005

> <r_lp_Energy>
8.17766

> <b_lp_Chiralities_Consistent>
1

> <s_lp_Variant>
AV-unprocessed.smi:956-1

> <Gold.Version>
5.8.1

> <Gold.Id.Protein>
6NUR|6NUR_protein|mol2

> <Gold.PLP.Fitness>
46.0510

> <Gold.PLP.PLP>
-36.4605

> <Gold.PLP.part.hbond>
-3.0000

> <Gold.PLP.part.metal>
0.0000

> <Gold.PLP.part.buried>
-6.4944

> <Gold.PLP.part.nonpolar>
-27.5937

> <Gold.PLP.part.repulsive>
0.1973

> <Gold.PLP.ligand.clash>
0.0000

> <Gold.PLP.ligand.torsion>
1.7266

> <Gold.PLP.Chemscore.Hbond>
2.9913

> <Gold.PLP.Chemscore.CHOScore>
0.9374

> <Gold.PLP.Chemscore.Metal>
0.0000

> <Gold.Chemscore.Hbonds>
donor molecule, donor type, donor heavy atom, donor atom, acceptor molecule, acceptor atom, score
      P1  H  6896  6909       L1     3  0.73
      P1  H  7989  7998       L1    11  1.00
      P1  H 10752 10763       L1     6  1.00
      L1  C     7    24       P1  7948  0.52
      L1  C     7    24       P1  7949  0.34

> <Gold.PLP.Chemscore.Internal.Correction>
1.2579

> <Gold.Rescore>
     Score         DG    S(hbond)    S(metal)    S(lipo)     H(rot)  DE(clash)    DE(int)     intcor
     17.62     -19.44       2.88        0.00      86.52       2.26       0.03       1.79       ----

> <Gold.Chemscore.Fitness>
17.6243

> <Gold.Chemscore.DG>
-19.4402

> <Gold.Chemscore.ZeroCoef>
-5.4800

> <Gold.Chemscore.Hbond>
2.8777

> <Gold.Chemscore.Metal>
0.0000

> <Gold.Chemscore.Lipo>
86.5172

> <Gold.Chemscore.Internal_Hbond>
0.0000

> <Gold.Chemscore.DEClash>
0.0289

> <Gold.Chemscore.DEInternal>
1.7870

> <Gold.Chemscore.Rot>
2.2554

> <Gold.Chemscore.Internal.Correction>
   9.000000E+99

> <Gold.Chemscore.Hbonds>
donor molecule, donor type, donor heavy atom, donor atom, acceptor molecule, acceptor atom, score
      P1  H  6896  6909       L1     3  0.62
      P1  H  7989  7998       L1    11  0.99
      P1  H 10752 10763       L1     6  0.38

> <Gold.Chemscore.Hbond.Weighted>
-9.6116

> <Gold.Chemscore.Metal.Weighted>
-0.0000

> <Gold.Chemscore.Lipo.Weighted>
-10.1225

> <Gold.Chemscore.Internal_Hbond.Weighted>
0.0000

> <Gold.Chemscore.DEClash.Weighted>
0.0289

> <Gold.Chemscore.DEInternal.Weighted>
1.7870

> <Gold.Chemscore.Rot.Weighted>
5.7738

> <Gold.Chemscore.Internal.Correction.Weighted>
   9.000000E+99

> <Gold.Protein.RotatedTorsions>
[ 6907 6896 6895 6894 ] final   65.99 input  -60.11 | X-H torsion
[ 7974 7965 7964 7962 ] final  -72.91 input  175.53 | X-H torsion
[ 8008 7997 7996 7995 ] final  114.02 input   59.86 | X-H torsion
[ 10167 10162 10161 10158 ] final  -24.60 input  -65.29 | X-H torsion
[ 10718 10713 10712 10709 ] final  -41.20 input   66.30 | X-H torsion
[ 10763 10752 10751 10750 ] final   69.84 input  -60.55 | X-H torsion
[ 11005 11000 10999 10996 ] final -103.96 input  -57.11 | X-H torsion

> <Gold.Protein.ActiveResidues>
 VAL166  LYS551  ARG553  GLY616  TRP617  ASP618  TYR619  PRO620  LYS621  CYS622 
 ASP623  PHE694  ASN695  SER759  ASP760  ASP761  ALA762  ILE779  LEU786  VAL792 
 PHE793  MET794  SER795  GLU796  ALA797  LYS798  CYS799  TRP800  GLU811  SER814 

> <Gold.Protein.RotatedAtoms>
  152.4448  134.5517  159.9868 H   0  0  0  0  0  0  0  0  0  0  0  0  # atno 6907 bound_to 6896
  151.5605  133.3398  159.2978 H   0  0  0  0  0  0  0  0  0  0  0  0  # atno 6908 bound_to 6896
  150.8362  134.7669  159.6958 H   0  0  0  0  0  0  0  0  0  0  0  0  # atno 6909 bound_to 6896
  145.6590  140.9259  143.0944 H   0  0  0  0  0  0  0  0  0  0  0  0  # atno 7974 bound_to 7965
  156.2295  140.2968  156.0151 H   0  0  0  0  0  0  0  0  0  0  0  0  # atno 8008 bound_to 7997
  155.2265  140.0417  157.2973 H   0  0  0  0  0  0  0  0  0  0  0  0  # atno 8009 bound_to 7997
  154.5971  140.2417  155.7850 H   0  0  0  0  0  0  0  0  0  0  0  0  # atno 8010 bound_to 7997
  140.7288  143.4339  151.0760 H   0  0  0  0  0  0  0  0  0  0  0  0  # atno 10167 bound_to 10162
  156.2730  130.4208  149.8418 H   0  0  0  0  0  0  0  0  0  0  0  0  # atno 10718 bound_to 10713
  153.0309  135.5196  154.7349 H   0  0  0  0  0  0  0  0  0  0  0  0  # atno 10763 bound_to 10752
  154.6366  135.2907  155.0156 H   0  0  0  0  0  0  0  0  0  0  0  0  # atno 10764 bound_to 10752
  154.1089  135.6625  153.4934 H   0  0  0  0  0  0  0  0  0  0  0  0  # atno 10765 bound_to 10752
  141.1122  133.8683  157.1551 H   0  0  0  0  0  0  0  0  0  0  0  0  # atno 11005 bound_to 11000
  144.7096  139.8424  143.7419 LP  0  0  0  0  0  0  0  0  0  0  0  0  # atno 17320 bound_to 7965
  146.1141  139.4150  143.0269 LP  0  0  0  0  0  0  0  0  0  0  0  0  # atno 17321 bound_to 7965
  139.7999  143.8099  152.3161 LP  0  0  0  0  0  0  0  0  0  0  0  0  # atno 17342 bound_to 10162
  139.8112  144.7335  150.9695 LP  0  0  0  0  0  0  0  0  0  0  0  0  # atno 17343 bound_to 10162
  156.5893  130.8499  151.3404 LP  0  0  0  0  0  0  0  0  0  0  0  0  # atno 17370 bound_to 10713
  157.7290  130.9665  150.1767 LP  0  0  0  0  0  0  0  0  0  0  0  0  # atno 17371 bound_to 10713
  140.0023  135.0023  157.0217 LP  0  0  0  0  0  0  0  0  0  0  0  0  # atno 17394 bound_to 11000
  140.4743  134.1354  155.7207 LP  0  0  0  0  0  0  0  0  0  0  0  0  # atno 17395 bound_to 11000

$$$$
