AV-unprocessed.smi:1177|AV-procd|sdf|4954|dock4
  -GOLD-   22720 3543D 1   1.00000     0.00000
 Structure written by MMmdl.
 30 31  0  0  0  0  0  0  0  0  1 V2000
  150.2480  140.3338  155.6465 O   0  0  0  0  0  0  0  0  0  0  0  0
  149.9272  141.5224  155.6601 C   0  0  0  0  0  0  0  0  0  0  0  0
  150.4278  142.4247  156.5156 N   0  0  0  0  0  0  0  0  0  0  0  0
  151.4156  142.1383  157.5498 C   0  0  0  0  0  0  0  0  0  0  0  0
  151.3192  143.1328  158.7189 C   0  0  0  0  0  0  0  0  0  0  0  0
  152.1819  142.7198  159.8965 C   0  0  0  0  0  0  0  0  0  0  0  0
  153.2070  141.7626  159.7379 C   0  0  0  0  0  0  0  0  0  0  0  0
  153.9754  141.4097  160.8642 C   0  0  0  0  0  0  0  0  0  0  0  0
  153.6896  142.0225  162.0995 C   0  0  0  0  0  0  0  0  0  0  0  0
  152.6431  142.9647  162.1537 C   0  0  0  0  0  0  0  0  0  0  0  0
  151.9008  143.3105  161.0798 N   0  0  0  0  0  0  0  0  0  0  0  0
  149.0351  142.0723  154.8254 N   0  0  0  0  0  0  0  0  0  0  0  0
  148.3227  141.3777  153.8023 C   0  0  0  0  0  0  0  0  0  0  0  0
  146.8240  141.5759  153.7310 C   0  0  0  0  0  0  0  0  0  0  0  0
  147.3820  140.2710  154.2281 C   0  0  0  0  0  0  0  0  0  0  0  0
  150.1045  143.3784  156.4460 H   0  0  0  0  0  0  0  0  0  0  0  0
  151.2975  141.1135  157.9063 H   0  0  0  0  0  0  0  0  0  0  0  0
  152.4049  142.1969  157.0955 H   0  0  0  0  0  0  0  0  0  0  0  0
  151.6187  144.1279  158.3872 H   0  0  0  0  0  0  0  0  0  0  0  0
  150.2854  143.2216  159.0563 H   0  0  0  0  0  0  0  0  0  0  0  0
  153.4003  141.3075  158.7776 H   0  0  0  0  0  0  0  0  0  0  0  0
  154.7686  140.6811  160.7824 H   0  0  0  0  0  0  0  0  0  0  0  0
  154.2577  141.7762  162.9843 H   0  0  0  0  0  0  0  0  0  0  0  0
  152.3955  143.4533  163.0844 H   0  0  0  0  0  0  0  0  0  0  0  0
  148.8420  143.0586  154.9216 H   0  0  0  0  0  0  0  0  0  0  0  0
  148.8313  141.2317  152.8501 H   0  0  0  0  0  0  0  0  0  0  0  0
  146.3607  142.2342  154.4636 H   0  0  0  0  0  0  0  0  0  0  0  0
  146.3659  141.5828  152.7440 H   0  0  0  0  0  0  0  0  0  0  0  0
  147.2954  139.4062  153.5734 H   0  0  0  0  0  0  0  0  0  0  0  0
  147.2917  140.0598  155.2919 H   0  0  0  0  0  0  0  0  0  0  0  0
  1  2  2  0  0  0  0
  2  3  1  0  0  0  0
  2 12  1  0  0  0  0
  3  4  1  0  0  0  0
  3 16  1  0  0  0  0
  4  5  1  0  0  0  0
  4 17  1  0  0  0  0
  4 18  1  0  0  0  0
  5  6  1  0  0  0  0
  5 19  1  0  0  0  0
  5 20  1  0  0  0  0
  6 11  1  0  0  0  0
  6  7  2  0  0  0  0
  7  8  1  0  0  0  0
  7 21  1  0  0  0  0
  8  9  2  0  0  0  0
  8 22  1  0  0  0  0
  9 10  1  0  0  0  0
  9 23  1  0  0  0  0
 10 11  2  0  0  0  0
 10 24  1  0  0  0  0
 12 13  1  0  0  0  0
 12 25  1  0  0  0  0
 13 15  1  0  0  0  0
 13 14  1  0  0  0  0
 13 26  1  0  0  0  0
 14 15  1  0  0  0  0
 14 27  1  0  0  0  0
 14 28  1  0  0  0  0
 15 29  1  0  0  0  0
 15 30  1  0  0  0  0
M  END
> <s_m_source_file>
AV-unprocessed.smi

> <i_m_source_file_index>
1177

> <i_lp_mmshare_version>
43012

> <i_f3d_flags>
0

> <s_epik_input>
W0NIMl0xW0NIMl1bQ0hdMVtOSF1DKD1PKVtOSF1bQ0gyXVtDSDJdYzJbY0hdW2NIXVtjSF1bY0hdbjI=

> <s_epik_cmdline>
J2VwaWtfcHl0aG9uJywgJy1waCcsICc3LjAnLCAnLXRuJywgJzgnLCAnLW1hJywgJzIwMCcsICctbWV0YWxfYmluZGluZycsICctaW1hZScsICc8aW5maWxlLm1hZT4nLCAnLW9tYWUnLCAnPG91dGZpbGUubWFlPic=

> <r_epik_Ionization_Penalty>
0.0440342

> <r_epik_Ionization_Penalty_Charging>
0

> <r_epik_Ionization_Penalty_Neutral>
0.0440342

> <r_epik_State_Penalty>
0.0372351

> <r_epik_Charging_Adjusted_Penalty>
0.0372351

> <i_epik_Tot_Q>
0

> <i_epik_Tot_abs_Q>
0

> <r_epik_Metal_State_Penalty>
0.0346506

> <b_epik_Metal_Only>
0

> <s_lp_Force_Field>
OPLS_2005

> <r_lp_Energy>
12.265

> <b_lp_Chiralities_Consistent>
1

> <s_lp_Variant>
AV-unprocessed.smi:1177-1

> <Gold.Version>
5.8.1

> <Gold.Id.Protein>
6NUR|6NUR_protein|mol2

> <Gold.PLP.Fitness>
42.5605

> <Gold.PLP.PLP>
-37.4816

> <Gold.PLP.part.hbond>
-2.0314

> <Gold.PLP.part.metal>
0.0000

> <Gold.PLP.part.buried>
-4.8336

> <Gold.PLP.part.nonpolar>
-30.1704

> <Gold.PLP.part.repulsive>
0.4471

> <Gold.PLP.ligand.clash>
0.0000

> <Gold.PLP.ligand.torsion>
0.4830

> <Gold.PLP.Chemscore.Hbond>
2.0000

> <Gold.PLP.Chemscore.CHOScore>
0.0000

> <Gold.PLP.Chemscore.Metal>
0.0000

> <Gold.Chemscore.Hbonds>
donor molecule, donor type, donor heavy atom, donor atom, acceptor molecule, acceptor atom, score
      L1  H     3    16       P1  8028  1.00
      L1  H    12    25       P1  8028  1.00

> <Gold.PLP.Chemscore.Internal.Correction>
0.0450

> <Gold.Rescore>
     Score         DG    S(hbond)    S(metal)    S(lipo)     H(rot)  DE(clash)    DE(int)     intcor
     18.36     -18.89       1.95        0.00      94.19       1.61       0.03       0.50       ----

> <Gold.Chemscore.Fitness>
18.3624

> <Gold.Chemscore.DG>
-18.8932

> <Gold.Chemscore.ZeroCoef>
-5.4800

> <Gold.Chemscore.Hbond>
1.9540

> <Gold.Chemscore.Metal>
0.0000

> <Gold.Chemscore.Lipo>
94.1926

> <Gold.Chemscore.Internal_Hbond>
0.0000

> <Gold.Chemscore.DEClash>
0.0329

> <Gold.Chemscore.DEInternal>
0.4979

> <Gold.Chemscore.Rot>
1.6147

> <Gold.Chemscore.Internal.Correction>
   9.000000E+99

> <Gold.Chemscore.Hbonds>
donor molecule, donor type, donor heavy atom, donor atom, acceptor molecule, acceptor atom, score
      L1  H     3    16       P1  8028  0.94
      L1  H    12    25       P1  8028  0.99

> <Gold.Chemscore.Hbond.Weighted>
-6.5262

> <Gold.Chemscore.Metal.Weighted>
-0.0000

> <Gold.Chemscore.Lipo.Weighted>
-11.0205

> <Gold.Chemscore.Internal_Hbond.Weighted>
0.0000

> <Gold.Chemscore.DEClash.Weighted>
0.0329

> <Gold.Chemscore.DEInternal.Weighted>
0.4979

> <Gold.Chemscore.Rot.Weighted>
4.1336

> <Gold.Chemscore.Internal.Correction.Weighted>
   9.000000E+99

> <Gold.Protein.RotatedTorsions>
[ 6907 6896 6895 6894 ] final  175.87 input  -60.11 | X-H torsion
[ 7974 7965 7964 7962 ] final  -85.78 input  175.53 | X-H torsion
[ 8008 7997 7996 7995 ] final  113.07 input   59.86 | X-H torsion
[ 10167 10162 10161 10158 ] final  -80.32 input  -65.29 | X-H torsion
[ 10718 10713 10712 10709 ] final  -87.30 input   66.30 | X-H torsion
[ 10763 10752 10751 10750 ] final  -71.56 input  -60.55 | X-H torsion
[ 11005 11000 10999 10996 ] final  -87.73 input  -57.11 | X-H torsion

> <Gold.Protein.ActiveResidues>
 VAL166  LYS551  ARG553  GLY616  TRP617  ASP618  TYR619  PRO620  LYS621  CYS622 
 ASP623  PHE694  ASN695  SER759  ASP760  ASP761  ALA762  ILE779  LEU786  VAL792 
 PHE793  MET794  SER795  GLU796  ALA797  LYS798  CYS799  TRP800  GLU811  SER814 

> <Gold.Protein.RotatedAtoms>
  151.7293  133.3317  159.3335 H   0  0  0  0  0  0  0  0  0  0  0  0  # atno 6907 bound_to 6896
  150.7619  134.6378  159.6230 H   0  0  0  0  0  0  0  0  0  0  0  0  # atno 6908 bound_to 6896
  152.3602  134.6885  160.0261 H   0  0  0  0  0  0  0  0  0  0  0  0  # atno 6909 bound_to 6896
  145.4886  140.9554  143.1824 H   0  0  0  0  0  0  0  0  0  0  0  0  # atno 7974 bound_to 7965
  156.2234  140.2987  156.0007 H   0  0  0  0  0  0  0  0  0  0  0  0  # atno 8008 bound_to 7997
  155.2422  140.0423  157.2993 H   0  0  0  0  0  0  0  0  0  0  0  0  # atno 8009 bound_to 7997
  154.5876  140.2392  155.7973 H   0  0  0  0  0  0  0  0  0  0  0  0  # atno 8010 bound_to 7997
  140.4514  143.2482  151.8484 H   0  0  0  0  0  0  0  0  0  0  0  0  # atno 10167 bound_to 10162
  155.9986  130.4795  150.4846 H   0  0  0  0  0  0  0  0  0  0  0  0  # atno 10718 bound_to 10713
  154.4334  135.5958  153.6083 H   0  0  0  0  0  0  0  0  0  0  0  0  # atno 10763 bound_to 10752
  152.9800  135.5980  154.3811 H   0  0  0  0  0  0  0  0  0  0  0  0  # atno 10764 bound_to 10752
  154.3652  135.2841  155.2276 H   0  0  0  0  0  0  0  0  0  0  0  0  # atno 10765 bound_to 10752
  141.1612  133.7528  156.9349 H   0  0  0  0  0  0  0  0  0  0  0  0  # atno 11005 bound_to 11000
  144.7847  139.6452  143.7139 LP  0  0  0  0  0  0  0  0  0  0  0  0  # atno 17320 bound_to 7965
  146.2298  139.5791  142.9563 LP  0  0  0  0  0  0  0  0  0  0  0  0  # atno 17321 bound_to 7965
  139.4797  144.5116  151.8925 LP  0  0  0  0  0  0  0  0  0  0  0  0  # atno 17342 bound_to 10162
  140.4203  144.2252  150.5887 LP  0  0  0  0  0  0  0  0  0  0  0  0  # atno 17343 bound_to 10162
  157.2848  131.0614  151.2173 LP  0  0  0  0  0  0  0  0  0  0  0  0  # atno 17370 bound_to 10713
  157.3207  130.6936  149.6267 LP  0  0  0  0  0  0  0  0  0  0  0  0  # atno 17371 bound_to 10713
  140.1361  134.9324  157.2403 LP  0  0  0  0  0  0  0  0  0  0  0  0  # atno 17394 bound_to 11000
  140.2894  134.3258  155.7319 LP  0  0  0  0  0  0  0  0  0  0  0  0  # atno 17395 bound_to 11000

$$$$
