AV-unprocessed.smi:985|AV-procd|sdf|4318|dock5
  -GOLD-   22720 2223D 1   1.00000     0.00000
 Structure written by MMmdl.
 26 27  0  0  0  0  0  0  0  0  2 V2000
  152.1273  141.2713  159.0066 C   0  0  0  0  0  0  0  0  0  0  0  0
  151.7537  140.7653  157.6557 C   0  0  0  0  0  0  0  0  0  0  0  0
  150.6512  141.0469  156.9657 N   0  0  0  0  0  0  0  0  0  0  0  0
  150.8574  140.3193  155.8322 C   0  0  0  0  0  0  0  0  0  0  0  0
  149.8813  140.2838  154.6962 C   0  0  2  0  0  0  0  0  0  0  0  0
  148.5936  141.0687  155.0109 C   0  0  0  0  0  0  0  0  0  0  0  0
  147.6180  140.9957  153.8261 C   0  0  0  0  0  0  0  0  0  0  0  0
  147.3491  139.5361  153.4224 C   0  0  0  0  0  0  0  0  0  0  0  0
  148.6154  138.8369  153.1131 N   0  3  0  0  0  0  0  0  0  0  0  0
  149.5718  138.8426  154.2426 C   0  0  0  0  0  0  0  0  0  0  0  0
  151.9870  139.6226  155.7910 N   0  0  0  0  0  0  0  0  0  0  0  0
  152.5978  139.9200  157.0179 O   0  0  0  0  0  0  0  0  0  0  0  0
  151.3503  141.9306  159.3947 H   0  0  0  0  0  0  0  0  0  0  0  0
  153.0632  141.8276  158.9516 H   0  0  0  0  0  0  0  0  0  0  0  0
  152.2550  140.4367  159.6961 H   0  0  0  0  0  0  0  0  0  0  0  0
  150.3555  140.7850  153.8498 H   0  0  0  0  0  0  0  0  0  0  0  0
  148.1136  140.6572  155.9001 H   0  0  0  0  0  0  0  0  0  0  0  0
  148.8293  142.1094  155.2366 H   0  0  0  0  0  0  0  0  0  0  0  0
  146.6814  141.4907  154.0837 H   0  0  0  0  0  0  0  0  0  0  0  0
  148.0317  141.5402  152.9762 H   0  0  0  0  0  0  0  0  0  0  0  0
  146.8318  139.0081  154.2248 H   0  0  0  0  0  0  0  0  0  0  0  0
  146.7004  139.4998  152.5470 H   0  0  0  0  0  0  0  0  0  0  0  0
  148.4092  137.8801  152.8633 H   0  0  0  0  0  0  0  0  0  0  0  0
  150.4862  138.3360  153.9318 H   0  0  0  0  0  0  0  0  0  0  0  0
  149.1499  138.2633  155.0653 H   0  0  0  0  0  0  0  0  0  0  0  0
  149.0482  139.2935  152.3228 H   0  0  0  0  0  0  0  0  0  0  0  0
  1  2  1  0  0  0  0
  1 13  1  0  0  0  0
  1 14  1  0  0  0  0
  1 15  1  0  0  0  0
  2 12  1  0  0  0  0
  2  3  2  0  0  0  0
  3  4  1  0  0  0  0
  4  5  1  0  0  0  0
  4 11  2  0  0  0  0
  5 10  1  0  0  0  0
  5  6  1  0  0  0  0
  5 16  1  0  0  0  0
  6  7  1  0  0  0  0
  6 17  1  0  0  0  0
  6 18  1  0  0  0  0
  7  8  1  0  0  0  0
  7 19  1  0  0  0  0
  7 20  1  0  0  0  0
  8  9  1  0  0  0  0
  8 21  1  0  0  0  0
  8 22  1  0  0  0  0
  9 10  1  0  0  0  0
  9 23  1  0  0  0  0
  9 26  1  0  0  0  0
 10 24  1  0  0  0  0
 10 25  1  0  0  0  0
 11 12  1  0  0  0  0
M  CHG  1   9   1
M  END
> <s_m_source_file>
AV-unprocessed.smi

> <i_m_source_file_index>
985

> <i_lp_mmshare_version>
43012

> <i_f3d_flags>
0

> <s_epik_input>
W0NIM11jMW5jKG5vMSlbQ0BASF0yW0NIMl1bQ0gyXVtDSDJdW05IXVtDSDJdMg==

> <s_epik_cmdline>
J2VwaWtfcHl0aG9uJywgJy1waCcsICc3LjAnLCAnLXRuJywgJzgnLCAnLW1hJywgJzIwMCcsICctbWV0YWxfYmluZGluZycsICctaW1hZScsICc8aW5maWxlLm1hZT4nLCAnLW9tYWUnLCAnPG91dGZpbGUubWFlPic=

> <r_lp_tautomer_probability>
1

> <r_epik_Ionization_Penalty>
0.000532935

> <r_epik_Ionization_Penalty_Charging>
0.000532935

> <r_epik_Ionization_Penalty_Neutral>
3.88228e-13

> <r_epik_State_Penalty>
0.000332992

> <r_epik_Charging_Adjusted_Penalty>
0.000865928

> <i_epik_Tot_Q>
1

> <i_epik_Tot_abs_Q>
1

> <r_epik_Metal_State_Penalty>
-0

> <b_epik_Metal_Only>
0

> <s_lp_Force_Field>
OPLS_2005

> <r_lp_Energy>
6.62541

> <b_lp_Chiralities_Consistent>
1

> <s_lp_Variant>
AV-unprocessed.smi:985-1

> <Gold.Version>
5.8.1

> <Gold.Id.Protein>
6NUR|6NUR_protein|mol2

> <Gold.PLP.Fitness>
33.4323

> <Gold.PLP.PLP>
-22.3571

> <Gold.PLP.part.hbond>
-2.9052

> <Gold.PLP.part.metal>
0.0000

> <Gold.PLP.part.buried>
-2.9259

> <Gold.PLP.part.nonpolar>
-17.4387

> <Gold.PLP.part.repulsive>
0.1177

> <Gold.PLP.ligand.clash>
0.0000

> <Gold.PLP.ligand.torsion>
0.1330

> <Gold.PLP.Chemscore.Hbond>
3.7660

> <Gold.PLP.Chemscore.CHOScore>
0.0000

> <Gold.PLP.Chemscore.Metal>
0.0000

> <Gold.Chemscore.Hbonds>
donor molecule, donor type, donor heavy atom, donor atom, acceptor molecule, acceptor atom, score
      L1  H     9    23       P1  7948  1.86
      L1  H     9    26       P1  7957  0.88
      P1  H  7997  8009       L1    12  1.00

> <Gold.PLP.Chemscore.Internal.Correction>
0.0432

> <Gold.Rescore>
     Score         DG    S(hbond)    S(metal)    S(lipo)     H(rot)  DE(clash)    DE(int)     intcor
     17.08     -17.19       2.83        0.00      41.28       1.00       0.02       0.08       ----

> <Gold.Chemscore.Fitness>
17.0819

> <Gold.Chemscore.DG>
-17.1875

> <Gold.Chemscore.ZeroCoef>
-5.4800

> <Gold.Chemscore.Hbond>
2.8256

> <Gold.Chemscore.Metal>
0.0000

> <Gold.Chemscore.Lipo>
41.2831

> <Gold.Chemscore.Internal_Hbond>
0.0000

> <Gold.Chemscore.DEClash>
0.0208

> <Gold.Chemscore.DEInternal>
0.0848

> <Gold.Chemscore.Rot>
1.0000

> <Gold.Chemscore.Internal.Correction>
   9.000000E+99

> <Gold.Chemscore.Hbonds>
donor molecule, donor type, donor heavy atom, donor atom, acceptor molecule, acceptor atom, score
      L1  H     9    23       P1  7948  0.89
      L1  H     9    26       P1  7957  0.86
      P1  H  7997  8009       L1    12  0.60

> <Gold.Chemscore.Hbond.Weighted>
-9.4374

> <Gold.Chemscore.Metal.Weighted>
-0.0000

> <Gold.Chemscore.Lipo.Weighted>
-4.8301

> <Gold.Chemscore.Internal_Hbond.Weighted>
0.0000

> <Gold.Chemscore.DEClash.Weighted>
0.0208

> <Gold.Chemscore.DEInternal.Weighted>
0.0848

> <Gold.Chemscore.Rot.Weighted>
2.5600

> <Gold.Chemscore.Internal.Correction.Weighted>
   9.000000E+99

> <Gold.Protein.RotatedTorsions>
[ 6907 6896 6895 6894 ] final -179.94 input  -60.11 | X-H torsion
[ 7974 7965 7964 7962 ] final  101.94 input  175.53 | X-H torsion
[ 8008 7997 7996 7995 ] final  176.20 input   59.86 | X-H torsion
[ 10167 10162 10161 10158 ] final  166.75 input  -65.29 | X-H torsion
[ 10718 10713 10712 10709 ] final  -32.86 input   66.30 | X-H torsion
[ 10763 10752 10751 10750 ] final -140.63 input  -60.55 | X-H torsion
[ 11005 11000 10999 10996 ] final   64.16 input  -57.11 | X-H torsion

> <Gold.Protein.ActiveResidues>
 VAL166  LYS551  ARG553  GLY616  TRP617  ASP618  TYR619  PRO620  LYS621  CYS622 
 ASP623  PHE694  ASN695  SER759  ASP760  ASP761  ALA762  ILE779  LEU786  VAL792 
 PHE793  MET794  SER795  GLU796  ALA797  LYS798  CYS799  TRP800  GLU811  SER814 

> <Gold.Protein.RotatedAtoms>
  151.6616  133.3317  159.3175 H   0  0  0  0  0  0  0  0  0  0  0  0  # atno 6907 bound_to 6896
  150.7911  134.6939  159.6521 H   0  0  0  0  0  0  0  0  0  0  0  0  # atno 6908 bound_to 6896
  152.3990  134.6321  160.0129 H   0  0  0  0  0  0  0  0  0  0  0  0  # atno 6909 bound_to 6896
  145.3657  139.2408  143.3482 H   0  0  0  0  0  0  0  0  0  0  0  0  # atno 7974 bound_to 7965
  156.0790  140.1389  156.9736 H   0  0  0  0  0  0  0  0  0  0  0  0  # atno 8008 bound_to 7997
  154.4574  140.0956  156.6846 H   0  0  0  0  0  0  0  0  0  0  0  0  # atno 8009 bound_to 7997
  155.5106  140.3453  155.4390 H   0  0  0  0  0  0  0  0  0  0  0  0  # atno 8010 bound_to 7997
  139.4931  144.3994  151.9426 H   0  0  0  0  0  0  0  0  0  0  0  0  # atno 10167 bound_to 10162
  156.3697  130.4337  149.7555 H   0  0  0  0  0  0  0  0  0  0  0  0  # atno 10718 bound_to 10713
  154.8572  135.3547  154.5739 H   0  0  0  0  0  0  0  0  0  0  0  0  # atno 10763 bound_to 10752
  153.6351  135.7000  153.5266 H   0  0  0  0  0  0  0  0  0  0  0  0  # atno 10764 bound_to 10752
  153.3017  135.4204  155.1218 H   0  0  0  0  0  0  0  0  0  0  0  0  # atno 10765 bound_to 10752
  139.9977  134.6491  155.9983 H   0  0  0  0  0  0  0  0  0  0  0  0  # atno 11005 bound_to 11000
  146.2908  140.4299  142.8740 LP  0  0  0  0  0  0  0  0  0  0  0  0  # atno 17320 bound_to 7965
  144.8613  140.7144  143.6105 LP  0  0  0  0  0  0  0  0  0  0  0  0  # atno 17321 bound_to 7965
  140.3433  144.3177  150.5963 LP  0  0  0  0  0  0  0  0  0  0  0  0  # atno 17342 bound_to 10162
  140.5547  143.2201  151.7867 LP  0  0  0  0  0  0  0  0  0  0  0  0  # atno 17343 bound_to 10162
  156.4687  130.7986  151.3005 LP  0  0  0  0  0  0  0  0  0  0  0  0  # atno 17370 bound_to 10713
  157.7482  131.0043  150.3069 LP  0  0  0  0  0  0  0  0  0  0  0  0  # atno 17371 bound_to 10713
  141.1617  133.6538  156.4342 LP  0  0  0  0  0  0  0  0  0  0  0  0  # atno 17394 bound_to 11000
  140.4787  134.6685  157.5161 LP  0  0  0  0  0  0  0  0  0  0  0  0  # atno 17395 bound_to 11000

$$$$
