AV-unprocessed.smi:240|AV-procd|sdf|1836|dock2
  -GOLD-   2262020443D 1   1.00000     0.00000
 Structure written by MMmdl.
 55 59  0  0  0  0  0  0  0  0  1 V2000
  147.2494  140.7945  157.6796 O   0  0  0  0  0  0  0  0  0  0  0  0
  147.6258  141.5276  156.5326 C   0  0  2  0  0  0  0  0  0  0  0  0
  146.5958  141.3573  155.4176 C   0  0  0  0  0  0  0  0  0  0  0  0
  147.3531  141.7549  154.1501 C   0  0  0  0  0  0  0  0  0  0  0  0
  148.8272  141.4085  154.4113 C   0  0  0  0  0  0  0  0  0  0  0  0
  148.9345  141.0180  155.8999 C   0  0  1  0  0  0  0  0  0  0  0  0
  150.2720  141.4433  156.5878 C   0  0  1  0  0  0  0  0  0  0  0  0
  150.0710  142.4868  157.7178 C   0  0  0  0  0  0  0  0  0  0  0  0
  151.3254  142.8574  158.2753 O   0  0  0  0  0  0  0  0  0  0  0  0
  151.9708  141.7494  158.8868 C   0  0  0  0  0  0  0  0  0  0  0  0
  152.2648  140.6921  157.8150 C   0  0  0  0  0  0  0  0  0  0  0  0
  151.0425  140.3057  157.1160 N   0  0  0  0  0  0  0  0  0  0  0  0
  151.3102  139.2808  156.2721 C   0  0  0  0  0  0  0  0  0  0  0  0
  151.9892  139.5015  155.1145 N   0  0  0  0  0  0  0  0  0  0  0  0
  152.2508  138.4836  154.2889 C   0  0  0  0  0  0  0  0  0  0  0  0
  151.9372  137.1933  154.4282 N   0  0  0  0  0  0  0  0  0  0  0  0
  151.2715  136.9686  155.5978 C   0  0  0  0  0  0  0  0  0  0  0  0
  150.9263  137.9470  156.5706 C   0  0  0  0  0  0  0  0  0  0  0  0
  150.2561  137.3510  157.6309 N   0  0  0  0  0  0  0  0  0  0  0  0
  150.2026  136.0893  157.3008 C   0  0  0  0  0  0  0  0  0  0  0  0
  150.7930  135.7702  156.0983 N   0  0  0  0  0  0  0  0  0  0  0  0
  150.8730  134.4518  155.4882 C   0  0  0  0  0  0  0  0  0  0  0  0
  149.5115  133.9002  154.9933 C   0  0  2  0  0  0  0  0  0  0  0  0
  148.7731  134.9520  154.3991 O   0  0  0  0  0  0  0  0  0  0  0  0
  148.6666  133.2476  156.0855 C   0  0  0  0  0  0  0  0  0  0  0  0
  149.1061  131.7937  156.0106 C   0  0  0  0  0  0  0  0  0  0  0  0
  149.1983  131.5693  154.6135 O   0  0  0  0  0  0  0  0  0  0  0  0
  149.7013  132.7468  153.9874 C   0  0  0  0  0  0  0  0  0  0  0  0
  147.3548  139.8736  157.4964 H   0  0  0  0  0  0  0  0  0  0  0  0
  147.6884  142.5843  156.7873 H   0  0  0  0  0  0  0  0  0  0  0  0
  146.2903  140.3123  155.3426 H   0  0  0  0  0  0  0  0  0  0  0  0
  145.6986  141.9561  155.5773 H   0  0  0  0  0  0  0  0  0  0  0  0
  146.9594  141.2548  153.2648 H   0  0  0  0  0  0  0  0  0  0  0  0
  147.2558  142.8294  153.9893 H   0  0  0  0  0  0  0  0  0  0  0  0
  149.1509  140.5794  153.7807 H   0  0  0  0  0  0  0  0  0  0  0  0
  149.4559  142.2585  154.1510 H   0  0  0  0  0  0  0  0  0  0  0  0
  148.8705  139.9297  155.8947 H   0  0  0  0  0  0  0  0  0  0  0  0
  150.8921  141.9169  155.8252 H   0  0  0  0  0  0  0  0  0  0  0  0
  149.5959  143.3912  157.3422 H   0  0  0  0  0  0  0  0  0  0  0  0
  149.4346  142.1046  158.5156 H   0  0  0  0  0  0  0  0  0  0  0  0
  152.8998  142.0876  159.3459 H   0  0  0  0  0  0  0  0  0  0  0  0
  151.3500  141.3385  159.6848 H   0  0  0  0  0  0  0  0  0  0  0  0
  152.9842  141.0874  157.0963 H   0  0  0  0  0  0  0  0  0  0  0  0
  152.7241  139.8194  158.2817 H   0  0  0  0  0  0  0  0  0  0  0  0
  152.7876  138.7400  153.3874 H   0  0  0  0  0  0  0  0  0  0  0  0
  149.7295  135.3501  157.9311 H   0  0  0  0  0  0  0  0  0  0  0  0
  151.5795  134.5055  154.6586 H   0  0  0  0  0  0  0  0  0  0  0  0
  151.3143  133.7683  156.2146 H   0  0  0  0  0  0  0  0  0  0  0  0
  149.1455  135.1362  153.5502 H   0  0  0  0  0  0  0  0  0  0  0  0
  148.7892  133.6801  157.0774 H   0  0  0  0  0  0  0  0  0  0  0  0
  147.6055  133.3041  155.8361 H   0  0  0  0  0  0  0  0  0  0  0  0
  150.0839  131.6540  156.4744 H   0  0  0  0  0  0  0  0  0  0  0  0
  148.3977  131.1125  156.4822 H   0  0  0  0  0  0  0  0  0  0  0  0
  149.1569  132.9090  153.0560 H   0  0  0  0  0  0  0  0  0  0  0  0
  150.7512  132.6034  153.7281 H   0  0  0  0  0  0  0  0  0  0  0  0
  1  2  1  0  0  0  0
  1 29  1  0  0  0  0
  2  6  1  0  0  0  0
  2  3  1  0  0  0  0
  2 30  1  0  0  0  0
  3  4  1  0  0  0  0
  3 31  1  0  0  0  0
  3 32  1  0  0  0  0
  4  5  1  0  0  0  0
  4 33  1  0  0  0  0
  4 34  1  0  0  0  0
  5  6  1  0  0  0  0
  5 35  1  0  0  0  0
  5 36  1  0  0  0  0
  6  7  1  0  0  0  0
  6 37  1  0  0  0  0
  7 12  1  0  0  0  0
  7  8  1  0  0  0  0
  7 38  1  0  0  0  0
  8  9  1  0  0  0  0
  8 39  1  0  0  0  0
  8 40  1  0  0  0  0
  9 10  1  0  0  0  0
 10 11  1  0  0  0  0
 10 41  1  0  0  0  0
 10 42  1  0  0  0  0
 11 12  1  0  0  0  0
 11 43  1  0  0  0  0
 11 44  1  0  0  0  0
 12 13  1  0  0  0  0
 13 18  1  0  0  0  0
 13 14  2  0  0  0  0
 14 15  1  0  0  0  0
 15 16  2  0  0  0  0
 15 45  1  0  0  0  0
 16 17  1  0  0  0  0
 17 21  1  0  0  0  0
 17 18  2  0  0  0  0
 18 19  1  0  0  0  0
 19 20  2  0  0  0  0
 20 21  1  0  0  0  0
 20 46  1  0  0  0  0
 21 22  1  0  0  0  0
 22 23  1  0  0  0  0
 22 47  1  0  0  0  0
 22 48  1  0  0  0  0
 23 28  1  0  0  0  0
 23 24  1  0  0  0  0
 23 25  1  0  0  0  0
 24 49  1  0  0  0  0
 25 26  1  0  0  0  0
 25 50  1  0  0  0  0
 25 51  1  0  0  0  0
 26 27  1  0  0  0  0
 26 52  1  0  0  0  0
 26 53  1  0  0  0  0
 27 28  1  0  0  0  0
 28 54  1  0  0  0  0
 28 55  1  0  0  0  0
M  END
> <s_m_source_file>
AV-unprocessed.smi

> <i_m_source_file_index>
240

> <i_lp_mmshare_version>
43012

> <i_f3d_flags>
0

> <s_epik_input>
W09IXVtDQEBIXTFbQ0gyXVtDSDJdW0NIMl1bQ0BIXTFbQ0BASF0yW0NIMl1PW0NIMl1bQ0gyXU4yYyhuW2NIXW4zKWMoYzM0KW5bY0hdbjRbQ0gyXVtDQEBdNShbT0hdKVtDSDJdW0NIMl1PW0NIMl01

> <s_epik_cmdline>
J2VwaWtfcHl0aG9uJywgJy1waCcsICc3LjAnLCAnLXRuJywgJzgnLCAnLW1hJywgJzIwMCcsICctbWV0YWxfYmluZGluZycsICctaW1hZScsICc8aW5maWxlLm1hZT4nLCAnLW9tYWUnLCAnPG91dGZpbGUubWFlPic=

> <r_lp_tautomer_probability>
1

> <r_epik_Ionization_Penalty>
0.000130618

> <r_epik_Ionization_Penalty_Charging>
0

> <r_epik_Ionization_Penalty_Neutral>
0.000130618

> <r_epik_State_Penalty>
-0

> <r_epik_Charging_Adjusted_Penalty>
0

> <i_epik_Tot_Q>
0

> <i_epik_Tot_abs_Q>
0

> <r_epik_Metal_State_Penalty>
-0

> <b_epik_Metal_Only>
0

> <s_lp_Force_Field>
OPLS_2005

> <r_lp_Energy>
59.7423

> <b_lp_Chiralities_Consistent>
1

> <s_lp_Variant>
AV-unprocessed.smi:240-13

> <Gold.Version>
5.8.1

> <Gold.Id.Protein>
6NUR|6NUR_protein|mol2

> <Gold.PLP.Fitness>
40.9551

> <Gold.PLP.PLP>
-37.5595

> <Gold.PLP.part.hbond>
-2.9838

> <Gold.PLP.part.metal>
0.0000

> <Gold.PLP.part.buried>
-7.5200

> <Gold.PLP.part.nonpolar>
-27.7145

> <Gold.PLP.part.repulsive>
0.2720

> <Gold.PLP.ligand.clash>
0.0000

> <Gold.PLP.ligand.torsion>
2.0433

> <Gold.PLP.Chemscore.Hbond>
2.4306

> <Gold.PLP.Chemscore.CHOScore>
0.0000

> <Gold.PLP.Chemscore.Metal>
0.0000

> <Gold.Chemscore.Hbonds>
donor molecule, donor type, donor heavy atom, donor atom, acceptor molecule, acceptor atom, score
      L1  H    24    49       P1  7948  0.93
      P1  H  7989  7998       L1    14  0.46
      P1  H 10752 10764       L1    16  0.93

> <Gold.PLP.Chemscore.Internal.Correction>
0.1906

> <Gold.Rescore>
     Score         DG    S(hbond)    S(metal)    S(lipo)     H(rot)  DE(clash)    DE(int)     intcor
     10.44     -12.62       1.72        0.00      77.74       3.00       0.25       1.94       ----

> <Gold.Chemscore.Fitness>
10.4352

> <Gold.Chemscore.DG>
-12.6170

> <Gold.Chemscore.ZeroCoef>
-5.4800

> <Gold.Chemscore.Hbond>
1.7159

> <Gold.Chemscore.Metal>
0.0000

> <Gold.Chemscore.Lipo>
77.7410

> <Gold.Chemscore.Internal_Hbond>
0.0000

> <Gold.Chemscore.DEClash>
0.2459

> <Gold.Chemscore.DEInternal>
1.9358

> <Gold.Chemscore.Rot>
3.0039

> <Gold.Chemscore.Internal.Correction>
   9.000000E+99

> <Gold.Chemscore.Hbonds>
donor molecule, donor type, donor heavy atom, donor atom, acceptor molecule, acceptor atom, score
      L1  H    24    49       P1  7948  0.27
      P1  H  7989  7998       L1    14  0.04
      P1  H 10752 10764       L1    16  0.20

> <Gold.Chemscore.Hbond.Weighted>
-5.7312

> <Gold.Chemscore.Metal.Weighted>
-0.0000

> <Gold.Chemscore.Lipo.Weighted>
-9.0957

> <Gold.Chemscore.Internal_Hbond.Weighted>
0.0000

> <Gold.Chemscore.DEClash.Weighted>
0.2459

> <Gold.Chemscore.DEInternal.Weighted>
1.9358

> <Gold.Chemscore.Rot.Weighted>
7.6899

> <Gold.Chemscore.Internal.Correction.Weighted>
   9.000000E+99

> <Gold.Protein.RotatedTorsions>
[ 6907 6896 6895 6894 ] final   59.93 input  -60.11 | X-H torsion
[ 7974 7965 7964 7962 ] final   11.48 input  175.53 | X-H torsion
[ 8008 7997 7996 7995 ] final  -87.33 input   59.86 | X-H torsion
[ 10167 10162 10161 10158 ] final  142.04 input  -65.29 | X-H torsion
[ 10718 10713 10712 10709 ] final -131.57 input   66.30 | X-H torsion
[ 10763 10752 10751 10750 ] final  -72.00 input  -60.55 | X-H torsion
[ 11005 11000 10999 10996 ] final  122.64 input  -57.11 | X-H torsion

> <Gold.Protein.ActiveResidues>
 VAL166  LYS551  ARG553  GLY616  TRP617  ASP618  TYR619  PRO620  LYS621  CYS622 
 ASP623  PHE694  ASN695  SER759  ASP760  ASP761  ALA762  ILE779  LEU786  VAL792 
 PHE793  MET794  SER795  GLU796  ALA797  LYS798  CYS799  TRP800  GLU811  SER814 

> <Gold.Protein.RotatedAtoms>
  152.3959  134.6366  160.0089 H   0  0  0  0  0  0  0  0  0  0  0  0  # atno 6907 bound_to 6896
  151.6586  133.3312  159.3177 H   0  0  0  0  0  0  0  0  0  0  0  0  # atno 6908 bound_to 6896
  150.7866  134.6900  159.6536 H   0  0  0  0  0  0  0  0  0  0  0  0  # atno 6909 bound_to 6896
  146.2370  139.9479  142.8474 H   0  0  0  0  0  0  0  0  0  0  0  0  # atno 7974 bound_to 7965
  154.6620  140.0567  157.0073 H   0  0  0  0  0  0  0  0  0  0  0  0  # atno 8008 bound_to 7997
  155.1214  140.3248  155.4478 H   0  0  0  0  0  0  0  0  0  0  0  0  # atno 8009 bound_to 7997
  156.2622  140.1997  156.6336 H   0  0  0  0  0  0  0  0  0  0  0  0  # atno 8010 bound_to 7997
  139.5004  144.6133  151.6222 H   0  0  0  0  0  0  0  0  0  0  0  0  # atno 10167 bound_to 10162
  156.2257  130.7006  151.0805 H   0  0  0  0  0  0  0  0  0  0  0  0  # atno 10718 bound_to 10713
  154.4397  135.5944  153.6121 H   0  0  0  0  0  0  0  0  0  0  0  0  # atno 10763 bound_to 10752
  152.9804  135.5995  154.3738 H   0  0  0  0  0  0  0  0  0  0  0  0  # atno 10764 bound_to 10752
  154.3586  135.2841  155.2311 H   0  0  0  0  0  0  0  0  0  0  0  0  # atno 10765 bound_to 10752
  139.9277  134.9641  156.8139 H   0  0  0  0  0  0  0  0  0  0  0  0  # atno 11005 bound_to 11000
  145.1889  140.9802  143.4222 LP  0  0  0  0  0  0  0  0  0  0  0  0  # atno 17320 bound_to 7965
  144.9875  139.3722  143.6231 LP  0  0  0  0  0  0  0  0  0  0  0  0  # atno 17321 bound_to 7965
  140.5813  143.9940  150.6270 LP  0  0  0  0  0  0  0  0  0  0  0  0  # atno 17342 bound_to 10162
  140.3090  143.3210  152.0897 LP  0  0  0  0  0  0  0  0  0  0  0  0  # atno 17343 bound_to 10162
  157.7109  131.0734  150.6502 LP  0  0  0  0  0  0  0  0  0  0  0  0  # atno 17370 bound_to 10713
  156.6567  130.4500  149.5701 LP  0  0  0  0  0  0  0  0  0  0  0  0  # atno 17371 bound_to 10713
  140.6289  133.9924  155.7653 LP  0  0  0  0  0  0  0  0  0  0  0  0  # atno 17394 bound_to 11000
  141.0846  134.0011  157.3334 LP  0  0  0  0  0  0  0  0  0  0  0  0  # atno 17395 bound_to 11000

$$$$
