AV-unprocessed.smi:2526|AV-procd|sdf|9938|dock10
  -GOLD-   2272013583D 1   1.00000     0.00000
 Structure written by MMmdl.
 28 29  0  0  0  0  0  0  0  0  1 V2000
  152.0384  145.5137  159.5035 C   0  0  0  0  0  0  0  0  0  0  0  0
  151.9994  144.1083  159.1604 N   0  0  0  0  0  0  0  0  0  0  0  0
  151.3044  143.4917  158.1428 C   0  0  0  0  0  0  0  0  0  0  0  0
  151.5808  142.1540  158.2031 C   0  0  0  0  0  0  0  0  0  0  0  0
  151.0738  141.0495  157.3054 C   0  0  2  0  0  0  0  0  0  0  0  0
  152.1901  140.2565  156.7812 N   0  0  0  0  0  0  0  0  0  0  0  0
  152.3065  139.7312  155.5482 C   0  0  0  0  0  0  0  0  0  0  0  0
  153.2705  139.0364  155.2356 O   0  0  0  0  0  0  0  0  0  0  0  0
  151.2255  140.0354  154.5014 C   0  0  0  0  0  0  0  0  0  0  0  0
  149.9100  140.5358  155.1156 C   0  0  0  0  0  0  0  0  0  0  0  0
  150.1841  141.6128  156.1715 C   0  0  1  0  0  0  0  0  0  0  0  0
  148.9260  142.1141  156.6950 N   0  0  0  0  0  0  0  0  0  0  0  0
  152.4724  142.0576  159.3119 C   0  0  0  0  0  0  0  0  0  0  0  0
  152.7196  143.2255  159.8813 N   0  0  0  0  0  0  0  0  0  0  0  0
  151.1724  146.0241  159.0815 H   0  0  0  0  0  0  0  0  0  0  0  0
  152.9470  145.9625  159.1018 H   0  0  0  0  0  0  0  0  0  0  0  0
  152.0263  145.6367  160.5873 H   0  0  0  0  0  0  0  0  0  0  0  0
  150.6781  144.0500  157.4625 H   0  0  0  0  0  0  0  0  0  0  0  0
  150.4767  140.3479  157.8906 H   0  0  0  0  0  0  0  0  0  0  0  0
  152.9333  140.0549  157.4345 H   0  0  0  0  0  0  0  0  0  0  0  0
  151.6243  140.7940  153.8270 H   0  0  0  0  0  0  0  0  0  0  0  0
  151.0419  139.1459  153.8974 H   0  0  0  0  0  0  0  0  0  0  0  0
  149.2693  140.9318  154.3267 H   0  0  0  0  0  0  0  0  0  0  0  0
  149.3713  139.6985  155.5626 H   0  0  0  0  0  0  0  0  0  0  0  0
  150.6996  142.4450  155.6893 H   0  0  0  0  0  0  0  0  0  0  0  0
  148.9051  143.1209  156.6172 H   0  0  0  0  0  0  0  0  0  0  0  0
  148.1630  141.7681  156.1310 H   0  0  0  0  0  0  0  0  0  0  0  0
  152.9472  141.1757  159.7162 H   0  0  0  0  0  0  0  0  0  0  0  0
  1  2  1  0  0  0  0
  1 15  1  0  0  0  0
  1 16  1  0  0  0  0
  1 17  1  0  0  0  0
  2 14  1  0  0  0  0
  2  3  1  0  0  0  0
  3  4  2  0  0  0  0
  3 18  1  0  0  0  0
  4  5  1  0  0  0  0
  4 13  1  0  0  0  0
  5 11  1  0  0  0  0
  5  6  1  0  0  0  0
  5 19  1  0  0  0  0
  6  7  1  0  0  0  0
  6 20  1  0  0  0  0
  7  8  2  0  0  0  0
  7  9  1  0  0  0  0
  9 10  1  0  0  0  0
  9 21  1  0  0  0  0
  9 22  1  0  0  0  0
 10 11  1  0  0  0  0
 10 23  1  0  0  0  0
 10 24  1  0  0  0  0
 11 12  1  0  0  0  0
 11 25  1  0  0  0  0
 12 26  1  0  0  0  0
 12 27  1  0  0  0  0
 13 14  2  0  0  0  0
 13 28  1  0  0  0  0
M  END
> <s_m_source_file>
AV-unprocessed.smi

> <i_m_source_file_index>
2526

> <i_lp_mmshare_version>
43012

> <i_f3d_flags>
0

> <s_epik_input>
W0NIM11uMVtjSF1jKFtjSF1uMSlbQ0BASF0yW05IXUMoPU8pW0NIMl1bQ0gyXVtDQEhdMltOSDJd

> <s_epik_cmdline>
J2VwaWtfcHl0aG9uJywgJy1waCcsICc3LjAnLCAnLXRuJywgJzgnLCAnLW1hJywgJzIwMCcsICctbWV0YWxfYmluZGluZycsICctaW1hZScsICc8aW5maWxlLm1hZT4nLCAnLW9tYWUnLCAnPG91dGZpbGUubWFlPic=

> <r_lp_tautomer_probability>
1

> <r_epik_Ionization_Penalty>
2.50279

> <r_epik_Ionization_Penalty_Charging>
0

> <r_epik_Ionization_Penalty_Neutral>
2.50279

> <r_epik_State_Penalty>
2.66754

> <r_epik_Charging_Adjusted_Penalty>
2.66754

> <i_epik_Tot_Q>
0

> <i_epik_Tot_abs_Q>
0

> <r_epik_Metal_State_Penalty>
2.66721

> <b_epik_Metal_Only>
0

> <s_lp_Force_Field>
OPLS_2005

> <r_lp_Energy>
8.43832

> <b_lp_Chiralities_Consistent>
1

> <s_lp_Variant>
AV-unprocessed.smi:2526-5

> <Gold.Version>
5.8.1

> <Gold.Id.Protein>
6NUR|6NUR_protein|mol2

> <Gold.PLP.Fitness>
37.9721

> <Gold.PLP.PLP>
-29.8411

> <Gold.PLP.part.hbond>
-2.0000

> <Gold.PLP.part.metal>
0.0000

> <Gold.PLP.part.buried>
-0.2857

> <Gold.PLP.part.nonpolar>
-27.3146

> <Gold.PLP.part.repulsive>
0.1306

> <Gold.PLP.ligand.clash>
0.0000

> <Gold.PLP.ligand.torsion>
0.0724

> <Gold.PLP.Chemscore.Hbond>
1.7500

> <Gold.PLP.Chemscore.CHOScore>
1.0000

> <Gold.PLP.Chemscore.Metal>
0.0000

> <Gold.Chemscore.Hbonds>
donor molecule, donor type, donor heavy atom, donor atom, acceptor molecule, acceptor atom, score
      L1  H    12    26       P1  8028  1.00
      P1  H  7997  8008       L1     8  0.75
      L1  C     3    18       P1  8028  0.82

> <Gold.PLP.Chemscore.Internal.Correction>
0.0258

> <Gold.Rescore>
     Score         DG    S(hbond)    S(metal)    S(lipo)     H(rot)  DE(clash)    DE(int)     intcor
     13.93     -14.32       1.00        0.00      68.87       1.00       0.36       0.03       ----

> <Gold.Chemscore.Fitness>
13.9312

> <Gold.Chemscore.DG>
-14.3225

> <Gold.Chemscore.ZeroCoef>
-5.4800

> <Gold.Chemscore.Hbond>
1.0014

> <Gold.Chemscore.Metal>
0.0000

> <Gold.Chemscore.Lipo>
68.8703

> <Gold.Chemscore.Internal_Hbond>
0.0000

> <Gold.Chemscore.DEClash>
0.3635

> <Gold.Chemscore.DEInternal>
0.0278

> <Gold.Chemscore.Rot>
1.0000

> <Gold.Chemscore.Internal.Correction>
   9.000000E+99

> <Gold.Chemscore.Hbonds>
donor molecule, donor type, donor heavy atom, donor atom, acceptor molecule, acceptor atom, score
      L1  H    12    26       P1  8028  0.93
      P1  H  7997  8008       L1     8  0.09

> <Gold.Chemscore.Hbond.Weighted>
-3.3447

> <Gold.Chemscore.Metal.Weighted>
-0.0000

> <Gold.Chemscore.Lipo.Weighted>
-8.0578

> <Gold.Chemscore.Internal_Hbond.Weighted>
0.0000

> <Gold.Chemscore.DEClash.Weighted>
0.3635

> <Gold.Chemscore.DEInternal.Weighted>
0.0278

> <Gold.Chemscore.Rot.Weighted>
2.5600

> <Gold.Chemscore.Internal.Correction.Weighted>
   9.000000E+99

> <Gold.Protein.RotatedTorsions>
[ 6907 6896 6895 6894 ] final  112.17 input  -60.11 | X-H torsion
[ 7974 7965 7964 7962 ] final  -44.01 input  175.53 | X-H torsion
[ 8008 7997 7996 7995 ] final  -13.66 input   59.86 | X-H torsion
[ 10167 10162 10161 10158 ] final -169.94 input  -65.29 | X-H torsion
[ 10718 10713 10712 10709 ] final  -43.47 input   66.30 | X-H torsion
[ 10763 10752 10751 10750 ] final  -45.63 input  -60.55 | X-H torsion
[ 11005 11000 10999 10996 ] final  -33.32 input  -57.11 | X-H torsion

> <Gold.Protein.ActiveResidues>
 VAL166  LYS551  ARG553  GLY616  TRP617  ASP618  TYR619  PRO620  LYS621  CYS622 
 ASP623  PHE694  ASN695  SER759  ASP760  ASP761  ALA762  ILE779  LEU786  VAL792 
 PHE793  MET794  SER795  GLU796  ALA797  LYS798  CYS799  TRP800  GLU811  SER814 

> <Gold.Protein.RotatedAtoms>
  152.4931  133.8554  159.7222 H   0  0  0  0  0  0  0  0  0  0  0  0  # atno 6907 bound_to 6896
  150.9080  133.7024  159.2868 H   0  0  0  0  0  0  0  0  0  0  0  0  # atno 6908 bound_to 6896
  151.4443  135.1027  159.9732 H   0  0  0  0  0  0  0  0  0  0  0  0  # atno 6909 bound_to 6896
  145.9962  140.7125  142.9292 H   0  0  0  0  0  0  0  0  0  0  0  0  # atno 7974 bound_to 7965
  154.5274  140.2243  155.8866 H   0  0  0  0  0  0  0  0  0  0  0  0  # atno 8008 bound_to 7997
  156.1727  140.3118  155.8968 H   0  0  0  0  0  0  0  0  0  0  0  0  # atno 8009 bound_to 7997
  155.3523  140.0456  157.3037 H   0  0  0  0  0  0  0  0  0  0  0  0  # atno 8010 bound_to 7997
  139.5892  144.1251  152.1613 H   0  0  0  0  0  0  0  0  0  0  0  0  # atno 10167 bound_to 10162
  156.2486  130.4186  149.8676 H   0  0  0  0  0  0  0  0  0  0  0  0  # atno 10718 bound_to 10713
  154.0317  135.6656  153.4781 H   0  0  0  0  0  0  0  0  0  0  0  0  # atno 10763 bound_to 10752
  153.0537  135.5069  154.7926 H   0  0  0  0  0  0  0  0  0  0  0  0  # atno 10764 bound_to 10752
  154.6874  135.3055  154.9493 H   0  0  0  0  0  0  0  0  0  0  0  0  # atno 10765 bound_to 10752
  140.9625  133.7156  156.1393 H   0  0  0  0  0  0  0  0  0  0  0  0  # atno 11005 bound_to 11000
  144.6904  140.3155  143.7241 LP  0  0  0  0  0  0  0  0  0  0  0  0  # atno 17320 bound_to 7965
  145.7555  139.1807  143.2297 LP  0  0  0  0  0  0  0  0  0  0  0  0  # atno 17321 bound_to 7965
  140.0821  144.5691  150.7114 LP  0  0  0  0  0  0  0  0  0  0  0  0  # atno 17342 bound_to 10162
  140.7158  143.2543  151.4438 LP  0  0  0  0  0  0  0  0  0  0  0  0  # atno 17343 bound_to 10162
  156.6232  130.8635  151.3480 LP  0  0  0  0  0  0  0  0  0  0  0  0  # atno 17370 bound_to 10713
  157.7205  130.9552  150.1421 LP  0  0  0  0  0  0  0  0  0  0  0  0  # atno 17371 bound_to 10713
  140.7446  134.4112  157.5550 LP  0  0  0  0  0  0  0  0  0  0  0  0  # atno 17394 bound_to 11000
  139.8883  134.8860  156.2481 LP  0  0  0  0  0  0  0  0  0  0  0  0  # atno 17395 bound_to 11000

$$$$
