AV-unprocessed.smi:1388|AV-procd|sdf|5644|dock1
  -GOLD-   22720 5263D 1   1.00000     0.00000
 Structure written by MMmdl.
 45 46  0  0  0  0  0  0  0  0  3 V2000
  144.4250  133.2070  150.6822 C   0  0  0  0  0  0  0  0  0  0  0  0
  144.6171  134.6287  150.9440 N   0  5  0  0  0  0  0  0  0  0  0  0
  145.5570  135.1137  151.8025 C   0  0  0  0  0  0  0  0  0  0  0  0
  146.4110  134.5283  152.4756 O   0  0  0  0  0  0  0  0  0  0  0  0
  145.4798  136.6431  151.9021 C   0  0  0  0  0  0  0  0  0  0  0  0
  146.4831  137.1676  152.8646 N   0  3  2  0  0  0  0  0  0  0  0  0
  146.2824  136.6399  154.2374 C   0  0  0  0  0  0  0  0  0  0  0  0
  147.4246  137.0732  155.1716 C   0  0  0  0  0  0  0  0  0  0  0  0
  147.5804  138.6047  155.1901 C   0  0  1  0  0  0  0  0  0  0  0  0
  148.7312  139.0001  155.9968 N   0  0  0  0  0  0  0  0  0  0  0  0
  149.0260  140.2580  156.3565 C   0  0  0  0  0  0  0  0  0  0  0  0
  148.3385  141.2306  156.0435 O   0  0  0  0  0  0  0  0  0  0  0  0
  150.1482  140.3016  157.0962 N   0  0  0  0  0  0  0  0  0  0  0  0
  150.8065  141.4412  157.6393 C   0  0  0  0  0  0  0  0  0  0  0  0
  150.5227  142.7074  157.2427 N   0  0  0  0  0  0  0  0  0  0  0  0
  151.1905  143.7423  157.7918 C   0  0  0  0  0  0  0  0  0  0  0  0
  152.1848  143.5807  158.7716 C   0  0  0  0  0  0  0  0  0  0  0  0
  152.4907  142.2759  159.1948 C   0  0  0  0  0  0  0  0  0  0  0  0
  151.7969  141.1867  158.6256 C   0  0  0  0  0  0  0  0  0  0  0  0
  152.1262  139.7746  159.0827 C   0  0  0  0  0  0  0  0  0  0  0  0
  147.7480  139.1228  153.7530 C   0  0  0  0  0  0  0  0  0  0  0  0
  146.5923  138.6509  152.8562 C   0  0  0  0  0  0  0  0  0  0  0  0
  143.6528  133.0346  149.9328 H   0  0  0  0  0  0  0  0  0  0  0  0
  144.1163  132.6607  151.5740 H   0  0  0  0  0  0  0  0  0  0  0  0
  145.3293  132.7239  150.3115 H   0  0  0  0  0  0  0  0  0  0  0  0
  145.6201  137.1021  150.9221 H   0  0  0  0  0  0  0  0  0  0  0  0
  144.4710  136.9037  152.2272 H   0  0  0  0  0  0  0  0  0  0  0  0
  145.3239  136.9882  154.6254 H   0  0  0  0  0  0  0  0  0  0  0  0
  146.2376  135.5504  154.2097 H   0  0  0  0  0  0  0  0  0  0  0  0
  147.2338  136.7012  156.1789 H   0  0  0  0  0  0  0  0  0  0  0  0
  148.3556  136.6093  154.8419 H   0  0  0  0  0  0  0  0  0  0  0  0
  146.6763  139.0506  155.6100 H   0  0  0  0  0  0  0  0  0  0  0  0
  149.3498  138.2618  156.2992 H   0  0  0  0  0  0  0  0  0  0  0  0
  150.5898  139.4155  157.2912 H   0  0  0  0  0  0  0  0  0  0  0  0
  150.9247  144.7275  157.4383 H   0  0  0  0  0  0  0  0  0  0  0  0
  152.6988  144.4350  159.1870 H   0  0  0  0  0  0  0  0  0  0  0  0
  153.2498  142.1167  159.9465 H   0  0  0  0  0  0  0  0  0  0  0  0
  152.8828  139.7781  159.8677 H   0  0  0  0  0  0  0  0  0  0  0  0
  152.5087  139.1836  158.2499 H   0  0  0  0  0  0  0  0  0  0  0  0
  151.2367  139.2830  159.4779 H   0  0  0  0  0  0  0  0  0  0  0  0
  147.7943  140.2126  153.7499 H   0  0  0  0  0  0  0  0  0  0  0  0
  148.6934  138.7709  153.3370 H   0  0  0  0  0  0  0  0  0  0  0  0
  146.7616  139.0130  151.8418 H   0  0  0  0  0  0  0  0  0  0  0  0
  145.6514  139.0883  153.1935 H   0  0  0  0  0  0  0  0  0  0  0  0
  147.3702  136.8041  152.5433 H   0  0  0  0  0  0  0  0  0  0  0  0
  1  2  1  0  0  0  0
  1 23  1  0  0  0  0
  1 24  1  0  0  0  0
  1 25  1  0  0  0  0
  2  3  1  0  0  0  0
  3  4  2  0  0  0  0
  3  5  1  0  0  0  0
  5  6  1  0  0  0  0
  5 26  1  0  0  0  0
  5 27  1  0  0  0  0
  6 22  1  0  0  0  0
  6  7  1  0  0  0  0
  6 45  1  0  0  0  0
  7  8  1  0  0  0  0
  7 28  1  0  0  0  0
  7 29  1  0  0  0  0
  8  9  1  0  0  0  0
  8 30  1  0  0  0  0
  8 31  1  0  0  0  0
  9 10  1  0  0  0  0
  9 21  1  0  0  0  0
  9 32  1  0  0  0  0
 10 11  1  0  0  0  0
 10 33  1  0  0  0  0
 11 12  2  0  0  0  0
 11 13  1  0  0  0  0
 13 14  1  0  0  0  0
 13 34  1  0  0  0  0
 14 19  1  0  0  0  0
 14 15  2  0  0  0  0
 15 16  1  0  0  0  0
 16 17  2  0  0  0  0
 16 35  1  0  0  0  0
 17 18  1  0  0  0  0
 17 36  1  0  0  0  0
 18 19  2  0  0  0  0
 18 37  1  0  0  0  0
 19 20  1  0  0  0  0
 20 38  1  0  0  0  0
 20 39  1  0  0  0  0
 20 40  1  0  0  0  0
 21 22  1  0  0  0  0
 21 41  1  0  0  0  0
 21 42  1  0  0  0  0
 22 43  1  0  0  0  0
 22 44  1  0  0  0  0
M  CHG  1   2  -1
M  CHG  1   6   1
M  END
> <s_m_source_file>
AV-unprocessed.smi

> <i_m_source_file_index>
1388

> <i_lp_mmshare_version>
43012

> <i_f3d_flags>
0

> <s_epik_input>
W0NIM11bTkhdQyg9TylbQ0gyXU4xW0NIMl1bQ0gyXVtDSF0oW0NIMl1bQ0gyXTEpW05IXUMoPU8pW05IXWMybltjSF1bY0hdW2NIXWMyW0NIM10=

> <s_epik_cmdline>
J2VwaWtfcHl0aG9uJywgJy1waCcsICc3LjAnLCAnLXRuJywgJzgnLCAnLW1hJywgJzIwMCcsICctbWV0YWxfYmluZGluZycsICctaW1hZScsICc8aW5maWxlLm1hZT4nLCAnLW9tYWUnLCAnPG91dGZpbGUubWFlPic=

> <r_epik_Ionization_Penalty>
6.13951

> <r_epik_Ionization_Penalty_Charging>
6.13946

> <r_epik_Ionization_Penalty_Neutral>
4.54304e-05

> <r_epik_State_Penalty>
6.9595

> <r_epik_Charging_Adjusted_Penalty>
13.099

> <i_epik_Tot_Q>
0

> <i_epik_Tot_abs_Q>
2

> <r_epik_Metal_State_Penalty>
2.89141

> <b_epik_Metal_Only>
1

> <s_lp_Force_Field>
OPLS_2005

> <r_lp_Energy>
12.447

> <b_lp_Chiralities_Consistent>
1

> <s_lp_Variant>
AV-unprocessed.smi:1388-4

> <Gold.Version>
5.8.1

> <Gold.Id.Protein>
6NUR|6NUR_protein|mol2

> <Gold.PLP.Fitness>
36.9543

> <Gold.PLP.PLP>
-29.8723

> <Gold.PLP.part.hbond>
-1.0000

> <Gold.PLP.part.metal>
0.0000

> <Gold.PLP.part.buried>
-3.9125

> <Gold.PLP.part.nonpolar>
-27.2406

> <Gold.PLP.part.repulsive>
2.3819

> <Gold.PLP.ligand.clash>
0.0000

> <Gold.PLP.ligand.torsion>
0.1390

> <Gold.PLP.Chemscore.Hbond>
2.0000

> <Gold.PLP.Chemscore.CHOScore>
0.4305

> <Gold.PLP.Chemscore.Metal>
0.0000

> <Gold.Chemscore.Hbonds>
donor molecule, donor type, donor heavy atom, donor atom, acceptor molecule, acceptor atom, score
      L1  H     6    45       P1  7948  2.00
      L1  C    16    35       P1  8028  0.46

> <Gold.PLP.Chemscore.Internal.Correction>
0.0686

> <Gold.Rescore>
     Score         DG    S(hbond)    S(metal)    S(lipo)     H(rot)  DE(clash)    DE(int)     intcor
     10.81     -13.99       1.00        0.00      79.84       1.63       0.18       2.99       ----

> <Gold.Chemscore.Fitness>
10.8145

> <Gold.Chemscore.DG>
-13.9866

> <Gold.Chemscore.ZeroCoef>
-5.4800

> <Gold.Chemscore.Hbond>
0.9997

> <Gold.Chemscore.Metal>
0.0000

> <Gold.Chemscore.Lipo>
79.8377

> <Gold.Chemscore.Internal_Hbond>
0.0000

> <Gold.Chemscore.DEClash>
0.1811

> <Gold.Chemscore.DEInternal>
2.9910

> <Gold.Chemscore.Rot>
1.6303

> <Gold.Chemscore.Internal.Correction>
   9.000000E+99

> <Gold.Chemscore.Hbonds>
donor molecule, donor type, donor heavy atom, donor atom, acceptor molecule, acceptor atom, score
      L1  H     6    45       P1  7948  1.00

> <Gold.Chemscore.Hbond.Weighted>
-3.3391

> <Gold.Chemscore.Metal.Weighted>
-0.0000

> <Gold.Chemscore.Lipo.Weighted>
-9.3410

> <Gold.Chemscore.Internal_Hbond.Weighted>
0.0000

> <Gold.Chemscore.DEClash.Weighted>
0.1811

> <Gold.Chemscore.DEInternal.Weighted>
2.9910

> <Gold.Chemscore.Rot.Weighted>
4.1735

> <Gold.Chemscore.Internal.Correction.Weighted>
   9.000000E+99

> <Gold.Protein.RotatedTorsions>
[ 6907 6896 6895 6894 ] final  -79.89 input  -60.11 | X-H torsion
[ 7974 7965 7964 7962 ] final  119.08 input  175.53 | X-H torsion
[ 8008 7997 7996 7995 ] final   30.58 input   59.86 | X-H torsion
[ 10167 10162 10161 10158 ] final  151.55 input  -65.29 | X-H torsion
[ 10718 10713 10712 10709 ] final -177.81 input   66.30 | X-H torsion
[ 10763 10752 10751 10750 ] final   -5.59 input  -60.55 | X-H torsion
[ 11005 11000 10999 10996 ] final   72.35 input  -57.11 | X-H torsion

> <Gold.Protein.ActiveResidues>
 VAL166  LYS551  ARG553  GLY616  TRP617  ASP618  TYR619  PRO620  LYS621  CYS622 
 ASP623  PHE694  ASN695  SER759  ASP760  ASP761  ALA762  ILE779  LEU786  VAL792 
 PHE793  MET794  SER795  GLU796  ALA797  LYS798  CYS799  TRP800  GLU811  SER814 

> <Gold.Protein.RotatedAtoms>
  150.6940  134.4053  159.5136 H   0  0  0  0  0  0  0  0  0  0  0  0  # atno 6907 bound_to 6896
  152.1820  134.8743  160.0534 H   0  0  0  0  0  0  0  0  0  0  0  0  # atno 6908 bound_to 6896
  151.9730  133.3697  159.4115 H   0  0  0  0  0  0  0  0  0  0  0  0  # atno 6909 bound_to 6896
  145.1475  139.3231  143.4584 H   0  0  0  0  0  0  0  0  0  0  0  0  # atno 7974 bound_to 7965
  155.0927  140.3221  155.4569 H   0  0  0  0  0  0  0  0  0  0  0  0  # atno 8008 bound_to 7997
  156.2738  140.2075  156.6000 H   0  0  0  0  0  0  0  0  0  0  0  0  # atno 8009 bound_to 7997
  154.6891  140.0518  157.0332 H   0  0  0  0  0  0  0  0  0  0  0  0  # atno 8010 bound_to 7997
  139.4840  144.5432  151.7529 H   0  0  0  0  0  0  0  0  0  0  0  0  # atno 10167 bound_to 10162
  156.8350  130.9666  151.3104 H   0  0  0  0  0  0  0  0  0  0  0  0  # atno 10718 bound_to 10713
  153.4006  135.7005  153.6429 H   0  0  0  0  0  0  0  0  0  0  0  0  # atno 10763 bound_to 10752
  153.4964  135.3661  155.2518 H   0  0  0  0  0  0  0  0  0  0  0  0  # atno 10764 bound_to 10752
  154.8710  135.4101  154.3340 H   0  0  0  0  0  0  0  0  0  0  0  0  # atno 10765 bound_to 10752
  139.9495  134.7252  156.0896 H   0  0  0  0  0  0  0  0  0  0  0  0  # atno 11005 bound_to 11000
  146.3498  140.1536  142.8592 LP  0  0  0  0  0  0  0  0  0  0  0  0  # atno 17320 bound_to 7965
  145.0467  140.8986  143.5020 LP  0  0  0  0  0  0  0  0  0  0  0  0  # atno 17321 bound_to 7965
  140.4974  144.1220  150.5963 LP  0  0  0  0  0  0  0  0  0  0  0  0  # atno 17342 bound_to 10162
  140.4101  143.2661  151.9843 LP  0  0  0  0  0  0  0  0  0  0  0  0  # atno 17343 bound_to 10162
  157.6386  130.8787  149.9406 LP  0  0  0  0  0  0  0  0  0  0  0  0  # atno 17370 bound_to 10713
  156.0913  130.3663  150.0390 LP  0  0  0  0  0  0  0  0  0  0  0  0  # atno 17371 bound_to 10713
  141.1155  133.6629  156.3083 LP  0  0  0  0  0  0  0  0  0  0  0  0  # atno 17394 bound_to 11000
  140.5752  134.5800  157.5467 LP  0  0  0  0  0  0  0  0  0  0  0  0  # atno 17395 bound_to 11000

$$$$
