AV-unprocessed.smi:1535|AV-procd|sdf|6173|dock7
  -GOLD-   22720 6323D 1   1.00000     0.00000
 Structure written by MMmdl.
 46 47  0  0  0  0  0  0  0  0  1 V2000
  153.3010  142.2848  161.7857 C   0  0  0  0  0  0  0  0  0  0  0  0
  152.7014  142.1201  160.4005 C   0  0  0  0  0  0  0  0  0  0  0  0
  152.9938  140.9529  159.6598 C   0  0  0  0  0  0  0  0  0  0  0  0
  152.4546  140.7600  158.3690 C   0  0  0  0  0  0  0  0  0  0  0  0
  152.6058  139.7095  157.4804 N   0  0  0  0  0  0  0  0  0  0  0  0
  151.8577  140.1142  156.4582 C   0  0  0  0  0  0  0  0  0  0  0  0
  151.2400  141.3048  156.5784 N   0  0  0  0  0  0  0  0  0  0  0  0
  150.3781  141.9409  155.5977 C   0  0  0  0  0  0  0  0  0  0  0  0
  148.9485  141.3668  155.6101 C   0  0  1  0  0  0  0  0  0  0  0  0
  148.0824  142.2627  154.9406 O   0  0  0  0  0  0  0  0  0  0  0  0
  148.8843  139.9957  154.9040 C   0  0  0  0  0  0  0  0  0  0  0  0
  149.5502  138.8874  155.5951 N   0  0  0  0  0  0  0  0  0  0  0  0
  149.0350  138.7736  156.9555 C   0  0  0  0  0  0  0  0  0  0  0  0
  149.4090  137.6177  154.8729 C   0  0  0  0  0  0  0  0  0  0  0  0
  150.0113  136.3859  155.5761 C   0  0  1  0  0  0  0  0  0  0  0  0
  149.8108  135.1177  154.7371 C   0  0  0  0  0  0  0  0  0  0  0  0
  151.4376  136.5813  155.8856 C   0  0  0  0  0  0  0  0  0  0  0  0
  152.5583  136.7343  156.1295 N   0  0  0  0  0  0  0  0  0  0  0  0
  151.6080  141.7751  157.8346 C   0  0  0  0  0  0  0  0  0  0  0  0
  151.3107  142.9414  158.5615 C   0  0  0  0  0  0  0  0  0  0  0  0
  151.8587  143.1186  159.8493 C   0  0  0  0  0  0  0  0  0  0  0  0
  151.5318  144.3819  160.6259 C   0  0  0  0  0  0  0  0  0  0  0  0
  153.8824  141.4088  162.0747 H   0  0  0  0  0  0  0  0  0  0  0  0
  152.5158  142.4237  162.5291 H   0  0  0  0  0  0  0  0  0  0  0  0
  153.9629  143.1506  161.8143 H   0  0  0  0  0  0  0  0  0  0  0  0
  153.6364  140.1924  160.0785 H   0  0  0  0  0  0  0  0  0  0  0  0
  151.7503  139.5100  155.5692 H   0  0  0  0  0  0  0  0  0  0  0  0
  150.3644  143.0156  155.7847 H   0  0  0  0  0  0  0  0  0  0  0  0
  150.8279  141.8030  154.6136 H   0  0  0  0  0  0  0  0  0  0  0  0
  148.6245  141.2923  156.6468 H   0  0  0  0  0  0  0  0  0  0  0  0
  148.1573  143.1131  155.3453 H   0  0  0  0  0  0  0  0  0  0  0  0
  147.8310  139.7508  154.7571 H   0  0  0  0  0  0  0  0  0  0  0  0
  149.3043  140.0884  153.9011 H   0  0  0  0  0  0  0  0  0  0  0  0
  149.5905  138.0342  157.5309 H   0  0  0  0  0  0  0  0  0  0  0  0
  147.9815  138.4903  156.9572 H   0  0  0  0  0  0  0  0  0  0  0  0
  149.1309  139.7213  157.4866 H   0  0  0  0  0  0  0  0  0  0  0  0
  148.3534  137.4349  154.6657 H   0  0  0  0  0  0  0  0  0  0  0  0
  149.8922  137.6883  153.9005 H   0  0  0  0  0  0  0  0  0  0  0  0
  149.5108  136.2246  156.5299 H   0  0  0  0  0  0  0  0  0  0  0  0
  150.2124  134.2435  155.2499 H   0  0  0  0  0  0  0  0  0  0  0  0
  150.3143  135.1982  153.7731 H   0  0  0  0  0  0  0  0  0  0  0  0
  148.7528  134.9336  154.5484 H   0  0  0  0  0  0  0  0  0  0  0  0
  150.6645  143.6923  158.1319 H   0  0  0  0  0  0  0  0  0  0  0  0
  150.9177  145.0636  160.0368 H   0  0  0  0  0  0  0  0  0  0  0  0
  152.4449  144.9098  160.9013 H   0  0  0  0  0  0  0  0  0  0  0  0
  150.9839  144.1379  161.5361 H   0  0  0  0  0  0  0  0  0  0  0  0
  1  2  1  0  0  0  0
  1 23  1  0  0  0  0
  1 24  1  0  0  0  0
  1 25  1  0  0  0  0
  2 21  1  0  0  0  0
  2  3  2  0  0  0  0
  3  4  1  0  0  0  0
  3 26  1  0  0  0  0
  4 19  2  0  0  0  0
  4  5  1  0  0  0  0
  5  6  2  0  0  0  0
  6  7  1  0  0  0  0
  6 27  1  0  0  0  0
  7  8  1  0  0  0  0
  7 19  1  0  0  0  0
  8  9  1  0  0  0  0
  8 28  1  0  0  0  0
  8 29  1  0  0  0  0
  9 10  1  0  0  0  0
  9 11  1  0  0  0  0
  9 30  1  0  0  0  0
 10 31  1  0  0  0  0
 11 12  1  0  0  0  0
 11 32  1  0  0  0  0
 11 33  1  0  0  0  0
 12 13  1  0  0  0  0
 12 14  1  0  0  0  0
 13 34  1  0  0  0  0
 13 35  1  0  0  0  0
 13 36  1  0  0  0  0
 14 15  1  0  0  0  0
 14 37  1  0  0  0  0
 14 38  1  0  0  0  0
 15 16  1  0  0  0  0
 15 17  1  0  0  0  0
 15 39  1  0  0  0  0
 16 40  1  0  0  0  0
 16 41  1  0  0  0  0
 16 42  1  0  0  0  0
 17 18  3  0  0  0  0
 19 20  1  0  0  0  0
 20 21  2  0  0  0  0
 20 43  1  0  0  0  0
 21 22  1  0  0  0  0
 22 44  1  0  0  0  0
 22 45  1  0  0  0  0
 22 46  1  0  0  0  0
M  END
> <s_m_source_file>
AV-unprocessed.smi

> <i_m_source_file_index>
1535

> <i_lp_mmshare_version>
43012

> <i_f3d_flags>
0

> <s_epik_input>
W0NIM11jKFtjSF0xKWMoW0NIM10pW2NIXWMoYzEyKW4oW2NIXW4yKVtDSDJdW0NASF0oW09IXSlbQ0gyXU4oW0NIM10pW0NIMl1bQ0BIXShbQ0gzXSlDI04=

> <s_epik_cmdline>
J2VwaWtfcHl0aG9uJywgJy1waCcsICc3LjAnLCAnLXRuJywgJzgnLCAnLW1hJywgJzIwMCcsICctbWV0YWxfYmluZGluZycsICctaW1hZScsICc8aW5maWxlLm1hZT4nLCAnLW9tYWUnLCAnPG91dGZpbGUubWFlPic=

> <r_epik_Ionization_Penalty>
0.098511

> <r_epik_Ionization_Penalty_Charging>
0

> <r_epik_Ionization_Penalty_Neutral>
0.098511

> <r_epik_State_Penalty>
0.0881608

> <r_epik_Charging_Adjusted_Penalty>
0.0881608

> <i_epik_Tot_Q>
0

> <i_epik_Tot_abs_Q>
0

> <r_epik_Metal_State_Penalty>
0.0128087

> <b_epik_Metal_Only>
0

> <s_lp_Force_Field>
OPLS_2005

> <r_lp_Energy>
24.0286

> <b_lp_Chiralities_Consistent>
1

> <s_lp_Variant>
AV-unprocessed.smi:1535-4

> <Gold.Version>
5.8.1

> <Gold.Id.Protein>
6NUR|6NUR_protein|mol2

> <Gold.PLP.Fitness>
48.4226

> <Gold.PLP.PLP>
-40.3081

> <Gold.PLP.part.hbond>
-3.0000

> <Gold.PLP.part.metal>
0.0000

> <Gold.PLP.part.buried>
-4.9989

> <Gold.PLP.part.nonpolar>
-31.2298

> <Gold.PLP.part.repulsive>
0.0256

> <Gold.PLP.ligand.clash>
0.0000

> <Gold.PLP.ligand.torsion>
0.4861

> <Gold.PLP.Chemscore.Hbond>
3.0000

> <Gold.PLP.Chemscore.CHOScore>
0.0000

> <Gold.PLP.Chemscore.Metal>
0.0000

> <Gold.Chemscore.Hbonds>
donor molecule, donor type, donor heavy atom, donor atom, acceptor molecule, acceptor atom, score
      L1  H    10    31       P1  8028  1.00
      P1  H  7997  8009       L1     5  0.95
      P1  H 10752 10763       L1    18  0.94

> <Gold.PLP.Chemscore.Internal.Correction>
0.0867

> <Gold.Rescore>
     Score         DG    S(hbond)    S(metal)    S(lipo)     H(rot)  DE(clash)    DE(int)     intcor
     17.84     -18.98       2.29        0.00     104.88       2.51       0.34       0.79       ----

> <Gold.Chemscore.Fitness>
17.8417

> <Gold.Chemscore.DG>
-18.9787

> <Gold.Chemscore.ZeroCoef>
-5.4800

> <Gold.Chemscore.Hbond>
2.2924

> <Gold.Chemscore.Metal>
0.0000

> <Gold.Chemscore.Lipo>
104.8815

> <Gold.Chemscore.Internal_Hbond>
0.0000

> <Gold.Chemscore.DEClash>
0.3423

> <Gold.Chemscore.DEInternal>
0.7947

> <Gold.Chemscore.Rot>
2.5113

> <Gold.Chemscore.Internal.Correction>
   9.000000E+99

> <Gold.Chemscore.Hbonds>
donor molecule, donor type, donor heavy atom, donor atom, acceptor molecule, acceptor atom, score
      L1  H    10    31       P1  8028  0.92
      P1  H  7997  8009       L1     5  0.10
      P1  H 10752 10763       L1    18  0.27

> <Gold.Chemscore.Hbond.Weighted>
-7.6565

> <Gold.Chemscore.Metal.Weighted>
-0.0000

> <Gold.Chemscore.Lipo.Weighted>
-12.2711

> <Gold.Chemscore.Internal_Hbond.Weighted>
0.0000

> <Gold.Chemscore.DEClash.Weighted>
0.3423

> <Gold.Chemscore.DEInternal.Weighted>
0.7947

> <Gold.Chemscore.Rot.Weighted>
6.4289

> <Gold.Chemscore.Internal.Correction.Weighted>
   9.000000E+99

> <Gold.Protein.RotatedTorsions>
[ 6907 6896 6895 6894 ] final  -96.91 input  -60.11 | X-H torsion
[ 7974 7965 7964 7962 ] final -167.92 input  175.53 | X-H torsion
[ 8008 7997 7996 7995 ] final  162.03 input   59.86 | X-H torsion
[ 10167 10162 10161 10158 ] final   73.59 input  -65.29 | X-H torsion
[ 10718 10713 10712 10709 ] final  113.60 input   66.30 | X-H torsion
[ 10763 10752 10751 10750 ] final   99.93 input  -60.55 | X-H torsion
[ 11005 11000 10999 10996 ] final  -15.65 input  -57.11 | X-H torsion

> <Gold.Protein.ActiveResidues>
 VAL166  LYS551  ARG553  GLY616  TRP617  ASP618  TYR619  PRO620  LYS621  CYS622 
 ASP623  PHE694  ASN695  SER759  ASP760  ASP761  ALA762  ILE779  LEU786  VAL792 
 PHE793  MET794  SER795  GLU796  ALA797  LYS798  CYS799  TRP800  GLU811  SER814 

> <Gold.Protein.RotatedAtoms>
  150.7001  134.1430  159.4111 H   0  0  0  0  0  0  0  0  0  0  0  0  # atno 6907 bound_to 6896
  151.9414  135.0209  160.0545 H   0  0  0  0  0  0  0  0  0  0  0  0  # atno 6908 bound_to 6896
  152.2090  133.4862  159.5136 H   0  0  0  0  0  0  0  0  0  0  0  0  # atno 6909 bound_to 6896
  144.7213  140.2446  143.6287 H   0  0  0  0  0  0  0  0  0  0  0  0  # atno 7974 bound_to 7965
  156.2061  140.1761  156.7796 H   0  0  0  0  0  0  0  0  0  0  0  0  # atno 8008 bound_to 7997
  154.5657  140.0691  156.8918 H   0  0  0  0  0  0  0  0  0  0  0  0  # atno 8009 bound_to 7997
  155.2765  140.3346  155.4264 H   0  0  0  0  0  0  0  0  0  0  0  0  # atno 8010 bound_to 7997
  140.0228  144.5527  150.7568 H   0  0  0  0  0  0  0  0  0  0  0  0  # atno 10167 bound_to 10162
  157.6329  131.0986  150.7064 H   0  0  0  0  0  0  0  0  0  0  0  0  # atno 10718 bound_to 10713
  153.3075  135.4096  155.1307 H   0  0  0  0  0  0  0  0  0  0  0  0  # atno 10763 bound_to 10752
  154.8567  135.3556  154.5768 H   0  0  0  0  0  0  0  0  0  0  0  0  # atno 10764 bound_to 10752
  153.6195  135.7065  153.5374 H   0  0  0  0  0  0  0  0  0  0  0  0  # atno 10765 bound_to 10752
  140.7988  133.8230  155.9450 H   0  0  0  0  0  0  0  0  0  0  0  0  # atno 11005 bound_to 11000
  145.8286  139.2076  143.1896 LP  0  0  0  0  0  0  0  0  0  0  0  0  # atno 17320 bound_to 7965
  146.0451  140.8126  142.9809 LP  0  0  0  0  0  0  0  0  0  0  0  0  # atno 17321 bound_to 7965
  140.7335  143.2718  151.3865 LP  0  0  0  0  0  0  0  0  0  0  0  0  # atno 17342 bound_to 10162
  139.6128  144.1063  152.2316 LP  0  0  0  0  0  0  0  0  0  0  0  0  # atno 17343 bound_to 10162
  156.7400  130.4736  149.5479 LP  0  0  0  0  0  0  0  0  0  0  0  0  # atno 17370 bound_to 10713
  156.1546  130.6333  151.0640 LP  0  0  0  0  0  0  0  0  0  0  0  0  # atno 17371 bound_to 10713
  140.9315  134.2015  157.4860 LP  0  0  0  0  0  0  0  0  0  0  0  0  # atno 17394 bound_to 11000
  139.8723  134.9835  156.5199 LP  0  0  0  0  0  0  0  0  0  0  0  0  # atno 17395 bound_to 11000

$$$$
