AV-unprocessed.smi:236|AV-procd|sdf|1811|dock3
  -GOLD-   2262020393D 1   1.00000     0.00000
 Structure written by MMmdl.
 58 62  0  0  0  0  0  0  0  0  1 V2000
  146.1088  137.2820  162.4847 C   0  0  0  0  0  0  0  0  0  0  0  0
  145.6634  135.9237  161.9201 C   0  0  2  0  0  0  0  0  0  0  0  0
  144.6238  135.3892  162.7314 O   0  0  0  0  0  0  0  0  0  0  0  0
  144.6222  133.9829  162.5662 C   0  0  0  0  0  0  0  0  0  0  0  0
  146.1062  133.6542  162.6072 C   0  0  0  0  0  0  0  0  0  0  0  0
  146.7445  134.8108  161.8323 C   0  0  2  0  0  0  0  0  0  0  0  0
  147.9470  135.1731  162.4908 O   0  0  0  0  0  0  0  0  0  0  0  0
  147.0748  134.4721  160.3552 C   0  0  0  0  0  0  0  0  0  0  0  0
  147.9030  135.4621  159.6819 N   0  0  0  0  0  0  0  0  0  0  0  0
  147.9875  136.8055  159.9731 C   0  0  0  0  0  0  0  0  0  0  0  0
  148.7994  137.4903  159.2146 N   0  0  0  0  0  0  0  0  0  0  0  0
  149.3027  136.5508  158.3227 C   0  0  0  0  0  0  0  0  0  0  0  0
  150.2166  136.6010  157.2324 C   0  0  0  0  0  0  0  0  0  0  0  0
  150.8474  137.7139  156.8042 N   0  0  0  0  0  0  0  0  0  0  0  0
  151.3052  137.6304  155.4239 C   0  0  0  0  0  0  0  0  0  0  0  0
  152.1374  138.8750  155.0755 C   0  0  0  0  0  0  0  0  0  0  0  0
  151.3697  140.0461  155.3373 O   0  0  0  0  0  0  0  0  0  0  0  0
  151.0060  140.1649  156.7120 C   0  0  1  0  0  0  0  0  0  0  0  0
  150.2510  141.4873  156.8974 C   0  0  0  0  0  0  0  0  0  0  0  0
  150.6025  142.0510  158.1502 O   0  0  0  0  0  0  0  0  0  0  0  0
  150.0555  143.3445  158.3400 C   0  0  0  0  0  0  0  0  0  0  0  0
  151.1104  144.3800  158.0130 C   0  0  0  0  0  0  0  0  0  0  0  0
  152.5115  144.2654  158.5712 C   0  0  0  0  0  0  0  0  0  0  0  0
  151.5861  145.3414  159.0787 C   0  0  0  0  0  0  0  0  0  0  0  0
  150.1337  138.9518  157.0904 C   0  0  0  0  0  0  0  0  0  0  0  0
  150.4723  135.4515  156.5616 N   0  0  0  0  0  0  0  0  0  0  0  0
  149.8734  134.3157  156.9317 C   0  0  0  0  0  0  0  0  0  0  0  0
  149.0027  134.1148  157.9235 N   0  0  0  0  0  0  0  0  0  0  0  0
  148.7445  135.2714  158.5996 C   0  0  0  0  0  0  0  0  0  0  0  0
  146.9060  137.7162  161.8807 H   0  0  0  0  0  0  0  0  0  0  0  0
  146.4709  137.1901  163.5091 H   0  0  0  0  0  0  0  0  0  0  0  0
  145.2784  137.9880  162.4924 H   0  0  0  0  0  0  0  0  0  0  0  0
  145.2301  136.0902  160.9326 H   0  0  0  0  0  0  0  0  0  0  0  0
  144.0574  133.4837  163.3536 H   0  0  0  0  0  0  0  0  0  0  0  0
  144.1858  133.7195  161.6013 H   0  0  0  0  0  0  0  0  0  0  0  0
  146.4301  133.6639  163.6494 H   0  0  0  0  0  0  0  0  0  0  0  0
  146.3272  132.6641  162.2123 H   0  0  0  0  0  0  0  0  0  0  0  0
  148.6715  134.9878  161.9133 H   0  0  0  0  0  0  0  0  0  0  0  0
  147.5840  133.5092  160.2966 H   0  0  0  0  0  0  0  0  0  0  0  0
  146.1524  134.3606  159.7835 H   0  0  0  0  0  0  0  0  0  0  0  0
  147.4254  137.2649  160.7735 H   0  0  0  0  0  0  0  0  0  0  0  0
  151.9027  136.7285  155.2831 H   0  0  0  0  0  0  0  0  0  0  0  0
  150.4485  137.5597  154.7523 H   0  0  0  0  0  0  0  0  0  0  0  0
  153.0647  138.8980  155.6500 H   0  0  0  0  0  0  0  0  0  0  0  0
  152.4152  138.8592  154.0215 H   0  0  0  0  0  0  0  0  0  0  0  0
  151.9034  140.1748  157.3338 H   0  0  0  0  0  0  0  0  0  0  0  0
  150.4799  142.1749  156.0815 H   0  0  0  0  0  0  0  0  0  0  0  0
  149.1753  141.3046  156.8815 H   0  0  0  0  0  0  0  0  0  0  0  0
  149.2000  143.4921  157.6791 H   0  0  0  0  0  0  0  0  0  0  0  0
  149.7127  143.4740  159.3680 H   0  0  0  0  0  0  0  0  0  0  0  0
  151.0199  144.7990  157.0125 H   0  0  0  0  0  0  0  0  0  0  0  0
  152.7268  143.4332  159.2383 H   0  0  0  0  0  0  0  0  0  0  0  0
  153.3338  144.5710  157.9274 H   0  0  0  0  0  0  0  0  0  0  0  0
  151.7916  146.3658  158.7749 H   0  0  0  0  0  0  0  0  0  0  0  0
  151.1840  145.2252  160.0831 H   0  0  0  0  0  0  0  0  0  0  0  0
  149.1986  138.9807  156.5300 H   0  0  0  0  0  0  0  0  0  0  0  0
  149.8771  138.9900  158.1500 H   0  0  0  0  0  0  0  0  0  0  0  0
  150.1264  133.4428  156.3482 H   0  0  0  0  0  0  0  0  0  0  0  0
  1  2  1  0  0  0  0
  1 30  1  0  0  0  0
  1 31  1  0  0  0  0
  1 32  1  0  0  0  0
  2  6  1  0  0  0  0
  2  3  1  0  0  0  0
  2 33  1  0  0  0  0
  3  4  1  0  0  0  0
  4  5  1  0  0  0  0
  4 34  1  0  0  0  0
  4 35  1  0  0  0  0
  5  6  1  0  0  0  0
  5 36  1  0  0  0  0
  5 37  1  0  0  0  0
  6  7  1  0  0  0  0
  6  8  1  0  0  0  0
  7 38  1  0  0  0  0
  8  9  1  0  0  0  0
  8 39  1  0  0  0  0
  8 40  1  0  0  0  0
  9 29  1  0  0  0  0
  9 10  1  0  0  0  0
 10 11  2  0  0  0  0
 10 41  1  0  0  0  0
 11 12  1  0  0  0  0
 12 29  2  0  0  0  0
 12 13  1  0  0  0  0
 13 14  1  0  0  0  0
 13 26  2  0  0  0  0
 14 25  1  0  0  0  0
 14 15  1  0  0  0  0
 15 16  1  0  0  0  0
 15 42  1  0  0  0  0
 15 43  1  0  0  0  0
 16 17  1  0  0  0  0
 16 44  1  0  0  0  0
 16 45  1  0  0  0  0
 17 18  1  0  0  0  0
 18 19  1  0  0  0  0
 18 25  1  0  0  0  0
 18 46  1  0  0  0  0
 19 20  1  0  0  0  0
 19 47  1  0  0  0  0
 19 48  1  0  0  0  0
 20 21  1  0  0  0  0
 21 22  1  0  0  0  0
 21 49  1  0  0  0  0
 21 50  1  0  0  0  0
 22 24  1  0  0  0  0
 22 23  1  0  0  0  0
 22 51  1  0  0  0  0
 23 24  1  0  0  0  0
 23 52  1  0  0  0  0
 23 53  1  0  0  0  0
 24 54  1  0  0  0  0
 24 55  1  0  0  0  0
 25 56  1  0  0  0  0
 25 57  1  0  0  0  0
 26 27  1  0  0  0  0
 27 28  2  0  0  0  0
 27 58  1  0  0  0  0
 28 29  1  0  0  0  0
M  END
> <s_m_source_file>
AV-unprocessed.smi

> <i_m_source_file_index>
236

> <i_lp_mmshare_version>
43012

> <i_f3d_flags>
0

> <s_epik_input>
W0NIMl0xW0NIMl1PW0NAQEhdKFtDSDNdKVtDQEBdMShbT0hdKVtDSDJdbihbY0hdbjIpYyhjMjMpbltjSF1uYzNONFtDSDJdW0NIMl1PW0NASF0oW0NIMl00KVtDSDJdT1tDSDJdW0NIXTVbQ0gyXVtDSDJdNQ==

> <s_epik_cmdline>
J2VwaWtfcHl0aG9uJywgJy1waCcsICc3LjAnLCAnLXRuJywgJzgnLCAnLW1hJywgJzIwMCcsICctbWV0YWxfYmluZGluZycsICctaW1hZScsICc8aW5maWxlLm1hZT4nLCAnLW9tYWUnLCAnPG91dGZpbGUubWFlPic=

> <r_lp_tautomer_probability>
1

> <r_epik_Ionization_Penalty>
7.21838e-05

> <r_epik_Ionization_Penalty_Charging>
0

> <r_epik_Ionization_Penalty_Neutral>
7.21838e-05

> <r_epik_State_Penalty>
-0

> <r_epik_Charging_Adjusted_Penalty>
0

> <i_epik_Tot_Q>
0

> <i_epik_Tot_abs_Q>
0

> <r_epik_Metal_State_Penalty>
-0

> <b_epik_Metal_Only>
0

> <s_lp_Force_Field>
OPLS_2005

> <r_lp_Energy>
49.5811

> <b_lp_Chiralities_Consistent>
1

> <s_lp_Variant>
AV-unprocessed.smi:236-3

> <Gold.Version>
5.8.1

> <Gold.Id.Protein>
6NUR|6NUR_protein|mol2

> <Gold.PLP.Fitness>
45.4620

> <Gold.PLP.PLP>
-46.2863

> <Gold.PLP.part.hbond>
-1.2792

> <Gold.PLP.part.metal>
0.0000

> <Gold.PLP.part.buried>
-6.9620

> <Gold.PLP.part.nonpolar>
-38.5194

> <Gold.PLP.part.repulsive>
0.1003

> <Gold.PLP.ligand.clash>
0.0000

> <Gold.PLP.ligand.torsion>
2.3548

> <Gold.PLP.Chemscore.Hbond>
1.0028

> <Gold.PLP.Chemscore.CHOScore>
0.0000

> <Gold.PLP.Chemscore.Metal>
0.0000

> <Gold.Chemscore.Hbonds>
donor molecule, donor type, donor heavy atom, donor atom, acceptor molecule, acceptor atom, score
      P1  H  7989  7998       L1    17  0.75

> <Gold.PLP.Chemscore.Internal.Correction>
0.8767

> <Gold.Rescore>
     Score         DG    S(hbond)    S(metal)    S(lipo)     H(rot)  DE(clash)    DE(int)     intcor
     11.83     -15.36       0.88        0.00     122.01       2.87       0.08       3.44       ----

> <Gold.Chemscore.Fitness>
11.8347

> <Gold.Chemscore.DG>
-15.3592

> <Gold.Chemscore.ZeroCoef>
-5.4800

> <Gold.Chemscore.Hbond>
0.8803

> <Gold.Chemscore.Metal>
0.0000

> <Gold.Chemscore.Lipo>
122.0063

> <Gold.Chemscore.Internal_Hbond>
0.0000

> <Gold.Chemscore.DEClash>
0.0827

> <Gold.Chemscore.DEInternal>
3.4418

> <Gold.Chemscore.Rot>
2.8655

> <Gold.Chemscore.Internal.Correction>
   9.000000E+99

> <Gold.Chemscore.Hbonds>
donor molecule, donor type, donor heavy atom, donor atom, acceptor molecule, acceptor atom, score
      P1  H  7989  7998       L1    17  0.09

> <Gold.Chemscore.Hbond.Weighted>
-2.9403

> <Gold.Chemscore.Metal.Weighted>
-0.0000

> <Gold.Chemscore.Lipo.Weighted>
-14.2747

> <Gold.Chemscore.Internal_Hbond.Weighted>
0.0000

> <Gold.Chemscore.DEClash.Weighted>
0.0827

> <Gold.Chemscore.DEInternal.Weighted>
3.4418

> <Gold.Chemscore.Rot.Weighted>
7.3358

> <Gold.Chemscore.Internal.Correction.Weighted>
   9.000000E+99

> <Gold.Protein.RotatedTorsions>
[ 6907 6896 6895 6894 ] final   21.79 input  -60.11 | X-H torsion
[ 7974 7965 7964 7962 ] final  -66.95 input  175.53 | X-H torsion
[ 8008 7997 7996 7995 ] final  142.08 input   59.86 | X-H torsion
[ 10167 10162 10161 10158 ] final -151.40 input  -65.29 | X-H torsion
[ 10718 10713 10712 10709 ] final   38.55 input   66.30 | X-H torsion
[ 10763 10752 10751 10750 ] final  177.36 input  -60.55 | X-H torsion
[ 11005 11000 10999 10996 ] final   87.64 input  -57.11 | X-H torsion

> <Gold.Protein.ActiveResidues>
 VAL166  LYS551  ARG553  GLY616  TRP617  ASP618  TYR619  PRO620  LYS621  CYS622 
 ASP623  PHE694  ASN695  SER759  ASP760  ASP761  ALA762  ILE779  LEU786  VAL792 
 PHE793  MET794  SER795  GLU796  ALA797  LYS798  CYS799  TRP800  GLU811  SER814 

> <Gold.Protein.RotatedAtoms>
  151.9172  135.0314  160.0518 H   0  0  0  0  0  0  0  0  0  0  0  0  # atno 6907 bound_to 6896
  152.2230  133.4994  159.5181 H   0  0  0  0  0  0  0  0  0  0  0  0  # atno 6908 bound_to 6896
  150.7005  134.1234  159.4086 H   0  0  0  0  0  0  0  0  0  0  0  0  # atno 6909 bound_to 6896
  145.7353  140.8978  143.0558 H   0  0  0  0  0  0  0  0  0  0  0  0  # atno 7974 bound_to 7965
  156.2955  140.2298  156.4669 H   0  0  0  0  0  0  0  0  0  0  0  0  # atno 8008 bound_to 7997
  154.7969  140.0451  157.1264 H   0  0  0  0  0  0  0  0  0  0  0  0  # atno 8009 bound_to 7997
  154.9579  140.3050  155.5048 H   0  0  0  0  0  0  0  0  0  0  0  0  # atno 8010 bound_to 7997
  139.7271  143.8867  152.2522 H   0  0  0  0  0  0  0  0  0  0  0  0  # atno 10167 bound_to 10162
  157.3601  130.7645  149.7041 H   0  0  0  0  0  0  0  0  0  0  0  0  # atno 10718 bound_to 10713
  154.4934  135.2780  155.1478 H   0  0  0  0  0  0  0  0  0  0  0  0  # atno 10763 bound_to 10752
  154.3140  135.6223  153.5482 H   0  0  0  0  0  0  0  0  0  0  0  0  # atno 10764 bound_to 10752
  152.9891  135.5726  154.5361 H   0  0  0  0  0  0  0  0  0  0  0  0  # atno 10765 bound_to 10752
  139.8915  134.8436  156.2889 H   0  0  0  0  0  0  0  0  0  0  0  0  # atno 11005 bound_to 11000
  144.6883  139.9387  143.7474 LP  0  0  0  0  0  0  0  0  0  0  0  0  # atno 17320 bound_to 7965
  146.0499  139.3501  143.0646 LP  0  0  0  0  0  0  0  0  0  0  0  0  # atno 17321 bound_to 7965
  139.8779  144.7033  150.8911 LP  0  0  0  0  0  0  0  0  0  0  0  0  # atno 17342 bound_to 10162
  140.7764  143.3685  151.1694 LP  0  0  0  0  0  0  0  0  0  0  0  0  # atno 17343 bound_to 10162
  155.9736  130.4116  150.3989 LP  0  0  0  0  0  0  0  0  0  0  0  0  # atno 17370 bound_to 10713
  157.2065  131.0450  151.2622 LP  0  0  0  0  0  0  0  0  0  0  0  0  # atno 17371 bound_to 10713
  140.9989  133.7163  156.0930 LP  0  0  0  0  0  0  0  0  0  0  0  0  # atno 17394 bound_to 11000
  140.7524  134.4030  157.5539 LP  0  0  0  0  0  0  0  0  0  0  0  0  # atno 17395 bound_to 11000

$$$$
