AV-unprocessed.smi:1949|AV-procd|sdf|7878|dock5
  -GOLD-   2272010 33D 1   1.00000     0.00000
 Structure written by MMmdl.
 28 29  0  0  0  0  0  0  0  0  2 V2000
  153.7849  137.0561  162.6300 C   0  0  0  0  0  0  0  0  0  0  0  0
  153.5205  137.3942  161.2029 C   0  0  0  0  0  0  0  0  0  0  0  0
  153.2382  136.4689  160.2825 N   0  0  0  0  0  0  0  0  0  0  0  0
  153.0310  137.0254  159.0285 N   0  0  0  0  0  0  0  0  0  0  0  0
  153.1455  138.3612  159.0206 C   0  0  0  0  0  0  0  0  0  0  0  0
  152.9734  139.0971  157.9067 N   0  5  0  0  0  0  0  0  0  0  0  0
  152.0748  140.1144  157.8337 C   0  0  0  0  0  0  0  0  0  0  0  0
  151.1565  140.1458  157.0153 O   0  0  0  0  0  0  0  0  0  0  0  0
  152.2038  141.1319  158.7075 N   0  0  0  0  0  0  0  0  0  0  0  0
  151.3506  142.3147  158.7914 C   0  0  0  0  0  0  0  0  0  0  0  0
  151.2333  142.9962  157.4137 C   0  0  0  0  0  0  0  0  0  0  0  0
  151.5579  144.4747  157.6381 C   0  0  0  0  0  0  0  0  0  0  0  0
  152.4925  144.4806  158.8433 C   0  0  0  0  0  0  0  0  0  0  0  0
  151.9445  143.3729  159.7422 C   0  0  0  0  0  0  0  0  0  0  0  0
  153.5516  139.0412  160.5960 S   0  0  0  0  0  0  0  0  0  0  0  0
  152.8583  136.7568  163.1199 H   0  0  0  0  0  0  0  0  0  0  0  0
  154.1953  137.9193  163.1545 H   0  0  0  0  0  0  0  0  0  0  0  0
  154.4996  136.2357  162.6966 H   0  0  0  0  0  0  0  0  0  0  0  0
  152.9602  141.0740  159.3734 H   0  0  0  0  0  0  0  0  0  0  0  0
  150.3583  142.0230  159.1403 H   0  0  0  0  0  0  0  0  0  0  0  0
  151.9565  142.5760  156.7124 H   0  0  0  0  0  0  0  0  0  0  0  0
  150.2452  142.8614  156.9725 H   0  0  0  0  0  0  0  0  0  0  0  0
  152.0020  144.9447  156.7601 H   0  0  0  0  0  0  0  0  0  0  0  0
  150.6441  145.0185  157.8814 H   0  0  0  0  0  0  0  0  0  0  0  0
  153.5050  144.2285  158.5256 H   0  0  0  0  0  0  0  0  0  0  0  0
  152.5291  145.4486  159.3439 H   0  0  0  0  0  0  0  0  0  0  0  0
  151.1474  143.7795  160.3657 H   0  0  0  0  0  0  0  0  0  0  0  0
  152.7058  142.9771  160.4158 H   0  0  0  0  0  0  0  0  0  0  0  0
  1  2  1  0  0  0  0
  1 16  1  0  0  0  0
  1 17  1  0  0  0  0
  1 18  1  0  0  0  0
  2 15  1  0  0  0  0
  2  3  2  0  0  0  0
  3  4  1  0  0  0  0
  4  5  2  0  0  0  0
  5  6  1  0  0  0  0
  5 15  1  0  0  0  0
  6  7  1  0  0  0  0
  7  8  2  0  0  0  0
  7  9  1  0  0  0  0
  9 10  1  0  0  0  0
  9 19  1  0  0  0  0
 10 14  1  0  0  0  0
 10 11  1  0  0  0  0
 10 20  1  0  0  0  0
 11 12  1  0  0  0  0
 11 21  1  0  0  0  0
 11 22  1  0  0  0  0
 12 13  1  0  0  0  0
 12 23  1  0  0  0  0
 12 24  1  0  0  0  0
 13 14  1  0  0  0  0
 13 25  1  0  0  0  0
 13 26  1  0  0  0  0
 14 27  1  0  0  0  0
 14 28  1  0  0  0  0
M  CHG  1   6  -1
M  END
> <s_m_source_file>
AV-unprocessed.smi

> <i_m_source_file_index>
1949

> <i_lp_mmshare_version>
43012

> <i_f3d_flags>
0

> <s_epik_input>
W0NIM11jMW5uYyhzMSlbTkhdQyg9TylbTkhdW0NIXTJbQ0gyXVtDSDJdW0NIMl1bQ0gyXTI=

> <s_epik_cmdline>
J2VwaWtfcHl0aG9uJywgJy1waCcsICc3LjAnLCAnLXRuJywgJzgnLCAnLW1hJywgJzIwMCcsICctbWV0YWxfYmluZGluZycsICctaW1hZScsICc8aW5maWxlLm1hZT4nLCAnLW9tYWUnLCAnPG91dGZpbGUubWFlPic=

> <r_lp_tautomer_probability>
1

> <r_epik_Ionization_Penalty>
4.54091

> <r_epik_Ionization_Penalty_Charging>
4.38642

> <r_epik_Ionization_Penalty_Neutral>
0.154484

> <r_epik_State_Penalty>
4.38606

> <r_epik_Charging_Adjusted_Penalty>
8.77248

> <i_epik_Tot_Q>
-1

> <i_epik_Tot_abs_Q>
1

> <r_epik_Metal_State_Penalty>
0.765318

> <b_epik_Metal_Only>
1

> <s_lp_Force_Field>
OPLS_2005

> <r_lp_Energy>
17.692

> <b_lp_Chiralities_Consistent>
1

> <s_lp_Variant>
AV-unprocessed.smi:1949-2

> <Gold.Version>
5.8.1

> <Gold.Id.Protein>
6NUR|6NUR_protein|mol2

> <Gold.PLP.Fitness>
36.3442

> <Gold.PLP.PLP>
-29.6138

> <Gold.PLP.part.hbond>
-2.0000

> <Gold.PLP.part.metal>
0.0000

> <Gold.PLP.part.buried>
-3.9378

> <Gold.PLP.part.nonpolar>
-24.0526

> <Gold.PLP.part.repulsive>
0.1073

> <Gold.PLP.ligand.clash>
0.0000

> <Gold.PLP.ligand.torsion>
1.1386

> <Gold.PLP.Chemscore.Hbond>
3.0000

> <Gold.PLP.Chemscore.CHOScore>
0.0000

> <Gold.PLP.Chemscore.Metal>
0.0000

> <Gold.Chemscore.Hbonds>
donor molecule, donor type, donor heavy atom, donor atom, acceptor molecule, acceptor atom, score
      P1  H  6896  6909       L1     3  1.00
      P1  H  7997  8008       L1     6  1.43

> <Gold.PLP.Chemscore.Internal.Correction>
0.0075

> <Gold.Rescore>
     Score         DG    S(hbond)    S(metal)    S(lipo)     H(rot)  DE(clash)    DE(int)     intcor
     14.28     -16.76       1.48        0.00      76.06       1.00       0.00       2.49       ----

> <Gold.Chemscore.Fitness>
14.2768

> <Gold.Chemscore.DG>
-16.7628

> <Gold.Chemscore.ZeroCoef>
-5.4800

> <Gold.Chemscore.Hbond>
1.4803

> <Gold.Chemscore.Metal>
0.0000

> <Gold.Chemscore.Lipo>
76.0560

> <Gold.Chemscore.Internal_Hbond>
0.0000

> <Gold.Chemscore.DEClash>
0.0000

> <Gold.Chemscore.DEInternal>
2.4860

> <Gold.Chemscore.Rot>
1.0000

> <Gold.Chemscore.Internal.Correction>
   9.000000E+99

> <Gold.Chemscore.Hbonds>
donor molecule, donor type, donor heavy atom, donor atom, acceptor molecule, acceptor atom, score
      P1  H  6896  6909       L1     3  0.25
      P1  H  7997  8008       L1     6  0.21

> <Gold.Chemscore.Hbond.Weighted>
-4.9443

> <Gold.Chemscore.Metal.Weighted>
-0.0000

> <Gold.Chemscore.Lipo.Weighted>
-8.8986

> <Gold.Chemscore.Internal_Hbond.Weighted>
0.0000

> <Gold.Chemscore.DEClash.Weighted>
0.0000

> <Gold.Chemscore.DEInternal.Weighted>
2.4860

> <Gold.Chemscore.Rot.Weighted>
2.5600

> <Gold.Chemscore.Internal.Correction.Weighted>
   9.000000E+99

> <Gold.Protein.RotatedTorsions>
[ 6907 6896 6895 6894 ] final  172.33 input  -60.11 | X-H torsion
[ 7974 7965 7964 7962 ] final  -88.83 input  175.53 | X-H torsion
[ 8008 7997 7996 7995 ] final -100.16 input   59.86 | X-H torsion
[ 10167 10162 10161 10158 ] final -136.19 input  -65.29 | X-H torsion
[ 10718 10713 10712 10709 ] final   31.15 input   66.30 | X-H torsion
[ 10763 10752 10751 10750 ] final  -50.21 input  -60.55 | X-H torsion
[ 11005 11000 10999 10996 ] final   39.94 input  -57.11 | X-H torsion

> <Gold.Protein.ActiveResidues>
 VAL166  LYS551  ARG553  GLY616  TRP617  ASP618  TYR619  PRO620  LYS621  CYS622 
 ASP623  PHE694  ASN695  SER759  ASP760  ASP761  ALA762  ILE779  LEU786  VAL792 
 PHE793  MET794  SER795  GLU796  ALA797  LYS798  CYS799  TRP800  GLU811  SER814 

> <Gold.Protein.RotatedAtoms>
  151.7861  133.3354  159.3485 H   0  0  0  0  0  0  0  0  0  0  0  0  # atno 6907 bound_to 6896
  150.7409  134.5886  159.5985 H   0  0  0  0  0  0  0  0  0  0  0  0  # atno 6908 bound_to 6896
  152.3243  134.7342  160.0357 H   0  0  0  0  0  0  0  0  0  0  0  0  # atno 6909 bound_to 6896
  145.4479  140.9560  143.2038 H   0  0  0  0  0  0  0  0  0  0  0  0  # atno 7974 bound_to 7965
  154.8247  140.0443  157.1435 H   0  0  0  0  0  0  0  0  0  0  0  0  # atno 8008 bound_to 7997
  154.9220  140.3028  155.5191 H   0  0  0  0  0  0  0  0  0  0  0  0  # atno 8009 bound_to 7997
  156.2983  140.2339  156.4271 H   0  0  0  0  0  0  0  0  0  0  0  0  # atno 8010 bound_to 7997
  139.8703  143.6966  152.2640 H   0  0  0  0  0  0  0  0  0  0  0  0  # atno 10167 bound_to 10162
  157.2687  130.7197  149.6493 H   0  0  0  0  0  0  0  0  0  0  0  0  # atno 10718 bound_to 10713
  154.1066  135.6555  153.4877 H   0  0  0  0  0  0  0  0  0  0  0  0  # atno 10763 bound_to 10752
  153.0270  135.5238  154.7233 H   0  0  0  0  0  0  0  0  0  0  0  0  # atno 10764 bound_to 10752
  154.6401  135.2987  155.0083 H   0  0  0  0  0  0  0  0  0  0  0  0  # atno 10765 bound_to 10752
  140.1979  134.3906  155.8111 H   0  0  0  0  0  0  0  0  0  0  0  0  # atno 11005 bound_to 11000
  144.8080  139.6015  143.7042 LP  0  0  0  0  0  0  0  0  0  0  0  0  # atno 17320 bound_to 7965
  146.2520  139.6221  142.9420 LP  0  0  0  0  0  0  0  0  0  0  0  0  # atno 17321 bound_to 7965
  139.7290  144.7586  151.0832 LP  0  0  0  0  0  0  0  0  0  0  0  0  # atno 17342 bound_to 10162
  140.7761  143.5112  150.9650 LP  0  0  0  0  0  0  0  0  0  0  0  0  # atno 17343 bound_to 10162
  155.9663  130.4374  150.5175 LP  0  0  0  0  0  0  0  0  0  0  0  0  # atno 17370 bound_to 10713
  157.3095  131.0661  151.2011 LP  0  0  0  0  0  0  0  0  0  0  0  0  # atno 17371 bound_to 10713
  141.2227  133.7079  156.8208 LP  0  0  0  0  0  0  0  0  0  0  0  0  # atno 17394 bound_to 11000
  140.2086  134.8844  157.3250 LP  0  0  0  0  0  0  0  0  0  0  0  0  # atno 17395 bound_to 11000

$$$$
