AV-unprocessed.smi:102|AV-procd|sdf|962|dock5
  -GOLD-   2262017503D 1   1.00000     0.00000
 Structure written by MMmdl.
 43 44  0  0  0  0  0  0  0  0  2 V2000
  144.0938  139.3632  159.9239 C   0  0  0  0  0  0  0  0  0  0  0  0
  144.8813  139.3712  158.6205 C   0  0  0  0  0  0  0  0  0  0  0  0
  144.4942  138.7480  157.6317 O   0  0  0  0  0  0  0  0  0  0  0  0
  145.9948  140.1208  158.6990 O   0  0  0  0  0  0  0  0  0  0  0  0
  146.8640  140.2432  157.5809 C   0  0  0  0  0  0  0  0  0  0  0  0
  147.5397  141.6324  157.5578 C   0  0  1  0  0  0  0  0  0  0  0  0
  148.6561  141.6312  158.4468 O   0  0  0  0  0  0  0  0  0  0  0  0
  149.8612  141.4255  157.7589 C   0  0  1  0  0  0  0  0  0  0  0  0
  150.5539  140.1876  158.2958 N   0  0  0  0  0  0  0  0  0  0  0  0
  149.9103  138.9623  158.3569 C   0  0  0  0  0  0  0  0  0  0  0  0
  150.5366  137.8669  158.8327 C   0  0  0  0  0  0  0  0  0  0  0  0
  149.8860  136.6915  158.8779 F   0  0  0  0  0  0  0  0  0  0  0  0
  151.9183  137.9679  159.2979 C   0  0  0  0  0  0  0  0  0  0  0  0
  152.4859  136.9636  159.7242 O   0  0  0  0  0  0  0  0  0  0  0  0
  152.5235  139.1894  159.2384 N   0  5  0  0  0  0  0  0  0  0  0  0
  151.8930  140.3012  158.7590 C   0  0  0  0  0  0  0  0  0  0  0  0
  152.4290  141.4080  158.7003 O   0  0  0  0  0  0  0  0  0  0  0  0
  149.5276  141.3315  156.2541 C   0  0  1  0  0  0  0  0  0  0  0  0
  149.4536  139.9698  155.8284 O   0  0  0  0  0  0  0  0  0  0  0  0
  150.4293  139.4273  155.0802 C   0  0  0  0  0  0  0  0  0  0  0  0
  150.0768  138.0256  154.6021 C   0  0  0  0  0  0  0  0  0  0  0  0
  151.4979  139.9590  154.7800 O   0  0  0  0  0  0  0  0  0  0  0  0
  148.1683  142.0161  156.2172 C   0  0  1  0  0  0  0  0  0  0  0  0
  147.3651  141.6708  155.0931 O   0  0  0  0  0  0  0  0  0  0  0  0
  147.9166  141.5630  153.8721 C   0  0  0  0  0  0  0  0  0  0  0  0
  146.9266  141.0565  152.8321 C   0  0  0  0  0  0  0  0  0  0  0  0
  149.0840  141.8198  153.5779 O   0  0  0  0  0  0  0  0  0  0  0  0
  144.7652  139.2462  160.7748 H   0  0  0  0  0  0  0  0  0  0  0  0
  143.3778  138.5412  159.9340 H   0  0  0  0  0  0  0  0  0  0  0  0
  143.5477  140.2995  160.0390 H   0  0  0  0  0  0  0  0  0  0  0  0
  147.6089  139.4506  157.6359 H   0  0  0  0  0  0  0  0  0  0  0  0
  146.3045  140.0707  156.6606 H   0  0  0  0  0  0  0  0  0  0  0  0
  146.8239  142.3975  157.8590 H   0  0  0  0  0  0  0  0  0  0  0  0
  150.5279  142.2562  157.9963 H   0  0  0  0  0  0  0  0  0  0  0  0
  148.8891  138.8613  158.0242 H   0  0  0  0  0  0  0  0  0  0  0  0
  150.2776  141.8877  155.6899 H   0  0  0  0  0  0  0  0  0  0  0  0
  149.0476  137.9925  154.2444 H   0  0  0  0  0  0  0  0  0  0  0  0
  150.1838  137.3121  155.4192 H   0  0  0  0  0  0  0  0  0  0  0  0
  150.7353  137.7224  153.7880 H   0  0  0  0  0  0  0  0  0  0  0  0
  148.3296  143.0954  156.2391 H   0  0  0  0  0  0  0  0  0  0  0  0
  145.9920  141.6144  152.8919 H   0  0  0  0  0  0  0  0  0  0  0  0
  146.7127  140.0007  152.9995 H   0  0  0  0  0  0  0  0  0  0  0  0
  147.3340  141.1719  151.8276 H   0  0  0  0  0  0  0  0  0  0  0  0
  1  2  1  0  0  0  0
  1 28  1  0  0  0  0
  1 29  1  0  0  0  0
  1 30  1  0  0  0  0
  2  3  2  0  0  0  0
  2  4  1  0  0  0  0
  4  5  1  0  0  0  0
  5  6  1  0  0  0  0
  5 31  1  0  0  0  0
  5 32  1  0  0  0  0
  6 23  1  0  0  0  0
  6  7  1  0  0  0  0
  6 33  1  0  0  0  0
  7  8  1  0  0  0  0
  8  9  1  0  0  0  0
  8 18  1  0  0  0  0
  8 34  1  0  0  0  0
  9 16  1  0  0  0  0
  9 10  1  0  0  0  0
 10 11  2  0  0  0  0
 10 35  1  0  0  0  0
 11 12  1  0  0  0  0
 11 13  1  0  0  0  0
 13 14  2  0  0  0  0
 13 15  1  0  0  0  0
 15 16  1  0  0  0  0
 16 17  2  0  0  0  0
 18 19  1  0  0  0  0
 18 23  1  0  0  0  0
 18 36  1  0  0  0  0
 19 20  1  0  0  0  0
 20 21  1  0  0  0  0
 20 22  2  0  0  0  0
 21 37  1  0  0  0  0
 21 38  1  0  0  0  0
 21 39  1  0  0  0  0
 23 24  1  0  0  0  0
 23 40  1  0  0  0  0
 24 25  1  0  0  0  0
 25 26  1  0  0  0  0
 25 27  2  0  0  0  0
 26 41  1  0  0  0  0
 26 42  1  0  0  0  0
 26 43  1  0  0  0  0
M  CHG  1  15  -1
M  END
> <s_m_source_file>
AV-unprocessed.smi

> <i_m_source_file_index>
102

> <i_lp_mmshare_version>
43012

> <i_f3d_flags>
0

> <s_epik_input>
W0NIM11DKD1PKU9bQ0gyXVtDQEBIXTFPW0NASF0oW0NAQEhdKE9DKD1PKVtDSDNdKVtDQEhdMU9DKD1PKVtDSDNdKW4yW2NIXWMoRiljKD1PKVtuSF1jMj1P

> <s_epik_cmdline>
J2VwaWtfcHl0aG9uJywgJy1waCcsICc3LjAnLCAnLXRuJywgJzgnLCAnLW1hJywgJzIwMCcsICctbWV0YWxfYmluZGluZycsICctaW1hZScsICc8aW5maWxlLm1hZT4nLCAnLW9tYWUnLCAnPG91dGZpbGUubWFlPic=

> <r_epik_Ionization_Penalty>
1.40304

> <r_epik_Ionization_Penalty_Charging>
1.43915e-08

> <r_epik_Ionization_Penalty_Neutral>
1.40304

> <r_epik_State_Penalty>
1.48536

> <r_epik_Charging_Adjusted_Penalty>
1.48536

> <i_epik_Tot_Q>
-1

> <i_epik_Tot_abs_Q>
1

> <r_epik_Metal_State_Penalty>
0.00663881

> <b_epik_Metal_Only>
0

> <s_epik_Chemistry_Notes>
This compound has an ester and may undergo hydrolysis at high or low pH. This compound contains an acetal/aminal-like group ( X-CH(R)-Y where X, Y are N, S, or O) that may be acid/base labile, releasing an aldehyde.

> <s_lp_Force_Field>
OPLS_2005

> <r_lp_Energy>
25.6088

> <b_lp_Chiralities_Consistent>
1

> <s_lp_Variant>
AV-unprocessed.smi:102-18

> <Gold.Version>
5.8.1

> <Gold.Id.Protein>
6NUR|6NUR_protein|mol2

> <Gold.PLP.Fitness>
34.2461

> <Gold.PLP.PLP>
-28.5917

> <Gold.PLP.part.hbond>
-5.9796

> <Gold.PLP.part.metal>
0.0000

> <Gold.PLP.part.buried>
-1.6019

> <Gold.PLP.part.nonpolar>
-21.7351

> <Gold.PLP.part.repulsive>
0.9689

> <Gold.PLP.ligand.clash>
0.0000

> <Gold.PLP.ligand.torsion>
1.2877

> <Gold.PLP.Chemscore.Hbond>
2.6720

> <Gold.PLP.Chemscore.CHOScore>
0.0000

> <Gold.PLP.Chemscore.Metal>
0.0000

> <Gold.Chemscore.Hbonds>
donor molecule, donor type, donor heavy atom, donor atom, acceptor molecule, acceptor atom, score
      P1  H  6896  6907       L1    14  1.00
      P1  H  7989  7998       L1    22  1.00
      P1  H  8011  8017       L1    27  0.62

> <Gold.PLP.Chemscore.Internal.Correction>
0.2136

> <Gold.Rescore>
     Score         DG    S(hbond)    S(metal)    S(lipo)     H(rot)  DE(clash)    DE(int)     intcor
      1.22      -7.99       2.66        0.00      32.89       4.00       2.34       4.44       ----

> <Gold.Chemscore.Fitness>
1.2169

> <Gold.Chemscore.DG>
-7.9935

> <Gold.Chemscore.ZeroCoef>
-5.4800

> <Gold.Chemscore.Hbond>
2.6625

> <Gold.Chemscore.Metal>
0.0000

> <Gold.Chemscore.Lipo>
32.8896

> <Gold.Chemscore.Internal_Hbond>
0.0000

> <Gold.Chemscore.DEClash>
2.3411

> <Gold.Chemscore.DEInternal>
4.4355

> <Gold.Chemscore.Rot>
3.9951

> <Gold.Chemscore.Internal.Correction>
   9.000000E+99

> <Gold.Chemscore.Hbonds>
donor molecule, donor type, donor heavy atom, donor atom, acceptor molecule, acceptor atom, score
      P1  H  6896  6907       L1    14  0.98
      P1  H  7989  7998       L1    22  0.96
      P1  H  8011  8017       L1    27  0.59

> <Gold.Chemscore.Hbond.Weighted>
-8.8928

> <Gold.Chemscore.Metal.Weighted>
-0.0000

> <Gold.Chemscore.Lipo.Weighted>
-3.8481

> <Gold.Chemscore.Internal_Hbond.Weighted>
0.0000

> <Gold.Chemscore.DEClash.Weighted>
2.3411

> <Gold.Chemscore.DEInternal.Weighted>
4.4355

> <Gold.Chemscore.Rot.Weighted>
10.2274

> <Gold.Chemscore.Internal.Correction.Weighted>
   9.000000E+99

> <Gold.Protein.RotatedTorsions>
[ 6907 6896 6895 6894 ] final   14.17 input  -60.11 | X-H torsion
[ 7974 7965 7964 7962 ] final -165.84 input  175.53 | X-H torsion
[ 8008 7997 7996 7995 ] final  -15.56 input   59.86 | X-H torsion
[ 10167 10162 10161 10158 ] final  -83.48 input  -65.29 | X-H torsion
[ 10718 10713 10712 10709 ] final   81.41 input   66.30 | X-H torsion
[ 10763 10752 10751 10750 ] final  -77.20 input  -60.55 | X-H torsion
[ 11005 11000 10999 10996 ] final -106.39 input  -57.11 | X-H torsion

> <Gold.Protein.ActiveResidues>
 VAL166  LYS551  ARG553  GLY616  TRP617  ASP618  TYR619  PRO620  LYS621  CYS622 
 ASP623  PHE694  ASN695  SER759  ASP760  ASP761  ALA762  ILE779  LEU786  VAL792 
 PHE793  MET794  SER795  GLU796  ALA797  LYS798  CYS799  TRP800  GLU811  SER814 

> <Gold.Protein.RotatedAtoms>
  151.7980  135.0717  160.0396 H   0  0  0  0  0  0  0  0  0  0  0  0  # atno 6907 bound_to 6896
  152.3109  133.5748  159.5689 H   0  0  0  0  0  0  0  0  0  0  0  0  # atno 6908 bound_to 6896
  150.7320  134.0069  159.3698 H   0  0  0  0  0  0  0  0  0  0  0  0  # atno 6909 bound_to 6896
  144.7260  140.2755  143.6244 H   0  0  0  0  0  0  0  0  0  0  0  0  # atno 7974 bound_to 7965
  154.5121  140.2193  155.9136 H   0  0  0  0  0  0  0  0  0  0  0  0  # atno 8008 bound_to 7997
  156.1564  140.3151  155.8700 H   0  0  0  0  0  0  0  0  0  0  0  0  # atno 8009 bound_to 7997
  155.3837  140.0474  157.3033 H   0  0  0  0  0  0  0  0  0  0  0  0  # atno 8010 bound_to 7997
  140.4223  143.2580  151.8873 H   0  0  0  0  0  0  0  0  0  0  0  0  # atno 10167 bound_to 10162
  157.6832  131.0002  150.2222 H   0  0  0  0  0  0  0  0  0  0  0  0  # atno 10718 bound_to 10713
  154.5098  135.5772  153.6596 H   0  0  0  0  0  0  0  0  0  0  0  0  # atno 10763 bound_to 10752
  152.9895  135.6156  154.2894 H   0  0  0  0  0  0  0  0  0  0  0  0  # atno 10764 bound_to 10752
  154.2808  135.2851  155.2677 H   0  0  0  0  0  0  0  0  0  0  0  0  # atno 10765 bound_to 10752
  141.1007  133.8889  157.1850 H   0  0  0  0  0  0  0  0  0  0  0  0  # atno 11005 bound_to 11000
  145.8001  139.1961  143.2053 LP  0  0  0  0  0  0  0  0  0  0  0  0  # atno 17320 bound_to 7965
  146.0684  140.7896  142.9700 LP  0  0  0  0  0  0  0  0  0  0  0  0  # atno 17321 bound_to 7965
  139.4783  144.5424  151.8508 LP  0  0  0  0  0  0  0  0  0  0  0  0  # atno 17342 bound_to 10162
  140.4520  144.1841  150.5898 LP  0  0  0  0  0  0  0  0  0  0  0  0  # atno 17343 bound_to 10162
  156.2871  130.3741  149.7878 LP  0  0  0  0  0  0  0  0  0  0  0  0  # atno 17370 bound_to 10713
  156.5548  130.8358  151.3311 LP  0  0  0  0  0  0  0  0  0  0  0  0  # atno 17371 bound_to 10713
  139.9857  135.0082  156.9857 LP  0  0  0  0  0  0  0  0  0  0  0  0  # atno 17394 bound_to 11000
  140.5029  134.1079  155.7254 LP  0  0  0  0  0  0  0  0  0  0  0  0  # atno 17395 bound_to 11000

$$$$
