AV-unprocessed.smi:2725|AV-procd|sdf|10515|dock2
  -GOLD-   2272014553D 1   1.00000     0.00000
 Structure written by MMmdl.
 44 45  0  0  0  0  0  0  0  0  1 V2000
  151.4073  140.2560  155.2085 O   0  0  0  0  0  0  0  0  0  0  0  0
  150.9920  139.9517  156.3271 C   0  0  0  0  0  0  0  0  0  0  0  0
  151.2616  140.8517  157.5368 C   0  0  0  0  0  0  0  0  0  0  0  0
  151.0194  142.3470  157.2538 C   0  0  0  0  0  0  0  0  0  0  0  0
  151.1066  143.2209  158.5176 C   0  0  0  0  0  0  0  0  0  0  0  0
  151.3202  144.7135  158.2445 C   0  0  0  0  0  0  0  0  0  0  0  0
  151.8918  145.2850  159.5472 C   0  0  0  0  0  0  0  0  0  0  0  0
  152.4768  144.0940  160.3217 C   0  0  0  0  0  0  0  0  0  0  0  0
  152.2863  142.8664  159.4254 C   0  0  0  0  0  0  0  0  0  0  0  0
  150.2900  138.8349  156.5715 N   0  0  0  0  0  0  0  0  0  0  0  0
  149.9203  137.8306  155.5741 C   0  0  2  0  0  0  0  0  0  0  0  0
  149.1535  138.5163  154.4253 C   0  0  0  0  0  0  0  0  0  0  0  0
  149.8638  138.3863  153.2117 O   0  0  0  0  0  0  0  0  0  0  0  0
  149.0971  136.6875  156.2191 C   0  0  0  0  0  0  0  0  0  0  0  0
  148.9145  135.4593  155.3389 C   0  0  0  0  0  0  0  0  0  0  0  0
  150.0142  134.6355  155.0142 C   0  0  0  0  0  0  0  0  0  0  0  0
  149.7918  133.5055  154.2040 C   0  0  0  0  0  0  0  0  0  0  0  0
  148.4852  133.2448  153.7480 C   0  0  0  0  0  0  0  0  0  0  0  0
  147.4553  134.1300  154.1240 C   0  0  0  0  0  0  0  0  0  0  0  0
  147.6579  135.2151  154.9021 N   0  0  0  0  0  0  0  0  0  0  0  0
  150.6268  140.5164  158.3573 H   0  0  0  0  0  0  0  0  0  0  0  0
  152.2940  140.7068  157.8589 H   0  0  0  0  0  0  0  0  0  0  0  0
  151.7589  142.6990  156.5330 H   0  0  0  0  0  0  0  0  0  0  0  0
  150.0446  142.4848  156.7829 H   0  0  0  0  0  0  0  0  0  0  0  0
  150.1894  143.1030  159.0970 H   0  0  0  0  0  0  0  0  0  0  0  0
  152.0489  144.8432  157.4428 H   0  0  0  0  0  0  0  0  0  0  0  0
  150.4033  145.2185  157.9397 H   0  0  0  0  0  0  0  0  0  0  0  0
  152.6448  146.0475  159.3455 H   0  0  0  0  0  0  0  0  0  0  0  0
  151.1012  145.7550  160.1331 H   0  0  0  0  0  0  0  0  0  0  0  0
  153.5261  144.2455  160.5768 H   0  0  0  0  0  0  0  0  0  0  0  0
  151.9304  143.9606  161.2562 H   0  0  0  0  0  0  0  0  0  0  0  0
  152.1141  141.9553  159.9993 H   0  0  0  0  0  0  0  0  0  0  0  0
  153.1845  142.7134  158.8253 H   0  0  0  0  0  0  0  0  0  0  0  0
  149.9853  138.6664  157.5194 H   0  0  0  0  0  0  0  0  0  0  0  0
  150.8226  137.3805  155.1550 H   0  0  0  0  0  0  0  0  0  0  0  0
  148.1846  138.0385  154.2781 H   0  0  0  0  0  0  0  0  0  0  0  0
  148.9592  139.5684  154.6375 H   0  0  0  0  0  0  0  0  0  0  0  0
  149.6211  137.5671  152.8077 H   0  0  0  0  0  0  0  0  0  0  0  0
  149.5510  136.3859  157.1641 H   0  0  0  0  0  0  0  0  0  0  0  0
  148.1083  137.0645  156.4838 H   0  0  0  0  0  0  0  0  0  0  0  0
  151.0047  134.8602  155.3821 H   0  0  0  0  0  0  0  0  0  0  0  0
  150.6085  132.8509  153.9377 H   0  0  0  0  0  0  0  0  0  0  0  0
  148.2771  132.3880  153.1245 H   0  0  0  0  0  0  0  0  0  0  0  0
  146.4415  133.9619  153.7919 H   0  0  0  0  0  0  0  0  0  0  0  0
  1  2  2  0  0  0  0
  2  3  1  0  0  0  0
  2 10  1  0  0  0  0
  3  4  1  0  0  0  0
  3 21  1  0  0  0  0
  3 22  1  0  0  0  0
  4  5  1  0  0  0  0
  4 23  1  0  0  0  0
  4 24  1  0  0  0  0
  5  9  1  0  0  0  0
  5  6  1  0  0  0  0
  5 25  1  0  0  0  0
  6  7  1  0  0  0  0
  6 26  1  0  0  0  0
  6 27  1  0  0  0  0
  7  8  1  0  0  0  0
  7 28  1  0  0  0  0
  7 29  1  0  0  0  0
  8  9  1  0  0  0  0
  8 30  1  0  0  0  0
  8 31  1  0  0  0  0
  9 32  1  0  0  0  0
  9 33  1  0  0  0  0
 10 11  1  0  0  0  0
 10 34  1  0  0  0  0
 11 12  1  0  0  0  0
 11 14  1  0  0  0  0
 11 35  1  0  0  0  0
 12 13  1  0  0  0  0
 12 36  1  0  0  0  0
 12 37  1  0  0  0  0
 13 38  1  0  0  0  0
 14 15  1  0  0  0  0
 14 39  1  0  0  0  0
 14 40  1  0  0  0  0
 15 20  1  0  0  0  0
 15 16  2  0  0  0  0
 16 17  1  0  0  0  0
 16 41  1  0  0  0  0
 17 18  2  0  0  0  0
 17 42  1  0  0  0  0
 18 19  1  0  0  0  0
 18 43  1  0  0  0  0
 19 20  2  0  0  0  0
 19 44  1  0  0  0  0
M  END
> <s_m_source_file>
AV-unprocessed.smi

> <i_m_source_file_index>
2725

> <i_lp_mmshare_version>
43012

> <i_f3d_flags>
0

> <s_epik_input>
W0NIMl0xW0NIMl1bQ0gyXVtDSDJdW0NIXTFbQ0gyXVtDSDJdQyg9TylbTkhdW0NASF0oW0NIMl1bT0hdKVtDSDJdYzJbY0hdW2NIXVtjSF1bY0hdbjI=

> <s_epik_cmdline>
J2VwaWtfcHl0aG9uJywgJy1waCcsICc3LjAnLCAnLXRuJywgJzgnLCAnLW1hJywgJzIwMCcsICctbWV0YWxfYmluZGluZycsICctaW1hZScsICc8aW5maWxlLm1hZT4nLCAnLW9tYWUnLCAnPG91dGZpbGUubWFlPic=

> <r_epik_Ionization_Penalty>
0.0257016

> <r_epik_Ionization_Penalty_Charging>
0

> <r_epik_Ionization_Penalty_Neutral>
0.0257016

> <r_epik_State_Penalty>
0.0209381

> <r_epik_Charging_Adjusted_Penalty>
0.0209381

> <i_epik_Tot_Q>
0

> <i_epik_Tot_abs_Q>
0

> <r_epik_Metal_State_Penalty>
0.0200649

> <b_epik_Metal_Only>
0

> <s_lp_Force_Field>
OPLS_2005

> <r_lp_Energy>
24.7076

> <b_lp_Chiralities_Consistent>
1

> <s_lp_Variant>
AV-unprocessed.smi:2725-1

> <Gold.Version>
5.8.1

> <Gold.Id.Protein>
6NUR|6NUR_protein|mol2

> <Gold.PLP.Fitness>
43.4753

> <Gold.PLP.PLP>
-39.8065

> <Gold.PLP.part.hbond>
-3.3523

> <Gold.PLP.part.metal>
0.0000

> <Gold.PLP.part.buried>
-5.2094

> <Gold.PLP.part.nonpolar>
-30.8144

> <Gold.PLP.part.repulsive>
0.1162

> <Gold.PLP.ligand.clash>
0.0000

> <Gold.PLP.ligand.torsion>
1.2329

> <Gold.PLP.Chemscore.Hbond>
2.0000

> <Gold.PLP.Chemscore.CHOScore>
0.0000

> <Gold.PLP.Chemscore.Metal>
0.0000

> <Gold.Chemscore.Hbonds>
donor molecule, donor type, donor heavy atom, donor atom, acceptor molecule, acceptor atom, score
      L1  H    13    38       P1  7948  1.00
      P1  H  7989  7998       L1     1  1.00

> <Gold.PLP.Chemscore.Internal.Correction>
0.1347

> <Gold.Rescore>
     Score         DG    S(hbond)    S(metal)    S(lipo)     H(rot)  DE(clash)    DE(int)     intcor
     15.96     -18.35       1.96        0.00     107.55       2.44       0.05       2.34       ----

> <Gold.Chemscore.Fitness>
15.9553

> <Gold.Chemscore.DG>
-18.3468

> <Gold.Chemscore.ZeroCoef>
-5.4800

> <Gold.Chemscore.Hbond>
1.9564

> <Gold.Chemscore.Metal>
0.0000

> <Gold.Chemscore.Lipo>
107.5478

> <Gold.Chemscore.Internal_Hbond>
0.0000

> <Gold.Chemscore.DEClash>
0.0480

> <Gold.Chemscore.DEInternal>
2.3436

> <Gold.Chemscore.Rot>
2.4416

> <Gold.Chemscore.Internal.Correction>
   9.000000E+99

> <Gold.Chemscore.Hbonds>
donor molecule, donor type, donor heavy atom, donor atom, acceptor molecule, acceptor atom, score
      L1  H    13    38       P1  7948  0.60
      P1  H  7989  7998       L1     1  0.94

> <Gold.Chemscore.Hbond.Weighted>
-6.5343

> <Gold.Chemscore.Metal.Weighted>
-0.0000

> <Gold.Chemscore.Lipo.Weighted>
-12.5831

> <Gold.Chemscore.Internal_Hbond.Weighted>
0.0000

> <Gold.Chemscore.DEClash.Weighted>
0.0480

> <Gold.Chemscore.DEInternal.Weighted>
2.3436

> <Gold.Chemscore.Rot.Weighted>
6.2505

> <Gold.Chemscore.Internal.Correction.Weighted>
   9.000000E+99

> <Gold.Protein.RotatedTorsions>
[ 6907 6896 6895 6894 ] final   30.06 input  -60.11 | X-H torsion
[ 7974 7965 7964 7962 ] final  108.43 input  175.53 | X-H torsion
[ 8008 7997 7996 7995 ] final  162.35 input   59.86 | X-H torsion
[ 10167 10162 10161 10158 ] final    3.08 input  -65.29 | X-H torsion
[ 10718 10713 10712 10709 ] final    9.87 input   66.30 | X-H torsion
[ 10763 10752 10751 10750 ] final -171.88 input  -60.55 | X-H torsion
[ 11005 11000 10999 10996 ] final    3.41 input  -57.11 | X-H torsion

> <Gold.Protein.ActiveResidues>
 VAL166  LYS551  ARG553  GLY616  TRP617  ASP618  TYR619  PRO620  LYS621  CYS622 
 ASP623  PHE694  ASN695  SER759  ASP760  ASP761  ALA762  ILE779  LEU786  VAL792 
 PHE793  MET794  SER795  GLU796  ALA797  LYS798  CYS799  TRP800  GLU811  SER814 

> <Gold.Protein.RotatedAtoms>
  152.0405  134.9714  160.0573 H   0  0  0  0  0  0  0  0  0  0  0  0  # atno 6907 bound_to 6896
  152.1154  133.4319  159.4659 H   0  0  0  0  0  0  0  0  0  0  0  0  # atno 6908 bound_to 6896
  150.6846  134.2517  159.4556 H   0  0  0  0  0  0  0  0  0  0  0  0  # atno 6909 bound_to 6896
  145.2808  139.2633  143.3916 H   0  0  0  0  0  0  0  0  0  0  0  0  # atno 7974 bound_to 7965
  156.2037  140.1752  156.7845 H   0  0  0  0  0  0  0  0  0  0  0  0  # atno 8008 bound_to 7997
  154.5626  140.0697  156.8873 H   0  0  0  0  0  0  0  0  0  0  0  0  # atno 8009 bound_to 7997
  155.2819  140.3349  155.4260 H   0  0  0  0  0  0  0  0  0  0  0  0  # atno 8010 bound_to 7997
  140.6603  143.7320  150.7727 H   0  0  0  0  0  0  0  0  0  0  0  0  # atno 10167 bound_to 10162
  156.9727  130.5975  149.5670 H   0  0  0  0  0  0  0  0  0  0  0  0  # atno 10718 bound_to 10713
  154.6256  135.2880  155.0276 H   0  0  0  0  0  0  0  0  0  0  0  0  # atno 10763 bound_to 10752
  154.1456  135.6511  153.4955 H   0  0  0  0  0  0  0  0  0  0  0  0  # atno 10764 bound_to 10752
  153.0255  135.5343  154.7062 H   0  0  0  0  0  0  0  0  0  0  0  0  # atno 10765 bound_to 10752
  140.5935  133.9902  155.8099 H   0  0  0  0  0  0  0  0  0  0  0  0  # atno 11005 bound_to 11000
  146.3217  140.3275  142.8638 LP  0  0  0  0  0  0  0  0  0  0  0  0  # atno 17320 bound_to 7965
  144.9255  140.7916  143.5722 LP  0  0  0  0  0  0  0  0  0  0  0  0  # atno 17321 bound_to 7965
  140.0988  143.4807  152.2437 LP  0  0  0  0  0  0  0  0  0  0  0  0  # atno 17342 bound_to 10162
  139.5835  144.7521  151.3578 LP  0  0  0  0  0  0  0  0  0  0  0  0  # atno 17343 bound_to 10162
  156.0276  130.5369  150.8449 LP  0  0  0  0  0  0  0  0  0  0  0  0  # atno 17370 bound_to 10713
  157.5581  131.0945  150.9599 LP  0  0  0  0  0  0  0  0  0  0  0  0  # atno 17371 bound_to 10713
  141.0919  133.9903  157.3222 LP  0  0  0  0  0  0  0  0  0  0  0  0  # atno 17394 bound_to 11000
  139.9264  135.0201  156.8248 LP  0  0  0  0  0  0  0  0  0  0  0  0  # atno 17395 bound_to 11000

$$$$
