AV-unprocessed.smi:2693|AV-procd|sdf|10402|dock7
  -GOLD-   2272014433D 1   1.00000     0.00000
 Structure written by MMmdl.
 45 47  0  0  0  0  0  0  0  0  1 V2000
  145.9709  132.1377  149.9468 C   0  0  0  0  0  0  0  0  0  0  0  0
  144.8047  132.9566  150.2653 N   0  0  0  0  0  0  0  0  0  0  0  0
  143.4866  132.3939  149.9865 C   0  0  0  0  0  0  0  0  0  0  0  0
  144.9451  134.2303  150.8240 C   0  0  0  0  0  0  0  0  0  0  0  0
  143.9251  135.0856  150.6742 N   0  0  0  0  0  0  0  0  0  0  0  0
  144.0531  136.3187  151.2084 C   0  0  0  0  0  0  0  0  0  0  0  0
  145.2199  136.7070  151.9094 C   0  0  0  0  0  0  0  0  0  0  0  0
  145.4469  137.9896  152.4766 N   0  0  0  0  0  0  0  0  0  0  0  0
  146.4969  138.4067  153.2039 C   0  0  0  0  0  0  0  0  0  0  0  0
  147.5091  137.7468  153.4373 O   0  0  0  0  0  0  0  0  0  0  0  0
  146.3140  139.6577  153.6463 N   0  0  0  0  0  0  0  0  0  0  0  0
  147.2697  140.3836  154.4765 C   0  0  1  0  0  0  0  0  0  0  0  0
  148.6172  140.6030  153.7711 C   0  0  2  0  0  0  0  0  0  0  0  0
  149.8590  139.9426  154.3055 C   0  0  0  0  0  0  0  0  0  0  0  0
  150.4714  141.0321  155.1907 C   0  0  0  0  0  0  0  0  0  0  0  0
  149.3822  141.8977  155.5030 O   0  0  0  0  0  0  0  0  0  0  0  0
  148.5801  142.0173  154.3304 C   0  0  2  0  0  0  0  0  0  0  0  0
  147.0521  141.9181  154.5230 C   0  0  0  0  0  0  0  0  0  0  0  0
  146.2333  142.5545  153.3903 C   0  0  0  0  0  0  0  0  0  0  0  0
  146.5029  142.4825  155.8341 C   0  0  0  0  0  0  0  0  0  0  0  0
  146.2327  135.7315  151.9991 C   0  0  0  0  0  0  0  0  0  0  0  0
  146.0915  134.5015  151.4620 N   0  0  0  0  0  0  0  0  0  0  0  0
  146.5838  131.9837  150.8356 H   0  0  0  0  0  0  0  0  0  0  0  0
  146.5819  132.6275  149.1882 H   0  0  0  0  0  0  0  0  0  0  0  0
  145.6887  131.1561  149.5661 H   0  0  0  0  0  0  0  0  0  0  0  0
  142.9194  132.2804  150.9106 H   0  0  0  0  0  0  0  0  0  0  0  0
  143.5529  131.4144  149.5131 H   0  0  0  0  0  0  0  0  0  0  0  0
  142.9261  133.0475  149.3175 H   0  0  0  0  0  0  0  0  0  0  0  0
  143.2200  136.9835  151.0428 H   0  0  0  0  0  0  0  0  0  0  0  0
  144.7275  138.6753  152.2990 H   0  0  0  0  0  0  0  0  0  0  0  0
  145.4579  140.1348  153.4048 H   0  0  0  0  0  0  0  0  0  0  0  0
  147.4009  139.9545  155.4726 H   0  0  0  0  0  0  0  0  0  0  0  0
  148.5303  140.6006  152.6831 H   0  0  0  0  0  0  0  0  0  0  0  0
  149.6079  139.0594  154.8939 H   0  0  0  0  0  0  0  0  0  0  0  0
  150.5447  139.6358  153.5152 H   0  0  0  0  0  0  0  0  0  0  0  0
  150.9367  140.6314  156.0914 H   0  0  0  0  0  0  0  0  0  0  0  0
  151.2248  141.5956  154.6383 H   0  0  0  0  0  0  0  0  0  0  0  0
  148.9312  142.7820  153.6359 H   0  0  0  0  0  0  0  0  0  0  0  0
  146.3348  143.6400  153.3882 H   0  0  0  0  0  0  0  0  0  0  0  0
  145.1707  142.3272  153.4830 H   0  0  0  0  0  0  0  0  0  0  0  0
  146.5559  142.2029  152.4100 H   0  0  0  0  0  0  0  0  0  0  0  0
  146.6257  143.5646  155.8870 H   0  0  0  0  0  0  0  0  0  0  0  0
  147.0119  142.0575  156.6995 H   0  0  0  0  0  0  0  0  0  0  0  0
  145.4410  142.2630  155.9494 H   0  0  0  0  0  0  0  0  0  0  0  0
  147.1652  135.9369  152.5042 H   0  0  0  0  0  0  0  0  0  0  0  0
  1  2  1  0  0  0  0
  1 23  1  0  0  0  0
  1 24  1  0  0  0  0
  1 25  1  0  0  0  0
  2  3  1  0  0  0  0
  2  4  1  0  0  0  0
  3 26  1  0  0  0  0
  3 27  1  0  0  0  0
  3 28  1  0  0  0  0
  4 22  1  0  0  0  0
  4  5  2  0  0  0  0
  5  6  1  0  0  0  0
  6  7  2  0  0  0  0
  6 29  1  0  0  0  0
  7  8  1  0  0  0  0
  7 21  1  0  0  0  0
  8  9  1  0  0  0  0
  8 30  1  0  0  0  0
  9 10  2  0  0  0  0
  9 11  1  0  0  0  0
 11 12  1  0  0  0  0
 11 31  1  0  0  0  0
 12 18  1  0  0  0  0
 12 13  1  0  0  0  0
 12 32  1  0  0  0  0
 13 17  1  0  0  0  0
 13 14  1  0  0  0  0
 13 33  1  0  0  0  0
 14 15  1  0  0  0  0
 14 34  1  0  0  0  0
 14 35  1  0  0  0  0
 15 16  1  0  0  0  0
 15 36  1  0  0  0  0
 15 37  1  0  0  0  0
 16 17  1  0  0  0  0
 17 18  1  0  0  0  0
 17 38  1  0  0  0  0
 18 19  1  0  0  0  0
 18 20  1  0  0  0  0
 19 39  1  0  0  0  0
 19 40  1  0  0  0  0
 19 41  1  0  0  0  0
 20 42  1  0  0  0  0
 20 43  1  0  0  0  0
 20 44  1  0  0  0  0
 21 22  2  0  0  0  0
 21 45  1  0  0  0  0
M  END
> <s_m_source_file>
AV-unprocessed.smi

> <i_m_source_file_index>
2693

> <i_lp_mmshare_version>
43012

> <i_f3d_flags>
0

> <s_epik_input>
W0NIM11OKFtDSDNdKWMxbltjSF1jKFtjSF1uMSlbTkhdQyg9TylbTkhdW0NASF0yQyhbQ0gzXSkoW0NIM10pW0NAQEhdKFtDQEhdMjMpT1tDSDJdW0NIMl0z

> <s_epik_cmdline>
J2VwaWtfcHl0aG9uJywgJy1waCcsICc3LjAnLCAnLXRuJywgJzgnLCAnLW1hJywgJzIwMCcsICctbWV0YWxfYmluZGluZycsICctaW1hZScsICc8aW5maWxlLm1hZT4nLCAnLW9tYWUnLCAnPG91dGZpbGUubWFlPic=

> <r_lp_tautomer_probability>
1

> <r_epik_Ionization_Penalty>
0.00031779

> <r_epik_Ionization_Penalty_Charging>
0

> <r_epik_Ionization_Penalty_Neutral>
0.00031779

> <r_epik_State_Penalty>
-0

> <r_epik_Charging_Adjusted_Penalty>
0

> <i_epik_Tot_Q>
0

> <i_epik_Tot_abs_Q>
0

> <r_epik_Metal_State_Penalty>
-0

> <b_epik_Metal_Only>
0

> <s_lp_Force_Field>
OPLS_2005

> <r_lp_Energy>
29.1856

> <b_lp_Chiralities_Consistent>
1

> <s_lp_Variant>
AV-unprocessed.smi:2693-6

> <Gold.Version>
5.8.1

> <Gold.Id.Protein>
6NUR|6NUR_protein|mol2

> <Gold.PLP.Fitness>
39.0707

> <Gold.PLP.PLP>
-29.1974

> <Gold.PLP.part.hbond>
-2.4236

> <Gold.PLP.part.metal>
0.0000

> <Gold.PLP.part.buried>
2.6807

> <Gold.PLP.part.nonpolar>
-33.2071

> <Gold.PLP.part.repulsive>
3.8178

> <Gold.PLP.ligand.clash>
0.0000

> <Gold.PLP.ligand.torsion>
0.3337

> <Gold.PLP.Chemscore.Hbond>
1.9100

> <Gold.PLP.Chemscore.CHOScore>
1.5448

> <Gold.PLP.Chemscore.Metal>
0.0000

> <Gold.Chemscore.Hbonds>
donor molecule, donor type, donor heavy atom, donor atom, acceptor molecule, acceptor atom, score
      L1  H     8    30       P1 10175  0.91
      L1  H    11    31       P1 10175  0.99
      L1  C     6    29       P1 10171  0.59
      L1  C    21    45       P1  7948  0.70

> <Gold.PLP.Chemscore.Internal.Correction>
0.1762

> <Gold.Rescore>
     Score         DG    S(hbond)    S(metal)    S(lipo)     H(rot)  DE(clash)    DE(int)     intcor
     13.59     -18.94       1.90        0.00      82.58       1.00       3.58       1.76       ----

> <Gold.Chemscore.Fitness>
13.5898

> <Gold.Chemscore.DG>
-18.9385

> <Gold.Chemscore.ZeroCoef>
-5.4800

> <Gold.Chemscore.Hbond>
1.9032

> <Gold.Chemscore.Metal>
0.0000

> <Gold.Chemscore.Lipo>
82.5780

> <Gold.Chemscore.Internal_Hbond>
0.0000

> <Gold.Chemscore.DEClash>
3.5849

> <Gold.Chemscore.DEInternal>
1.7637

> <Gold.Chemscore.Rot>
1.0000

> <Gold.Chemscore.Internal.Correction>
   9.000000E+99

> <Gold.Chemscore.Hbonds>
donor molecule, donor type, donor heavy atom, donor atom, acceptor molecule, acceptor atom, score
      L1  H     8    30       P1 10175  0.87
      L1  H    11    31       P1 10175  0.92

> <Gold.Chemscore.Hbond.Weighted>
-6.3568

> <Gold.Chemscore.Metal.Weighted>
-0.0000

> <Gold.Chemscore.Lipo.Weighted>
-9.6616

> <Gold.Chemscore.Internal_Hbond.Weighted>
0.0000

> <Gold.Chemscore.DEClash.Weighted>
3.5849

> <Gold.Chemscore.DEInternal.Weighted>
1.7637

> <Gold.Chemscore.Rot.Weighted>
2.5600

> <Gold.Chemscore.Internal.Correction.Weighted>
   9.000000E+99

> <Gold.Protein.RotatedTorsions>
[ 6907 6896 6895 6894 ] final  175.53 input  -60.11 | X-H torsion
[ 7974 7965 7964 7962 ] final  -88.00 input  175.53 | X-H torsion
[ 8008 7997 7996 7995 ] final   52.80 input   59.86 | X-H torsion
[ 10167 10162 10161 10158 ] final  176.67 input  -65.29 | X-H torsion
[ 10718 10713 10712 10709 ] final  104.18 input   66.30 | X-H torsion
[ 10763 10752 10751 10750 ] final  107.20 input  -60.55 | X-H torsion
[ 11005 11000 10999 10996 ] final   56.40 input  -57.11 | X-H torsion

> <Gold.Protein.ActiveResidues>
 VAL166  LYS551  ARG553  GLY616  TRP617  ASP618  TYR619  PRO620  LYS621  CYS622 
 ASP623  PHE694  ASN695  SER759  ASP760  ASP761  ALA762  ILE779  LEU786  VAL792 
 PHE793  MET794  SER795  GLU796  ALA797  LYS798  CYS799  TRP800  GLU811  SER814 

> <Gold.Protein.RotatedAtoms>
  151.7347  133.3319  159.3349 H   0  0  0  0  0  0  0  0  0  0  0  0  # atno 6907 bound_to 6896
  150.7598  134.6332  159.6207 H   0  0  0  0  0  0  0  0  0  0  0  0  # atno 6908 bound_to 6896
  152.3569  134.6929  160.0271 H   0  0  0  0  0  0  0  0  0  0  0  0  # atno 6909 bound_to 6896
  145.4591  140.9561  143.1980 H   0  0  0  0  0  0  0  0  0  0  0  0  # atno 7974 bound_to 7965
  155.4578  140.3460  155.4309 H   0  0  0  0  0  0  0  0  0  0  0  0  # atno 8008 bound_to 7997
  156.1180  140.1479  156.9275 H   0  0  0  0  0  0  0  0  0  0  0  0  # atno 8009 bound_to 7997
  154.4802  140.0872  156.7339 H   0  0  0  0  0  0  0  0  0  0  0  0  # atno 8010 bound_to 7997
  139.5223  144.2888  152.0482 H   0  0  0  0  0  0  0  0  0  0  0  0  # atno 10167 bound_to 10162
  157.6748  131.0797  150.5668 H   0  0  0  0  0  0  0  0  0  0  0  0  # atno 10718 bound_to 10713
  153.4034  135.3852  155.2003 H   0  0  0  0  0  0  0  0  0  0  0  0  # atno 10763 bound_to 10752
  154.8731  135.3777  154.4590 H   0  0  0  0  0  0  0  0  0  0  0  0  # atno 10764 bound_to 10752
  153.5090  135.7087  153.5853 H   0  0  0  0  0  0  0  0  0  0  0  0  # atno 10765 bound_to 10752
  140.0532  134.5707  155.9239 H   0  0  0  0  0  0  0  0  0  0  0  0  # atno 11005 bound_to 11000
  144.8014  139.6134  143.7070 LP  0  0  0  0  0  0  0  0  0  0  0  0  # atno 17320 bound_to 7965
  146.2461  139.6102  142.9458 LP  0  0  0  0  0  0  0  0  0  0  0  0  # atno 17321 bound_to 7965
  140.2340  144.4339  150.6288 LP  0  0  0  0  0  0  0  0  0  0  0  0  # atno 17342 bound_to 10162
  140.6336  143.2191  151.6443 LP  0  0  0  0  0  0  0  0  0  0  0  0  # atno 17343 bound_to 10162
  156.5970  130.4344  149.5913 LP  0  0  0  0  0  0  0  0  0  0  0  0  # atno 17370 bound_to 10713
  156.2537  130.6922  151.1668 LP  0  0  0  0  0  0  0  0  0  0  0  0  # atno 17371 bound_to 10713
  141.1940  133.6581  156.5574 LP  0  0  0  0  0  0  0  0  0  0  0  0  # atno 17394 bound_to 11000
  140.3885  134.7461  157.4706 LP  0  0  0  0  0  0  0  0  0  0  0  0  # atno 17395 bound_to 11000

$$$$
