AV-unprocessed.smi:1006|AV-procd|sdf|4393|dock4
  -GOLD-   22720 2323D 1   1.00000     0.00000
 Structure written by MMmdl.
 46 48  0  0  0  0  0  0  0  0  2 V2000
  150.3847  133.8330  153.9949 C   0  0  0  0  0  0  0  0  0  0  0  0
  149.9993  134.9813  154.9033 C   0  0  0  0  0  0  0  0  0  0  0  0
  150.2875  134.9670  156.2836 C   0  0  0  0  0  0  0  0  0  0  0  0
  149.8802  136.0878  157.0280 C   0  0  0  0  0  0  0  0  0  0  0  0
  150.1233  136.1694  158.3966 N   0  0  0  0  0  0  0  0  0  0  0  0
  149.2427  137.1220  156.4476 N   0  0  0  0  0  0  0  0  0  0  0  0
  148.9974  137.0727  155.1312 C   0  0  0  0  0  0  0  0  0  0  0  0
  148.1565  138.4362  154.3410 S   0  0  0  0  0  0  0  0  0  0  0  0
  148.7015  139.8484  155.3492 C   0  0  0  0  0  0  0  0  0  0  0  0
  149.9639  140.5366  154.7979 C   0  0  1  0  0  0  0  0  0  0  0  0
  149.6973  141.0351  153.5030 O   0  0  0  0  0  0  0  0  0  0  0  0
  150.4469  141.7162  155.6677 C   0  0  0  0  0  0  0  0  0  0  0  0
  151.3916  141.3103  156.6936 N   0  0  0  0  0  0  0  0  0  0  0  0
  152.1971  140.2312  156.6704 C   0  0  0  0  0  0  0  0  0  0  0  0
  152.9781  140.0315  157.7283 N   0  0  0  0  0  0  0  0  0  0  0  0
  152.6410  141.1072  158.5318 C   0  0  0  0  0  0  0  0  0  0  0  0
  153.1049  141.4759  159.8136 C   0  0  0  0  0  0  0  0  0  0  0  0
  152.6040  142.6267  160.4631 C   0  0  0  0  0  0  0  0  0  0  0  0
  153.1264  142.9815  161.8440 C   0  0  0  0  0  0  0  0  0  0  0  0
  151.6254  143.4322  159.8272 C   0  0  0  0  0  0  0  0  0  0  0  0
  151.0674  144.6697  160.5072 C   0  0  0  0  0  0  0  0  0  0  0  0
  151.1576  143.0832  158.5434 C   0  0  0  0  0  0  0  0  0  0  0  0
  151.6577  141.9310  157.9105 C   0  0  0  0  0  0  0  0  0  0  0  0
  149.3551  136.0415  154.3529 N   0  3  0  0  0  0  0  0  0  0  0  0
  151.2769  133.3288  154.3670 H   0  0  0  0  0  0  0  0  0  0  0  0
  150.5928  134.1865  152.9842 H   0  0  0  0  0  0  0  0  0  0  0  0
  149.5746  133.1050  153.9446 H   0  0  0  0  0  0  0  0  0  0  0  0
  150.7984  134.1342  156.7457 H   0  0  0  0  0  0  0  0  0  0  0  0
  150.5971  135.4311  158.8971 H   0  0  0  0  0  0  0  0  0  0  0  0
  149.8659  136.9892  158.9280 H   0  0  0  0  0  0  0  0  0  0  0  0
  147.8862  140.5688  155.4250 H   0  0  0  0  0  0  0  0  0  0  0  0
  148.8971  139.4690  156.3515 H   0  0  0  0  0  0  0  0  0  0  0  0
  150.7660  139.8020  154.7163 H   0  0  0  0  0  0  0  0  0  0  0  0
  149.7829  140.3255  152.8844 H   0  0  0  0  0  0  0  0  0  0  0  0
  150.9217  142.4753  155.0444 H   0  0  0  0  0  0  0  0  0  0  0  0
  149.6001  142.2014  156.1551 H   0  0  0  0  0  0  0  0  0  0  0  0
  152.2054  139.5500  155.8319 H   0  0  0  0  0  0  0  0  0  0  0  0
  153.8487  140.8608  160.2985 H   0  0  0  0  0  0  0  0  0  0  0  0
  153.5549  143.9840  161.8459 H   0  0  0  0  0  0  0  0  0  0  0  0
  153.9027  142.2870  162.1671 H   0  0  0  0  0  0  0  0  0  0  0  0
  152.3202  142.9470  162.5770 H   0  0  0  0  0  0  0  0  0  0  0  0
  150.2853  145.1353  159.9065 H   0  0  0  0  0  0  0  0  0  0  0  0
  151.8556  145.4067  160.6624 H   0  0  0  0  0  0  0  0  0  0  0  0
  150.6363  144.4143  161.4755 H   0  0  0  0  0  0  0  0  0  0  0  0
  150.4122  143.6877  158.0482 H   0  0  0  0  0  0  0  0  0  0  0  0
  149.1483  136.0474  153.3539 H   0  0  0  0  0  0  0  0  0  0  0  0
  1  2  1  0  0  0  0
  1 25  1  0  0  0  0
  1 26  1  0  0  0  0
  1 27  1  0  0  0  0
  2 24  1  0  0  0  0
  2  3  2  0  0  0  0
  3  4  1  0  0  0  0
  3 28  1  0  0  0  0
  4  5  1  0  0  0  0
  4  6  2  0  0  0  0
  5 29  1  0  0  0  0
  5 30  1  0  0  0  0
  6  7  1  0  0  0  0
  7  8  1  0  0  0  0
  7 24  2  0  0  0  0
  8  9  1  0  0  0  0
  9 10  1  0  0  0  0
  9 31  1  0  0  0  0
  9 32  1  0  0  0  0
 10 11  1  0  0  0  0
 10 12  1  0  0  0  0
 10 33  1  0  0  0  0
 11 34  1  0  0  0  0
 12 13  1  0  0  0  0
 12 35  1  0  0  0  0
 12 36  1  0  0  0  0
 13 23  1  0  0  0  0
 13 14  1  0  0  0  0
 14 15  2  0  0  0  0
 14 37  1  0  0  0  0
 15 16  1  0  0  0  0
 16 23  2  0  0  0  0
 16 17  1  0  0  0  0
 17 18  2  0  0  0  0
 17 38  1  0  0  0  0
 18 19  1  0  0  0  0
 18 20  1  0  0  0  0
 19 39  1  0  0  0  0
 19 40  1  0  0  0  0
 19 41  1  0  0  0  0
 20 21  1  0  0  0  0
 20 22  2  0  0  0  0
 21 42  1  0  0  0  0
 21 43  1  0  0  0  0
 21 44  1  0  0  0  0
 22 23  1  0  0  0  0
 22 45  1  0  0  0  0
 24 46  1  0  0  0  0
M  CHG  1  24   1
M  END
> <s_m_source_file>
AV-unprocessed.smi

> <i_m_source_file_index>
1006

> <i_lp_mmshare_version>
43012

> <i_f3d_flags>
0

> <s_epik_input>
W0NIM11jMVtjSF1jKFtOSDJdKW5jKG4xKVNbQ0gyXVtDQEhdKFtPSF0pW0NIMl1uKFtjSF1uMiljKGMyMylbY0hdYyhbQ0gzXSljKFtjSF0zKVtDSDNd

> <s_epik_cmdline>
J2VwaWtfcHl0aG9uJywgJy1waCcsICc3LjAnLCAnLXRuJywgJzgnLCAnLW1hJywgJzIwMCcsICctbWV0YWxfYmluZGluZycsICctaW1hZScsICc8aW5maWxlLm1hZT4nLCAnLW9tYWUnLCAnPG91dGZpbGUubWFlPic=

> <r_lp_tautomer_probability>
0.999762

> <r_epik_Ionization_Penalty>
0.549885

> <r_epik_Ionization_Penalty_Charging>
0.440405

> <r_epik_Ionization_Penalty_Neutral>
0.10948

> <r_epik_State_Penalty>
0.546419

> <r_epik_Charging_Adjusted_Penalty>
0.986823

> <i_epik_Tot_Q>
1

> <i_epik_Tot_abs_Q>
1

> <r_epik_Metal_State_Penalty>
0.699827

> <b_epik_Metal_Only>
0

> <s_lp_Force_Field>
OPLS_2005

> <r_lp_Energy>
7.78967

> <b_lp_Chiralities_Consistent>
1

> <s_lp_Variant>
AV-unprocessed.smi:1006-4

> <Gold.Version>
5.8.1

> <Gold.Id.Protein>
6NUR|6NUR_protein|mol2

> <Gold.PLP.Fitness>
56.3671

> <Gold.PLP.PLP>
-44.6577

> <Gold.PLP.part.hbond>
-4.9556

> <Gold.PLP.part.metal>
0.0000

> <Gold.PLP.part.buried>
-5.2980

> <Gold.PLP.part.nonpolar>
-33.0416

> <Gold.PLP.part.repulsive>
0.1239

> <Gold.PLP.ligand.clash>
0.0000

> <Gold.PLP.ligand.torsion>
1.3217

> <Gold.PLP.Chemscore.Hbond>
4.7680

> <Gold.PLP.Chemscore.CHOScore>
0.0000

> <Gold.PLP.Chemscore.Metal>
0.0000

> <Gold.Chemscore.Hbonds>
donor molecule, donor type, donor heavy atom, donor atom, acceptor molecule, acceptor atom, score
      L1  H    11    34       P1  7957  0.78
      L1  H    24    46       P1  7948  1.82
      P1  H  7997  8009       L1    15  0.95
      P1  H  8011  8017       L1    11  0.90

> <Gold.PLP.Chemscore.Internal.Correction>
0.0488

> <Gold.Rescore>
     Score         DG    S(hbond)    S(metal)    S(lipo)     H(rot)  DE(clash)    DE(int)     intcor
     18.80     -20.34       2.64        0.00     114.82       2.89       0.32       1.22       ----

> <Gold.Chemscore.Fitness>
18.8014

> <Gold.Chemscore.DG>
-20.3402

> <Gold.Chemscore.ZeroCoef>
-5.4800

> <Gold.Chemscore.Hbond>
2.6423

> <Gold.Chemscore.Metal>
0.0000

> <Gold.Chemscore.Lipo>
114.8154

> <Gold.Chemscore.Internal_Hbond>
0.0000

> <Gold.Chemscore.DEClash>
0.3238

> <Gold.Chemscore.DEInternal>
1.2150

> <Gold.Chemscore.Rot>
2.8901

> <Gold.Chemscore.Internal.Correction>
   9.000000E+99

> <Gold.Chemscore.Hbonds>
donor molecule, donor type, donor heavy atom, donor atom, acceptor molecule, acceptor atom, score
      L1  H    11    34       P1  7957  0.78
      L1  H    24    46       P1  7948  0.74
      P1  H  7997  8009       L1    15  0.20
      P1  H  8011  8017       L1    11  0.17

> <Gold.Chemscore.Hbond.Weighted>
-8.8254

> <Gold.Chemscore.Metal.Weighted>
-0.0000

> <Gold.Chemscore.Lipo.Weighted>
-13.4334

> <Gold.Chemscore.Internal_Hbond.Weighted>
0.0000

> <Gold.Chemscore.DEClash.Weighted>
0.3238

> <Gold.Chemscore.DEInternal.Weighted>
1.2150

> <Gold.Chemscore.Rot.Weighted>
7.3986

> <Gold.Chemscore.Internal.Correction.Weighted>
   9.000000E+99

> <Gold.Protein.RotatedTorsions>
[ 6907 6896 6895 6894 ] final -145.09 input  -60.11 | X-H torsion
[ 7974 7965 7964 7962 ] final  -63.82 input  175.53 | X-H torsion
[ 8008 7997 7996 7995 ] final  160.22 input   59.86 | X-H torsion
[ 10167 10162 10161 10158 ] final   93.48 input  -65.29 | X-H torsion
[ 10718 10713 10712 10709 ] final  -98.37 input   66.30 | X-H torsion
[ 10763 10752 10751 10750 ] final  107.50 input  -60.55 | X-H torsion
[ 11005 11000 10999 10996 ] final   53.28 input  -57.11 | X-H torsion

> <Gold.Protein.ActiveResidues>
 VAL166  LYS551  ARG553  GLY616  TRP617  ASP618  TYR619  PRO620  LYS621  CYS622 
 ASP623  PHE694  ASN695  SER759  ASP760  ASP761  ALA762  ILE779  LEU786  VAL792 
 PHE793  MET794  SER795  GLU796  ALA797  LYS798  CYS799  TRP800  GLU811  SER814 

> <Gold.Protein.RotatedAtoms>
  151.1230  133.5090  159.2601 H   0  0  0  0  0  0  0  0  0  0  0  0  # atno 6907 bound_to 6896
  151.1840  135.0373  159.8814 H   0  0  0  0  0  0  0  0  0  0  0  0  # atno 6908 bound_to 6896
  152.5456  134.1079  159.8399 H   0  0  0  0  0  0  0  0  0  0  0  0  # atno 6909 bound_to 6896
  145.7744  140.8796  143.0363 H   0  0  0  0  0  0  0  0  0  0  0  0  # atno 7974 bound_to 7965
  156.2187  140.1810  156.7528 H   0  0  0  0  0  0  0  0  0  0  0  0  # atno 8008 bound_to 7997
  154.5831  140.0663  156.9162 H   0  0  0  0  0  0  0  0  0  0  0  0  # atno 8009 bound_to 7997
  155.2467  140.3326  155.4289 H   0  0  0  0  0  0  0  0  0  0  0  0  # atno 8010 bound_to 7997
  139.8175  144.6746  150.9561 H   0  0  0  0  0  0  0  0  0  0  0  0  # atno 10167 bound_to 10162
  156.0106  130.5235  150.6512 H   0  0  0  0  0  0  0  0  0  0  0  0  # atno 10718 bound_to 10713
  153.4076  135.3842  155.2029 H   0  0  0  0  0  0  0  0  0  0  0  0  # atno 10763 bound_to 10752
  154.8735  135.3786  154.4541 H   0  0  0  0  0  0  0  0  0  0  0  0  # atno 10764 bound_to 10752
  153.5045  135.7088  153.5876 H   0  0  0  0  0  0  0  0  0  0  0  0  # atno 10765 bound_to 10752
  140.0780  134.5378  155.8976 H   0  0  0  0  0  0  0  0  0  0  0  0  # atno 11005 bound_to 11000
  144.6807  139.9900  143.7484 LP  0  0  0  0  0  0  0  0  0  0  0  0  # atno 17320 bound_to 7965
  146.0137  139.3192  143.0854 LP  0  0  0  0  0  0  0  0  0  0  0  0  # atno 17321 bound_to 7965
  140.7815  143.4124  151.0972 LP  0  0  0  0  0  0  0  0  0  0  0  0  # atno 17342 bound_to 10162
  139.7786  143.8388  152.3134 LP  0  0  0  0  0  0  0  0  0  0  0  0  # atno 17343 bound_to 10162
  157.4273  131.0844  151.1073 LP  0  0  0  0  0  0  0  0  0  0  0  0  # atno 17370 bound_to 10713
  157.1656  130.6245  149.5624 LP  0  0  0  0  0  0  0  0  0  0  0  0  # atno 17371 bound_to 10713
  141.2036  133.6633  156.6075 LP  0  0  0  0  0  0  0  0  0  0  0  0  # atno 17394 bound_to 11000
  140.3529  134.7753  157.4480 LP  0  0  0  0  0  0  0  0  0  0  0  0  # atno 17395 bound_to 11000

$$$$
