AV-unprocessed.smi:285|AV-procd|sdf|2165|dock9
  -GOLD-   2262021523D 1   1.00000     0.00000
 Structure written by MMmdl.
 31 33  0  0  0  0  0  0  0  0  1 V2000
  152.4926  143.7462  161.5421 N   0  0  0  0  0  0  0  0  0  0  0  0
  152.0312  143.7661  160.2840 C   0  0  0  0  0  0  0  0  0  0  0  0
  151.4565  144.9037  159.8283 N   0  0  0  0  0  0  0  0  0  0  0  0
  150.9875  144.9501  158.5773 C   0  0  0  0  0  0  0  0  0  0  0  0
  150.9940  143.9923  157.6464 N   0  0  0  0  0  0  0  0  0  0  0  0
  151.5722  142.8437  158.1065 C   0  0  0  0  0  0  0  0  0  0  0  0
  152.1171  142.6528  159.4104 C   0  0  0  0  0  0  0  0  0  0  0  0
  152.6299  141.3676  159.5332 N   0  0  0  0  0  0  0  0  0  0  0  0
  152.3887  140.8491  158.3614 C   0  0  0  0  0  0  0  0  0  0  0  0
  152.9160  139.0605  157.9737 Br  0  0  0  0  0  0  0  0  0  0  0  0
  151.7542  141.6489  157.4376 N   0  0  0  0  0  0  0  0  0  0  0  0
  151.3444  141.3258  156.0361 C   0  0  2  0  0  0  0  0  0  0  0  0
  149.8231  141.3582  155.8887 C   0  0  0  0  0  0  0  0  0  0  0  0
  149.5974  140.2826  154.8471 C   0  0  1  0  0  0  0  0  0  0  0  0
  149.7577  140.8054  153.5411 O   0  0  0  0  0  0  0  0  0  0  0  0
  150.6879  139.2629  155.2136 C   0  0  1  0  0  0  0  0  0  0  0  0
  151.1641  138.3180  154.0973 C   0  0  0  0  0  0  0  0  0  0  0  0
  151.5431  137.0703  154.6385 O   0  0  0  0  0  0  0  0  0  0  0  0
  151.7730  140.0333  155.7276 O   0  0  0  0  0  0  0  0  0  0  0  0
  152.9257  142.9096  161.9063 H   0  0  0  0  0  0  0  0  0  0  0  0
  152.4022  144.5657  162.1250 H   0  0  0  0  0  0  0  0  0  0  0  0
  150.5431  145.8882  158.2793 H   0  0  0  0  0  0  0  0  0  0  0  0
  151.8566  142.0422  155.3948 H   0  0  0  0  0  0  0  0  0  0  0  0
  149.3519  141.0715  156.8299 H   0  0  0  0  0  0  0  0  0  0  0  0
  149.4698  142.3498  155.6032 H   0  0  0  0  0  0  0  0  0  0  0  0
  148.5993  139.8501  154.9229 H   0  0  0  0  0  0  0  0  0  0  0  0
  149.5598  140.1212  152.9196 H   0  0  0  0  0  0  0  0  0  0  0  0
  150.3222  138.6627  156.0484 H   0  0  0  0  0  0  0  0  0  0  0  0
  150.3953  138.1740  153.3381 H   0  0  0  0  0  0  0  0  0  0  0  0
  152.0293  138.7489  153.5929 H   0  0  0  0  0  0  0  0  0  0  0  0
  150.7688  136.6362  154.9630 H   0  0  0  0  0  0  0  0  0  0  0  0
  1  2  1  0  0  0  0
  1 20  1  0  0  0  0
  1 21  1  0  0  0  0
  2  7  1  0  0  0  0
  2  3  2  0  0  0  0
  3  4  1  0  0  0  0
  4  5  2  0  0  0  0
  4 22  1  0  0  0  0
  5  6  1  0  0  0  0
  6 11  1  0  0  0  0
  6  7  2  0  0  0  0
  7  8  1  0  0  0  0
  8  9  2  0  0  0  0
  9 10  1  0  0  0  0
  9 11  1  0  0  0  0
 11 12  1  0  0  0  0
 12 19  1  0  0  0  0
 12 13  1  0  0  0  0
 12 23  1  0  0  0  0
 13 14  1  0  0  0  0
 13 24  1  0  0  0  0
 13 25  1  0  0  0  0
 14 15  1  0  0  0  0
 14 16  1  0  0  0  0
 14 26  1  0  0  0  0
 15 27  1  0  0  0  0
 16 17  1  0  0  0  0
 16 19  1  0  0  0  0
 16 28  1  0  0  0  0
 17 18  1  0  0  0  0
 17 29  1  0  0  0  0
 17 30  1  0  0  0  0
 18 31  1  0  0  0  0
M  END
> <s_m_source_file>
AV-unprocessed.smi

> <i_m_source_file_index>
285

> <i_lp_mmshare_version>
43012

> <i_f3d_flags>
0

> <s_epik_input>
bjFbY0hdbmMoW05IMl0pYyhjMTIpbmMoQnIpbjJbQ0BASF0zW0NIMl1bQ0BASF0oW09IXSlbQ0BIXShPMylbQ0gyXVtPSF0=

> <s_epik_cmdline>
J2VwaWtfcHl0aG9uJywgJy1waCcsICc3LjAnLCAnLXRuJywgJzgnLCAnLW1hJywgJzIwMCcsICctbWV0YWxfYmluZGluZycsICctaW1hZScsICc8aW5maWxlLm1hZT4nLCAnLW9tYWUnLCAnPG91dGZpbGUubWFlPic=

> <r_lp_tautomer_probability>
1

> <r_epik_Ionization_Penalty>
0.000103242

> <r_epik_Ionization_Penalty_Charging>
0

> <r_epik_Ionization_Penalty_Neutral>
0.000103242

> <r_epik_State_Penalty>
-0

> <r_epik_Charging_Adjusted_Penalty>
0

> <i_epik_Tot_Q>
0

> <i_epik_Tot_abs_Q>
0

> <r_epik_Metal_State_Penalty>
-0

> <b_epik_Metal_Only>
0

> <s_epik_Chemistry_Notes>
This compound contains an acetal/aminal-like group ( X-CH(R)-Y where X, Y are N, S, or O) that may be acid/base labile, releasing an aldehyde.

> <s_lp_Force_Field>
OPLS_2005

> <r_lp_Energy>
33.7508

> <b_lp_Chiralities_Consistent>
1

> <s_lp_Variant>
AV-unprocessed.smi:285-1

> <Gold.Version>
5.8.1

> <Gold.Id.Protein>
6NUR|6NUR_protein|mol2

> <Gold.PLP.Fitness>
44.1753

> <Gold.PLP.PLP>
-33.4862

> <Gold.PLP.part.hbond>
-3.9113

> <Gold.PLP.part.metal>
0.0000

> <Gold.PLP.part.buried>
-7.6885

> <Gold.PLP.part.nonpolar>
-22.2580

> <Gold.PLP.part.repulsive>
1.8647

> <Gold.PLP.ligand.clash>
0.0000

> <Gold.PLP.ligand.torsion>
0.4291

> <Gold.PLP.Chemscore.Hbond>
3.0720

> <Gold.PLP.Chemscore.CHOScore>
0.7760

> <Gold.PLP.Chemscore.Metal>
0.0000

> <Gold.Chemscore.Hbonds>
donor molecule, donor type, donor heavy atom, donor atom, acceptor molecule, acceptor atom, score
      L1  H    15    27       P1  7957  0.66
      P1  H  7989  7998       L1    15  0.37
      P1  H  8011  8017       L1    15  1.00
      P1  H 10752 10763       L1    18  1.00
      L1  C     4    22       P1  8029  0.26

> <Gold.PLP.Chemscore.Internal.Correction>
0.0032

> <Gold.Rescore>
     Score         DG    S(hbond)    S(metal)    S(lipo)     H(rot)  DE(clash)    DE(int)     intcor
      7.31      -9.30       2.00        0.00      42.57       3.06       0.09       1.89       ----

> <Gold.Chemscore.Fitness>
7.3125

> <Gold.Chemscore.DG>
-9.2999

> <Gold.Chemscore.ZeroCoef>
-5.4800

> <Gold.Chemscore.Hbond>
1.9983

> <Gold.Chemscore.Metal>
0.0000

> <Gold.Chemscore.Lipo>
42.5711

> <Gold.Chemscore.Internal_Hbond>
0.0000

> <Gold.Chemscore.DEClash>
0.0933

> <Gold.Chemscore.DEInternal>
1.8941

> <Gold.Chemscore.Rot>
3.0607

> <Gold.Chemscore.Internal.Correction>
   9.000000E+99

> <Gold.Chemscore.Hbonds>
donor molecule, donor type, donor heavy atom, donor atom, acceptor molecule, acceptor atom, score
      L1  H    15    27       P1  7957  0.66
      P1  H  7989  7998       L1    15  0.03
      P1  H  8011  8017       L1    15  0.28
      P1  H 10752 10763       L1    18  0.42

> <Gold.Chemscore.Hbond.Weighted>
-6.6744

> <Gold.Chemscore.Metal.Weighted>
-0.0000

> <Gold.Chemscore.Lipo.Weighted>
-4.9808

> <Gold.Chemscore.Internal_Hbond.Weighted>
0.0000

> <Gold.Chemscore.DEClash.Weighted>
0.0933

> <Gold.Chemscore.DEInternal.Weighted>
1.8941

> <Gold.Chemscore.Rot.Weighted>
7.8354

> <Gold.Chemscore.Internal.Correction.Weighted>
   9.000000E+99

> <Gold.Protein.RotatedTorsions>
[ 6907 6896 6895 6894 ] final  -48.16 input  -60.11 | X-H torsion
[ 7974 7965 7964 7962 ] final  138.92 input  175.53 | X-H torsion
[ 8008 7997 7996 7995 ] final  -83.92 input   59.86 | X-H torsion
[ 10167 10162 10161 10158 ] final  168.65 input  -65.29 | X-H torsion
[ 10718 10713 10712 10709 ] final -102.08 input   66.30 | X-H torsion
[ 10763 10752 10751 10750 ] final   58.03 input  -60.55 | X-H torsion
[ 11005 11000 10999 10996 ] final  138.81 input  -57.11 | X-H torsion

> <Gold.Protein.ActiveResidues>
 VAL166  LYS551  ARG553  GLY616  TRP617  ASP618  TYR619  PRO620  LYS621  CYS622 
 ASP623  PHE694  ASN695  SER759  ASP760  ASP761  ALA762  ILE779  LEU786  VAL792 
 PHE793  MET794  SER795  GLU796  ALA797  LYS798  CYS799  TRP800  GLU811  SER814 

> <Gold.Protein.RotatedAtoms>
  150.8934  134.8340  159.7309 H   0  0  0  0  0  0  0  0  0  0  0  0  # atno 6907 bound_to 6896
  152.4850  134.4613  159.9616 H   0  0  0  0  0  0  0  0  0  0  0  0  # atno 6908 bound_to 6896
  151.4673  133.3539  159.2853 H   0  0  0  0  0  0  0  0  0  0  0  0  # atno 6909 bound_to 6896
  144.9327  139.5027  143.5610 H   0  0  0  0  0  0  0  0  0  0  0  0  # atno 7974 bound_to 7965
  154.6242  140.0612  156.9653 H   0  0  0  0  0  0  0  0  0  0  0  0  # atno 8008 bound_to 7997
  155.1768  140.3295  155.4364 H   0  0  0  0  0  0  0  0  0  0  0  0  # atno 8009 bound_to 7997
  156.2448  140.1904  156.6867 H   0  0  0  0  0  0  0  0  0  0  0  0  # atno 8010 bound_to 7997
  139.4973  144.3792  151.9641 H   0  0  0  0  0  0  0  0  0  0  0  0  # atno 10167 bound_to 10162
  156.0216  130.5403  150.7056 H   0  0  0  0  0  0  0  0  0  0  0  0  # atno 10718 bound_to 10713
  152.9862  135.5621  154.5486 H   0  0  0  0  0  0  0  0  0  0  0  0  # atno 10763 bound_to 10752
  154.4927  135.2793  155.1486 H   0  0  0  0  0  0  0  0  0  0  0  0  # atno 10764 bound_to 10752
  154.2949  135.6319  153.5453 H   0  0  0  0  0  0  0  0  0  0  0  0  # atno 10765 bound_to 10752
  140.0210  134.9397  157.0473 H   0  0  0  0  0  0  0  0  0  0  0  0  # atno 11005 bound_to 11000
  146.3254  139.8289  142.8912 LP  0  0  0  0  0  0  0  0  0  0  0  0  # atno 17320 bound_to 7965
  145.3116  141.0221  143.3551 LP  0  0  0  0  0  0  0  0  0  0  0  0  # atno 17321 bound_to 7965
  140.3228  144.3408  150.6005 LP  0  0  0  0  0  0  0  0  0  0  0  0  # atno 17342 bound_to 10162
  140.5709  143.2181  151.7601 LP  0  0  0  0  0  0  0  0  0  0  0  0  # atno 17343 bound_to 10162
  157.4706  131.0892  151.0646 LP  0  0  0  0  0  0  0  0  0  0  0  0  # atno 17370 bound_to 10713
  157.1108  130.6021  149.5481 LP  0  0  0  0  0  0  0  0  0  0  0  0  # atno 17371 bound_to 10713
  140.4388  134.1703  155.7172 LP  0  0  0  0  0  0  0  0  0  0  0  0  # atno 17394 bound_to 11000
  141.1773  133.8487  157.1377 LP  0  0  0  0  0  0  0  0  0  0  0  0  # atno 17395 bound_to 11000

$$$$
