AV-unprocessed.smi:2446|AV-procd|sdf|9643|dock4
  -GOLD-   2272013273D 1   1.00000     0.00000
 Structure written by MMmdl.
 39 40  0  0  0  0  0  0  0  0  1 V2000
  146.8404  142.6548  153.8206 C   0  0  0  0  0  0  0  0  0  0  0  0
  147.4023  141.2436  153.7910 C   0  0  0  0  0  0  0  0  0  0  0  0
  146.8323  140.2765  152.9355 C   0  0  0  0  0  0  0  0  0  0  0  0
  147.2735  139.0048  152.8480 N   0  0  0  0  0  0  0  0  0  0  0  0
  148.3205  138.6482  153.6197 C   0  0  0  0  0  0  0  0  0  0  0  0
  148.9649  139.5303  154.5087 C   0  0  0  0  0  0  0  0  0  0  0  0
  148.4915  140.8609  154.6112 C   0  0  0  0  0  0  0  0  0  0  0  0
  149.0764  141.8400  155.4622 N   0  0  0  0  0  0  0  0  0  0  0  0
  149.6283  141.6936  156.6830 C   0  0  0  0  0  0  0  0  0  0  0  0
  149.7433  140.6256  157.2800 O   0  0  0  0  0  0  0  0  0  0  0  0
  150.0476  142.8464  157.2376 N   0  0  0  0  0  0  0  0  0  0  0  0
  150.6863  143.0513  158.5401 C   0  0  2  0  0  0  0  0  0  0  0  0
  151.2798  144.4699  158.6024 C   0  0  0  0  0  0  0  0  0  0  0  0
  152.0128  144.7103  159.9308 C   0  0  0  0  0  0  0  0  0  0  0  0
  153.0989  143.6494  160.1696 C   0  0  0  0  0  0  0  0  0  0  0  0
  152.5173  142.2207  160.1218 C   0  0  2  0  0  0  0  0  0  0  0  0
  153.5936  141.1464  160.3801 C   0  0  0  0  0  0  0  0  0  0  0  0
  154.6831  141.3798  159.6476 F   0  0  0  0  0  0  0  0  0  0  0  0
  153.9335  141.1414  161.6690 F   0  0  0  0  0  0  0  0  0  0  0  0
  153.1167  139.9403  160.0712 F   0  0  0  0  0  0  0  0  0  0  0  0
  151.7841  141.9932  158.7829 C   0  0  0  0  0  0  0  0  0  0  0  0
  146.0211  142.7699  153.1103 H   0  0  0  0  0  0  0  0  0  0  0  0
  147.6137  143.3792  153.5632 H   0  0  0  0  0  0  0  0  0  0  0  0
  146.4606  142.8926  154.8146 H   0  0  0  0  0  0  0  0  0  0  0  0
  145.9971  140.5291  152.2988 H   0  0  0  0  0  0  0  0  0  0  0  0
  148.6608  137.6278  153.5220 H   0  0  0  0  0  0  0  0  0  0  0  0
  149.8085  139.1722  155.0775 H   0  0  0  0  0  0  0  0  0  0  0  0
  148.9966  142.7911  155.1343 H   0  0  0  0  0  0  0  0  0  0  0  0
  149.9104  143.6805  156.6851 H   0  0  0  0  0  0  0  0  0  0  0  0
  149.9358  142.9748  159.3291 H   0  0  0  0  0  0  0  0  0  0  0  0
  151.9745  144.6196  157.7745 H   0  0  0  0  0  0  0  0  0  0  0  0
  150.4893  145.2117  158.4810 H   0  0  0  0  0  0  0  0  0  0  0  0
  152.4593  145.7050  159.9330 H   0  0  0  0  0  0  0  0  0  0  0  0
  151.2961  144.6916  160.7527 H   0  0  0  0  0  0  0  0  0  0  0  0
  153.8813  143.7561  159.4173 H   0  0  0  0  0  0  0  0  0  0  0  0
  153.5731  143.8299  161.1345 H   0  0  0  0  0  0  0  0  0  0  0  0
  151.7787  142.1373  160.9208 H   0  0  0  0  0  0  0  0  0  0  0  0
  151.3461  140.9952  158.7725 H   0  0  0  0  0  0  0  0  0  0  0  0
  152.5034  142.0175  157.9630 H   0  0  0  0  0  0  0  0  0  0  0  0
  1  2  1  0  0  0  0
  1 22  1  0  0  0  0
  1 23  1  0  0  0  0
  1 24  1  0  0  0  0
  2  7  1  0  0  0  0
  2  3  2  0  0  0  0
  3  4  1  0  0  0  0
  3 25  1  0  0  0  0
  4  5  2  0  0  0  0
  5  6  1  0  0  0  0
  5 26  1  0  0  0  0
  6  7  2  0  0  0  0
  6 27  1  0  0  0  0
  7  8  1  0  0  0  0
  8  9  1  0  0  0  0
  8 28  1  0  0  0  0
  9 10  2  0  0  0  0
  9 11  1  0  0  0  0
 11 12  1  0  0  0  0
 11 29  1  0  0  0  0
 12 21  1  0  0  0  0
 12 13  1  0  0  0  0
 12 30  1  0  0  0  0
 13 14  1  0  0  0  0
 13 31  1  0  0  0  0
 13 32  1  0  0  0  0
 14 15  1  0  0  0  0
 14 33  1  0  0  0  0
 14 34  1  0  0  0  0
 15 16  1  0  0  0  0
 15 35  1  0  0  0  0
 15 36  1  0  0  0  0
 16 17  1  0  0  0  0
 16 21  1  0  0  0  0
 16 37  1  0  0  0  0
 17 18  1  0  0  0  0
 17 19  1  0  0  0  0
 17 20  1  0  0  0  0
 21 38  1  0  0  0  0
 21 39  1  0  0  0  0
M  END
> <s_m_source_file>
AV-unprocessed.smi

> <i_m_source_file_index>
2446

> <i_lp_mmshare_version>
43012

> <i_f3d_flags>
0

> <s_epik_input>
W0NIM11jMVtjSF1uW2NIXVtjSF1jMVtOSF1DKD1PKVtOSF1bQ0BASF0yW0NIMl1bQ0gyXVtDSDJdW0NAQEhdKEMoRikoRilGKVtDSDJdMg==

> <s_epik_cmdline>
J2VwaWtfcHl0aG9uJywgJy1waCcsICc3LjAnLCAnLXRuJywgJzgnLCAnLW1hJywgJzIwMCcsICctbWV0YWxfYmluZGluZycsICctaW1hZScsICc8aW5maWxlLm1hZT4nLCAnLW9tYWUnLCAnPG91dGZpbGUubWFlPic=

> <r_epik_Ionization_Penalty>
0.20168

> <r_epik_Ionization_Penalty_Charging>
0

> <r_epik_Ionization_Penalty_Neutral>
0.20168

> <r_epik_State_Penalty>
0.191514

> <r_epik_Charging_Adjusted_Penalty>
0.191514

> <i_epik_Tot_Q>
0

> <i_epik_Tot_abs_Q>
0

> <r_epik_Metal_State_Penalty>
0.142371

> <b_epik_Metal_Only>
0

> <s_lp_Force_Field>
OPLS_2005

> <r_lp_Energy>
26.2068

> <b_lp_Chiralities_Consistent>
1

> <s_lp_Variant>
AV-unprocessed.smi:2446-3

> <Gold.Version>
5.8.1

> <Gold.Id.Protein>
6NUR|6NUR_protein|mol2

> <Gold.PLP.Fitness>
52.9074

> <Gold.PLP.PLP>
-42.5379

> <Gold.PLP.part.hbond>
-2.0000

> <Gold.PLP.part.metal>
0.0000

> <Gold.PLP.part.buried>
-3.6719

> <Gold.PLP.part.nonpolar>
-37.4681

> <Gold.PLP.part.repulsive>
0.9993

> <Gold.PLP.ligand.clash>
0.0000

> <Gold.PLP.ligand.torsion>
0.7402

> <Gold.PLP.Chemscore.Hbond>
1.9440

> <Gold.PLP.Chemscore.CHOScore>
2.0000

> <Gold.PLP.Chemscore.Metal>
0.0000

> <Gold.Chemscore.Hbonds>
donor molecule, donor type, donor heavy atom, donor atom, acceptor molecule, acceptor atom, score
      L1  H     8    28       P1  8028  0.93
      L1  H    11    29       P1  8028  1.00
      L1  C     3    25       P1 10175  1.00
      L1  C     5    26       P1  7948  1.00

> <Gold.PLP.Chemscore.Internal.Correction>
0.0179

> <Gold.Rescore>
     Score         DG    S(hbond)    S(metal)    S(lipo)     H(rot)  DE(clash)    DE(int)     intcor
     18.90     -22.42       1.88        0.00     112.88       1.00       1.52       2.00       ----

> <Gold.Chemscore.Fitness>
18.9049

> <Gold.Chemscore.DG>
-22.4217

> <Gold.Chemscore.ZeroCoef>
-5.4800

> <Gold.Chemscore.Hbond>
1.8848

> <Gold.Chemscore.Metal>
0.0000

> <Gold.Chemscore.Lipo>
112.8753

> <Gold.Chemscore.Internal_Hbond>
0.0000

> <Gold.Chemscore.DEClash>
1.5176

> <Gold.Chemscore.DEInternal>
1.9992

> <Gold.Chemscore.Rot>
1.0000

> <Gold.Chemscore.Internal.Correction>
   9.000000E+99

> <Gold.Chemscore.Hbonds>
donor molecule, donor type, donor heavy atom, donor atom, acceptor molecule, acceptor atom, score
      L1  H     8    28       P1  8028  0.88
      L1  H    11    29       P1  8028  0.96

> <Gold.Chemscore.Hbond.Weighted>
-6.2953

> <Gold.Chemscore.Metal.Weighted>
-0.0000

> <Gold.Chemscore.Lipo.Weighted>
-13.2064

> <Gold.Chemscore.Internal_Hbond.Weighted>
0.0000

> <Gold.Chemscore.DEClash.Weighted>
1.5176

> <Gold.Chemscore.DEInternal.Weighted>
1.9992

> <Gold.Chemscore.Rot.Weighted>
2.5600

> <Gold.Chemscore.Internal.Correction.Weighted>
   9.000000E+99

> <Gold.Protein.RotatedTorsions>
[ 6907 6896 6895 6894 ] final  -83.77 input  -60.11 | X-H torsion
[ 7974 7965 7964 7962 ] final  -64.68 input  175.53 | X-H torsion
[ 8008 7997 7996 7995 ] final   -8.00 input   59.86 | X-H torsion
[ 10167 10162 10161 10158 ] final  163.48 input  -65.29 | X-H torsion
[ 10718 10713 10712 10709 ] final  -43.20 input   66.30 | X-H torsion
[ 10763 10752 10751 10750 ] final   94.49 input  -60.55 | X-H torsion
[ 11005 11000 10999 10996 ] final  129.64 input  -57.11 | X-H torsion

> <Gold.Protein.ActiveResidues>
 VAL166  LYS551  ARG553  GLY616  TRP617  ASP618  TYR619  PRO620  LYS621  CYS622 
 ASP623  PHE694  ASN695  SER759  ASP760  ASP761  ALA762  ILE779  LEU786  VAL792 
 PHE793  MET794  SER795  GLU796  ALA797  LYS798  CYS799  TRP800  GLU811  SER814 

> <Gold.Protein.RotatedAtoms>
  150.6882  134.3461  159.4888 H   0  0  0  0  0  0  0  0  0  0  0  0  # atno 6907 bound_to 6896
  152.1308  134.9134  160.0568 H   0  0  0  0  0  0  0  0  0  0  0  0  # atno 6908 bound_to 6896
  152.0304  133.3900  159.4332 H   0  0  0  0  0  0  0  0  0  0  0  0  # atno 6909 bound_to 6896
  145.7637  140.8848  143.0416 H   0  0  0  0  0  0  0  0  0  0  0  0  # atno 7974 bound_to 7965
  154.5784  140.2392  155.8090 H   0  0  0  0  0  0  0  0  0  0  0  0  # atno 8008 bound_to 7997
  156.2160  140.3012  155.9798 H   0  0  0  0  0  0  0  0  0  0  0  0  # atno 8009 bound_to 7997
  155.2586  140.0413  157.2985 H   0  0  0  0  0  0  0  0  0  0  0  0  # atno 8010 bound_to 7997
  139.4874  144.4333  151.9044 H   0  0  0  0  0  0  0  0  0  0  0  0  # atno 10167 bound_to 10162
  156.2515  130.4188  149.8644 H   0  0  0  0  0  0  0  0  0  0  0  0  # atno 10718 bound_to 10713
  153.2422  135.4288  155.0710 H   0  0  0  0  0  0  0  0  0  0  0  0  # atno 10763 bound_to 10752
  154.8346  135.3405  154.6632 H   0  0  0  0  0  0  0  0  0  0  0  0  # atno 10764 bound_to 10752
  153.7056  135.7026  153.5108 H   0  0  0  0  0  0  0  0  0  0  0  0  # atno 10765 bound_to 10752
  139.9627  134.9598  156.9178 H   0  0  0  0  0  0  0  0  0  0  0  0  # atno 11005 bound_to 11000
  144.6825  139.9759  143.7483 LP  0  0  0  0  0  0  0  0  0  0  0  0  # atno 17320 bound_to 7965
  146.0238  139.3274  143.0796 LP  0  0  0  0  0  0  0  0  0  0  0  0  # atno 17321 bound_to 7965
  140.3781  144.2771  150.5912 LP  0  0  0  0  0  0  0  0  0  0  0  0  # atno 17342 bound_to 10162
  140.5258  143.2255  151.8317 LP  0  0  0  0  0  0  0  0  0  0  0  0  # atno 17343 bound_to 10162
  156.6191  130.8619  151.3471 LP  0  0  0  0  0  0  0  0  0  0  0  0  # atno 17370 bound_to 10713
  157.7216  130.9566  150.1462 LP  0  0  0  0  0  0  0  0  0  0  0  0  # atno 17371 bound_to 10713
  140.5464  134.0669  155.7356 LP  0  0  0  0  0  0  0  0  0  0  0  0  # atno 17394 bound_to 11000
  141.1305  133.9310  157.2545 LP  0  0  0  0  0  0  0  0  0  0  0  0  # atno 17395 bound_to 11000

$$$$
