AV-unprocessed.smi:2936|AV-procd|sdf|11257|dock5
  -GOLD-   2272016153D 1   1.00000     0.00000
 Structure written by MMmdl.
 23 24  0  0  0  0  0  0  0  0  2 V2000
  152.4259  136.7510  156.5012 O   0  0  0  0  0  0  0  0  0  0  0  0
  152.1687  137.9402  156.3209 C   0  0  0  0  0  0  0  0  0  0  0  0
  151.9719  138.4604  155.0709 N   0  5  0  0  0  0  0  0  0  0  0  0
  151.6706  139.8656  154.9071 N   0  0  0  0  0  0  0  0  0  0  0  0
  151.5848  140.6389  155.9164 C   0  0  0  0  0  0  0  0  0  0  0  0
  151.7841  140.1593  157.3006 C   0  0  0  0  0  0  0  0  0  0  0  0
  151.6784  141.0509  158.3574 N   0  0  0  0  0  0  0  0  0  0  0  0
  150.5912  142.0085  158.4929 C   0  0  0  0  0  0  0  0  0  0  0  0
  151.1533  143.4324  158.6512 C   0  0  0  0  0  0  0  0  0  0  0  0
  152.0609  143.4681  159.7496 O   0  0  0  0  0  0  0  0  0  0  0  0
  153.1659  142.5870  159.5643 C   0  0  0  0  0  0  0  0  0  0  0  0
  152.6556  141.1412  159.4316 C   0  0  0  0  0  0  0  0  0  0  0  0
  152.0668  138.8424  157.4747 C   0  0  0  0  0  0  0  0  0  0  0  0
  152.3145  138.1823  159.0574 Cl  0  0  0  0  0  0  0  0  0  0  0  0
  151.3584  141.7031  155.8100 H   0  0  0  0  0  0  0  0  0  0  0  0
  149.9355  141.9559  157.6229 H   0  0  0  0  0  0  0  0  0  0  0  0
  149.9904  141.7400  159.3625 H   0  0  0  0  0  0  0  0  0  0  0  0
  151.6558  143.7590  157.7399 H   0  0  0  0  0  0  0  0  0  0  0  0
  150.3432  144.1372  158.8366 H   0  0  0  0  0  0  0  0  0  0  0  0
  153.7371  142.8832  158.6837 H   0  0  0  0  0  0  0  0  0  0  0  0
  153.8352  142.6720  160.4202 H   0  0  0  0  0  0  0  0  0  0  0  0
  152.1890  140.8172  160.3624 H   0  0  0  0  0  0  0  0  0  0  0  0
  153.4880  140.4636  159.2383 H   0  0  0  0  0  0  0  0  0  0  0  0
  1  2  2  0  0  0  0
  2 13  1  0  0  0  0
  2  3  1  0  0  0  0
  3  4  1  0  0  0  0
  4  5  2  0  0  0  0
  5  6  1  0  0  0  0
  5 15  1  0  0  0  0
  6  7  1  0  0  0  0
  6 13  2  0  0  0  0
  7 12  1  0  0  0  0
  7  8  1  0  0  0  0
  8  9  1  0  0  0  0
  8 16  1  0  0  0  0
  8 17  1  0  0  0  0
  9 10  1  0  0  0  0
  9 18  1  0  0  0  0
  9 19  1  0  0  0  0
 10 11  1  0  0  0  0
 11 12  1  0  0  0  0
 11 20  1  0  0  0  0
 11 21  1  0  0  0  0
 12 22  1  0  0  0  0
 12 23  1  0  0  0  0
 13 14  1  0  0  0  0
M  CHG  1   3  -1
M  END
> <s_m_source_file>
AV-unprocessed.smi

> <i_m_source_file_index>
2936

> <i_lp_mmshare_version>
43012

> <i_f3d_flags>
0

> <s_epik_input>
Tz1jMVtuSF1uW2NIXWMoYzFDbClOMltDSDJdW0NIMl1PW0NIMl1bQ0gyXTI=

> <s_epik_cmdline>
J2VwaWtfcHl0aG9uJywgJy1waCcsICc3LjAnLCAnLXRuJywgJzgnLCAnLW1hJywgJzIwMCcsICctbWV0YWxfYmluZGluZycsICctaW1hZScsICc8aW5maWxlLm1hZT4nLCAnLW9tYWUnLCAnPG91dGZpbGUubWFlPic=

> <r_lp_tautomer_probability>
1

> <r_epik_Ionization_Penalty>
2.40826

> <r_epik_Ionization_Penalty_Charging>
0.00182709

> <r_epik_Ionization_Penalty_Neutral>
2.40643

> <r_epik_State_Penalty>
0.0371983

> <r_epik_Charging_Adjusted_Penalty>
0.0390254

> <i_epik_Tot_Q>
-1

> <i_epik_Tot_abs_Q>
1

> <r_epik_Metal_State_Penalty>
0.000698467

> <b_epik_Metal_Only>
0

> <s_lp_Force_Field>
OPLS_2005

> <r_lp_Energy>
40.7518

> <b_lp_Chiralities_Consistent>
1

> <s_lp_Variant>
AV-unprocessed.smi:2936-1

> <Gold.Version>
5.8.1

> <Gold.Id.Protein>
6NUR|6NUR_protein|mol2

> <Gold.PLP.Fitness>
29.4220

> <Gold.PLP.PLP>
-23.4272

> <Gold.PLP.part.hbond>
-2.0000

> <Gold.PLP.part.metal>
0.0000

> <Gold.PLP.part.buried>
-4.8003

> <Gold.PLP.part.nonpolar>
-16.2121

> <Gold.PLP.part.repulsive>
0.0864

> <Gold.PLP.ligand.clash>
0.0000

> <Gold.PLP.ligand.torsion>
0.8042

> <Gold.PLP.Chemscore.Hbond>
2.0000

> <Gold.PLP.Chemscore.CHOScore>
0.0000

> <Gold.PLP.Chemscore.Metal>
0.0000

> <Gold.Chemscore.Hbonds>
donor molecule, donor type, donor heavy atom, donor atom, acceptor molecule, acceptor atom, score
      P1  H  7989  7998       L1     4  1.00
      P1  H 10752 10764       L1     1  0.98

> <Gold.PLP.Chemscore.Internal.Correction>
1.6033

> <Gold.Rescore>
     Score         DG    S(hbond)    S(metal)    S(lipo)     H(rot)  DE(clash)    DE(int)     intcor
     17.22     -18.23       1.85        0.00      56.14       0.00       0.00       1.00       ----

> <Gold.Chemscore.Fitness>
17.2244

> <Gold.Chemscore.DG>
-18.2278

> <Gold.Chemscore.ZeroCoef>
-5.4800

> <Gold.Chemscore.Hbond>
1.8502

> <Gold.Chemscore.Metal>
0.0000

> <Gold.Chemscore.Lipo>
56.1367

> <Gold.Chemscore.Internal_Hbond>
0.0000

> <Gold.Chemscore.DEClash>
0.0000

> <Gold.Chemscore.DEInternal>
1.0034

> <Gold.Chemscore.Rot>
0.0000

> <Gold.Chemscore.Internal.Correction>
   9.000000E+99

> <Gold.Chemscore.Hbonds>
donor molecule, donor type, donor heavy atom, donor atom, acceptor molecule, acceptor atom, score
      P1  H  7989  7998       L1     4  0.59
      P1  H 10752 10764       L1     1  0.91

> <Gold.Chemscore.Hbond.Weighted>
-6.1798

> <Gold.Chemscore.Metal.Weighted>
-0.0000

> <Gold.Chemscore.Lipo.Weighted>
-6.5680

> <Gold.Chemscore.Internal_Hbond.Weighted>
0.0000

> <Gold.Chemscore.DEClash.Weighted>
0.0000

> <Gold.Chemscore.DEInternal.Weighted>
1.0034

> <Gold.Chemscore.Rot.Weighted>
0.0000

> <Gold.Chemscore.Internal.Correction.Weighted>
   9.000000E+99

> <Gold.Protein.RotatedTorsions>
[ 6907 6896 6895 6894 ] final -101.49 input  -60.11 | X-H torsion
[ 7974 7965 7964 7962 ] final -122.82 input  175.53 | X-H torsion
[ 8008 7997 7996 7995 ] final  -25.66 input   59.86 | X-H torsion
[ 10167 10162 10161 10158 ] final   -9.20 input  -65.29 | X-H torsion
[ 10718 10713 10712 10709 ] final -175.24 input   66.30 | X-H torsion
[ 10763 10752 10751 10750 ] final  -21.10 input  -60.55 | X-H torsion
[ 11005 11000 10999 10996 ] final  -63.96 input  -57.11 | X-H torsion

> <Gold.Protein.ActiveResidues>
 VAL166  LYS551  ARG553  GLY616  TRP617  ASP618  TYR619  PRO620  LYS621  CYS622 
 ASP623  PHE694  ASN695  SER759  ASP760  ASP761  ALA762  ILE779  LEU786  VAL792 
 PHE793  MET794  SER795  GLU796  ALA797  LYS798  CYS799  TRP800  GLU811  SER814 

> <Gold.Protein.RotatedAtoms>
  150.7157  134.0726  159.3869 H   0  0  0  0  0  0  0  0  0  0  0  0  # atno 6907 bound_to 6896
  151.8708  135.0488  160.0488 H   0  0  0  0  0  0  0  0  0  0  0  0  # atno 6908 bound_to 6896
  152.2644  133.5290  159.5438 H   0  0  0  0  0  0  0  0  0  0  0  0  # atno 6909 bound_to 6896
  145.0253  140.8022  143.4356 H   0  0  0  0  0  0  0  0  0  0  0  0  # atno 7974 bound_to 7965
  154.4464  140.1920  156.0653 H   0  0  0  0  0  0  0  0  0  0  0  0  # atno 8008 bound_to 7997
  156.0552  140.3303  155.7370 H   0  0  0  0  0  0  0  0  0  0  0  0  # atno 8009 bound_to 7997
  155.5497  140.0594  157.2843 H   0  0  0  0  0  0  0  0  0  0  0  0  # atno 8010 bound_to 7997
  140.7080  143.5884  150.8919 H   0  0  0  0  0  0  0  0  0  0  0  0  # atno 10167 bound_to 10162
  156.7969  130.9538  151.3119 H   0  0  0  0  0  0  0  0  0  0  0  0  # atno 10718 bound_to 10713
  153.6309  135.6989  153.5276 H   0  0  0  0  0  0  0  0  0  0  0  0  # atno 10763 bound_to 10752
  153.2860  135.4171  155.1122 H   0  0  0  0  0  0  0  0  0  0  0  0  # atno 10764 bound_to 10752
  154.8522  135.3613  154.5852 H   0  0  0  0  0  0  0  0  0  0  0  0  # atno 10765 bound_to 10752
  141.1410  133.6659  156.5760 H   0  0  0  0  0  0  0  0  0  0  0  0  # atno 11005 bound_to 11000
  145.1842  139.2335  143.5277 LP  0  0  0  0  0  0  0  0  0  0  0  0  # atno 17320 bound_to 7965
  146.3491  140.1622  142.8590 LP  0  0  0  0  0  0  0  0  0  0  0  0  # atno 17321 bound_to 7965
  139.9610  143.6164  152.3002 LP  0  0  0  0  0  0  0  0  0  0  0  0  # atno 17342 bound_to 10162
  139.6716  144.7660  151.1772 LP  0  0  0  0  0  0  0  0  0  0  0  0  # atno 17343 bound_to 10162
  157.6573  130.8935  149.9755 LP  0  0  0  0  0  0  0  0  0  0  0  0  # atno 17370 bound_to 10713
  156.1125  130.3649  150.0025 LP  0  0  0  0  0  0  0  0  0  0  0  0  # atno 17371 bound_to 10713
  140.3876  134.7469  157.4701 LP  0  0  0  0  0  0  0  0  0  0  0  0  # atno 17394 bound_to 11000
  140.0591  134.6022  155.8770 LP  0  0  0  0  0  0  0  0  0  0  0  0  # atno 17395 bound_to 11000

$$$$
