AV-unprocessed.smi:3004|AV-procd|sdf|11440|dock9
  -GOLD-   2272016373D 1   1.00000     0.00000
 Structure written by MMmdl.
 47 48  0  0  0  0  0  0  0  0  2 V2000
  152.4335  144.2179  159.1866 C   0  0  0  0  0  0  0  0  0  0  0  0
  152.6646  142.7715  159.5107 C   0  0  0  0  0  0  0  0  0  0  0  0
  153.5568  142.2136  160.4685 C   0  0  0  0  0  0  0  0  0  0  0  0
  153.3770  140.8641  160.3522 C   0  0  0  0  0  0  0  0  0  0  0  0
  154.0270  139.7386  161.0879 C   0  0  0  0  0  0  0  0  0  0  0  0
  152.4218  140.6700  159.3698 N   0  0  0  0  0  0  0  0  0  0  0  0
  151.8644  139.4245  158.8631 C   0  0  0  0  0  0  0  0  0  0  0  0
  152.1859  139.2269  157.3802 C   0  0  0  0  0  0  0  0  0  0  0  0
  153.3448  139.0138  157.0246 O   0  0  0  0  0  0  0  0  0  0  0  0
  151.1543  139.2972  156.5241 N   0  0  0  0  0  0  0  0  0  0  0  0
  151.2500  139.1132  155.0817 C   0  0  0  0  0  0  0  0  0  0  0  0
  149.9621  138.4888  154.5082 C   0  0  0  0  0  0  0  0  0  0  0  0
  149.0294  139.4904  153.9238 N   0  3  1  0  0  0  0  0  0  0  0  0
  147.7189  138.8855  153.5604 C   0  0  0  0  0  0  0  0  0  0  0  0
  146.8502  139.8671  152.7580 C   0  0  0  0  0  0  0  0  0  0  0  0
  146.6509  141.1792  153.5241 C   0  0  0  0  0  0  0  0  0  0  0  0
  148.0146  141.7729  153.9034 C   0  0  0  0  0  0  0  0  0  0  0  0
  148.8907  140.7715  154.6865 C   0  0  1  0  0  0  0  0  0  0  0  0
  148.3992  140.5783  156.1373 C   0  0  0  0  0  0  0  0  0  0  0  0
  151.9859  141.8422  158.8584 N   0  0  0  0  0  0  0  0  0  0  0  0
  152.9660  144.8677  159.8816 H   0  0  0  0  0  0  0  0  0  0  0  0
  151.3746  144.4703  159.2427 H   0  0  0  0  0  0  0  0  0  0  0  0
  152.7806  144.4537  158.1804 H   0  0  0  0  0  0  0  0  0  0  0  0
  154.2301  142.7277  161.1387 H   0  0  0  0  0  0  0  0  0  0  0  0
  154.7458  140.1136  161.8167 H   0  0  0  0  0  0  0  0  0  0  0  0
  154.5588  139.0803  160.4008 H   0  0  0  0  0  0  0  0  0  0  0  0
  153.2866  139.1448  161.6240 H   0  0  0  0  0  0  0  0  0  0  0  0
  152.2591  138.5854  159.4384 H   0  0  0  0  0  0  0  0  0  0  0  0
  150.7846  139.4335  159.0161 H   0  0  0  0  0  0  0  0  0  0  0  0
  150.2362  139.4773  156.9055 H   0  0  0  0  0  0  0  0  0  0  0  0
  151.4295  140.0980  154.6522 H   0  0  0  0  0  0  0  0  0  0  0  0
  152.1187  138.4986  154.8391 H   0  0  0  0  0  0  0  0  0  0  0  0
  150.2436  137.7927  153.7169 H   0  0  0  0  0  0  0  0  0  0  0  0
  149.4545  137.8885  155.2634 H   0  0  0  0  0  0  0  0  0  0  0  0
  147.8829  137.9918  152.9570 H   0  0  0  0  0  0  0  0  0  0  0  0
  147.1942  138.5586  154.4587 H   0  0  0  0  0  0  0  0  0  0  0  0
  147.3232  140.0727  151.7967 H   0  0  0  0  0  0  0  0  0  0  0  0
  145.8833  139.4145  152.5362 H   0  0  0  0  0  0  0  0  0  0  0  0
  146.0899  141.8880  152.9143 H   0  0  0  0  0  0  0  0  0  0  0  0
  146.0546  141.0015  154.4196 H   0  0  0  0  0  0  0  0  0  0  0  0
  148.5371  142.0681  152.9920 H   0  0  0  0  0  0  0  0  0  0  0  0
  147.8758  142.6883  154.4798 H   0  0  0  0  0  0  0  0  0  0  0  0
  149.8764  141.2315  154.7452 H   0  0  0  0  0  0  0  0  0  0  0  0
  148.2957  141.5412  156.6386 H   0  0  0  0  0  0  0  0  0  0  0  0
  149.1022  139.9932  156.7295 H   0  0  0  0  0  0  0  0  0  0  0  0
  147.4296  140.0833  156.1850 H   0  0  0  0  0  0  0  0  0  0  0  0
  149.4463  139.7514  153.0415 H   0  0  0  0  0  0  0  0  0  0  0  0
  1  2  1  0  0  0  0
  1 21  1  0  0  0  0
  1 22  1  0  0  0  0
  1 23  1  0  0  0  0
  2 20  2  0  0  0  0
  2  3  1  0  0  0  0
  3  4  2  0  0  0  0
  3 24  1  0  0  0  0
  4  5  1  0  0  0  0
  4  6  1  0  0  0  0
  5 25  1  0  0  0  0
  5 26  1  0  0  0  0
  5 27  1  0  0  0  0
  6  7  1  0  0  0  0
  6 20  1  0  0  0  0
  7  8  1  0  0  0  0
  7 28  1  0  0  0  0
  7 29  1  0  0  0  0
  8  9  2  0  0  0  0
  8 10  1  0  0  0  0
 10 11  1  0  0  0  0
 10 30  1  0  0  0  0
 11 12  1  0  0  0  0
 11 31  1  0  0  0  0
 11 32  1  0  0  0  0
 12 13  1  0  0  0  0
 12 33  1  0  0  0  0
 12 34  1  0  0  0  0
 13 18  1  0  0  0  0
 13 14  1  0  0  0  0
 13 47  1  0  0  0  0
 14 15  1  0  0  0  0
 14 35  1  0  0  0  0
 14 36  1  0  0  0  0
 15 16  1  0  0  0  0
 15 37  1  0  0  0  0
 15 38  1  0  0  0  0
 16 17  1  0  0  0  0
 16 39  1  0  0  0  0
 16 40  1  0  0  0  0
 17 18  1  0  0  0  0
 17 41  1  0  0  0  0
 17 42  1  0  0  0  0
 18 19  1  0  0  0  0
 18 43  1  0  0  0  0
 19 44  1  0  0  0  0
 19 45  1  0  0  0  0
 19 46  1  0  0  0  0
M  CHG  1  13   1
M  END
> <s_m_source_file>
AV-unprocessed.smi

> <i_m_source_file_index>
3004

> <i_lp_mmshare_version>
43012

> <i_f3d_flags>
0

> <s_epik_input>
W0NIM11jMVtjSF1jKFtDSDNdKW4objEpW0NIMl1DKD1PKVtOSF1bQ0gyXVtDSDJdTjJbQ0gyXVtDSDJdW0NIMl1bQ0gyXVtDQEhdMltDSDNd

> <s_epik_cmdline>
J2VwaWtfcHl0aG9uJywgJy1waCcsICc3LjAnLCAnLXRuJywgJzgnLCAnLW1hJywgJzIwMCcsICctbWV0YWxfYmluZGluZycsICctaW1hZScsICc8aW5maWxlLm1hZT4nLCAnLW9tYWUnLCAnPG91dGZpbGUubWFlPic=

> <r_lp_tautomer_probability>
1

> <r_epik_Ionization_Penalty>
0.00303644

> <r_epik_Ionization_Penalty_Charging>
0.00284254

> <r_epik_Ionization_Penalty_Neutral>
0.000193908

> <r_epik_State_Penalty>
-0

> <r_epik_Charging_Adjusted_Penalty>
0.00284254

> <i_epik_Tot_Q>
1

> <i_epik_Tot_abs_Q>
1

> <r_epik_Metal_State_Penalty>
-0

> <b_epik_Metal_Only>
0

> <s_lp_Force_Field>
OPLS_2005

> <r_lp_Energy>
17.9546

> <b_lp_Chiralities_Consistent>
1

> <s_lp_Variant>
AV-unprocessed.smi:3004-2

> <Gold.Version>
5.8.1

> <Gold.Id.Protein>
6NUR|6NUR_protein|mol2

> <Gold.PLP.Fitness>
45.9567

> <Gold.PLP.PLP>
-41.3385

> <Gold.PLP.part.hbond>
-1.6836

> <Gold.PLP.part.metal>
0.0000

> <Gold.PLP.part.buried>
-2.4511

> <Gold.PLP.part.nonpolar>
-37.4725

> <Gold.PLP.part.repulsive>
0.1835

> <Gold.PLP.ligand.clash>
0.0000

> <Gold.PLP.ligand.torsion>
0.6363

> <Gold.PLP.Chemscore.Hbond>
1.9425

> <Gold.PLP.Chemscore.CHOScore>
0.0000

> <Gold.PLP.Chemscore.Metal>
0.0000

> <Gold.Chemscore.Hbonds>
donor molecule, donor type, donor heavy atom, donor atom, acceptor molecule, acceptor atom, score
      L1  H    13    47       P1  7957  1.00
      P1  H  7997  8009       L1     9  0.99

> <Gold.PLP.Chemscore.Internal.Correction>
0.0632

> <Gold.Rescore>
     Score         DG    S(hbond)    S(metal)    S(lipo)     H(rot)  DE(clash)    DE(int)     intcor
     19.36     -20.46       1.96        0.00     108.36       1.67       0.42       0.68       ----

> <Gold.Chemscore.Fitness>
19.3615

> <Gold.Chemscore.DG>
-20.4573

> <Gold.Chemscore.ZeroCoef>
-5.4800

> <Gold.Chemscore.Hbond>
1.9649

> <Gold.Chemscore.Metal>
0.0000

> <Gold.Chemscore.Lipo>
108.3648

> <Gold.Chemscore.Internal_Hbond>
0.0000

> <Gold.Chemscore.DEClash>
0.4207

> <Gold.Chemscore.DEInternal>
0.6751

> <Gold.Chemscore.Rot>
1.6657

> <Gold.Chemscore.Internal.Correction>
   9.000000E+99

> <Gold.Chemscore.Hbonds>
donor molecule, donor type, donor heavy atom, donor atom, acceptor molecule, acceptor atom, score
      L1  H    13    47       P1  7957  0.99
      P1  H  7997  8009       L1     9  0.91

> <Gold.Chemscore.Hbond.Weighted>
-6.5627

> <Gold.Chemscore.Metal.Weighted>
-0.0000

> <Gold.Chemscore.Lipo.Weighted>
-12.6787

> <Gold.Chemscore.Internal_Hbond.Weighted>
0.0000

> <Gold.Chemscore.DEClash.Weighted>
0.4207

> <Gold.Chemscore.DEInternal.Weighted>
0.6751

> <Gold.Chemscore.Rot.Weighted>
4.2641

> <Gold.Chemscore.Internal.Correction.Weighted>
   9.000000E+99

> <Gold.Protein.RotatedTorsions>
[ 6907 6896 6895 6894 ] final  -97.80 input  -60.11 | X-H torsion
[ 7974 7965 7964 7962 ] final   76.85 input  175.53 | X-H torsion
[ 8008 7997 7996 7995 ] final -168.05 input   59.86 | X-H torsion
[ 10167 10162 10161 10158 ] final   83.84 input  -65.29 | X-H torsion
[ 10718 10713 10712 10709 ] final  143.11 input   66.30 | X-H torsion
[ 10763 10752 10751 10750 ] final -100.61 input  -60.55 | X-H torsion
[ 11005 11000 10999 10996 ] final -122.41 input  -57.11 | X-H torsion

> <Gold.Protein.ActiveResidues>
 VAL166  LYS551  ARG553  GLY616  TRP617  ASP618  TYR619  PRO620  LYS621  CYS622 
 ASP623  PHE694  ASN695  SER759  ASP760  ASP761  ALA762  ILE779  LEU786  VAL792 
 PHE793  MET794  SER795  GLU796  ALA797  LYS798  CYS799  TRP800  GLU811  SER814 

> <Gold.Protein.RotatedAtoms>
  150.7027  134.1293  159.4063 H   0  0  0  0  0  0  0  0  0  0  0  0  # atno 6907 bound_to 6896
  151.9278  135.0267  160.0536 H   0  0  0  0  0  0  0  0  0  0  0  0  # atno 6908 bound_to 6896
  152.2201  133.4942  159.5194 H   0  0  0  0  0  0  0  0  0  0  0  0  # atno 6909 bound_to 6896
  145.6976  139.2572  143.1724 H   0  0  0  0  0  0  0  0  0  0  0  0  # atno 7974 bound_to 7965
  155.8861  140.1017  157.1451 H   0  0  0  0  0  0  0  0  0  0  0  0  # atno 8008 bound_to 7997
  154.4010  140.1319  156.4321 H   0  0  0  0  0  0  0  0  0  0  0  0  # atno 8009 bound_to 7997
  155.7587  140.3463  155.5189 H   0  0  0  0  0  0  0  0  0  0  0  0  # atno 8010 bound_to 7997
  139.9143  144.6253  150.8505 H   0  0  0  0  0  0  0  0  0  0  0  0  # atno 10167 bound_to 10162
  157.3728  131.0981  151.0812 H   0  0  0  0  0  0  0  0  0  0  0  0  # atno 10718 bound_to 10713
  154.7593  135.4928  153.9434 H   0  0  0  0  0  0  0  0  0  0  0  0  # atno 10763 bound_to 10752
  153.1232  135.6736  153.9308 H   0  0  0  0  0  0  0  0  0  0  0  0  # atno 10764 bound_to 10752
  153.9034  135.3107  155.3427 H   0  0  0  0  0  0  0  0  0  0  0  0  # atno 10765 bound_to 10752
  140.9997  134.0420  157.3553 H   0  0  0  0  0  0  0  0  0  0  0  0  # atno 11005 bound_to 11000
  146.0826  140.7746  142.9634 LP  0  0  0  0  0  0  0  0  0  0  0  0  # atno 17320 bound_to 7965
  144.6978  140.3513  143.7181 LP  0  0  0  0  0  0  0  0  0  0  0  0  # atno 17321 bound_to 7965
  140.7678  143.3343  151.2342 LP  0  0  0  0  0  0  0  0  0  0  0  0  # atno 17342 bound_to 10162
  139.6916  143.9682  152.2862 LP  0  0  0  0  0  0  0  0  0  0  0  0  # atno 17343 bound_to 10162
  157.1910  130.6352  149.5704 LP  0  0  0  0  0  0  0  0  0  0  0  0  # atno 17370 bound_to 10713
  155.9759  130.4722  150.6491 LP  0  0  0  0  0  0  0  0  0  0  0  0  # atno 17371 bound_to 10713
  139.9032  135.0172  156.7368 LP  0  0  0  0  0  0  0  0  0  0  0  0  # atno 17394 bound_to 11000
  140.6908  133.9391  155.7965 LP  0  0  0  0  0  0  0  0  0  0  0  0  # atno 17395 bound_to 11000

$$$$
