AV-unprocessed.smi:2822|AV-procd|sdf|10878|dock7
  -GOLD-   2272015323D 1   1.00000     0.00000
 Structure written by MMmdl.
 40 42  0  0  0  0  0  0  0  0  2 V2000
  150.1545  138.6903  154.1078 Cl  0  0  0  0  0  0  0  0  0  0  0  0
  148.9484  139.9285  154.1522 C   0  0  0  0  0  0  0  0  0  0  0  0
  149.1772  141.0851  154.9259 C   0  0  0  0  0  0  0  0  0  0  0  0
  148.2468  142.0619  154.9727 N   0  3  0  0  0  0  0  0  0  0  0  0
  147.0792  141.9890  154.2997 C   0  0  0  0  0  0  0  0  0  0  0  0
  146.7930  140.8582  153.5086 C   0  0  0  0  0  0  0  0  0  0  0  0
  147.7366  139.8035  153.4287 C   0  0  0  0  0  0  0  0  0  0  0  0
  147.5103  138.6518  152.6600 N   0  0  0  0  0  0  0  0  0  0  0  0
  146.1629  138.1498  152.4380 C   0  0  0  0  0  0  0  0  0  0  0  0
  145.6987  137.2517  153.5999 C   0  0  2  0  0  0  0  0  0  0  0  0
  146.3445  135.8536  153.5699 C   0  0  0  0  0  0  0  0  0  0  0  0
  145.8292  135.0170  152.4927 N   0  0  0  0  0  0  0  0  0  0  0  0
  146.4521  133.6936  152.5131 C   0  0  0  0  0  0  0  0  0  0  0  0
  145.9530  132.7890  151.3757 C   0  0  0  0  0  0  0  0  0  0  0  0
  144.4246  132.6586  151.4312 C   0  0  0  0  0  0  0  0  0  0  0  0
  143.7790  134.0521  151.4568 C   0  0  0  0  0  0  0  0  0  0  0  0
  144.3703  134.9147  152.5913 C   0  0  2  0  0  0  0  0  0  0  0  0
  143.7174  136.3111  152.6012 C   0  0  0  0  0  0  0  0  0  0  0  0
  144.2766  137.1170  153.6357 O   0  0  0  0  0  0  0  0  0  0  0  0
  150.0723  141.2568  155.5056 H   0  0  0  0  0  0  0  0  0  0  0  0
  146.4129  142.8320  154.4124 H   0  0  0  0  0  0  0  0  0  0  0  0
  145.8553  140.8192  152.9746 H   0  0  0  0  0  0  0  0  0  0  0  0
  148.2877  138.0434  152.4430 H   0  0  0  0  0  0  0  0  0  0  0  0
  145.4732  138.9808  152.2905 H   0  0  0  0  0  0  0  0  0  0  0  0
  146.1617  137.5705  151.5139 H   0  0  0  0  0  0  0  0  0  0  0  0
  145.9964  137.7334  154.5321 H   0  0  0  0  0  0  0  0  0  0  0  0
  147.4268  135.9520  153.4790 H   0  0  0  0  0  0  0  0  0  0  0  0
  146.1612  135.3634  154.5275 H   0  0  0  0  0  0  0  0  0  0  0  0
  147.5349  133.7980  152.4335 H   0  0  0  0  0  0  0  0  0  0  0  0
  146.2593  133.2084  153.4712 H   0  0  0  0  0  0  0  0  0  0  0  0
  146.2533  133.2082  150.4145 H   0  0  0  0  0  0  0  0  0  0  0  0
  146.4171  131.8049  151.4465 H   0  0  0  0  0  0  0  0  0  0  0  0
  144.0609  132.0864  150.5774 H   0  0  0  0  0  0  0  0  0  0  0  0
  144.1361  132.1054  152.3257 H   0  0  0  0  0  0  0  0  0  0  0  0
  143.9408  134.5436  150.4964 H   0  0  0  0  0  0  0  0  0  0  0  0
  142.6995  133.9558  151.5780 H   0  0  0  0  0  0  0  0  0  0  0  0
  144.1225  134.4318  153.5383 H   0  0  0  0  0  0  0  0  0  0  0  0
  143.8330  136.8044  151.6358 H   0  0  0  0  0  0  0  0  0  0  0  0
  142.6450  136.2241  152.7771 H   0  0  0  0  0  0  0  0  0  0  0  0
  148.4345  142.8894  155.5397 H   0  0  0  0  0  0  0  0  0  0  0  0
  1  2  1  0  0  0  0
  2  7  1  0  0  0  0
  2  3  2  0  0  0  0
  3  4  1  0  0  0  0
  3 20  1  0  0  0  0
  4  5  2  0  0  0  0
  4 40  1  0  0  0  0
  5  6  1  0  0  0  0
  5 21  1  0  0  0  0
  6  7  2  0  0  0  0
  6 22  1  0  0  0  0
  7  8  1  0  0  0  0
  8  9  1  0  0  0  0
  8 23  1  0  0  0  0
  9 10  1  0  0  0  0
  9 24  1  0  0  0  0
  9 25  1  0  0  0  0
 10 19  1  0  0  0  0
 10 11  1  0  0  0  0
 10 26  1  0  0  0  0
 11 12  1  0  0  0  0
 11 27  1  0  0  0  0
 11 28  1  0  0  0  0
 12 17  1  0  0  0  0
 12 13  1  0  0  0  0
 13 14  1  0  0  0  0
 13 29  1  0  0  0  0
 13 30  1  0  0  0  0
 14 15  1  0  0  0  0
 14 31  1  0  0  0  0
 14 32  1  0  0  0  0
 15 16  1  0  0  0  0
 15 33  1  0  0  0  0
 15 34  1  0  0  0  0
 16 17  1  0  0  0  0
 16 35  1  0  0  0  0
 16 36  1  0  0  0  0
 17 18  1  0  0  0  0
 17 37  1  0  0  0  0
 18 19  1  0  0  0  0
 18 38  1  0  0  0  0
 18 39  1  0  0  0  0
M  CHG  1   4   1
M  END
> <s_m_source_file>
AV-unprocessed.smi

> <i_m_source_file_index>
2822

> <i_lp_mmshare_version>
43012

> <i_f3d_flags>
0

> <s_epik_input>
Q2xjMVtjSF1uW2NIXVtjSF1jMVtOSF1bQ0gyXVtDQEhdKFtDSDJdMilPW0NIMl1bQ0BASF0oTjIzKVtDSDJdW0NIMl1bQ0gyXVtDSDJdMw==

> <s_epik_cmdline>
J2VwaWtfcHl0aG9uJywgJy1waCcsICc3LjAnLCAnLXRuJywgJzgnLCAnLW1hJywgJzIwMCcsICctbWV0YWxfYmluZGluZycsICctaW1hZScsICc8aW5maWxlLm1hZT4nLCAnLW9tYWUnLCAnPG91dGZpbGUubWFlPic=

> <r_epik_Ionization_Penalty>
1.37653

> <r_epik_Ionization_Penalty_Charging>
0.152973

> <r_epik_Ionization_Penalty_Neutral>
1.22356

> <r_epik_State_Penalty>
1.42693

> <r_epik_Charging_Adjusted_Penalty>
1.5799

> <i_epik_Tot_Q>
1

> <i_epik_Tot_abs_Q>
1

> <r_epik_Metal_State_Penalty>
4.59822

> <b_epik_Metal_Only>
0

> <s_lp_Force_Field>
OPLS_2005

> <r_lp_Energy>
45.685

> <b_lp_Chiralities_Consistent>
1

> <s_lp_Variant>
AV-unprocessed.smi:2822-19

> <Gold.Version>
5.8.1

> <Gold.Id.Protein>
6NUR|6NUR_protein|mol2

> <Gold.PLP.Fitness>
41.2886

> <Gold.PLP.PLP>
-33.3219

> <Gold.PLP.part.hbond>
-3.0000

> <Gold.PLP.part.metal>
0.0000

> <Gold.PLP.part.buried>
-1.7436

> <Gold.PLP.part.nonpolar>
-29.9158

> <Gold.PLP.part.repulsive>
0.4830

> <Gold.PLP.ligand.clash>
0.0000

> <Gold.PLP.ligand.torsion>
0.5069

> <Gold.PLP.Chemscore.Hbond>
2.9920

> <Gold.PLP.Chemscore.CHOScore>
0.0000

> <Gold.PLP.Chemscore.Metal>
0.0000

> <Gold.Chemscore.Hbonds>
donor molecule, donor type, donor heavy atom, donor atom, acceptor molecule, acceptor atom, score
      L1  H     4    40       P1  8028  1.98
      L1  H     8    23       P1  7948  0.99

> <Gold.PLP.Chemscore.Internal.Correction>
0.0045

> <Gold.Rescore>
     Score         DG    S(hbond)    S(metal)    S(lipo)     H(rot)  DE(clash)    DE(int)     intcor
     17.31     -19.15       1.93        0.00      87.37       1.18       1.33       0.50       ----

> <Gold.Chemscore.Fitness>
17.3093

> <Gold.Chemscore.DG>
-19.1459

> <Gold.Chemscore.ZeroCoef>
-5.4800

> <Gold.Chemscore.Hbond>
1.9345

> <Gold.Chemscore.Metal>
0.0000

> <Gold.Chemscore.Lipo>
87.3701

> <Gold.Chemscore.Internal_Hbond>
0.0000

> <Gold.Chemscore.DEClash>
1.3340

> <Gold.Chemscore.DEInternal>
0.5026

> <Gold.Chemscore.Rot>
1.1788

> <Gold.Chemscore.Internal.Correction>
   9.000000E+99

> <Gold.Chemscore.Hbonds>
donor molecule, donor type, donor heavy atom, donor atom, acceptor molecule, acceptor atom, score
      L1  H     4    40       P1  8028  0.93
      L1  H     8    23       P1  7948  0.91

> <Gold.Chemscore.Hbond.Weighted>
-6.4613

> <Gold.Chemscore.Metal.Weighted>
-0.0000

> <Gold.Chemscore.Lipo.Weighted>
-10.2223

> <Gold.Chemscore.Internal_Hbond.Weighted>
0.0000

> <Gold.Chemscore.DEClash.Weighted>
1.3340

> <Gold.Chemscore.DEInternal.Weighted>
0.5026

> <Gold.Chemscore.Rot.Weighted>
3.0177

> <Gold.Chemscore.Internal.Correction.Weighted>
   9.000000E+99

> <Gold.Protein.RotatedTorsions>
[ 6907 6896 6895 6894 ] final -109.53 input  -60.11 | X-H torsion
[ 7974 7965 7964 7962 ] final    4.34 input  175.53 | X-H torsion
[ 8008 7997 7996 7995 ] final   20.29 input   59.86 | X-H torsion
[ 10167 10162 10161 10158 ] final   55.04 input  -65.29 | X-H torsion
[ 10718 10713 10712 10709 ] final  173.51 input   66.30 | X-H torsion
[ 10763 10752 10751 10750 ] final    8.41 input  -60.55 | X-H torsion
[ 11005 11000 10999 10996 ] final -130.04 input  -57.11 | X-H torsion

> <Gold.Protein.ActiveResidues>
 VAL166  LYS551  ARG553  GLY616  TRP617  ASP618  TYR619  PRO620  LYS621  CYS622 
 ASP623  PHE694  ASN695  SER759  ASP760  ASP761  ALA762  ILE779  LEU786  VAL792 
 PHE793  MET794  SER795  GLU796  ALA797  LYS798  CYS799  TRP800  GLU811  SER814 

> <Gold.Protein.RotatedAtoms>
  150.7568  133.9515  159.3486 H   0  0  0  0  0  0  0  0  0  0  0  0  # atno 6907 bound_to 6896
  151.7432  135.0847  160.0328 H   0  0  0  0  0  0  0  0  0  0  0  0  # atno 6908 bound_to 6896
  152.3514  133.6147  159.5984 H   0  0  0  0  0  0  0  0  0  0  0  0  # atno 6909 bound_to 6896
  146.2444  140.0549  142.8372 H   0  0  0  0  0  0  0  0  0  0  0  0  # atno 7974 bound_to 7965
  154.9334  140.3043  155.5156 H   0  0  0  0  0  0  0  0  0  0  0  0  # atno 8008 bound_to 7997
  156.3002  140.2349  156.4333 H   0  0  0  0  0  0  0  0  0  0  0  0  # atno 8009 bound_to 7997
  154.8215  140.0423  157.1403 H   0  0  0  0  0  0  0  0  0  0  0  0  # atno 8010 bound_to 7997
  140.2237  144.3761  150.6440 H   0  0  0  0  0  0  0  0  0  0  0  0  # atno 10167 bound_to 10162
  156.9632  131.0067  151.2923 H   0  0  0  0  0  0  0  0  0  0  0  0  # atno 10718 bound_to 10713
  153.2254  135.6886  153.7952 H   0  0  0  0  0  0  0  0  0  0  0  0  # atno 10763 bound_to 10752
  153.7135  135.3278  155.3252 H   0  0  0  0  0  0  0  0  0  0  0  0  # atno 10764 bound_to 10752
  154.8289  135.4596  154.1118 H   0  0  0  0  0  0  0  0  0  0  0  0  # atno 10765 bound_to 10752
  140.9380  134.1232  157.4177 H   0  0  0  0  0  0  0  0  0  0  0  0  # atno 11005 bound_to 11000
  145.0951  140.9309  143.4746 LP  0  0  0  0  0  0  0  0  0  0  0  0  # atno 17320 bound_to 7965
  145.0730  139.3017  143.5822 LP  0  0  0  0  0  0  0  0  0  0  0  0  # atno 17321 bound_to 7965
  140.6236  143.2179  151.6643 LP  0  0  0  0  0  0  0  0  0  0  0  0  # atno 17342 bound_to 10162
  139.5135  144.3442  152.0712 LP  0  0  0  0  0  0  0  0  0  0  0  0  # atno 17343 bound_to 10162
  157.5644  130.8267  149.8307 LP  0  0  0  0  0  0  0  0  0  0  0  0  # atno 17370 bound_to 10713
  156.0313  130.3764  150.1679 LP  0  0  0  0  0  0  0  0  0  0  0  0  # atno 17371 bound_to 10713
  139.8813  135.0027  156.6143 LP  0  0  0  0  0  0  0  0  0  0  0  0  # atno 17394 bound_to 11000
  140.7773  133.8689  155.8539 LP  0  0  0  0  0  0  0  0  0  0  0  0  # atno 17395 bound_to 11000

$$$$
