AV-unprocessed.smi:951|AV-procd|sdf|4252|dock8
  -GOLD-   22720 2163D 1   1.00000     0.00000
 Structure written by MMmdl.
 51 53  0  0  0  0  0  0  0  0  1 V2000
  152.3768  138.7368  158.7207 O   0  0  0  0  0  0  0  0  0  0  0  0
  151.4300  138.7989  157.9352 C   0  0  0  0  0  0  0  0  0  0  0  0
  150.2404  138.2286  158.1734 N   0  0  0  0  0  0  0  0  0  0  0  0
  149.9242  137.4543  159.3651 C   0  0  0  0  0  0  0  0  0  0  0  0
  148.6256  136.6605  159.1657 C   0  0  0  0  0  0  0  0  0  0  0  0
  148.0112  136.2234  160.4820 C   0  0  0  0  0  0  0  0  0  0  0  0
  147.8836  134.8539  160.7989 C   0  0  0  0  0  0  0  0  0  0  0  0
  147.3108  134.5022  162.0365 C   0  0  0  0  0  0  0  0  0  0  0  0
  146.8913  135.5278  162.9056 C   0  0  0  0  0  0  0  0  0  0  0  0
  147.0646  136.8654  162.4970 C   0  0  0  0  0  0  0  0  0  0  0  0
  147.6116  137.2134  161.3122 N   0  0  0  0  0  0  0  0  0  0  0  0
  151.5616  139.5748  156.6099 C   0  0  1  0  0  0  0  0  0  0  0  0
  150.6591  138.9338  155.5437 C   0  0  0  0  0  0  0  0  0  0  0  0
  150.2800  140.0772  154.6245 C   0  0  0  0  0  0  0  0  0  0  0  0
  150.2850  141.3121  155.5234 C   0  0  0  0  0  0  0  0  0  0  0  0
  151.1441  140.9913  156.6681 N   0  0  0  0  0  0  0  0  0  0  0  0
  151.5631  141.8970  157.5906 C   0  0  0  0  0  0  0  0  0  0  0  0
  152.4017  141.6083  158.4448 O   0  0  0  0  0  0  0  0  0  0  0  0
  150.9848  143.3341  157.5684 C   0  0  0  0  0  0  0  0  0  0  0  0
  152.0530  144.3822  157.1774 C   0  0  0  0  0  0  0  0  0  0  0  0
  153.0239  144.7160  158.3237 C   0  0  0  0  0  0  0  0  0  0  0  0
  152.2617  145.1829  159.5721 C   0  0  0  0  0  0  0  0  0  0  0  0
  151.2469  144.1258  160.0298 C   0  0  0  0  0  0  0  0  0  0  0  0
  150.2828  143.7337  158.8919 C   0  0  0  0  0  0  0  0  0  0  0  0
  149.5122  138.3308  157.4814 H   0  0  0  0  0  0  0  0  0  0  0  0
  150.7480  136.7724  159.5831 H   0  0  0  0  0  0  0  0  0  0  0  0
  149.8277  138.1283  160.2179 H   0  0  0  0  0  0  0  0  0  0  0  0
  147.8981  137.2635  158.6199 H   0  0  0  0  0  0  0  0  0  0  0  0
  148.8176  135.7802  158.5506 H   0  0  0  0  0  0  0  0  0  0  0  0
  148.2178  134.0893  160.1125 H   0  0  0  0  0  0  0  0  0  0  0  0
  147.1959  133.4649  162.3142 H   0  0  0  0  0  0  0  0  0  0  0  0
  146.4484  135.2955  163.8627 H   0  0  0  0  0  0  0  0  0  0  0  0
  146.7558  137.6774  163.1384 H   0  0  0  0  0  0  0  0  0  0  0  0
  152.5989  139.5559  156.2701 H   0  0  0  0  0  0  0  0  0  0  0  0
  151.1543  138.1209  155.0117 H   0  0  0  0  0  0  0  0  0  0  0  0
  149.7485  138.5277  155.9886 H   0  0  0  0  0  0  0  0  0  0  0  0
  151.0463  140.1870  153.8559 H   0  0  0  0  0  0  0  0  0  0  0  0
  149.3252  139.9224  154.1213 H   0  0  0  0  0  0  0  0  0  0  0  0
  150.6304  142.1906  154.9766 H   0  0  0  0  0  0  0  0  0  0  0  0
  149.2730  141.5064  155.8814 H   0  0  0  0  0  0  0  0  0  0  0  0
  150.1997  143.3739  156.8158 H   0  0  0  0  0  0  0  0  0  0  0  0
  152.6190  144.0423  156.3092 H   0  0  0  0  0  0  0  0  0  0  0  0
  151.5507  145.2975  156.8620 H   0  0  0  0  0  0  0  0  0  0  0  0
  153.6337  143.8454  158.5669 H   0  0  0  0  0  0  0  0  0  0  0  0
  153.7173  145.4942  158.0035 H   0  0  0  0  0  0  0  0  0  0  0  0
  152.9634  145.3978  160.3784 H   0  0  0  0  0  0  0  0  0  0  0  0
  151.7435  146.1180  159.3556 H   0  0  0  0  0  0  0  0  0  0  0  0
  151.7755  143.2495  160.4034 H   0  0  0  0  0  0  0  0  0  0  0  0
  150.6752  144.5092  160.8753 H   0  0  0  0  0  0  0  0  0  0  0  0
  149.6249  144.5802  158.6917 H   0  0  0  0  0  0  0  0  0  0  0  0
  149.6289  142.9280  159.2289 H   0  0  0  0  0  0  0  0  0  0  0  0
  1  2  2  0  0  0  0
  2  3  1  0  0  0  0
  2 12  1  0  0  0  0
  3  4  1  0  0  0  0
  3 25  1  0  0  0  0
  4  5  1  0  0  0  0
  4 26  1  0  0  0  0
  4 27  1  0  0  0  0
  5  6  1  0  0  0  0
  5 28  1  0  0  0  0
  5 29  1  0  0  0  0
  6 11  1  0  0  0  0
  6  7  2  0  0  0  0
  7  8  1  0  0  0  0
  7 30  1  0  0  0  0
  8  9  2  0  0  0  0
  8 31  1  0  0  0  0
  9 10  1  0  0  0  0
  9 32  1  0  0  0  0
 10 11  2  0  0  0  0
 10 33  1  0  0  0  0
 12 16  1  0  0  0  0
 12 13  1  0  0  0  0
 12 34  1  0  0  0  0
 13 14  1  0  0  0  0
 13 35  1  0  0  0  0
 13 36  1  0  0  0  0
 14 15  1  0  0  0  0
 14 37  1  0  0  0  0
 14 38  1  0  0  0  0
 15 16  1  0  0  0  0
 15 39  1  0  0  0  0
 15 40  1  0  0  0  0
 16 17  1  0  0  0  0
 17 18  2  0  0  0  0
 17 19  1  0  0  0  0
 19 24  1  0  0  0  0
 19 20  1  0  0  0  0
 19 41  1  0  0  0  0
 20 21  1  0  0  0  0
 20 42  1  0  0  0  0
 20 43  1  0  0  0  0
 21 22  1  0  0  0  0
 21 44  1  0  0  0  0
 21 45  1  0  0  0  0
 22 23  1  0  0  0  0
 22 46  1  0  0  0  0
 22 47  1  0  0  0  0
 23 24  1  0  0  0  0
 23 48  1  0  0  0  0
 23 49  1  0  0  0  0
 24 50  1  0  0  0  0
 24 51  1  0  0  0  0
M  END
> <s_m_source_file>
AV-unprocessed.smi

> <i_m_source_file_index>
951

> <i_lp_mmshare_version>
43012

> <i_f3d_flags>
0

> <s_epik_input>
bjFbY0hdW2NIXVtjSF1bY0hdYzFbQ0gyXVtDSDJdW05IXUMoPU8pW0NAQEhdMltDSDJdW0NIMl1bQ0gyXU4yQyg9TylbQ0hdM1tDSDJdW0NIMl1bQ0gyXVtDSDJdW0NIMl0z

> <s_epik_cmdline>
J2VwaWtfcHl0aG9uJywgJy1waCcsICc3LjAnLCAnLXRuJywgJzgnLCAnLW1hJywgJzIwMCcsICctbWV0YWxfYmluZGluZycsICctaW1hZScsICc8aW5maWxlLm1hZT4nLCAnLW9tYWUnLCAnPG91dGZpbGUubWFlPic=

> <r_epik_Ionization_Penalty>
0.0265505

> <r_epik_Ionization_Penalty_Charging>
0

> <r_epik_Ionization_Penalty_Neutral>
0.0265505

> <r_epik_State_Penalty>
0.02168

> <r_epik_Charging_Adjusted_Penalty>
0.02168

> <i_epik_Tot_Q>
0

> <i_epik_Tot_abs_Q>
0

> <r_epik_Metal_State_Penalty>
0.020746

> <b_epik_Metal_Only>
0

> <s_lp_Force_Field>
OPLS_2005

> <r_lp_Energy>
20.7073

> <b_lp_Chiralities_Consistent>
1

> <s_lp_Variant>
AV-unprocessed.smi:951-2

> <Gold.Version>
5.8.1

> <Gold.Id.Protein>
6NUR|6NUR_protein|mol2

> <Gold.PLP.Fitness>
54.9403

> <Gold.PLP.PLP>
-51.1997

> <Gold.PLP.part.hbond>
-2.0000

> <Gold.PLP.part.metal>
0.0000

> <Gold.PLP.part.buried>
-3.8772

> <Gold.PLP.part.nonpolar>
-45.8008

> <Gold.PLP.part.repulsive>
0.1008

> <Gold.PLP.ligand.clash>
0.0000

> <Gold.PLP.ligand.torsion>
0.9967

> <Gold.PLP.Chemscore.Hbond>
1.8800

> <Gold.PLP.Chemscore.CHOScore>
0.0000

> <Gold.PLP.Chemscore.Metal>
0.0000

> <Gold.Chemscore.Hbonds>
donor molecule, donor type, donor heavy atom, donor atom, acceptor molecule, acceptor atom, score
      P1  H  6931  6943       L1    11  0.94
      P1  H  6934  6947       L1    11  0.86

> <Gold.PLP.Chemscore.Internal.Correction>
0.0940

> <Gold.Rescore>
     Score         DG    S(hbond)    S(metal)    S(lipo)     H(rot)  DE(clash)    DE(int)     intcor
     18.38     -21.73       1.08        0.00     142.08       1.55       0.14       3.21       ----

> <Gold.Chemscore.Fitness>
18.3764

> <Gold.Chemscore.DG>
-21.7265

> <Gold.Chemscore.ZeroCoef>
-5.4800

> <Gold.Chemscore.Hbond>
1.0757

> <Gold.Chemscore.Metal>
0.0000

> <Gold.Chemscore.Lipo>
142.0781

> <Gold.Chemscore.Internal_Hbond>
0.0000

> <Gold.Chemscore.DEClash>
0.1364

> <Gold.Chemscore.DEInternal>
3.2137

> <Gold.Chemscore.Rot>
1.5506

> <Gold.Chemscore.Internal.Correction>
   9.000000E+99

> <Gold.Chemscore.Hbonds>
donor molecule, donor type, donor heavy atom, donor atom, acceptor molecule, acceptor atom, score
      P1  H  6931  6943       L1    11  0.20
      P1  H  6934  6947       L1    11  0.59

> <Gold.Chemscore.Hbond.Weighted>
-3.5928

> <Gold.Chemscore.Metal.Weighted>
-0.0000

> <Gold.Chemscore.Lipo.Weighted>
-16.6231

> <Gold.Chemscore.Internal_Hbond.Weighted>
0.0000

> <Gold.Chemscore.DEClash.Weighted>
0.1364

> <Gold.Chemscore.DEInternal.Weighted>
3.2137

> <Gold.Chemscore.Rot.Weighted>
3.9695

> <Gold.Chemscore.Internal.Correction.Weighted>
   9.000000E+99

> <Gold.Protein.RotatedTorsions>
[ 6907 6896 6895 6894 ] final  145.15 input  -60.11 | X-H torsion
[ 7974 7965 7964 7962 ] final -144.68 input  175.53 | X-H torsion
[ 8008 7997 7996 7995 ] final  156.64 input   59.86 | X-H torsion
[ 10167 10162 10161 10158 ] final   -8.98 input  -65.29 | X-H torsion
[ 10718 10713 10712 10709 ] final  117.41 input   66.30 | X-H torsion
[ 10763 10752 10751 10750 ] final  148.40 input  -60.55 | X-H torsion
[ 11005 11000 10999 10996 ] final  -77.63 input  -57.11 | X-H torsion

> <Gold.Protein.ActiveResidues>
 VAL166  LYS551  ARG553  GLY616  TRP617  ASP618  TYR619  PRO620  LYS621  CYS622 
 ASP623  PHE694  ASN695  SER759  ASP760  ASP761  ALA762  ILE779  LEU786  VAL792 
 PHE793  MET794  SER795  GLU796  ALA797  LYS798  CYS799  TRP800  GLU811  SER814 

> <Gold.Protein.RotatedAtoms>
  152.1845  133.4730  159.4975 H   0  0  0  0  0  0  0  0  0  0  0  0  # atno 6907 bound_to 6896
  150.6940  134.1791  159.4250 H   0  0  0  0  0  0  0  0  0  0  0  0  # atno 6908 bound_to 6896
  151.9703  135.0079  160.0603 H   0  0  0  0  0  0  0  0  0  0  0  0  # atno 6909 bound_to 6896
  144.8281  140.5680  143.5534 H   0  0  0  0  0  0  0  0  0  0  0  0  # atno 7974 bound_to 7965
  156.2411  140.1907  156.6986 H   0  0  0  0  0  0  0  0  0  0  0  0  # atno 8008 bound_to 7997
  154.6198  140.0610  156.9628 H   0  0  0  0  0  0  0  0  0  0  0  0  # atno 8009 bound_to 7997
  155.1879  140.3282  155.4366 H   0  0  0  0  0  0  0  0  0  0  0  0  # atno 8010 bound_to 7997
  140.7074  143.5908  150.8895 H   0  0  0  0  0  0  0  0  0  0  0  0  # atno 10167 bound_to 10162
  157.6098  131.1037  150.7611 H   0  0  0  0  0  0  0  0  0  0  0  0  # atno 10718 bound_to 10713
  154.0541  135.2879  155.3336 H   0  0  0  0  0  0  0  0  0  0  0  0  # atno 10763 bound_to 10752
  154.6850  135.5248  153.8318 H   0  0  0  0  0  0  0  0  0  0  0  0  # atno 10764 bound_to 10752
  153.0549  135.6591  154.0735 H   0  0  0  0  0  0  0  0  0  0  0  0  # atno 10765 bound_to 10752
  141.1661  133.7030  156.7850 H   0  0  0  0  0  0  0  0  0  0  0  0  # atno 11005 bound_to 11000
  145.4956  139.1486  143.3685 LP  0  0  0  0  0  0  0  0  0  0  0  0  # atno 17320 bound_to 7965
  146.2585  140.5095  142.8863 LP  0  0  0  0  0  0  0  0  0  0  0  0  # atno 17321 bound_to 7965
  139.9634  143.6138  152.2995 LP  0  0  0  0  0  0  0  0  0  0  0  0  # atno 17342 bound_to 10162
  139.6699  144.7661  151.1803 LP  0  0  0  0  0  0  0  0  0  0  0  0  # atno 17343 bound_to 10162
  156.7990  130.4915  149.5372 LP  0  0  0  0  0  0  0  0  0  0  0  0  # atno 17370 bound_to 10713
  156.1197  130.6101  151.0175 LP  0  0  0  0  0  0  0  0  0  0  0  0  # atno 17371 bound_to 10713
  140.2367  134.8645  157.3532 LP  0  0  0  0  0  0  0  0  0  0  0  0  # atno 17394 bound_to 11000
  140.1837  134.4458  155.7757 LP  0  0  0  0  0  0  0  0  0  0  0  0  # atno 17395 bound_to 11000

$$$$
