AV-unprocessed.smi:49|AV-procd|sdf|464|dock2
  -GOLD-   2262016333D 1   1.00000     0.00000
 Structure written by MMmdl.
 28 29  0  0  0  0  0  0  0  0  2 V2000
  152.8584  142.6512  160.8840 C   0  0  0  0  0  0  0  0  0  0  0  0
  152.1018  142.9225  159.5792 C   0  0  0  0  0  0  0  0  0  0  0  0
  152.1989  141.7869  158.6143 C   0  0  0  0  0  0  0  0  0  0  0  0
  151.6494  141.7622  157.4046 N   0  0  0  0  0  0  0  0  0  0  0  0
  152.0598  140.5315  156.9747 C   0  0  0  0  0  0  0  0  0  0  0  0
  151.7387  140.0190  155.6057 C   0  0  1  0  0  0  0  0  0  0  0  0
  152.3181  138.6302  155.3243 C   0  0  0  0  0  0  0  0  0  0  0  0
  151.4126  138.1168  154.2095 C   0  0  1  0  0  0  0  0  0  0  0  0
  151.4212  136.7077  154.1227 O   0  0  0  0  0  0  0  0  0  0  0  0
  150.0353  138.6651  154.5969 C   0  0  0  0  0  0  0  0  0  0  0  0
  150.2857  139.9044  155.3600 N   0  3  0  0  0  0  0  0  0  0  0  0
  152.8237  139.8428  157.8238 N   0  0  0  0  0  0  0  0  0  0  0  0
  152.8918  140.6783  158.8822 N   0  0  0  0  0  0  0  0  0  0  0  0
  152.1308  140.7184  154.8655 H   0  0  0  0  0  0  0  0  0  0  0  0
  151.7263  138.5435  153.2556 H   0  0  0  0  0  0  0  0  0  0  0  0
  153.4071  140.4638  159.7245 H   0  0  0  0  0  0  0  0  0  0  0  0
  152.7761  143.4991  161.5641 H   0  0  0  0  0  0  0  0  0  0  0  0
  153.9184  142.4776  160.6953 H   0  0  0  0  0  0  0  0  0  0  0  0
  152.4607  141.7738  161.3943 H   0  0  0  0  0  0  0  0  0  0  0  0
  151.0510  143.1211  159.7933 H   0  0  0  0  0  0  0  0  0  0  0  0
  152.4967  143.8203  159.1024 H   0  0  0  0  0  0  0  0  0  0  0  0
  153.3744  138.6529  155.0547 H   0  0  0  0  0  0  0  0  0  0  0  0
  152.2096  137.9957  156.2062 H   0  0  0  0  0  0  0  0  0  0  0  0
  151.1187  136.4541  153.2636 H   0  0  0  0  0  0  0  0  0  0  0  0
  149.4014  138.8474  153.7287 H   0  0  0  0  0  0  0  0  0  0  0  0
  149.5126  137.9699  155.2555 H   0  0  0  0  0  0  0  0  0  0  0  0
  149.8050  139.8434  156.2467 H   0  0  0  0  0  0  0  0  0  0  0  0
  149.9599  140.7134  154.8511 H   0  0  0  0  0  0  0  0  0  0  0  0
  1  2  1  0  0  0  0
  1 17  1  0  0  0  0
  1 18  1  0  0  0  0
  1 19  1  0  0  0  0
  2  3  1  0  0  0  0
  2 20  1  0  0  0  0
  2 21  1  0  0  0  0
  3 13  1  0  0  0  0
  3  4  2  0  0  0  0
  4  5  1  0  0  0  0
  5  6  1  0  0  0  0
  5 12  2  0  0  0  0
  6 14  1  0  0  0  0
  6 11  1  0  0  0  0
  6  7  1  0  0  0  0
  7  8  1  0  0  0  0
  7 22  1  0  0  0  0
  7 23  1  0  0  0  0
  8 15  1  0  0  0  0
  8  9  1  0  0  0  0
  8 10  1  0  0  0  0
  9 24  1  0  0  0  0
 10 11  1  0  0  0  0
 10 25  1  0  0  0  0
 10 26  1  0  0  0  0
 11 27  1  0  0  0  0
 11 28  1  0  0  0  0
 12 13  1  0  0  0  0
 13 16  1  0  0  0  0
M  CHG  1  11   1
M  END
> <s_m_source_file>
AV-unprocessed.smi

> <i_m_source_file_index>
49

> <i_lp_mmshare_version>
43012

> <i_f3d_flags>
0

> <s_epik_input>
W0NIM11bQ0gyXWMxbmMobltuSF0xKVtDQEBIXTJbQ0gyXVtDQEBIXShbT0hdKVtDSDJdW05IXTI=

> <s_epik_cmdline>
J2VwaWtfcHl0aG9uJywgJy1waCcsICc3LjAnLCAnLXRuJywgJzgnLCAnLW1hJywgJzIwMCcsICctbWV0YWxfYmluZGluZycsICctaW1hZScsICc8aW5maWxlLm1hZT4nLCAnLW9tYWUnLCAnPG91dGZpbGUubWFlPic=

> <r_lp_tautomer_probability>
0.948284

> <r_epik_Ionization_Penalty>
0.045643

> <r_epik_Ionization_Penalty_Charging>
0.0371552

> <r_epik_Ionization_Penalty_Neutral>
0.00848778

> <r_epik_State_Penalty>
0.283309

> <r_epik_Charging_Adjusted_Penalty>
0.320465

> <i_epik_Tot_Q>
1

> <i_epik_Tot_abs_Q>
1

> <r_epik_Metal_State_Penalty>
0.558162

> <b_epik_Metal_Only>
0

> <s_lp_Force_Field>
OPLS_2005

> <r_lp_Energy>
16.6831

> <b_lp_Chiralities_Consistent>
1

> <s_lp_Variant>
AV-unprocessed.smi:49-2

> <Gold.Version>
5.8.1

> <Gold.Id.Protein>
6NUR|6NUR_protein|mol2

> <Gold.PLP.Fitness>
35.6683

> <Gold.PLP.PLP>
-26.6714

> <Gold.PLP.part.hbond>
-3.2234

> <Gold.PLP.part.metal>
0.0000

> <Gold.PLP.part.buried>
-3.4273

> <Gold.PLP.part.nonpolar>
-19.8693

> <Gold.PLP.part.repulsive>
0.2003

> <Gold.PLP.ligand.clash>
0.0000

> <Gold.PLP.ligand.torsion>
0.0089

> <Gold.PLP.Chemscore.Hbond>
3.0000

> <Gold.PLP.Chemscore.CHOScore>
0.0000

> <Gold.PLP.Chemscore.Metal>
0.0000

> <Gold.Chemscore.Hbonds>
donor molecule, donor type, donor heavy atom, donor atom, acceptor molecule, acceptor atom, score
      L1  H     9    24       P1  7949  1.00
      P1  H  7997  8008       L1    12  0.90
      P1  H 10752 10765       L1     9  0.85

> <Gold.PLP.Chemscore.Internal.Correction>
0.0146

> <Gold.Rescore>
     Score         DG    S(hbond)    S(metal)    S(lipo)     H(rot)  DE(clash)    DE(int)     intcor
     13.49     -14.11       2.24        0.00      51.08       1.89       0.61       0.01       ----

> <Gold.Chemscore.Fitness>
13.4908

> <Gold.Chemscore.DG>
-14.1071

> <Gold.Chemscore.ZeroCoef>
-5.4800

> <Gold.Chemscore.Hbond>
2.2410

> <Gold.Chemscore.Metal>
0.0000

> <Gold.Chemscore.Lipo>
51.0790

> <Gold.Chemscore.Internal_Hbond>
0.0000

> <Gold.Chemscore.DEClash>
0.6056

> <Gold.Chemscore.DEInternal>
0.0107

> <Gold.Chemscore.Rot>
1.8883

> <Gold.Chemscore.Internal.Correction>
   9.000000E+99

> <Gold.Chemscore.Hbonds>
donor molecule, donor type, donor heavy atom, donor atom, acceptor molecule, acceptor atom, score
      L1  H     9    24       P1  7949  0.39
      P1  H  7997  8008       L1    12  0.09
      P1  H 10752 10765       L1     9  0.15

> <Gold.Chemscore.Hbond.Weighted>
-7.4848

> <Gold.Chemscore.Metal.Weighted>
-0.0000

> <Gold.Chemscore.Lipo.Weighted>
-5.9762

> <Gold.Chemscore.Internal_Hbond.Weighted>
0.0000

> <Gold.Chemscore.DEClash.Weighted>
0.6056

> <Gold.Chemscore.DEInternal.Weighted>
0.0107

> <Gold.Chemscore.Rot.Weighted>
4.8340

> <Gold.Chemscore.Internal.Correction.Weighted>
   9.000000E+99

> <Gold.Protein.RotatedTorsions>
[ 6907 6896 6895 6894 ] final  135.95 input  -60.11 | X-H torsion
[ 7974 7965 7964 7962 ] final  137.87 input  175.53 | X-H torsion
[ 8008 7997 7996 7995 ] final  -77.07 input   59.86 | X-H torsion
[ 10167 10162 10161 10158 ] final -122.59 input  -65.29 | X-H torsion
[ 10718 10713 10712 10709 ] final -100.95 input   66.30 | X-H torsion
[ 10763 10752 10751 10750 ] final  152.54 input  -60.55 | X-H torsion
[ 11005 11000 10999 10996 ] final -138.04 input  -57.11 | X-H torsion

> <Gold.Protein.ActiveResidues>
 VAL166  LYS551  ARG553  GLY616  TRP617  ASP618  TYR619  PRO620  LYS621  CYS622 
 ASP623  PHE694  ASN695  SER759  ASP760  ASP761  ALA762  ILE779  LEU786  VAL792 
 PHE793  MET794  SER795  GLU796  ALA797  LYS798  CYS799  TRP800  GLU811  SER814 

> <Gold.Protein.RotatedAtoms>
  152.2948  133.5596  159.5579 H   0  0  0  0  0  0  0  0  0  0  0  0  # atno 6907 bound_to 6896
  150.7251  134.0377  159.3764 H   0  0  0  0  0  0  0  0  0  0  0  0  # atno 6908 bound_to 6896
  151.8281  135.0631  160.0484 H   0  0  0  0  0  0  0  0  0  0  0  0  # atno 6909 bound_to 6896
  144.9427  139.4912  143.5564 H   0  0  0  0  0  0  0  0  0  0  0  0  # atno 7974 bound_to 7965
  154.5563  140.0716  156.8748 H   0  0  0  0  0  0  0  0  0  0  0  0  # atno 8008 bound_to 7997
  155.2897  140.3377  155.4235 H   0  0  0  0  0  0  0  0  0  0  0  0  # atno 8009 bound_to 7997
  156.2004  140.1719  156.7896 H   0  0  0  0  0  0  0  0  0  0  0  0  # atno 8010 bound_to 7997
  140.0126  143.5426  152.2256 H   0  0  0  0  0  0  0  0  0  0  0  0  # atno 10167 bound_to 10162
  156.0179  130.5351  150.6891 H   0  0  0  0  0  0  0  0  0  0  0  0  # atno 10718 bound_to 10713
  154.1216  135.2832  155.3207 H   0  0  0  0  0  0  0  0  0  0  0  0  # atno 10763 bound_to 10752
  154.6419  135.5399  153.7802 H   0  0  0  0  0  0  0  0  0  0  0  0  # atno 10764 bound_to 10752
  153.0311  135.6488  154.1370 H   0  0  0  0  0  0  0  0  0  0  0  0  # atno 10765 bound_to 10752
  140.8653  134.2118  157.4683 H   0  0  0  0  0  0  0  0  0  0  0  0  # atno 11005 bound_to 11000
  146.3291  139.8456  142.8882 LP  0  0  0  0  0  0  0  0  0  0  0  0  # atno 17320 bound_to 7965
  145.2967  141.0182  143.3632 LP  0  0  0  0  0  0  0  0  0  0  0  0  # atno 17321 bound_to 7965
  139.6194  144.7626  151.2773 LP  0  0  0  0  0  0  0  0  0  0  0  0  # atno 17342 bound_to 10162
  140.7375  143.6676  150.8110 LP  0  0  0  0  0  0  0  0  0  0  0  0  # atno 17343 bound_to 10162
  157.4577  131.0879  151.0779 LP  0  0  0  0  0  0  0  0  0  0  0  0  # atno 17370 bound_to 10713
  157.1276  130.6088  149.5521 LP  0  0  0  0  0  0  0  0  0  0  0  0  # atno 17371 bound_to 10713
  139.8709  134.9749  156.4863 LP  0  0  0  0  0  0  0  0  0  0  0  0  # atno 17394 bound_to 11000
  140.8635  133.8041  155.9290 LP  0  0  0  0  0  0  0  0  0  0  0  0  # atno 17395 bound_to 11000

$$$$
