AV-unprocessed.smi:2525|AV-procd|sdf|9929|dock2
  -GOLD-   2272013573D 1   1.00000     0.00000
 Structure written by MMmdl.
 44 45  0  0  0  0  0  0  0  0  1 V2000
  150.5501  137.7805  157.8997 C   0  0  0  0  0  0  0  0  0  0  0  0
  149.8131  138.5620  156.7990 C   0  0  0  0  0  0  0  0  0  0  0  0
  149.7292  137.8434  155.4291 C   0  0  0  0  0  0  0  0  0  0  0  0
  151.1563  137.6854  154.8504 C   0  0  0  0  0  0  0  0  0  0  0  0
  152.0681  138.9102  155.0250 C   0  0  0  0  0  0  0  0  0  0  0  0
  148.8088  136.5864  155.4527 C   0  0  2  0  0  0  0  0  0  0  0  0
  149.1745  135.5555  154.4815 N   0  0  0  0  0  0  0  0  0  0  0  0
  149.1264  134.2341  154.7072 C   0  0  0  0  0  0  0  0  0  0  0  0
  148.8071  133.7432  155.7894 O   0  0  0  0  0  0  0  0  0  0  0  0
  149.5086  133.3261  153.5357 C   0  0  0  0  0  0  0  0  0  0  0  0
  148.3364  132.7393  152.9084 N   0  0  0  0  0  0  0  0  0  0  0  0
  147.3852  133.3528  152.1183 C   0  0  0  0  0  0  0  0  0  0  0  0
  146.5153  132.3419  151.8259 C   0  0  0  0  0  0  0  0  0  0  0  0
  146.9659  131.1737  152.4378 N   0  0  0  0  0  0  0  0  0  0  0  0
  148.0606  131.4245  153.0847 N   0  0  0  0  0  0  0  0  0  0  0  0
  147.6361  137.4475  154.9495 C   0  0  2  0  0  0  0  0  0  0  0  0
  146.6024  136.8641  153.9880 C   0  0  0  0  0  0  0  0  0  0  0  0
  148.6963  138.4322  154.4351 C   0  0  1  0  0  0  0  0  0  0  0  0
  148.4147  139.8027  154.6792 O   0  0  0  0  0  0  0  0  0  0  0  0
  149.5263  140.6500  154.4484 C   0  0  0  0  0  0  0  0  0  0  0  0
  150.4656  138.2970  158.8558 H   0  0  0  0  0  0  0  0  0  0  0  0
  151.6133  137.6801  157.6836 H   0  0  0  0  0  0  0  0  0  0  0  0
  150.1369  136.7804  158.0296 H   0  0  0  0  0  0  0  0  0  0  0  0
  148.8082  138.7666  157.1687 H   0  0  0  0  0  0  0  0  0  0  0  0
  150.2666  139.5473  156.6955 H   0  0  0  0  0  0  0  0  0  0  0  0
  151.6471  136.8029  155.2604 H   0  0  0  0  0  0  0  0  0  0  0  0
  151.1013  137.4979  153.7781 H   0  0  0  0  0  0  0  0  0  0  0  0
  153.0008  138.7726  154.4777 H   0  0  0  0  0  0  0  0  0  0  0  0
  152.3326  139.0760  156.0688 H   0  0  0  0  0  0  0  0  0  0  0  0
  151.5939  139.8159  154.6465 H   0  0  0  0  0  0  0  0  0  0  0  0
  148.6185  136.1918  156.4520 H   0  0  0  0  0  0  0  0  0  0  0  0
  149.4524  135.8706  153.5635 H   0  0  0  0  0  0  0  0  0  0  0  0
  150.0573  133.9042  152.7913 H   0  0  0  0  0  0  0  0  0  0  0  0
  150.1701  132.5276  153.8761 H   0  0  0  0  0  0  0  0  0  0  0  0
  147.4083  134.3992  151.8518 H   0  0  0  0  0  0  0  0  0  0  0  0
  145.6121  132.3571  151.2338 H   0  0  0  0  0  0  0  0  0  0  0  0
  147.1343  137.8807  155.8162 H   0  0  0  0  0  0  0  0  0  0  0  0
  147.0492  136.5856  153.0332 H   0  0  0  0  0  0  0  0  0  0  0  0
  145.8074  137.5792  153.7791 H   0  0  0  0  0  0  0  0  0  0  0  0
  146.1361  135.9722  154.4071 H   0  0  0  0  0  0  0  0  0  0  0  0
  148.9760  138.2379  153.3971 H   0  0  0  0  0  0  0  0  0  0  0  0
  149.2563  141.6784  154.6884 H   0  0  0  0  0  0  0  0  0  0  0  0
  149.8376  140.6231  153.4044 H   0  0  0  0  0  0  0  0  0  0  0  0
  150.3736  140.3702  155.0756 H   0  0  0  0  0  0  0  0  0  0  0  0
  1  2  1  0  0  0  0
  1 21  1  0  0  0  0
  1 22  1  0  0  0  0
  1 23  1  0  0  0  0
  2  3  1  0  0  0  0
  2 24  1  0  0  0  0
  2 25  1  0  0  0  0
  3 18  1  0  0  0  0
  3  4  1  0  0  0  0
  3  6  1  0  0  0  0
  4  5  1  0  0  0  0
  4 26  1  0  0  0  0
  4 27  1  0  0  0  0
  5 28  1  0  0  0  0
  5 29  1  0  0  0  0
  5 30  1  0  0  0  0
  6  7  1  0  0  0  0
  6 16  1  0  0  0  0
  6 31  1  0  0  0  0
  7  8  1  0  0  0  0
  7 32  1  0  0  0  0
  8  9  2  0  0  0  0
  8 10  1  0  0  0  0
 10 11  1  0  0  0  0
 10 33  1  0  0  0  0
 10 34  1  0  0  0  0
 11 15  1  0  0  0  0
 11 12  1  0  0  0  0
 12 13  2  0  0  0  0
 12 35  1  0  0  0  0
 13 14  1  0  0  0  0
 13 36  1  0  0  0  0
 14 15  2  0  0  0  0
 16 17  1  0  0  0  0
 16 18  1  0  0  0  0
 16 37  1  0  0  0  0
 17 38  1  0  0  0  0
 17 39  1  0  0  0  0
 17 40  1  0  0  0  0
 18 19  1  0  0  0  0
 18 41  1  0  0  0  0
 19 20  1  0  0  0  0
 20 42  1  0  0  0  0
 20 43  1  0  0  0  0
 20 44  1  0  0  0  0
M  END
> <s_m_source_file>
AV-unprocessed.smi

> <i_m_source_file_index>
2525

> <i_lp_mmshare_version>
43012

> <i_f3d_flags>
0

> <s_epik_input>
W0NIM11PW0NAQEhdMVtDQEhdKFtDSDNdKVtDQEBIXShDMShbQ0gyXVtDSDNdKVtDSDJdW0NIM10pW05IXUMoPU8pW0NIMl1uMltjSF1bY0hdbm4y

> <s_epik_cmdline>
J2VwaWtfcHl0aG9uJywgJy1waCcsICc3LjAnLCAnLXRuJywgJzgnLCAnLW1hJywgJzIwMCcsICctbWV0YWxfYmluZGluZycsICctaW1hZScsICc8aW5maWxlLm1hZT4nLCAnLW9tYWUnLCAnPG91dGZpbGUubWFlPic=

> <r_lp_tautomer_probability>
1

> <r_epik_Ionization_Penalty>
1.18045e-06

> <r_epik_Ionization_Penalty_Charging>
0

> <r_epik_Ionization_Penalty_Neutral>
1.18045e-06

> <r_epik_State_Penalty>
-0

> <r_epik_Charging_Adjusted_Penalty>
0

> <i_epik_Tot_Q>
0

> <i_epik_Tot_abs_Q>
0

> <r_epik_Metal_State_Penalty>
-0

> <b_epik_Metal_Only>
0

> <s_lp_Force_Field>
OPLS_2005

> <r_lp_Energy>
27.9477

> <b_lp_Chiralities_Consistent>
1

> <s_lp_Variant>
AV-unprocessed.smi:2525-4

> <Gold.Version>
5.8.1

> <Gold.Id.Protein>
6NUR|6NUR_protein|mol2

> <Gold.PLP.Fitness>
32.2349

> <Gold.PLP.PLP>
-27.4523

> <Gold.PLP.part.hbond>
-1.0000

> <Gold.PLP.part.metal>
0.0000

> <Gold.PLP.part.buried>
-3.5850

> <Gold.PLP.part.nonpolar>
-23.0338

> <Gold.PLP.part.repulsive>
0.4830

> <Gold.PLP.ligand.clash>
0.0000

> <Gold.PLP.ligand.torsion>
0.9152

> <Gold.PLP.Chemscore.Hbond>
1.0000

> <Gold.PLP.Chemscore.CHOScore>
1.0000

> <Gold.PLP.Chemscore.Metal>
0.0000

> <Gold.Chemscore.Hbonds>
donor molecule, donor type, donor heavy atom, donor atom, acceptor molecule, acceptor atom, score
      L1  H     7    32       P1  7948  0.98
      L1  C    12    35       P1  7948  1.00

> <Gold.PLP.Chemscore.Internal.Correction>
0.6130

> <Gold.Rescore>
     Score         DG    S(hbond)    S(metal)    S(lipo)     H(rot)  DE(clash)    DE(int)     intcor
      9.07     -10.33       0.85        0.00      60.58       1.98       0.08       1.18       ----

> <Gold.Chemscore.Fitness>
9.0737

> <Gold.Chemscore.DG>
-10.3292

> <Gold.Chemscore.ZeroCoef>
-5.4800

> <Gold.Chemscore.Hbond>
0.8488

> <Gold.Chemscore.Metal>
0.0000

> <Gold.Chemscore.Lipo>
60.5757

> <Gold.Chemscore.Internal_Hbond>
0.0000

> <Gold.Chemscore.DEClash>
0.0795

> <Gold.Chemscore.DEInternal>
1.1760

> <Gold.Chemscore.Rot>
1.9817

> <Gold.Chemscore.Internal.Correction>
   9.000000E+99

> <Gold.Chemscore.Hbonds>
donor molecule, donor type, donor heavy atom, donor atom, acceptor molecule, acceptor atom, score
      L1  H     7    32       P1  7948  0.37

> <Gold.Chemscore.Hbond.Weighted>
-2.8349

> <Gold.Chemscore.Metal.Weighted>
-0.0000

> <Gold.Chemscore.Lipo.Weighted>
-7.0874

> <Gold.Chemscore.Internal_Hbond.Weighted>
0.0000

> <Gold.Chemscore.DEClash.Weighted>
0.0795

> <Gold.Chemscore.DEInternal.Weighted>
1.1760

> <Gold.Chemscore.Rot.Weighted>
5.0731

> <Gold.Chemscore.Internal.Correction.Weighted>
   9.000000E+99

> <Gold.Protein.RotatedTorsions>
[ 6907 6896 6895 6894 ] final -167.78 input  -60.11 | X-H torsion
[ 7974 7965 7964 7962 ] final  -35.58 input  175.53 | X-H torsion
[ 8008 7997 7996 7995 ] final  107.62 input   59.86 | X-H torsion
[ 10167 10162 10161 10158 ] final  109.27 input  -65.29 | X-H torsion
[ 10718 10713 10712 10709 ] final  176.65 input   66.30 | X-H torsion
[ 10763 10752 10751 10750 ] final  -64.22 input  -60.55 | X-H torsion
[ 11005 11000 10999 10996 ] final  -31.91 input  -57.11 | X-H torsion

> <Gold.Protein.ActiveResidues>
 VAL166  LYS551  ARG553  GLY616  TRP617  ASP618  TYR619  PRO620  LYS621  CYS622 
 ASP623  PHE694  ASN695  SER759  ASP760  ASP761  ALA762  ILE779  LEU786  VAL792 
 PHE793  MET794  SER795  GLU796  ALA797  LYS798  CYS799  TRP800  GLU811  SER814 

> <Gold.Protein.RotatedAtoms>
  151.4650  133.3583  159.2814 H   0  0  0  0  0  0  0  0  0  0  0  0  # atno 6907 bound_to 6896
  150.8999  134.8412  159.7364 H   0  0  0  0  0  0  0  0  0  0  0  0  # atno 6908 bound_to 6896
  152.4873  134.4569  159.9644 H   0  0  0  0  0  0  0  0  0  0  0  0  # atno 6909 bound_to 6896
  146.0734  140.6176  142.8942 H   0  0  0  0  0  0  0  0  0  0  0  0  # atno 7974 bound_to 7965
  156.1839  140.3091  155.9200 H   0  0  0  0  0  0  0  0  0  0  0  0  # atno 8008 bound_to 7997
  155.3325  140.0461  157.3060 H   0  0  0  0  0  0  0  0  0  0  0  0  # atno 8009 bound_to 7997
  154.5373  140.2250  155.8711 H   0  0  0  0  0  0  0  0  0  0  0  0  # atno 8010 bound_to 7997
  139.6780  144.7120  151.1568 H   0  0  0  0  0  0  0  0  0  0  0  0  # atno 10167 bound_to 10162
  156.9170  130.9928  151.3011 H   0  0  0  0  0  0  0  0  0  0  0  0  # atno 10718 bound_to 10713
  154.3268  135.6185  153.5533 H   0  0  0  0  0  0  0  0  0  0  0  0  # atno 10763 bound_to 10752
  152.9815  135.5737  154.5007 H   0  0  0  0  0  0  0  0  0  0  0  0  # atno 10764 bound_to 10752
  154.4686  135.2858  155.1636 H   0  0  0  0  0  0  0  0  0  0  0  0  # atno 10765 bound_to 10752
  140.9508  133.7222  156.1217 H   0  0  0  0  0  0  0  0  0  0  0  0  # atno 11005 bound_to 11000
  144.7246  140.4484  143.6983 LP  0  0  0  0  0  0  0  0  0  0  0  0  # atno 17320 bound_to 7965
  145.6350  139.1541  143.2948 LP  0  0  0  0  0  0  0  0  0  0  0  0  # atno 17321 bound_to 7965
  140.7642  143.5743  150.8962 LP  0  0  0  0  0  0  0  0  0  0  0  0  # atno 17342 bound_to 10162
  139.9413  143.6379  152.3053 LP  0  0  0  0  0  0  0  0  0  0  0  0  # atno 17343 bound_to 10162
  157.5932  130.8458  149.8690 LP  0  0  0  0  0  0  0  0  0  0  0  0  # atno 17370 bound_to 10713
  156.0509  130.3718  150.1204 LP  0  0  0  0  0  0  0  0  0  0  0  0  # atno 17371 bound_to 10713
  140.7606  134.3944  157.5526 LP  0  0  0  0  0  0  0  0  0  0  0  0  # atno 17394 bound_to 11000
  139.8847  134.8958  156.2689 LP  0  0  0  0  0  0  0  0  0  0  0  0  # atno 17395 bound_to 11000

$$$$
