AV-unprocessed.smi:2061|AV-procd|sdf|8372|dock3
  -GOLD-   2272011 43D 1   1.00000     0.00000
 Structure written by MMmdl.
 46 47  0  0  0  0  0  0  0  0  2 V2000
  152.2142  140.0777  158.5171 C   0  0  0  0  0  0  0  0  0  0  0  0
  151.8205  139.8557  157.0972 C   0  0  0  0  0  0  0  0  0  0  0  0
  150.6178  139.8888  156.4491 C   0  0  0  0  0  0  0  0  0  0  0  0
  150.9700  139.5843  155.1073 C   0  0  0  0  0  0  0  0  0  0  0  0
  149.9824  139.5221  154.0913 N   0  0  0  0  0  0  0  0  0  0  0  0
  148.6489  139.4779  154.2502 C   0  0  0  0  0  0  0  0  0  0  0  0
  148.0604  139.5077  155.3317 O   0  0  0  0  0  0  0  0  0  0  0  0
  148.0161  139.3892  153.0712 N   0  0  0  0  0  0  0  0  0  0  0  0
  146.5668  139.3076  152.9143 C   0  0  0  0  0  0  0  0  0  0  0  0
  146.1043  137.9924  152.2311 C   0  0  2  0  0  0  0  0  0  0  0  0
  146.2929  138.1042  150.6990 C   0  0  0  0  0  0  0  0  0  0  0  0
  144.6963  137.6617  152.6351 N   0  3  1  0  0  0  0  0  0  0  0  0
  144.0403  136.5278  151.9288 C   0  0  0  0  0  0  0  0  0  0  0  0
  144.5900  135.1735  152.4205 C   0  0  2  0  0  0  0  0  0  0  0  0
  143.9023  133.9889  151.7335 C   0  0  0  0  0  0  0  0  0  0  0  0
  144.3517  135.0724  153.8204 O   0  0  0  0  0  0  0  0  0  0  0  0
  145.0081  136.0890  154.5707 C   0  0  2  0  0  0  0  0  0  0  0  0
  144.7133  135.8471  156.0550 C   0  0  0  0  0  0  0  0  0  0  0  0
  144.5112  137.4756  154.1013 C   0  0  0  0  0  0  0  0  0  0  0  0
  152.2697  139.3843  154.9503 N   0  0  0  0  0  0  0  0  0  0  0  0
  152.8213  139.5570  156.2252 O   0  0  0  0  0  0  0  0  0  0  0  0
  151.3378  140.2464  159.1431 H   0  0  0  0  0  0  0  0  0  0  0  0
  152.8657  140.9473  158.6054 H   0  0  0  0  0  0  0  0  0  0  0  0
  152.7482  139.2123  158.9100 H   0  0  0  0  0  0  0  0  0  0  0  0
  149.6457  140.0976  156.8701 H   0  0  0  0  0  0  0  0  0  0  0  0
  150.3304  139.4971  153.1442 H   0  0  0  0  0  0  0  0  0  0  0  0
  148.5713  139.3727  152.2279 H   0  0  0  0  0  0  0  0  0  0  0  0
  146.1191  139.4434  153.8977 H   0  0  0  0  0  0  0  0  0  0  0  0
  146.2452  140.1632  152.3196 H   0  0  0  0  0  0  0  0  0  0  0  0
  146.7508  137.1809  152.5629 H   0  0  0  0  0  0  0  0  0  0  0  0
  147.3095  138.3964  150.4369 H   0  0  0  0  0  0  0  0  0  0  0  0
  145.6197  138.8456  150.2671 H   0  0  0  0  0  0  0  0  0  0  0  0
  146.1240  137.1531  150.1947 H   0  0  0  0  0  0  0  0  0  0  0  0
  142.9721  136.5735  152.1468 H   0  0  0  0  0  0  0  0  0  0  0  0
  144.1032  136.6205  150.8458 H   0  0  0  0  0  0  0  0  0  0  0  0
  145.6625  135.1071  152.2306 H   0  0  0  0  0  0  0  0  0  0  0  0
  144.0680  134.0108  150.6561 H   0  0  0  0  0  0  0  0  0  0  0  0
  142.8258  134.0006  151.9072 H   0  0  0  0  0  0  0  0  0  0  0  0
  144.2897  133.0417  152.1094 H   0  0  0  0  0  0  0  0  0  0  0  0
  146.0851  135.9994  154.4243 H   0  0  0  0  0  0  0  0  0  0  0  0
  145.2077  136.5914  156.6796 H   0  0  0  0  0  0  0  0  0  0  0  0
  145.0678  134.8645  156.3676 H   0  0  0  0  0  0  0  0  0  0  0  0
  143.6433  135.8953  156.2592 H   0  0  0  0  0  0  0  0  0  0  0  0
  144.9937  138.2622  154.6775 H   0  0  0  0  0  0  0  0  0  0  0  0
  143.4458  137.5661  154.3181 H   0  0  0  0  0  0  0  0  0  0  0  0
  144.1593  138.4787  152.3812 H   0  0  0  0  0  0  0  0  0  0  0  0
  1  2  1  0  0  0  0
  1 22  1  0  0  0  0
  1 23  1  0  0  0  0
  1 24  1  0  0  0  0
  2 21  1  0  0  0  0
  2  3  2  0  0  0  0
  3  4  1  0  0  0  0
  3 25  1  0  0  0  0
  4  5  1  0  0  0  0
  4 20  2  0  0  0  0
  5  6  1  0  0  0  0
  5 26  1  0  0  0  0
  6  7  2  0  0  0  0
  6  8  1  0  0  0  0
  8  9  1  0  0  0  0
  8 27  1  0  0  0  0
  9 10  1  0  0  0  0
  9 28  1  0  0  0  0
  9 29  1  0  0  0  0
 10 11  1  0  0  0  0
 10 12  1  0  0  0  0
 10 30  1  0  0  0  0
 11 31  1  0  0  0  0
 11 32  1  0  0  0  0
 11 33  1  0  0  0  0
 12 19  1  0  0  0  0
 12 13  1  0  0  0  0
 12 46  1  0  0  0  0
 13 14  1  0  0  0  0
 13 34  1  0  0  0  0
 13 35  1  0  0  0  0
 14 15  1  0  0  0  0
 14 16  1  0  0  0  0
 14 36  1  0  0  0  0
 15 37  1  0  0  0  0
 15 38  1  0  0  0  0
 15 39  1  0  0  0  0
 16 17  1  0  0  0  0
 17 18  1  0  0  0  0
 17 19  1  0  0  0  0
 17 40  1  0  0  0  0
 18 41  1  0  0  0  0
 18 42  1  0  0  0  0
 18 43  1  0  0  0  0
 19 44  1  0  0  0  0
 19 45  1  0  0  0  0
 20 21  1  0  0  0  0
M  CHG  1  12   1
M  END
> <s_m_source_file>
AV-unprocessed.smi

> <i_m_source_file_index>
2061

> <i_lp_mmshare_version>
43012

> <i_f3d_flags>
0

> <s_epik_input>
W0NIM11jMVtjSF1jKG5vMSlbTkhdQyg9TylbTkhdW0NIMl1bQ0BIXShbQ0gzXSlOMltDSDJdW0NAQEhdKFtDSDNdKU9bQ0BASF0oW0NIM10pW0NIMl0y

> <s_epik_cmdline>
J2VwaWtfcHl0aG9uJywgJy1waCcsICc3LjAnLCAnLXRuJywgJzgnLCAnLW1hJywgJzIwMCcsICctbWV0YWxfYmluZGluZycsICctaW1hZScsICc8aW5maWxlLm1hZT4nLCAnLW9tYWUnLCAnPG91dGZpbGUubWFlPic=

> <r_epik_Ionization_Penalty>
0.707076

> <r_epik_Ionization_Penalty_Charging>
0.707039

> <r_epik_Ionization_Penalty_Neutral>
3.6548e-05

> <r_epik_State_Penalty>
0.730276

> <r_epik_Charging_Adjusted_Penalty>
1.43732

> <i_epik_Tot_Q>
1

> <i_epik_Tot_abs_Q>
1

> <r_epik_Metal_State_Penalty>
0.743132

> <b_epik_Metal_Only>
0

> <s_lp_Force_Field>
OPLS_2005

> <r_lp_Energy>
17.7624

> <b_lp_Chiralities_Consistent>
1

> <s_lp_Variant>
AV-unprocessed.smi:2061-13

> <Gold.Version>
5.8.1

> <Gold.Id.Protein>
6NUR|6NUR_protein|mol2

> <Gold.PLP.Fitness>
39.1496

> <Gold.PLP.PLP>
-25.8102

> <Gold.PLP.part.hbond>
-5.4626

> <Gold.PLP.part.metal>
0.0000

> <Gold.PLP.part.buried>
5.1828

> <Gold.PLP.part.nonpolar>
-25.7303

> <Gold.PLP.part.repulsive>
0.8573

> <Gold.PLP.ligand.clash>
0.0000

> <Gold.PLP.ligand.torsion>
0.3291

> <Gold.PLP.Chemscore.Hbond>
4.6460

> <Gold.PLP.Chemscore.CHOScore>
0.0000

> <Gold.PLP.Chemscore.Metal>
0.0000

> <Gold.Chemscore.Hbonds>
donor molecule, donor type, donor heavy atom, donor atom, acceptor molecule, acceptor atom, score
      L1  H     5    26       P1  7957  0.50
      L1  H     8    27       P1  7957  1.00
      L1  H    12    46       P1 10175  2.00
      P1  H  7997  8008       L1    21  1.00

> <Gold.PLP.Chemscore.Internal.Correction>
0.0597

> <Gold.Rescore>
     Score         DG    S(hbond)    S(metal)    S(lipo)     H(rot)  DE(clash)    DE(int)     intcor
     15.89     -20.38       3.76        0.00      54.62       1.58       2.77       1.72       ----

> <Gold.Chemscore.Fitness>
15.8866

> <Gold.Chemscore.DG>
-20.3820

> <Gold.Chemscore.ZeroCoef>
-5.4800

> <Gold.Chemscore.Hbond>
3.7620

> <Gold.Chemscore.Metal>
0.0000

> <Gold.Chemscore.Lipo>
54.6184

> <Gold.Chemscore.Internal_Hbond>
0.0000

> <Gold.Chemscore.DEClash>
2.7746

> <Gold.Chemscore.DEInternal>
1.7208

> <Gold.Chemscore.Rot>
1.5834

> <Gold.Chemscore.Internal.Correction>
   9.000000E+99

> <Gold.Chemscore.Hbonds>
donor molecule, donor type, donor heavy atom, donor atom, acceptor molecule, acceptor atom, score
      L1  H     5    26       P1  7957  0.46
      L1  H     8    27       P1  7957  0.97
      L1  H    12    46       P1 10175  0.92
      P1  H  7997  8008       L1    21  0.82

> <Gold.Chemscore.Hbond.Weighted>
-12.5651

> <Gold.Chemscore.Metal.Weighted>
-0.0000

> <Gold.Chemscore.Lipo.Weighted>
-6.3904

> <Gold.Chemscore.Internal_Hbond.Weighted>
0.0000

> <Gold.Chemscore.DEClash.Weighted>
2.7746

> <Gold.Chemscore.DEInternal.Weighted>
1.7208

> <Gold.Chemscore.Rot.Weighted>
4.0535

> <Gold.Chemscore.Internal.Correction.Weighted>
   9.000000E+99

> <Gold.Protein.RotatedTorsions>
[ 6907 6896 6895 6894 ] final  -59.71 input  -60.11 | X-H torsion
[ 7974 7965 7964 7962 ] final  115.27 input  175.53 | X-H torsion
[ 8008 7997 7996 7995 ] final  -30.81 input   59.86 | X-H torsion
[ 10167 10162 10161 10158 ] final  127.40 input  -65.29 | X-H torsion
[ 10718 10713 10712 10709 ] final  -69.36 input   66.30 | X-H torsion
[ 10763 10752 10751 10750 ] final -166.30 input  -60.55 | X-H torsion
[ 11005 11000 10999 10996 ] final   70.12 input  -57.11 | X-H torsion

> <Gold.Protein.ActiveResidues>
 VAL166  LYS551  ARG553  GLY616  TRP617  ASP618  TYR619  PRO620  LYS621  CYS622 
 ASP623  PHE694  ASN695  SER759  ASP760  ASP761  ALA762  ILE779  LEU786  VAL792 
 PHE793  MET794  SER795  GLU796  ALA797  LYS798  CYS799  TRP800  GLU811  SER814 

> <Gold.Protein.RotatedAtoms>
  150.7910  134.6933  159.6508 H   0  0  0  0  0  0  0  0  0  0  0  0  # atno 6907 bound_to 6896
  152.4015  134.6275  160.0076 H   0  0  0  0  0  0  0  0  0  0  0  0  # atno 6908 bound_to 6896
  151.6545  133.3282  159.3196 H   0  0  0  0  0  0  0  0  0  0  0  0  # atno 6909 bound_to 6896
  145.1941  139.2985  143.4353 H   0  0  0  0  0  0  0  0  0  0  0  0  # atno 7974 bound_to 7965
  154.4236  140.1781  156.1467 H   0  0  0  0  0  0  0  0  0  0  0  0  # atno 8008 bound_to 7997
  155.9948  140.3365  155.6763 H   0  0  0  0  0  0  0  0  0  0  0  0  # atno 8009 bound_to 7997
  155.6323  140.0671  157.2635 H   0  0  0  0  0  0  0  0  0  0  0  0  # atno 8010 bound_to 7997
  139.5580  144.6862  151.4125 H   0  0  0  0  0  0  0  0  0  0  0  0  # atno 10167 bound_to 10162
  156.0459  130.4311  150.2136 H   0  0  0  0  0  0  0  0  0  0  0  0  # atno 10718 bound_to 10713
  154.6847  135.2960  154.9564 H   0  0  0  0  0  0  0  0  0  0  0  0  # atno 10763 bound_to 10752
  154.0548  135.6639  153.4808 H   0  0  0  0  0  0  0  0  0  0  0  0  # atno 10764 bound_to 10752
  153.0571  135.5138  154.7908 H   0  0  0  0  0  0  0  0  0  0  0  0  # atno 10765 bound_to 10752
  139.9615  134.7052  156.0635 H   0  0  0  0  0  0  0  0  0  0  0  0  # atno 11005 bound_to 11000
  146.3430  140.2163  142.8591 LP  0  0  0  0  0  0  0  0  0  0  0  0  # atno 17320 bound_to 7965
  145.0012  140.8634  143.5280 LP  0  0  0  0  0  0  0  0  0  0  0  0  # atno 17321 bound_to 7965
  140.6856  143.7981  150.7182 LP  0  0  0  0  0  0  0  0  0  0  0  0  # atno 17342 bound_to 10162
  140.1448  143.4410  152.2170 LP  0  0  0  0  0  0  0  0  0  0  0  0  # atno 17343 bound_to 10162
  157.0225  130.9983  151.3335 LP  0  0  0  0  0  0  0  0  0  0  0  0  # atno 17370 bound_to 10713
  157.5334  130.8073  149.7943 LP  0  0  0  0  0  0  0  0  0  0  0  0  # atno 17371 bound_to 10713
  141.1293  133.6591  156.3420 LP  0  0  0  0  0  0  0  0  0  0  0  0  # atno 17394 bound_to 11000
  140.5489  134.6047  157.5402 LP  0  0  0  0  0  0  0  0  0  0  0  0  # atno 17395 bound_to 11000

$$$$
