AV-unprocessed.smi:1|AV-procd|sdf|11|dock7
  -GOLD-   2262015103D 1   1.00000     0.00000
 Structure written by MMmdl.
 57 62  0  0  0  0  0  0  0  0  1 V2000
  152.2359  129.0123  156.1175 O   0  0  0  0  0  0  0  0  0  0  0  0
  151.6332  129.8230  156.8265 C   0  0  0  0  0  0  0  0  0  0  0  0
  150.9871  130.9948  156.4535 N   0  0  0  0  0  0  0  0  0  0  0  0
  151.5585  132.1443  156.6509 C   0  0  0  0  0  0  0  0  0  0  0  0
  152.7945  132.5037  157.2050 N   0  0  0  0  0  0  0  0  0  0  0  0
  153.2760  133.8121  157.3662 C   0  0  0  0  0  0  0  0  0  0  0  0
  152.6316  134.8936  157.0178 N   0  0  0  0  0  0  0  0  0  0  0  0
  151.3985  134.5910  156.4582 C   0  0  0  0  0  0  0  0  0  0  0  0
  150.8198  133.3592  156.2426 C   0  0  0  0  0  0  0  0  0  0  0  0
  149.5706  133.4983  155.6462 N   0  0  0  0  0  0  0  0  0  0  0  0
  149.4480  134.8186  155.5310 C   0  0  0  0  0  0  0  0  0  0  0  0
  150.4908  135.5354  155.9933 N   0  0  0  0  0  0  0  0  0  0  0  0
  150.6526  137.0208  156.0073 C   0  0  2  0  0  0  0  0  0  0  0  0
  151.7551  137.3448  156.7935 O   0  0  0  0  0  0  0  0  0  0  0  0
  151.5610  138.6657  157.2732 C   0  0  2  0  0  0  0  0  0  0  0  0
  152.5389  139.0030  158.4062 C   0  0  0  0  0  0  0  0  0  0  0  0
  152.4774  140.3958  158.6643 O   0  0  0  0  0  0  0  0  0  0  0  0
  153.1681  140.9256  159.6910 C   0  0  0  0  0  0  0  0  0  0  0  0
  154.0834  140.3400  160.2730 O   0  0  0  0  0  0  0  0  0  0  0  0
  152.7088  142.2989  160.0485 C   0  0  0  0  0  0  0  0  0  0  0  0
  152.4400  143.2303  159.0185 C   0  0  0  0  0  0  0  0  0  0  0  0
  152.0041  144.5337  159.3259 C   0  0  0  0  0  0  0  0  0  0  0  0
  151.8332  144.9225  160.6673 C   0  0  0  0  0  0  0  0  0  0  0  0
  152.0986  144.0060  161.7013 C   0  0  0  0  0  0  0  0  0  0  0  0
  152.5334  142.7014  161.3959 C   0  0  0  0  0  0  0  0  0  0  0  0
  150.0784  138.6766  157.6556 C   0  0  2  0  0  0  0  0  0  0  0  0
  149.8984  138.1272  158.9502 O   0  0  0  0  0  0  0  0  0  0  0  0
  148.6842  136.9838  158.8979 S   0  0  0  0  0  0  0  0  0  0  0  0
  149.2243  135.7142  159.4067 O   0  0  0  0  0  0  0  0  0  0  0  0
  147.4577  137.5930  159.4344 O   0  0  0  0  0  0  0  0  0  0  0  0
  148.5200  136.8604  157.2407 O   0  0  0  0  0  0  0  0  0  0  0  0
  149.4346  137.7462  156.6132 C   0  0  2  0  0  0  0  0  0  0  0  0
  151.5392  129.5355  158.2894 C   0  0  0  0  0  0  0  0  0  0  0  0
  152.1668  128.3921  158.8277 C   0  0  0  0  0  0  0  0  0  0  0  0
  152.0761  128.1206  160.2070 C   0  0  0  0  0  0  0  0  0  0  0  0
  151.3561  128.9888  161.0505 C   0  0  0  0  0  0  0  0  0  0  0  0
  150.7250  130.1284  160.5150 C   0  0  0  0  0  0  0  0  0  0  0  0
  150.8157  130.4018  159.1362 C   0  0  0  0  0  0  0  0  0  0  0  0
  154.2659  133.8671  157.8215 H   0  0  0  0  0  0  0  0  0  0  0  0
  148.5737  135.2773  155.0928 H   0  0  0  0  0  0  0  0  0  0  0  0
  150.8410  137.2978  154.9689 H   0  0  0  0  0  0  0  0  0  0  0  0
  151.7245  139.3494  156.4378 H   0  0  0  0  0  0  0  0  0  0  0  0
  152.2985  138.4373  159.3073 H   0  0  0  0  0  0  0  0  0  0  0  0
  153.5539  138.7326  158.1123 H   0  0  0  0  0  0  0  0  0  0  0  0
  152.5638  142.9551  157.9809 H   0  0  0  0  0  0  0  0  0  0  0  0
  151.8004  145.2357  158.5307 H   0  0  0  0  0  0  0  0  0  0  0  0
  151.4994  145.9222  160.9030 H   0  0  0  0  0  0  0  0  0  0  0  0
  151.9686  144.3036  162.7312 H   0  0  0  0  0  0  0  0  0  0  0  0
  152.7283  142.0236  162.2142 H   0  0  0  0  0  0  0  0  0  0  0  0
  149.6544  139.6810  157.6348 H   0  0  0  0  0  0  0  0  0  0  0  0
  148.9338  138.3080  155.8245 H   0  0  0  0  0  0  0  0  0  0  0  0
  152.7199  127.7208  158.1867 H   0  0  0  0  0  0  0  0  0  0  0  0
  152.5588  127.2462  160.6177 H   0  0  0  0  0  0  0  0  0  0  0  0
  151.2864  128.7796  162.1078 H   0  0  0  0  0  0  0  0  0  0  0  0
  150.1710  130.7929  161.1617 H   0  0  0  0  0  0  0  0  0  0  0  0
  150.3282  131.2775  158.7321 H   0  0  0  0  0  0  0  0  0  0  0  0
  153.3908  131.7515  157.5191 H   0  0  0  0  0  0  0  0  0  0  0  0
  1  2  2  0  0  0  0
  2  3  1  0  0  0  0
  2 33  1  0  0  0  0
  3  4  2  0  0  0  0
  4  9  1  0  0  0  0
  4  5  1  0  0  0  0
  5  6  1  0  0  0  0
  5 57  1  0  0  0  0
  6  7  2  0  0  0  0
  6 39  1  0  0  0  0
  7  8  1  0  0  0  0
  8 12  1  0  0  0  0
  8  9  2  0  0  0  0
  9 10  1  0  0  0  0
 10 11  2  0  0  0  0
 11 12  1  0  0  0  0
 11 40  1  0  0  0  0
 12 13  1  0  0  0  0
 13 32  1  0  0  0  0
 13 14  1  0  0  0  0
 13 41  1  0  0  0  0
 14 15  1  0  0  0  0
 15 16  1  0  0  0  0
 15 26  1  0  0  0  0
 15 42  1  0  0  0  0
 16 17  1  0  0  0  0
 16 43  1  0  0  0  0
 16 44  1  0  0  0  0
 17 18  1  0  0  0  0
 18 19  2  0  0  0  0
 18 20  1  0  0  0  0
 20 25  1  0  0  0  0
 20 21  2  0  0  0  0
 21 22  1  0  0  0  0
 21 45  1  0  0  0  0
 22 23  2  0  0  0  0
 22 46  1  0  0  0  0
 23 24  1  0  0  0  0
 23 47  1  0  0  0  0
 24 25  2  0  0  0  0
 24 48  1  0  0  0  0
 25 49  1  0  0  0  0
 26 32  1  0  0  0  0
 26 27  1  0  0  0  0
 26 50  1  0  0  0  0
 27 28  1  0  0  0  0
 28 29  2  0  0  0  0
 28 30  2  0  0  0  0
 28 31  1  0  0  0  0
 31 32  1  0  0  0  0
 32 51  1  0  0  0  0
 33 38  1  0  0  0  0
 33 34  2  0  0  0  0
 34 35  1  0  0  0  0
 34 52  1  0  0  0  0
 35 36  2  0  0  0  0
 35 53  1  0  0  0  0
 36 37  1  0  0  0  0
 36 54  1  0  0  0  0
 37 38  2  0  0  0  0
 37 55  1  0  0  0  0
 38 56  1  0  0  0  0
M  END
> <s_m_source_file>
AV-unprocessed.smi

> <i_m_source_file_index>
1

> <i_lp_mmshare_version>
43012

> <i_f3d_flags>
0

> <s_epik_input>
W2NIXTFbY0hdW2NIXVtjSF1bY0hdYzFDKD1PKVtOSF1jKG5bY0hdbjIpYyhjMjMpbltjSF1uM1tDQEBIXShbQ0BIXShbQ0BIXTQ1KU9TKE81KSg9Tyk9TylPW0NASF00W0NIMl1PQyg9TyljNltjSF1bY0hdW2NIXVtjSF1bY0hdNg==

> <s_epik_cmdline>
J2VwaWtfcHl0aG9uJywgJy1waCcsICc3LjAnLCAnLXRuJywgJzgnLCAnLW1hJywgJzIwMCcsICctbWV0YWxfYmluZGluZycsICctaW1hZScsICc8aW5maWxlLm1hZT4nLCAnLW9tYWUnLCAnPG91dGZpbGUubWFlPic=

> <r_epik_Ionization_Penalty>
0.122545

> <r_epik_Ionization_Penalty_Charging>
0.122545

> <r_epik_Ionization_Penalty_Neutral>
7.8935e-16

> <r_epik_State_Penalty>
2.69178

> <r_epik_Charging_Adjusted_Penalty>
2.81433

> <i_epik_Tot_Q>
0

> <i_epik_Tot_abs_Q>
0

> <r_epik_Metal_State_Penalty>
3.02665

> <b_epik_Metal_Only>
0

> <s_epik_Chemistry_Notes>
This compound has an ester and may undergo hydrolysis at high or low pH. This compound contains an acetal/aminal-like group ( X-CH(R)-Y where X, Y are N, S, or O) that may be acid/base labile, releasing an aldehyde.

> <s_lp_Force_Field>
OPLS_2005

> <r_lp_Energy>
59.7171

> <b_lp_Chiralities_Consistent>
1

> <s_lp_Variant>
AV-unprocessed.smi:1-11

> <Gold.Version>
5.8.1

> <Gold.Id.Protein>
6NUR|6NUR_protein|mol2

> <Gold.PLP.Fitness>
51.9457

> <Gold.PLP.PLP>
-47.6016

> <Gold.PLP.part.hbond>
-3.9160

> <Gold.PLP.part.metal>
0.0000

> <Gold.PLP.part.buried>
-6.5623

> <Gold.PLP.part.nonpolar>
-38.2129

> <Gold.PLP.part.repulsive>
0.1645

> <Gold.PLP.ligand.clash>
0.0000

> <Gold.PLP.ligand.torsion>
1.9241

> <Gold.PLP.Chemscore.Hbond>
2.6720

> <Gold.PLP.Chemscore.CHOScore>
0.0000

> <Gold.PLP.Chemscore.Metal>
0.0000

> <Gold.Chemscore.Hbonds>
donor molecule, donor type, donor heavy atom, donor atom, acceptor molecule, acceptor atom, score
      P1  H  6896  6908       L1    29  1.00
      P1  H  6934  6947       L1    30  0.64
      P1  H 10752 10764       L1     7  0.90

> <Gold.PLP.Chemscore.Internal.Correction>
0.1765

> <Gold.Rescore>
     Score         DG    S(hbond)    S(metal)    S(lipo)     H(rot)  DE(clash)    DE(int)     intcor
     12.67     -17.85       1.73        0.00     102.95       2.13       0.19       5.00       ----

> <Gold.Chemscore.Fitness>
12.6690

> <Gold.Chemscore.DG>
-17.8547

> <Gold.Chemscore.ZeroCoef>
-5.4800

> <Gold.Chemscore.Hbond>
1.7338

> <Gold.Chemscore.Metal>
0.0000

> <Gold.Chemscore.Lipo>
102.9507

> <Gold.Chemscore.Internal_Hbond>
0.0000

> <Gold.Chemscore.DEClash>
0.1863

> <Gold.Chemscore.DEInternal>
4.9994

> <Gold.Chemscore.Rot>
2.1333

> <Gold.Chemscore.Internal.Correction>
   9.000000E+99

> <Gold.Chemscore.Hbonds>
donor molecule, donor type, donor heavy atom, donor atom, acceptor molecule, acceptor atom, score
      P1  H  6896  6908       L1    29  1.00
      P1  H  6934  6947       L1    30  0.61
      P1  H 10752 10764       L1     7  0.04

> <Gold.Chemscore.Hbond.Weighted>
-5.7908

> <Gold.Chemscore.Metal.Weighted>
-0.0000

> <Gold.Chemscore.Lipo.Weighted>
-12.0452

> <Gold.Chemscore.Internal_Hbond.Weighted>
0.0000

> <Gold.Chemscore.DEClash.Weighted>
0.1863

> <Gold.Chemscore.DEInternal.Weighted>
4.9994

> <Gold.Chemscore.Rot.Weighted>
5.4614

> <Gold.Chemscore.Internal.Correction.Weighted>
   9.000000E+99

> <Gold.Protein.RotatedTorsions>
[ 6907 6896 6895 6894 ] final  177.42 input  -60.11 | X-H torsion
[ 7974 7965 7964 7962 ] final -150.64 input  175.53 | X-H torsion
[ 8008 7997 7996 7995 ] final  123.04 input   59.86 | X-H torsion
[ 10167 10162 10161 10158 ] final -125.10 input  -65.29 | X-H torsion
[ 10718 10713 10712 10709 ] final  -52.46 input   66.30 | X-H torsion
[ 10763 10752 10751 10750 ] final    5.54 input  -60.55 | X-H torsion
[ 11005 11000 10999 10996 ] final   75.89 input  -57.11 | X-H torsion

> <Gold.Protein.ActiveResidues>
 VAL166  LYS551  ARG553  GLY616  TRP617  ASP618  TYR619  PRO620  LYS621  CYS622 
 ASP623  PHE694  ASN695  SER759  ASP760  ASP761  ALA762  ILE779  LEU786  VAL792 
 PHE793  MET794  SER795  GLU796  ALA797  LYS798  CYS799  TRP800  GLU811  SER814 

> <Gold.Protein.RotatedAtoms>
  151.7042  133.3311  159.3273 H   0  0  0  0  0  0  0  0  0  0  0  0  # atno 6907 bound_to 6896
  150.7722  134.6589  159.6338 H   0  0  0  0  0  0  0  0  0  0  0  0  # atno 6908 bound_to 6896
  152.3751  134.6678  160.0214 H   0  0  0  0  0  0  0  0  0  0  0  0  # atno 6909 bound_to 6896
  144.7896  140.4905  143.5782 H   0  0  0  0  0  0  0  0  0  0  0  0  # atno 7974 bound_to 7965
  156.2751  140.2772  156.1564 H   0  0  0  0  0  0  0  0  0  0  0  0  # atno 8008 bound_to 7997
  155.0799  140.0387  157.2653 H   0  0  0  0  0  0  0  0  0  0  0  0  # atno 8009 bound_to 7997
  154.6972  140.2641  155.6760 H   0  0  0  0  0  0  0  0  0  0  0  0  # atno 8010 bound_to 7997
  139.9857  143.5695  152.2361 H   0  0  0  0  0  0  0  0  0  0  0  0  # atno 10167 bound_to 10162
  156.1620  130.4149  149.9779 H   0  0  0  0  0  0  0  0  0  0  0  0  # atno 10718 bound_to 10713
  153.2582  135.6920  153.7606 H   0  0  0  0  0  0  0  0  0  0  0  0  # atno 10763 bound_to 10752
  153.6675  135.3350  155.3145 H   0  0  0  0  0  0  0  0  0  0  0  0  # atno 10764 bound_to 10752
  154.8420  135.4492  154.1563 H   0  0  0  0  0  0  0  0  0  0  0  0  # atno 10765 bound_to 10752
  139.9323  134.7555  156.1327 H   0  0  0  0  0  0  0  0  0  0  0  0  # atno 11005 bound_to 11000
  145.5830  139.1490  143.3225 LP  0  0  0  0  0  0  0  0  0  0  0  0  # atno 17320 bound_to 7965
  146.2142  140.5959  142.9046 LP  0  0  0  0  0  0  0  0  0  0  0  0  # atno 17321 bound_to 7965
  139.6377  144.7651  151.2403 LP  0  0  0  0  0  0  0  0  0  0  0  0  # atno 17342 bound_to 10162
  140.7473  143.6370  150.8370 LP  0  0  0  0  0  0  0  0  0  0  0  0  # atno 17343 bound_to 10162
  156.7605  130.9149  151.3641 LP  0  0  0  0  0  0  0  0  0  0  0  0  # atno 17370 bound_to 10713
  157.6739  130.9077  150.0105 LP  0  0  0  0  0  0  0  0  0  0  0  0  # atno 17371 bound_to 10713
  141.0918  133.6711  156.2558 LP  0  0  0  0  0  0  0  0  0  0  0  0  # atno 17394 bound_to 11000
  140.6169  134.5401  157.5542 LP  0  0  0  0  0  0  0  0  0  0  0  0  # atno 17395 bound_to 11000

$$$$
