AV-unprocessed.smi:1444|AV-procd|sdf|5884|dock4
  -GOLD-   22720 5563D 1   1.00000     0.00000
 Structure written by MMmdl.
 44 45  0  0  0  0  0  0  0  0  2 V2000
  150.2385  145.2799  159.6963 C   0  0  0  0  0  0  0  0  0  0  0  0
  150.5017  144.4033  158.6062 O   0  0  0  0  0  0  0  0  0  0  0  0
  151.3918  143.3627  158.7942 C   0  0  0  0  0  0  0  0  0  0  0  0
  152.3077  143.4711  159.7889 N   0  0  0  0  0  0  0  0  0  0  0  0
  153.1774  142.4578  159.9750 C   0  0  0  0  0  0  0  0  0  0  0  0
  153.1819  141.2937  159.1857 C   0  0  0  0  0  0  0  0  0  0  0  0
  152.2329  141.1782  158.1530 C   0  0  0  0  0  0  0  0  0  0  0  0
  151.3103  142.2338  157.9447 C   0  0  0  0  0  0  0  0  0  0  0  0
  150.3024  142.2418  156.9382 N   0  0  0  0  0  0  0  0  0  0  0  0
  149.6944  141.2178  156.3160 C   0  0  0  0  0  0  0  0  0  0  0  0
  149.9278  140.0238  156.4972 O   0  0  0  0  0  0  0  0  0  0  0  0
  148.7850  141.6649  155.4374 N   0  0  0  0  0  0  0  0  0  0  0  0
  147.9035  140.8400  154.6102 C   0  0  1  0  0  0  0  0  0  0  0  0
  147.0538  141.7584  153.7215 C   0  0  0  0  0  0  0  0  0  0  0  0
  148.7072  139.8287  153.7607 C   0  0  0  0  0  0  0  0  0  0  0  0
  147.8989  138.6640  153.3192 N   0  3  0  0  0  0  0  0  0  0  0  0
  147.2790  137.9154  154.4398 C   0  0  0  0  0  0  0  0  0  0  0  0
  146.5238  136.6873  153.9055 C   0  0  0  0  0  0  0  0  0  0  0  0
  145.5464  137.1034  152.9594 O   0  0  0  0  0  0  0  0  0  0  0  0
  146.1324  137.7555  151.8392 C   0  0  0  0  0  0  0  0  0  0  0  0
  146.8776  139.0176  152.3061 C   0  0  0  0  0  0  0  0  0  0  0  0
  149.5209  146.0381  159.3838 H   0  0  0  0  0  0  0  0  0  0  0  0
  151.1433  145.7956  160.0217 H   0  0  0  0  0  0  0  0  0  0  0  0
  149.8064  144.7451  160.5433 H   0  0  0  0  0  0  0  0  0  0  0  0
  153.8910  142.5789  160.7767 H   0  0  0  0  0  0  0  0  0  0  0  0
  153.8975  140.5059  159.3696 H   0  0  0  0  0  0  0  0  0  0  0  0
  152.2422  140.2836  157.5525 H   0  0  0  0  0  0  0  0  0  0  0  0
  149.9916  143.1634  156.6659 H   0  0  0  0  0  0  0  0  0  0  0  0
  148.6672  142.6646  155.3563 H   0  0  0  0  0  0  0  0  0  0  0  0
  147.2103  140.2999  155.2563 H   0  0  0  0  0  0  0  0  0  0  0  0
  146.3555  141.1810  153.1150 H   0  0  0  0  0  0  0  0  0  0  0  0
  147.6752  142.3452  153.0439 H   0  0  0  0  0  0  0  0  0  0  0  0
  146.4670  142.4544  154.3221 H   0  0  0  0  0  0  0  0  0  0  0  0
  149.1458  140.3180  152.8895 H   0  0  0  0  0  0  0  0  0  0  0  0
  149.5462  139.4742  154.3616 H   0  0  0  0  0  0  0  0  0  0  0  0
  148.0402  137.5906  155.1485 H   0  0  0  0  0  0  0  0  0  0  0  0
  146.5935  138.5672  154.9834 H   0  0  0  0  0  0  0  0  0  0  0  0
  147.2128  135.9749  153.4481 H   0  0  0  0  0  0  0  0  0  0  0  0
  146.0248  136.1676  154.7237 H   0  0  0  0  0  0  0  0  0  0  0  0
  146.8080  137.0743  151.3196 H   0  0  0  0  0  0  0  0  0  0  0  0
  145.3450  138.0229  151.1340 H   0  0  0  0  0  0  0  0  0  0  0  0
  146.1736  139.7359  152.7292 H   0  0  0  0  0  0  0  0  0  0  0  0
  147.3536  139.4980  151.4505 H   0  0  0  0  0  0  0  0  0  0  0  0
  148.5402  138.0300  152.8636 H   0  0  0  0  0  0  0  0  0  0  0  0
  1  2  1  0  0  0  0
  1 22  1  0  0  0  0
  1 23  1  0  0  0  0
  1 24  1  0  0  0  0
  2  3  1  0  0  0  0
  3  8  1  0  0  0  0
  3  4  2  0  0  0  0
  4  5  1  0  0  0  0
  5  6  2  0  0  0  0
  5 25  1  0  0  0  0
  6  7  1  0  0  0  0
  6 26  1  0  0  0  0
  7  8  2  0  0  0  0
  7 27  1  0  0  0  0
  8  9  1  0  0  0  0
  9 10  1  0  0  0  0
  9 28  1  0  0  0  0
 10 11  2  0  0  0  0
 10 12  1  0  0  0  0
 12 13  1  0  0  0  0
 12 29  1  0  0  0  0
 13 14  1  0  0  0  0
 13 15  1  0  0  0  0
 13 30  1  0  0  0  0
 14 31  1  0  0  0  0
 14 32  1  0  0  0  0
 14 33  1  0  0  0  0
 15 16  1  0  0  0  0
 15 34  1  0  0  0  0
 15 35  1  0  0  0  0
 16 21  1  0  0  0  0
 16 17  1  0  0  0  0
 16 44  1  0  0  0  0
 17 18  1  0  0  0  0
 17 36  1  0  0  0  0
 17 37  1  0  0  0  0
 18 19  1  0  0  0  0
 18 38  1  0  0  0  0
 18 39  1  0  0  0  0
 19 20  1  0  0  0  0
 20 21  1  0  0  0  0
 20 40  1  0  0  0  0
 20 41  1  0  0  0  0
 21 42  1  0  0  0  0
 21 43  1  0  0  0  0
M  CHG  1  16   1
M  END
> <s_m_source_file>
AV-unprocessed.smi

> <i_m_source_file_index>
1444

> <i_lp_mmshare_version>
43012

> <i_f3d_flags>
0

> <s_epik_input>
W0NIM11PYzFuW2NIXVtjSF1bY0hdYzFbTkhdQyg9TylbTkhdW0NASF0oW0NIM10pW0NIMl1OMltDSDJdW0NIMl1PW0NIMl1bQ0gyXTI=

> <s_epik_cmdline>
J2VwaWtfcHl0aG9uJywgJy1waCcsICc3LjAnLCAnLXRuJywgJzgnLCAnLW1hJywgJzIwMCcsICctbWV0YWxfYmluZGluZycsICctaW1hZScsICc8aW5maWxlLm1hZT4nLCAnLW9tYWUnLCAnPG91dGZpbGUubWFlPic=

> <r_lp_tautomer_probability>
1

> <r_epik_Ionization_Penalty>
0.602604

> <r_epik_Ionization_Penalty_Charging>
0.602531

> <r_epik_Ionization_Penalty_Neutral>
7.37688e-05

> <r_epik_State_Penalty>
0.617039

> <r_epik_Charging_Adjusted_Penalty>
1.21957

> <i_epik_Tot_Q>
1

> <i_epik_Tot_abs_Q>
1

> <r_epik_Metal_State_Penalty>
0.617045

> <b_epik_Metal_Only>
0

> <s_lp_Force_Field>
OPLS_2005

> <r_lp_Energy>
24.8141

> <b_lp_Chiralities_Consistent>
1

> <s_lp_Variant>
AV-unprocessed.smi:1444-4

> <Gold.Version>
5.8.1

> <Gold.Id.Protein>
6NUR|6NUR_protein|mol2

> <Gold.PLP.Fitness>
41.1150

> <Gold.PLP.PLP>
-32.2367

> <Gold.PLP.part.hbond>
-3.7322

> <Gold.PLP.part.metal>
0.0000

> <Gold.PLP.part.buried>
0.1541

> <Gold.PLP.part.nonpolar>
-29.0034

> <Gold.PLP.part.repulsive>
0.5579

> <Gold.PLP.ligand.clash>
0.0000

> <Gold.PLP.ligand.torsion>
0.7002

> <Gold.PLP.Chemscore.Hbond>
3.3800

> <Gold.PLP.Chemscore.CHOScore>
0.0000

> <Gold.PLP.Chemscore.Metal>
0.0000

> <Gold.Chemscore.Hbonds>
donor molecule, donor type, donor heavy atom, donor atom, acceptor molecule, acceptor atom, score
      L1  H     9    28       P1  8028  0.68
      L1  H    12    29       P1  8028  0.88
      L1  H    16    44       P1  7948  1.76

> <Gold.PLP.Chemscore.Internal.Correction>
0.1387

> <Gold.Rescore>
     Score         DG    S(hbond)    S(metal)    S(lipo)     H(rot)  DE(clash)    DE(int)     intcor
     15.86     -19.55       2.57        0.00      85.72       1.78       1.29       2.40       ----

> <Gold.Chemscore.Fitness>
15.8572

> <Gold.Chemscore.DG>
-19.5488

> <Gold.Chemscore.ZeroCoef>
-5.4800

> <Gold.Chemscore.Hbond>
2.5739

> <Gold.Chemscore.Metal>
0.0000

> <Gold.Chemscore.Lipo>
85.7175

> <Gold.Chemscore.Internal_Hbond>
0.0000

> <Gold.Chemscore.DEClash>
1.2922

> <Gold.Chemscore.DEInternal>
2.3994

> <Gold.Chemscore.Rot>
1.7801

> <Gold.Chemscore.Internal.Correction>
   9.000000E+99

> <Gold.Chemscore.Hbonds>
donor molecule, donor type, donor heavy atom, donor atom, acceptor molecule, acceptor atom, score
      L1  H     9    28       P1  8028  0.69
      L1  H    12    29       P1  8028  0.85
      L1  H    16    44       P1  7948  0.82

> <Gold.Chemscore.Hbond.Weighted>
-8.5969

> <Gold.Chemscore.Metal.Weighted>
-0.0000

> <Gold.Chemscore.Lipo.Weighted>
-10.0289

> <Gold.Chemscore.Internal_Hbond.Weighted>
0.0000

> <Gold.Chemscore.DEClash.Weighted>
1.2922

> <Gold.Chemscore.DEInternal.Weighted>
2.3994

> <Gold.Chemscore.Rot.Weighted>
4.5570

> <Gold.Chemscore.Internal.Correction.Weighted>
   9.000000E+99

> <Gold.Protein.RotatedTorsions>
[ 6907 6896 6895 6894 ] final  -84.61 input  -60.11 | X-H torsion
[ 7974 7965 7964 7962 ] final  -17.86 input  175.53 | X-H torsion
[ 8008 7997 7996 7995 ] final  114.41 input   59.86 | X-H torsion
[ 10167 10162 10161 10158 ] final -143.09 input  -65.29 | X-H torsion
[ 10718 10713 10712 10709 ] final  -38.30 input   66.30 | X-H torsion
[ 10763 10752 10751 10750 ] final  -63.64 input  -60.55 | X-H torsion
[ 11005 11000 10999 10996 ] final   46.27 input  -57.11 | X-H torsion

> <Gold.Protein.ActiveResidues>
 VAL166  LYS551  ARG553  GLY616  TRP617  ASP618  TYR619  PRO620  LYS621  CYS622 
 ASP623  PHE694  ASN695  SER759  ASP760  ASP761  ALA762  ILE779  LEU786  VAL792 
 PHE793  MET794  SER795  GLU796  ALA797  LYS798  CYS799  TRP800  GLU811  SER814 

> <Gold.Protein.RotatedAtoms>
  150.6875  134.3332  159.4835 H   0  0  0  0  0  0  0  0  0  0  0  0  # atno 6907 bound_to 6896
  152.1194  134.9214  160.0573 H   0  0  0  0  0  0  0  0  0  0  0  0  # atno 6908 bound_to 6896
  152.0425  133.3949  159.4380 H   0  0  0  0  0  0  0  0  0  0  0  0  # atno 6909 bound_to 6896
  146.1921  140.3839  142.8454 H   0  0  0  0  0  0  0  0  0  0  0  0  # atno 7974 bound_to 7965
  156.2319  140.2960  156.0211 H   0  0  0  0  0  0  0  0  0  0  0  0  # atno 8008 bound_to 7997
  155.2200  140.0415  157.2964 H   0  0  0  0  0  0  0  0  0  0  0  0  # atno 8009 bound_to 7997
  154.6011  140.2427  155.7799 H   0  0  0  0  0  0  0  0  0  0  0  0  # atno 8010 bound_to 7997
  139.8026  143.7812  152.2659 H   0  0  0  0  0  0  0  0  0  0  0  0  # atno 10167 bound_to 10162
  156.3053  130.4245  149.8103 H   0  0  0  0  0  0  0  0  0  0  0  0  # atno 10718 bound_to 10713
  154.3181  135.6202  153.5495 H   0  0  0  0  0  0  0  0  0  0  0  0  # atno 10763 bound_to 10752
  152.9822  135.5717  154.5101 H   0  0  0  0  0  0  0  0  0  0  0  0  # atno 10764 bound_to 10752
  154.4764  135.2861  155.1580 H   0  0  0  0  0  0  0  0  0  0  0  0  # atno 10765 bound_to 10752
  140.1384  134.4615  155.8468 H   0  0  0  0  0  0  0  0  0  0  0  0  # atno 11005 bound_to 11000
  144.8506  140.6996  143.6170 LP  0  0  0  0  0  0  0  0  0  0  0  0  # atno 17320 bound_to 7965
  145.3761  139.1647  143.4306 LP  0  0  0  0  0  0  0  0  0  0  0  0  # atno 17321 bound_to 7965
  139.7937  144.7400  150.9919 LP  0  0  0  0  0  0  0  0  0  0  0  0  # atno 17342 bound_to 10162
  140.7820  143.4416  151.0544 LP  0  0  0  0  0  0  0  0  0  0  0  0  # atno 17343 bound_to 10162
  156.5466  130.8323  151.3286 LP  0  0  0  0  0  0  0  0  0  0  0  0  # atno 17370 bound_to 10713
  157.7378  130.9802  150.2214 LP  0  0  0  0  0  0  0  0  0  0  0  0  # atno 17371 bound_to 10713
  141.2182  133.6823  156.7200 LP  0  0  0  0  0  0  0  0  0  0  0  0  # atno 17394 bound_to 11000
  140.2753  134.8360  157.3884 LP  0  0  0  0  0  0  0  0  0  0  0  0  # atno 17395 bound_to 11000

$$$$
