AV-unprocessed.smi:1530|AV-procd|sdf|6155|dock7
  -GOLD-   22720 6303D 1   1.00000     0.00000
 Structure written by MMmdl.
 42 43  0  0  0  0  0  0  0  0  1 V2000
  147.7880  131.6914  159.0544 C   0  0  0  0  0  0  0  0  0  0  0  0
  147.9227  133.1079  159.0132 O   0  0  0  0  0  0  0  0  0  0  0  0
  147.5487  133.8395  160.1247 C   0  0  0  0  0  0  0  0  0  0  0  0
  147.0334  133.1746  161.1892 N   0  0  0  0  0  0  0  0  0  0  0  0
  146.6722  133.8842  162.2773 C   0  0  0  0  0  0  0  0  0  0  0  0
  146.8088  135.2812  162.3645 C   0  0  0  0  0  0  0  0  0  0  0  0
  147.3437  135.9736  161.2624 C   0  0  0  0  0  0  0  0  0  0  0  0
  147.7174  135.2443  160.1063 C   0  0  0  0  0  0  0  0  0  0  0  0
  148.2757  135.8282  158.9335 N   0  0  0  0  0  0  0  0  0  0  0  0
  148.3759  137.1226  158.5856 C   0  0  0  0  0  0  0  0  0  0  0  0
  147.9878  138.0775  159.2573 O   0  0  0  0  0  0  0  0  0  0  0  0
  148.9622  137.2513  157.3870 N   0  0  0  0  0  0  0  0  0  0  0  0
  149.2595  138.5150  156.7098 C   0  0  0  0  0  0  0  0  0  0  0  0
  150.6342  138.5347  155.9732 C   0  0  0  0  0  0  0  0  0  0  0  0
  150.5484  137.6065  154.7302 C   0  0  0  0  0  0  0  0  0  0  0  0
  149.6471  137.8868  153.7828 N   0  0  0  0  0  0  0  0  0  0  0  0
  151.2864  136.6272  154.6272 O   0  0  0  0  0  0  0  0  0  0  0  0
  150.9918  139.9882  155.5493 C   0  0  0  0  0  0  0  0  0  0  0  0
  151.3958  140.8829  156.7361 C   0  0  0  0  0  0  0  0  0  0  0  0
  152.4740  140.2939  157.4491 O   0  0  0  0  0  0  0  0  0  0  0  0
  152.1336  139.0334  158.0091 C   0  0  0  0  0  0  0  0  0  0  0  0
  151.7909  138.0394  156.8862 C   0  0  0  0  0  0  0  0  0  0  0  0
  148.1273  131.2702  158.1083 H   0  0  0  0  0  0  0  0  0  0  0  0
  146.7484  131.3925  159.1954 H   0  0  0  0  0  0  0  0  0  0  0  0
  148.3973  131.2556  159.8476 H   0  0  0  0  0  0  0  0  0  0  0  0
  146.2668  133.3214  163.1050 H   0  0  0  0  0  0  0  0  0  0  0  0
  146.5133  135.8100  163.2585 H   0  0  0  0  0  0  0  0  0  0  0  0
  147.4612  137.0423  161.3390 H   0  0  0  0  0  0  0  0  0  0  0  0
  148.6105  135.1650  158.2495 H   0  0  0  0  0  0  0  0  0  0  0  0
  149.2483  136.4083  156.9105 H   0  0  0  0  0  0  0  0  0  0  0  0
  148.4595  138.6841  155.9880 H   0  0  0  0  0  0  0  0  0  0  0  0
  149.1808  139.3433  157.4134 H   0  0  0  0  0  0  0  0  0  0  0  0
  149.5693  137.2942  152.9690 H   0  0  0  0  0  0  0  0  0  0  0  0
  149.0424  138.6886  153.8880 H   0  0  0  0  0  0  0  0  0  0  0  0
  151.8252  139.9760  154.8446 H   0  0  0  0  0  0  0  0  0  0  0  0
  150.1550  140.4530  155.0258 H   0  0  0  0  0  0  0  0  0  0  0  0
  151.7156  141.8584  156.3697 H   0  0  0  0  0  0  0  0  0  0  0  0
  150.5563  141.0662  157.4069 H   0  0  0  0  0  0  0  0  0  0  0  0
  152.9863  138.6661  158.5803 H   0  0  0  0  0  0  0  0  0  0  0  0
  151.3091  139.1422  158.7144 H   0  0  0  0  0  0  0  0  0  0  0  0
  151.5623  137.0675  157.3246 H   0  0  0  0  0  0  0  0  0  0  0  0
  152.6909  137.8875  156.2878 H   0  0  0  0  0  0  0  0  0  0  0  0
  1  2  1  0  0  0  0
  1 23  1  0  0  0  0
  1 24  1  0  0  0  0
  1 25  1  0  0  0  0
  2  3  1  0  0  0  0
  3  8  1  0  0  0  0
  3  4  2  0  0  0  0
  4  5  1  0  0  0  0
  5  6  2  0  0  0  0
  5 26  1  0  0  0  0
  6  7  1  0  0  0  0
  6 27  1  0  0  0  0
  7  8  2  0  0  0  0
  7 28  1  0  0  0  0
  8  9  1  0  0  0  0
  9 10  1  0  0  0  0
  9 29  1  0  0  0  0
 10 11  2  0  0  0  0
 10 12  1  0  0  0  0
 12 13  1  0  0  0  0
 12 30  1  0  0  0  0
 13 14  1  0  0  0  0
 13 31  1  0  0  0  0
 13 32  1  0  0  0  0
 14 22  1  0  0  0  0
 14 15  1  0  0  0  0
 14 18  1  0  0  0  0
 15 16  1  0  0  0  0
 15 17  2  0  0  0  0
 16 33  1  0  0  0  0
 16 34  1  0  0  0  0
 18 19  1  0  0  0  0
 18 35  1  0  0  0  0
 18 36  1  0  0  0  0
 19 20  1  0  0  0  0
 19 37  1  0  0  0  0
 19 38  1  0  0  0  0
 20 21  1  0  0  0  0
 21 22  1  0  0  0  0
 21 39  1  0  0  0  0
 21 40  1  0  0  0  0
 22 41  1  0  0  0  0
 22 42  1  0  0  0  0
M  END
> <s_m_source_file>
AV-unprocessed.smi

> <i_m_source_file_index>
1530

> <i_lp_mmshare_version>
43012

> <i_f3d_flags>
0

> <s_epik_input>
W0NIM11PYzFuW2NIXVtjSF1bY0hdYzFbTkhdQyg9TylbTkhdW0NIMl1DMihDKD1PKVtOSDJdKVtDSDJdW0NIMl1PW0NIMl1bQ0gyXTI=

> <s_epik_cmdline>
J2VwaWtfcHl0aG9uJywgJy1waCcsICc3LjAnLCAnLXRuJywgJzgnLCAnLW1hJywgJzIwMCcsICctbWV0YWxfYmluZGluZycsICctaW1hZScsICc8aW5maWxlLm1hZT4nLCAnLW9tYWUnLCAnPG91dGZpbGUubWFlPic=

> <r_lp_tautomer_probability>
1

> <r_epik_Ionization_Penalty>
8.83779e-05

> <r_epik_Ionization_Penalty_Charging>
0

> <r_epik_Ionization_Penalty_Neutral>
8.83779e-05

> <r_epik_State_Penalty>
-0

> <r_epik_Charging_Adjusted_Penalty>
0

> <i_epik_Tot_Q>
0

> <i_epik_Tot_abs_Q>
0

> <r_epik_Metal_State_Penalty>
-0

> <b_epik_Metal_Only>
0

> <s_lp_Force_Field>
OPLS_2005

> <r_lp_Energy>
14.5365

> <b_lp_Chiralities_Consistent>
1

> <s_lp_Variant>
AV-unprocessed.smi:1530-1

> <Gold.Version>
5.8.1

> <Gold.Id.Protein>
6NUR|6NUR_protein|mol2

> <Gold.PLP.Fitness>
39.8270

> <Gold.PLP.PLP>
-30.6411

> <Gold.PLP.part.hbond>
-4.7037

> <Gold.PLP.part.metal>
0.0000

> <Gold.PLP.part.buried>
-3.3072

> <Gold.PLP.part.nonpolar>
-22.9192

> <Gold.PLP.part.repulsive>
0.3305

> <Gold.PLP.ligand.clash>
0.0000

> <Gold.PLP.ligand.torsion>
0.2698

> <Gold.PLP.Chemscore.Hbond>
3.2355

> <Gold.PLP.Chemscore.CHOScore>
0.0000

> <Gold.PLP.Chemscore.Metal>
0.0000

> <Gold.Chemscore.Hbonds>
donor molecule, donor type, donor heavy atom, donor atom, acceptor molecule, acceptor atom, score
      L1  H    16    33       P1  7948  1.00
      P1  H  6934  6947       L1    11  0.29
      P1  H  7997  8009       L1    20  0.90
      P1  H 10752 10764       L1    17  1.00

> <Gold.PLP.Chemscore.Internal.Correction>
0.0191

> <Gold.Rescore>
     Score         DG    S(hbond)    S(metal)    S(lipo)     H(rot)  DE(clash)    DE(int)     intcor
     16.54     -18.10       3.24        0.00      64.11       2.23       0.03       1.53       ----

> <Gold.Chemscore.Fitness>
16.5427

> <Gold.Chemscore.DG>
-18.1035

> <Gold.Chemscore.ZeroCoef>
-5.4800

> <Gold.Chemscore.Hbond>
3.2426

> <Gold.Chemscore.Metal>
0.0000

> <Gold.Chemscore.Lipo>
64.1087

> <Gold.Chemscore.Internal_Hbond>
0.0000

> <Gold.Chemscore.DEClash>
0.0288

> <Gold.Chemscore.DEInternal>
1.5320

> <Gold.Chemscore.Rot>
2.2294

> <Gold.Chemscore.Internal.Correction>
   9.000000E+99

> <Gold.Chemscore.Hbonds>
donor molecule, donor type, donor heavy atom, donor atom, acceptor molecule, acceptor atom, score
      L1  H    16    33       P1  7948  0.69
      P1  H  6934  6947       L1    11  0.29
      P1  H  7997  8009       L1    20  0.45
      P1  H 10752 10764       L1    17  0.94

> <Gold.Chemscore.Hbond.Weighted>
-10.8301

> <Gold.Chemscore.Metal.Weighted>
-0.0000

> <Gold.Chemscore.Lipo.Weighted>
-7.5007

> <Gold.Chemscore.Internal_Hbond.Weighted>
0.0000

> <Gold.Chemscore.DEClash.Weighted>
0.0288

> <Gold.Chemscore.DEInternal.Weighted>
1.5320

> <Gold.Chemscore.Rot.Weighted>
5.7073

> <Gold.Chemscore.Internal.Correction.Weighted>
   9.000000E+99

> <Gold.Protein.RotatedTorsions>
[ 6907 6896 6895 6894 ] final   83.42 input  -60.11 | X-H torsion
[ 7974 7965 7964 7962 ] final  147.30 input  175.53 | X-H torsion
[ 8008 7997 7996 7995 ] final  176.91 input   59.86 | X-H torsion
[ 10167 10162 10161 10158 ] final   77.64 input  -65.29 | X-H torsion
[ 10718 10713 10712 10709 ] final  178.47 input   66.30 | X-H torsion
[ 10763 10752 10751 10750 ] final  -50.32 input  -60.55 | X-H torsion
[ 11005 11000 10999 10996 ] final  117.17 input  -57.11 | X-H torsion

> <Gold.Protein.ActiveResidues>
 VAL166  LYS551  ARG553  GLY616  TRP617  ASP618  TYR619  PRO620  LYS621  CYS622 
 ASP623  PHE694  ASN695  SER759  ASP760  ASP761  ALA762  ILE779  LEU786  VAL792 
 PHE793  MET794  SER795  GLU796  ALA797  LYS798  CYS799  TRP800  GLU811  SER814 

> <Gold.Protein.RotatedAtoms>
  152.5326  134.2898  159.9038 H   0  0  0  0  0  0  0  0  0  0  0  0  # atno 6907 bound_to 6896
  151.2850  133.4185  159.2637 H   0  0  0  0  0  0  0  0  0  0  0  0  # atno 6908 bound_to 6896
  151.0250  134.9513  159.8137 H   0  0  0  0  0  0  0  0  0  0  0  0  # atno 6909 bound_to 6896
  144.8602  139.6012  143.5934 H   0  0  0  0  0  0  0  0  0  0  0  0  # atno 7974 bound_to 7965
  156.0714  140.1372  156.9824 H   0  0  0  0  0  0  0  0  0  0  0  0  # atno 8008 bound_to 7997
  154.4534  140.0971  156.6737 H   0  0  0  0  0  0  0  0  0  0  0  0  # atno 8009 bound_to 7997
  155.5222  140.3456  155.4411 H   0  0  0  0  0  0  0  0  0  0  0  0  # atno 8010 bound_to 7997
  139.9794  144.5837  150.7914 H   0  0  0  0  0  0  0  0  0  0  0  0  # atno 10167 bound_to 10162
  156.8900  130.9844  151.3050 H   0  0  0  0  0  0  0  0  0  0  0  0  # atno 10718 bound_to 10713
  154.1084  135.6553  153.4880 H   0  0  0  0  0  0  0  0  0  0  0  0  # atno 10763 bound_to 10752
  153.0265  135.5242  154.7216 H   0  0  0  0  0  0  0  0  0  0  0  0  # atno 10764 bound_to 10752
  154.6389  135.2986  155.0097 H   0  0  0  0  0  0  0  0  0  0  0  0  # atno 10765 bound_to 10752
  139.9065  134.9607  156.7309 H   0  0  0  0  0  0  0  0  0  0  0  0  # atno 11005 bound_to 11000
  146.2855  139.6991  142.9199 LP  0  0  0  0  0  0  0  0  0  0  0  0  # atno 17320 bound_to 7965
  145.4327  141.0416  143.2902 LP  0  0  0  0  0  0  0  0  0  0  0  0  # atno 17321 bound_to 7965
  140.7494  143.2939  151.3258 LP  0  0  0  0  0  0  0  0  0  0  0  0  # atno 17342 bound_to 10162
  139.6421  144.0519  152.2563 LP  0  0  0  0  0  0  0  0  0  0  0  0  # atno 17343 bound_to 10162
  157.6089  130.8568  149.8920 LP  0  0  0  0  0  0  0  0  0  0  0  0  # atno 17370 bound_to 10713
  156.0634  130.3696  150.0932 LP  0  0  0  0  0  0  0  0  0  0  0  0  # atno 17371 bound_to 10713
  140.6925  133.9377  155.7975 LP  0  0  0  0  0  0  0  0  0  0  0  0  # atno 17394 bound_to 11000
  141.0431  134.0593  157.3878 LP  0  0  0  0  0  0  0  0  0  0  0  0  # atno 17395 bound_to 11000

$$$$
