AV-unprocessed.smi:568|AV-procd|sdf|2957|dock10
  -GOLD-   2262023463D 1   1.00000     0.00000
 Structure written by MMmdl.
 35 36  0  0  0  0  0  0  0  0  1 V2000
  147.2436  141.9375  155.1833 C   0  0  0  0  0  0  0  0  0  0  0  0
  148.5740  141.2409  155.1881 C   0  0  0  0  0  0  0  0  0  0  0  0
  149.1531  140.9392  154.0382 N   0  0  0  0  0  0  0  0  0  0  0  0
  150.3568  140.3097  154.3688 O   0  0  0  0  0  0  0  0  0  0  0  0
  150.4576  140.2576  155.7211 C   0  0  0  0  0  0  0  0  0  0  0  0
  151.6851  139.6152  156.2734 C   0  0  0  0  0  0  0  0  0  0  0  0
  149.3606  140.8318  156.3036 C   0  0  0  0  0  0  0  0  0  0  0  0
  149.0463  140.9946  157.7695 C   0  0  0  0  0  0  0  0  0  0  0  0
  149.5516  142.3522  158.2585 C   0  0  0  0  0  0  0  0  0  0  0  0
  148.7538  143.2132  158.6278 O   0  0  0  0  0  0  0  0  0  0  0  0
  150.8809  142.5252  158.2617 N   0  0  0  0  0  0  0  0  0  0  0  0
  151.5662  143.7165  158.7421 C   0  0  0  0  0  0  0  0  0  0  0  0
  152.6879  143.3365  159.7223 C   0  0  2  0  0  0  0  0  0  0  0  0
  153.3186  141.9805  159.4691 C   0  0  0  0  0  0  0  0  0  0  0  0
  153.9893  141.6905  160.8083 C   0  0  0  0  0  0  0  0  0  0  0  0
  153.1915  142.3398  161.7948 O   0  0  0  0  0  0  0  0  0  0  0  0
  152.2244  143.1786  161.1696 C   0  0  0  0  0  0  0  0  0  0  0  0
  146.6752  141.7118  156.0855 H   0  0  0  0  0  0  0  0  0  0  0  0
  146.6364  141.6326  154.3304 H   0  0  0  0  0  0  0  0  0  0  0  0
  147.3708  143.0189  155.1327 H   0  0  0  0  0  0  0  0  0  0  0  0
  151.4825  139.1469  157.2365 H   0  0  0  0  0  0  0  0  0  0  0  0
  152.4738  140.3538  156.4159 H   0  0  0  0  0  0  0  0  0  0  0  0
  152.0590  138.8445  155.5992 H   0  0  0  0  0  0  0  0  0  0  0  0
  147.9745  140.9266  157.9589 H   0  0  0  0  0  0  0  0  0  0  0  0
  149.5082  140.2049  158.3632 H   0  0  0  0  0  0  0  0  0  0  0  0
  151.4594  141.7637  157.9383 H   0  0  0  0  0  0  0  0  0  0  0  0
  151.9794  144.2583  157.8903 H   0  0  0  0  0  0  0  0  0  0  0  0
  150.8510  144.3816  159.2298 H   0  0  0  0  0  0  0  0  0  0  0  0
  153.4708  144.0965  159.6910 H   0  0  0  0  0  0  0  0  0  0  0  0
  152.5489  141.2344  159.2660 H   0  0  0  0  0  0  0  0  0  0  0  0
  154.0219  141.9797  158.6357 H   0  0  0  0  0  0  0  0  0  0  0  0
  154.0780  140.6222  161.0062 H   0  0  0  0  0  0  0  0  0  0  0  0
  154.9900  142.1235  160.8330 H   0  0  0  0  0  0  0  0  0  0  0  0
  152.1338  144.1347  161.6859 H   0  0  0  0  0  0  0  0  0  0  0  0
  151.2561  142.6778  161.2145 H   0  0  0  0  0  0  0  0  0  0  0  0
  1  2  1  0  0  0  0
  1 18  1  0  0  0  0
  1 19  1  0  0  0  0
  1 20  1  0  0  0  0
  2  7  1  0  0  0  0
  2  3  2  0  0  0  0
  3  4  1  0  0  0  0
  4  5  1  0  0  0  0
  5  6  1  0  0  0  0
  5  7  2  0  0  0  0
  6 21  1  0  0  0  0
  6 22  1  0  0  0  0
  6 23  1  0  0  0  0
  7  8  1  0  0  0  0
  8  9  1  0  0  0  0
  8 24  1  0  0  0  0
  8 25  1  0  0  0  0
  9 10  2  0  0  0  0
  9 11  1  0  0  0  0
 11 12  1  0  0  0  0
 11 26  1  0  0  0  0
 12 13  1  0  0  0  0
 12 27  1  0  0  0  0
 12 28  1  0  0  0  0
 13 17  1  0  0  0  0
 13 14  1  0  0  0  0
 13 29  1  0  0  0  0
 14 15  1  0  0  0  0
 14 30  1  0  0  0  0
 14 31  1  0  0  0  0
 15 16  1  0  0  0  0
 15 32  1  0  0  0  0
 15 33  1  0  0  0  0
 16 17  1  0  0  0  0
 17 34  1  0  0  0  0
 17 35  1  0  0  0  0
M  END
> <s_m_source_file>
AV-unprocessed.smi

> <i_m_source_file_index>
568

> <i_lp_mmshare_version>
43012

> <i_f3d_flags>
0

> <s_epik_input>
W0NIM11jMW5vYyhbQ0gzXSljMVtDSDJdQyg9TylbTkhdW0NIMl1bQ0BASF0yW0NIMl1bQ0gyXU9bQ0gyXTI=

> <s_epik_cmdline>
J2VwaWtfcHl0aG9uJywgJy1waCcsICc3LjAnLCAnLXRuJywgJzgnLCAnLW1hJywgJzIwMCcsICctbWV0YWxfYmluZGluZycsICctaW1hZScsICc8aW5maWxlLm1hZT4nLCAnLW9tYWUnLCAnPG91dGZpbGUubWFlPic=

> <r_lp_tautomer_probability>
1

> <r_epik_Ionization_Penalty>
2.07075e-08

> <r_epik_Ionization_Penalty_Charging>
0

> <r_epik_Ionization_Penalty_Neutral>
2.07075e-08

> <r_epik_State_Penalty>
-0

> <r_epik_Charging_Adjusted_Penalty>
0

> <i_epik_Tot_Q>
0

> <i_epik_Tot_abs_Q>
0

> <r_epik_Metal_State_Penalty>
-0

> <b_epik_Metal_Only>
0

> <s_lp_Force_Field>
OPLS_2005

> <r_lp_Energy>
12.0647

> <b_lp_Chiralities_Consistent>
1

> <s_lp_Variant>
AV-unprocessed.smi:568-1

> <Gold.Version>
5.8.1

> <Gold.Id.Protein>
6NUR|6NUR_protein|mol2

> <Gold.PLP.Fitness>
36.3021

> <Gold.PLP.PLP>
-33.4355

> <Gold.PLP.part.hbond>
-2.5729

> <Gold.PLP.part.metal>
0.0000

> <Gold.PLP.part.buried>
-4.5502

> <Gold.PLP.part.nonpolar>
-28.4785

> <Gold.PLP.part.repulsive>
1.7723

> <Gold.PLP.ligand.clash>
0.0000

> <Gold.PLP.ligand.torsion>
0.7880

> <Gold.PLP.Chemscore.Hbond>
1.4781

> <Gold.PLP.Chemscore.CHOScore>
0.0000

> <Gold.PLP.Chemscore.Metal>
0.0000

> <Gold.Chemscore.Hbonds>
donor molecule, donor type, donor heavy atom, donor atom, acceptor molecule, acceptor atom, score
      P1  H  7989  7998       L1     4  1.00
      P1  H  8011  8017       L1     3  0.19

> <Gold.PLP.Chemscore.Internal.Correction>
0.0084

> <Gold.Rescore>
     Score         DG    S(hbond)    S(metal)    S(lipo)     H(rot)  DE(clash)    DE(int)     intcor
     13.65     -14.63       0.90        0.00      86.43       1.56       0.32       0.66       ----

> <Gold.Chemscore.Fitness>
13.6550

> <Gold.Chemscore.DG>
-14.6327

> <Gold.Chemscore.ZeroCoef>
-5.4800

> <Gold.Chemscore.Hbond>
0.9045

> <Gold.Chemscore.Metal>
0.0000

> <Gold.Chemscore.Lipo>
86.4334

> <Gold.Chemscore.Internal_Hbond>
0.0000

> <Gold.Chemscore.DEClash>
0.3191

> <Gold.Chemscore.DEInternal>
0.6586

> <Gold.Chemscore.Rot>
1.5551

> <Gold.Chemscore.Internal.Correction>
   9.000000E+99

> <Gold.Chemscore.Hbonds>
donor molecule, donor type, donor heavy atom, donor atom, acceptor molecule, acceptor atom, score
      P1  H  7989  7998       L1     4  0.77
      P1  H  8011  8017       L1     3  0.08

> <Gold.Chemscore.Hbond.Weighted>
-3.0209

> <Gold.Chemscore.Metal.Weighted>
-0.0000

> <Gold.Chemscore.Lipo.Weighted>
-10.1127

> <Gold.Chemscore.Internal_Hbond.Weighted>
0.0000

> <Gold.Chemscore.DEClash.Weighted>
0.3191

> <Gold.Chemscore.DEInternal.Weighted>
0.6586

> <Gold.Chemscore.Rot.Weighted>
3.9809

> <Gold.Chemscore.Internal.Correction.Weighted>
   9.000000E+99

> <Gold.Protein.RotatedTorsions>
[ 6907 6896 6895 6894 ] final  136.53 input  -60.11 | X-H torsion
[ 7974 7965 7964 7962 ] final  -47.78 input  175.53 | X-H torsion
[ 8008 7997 7996 7995 ] final -132.83 input   59.86 | X-H torsion
[ 10167 10162 10161 10158 ] final  -79.28 input  -65.29 | X-H torsion
[ 10718 10713 10712 10709 ] final  126.02 input   66.30 | X-H torsion
[ 10763 10752 10751 10750 ] final -146.68 input  -60.55 | X-H torsion
[ 11005 11000 10999 10996 ] final  -54.78 input  -57.11 | X-H torsion

> <Gold.Protein.ActiveResidues>
 VAL166  LYS551  ARG553  GLY616  TRP617  ASP618  TYR619  PRO620  LYS621  CYS622 
 ASP623  PHE694  ASN695  SER759  ASP760  ASP761  ALA762  ILE779  LEU786  VAL792 
 PHE793  MET794  SER795  GLU796  ALA797  LYS798  CYS799  TRP800  GLU811  SER814 

> <Gold.Protein.RotatedAtoms>
  152.2883  133.5537  159.5541 H   0  0  0  0  0  0  0  0  0  0  0  0  # atno 6907 bound_to 6896
  150.7224  134.0465  159.3792 H   0  0  0  0  0  0  0  0  0  0  0  0  # atno 6908 bound_to 6896
  151.8372  135.0602  160.0494 H   0  0  0  0  0  0  0  0  0  0  0  0  # atno 6909 bound_to 6896
  145.9580  140.7507  142.9471 H   0  0  0  0  0  0  0  0  0  0  0  0  # atno 7974 bound_to 7965
  155.3354  140.0469  157.3043 H   0  0  0  0  0  0  0  0  0  0  0  0  # atno 8008 bound_to 7997
  154.5306  140.2255  155.8777 H   0  0  0  0  0  0  0  0  0  0  0  0  # atno 8009 bound_to 7997
  156.1784  140.3079  155.9109 H   0  0  0  0  0  0  0  0  0  0  0  0  # atno 8010 bound_to 7997
  140.4608  143.2454  151.8352 H   0  0  0  0  0  0  0  0  0  0  0  0  # atno 10167 bound_to 10162
  157.5455  131.1096  150.8789 H   0  0  0  0  0  0  0  0  0  0  0  0  # atno 10718 bound_to 10713
  154.8324  135.3380  154.6699 H   0  0  0  0  0  0  0  0  0  0  0  0  # atno 10763 bound_to 10752
  153.7317  135.6951  153.4992 H   0  0  0  0  0  0  0  0  0  0  0  0  # atno 10764 bound_to 10752
  153.2307  135.4417  155.0544 H   0  0  0  0  0  0  0  0  0  0  0  0  # atno 10765 bound_to 10752
  141.1042  133.6615  156.4372 H   0  0  0  0  0  0  0  0  0  0  0  0  # atno 11005 bound_to 11000
  144.6809  140.2544  143.7327 LP  0  0  0  0  0  0  0  0  0  0  0  0  # atno 17320 bound_to 7965
  145.8079  139.1991  143.2010 LP  0  0  0  0  0  0  0  0  0  0  0  0  # atno 17321 bound_to 7965
  139.4806  144.5010  151.9060 LP  0  0  0  0  0  0  0  0  0  0  0  0  # atno 17342 bound_to 10162
  140.4096  144.2386  150.5889 LP  0  0  0  0  0  0  0  0  0  0  0  0  # atno 17343 bound_to 10162
  156.9330  130.5356  149.5279 LP  0  0  0  0  0  0  0  0  0  0  0  0  # atno 17370 bound_to 10713
  156.0532  130.5598  150.9034 LP  0  0  0  0  0  0  0  0  0  0  0  0  # atno 17371 bound_to 10713
  140.4944  134.6545  157.5223 LP  0  0  0  0  0  0  0  0  0  0  0  0  # atno 17394 bound_to 11000
  139.9906  134.6991  155.9696 LP  0  0  0  0  0  0  0  0  0  0  0  0  # atno 17395 bound_to 11000

$$$$
