AV-unprocessed.smi:260|AV-procd|sdf|1979|dock10
  -GOLD-   2262021153D 1   1.00000     0.00000
 Structure written by MMmdl.
 53 56  0  0  0  0  0  0  0  0  1 V2000
  146.5249  133.1869  157.7842 C   0  0  0  0  0  0  0  0  0  0  0  0
  147.7231  133.1793  156.9595 N   0  0  0  0  0  0  0  0  0  0  0  0
  148.9751  133.1205  157.4409 C   0  0  0  0  0  0  0  0  0  0  0  0
  149.2073  133.0625  158.6494 O   0  0  0  0  0  0  0  0  0  0  0  0
  150.1316  133.1204  156.4057 C   0  0  1  0  0  0  0  0  0  0  0  0
  151.0453  131.8903  156.6017 C   0  0  0  0  0  0  0  0  0  0  0  0
  149.6024  133.1937  154.9553 C   0  0  0  0  0  0  0  0  0  0  0  0
  149.3854  134.6871  154.6737 C   0  0  0  0  0  0  0  0  0  0  0  0
  150.1893  135.3934  155.6600 N   0  0  0  0  0  0  0  0  0  0  0  0
  150.6657  136.6430  155.4214 C   0  0  0  0  0  0  0  0  0  0  0  0
  151.6333  136.8035  154.4795 N   0  0  0  0  0  0  0  0  0  0  0  0
  152.1274  138.0155  154.2117 C   0  0  0  0  0  0  0  0  0  0  0  0
  151.8060  139.1872  154.7615 N   0  0  0  0  0  0  0  0  0  0  0  0
  150.8452  139.0356  155.7166 C   0  0  0  0  0  0  0  0  0  0  0  0
  150.2271  137.8133  156.1095 C   0  0  0  0  0  0  0  0  0  0  0  0
  149.3056  138.0631  157.1218 N   0  0  0  0  0  0  0  0  0  0  0  0
  149.3684  139.3530  157.3073 C   0  0  0  0  0  0  0  0  0  0  0  0
  150.2672  140.0151  156.5038 N   0  0  0  0  0  0  0  0  0  0  0  0
  150.5417  141.4412  156.4931 C   0  0  0  0  0  0  0  0  0  0  0  0
  150.2516  142.1098  157.8511 C   0  0  2  0  0  0  0  0  0  0  0  0
  149.1561  142.9948  157.7110 O   0  0  0  0  0  0  0  0  0  0  0  0
  151.4634  142.8994  158.3798 C   0  0  1  0  0  0  0  0  0  0  0  0
  151.7177  144.2264  157.6671 C   0  0  0  0  0  0  0  0  0  0  0  0
  152.5734  144.9704  158.6721 C   0  0  0  0  0  0  0  0  0  0  0  0
  152.1062  144.4119  160.0188 C   0  0  0  0  0  0  0  0  0  0  0  0
  151.2418  143.3197  159.7189 O   0  0  0  0  0  0  0  0  0  0  0  0
  150.9179  134.4415  156.4886 C   0  0  0  0  0  0  0  0  0  0  0  0
  145.6392  133.2537  157.1524 H   0  0  0  0  0  0  0  0  0  0  0  0
  146.5255  134.0410  158.4625 H   0  0  0  0  0  0  0  0  0  0  0  0
  146.4547  132.2726  158.3748 H   0  0  0  0  0  0  0  0  0  0  0  0
  147.5959  133.2217  155.9588 H   0  0  0  0  0  0  0  0  0  0  0  0
  151.8135  131.8397  155.8294 H   0  0  0  0  0  0  0  0  0  0  0  0
  150.4758  130.9611  156.5543 H   0  0  0  0  0  0  0  0  0  0  0  0
  151.5653  131.9174  157.5600 H   0  0  0  0  0  0  0  0  0  0  0  0
  150.3564  132.8145  154.2642 H   0  0  0  0  0  0  0  0  0  0  0  0
  148.7002  132.6048  154.7837 H   0  0  0  0  0  0  0  0  0  0  0  0
  149.6750  134.9367  153.6523 H   0  0  0  0  0  0  0  0  0  0  0  0
  148.3380  134.9584  154.8103 H   0  0  0  0  0  0  0  0  0  0  0  0
  152.8886  138.0511  153.4465 H   0  0  0  0  0  0  0  0  0  0  0  0
  148.7595  139.8588  158.0422 H   0  0  0  0  0  0  0  0  0  0  0  0
  151.5877  141.5810  156.2180 H   0  0  0  0  0  0  0  0  0  0  0  0
  149.9487  141.9049  155.7037 H   0  0  0  0  0  0  0  0  0  0  0  0
  149.9743  141.3447  158.5778 H   0  0  0  0  0  0  0  0  0  0  0  0
  149.2332  143.4385  156.8804 H   0  0  0  0  0  0  0  0  0  0  0  0
  152.3652  142.2842  158.3515 H   0  0  0  0  0  0  0  0  0  0  0  0
  152.2077  144.1052  156.7005 H   0  0  0  0  0  0  0  0  0  0  0  0
  150.7790  144.7597  157.5097 H   0  0  0  0  0  0  0  0  0  0  0  0
  153.6262  144.7319  158.5156 H   0  0  0  0  0  0  0  0  0  0  0  0
  152.4582  146.0523  158.5996 H   0  0  0  0  0  0  0  0  0  0  0  0
  152.9529  144.0693  160.6148 H   0  0  0  0  0  0  0  0  0  0  0  0
  151.5622  145.1569  160.6001 H   0  0  0  0  0  0  0  0  0  0  0  0
  151.0026  134.8048  157.5140 H   0  0  0  0  0  0  0  0  0  0  0  0
  151.9278  134.3162  156.0954 H   0  0  0  0  0  0  0  0  0  0  0  0
  1  2  1  0  0  0  0
  1 28  1  0  0  0  0
  1 29  1  0  0  0  0
  1 30  1  0  0  0  0
  2  3  1  0  0  0  0
  2 31  1  0  0  0  0
  3  4  2  0  0  0  0
  3  5  1  0  0  0  0
  5 27  1  0  0  0  0
  5  6  1  0  0  0  0
  5  7  1  0  0  0  0
  6 32  1  0  0  0  0
  6 33  1  0  0  0  0
  6 34  1  0  0  0  0
  7  8  1  0  0  0  0
  7 35  1  0  0  0  0
  7 36  1  0  0  0  0
  8  9  1  0  0  0  0
  8 37  1  0  0  0  0
  8 38  1  0  0  0  0
  9 10  1  0  0  0  0
  9 27  1  0  0  0  0
 10 15  1  0  0  0  0
 10 11  2  0  0  0  0
 11 12  1  0  0  0  0
 12 13  2  0  0  0  0
 12 39  1  0  0  0  0
 13 14  1  0  0  0  0
 14 18  1  0  0  0  0
 14 15  2  0  0  0  0
 15 16  1  0  0  0  0
 16 17  2  0  0  0  0
 17 18  1  0  0  0  0
 17 40  1  0  0  0  0
 18 19  1  0  0  0  0
 19 20  1  0  0  0  0
 19 41  1  0  0  0  0
 19 42  1  0  0  0  0
 20 21  1  0  0  0  0
 20 22  1  0  0  0  0
 20 43  1  0  0  0  0
 21 44  1  0  0  0  0
 22 26  1  0  0  0  0
 22 23  1  0  0  0  0
 22 45  1  0  0  0  0
 23 24  1  0  0  0  0
 23 46  1  0  0  0  0
 23 47  1  0  0  0  0
 24 25  1  0  0  0  0
 24 48  1  0  0  0  0
 24 49  1  0  0  0  0
 25 26  1  0  0  0  0
 25 50  1  0  0  0  0
 25 51  1  0  0  0  0
 27 52  1  0  0  0  0
 27 53  1  0  0  0  0
M  END
> <s_m_source_file>
AV-unprocessed.smi

> <i_m_source_file_index>
260

> <i_lp_mmshare_version>
43012

> <i_f3d_flags>
0

> <s_epik_input>
W0NIM11bTkhdQyg9TylbQ0BAXTEoW0NIM10pW0NIMl1bQ0gyXU4oW0NIMl0xKWMobltjSF1uMiljKGMyMyluW2NIXW4zW0NIMl1bQ0BIXShbT0hdKVtDQEBIXTRbQ0gyXVtDSDJdW0NIMl1PNA==

> <s_epik_cmdline>
J2VwaWtfcHl0aG9uJywgJy1waCcsICc3LjAnLCAnLXRuJywgJzgnLCAnLW1hJywgJzIwMCcsICctbWV0YWxfYmluZGluZycsICctaW1hZScsICc8aW5maWxlLm1hZT4nLCAnLW9tYWUnLCAnPG91dGZpbGUubWFlPic=

> <r_lp_tautomer_probability>
1

> <r_epik_Ionization_Penalty>
0.00115068

> <r_epik_Ionization_Penalty_Charging>
0

> <r_epik_Ionization_Penalty_Neutral>
0.00115068

> <r_epik_State_Penalty>
0.000668876

> <r_epik_Charging_Adjusted_Penalty>
0.000668876

> <i_epik_Tot_Q>
0

> <i_epik_Tot_abs_Q>
0

> <r_epik_Metal_State_Penalty>
-0

> <b_epik_Metal_Only>
0

> <s_lp_Force_Field>
OPLS_2005

> <r_lp_Energy>
50.4513

> <b_lp_Chiralities_Consistent>
1

> <s_lp_Variant>
AV-unprocessed.smi:260-5

> <Gold.Version>
5.8.1

> <Gold.Id.Protein>
6NUR|6NUR_protein|mol2

> <Gold.PLP.Fitness>
50.3568

> <Gold.PLP.PLP>
-43.4648

> <Gold.PLP.part.hbond>
-4.4603

> <Gold.PLP.part.metal>
0.0000

> <Gold.PLP.part.buried>
-5.7888

> <Gold.PLP.part.nonpolar>
-33.7957

> <Gold.PLP.part.repulsive>
0.4764

> <Gold.PLP.ligand.clash>
0.0918

> <Gold.PLP.ligand.torsion>
2.7034

> <Gold.PLP.Chemscore.Hbond>
4.0000

> <Gold.PLP.Chemscore.CHOScore>
0.0000

> <Gold.PLP.Chemscore.Metal>
0.0000

> <Gold.Chemscore.Hbonds>
donor molecule, donor type, donor heavy atom, donor atom, acceptor molecule, acceptor atom, score
      L1  H    21    44       P1  8028  1.00
      P1  H  6896  6909       L1     4  0.90
      P1  H  7989  7998       L1    13  0.83
      P1  H 10752 10765       L1    11  1.00

> <Gold.PLP.Chemscore.Internal.Correction>
0.3905

> <Gold.Rescore>
     Score         DG    S(hbond)    S(metal)    S(lipo)     H(rot)  DE(clash)    DE(int)     intcor
     18.70     -21.72       3.51        0.00      93.76       2.53       0.30       2.72       ----

> <Gold.Chemscore.Fitness>
18.6986

> <Gold.Chemscore.DG>
-21.7182

> <Gold.Chemscore.ZeroCoef>
-5.4800

> <Gold.Chemscore.Hbond>
3.5135

> <Gold.Chemscore.Metal>
0.0000

> <Gold.Chemscore.Lipo>
93.7568

> <Gold.Chemscore.Internal_Hbond>
0.0000

> <Gold.Chemscore.DEClash>
0.3008

> <Gold.Chemscore.DEInternal>
2.7188

> <Gold.Chemscore.Rot>
2.5259

> <Gold.Chemscore.Internal.Correction>
   9.000000E+99

> <Gold.Chemscore.Hbonds>
donor molecule, donor type, donor heavy atom, donor atom, acceptor molecule, acceptor atom, score
      L1  H    21    44       P1  8028  0.89
      P1  H  6896  6909       L1     4  0.84
      P1  H  7989  7998       L1    13  0.72
      P1  H 10752 10765       L1    11  0.66

> <Gold.Chemscore.Hbond.Weighted>
-11.7350

> <Gold.Chemscore.Metal.Weighted>
-0.0000

> <Gold.Chemscore.Lipo.Weighted>
-10.9695

> <Gold.Chemscore.Internal_Hbond.Weighted>
0.0000

> <Gold.Chemscore.DEClash.Weighted>
0.3008

> <Gold.Chemscore.DEInternal.Weighted>
2.7188

> <Gold.Chemscore.Rot.Weighted>
6.4663

> <Gold.Chemscore.Internal.Correction.Weighted>
   9.000000E+99

> <Gold.Protein.RotatedTorsions>
[ 6907 6896 6895 6894 ] final  -17.80 input  -60.11 | X-H torsion
[ 7974 7965 7964 7962 ] final  137.37 input  175.53 | X-H torsion
[ 8008 7997 7996 7995 ] final   91.64 input   59.86 | X-H torsion
[ 10167 10162 10161 10158 ] final   62.90 input  -65.29 | X-H torsion
[ 10718 10713 10712 10709 ] final  151.42 input   66.30 | X-H torsion
[ 10763 10752 10751 10750 ] final  173.00 input  -60.55 | X-H torsion
[ 11005 11000 10999 10996 ] final   85.15 input  -57.11 | X-H torsion

> <Gold.Protein.ActiveResidues>
 VAL166  LYS551  ARG553  GLY616  TRP617  ASP618  TYR619  PRO620  LYS621  CYS622 
 ASP623  PHE694  ASN695  SER759  ASP760  ASP761  ALA762  ILE779  LEU786  VAL792 
 PHE793  MET794  SER795  GLU796  ALA797  LYS798  CYS799  TRP800  GLU811  SER814 

> <Gold.Protein.RotatedAtoms>
  151.2878  135.0733  159.9192 H   0  0  0  0  0  0  0  0  0  0  0  0  # atno 6907 bound_to 6896
  152.5322  133.9963  159.7884 H   0  0  0  0  0  0  0  0  0  0  0  0  # atno 6908 bound_to 6896
  151.0228  133.5810  159.2700 H   0  0  0  0  0  0  0  0  0  0  0  0  # atno 6909 bound_to 6896
  144.9474  139.4858  143.5542 H   0  0  0  0  0  0  0  0  0  0  0  0  # atno 7974 bound_to 7965
  156.0262  140.3335  155.7090 H   0  0  0  0  0  0  0  0  0  0  0  0  # atno 8008 bound_to 7997
  155.5952  140.0650  157.2766 H   0  0  0  0  0  0  0  0  0  0  0  0  # atno 8009 bound_to 7997
  154.4335  140.1820  156.1103 H   0  0  0  0  0  0  0  0  0  0  0  0  # atno 8010 bound_to 7997
  140.1389  144.4573  150.6822 H   0  0  0  0  0  0  0  0  0  0  0  0  # atno 10167 bound_to 10162
  157.2709  131.0817  151.1600 H   0  0  0  0  0  0  0  0  0  0  0  0  # atno 10718 bound_to 10713
  154.4340  135.2760  155.1893 H   0  0  0  0  0  0  0  0  0  0  0  0  # atno 10763 bound_to 10752
  154.3787  135.6092  153.5783 H   0  0  0  0  0  0  0  0  0  0  0  0  # atno 10764 bound_to 10752
  152.9837  135.5875  154.4656 H   0  0  0  0  0  0  0  0  0  0  0  0  # atno 10765 bound_to 10752
  139.8979  134.8267  156.2543 H   0  0  0  0  0  0  0  0  0  0  0  0  # atno 11005 bound_to 11000
  146.3308  139.8536  142.8869 LP  0  0  0  0  0  0  0  0  0  0  0  0  # atno 17320 bound_to 7965
  145.2896  141.0163  143.3670 LP  0  0  0  0  0  0  0  0  0  0  0  0  # atno 17321 bound_to 7965
  140.6773  143.2310  151.5476 LP  0  0  0  0  0  0  0  0  0  0  0  0  # atno 17342 bound_to 10162
  139.5482  144.2465  152.1482 LP  0  0  0  0  0  0  0  0  0  0  0  0  # atno 17343 bound_to 10162
  157.3072  130.6872  149.6196 LP  0  0  0  0  0  0  0  0  0  0  0  0  # atno 17370 bound_to 10713
  155.9663  130.4374  150.5175 LP  0  0  0  0  0  0  0  0  0  0  0  0  # atno 17371 bound_to 10713
  141.0203  133.7045  156.1258 LP  0  0  0  0  0  0  0  0  0  0  0  0  # atno 17394 bound_to 11000
  140.7242  134.4325  157.5572 LP  0  0  0  0  0  0  0  0  0  0  0  0  # atno 17395 bound_to 11000

$$$$
