AV-unprocessed.smi:2172|AV-procd|sdf|8836|dock9
  -GOLD-   2272012 33D 1   1.00000     0.00000
 Structure written by MMmdl.
 37 39  0  0  0  0  0  0  0  0  2 V2000
  147.0638  138.1729  151.1572 O   0  0  0  0  0  0  0  0  0  0  0  0
  146.7400  138.9557  152.2850 C   0  0  0  0  0  0  0  0  0  0  0  0
  147.9103  139.1530  153.1914 C   0  0  0  0  0  0  0  0  0  0  0  0
  149.0618  138.4249  153.1686 N   0  3  0  0  0  0  0  0  0  0  0  0
  149.9219  138.8677  154.1735 C   0  0  0  0  0  0  0  0  0  0  0  0
  151.1911  138.4315  154.5412 C   0  0  0  0  0  0  0  0  0  0  0  0
  151.7986  139.0951  155.6269 C   0  0  0  0  0  0  0  0  0  0  0  0
  151.1474  140.1489  156.2996 C   0  0  0  0  0  0  0  0  0  0  0  0
  149.8629  140.5852  155.9145 C   0  0  0  0  0  0  0  0  0  0  0  0
  149.2659  139.9224  154.8413 C   0  0  0  0  0  0  0  0  0  0  0  0
  148.0266  140.0629  154.2022 N   0  0  0  0  0  0  0  0  0  0  0  0
  147.0715  141.0792  154.6763 C   0  0  0  0  0  0  0  0  0  0  0  0
  147.1127  142.3676  153.8300 C   0  0  2  0  0  0  0  0  0  0  0  0
  148.3641  142.9899  154.0345 O   0  0  0  0  0  0  0  0  0  0  0  0
  145.9463  143.2976  154.1333 C   0  0  0  0  0  0  0  0  0  0  0  0
  145.2127  143.1362  155.3284 C   0  0  0  0  0  0  0  0  0  0  0  0
  144.1543  144.0127  155.6363 C   0  0  0  0  0  0  0  0  0  0  0  0
  143.8214  145.0546  154.7493 C   0  0  0  0  0  0  0  0  0  0  0  0
  142.5281  146.1316  155.1286 Cl  0  0  0  0  0  0  0  0  0  0  0  0
  144.5474  145.2188  153.5537 C   0  0  0  0  0  0  0  0  0  0  0  0
  145.6068  144.3434  153.2464 C   0  0  0  0  0  0  0  0  0  0  0  0
  147.9019  137.7619  151.3064 H   0  0  0  0  0  0  0  0  0  0  0  0
  146.3758  139.9269  151.9493 H   0  0  0  0  0  0  0  0  0  0  0  0
  145.9242  138.4805  152.8293 H   0  0  0  0  0  0  0  0  0  0  0  0
  151.6909  137.6228  154.0284 H   0  0  0  0  0  0  0  0  0  0  0  0
  152.7827  138.7889  155.9512 H   0  0  0  0  0  0  0  0  0  0  0  0
  151.6423  140.6330  157.1291 H   0  0  0  0  0  0  0  0  0  0  0  0
  149.3761  141.3906  156.4435 H   0  0  0  0  0  0  0  0  0  0  0  0
  146.0674  140.6566  154.7101 H   0  0  0  0  0  0  0  0  0  0  0  0
  147.3334  141.3039  155.7106 H   0  0  0  0  0  0  0  0  0  0  0  0
  147.0754  142.0999  152.7736 H   0  0  0  0  0  0  0  0  0  0  0  0
  148.5200  143.0513  154.9647 H   0  0  0  0  0  0  0  0  0  0  0  0
  145.4676  142.3455  156.0191 H   0  0  0  0  0  0  0  0  0  0  0  0
  143.6005  143.8853  156.5548 H   0  0  0  0  0  0  0  0  0  0  0  0
  144.2954  146.0182  152.8726 H   0  0  0  0  0  0  0  0  0  0  0  0
  146.1645  144.4847  152.3321 H   0  0  0  0  0  0  0  0  0  0  0  0
  149.2394  137.6723  152.5161 H   0  0  0  0  0  0  0  0  0  0  0  0
  1  2  1  0  0  0  0
  1 22  1  0  0  0  0
  2  3  1  0  0  0  0
  2 23  1  0  0  0  0
  2 24  1  0  0  0  0
  3 11  1  0  0  0  0
  3  4  2  0  0  0  0
  4  5  1  0  0  0  0
  4 37  1  0  0  0  0
  5 10  2  0  0  0  0
  5  6  1  0  0  0  0
  6  7  2  0  0  0  0
  6 25  1  0  0  0  0
  7  8  1  0  0  0  0
  7 26  1  0  0  0  0
  8  9  2  0  0  0  0
  8 27  1  0  0  0  0
  9 10  1  0  0  0  0
  9 28  1  0  0  0  0
 10 11  1  0  0  0  0
 11 12  1  0  0  0  0
 12 13  1  0  0  0  0
 12 29  1  0  0  0  0
 12 30  1  0  0  0  0
 13 14  1  0  0  0  0
 13 15  1  0  0  0  0
 13 31  1  0  0  0  0
 14 32  1  0  0  0  0
 15 21  1  0  0  0  0
 15 16  2  0  0  0  0
 16 17  1  0  0  0  0
 16 33  1  0  0  0  0
 17 18  2  0  0  0  0
 17 34  1  0  0  0  0
 18 19  1  0  0  0  0
 18 20  1  0  0  0  0
 20 21  2  0  0  0  0
 20 35  1  0  0  0  0
 21 36  1  0  0  0  0
M  CHG  1   4   1
M  END
> <s_m_source_file>
AV-unprocessed.smi

> <i_m_source_file_index>
2172

> <i_lp_mmshare_version>
43012

> <i_f3d_flags>
0

> <s_epik_input>
W2NIXTFbY0hdW2NIXVtjSF1jKGMxMiluKGMobjIpW0NIMl1bT0hdKVtDSDJdW0NASF0oW09IXSljM1tjSF1bY0hdYyhDbClbY0hdW2NIXTM=

> <s_epik_cmdline>
J2VwaWtfcHl0aG9uJywgJy1waCcsICc3LjAnLCAnLXRuJywgJzgnLCAnLW1hJywgJzIwMCcsICctbWV0YWxfYmluZGluZycsICctaW1hZScsICc8aW5maWxlLm1hZT4nLCAnLW9tYWUnLCAnPG91dGZpbGUubWFlPic=

> <r_epik_Ionization_Penalty>
1.35643

> <r_epik_Ionization_Penalty_Charging>
1.35557

> <r_epik_Ionization_Penalty_Neutral>
0.000858184

> <r_epik_State_Penalty>
1.43401

> <r_epik_Charging_Adjusted_Penalty>
2.78958

> <i_epik_Tot_Q>
1

> <i_epik_Tot_abs_Q>
1

> <r_epik_Metal_State_Penalty>
5.47166

> <b_epik_Metal_Only>
0

> <s_lp_Force_Field>
OPLS_2005

> <r_lp_Energy>
15.2583

> <b_lp_Chiralities_Consistent>
1

> <s_lp_Variant>
AV-unprocessed.smi:2172-3

> <Gold.Version>
5.8.1

> <Gold.Id.Protein>
6NUR|6NUR_protein|mol2

> <Gold.PLP.Fitness>
58.3055

> <Gold.PLP.PLP>
-47.3484

> <Gold.PLP.part.hbond>
-7.1041

> <Gold.PLP.part.metal>
0.0000

> <Gold.PLP.part.buried>
-4.1689

> <Gold.PLP.part.nonpolar>
-37.3695

> <Gold.PLP.part.repulsive>
0.0782

> <Gold.PLP.ligand.clash>
0.0000

> <Gold.PLP.ligand.torsion>
0.9619

> <Gold.PLP.Chemscore.Hbond>
4.2880

> <Gold.PLP.Chemscore.CHOScore>
0.0000

> <Gold.PLP.Chemscore.Metal>
0.0000

> <Gold.Chemscore.Hbonds>
donor molecule, donor type, donor heavy atom, donor atom, acceptor molecule, acceptor atom, score
      L1  H     1    22       P1  7948  1.00
      L1  H     4    37       P1  7948  2.00
      L1  H    14    32       P1  8028  0.32
      P1  H  8022  8030       L1    14  0.95

> <Gold.PLP.Chemscore.Internal.Correction>
0.0170

> <Gold.Rescore>
     Score         DG    S(hbond)    S(metal)    S(lipo)     H(rot)  DE(clash)    DE(int)     intcor
     16.99     -18.35       2.45        0.00      99.07       2.70       0.47       0.90       ----

> <Gold.Chemscore.Fitness>
16.9875

> <Gold.Chemscore.DG>
-18.3512

> <Gold.Chemscore.ZeroCoef>
-5.4800

> <Gold.Chemscore.Hbond>
2.4497

> <Gold.Chemscore.Metal>
0.0000

> <Gold.Chemscore.Lipo>
99.0721

> <Gold.Chemscore.Internal_Hbond>
0.0000

> <Gold.Chemscore.DEClash>
0.4670

> <Gold.Chemscore.DEInternal>
0.8967

> <Gold.Chemscore.Rot>
2.6963

> <Gold.Chemscore.Internal.Correction>
   9.000000E+99

> <Gold.Chemscore.Hbonds>
donor molecule, donor type, donor heavy atom, donor atom, acceptor molecule, acceptor atom, score
      L1  H     1    22       P1  7948  0.95
      L1  H     4    37       P1  7948  0.88
      L1  H    14    32       P1  8028  0.32
      P1  H  8011  8017       L1    14  0.01
      P1  H  8022  8030       L1    14  0.20

> <Gold.Chemscore.Hbond.Weighted>
-8.1821

> <Gold.Chemscore.Metal.Weighted>
-0.0000

> <Gold.Chemscore.Lipo.Weighted>
-11.5914

> <Gold.Chemscore.Internal_Hbond.Weighted>
0.0000

> <Gold.Chemscore.DEClash.Weighted>
0.4670

> <Gold.Chemscore.DEInternal.Weighted>
0.8967

> <Gold.Chemscore.Rot.Weighted>
6.9024

> <Gold.Chemscore.Internal.Correction.Weighted>
   9.000000E+99

> <Gold.Protein.RotatedTorsions>
[ 6907 6896 6895 6894 ] final  171.19 input  -60.11 | X-H torsion
[ 7974 7965 7964 7962 ] final -143.78 input  175.53 | X-H torsion
[ 8008 7997 7996 7995 ] final   -2.50 input   59.86 | X-H torsion
[ 10167 10162 10161 10158 ] final   52.51 input  -65.29 | X-H torsion
[ 10718 10713 10712 10709 ] final  107.58 input   66.30 | X-H torsion
[ 10763 10752 10751 10750 ] final  169.78 input  -60.55 | X-H torsion
[ 11005 11000 10999 10996 ] final -163.46 input  -57.11 | X-H torsion

> <Gold.Protein.ActiveResidues>
 VAL166  LYS551  ARG553  GLY616  TRP617  ASP618  TYR619  PRO620  LYS621  CYS622 
 ASP623  PHE694  ASN695  SER759  ASP760  ASP761  ALA762  ILE779  LEU786  VAL792 
 PHE793  MET794  SER795  GLU796  ALA797  LYS798  CYS799  TRP800  GLU811  SER814 

> <Gold.Protein.RotatedAtoms>
  151.8041  133.3373  159.3535 H   0  0  0  0  0  0  0  0  0  0  0  0  # atno 6907 bound_to 6896
  150.7348  134.5726  159.5907 H   0  0  0  0  0  0  0  0  0  0  0  0  # atno 6908 bound_to 6896
  152.3122  134.7485  160.0385 H   0  0  0  0  0  0  0  0  0  0  0  0  # atno 6909 bound_to 6896
  144.8345  140.5792  143.5493 H   0  0  0  0  0  0  0  0  0  0  0  0  # atno 7974 bound_to 7965
  154.6350  140.2533  155.7389 H   0  0  0  0  0  0  0  0  0  0  0  0  # atno 8008 bound_to 7997
  156.2499  140.2899  156.0639 H   0  0  0  0  0  0  0  0  0  0  0  0  # atno 8009 bound_to 7997
  155.1685  140.0386  157.2848 H   0  0  0  0  0  0  0  0  0  0  0  0  # atno 8010 bound_to 7997
  140.2506  144.3483  150.6349 H   0  0  0  0  0  0  0  0  0  0  0  0  # atno 10167 bound_to 10162
  157.6622  131.0876  150.6177 H   0  0  0  0  0  0  0  0  0  0  0  0  # atno 10718 bound_to 10713
  154.3880  135.2754  155.2171 H   0  0  0  0  0  0  0  0  0  0  0  0  # atno 10763 bound_to 10752
  154.4250  135.5991  153.6036 H   0  0  0  0  0  0  0  0  0  0  0  0  # atno 10764 bound_to 10752
  152.9832  135.5981  154.4132 H   0  0  0  0  0  0  0  0  0  0  0  0  # atno 10765 bound_to 10752
  140.5978  134.4978  157.5201 H   0  0  0  0  0  0  0  0  0  0  0  0  # atno 11005 bound_to 11000
  145.4825  139.1494  143.3754 LP  0  0  0  0  0  0  0  0  0  0  0  0  # atno 17320 bound_to 7965
  146.2645  140.4961  142.8840 LP  0  0  0  0  0  0  0  0  0  0  0  0  # atno 17321 bound_to 7965
  140.6043  143.2167  151.7010 LP  0  0  0  0  0  0  0  0  0  0  0  0  # atno 17342 bound_to 10162
  139.5047  144.3743  152.0440 LP  0  0  0  0  0  0  0  0  0  0  0  0  # atno 17343 bound_to 10162
  156.6480  130.4477  149.5729 LP  0  0  0  0  0  0  0  0  0  0  0  0  # atno 17370 bound_to 10713
  156.2159  130.6707  151.1318 LP  0  0  0  0  0  0  0  0  0  0  0  0  # atno 17371 bound_to 10713
  139.9246  134.8082  156.1108 LP  0  0  0  0  0  0  0  0  0  0  0  0  # atno 17394 bound_to 11000
  141.0892  133.6721  156.2504 LP  0  0  0  0  0  0  0  0  0  0  0  0  # atno 17395 bound_to 11000

$$$$
