AV-unprocessed.smi:72|AV-procd|sdf|678|dock8
  -GOLD-   2262016583D 1   1.00000     0.00000
 Structure written by MMmdl.
 29 30  0  0  0  0  0  0  0  0  1 V2000
  152.3771  140.2324  158.6868 N   0  0  0  0  0  0  0  0  0  0  0  0
  151.5229  140.5970  157.7983 C   0  0  0  0  0  0  0  0  0  0  0  0
  150.5027  141.5405  157.9939 N   0  0  0  0  0  0  0  0  0  0  0  0
  149.7000  141.8020  157.0087 C   0  0  0  0  0  0  0  0  0  0  0  0
  149.8217  141.1484  155.7154 N   0  0  0  0  0  0  0  0  0  0  0  0
  148.8700  141.4755  154.5880 C   0  0  1  0  0  0  0  0  0  0  0  0
  148.7120  140.3403  153.7893 O   0  0  0  0  0  0  0  0  0  0  0  0
  147.3365  140.1679  153.4663 C   0  0  1  0  0  0  0  0  0  0  0  0
  147.0583  138.6885  153.1588 C   0  0  0  0  0  0  0  0  0  0  0  0
  147.3572  138.4088  151.8079 O   0  0  0  0  0  0  0  0  0  0  0  0
  146.6385  140.6728  154.7306 C   0  0  2  0  0  0  0  0  0  0  0  0
  145.2754  140.9925  154.5236 O   0  0  0  0  0  0  0  0  0  0  0  0
  147.4898  141.8737  155.1347 C   0  0  2  0  0  0  0  0  0  0  0  0
  147.0439  143.0810  154.5448 O   0  0  0  0  0  0  0  0  0  0  0  0
  150.8644  140.2172  155.4905 C   0  0  0  0  0  0  0  0  0  0  0  0
  151.0403  139.6663  154.4041 O   0  0  0  0  0  0  0  0  0  0  0  0
  151.6668  139.9753  156.5500 N   0  0  0  0  0  0  0  0  0  0  0  0
  149.3430  142.2531  153.9861 H   0  0  0  0  0  0  0  0  0  0  0  0
  147.0780  140.8088  152.6206 H   0  0  0  0  0  0  0  0  0  0  0  0
  146.7050  139.9127  155.5105 H   0  0  0  0  0  0  0  0  0  0  0  0
  147.5146  142.0055  156.2174 H   0  0  0  0  0  0  0  0  0  0  0  0
  152.2148  140.7180  159.5567 H   0  0  0  0  0  0  0  0  0  0  0  0
  148.8884  142.5269  157.0844 H   0  0  0  0  0  0  0  0  0  0  0  0
  147.6275  138.0324  153.8181 H   0  0  0  0  0  0  0  0  0  0  0  0
  146.0022  138.4652  153.3122 H   0  0  0  0  0  0  0  0  0  0  0  0
  148.1943  138.7942  151.5992 H   0  0  0  0  0  0  0  0  0  0  0  0
  145.0472  140.7720  153.6336 H   0  0  0  0  0  0  0  0  0  0  0  0
  147.7373  143.7200  154.6086 H   0  0  0  0  0  0  0  0  0  0  0  0
  152.4156  139.3104  156.4234 H   0  0  0  0  0  0  0  0  0  0  0  0
  1  2  2  0  0  0  0
  1 22  1  0  0  0  0
  2 17  1  0  0  0  0
  2  3  1  0  0  0  0
  3  4  2  0  0  0  0
  4  5  1  0  0  0  0
  4 23  1  0  0  0  0
  5  6  1  0  0  0  0
  5 15  1  0  0  0  0
  6 18  1  0  0  0  0
  6 13  1  0  0  0  0
  6  7  1  0  0  0  0
  7  8  1  0  0  0  0
  8 19  1  0  0  0  0
  8  9  1  0  0  0  0
  8 11  1  0  0  0  0
  9 10  1  0  0  0  0
  9 24  1  0  0  0  0
  9 25  1  0  0  0  0
 10 26  1  0  0  0  0
 11 20  1  0  0  0  0
 11 12  1  0  0  0  0
 11 13  1  0  0  0  0
 12 27  1  0  0  0  0
 13 21  1  0  0  0  0
 13 14  1  0  0  0  0
 14 28  1  0  0  0  0
 15 16  2  0  0  0  0
 15 17  1  0  0  0  0
 17 29  1  0  0  0  0
M  END
> <s_m_source_file>
AV-unprocessed.smi

> <i_m_source_file_index>
72

> <i_lp_mmshare_version>
43012

> <i_f3d_flags>
0

> <s_epik_input>
W05IMl1jMW5bY0hdbihjKD1PKW4xKVtDQEBIXTJPW0NASF0oW0NIMl1bT0hdKVtDQEBIXShbT0hdKVtDQEhdMltPSF0=

> <s_epik_cmdline>
J2VwaWtfcHl0aG9uJywgJy1waCcsICc3LjAnLCAnLXRuJywgJzgnLCAnLW1hJywgJzIwMCcsICctbWV0YWxfYmluZGluZycsICctaW1hZScsICc8aW5maWxlLm1hZT4nLCAnLW9tYWUnLCAnPG91dGZpbGUubWFlPic=

> <r_lp_tautomer_probability>
7.17554e-07

> <r_epik_Ionization_Penalty>
0.0066451

> <r_epik_Ionization_Penalty_Charging>
0.00663793

> <r_epik_Ionization_Penalty_Neutral>
7.17052e-06

> <r_epik_State_Penalty>
0.419231

> <r_epik_Charging_Adjusted_Penalty>
0.425868

> <i_epik_Tot_Q>
0

> <i_epik_Tot_abs_Q>
0

> <r_epik_Metal_State_Penalty>
1.44144

> <b_epik_Metal_Only>
0

> <s_epik_Chemistry_Notes>
This compound contains an acetal/aminal-like group ( X-CH(R)-Y where X, Y are N, S, or O) that may be acid/base labile, releasing an aldehyde.

> <s_lp_Force_Field>
OPLS_2005

> <r_lp_Energy>
43.4665

> <b_lp_Chiralities_Consistent>
1

> <s_lp_Variant>
AV-unprocessed.smi:72-16

> <Gold.Version>
5.8.1

> <Gold.Id.Protein>
6NUR|6NUR_protein|mol2

> <Gold.PLP.Fitness>
36.6901

> <Gold.PLP.PLP>
-24.5943

> <Gold.PLP.part.hbond>
-6.3850

> <Gold.PLP.part.metal>
0.0000

> <Gold.PLP.part.buried>
-2.0576

> <Gold.PLP.part.nonpolar>
-18.2672

> <Gold.PLP.part.repulsive>
2.5366

> <Gold.PLP.ligand.clash>
0.0000

> <Gold.PLP.ligand.torsion>
0.9663

> <Gold.PLP.Chemscore.Hbond>
3.8240

> <Gold.PLP.Chemscore.CHOScore>
0.8475

> <Gold.PLP.Chemscore.Metal>
0.0000

> <Gold.Chemscore.Hbonds>
donor molecule, donor type, donor heavy atom, donor atom, acceptor molecule, acceptor atom, score
      L1  H    10    26       P1  7957  1.00
      L1  H    12    27       P1 10175  0.90
      L1  H    14    28       P1  8028  1.00
      P1  H  7989  7998       L1    16  1.00
      L1  C     4    23       P1  8028  0.68

> <Gold.PLP.Chemscore.Internal.Correction>
0.0140

> <Gold.Rescore>
     Score         DG    S(hbond)    S(metal)    S(lipo)     H(rot)  DE(clash)    DE(int)     intcor
      4.10      -6.96       2.87        0.00      19.38       4.06       0.11       2.75       ----

> <Gold.Chemscore.Fitness>
4.0968

> <Gold.Chemscore.DG>
-6.9554

> <Gold.Chemscore.ZeroCoef>
-5.4800

> <Gold.Chemscore.Hbond>
2.8748

> <Gold.Chemscore.Metal>
0.0000

> <Gold.Chemscore.Lipo>
19.3770

> <Gold.Chemscore.Internal_Hbond>
0.0000

> <Gold.Chemscore.DEClash>
0.1058

> <Gold.Chemscore.DEInternal>
2.7528

> <Gold.Chemscore.Rot>
4.0600

> <Gold.Chemscore.Internal.Correction>
   9.000000E+99

> <Gold.Chemscore.Hbonds>
donor molecule, donor type, donor heavy atom, donor atom, acceptor molecule, acceptor atom, score
      L1  H    10    26       P1  7957  0.65
      L1  H    12    27       P1 10175  0.82
      L1  H    14    28       P1  8028  0.28
      P1  H  7989  7998       L1    16  0.39

> <Gold.Chemscore.Hbond.Weighted>
-9.6019

> <Gold.Chemscore.Metal.Weighted>
-0.0000

> <Gold.Chemscore.Lipo.Weighted>
-2.2671

> <Gold.Chemscore.Internal_Hbond.Weighted>
0.0000

> <Gold.Chemscore.DEClash.Weighted>
0.1058

> <Gold.Chemscore.DEInternal.Weighted>
2.7528

> <Gold.Chemscore.Rot.Weighted>
10.3936

> <Gold.Chemscore.Internal.Correction.Weighted>
   9.000000E+99

> <Gold.Protein.RotatedTorsions>
[ 6907 6896 6895 6894 ] final  -28.71 input  -60.11 | X-H torsion
[ 7974 7965 7964 7962 ] final   -6.27 input  175.53 | X-H torsion
[ 8008 7997 7996 7995 ] final   62.24 input   59.86 | X-H torsion
[ 10167 10162 10161 10158 ] final   37.63 input  -65.29 | X-H torsion
[ 10718 10713 10712 10709 ] final -159.37 input   66.30 | X-H torsion
[ 10763 10752 10751 10750 ] final   49.56 input  -60.55 | X-H torsion
[ 11005 11000 10999 10996 ] final  -16.99 input  -57.11 | X-H torsion

> <Gold.Protein.ActiveResidues>
 VAL166  LYS551  ARG553  GLY616  TRP617  ASP618  TYR619  PRO620  LYS621  CYS622 
 ASP623  PHE694  ASN695  SER759  ASP760  ASP761  ALA762  ILE779  LEU786  VAL792 
 PHE793  MET794  SER795  GLU796  ALA797  LYS798  CYS799  TRP800  GLU811  SER814 

> <Gold.Protein.RotatedAtoms>
  151.1292  135.0121  159.8574 H   0  0  0  0  0  0  0  0  0  0  0  0  # atno 6907 bound_to 6896
  152.5450  134.1630  159.8576 H   0  0  0  0  0  0  0  0  0  0  0  0  # atno 6908 bound_to 6896
  151.1695  133.4748  159.2627 H   0  0  0  0  0  0  0  0  0  0  0  0  # atno 6909 bound_to 6896
  146.2335  140.2145  142.8336 H   0  0  0  0  0  0  0  0  0  0  0  0  # atno 7974 bound_to 7965
  155.6112  140.3495  155.4623 H   0  0  0  0  0  0  0  0  0  0  0  0  # atno 8008 bound_to 7997
  156.0153  140.1242  157.0437 H   0  0  0  0  0  0  0  0  0  0  0  0  # atno 8009 bound_to 7997
  154.4295  140.1073  156.5873 H   0  0  0  0  0  0  0  0  0  0  0  0  # atno 8010 bound_to 7997
  140.4014  144.1718  150.6134 H   0  0  0  0  0  0  0  0  0  0  0  0  # atno 10167 bound_to 10162
  156.5672  130.8672  151.2827 H   0  0  0  0  0  0  0  0  0  0  0  0  # atno 10718 bound_to 10713
  152.9786  135.5907  154.4109 H   0  0  0  0  0  0  0  0  0  0  0  0  # atno 10763 bound_to 10752
  154.3745  135.2767  155.2249 H   0  0  0  0  0  0  0  0  0  0  0  0  # atno 10764 bound_to 10752
  154.4190  135.6063  153.6053 H   0  0  0  0  0  0  0  0  0  0  0  0  # atno 10765 bound_to 10752
  140.8123  133.8131  155.9576 H   0  0  0  0  0  0  0  0  0  0  0  0  # atno 11005 bound_to 11000
  144.9680  140.8341  143.5472 LP  0  0  0  0  0  0  0  0  0  0  0  0  # atno 17320 bound_to 7965
  145.2123  139.2198  143.5136 LP  0  0  0  0  0  0  0  0  0  0  0  0  # atno 17321 bound_to 7965
  140.4736  143.2404  151.9055 LP  0  0  0  0  0  0  0  0  0  0  0  0  # atno 17342 bound_to 10162
  139.4784  144.5344  151.8620 LP  0  0  0  0  0  0  0  0  0  0  0  0  # atno 17343 bound_to 10162
  157.7356  130.9765  150.2091 LP  0  0  0  0  0  0  0  0  0  0  0  0  # atno 17370 bound_to 10713
  156.2747  130.3726  149.7996 LP  0  0  0  0  0  0  0  0  0  0  0  0  # atno 17371 bound_to 10713
  140.9185  134.2172  157.4941 LP  0  0  0  0  0  0  0  0  0  0  0  0  # atno 17394 bound_to 11000
  139.8713  134.9782  156.4987 LP  0  0  0  0  0  0  0  0  0  0  0  0  # atno 17395 bound_to 11000

$$$$
