AV-unprocessed.smi:2671|AV-procd|sdf|10346|dock5
  -GOLD-   2272014373D 1   1.00000     0.00000
 Structure written by MMmdl.
 28 29  0  0  0  0  0  0  0  0  2 V2000
  146.9262  136.5264  162.8801 O   0  0  0  0  0  0  0  0  0  0  0  0
  147.3210  136.2390  161.7522 C   0  0  0  0  0  0  0  0  0  0  0  0
  147.2782  134.8468  161.3075 C   0  0  0  0  0  0  0  0  0  0  0  0
  147.7134  134.5401  160.0599 C   0  0  0  0  0  0  0  0  0  0  0  0
  147.7044  133.1097  159.5477 C   0  0  0  0  0  0  0  0  0  0  0  0
  148.3497  132.3085  160.3958 F   0  0  0  0  0  0  0  0  0  0  0  0
  146.4511  132.6702  159.4350 F   0  0  0  0  0  0  0  0  0  0  0  0
  148.2897  133.0110  158.3527 F   0  0  0  0  0  0  0  0  0  0  0  0
  148.2076  135.5479  159.2105 N   0  0  0  0  0  0  0  0  0  0  0  0
  148.2352  136.7606  159.6221 C   0  0  0  0  0  0  0  0  0  0  0  0
  148.8616  138.0559  158.5378 S   0  0  0  0  0  0  0  0  0  0  0  0
  149.2486  137.1816  156.9915 C   0  0  0  0  0  0  0  0  0  0  0  0
  150.0320  138.0708  156.0163 C   0  0  2  0  0  0  0  0  0  0  0  0
  150.5939  137.3382  154.7960 C   0  0  0  0  0  0  0  0  0  0  0  0
  151.8346  138.1388  154.4274 C   0  0  0  0  0  0  0  0  0  0  0  0
  152.0287  139.0967  155.6052 C   0  0  0  0  0  0  0  0  0  0  0  0
  151.2038  138.5756  156.6364 O   0  0  0  0  0  0  0  0  0  0  0  0
  147.8078  137.1596  160.8707 N   0  5  0  0  0  0  0  0  0  0  0  0
  146.9046  134.0763  161.9656 H   0  0  0  0  0  0  0  0  0  0  0  0
  148.3237  136.8369  156.5277 H   0  0  0  0  0  0  0  0  0  0  0  0
  149.8366  136.2956  157.2322 H   0  0  0  0  0  0  0  0  0  0  0  0
  149.4177  138.9153  155.6977 H   0  0  0  0  0  0  0  0  0  0  0  0
  150.8839  136.3212  155.0631 H   0  0  0  0  0  0  0  0  0  0  0  0
  149.8732  137.2761  153.9805 H   0  0  0  0  0  0  0  0  0  0  0  0
  152.6938  137.4779  154.3089 H   0  0  0  0  0  0  0  0  0  0  0  0
  151.7024  138.6888  153.4950 H   0  0  0  0  0  0  0  0  0  0  0  0
  153.0688  139.1659  155.9245 H   0  0  0  0  0  0  0  0  0  0  0  0
  151.6849  140.0991  155.3455 H   0  0  0  0  0  0  0  0  0  0  0  0
  1  2  2  0  0  0  0
  2 18  1  0  0  0  0
  2  3  1  0  0  0  0
  3 19  1  0  0  0  0
  3  4  2  0  0  0  0
  4  5  1  0  0  0  0
  4  9  1  0  0  0  0
  5  6  1  0  0  0  0
  5  7  1  0  0  0  0
  5  8  1  0  0  0  0
  9 10  2  0  0  0  0
 10 11  1  0  0  0  0
 10 18  1  0  0  0  0
 11 12  1  0  0  0  0
 12 13  1  0  0  0  0
 12 20  1  0  0  0  0
 12 21  1  0  0  0  0
 13 17  1  0  0  0  0
 13 14  1  0  0  0  0
 13 22  1  0  0  0  0
 14 15  1  0  0  0  0
 14 23  1  0  0  0  0
 14 24  1  0  0  0  0
 15 16  1  0  0  0  0
 15 25  1  0  0  0  0
 15 26  1  0  0  0  0
 16 17  1  0  0  0  0
 16 27  1  0  0  0  0
 16 28  1  0  0  0  0
M  CHG  1  18  -1
M  END
> <s_m_source_file>
AV-unprocessed.smi

> <i_m_source_file_index>
2671

> <i_lp_mmshare_version>
43012

> <i_f3d_flags>
0

> <s_epik_input>
W09IXWMxW2NIXWMoQyhGKShGKUYpbmMobjEpU1tDSDJdW0NAQEhdMltDSDJdW0NIMl1bQ0gyXU8y

> <s_epik_cmdline>
J2VwaWtfcHl0aG9uJywgJy1waCcsICc3LjAnLCAnLXRuJywgJzgnLCAnLW1hJywgJzIwMCcsICctbWV0YWxfYmluZGluZycsICctaW1hZScsICc8aW5maWxlLm1hZT4nLCAnLW9tYWUnLCAnPG91dGZpbGUubWFlPic=

> <r_lp_tautomer_probability>
1

> <r_epik_Ionization_Penalty>
0.972901

> <r_epik_Ionization_Penalty_Charging>
0.00136034

> <r_epik_Ionization_Penalty_Neutral>
0.971541

> <r_epik_State_Penalty>
0.242243

> <r_epik_Charging_Adjusted_Penalty>
0.243604

> <i_epik_Tot_Q>
-1

> <i_epik_Tot_abs_Q>
1

> <r_epik_Metal_State_Penalty>
0.0617458

> <b_epik_Metal_Only>
0

> <s_lp_Force_Field>
OPLS_2005

> <r_lp_Energy>
24.2298

> <b_lp_Chiralities_Consistent>
1

> <s_lp_Variant>
AV-unprocessed.smi:2671-1

> <Gold.Version>
5.8.1

> <Gold.Id.Protein>
6NUR|6NUR_protein|mol2

> <Gold.PLP.Fitness>
33.0563

> <Gold.PLP.PLP>
-22.9753

> <Gold.PLP.part.hbond>
-2.0000

> <Gold.PLP.part.metal>
0.0000

> <Gold.PLP.part.buried>
-4.0105

> <Gold.PLP.part.nonpolar>
-18.0148

> <Gold.PLP.part.repulsive>
0.0000

> <Gold.PLP.ligand.clash>
0.0000

> <Gold.PLP.ligand.torsion>
0.1537

> <Gold.PLP.Chemscore.Hbond>
3.4560

> <Gold.PLP.Chemscore.CHOScore>
0.0000

> <Gold.PLP.Chemscore.Metal>
0.0000

> <Gold.Chemscore.Hbonds>
donor molecule, donor type, donor heavy atom, donor atom, acceptor molecule, acceptor atom, score
      P1  H  6931  6943       L1    18  1.76
      P1  H  6934  6947       L1    18  1.70

> <Gold.PLP.Chemscore.Internal.Correction>
0.0205

> <Gold.Rescore>
     Score         DG    S(hbond)    S(metal)    S(lipo)     H(rot)  DE(clash)    DE(int)     intcor
     10.74     -10.79       1.34        0.00      43.65       1.66       0.01       0.05       ----

> <Gold.Chemscore.Fitness>
10.7362

> <Gold.Chemscore.DG>
-10.7898

> <Gold.Chemscore.ZeroCoef>
-5.4800

> <Gold.Chemscore.Hbond>
1.3367

> <Gold.Chemscore.Metal>
0.0000

> <Gold.Chemscore.Lipo>
43.6523

> <Gold.Chemscore.Internal_Hbond>
0.0000

> <Gold.Chemscore.DEClash>
0.0053

> <Gold.Chemscore.DEInternal>
0.0483

> <Gold.Chemscore.Rot>
1.6649

> <Gold.Chemscore.Internal.Correction>
   9.000000E+99

> <Gold.Chemscore.Hbonds>
donor molecule, donor type, donor heavy atom, donor atom, acceptor molecule, acceptor atom, score
      P1  H  6931  6943       L1    18  0.44
      P1  H  6934  6947       L1    18  0.70

> <Gold.Chemscore.Hbond.Weighted>
-4.4645

> <Gold.Chemscore.Metal.Weighted>
-0.0000

> <Gold.Chemscore.Lipo.Weighted>
-5.1073

> <Gold.Chemscore.Internal_Hbond.Weighted>
0.0000

> <Gold.Chemscore.DEClash.Weighted>
0.0053

> <Gold.Chemscore.DEInternal.Weighted>
0.0483

> <Gold.Chemscore.Rot.Weighted>
4.2620

> <Gold.Chemscore.Internal.Correction.Weighted>
   9.000000E+99

> <Gold.Protein.RotatedTorsions>
[ 6907 6896 6895 6894 ] final   71.52 input  -60.11 | X-H torsion
[ 7974 7965 7964 7962 ] final  154.13 input  175.53 | X-H torsion
[ 8008 7997 7996 7995 ] final -122.46 input   59.86 | X-H torsion
[ 10167 10162 10161 10158 ] final  129.14 input  -65.29 | X-H torsion
[ 10718 10713 10712 10709 ] final  -35.99 input   66.30 | X-H torsion
[ 10763 10752 10751 10750 ] final  -55.44 input  -60.55 | X-H torsion
[ 11005 11000 10999 10996 ] final  143.34 input  -57.11 | X-H torsion

> <Gold.Protein.ActiveResidues>
 VAL166  LYS551  ARG553  GLY616  TRP617  ASP618  TYR619  PRO620  LYS621  CYS622 
 ASP623  PHE694  ASN695  SER759  ASP760  ASP761  ALA762  ILE779  LEU786  VAL792 
 PHE793  MET794  SER795  GLU796  ALA797  LYS798  CYS799  TRP800  GLU811  SER814 

> <Gold.Protein.RotatedAtoms>
  152.4815  134.4707  159.9634 H   0  0  0  0  0  0  0  0  0  0  0  0  # atno 6907 bound_to 6896
  151.4712  133.3562  159.2831 H   0  0  0  0  0  0  0  0  0  0  0  0  # atno 6908 bound_to 6896
  150.8891  134.8318  159.7341 H   0  0  0  0  0  0  0  0  0  0  0  0  # atno 6909 bound_to 6896
  144.8108  139.6893  143.6142 H   0  0  0  0  0  0  0  0  0  0  0  0  # atno 7974 bound_to 7965
  155.1647  140.0406  157.2850 H   0  0  0  0  0  0  0  0  0  0  0  0  # atno 8008 bound_to 7997
  154.6312  140.2524  155.7405 H   0  0  0  0  0  0  0  0  0  0  0  0  # atno 8009 bound_to 7997
  156.2485  140.2875  156.0664 H   0  0  0  0  0  0  0  0  0  0  0  0  # atno 8010 bound_to 7997
  139.5492  144.6799  151.4377 H   0  0  0  0  0  0  0  0  0  0  0  0  # atno 10167 bound_to 10162
  156.3321  130.4281  149.7863 H   0  0  0  0  0  0  0  0  0  0  0  0  # atno 10718 bound_to 10713
  154.1908  135.6427  153.5059 H   0  0  0  0  0  0  0  0  0  0  0  0  # atno 10763 bound_to 10752
  153.0035  135.5428  154.6417 H   0  0  0  0  0  0  0  0  0  0  0  0  # atno 10764 bound_to 10752
  154.5805  135.2925  155.0710 H   0  0  0  0  0  0  0  0  0  0  0  0  # atno 10765 bound_to 10752
  140.0546  134.9237  157.1077 H   0  0  0  0  0  0  0  0  0  0  0  0  # atno 11005 bound_to 11000
  146.2407  139.5995  142.9493 LP  0  0  0  0  0  0  0  0  0  0  0  0  # atno 17320 bound_to 7965
  145.5328  141.0426  143.2374 LP  0  0  0  0  0  0  0  0  0  0  0  0  # atno 17321 bound_to 7965
  140.6750  143.8210  150.7046 LP  0  0  0  0  0  0  0  0  0  0  0  0  # atno 17342 bound_to 10162
  140.1646  143.4246  152.2043 LP  0  0  0  0  0  0  0  0  0  0  0  0  # atno 17343 bound_to 10162
  156.5132  130.8181  151.3176 LP  0  0  0  0  0  0  0  0  0  0  0  0  # atno 17370 bound_to 10713
  157.7432  130.9907  150.2575 LP  0  0  0  0  0  0  0  0  0  0  0  0  # atno 17371 bound_to 10713
  140.3864  134.2232  155.7168 LP  0  0  0  0  0  0  0  0  0  0  0  0  # atno 17394 bound_to 11000
  141.1946  133.8124  157.0750 LP  0  0  0  0  0  0  0  0  0  0  0  0  # atno 17395 bound_to 11000

$$$$
