AV-unprocessed.smi:2771|AV-procd|sdf|10663|dock7
  -GOLD-   2272015113D 1   1.00000     0.00000
 Structure written by MMmdl.
 43 44  0  0  0  0  0  0  0  0  1 V2000
  150.5758  141.8086  157.1239 C   0  0  0  0  0  0  0  0  0  0  0  0
  150.9382  140.5906  156.3004 C   0  0  0  0  0  0  0  0  0  0  0  0
  152.2332  140.0386  156.3521 C   0  0  0  0  0  0  0  0  0  0  0  0
  152.5033  138.9075  155.5615 C   0  0  0  0  0  0  0  0  0  0  0  0
  151.4749  138.3777  154.7584 C   0  0  0  0  0  0  0  0  0  0  0  0
  150.2016  138.9906  154.7663 C   0  0  0  0  0  0  0  0  0  0  0  0
  149.2326  138.3760  153.9294 N   0  0  0  0  0  0  0  0  0  0  0  0
  147.9518  138.7374  153.7356 C   0  0  0  0  0  0  0  0  0  0  0  0
  147.4028  139.7185  154.2377 O   0  0  0  0  0  0  0  0  0  0  0  0
  147.3279  137.8827  152.9138 N   0  0  0  0  0  0  0  0  0  0  0  0
  145.9224  137.9721  152.5330 C   0  0  0  0  0  0  0  0  0  0  0  0
  145.1050  136.8442  153.1973 C   0  0  1  0  0  0  0  0  0  0  0  0
  143.7771  136.9852  152.7259 O   0  0  0  0  0  0  0  0  0  0  0  0
  145.5885  135.4083  152.8546 C   0  0  0  0  0  0  0  0  0  0  0  0
  145.4780  135.1220  151.3354 C   0  0  0  0  0  0  0  0  0  0  0  0
  145.9534  133.7071  150.9706 C   0  0  0  0  0  0  0  0  0  0  0  0
  145.1764  132.6431  151.7549 C   0  0  0  0  0  0  0  0  0  0  0  0
  145.2865  132.8961  153.2640 C   0  0  0  0  0  0  0  0  0  0  0  0
  144.8177  134.3137  153.6329 C   0  0  0  0  0  0  0  0  0  0  0  0
  149.9515  140.0825  155.5311 N   0  0  0  0  0  0  0  0  0  0  0  0
  151.4241  142.1522  157.7166 H   0  0  0  0  0  0  0  0  0  0  0  0
  149.7569  141.5757  157.8052 H   0  0  0  0  0  0  0  0  0  0  0  0
  150.2607  142.6256  156.4744 H   0  0  0  0  0  0  0  0  0  0  0  0
  153.0006  140.4677  156.9795 H   0  0  0  0  0  0  0  0  0  0  0  0
  153.4823  138.4517  155.5705 H   0  0  0  0  0  0  0  0  0  0  0  0
  151.6663  137.5082  154.1465 H   0  0  0  0  0  0  0  0  0  0  0  0
  149.5442  137.5506  153.4398 H   0  0  0  0  0  0  0  0  0  0  0  0
  147.8544  137.1077  152.5379 H   0  0  0  0  0  0  0  0  0  0  0  0
  145.5051  138.9476  152.7902 H   0  0  0  0  0  0  0  0  0  0  0  0
  145.8946  137.8916  151.4475 H   0  0  0  0  0  0  0  0  0  0  0  0
  145.1076  136.9764  154.2804 H   0  0  0  0  0  0  0  0  0  0  0  0
  143.7916  137.5134  151.9427 H   0  0  0  0  0  0  0  0  0  0  0  0
  146.6409  135.3333  153.1344 H   0  0  0  0  0  0  0  0  0  0  0  0
  144.4440  135.2504  151.0125 H   0  0  0  0  0  0  0  0  0  0  0  0
  146.0671  135.8393  150.7639 H   0  0  0  0  0  0  0  0  0  0  0  0
  145.8342  133.5401  149.8997 H   0  0  0  0  0  0  0  0  0  0  0  0
  147.0197  133.6134  151.1811 H   0  0  0  0  0  0  0  0  0  0  0  0
  144.1280  132.6575  151.4545 H   0  0  0  0  0  0  0  0  0  0  0  0
  145.5557  131.6498  151.5132 H   0  0  0  0  0  0  0  0  0  0  0  0
  144.6971  132.1569  153.8071 H   0  0  0  0  0  0  0  0  0  0  0  0
  146.3209  132.7596  153.5823 H   0  0  0  0  0  0  0  0  0  0  0  0
  144.9478  134.4367  154.7068 H   0  0  0  0  0  0  0  0  0  0  0  0
  143.7486  134.4064  153.4373 H   0  0  0  0  0  0  0  0  0  0  0  0
  1  2  1  0  0  0  0
  1 21  1  0  0  0  0
  1 22  1  0  0  0  0
  1 23  1  0  0  0  0
  2 20  1  0  0  0  0
  2  3  2  0  0  0  0
  3  4  1  0  0  0  0
  3 24  1  0  0  0  0
  4  5  2  0  0  0  0
  4 25  1  0  0  0  0
  5  6  1  0  0  0  0
  5 26  1  0  0  0  0
  6  7  1  0  0  0  0
  6 20  2  0  0  0  0
  7  8  1  0  0  0  0
  7 27  1  0  0  0  0
  8  9  2  0  0  0  0
  8 10  1  0  0  0  0
 10 11  1  0  0  0  0
 10 28  1  0  0  0  0
 11 12  1  0  0  0  0
 11 29  1  0  0  0  0
 11 30  1  0  0  0  0
 12 13  1  0  0  0  0
 12 14  1  0  0  0  0
 12 31  1  0  0  0  0
 13 32  1  0  0  0  0
 14 19  1  0  0  0  0
 14 15  1  0  0  0  0
 14 33  1  0  0  0  0
 15 16  1  0  0  0  0
 15 34  1  0  0  0  0
 15 35  1  0  0  0  0
 16 17  1  0  0  0  0
 16 36  1  0  0  0  0
 16 37  1  0  0  0  0
 17 18  1  0  0  0  0
 17 38  1  0  0  0  0
 17 39  1  0  0  0  0
 18 19  1  0  0  0  0
 18 40  1  0  0  0  0
 18 41  1  0  0  0  0
 19 42  1  0  0  0  0
 19 43  1  0  0  0  0
M  END
> <s_m_source_file>
AV-unprocessed.smi

> <i_m_source_file_index>
2771

> <i_lp_mmshare_version>
43012

> <i_f3d_flags>
0

> <s_epik_input>
W0NIM11jMVtjSF1bY0hdW2NIXWMobjEpW05IXUMoPU8pW05IXVtDSDJdW0NASF0oW09IXSlbQ0hdMltDSDJdW0NIMl1bQ0gyXVtDSDJdW0NIMl0y

> <s_epik_cmdline>
J2VwaWtfcHl0aG9uJywgJy1waCcsICc3LjAnLCAnLXRuJywgJzgnLCAnLW1hJywgJzIwMCcsICctbWV0YWxfYmluZGluZycsICctaW1hZScsICc8aW5maWxlLm1hZT4nLCAnLW9tYWUnLCAnPG91dGZpbGUubWFlPic=

> <r_lp_tautomer_probability>
1

> <r_epik_Ionization_Penalty>
8.92802e-05

> <r_epik_Ionization_Penalty_Charging>
0

> <r_epik_Ionization_Penalty_Neutral>
8.92802e-05

> <r_epik_State_Penalty>
-0

> <r_epik_Charging_Adjusted_Penalty>
0

> <i_epik_Tot_Q>
0

> <i_epik_Tot_abs_Q>
0

> <r_epik_Metal_State_Penalty>
-0

> <b_epik_Metal_Only>
0

> <s_lp_Force_Field>
OPLS_2005

> <r_lp_Energy>
17.4783

> <b_lp_Chiralities_Consistent>
1

> <s_lp_Variant>
AV-unprocessed.smi:2771-2

> <Gold.Version>
5.8.1

> <Gold.Id.Protein>
6NUR|6NUR_protein|mol2

> <Gold.PLP.Fitness>
43.7464

> <Gold.PLP.PLP>
-35.1084

> <Gold.PLP.part.hbond>
-5.5914

> <Gold.PLP.part.metal>
0.0000

> <Gold.PLP.part.buried>
1.7302

> <Gold.PLP.part.nonpolar>
-31.7316

> <Gold.PLP.part.repulsive>
0.3846

> <Gold.PLP.ligand.clash>
0.0000

> <Gold.PLP.ligand.torsion>
0.0806

> <Gold.PLP.Chemscore.Hbond>
2.9280

> <Gold.PLP.Chemscore.CHOScore>
0.0000

> <Gold.PLP.Chemscore.Metal>
0.0000

> <Gold.Chemscore.Hbonds>
donor molecule, donor type, donor heavy atom, donor atom, acceptor molecule, acceptor atom, score
      L1  H     7    27       P1  7948  0.68
      L1  H    10    28       P1  7948  1.00
      L1  H    13    32       P1 10171  0.13

> <Gold.PLP.Chemscore.Internal.Correction>
0.0153

> <Gold.Rescore>
     Score         DG    S(hbond)    S(metal)    S(lipo)     H(rot)  DE(clash)    DE(int)     intcor
     16.76     -18.97       2.76        0.00      79.37       1.95       0.73       1.48       ----

> <Gold.Chemscore.Fitness>
16.7612

> <Gold.Chemscore.DG>
-18.9700

> <Gold.Chemscore.ZeroCoef>
-5.4800

> <Gold.Chemscore.Hbond>
2.7561

> <Gold.Chemscore.Metal>
0.0000

> <Gold.Chemscore.Lipo>
79.3669

> <Gold.Chemscore.Internal_Hbond>
0.0000

> <Gold.Chemscore.DEClash>
0.7274

> <Gold.Chemscore.DEInternal>
1.4814

> <Gold.Chemscore.Rot>
1.9536

> <Gold.Chemscore.Internal.Correction>
   9.000000E+99

> <Gold.Chemscore.Hbonds>
donor molecule, donor type, donor heavy atom, donor atom, acceptor molecule, acceptor atom, score
      L1  H     7    27       P1  7948  0.59
      L1  H    10    28       P1  7948  0.95
      L1  H    13    32       P1 10171  0.16

> <Gold.Chemscore.Hbond.Weighted>
-9.2054

> <Gold.Chemscore.Metal.Weighted>
-0.0000

> <Gold.Chemscore.Lipo.Weighted>
-9.2859

> <Gold.Chemscore.Internal_Hbond.Weighted>
0.0000

> <Gold.Chemscore.DEClash.Weighted>
0.7274

> <Gold.Chemscore.DEInternal.Weighted>
1.4814

> <Gold.Chemscore.Rot.Weighted>
5.0013

> <Gold.Chemscore.Internal.Correction.Weighted>
   9.000000E+99

> <Gold.Protein.RotatedTorsions>
[ 6907 6896 6895 6894 ] final -140.82 input  -60.11 | X-H torsion
[ 7974 7965 7964 7962 ] final  133.59 input  175.53 | X-H torsion
[ 8008 7997 7996 7995 ] final  -27.77 input   59.86 | X-H torsion
[ 10167 10162 10161 10158 ] final    5.95 input  -65.29 | X-H torsion
[ 10718 10713 10712 10709 ] final   58.93 input   66.30 | X-H torsion
[ 10763 10752 10751 10750 ] final  -29.01 input  -60.55 | X-H torsion
[ 11005 11000 10999 10996 ] final   89.44 input  -57.11 | X-H torsion

> <Gold.Protein.ActiveResidues>
 VAL166  LYS551  ARG553  GLY616  TRP617  ASP618  TYR619  PRO620  LYS621  CYS622 
 ASP623  PHE694  ASN695  SER759  ASP760  ASP761  ALA762  ILE779  LEU786  VAL792 
 PHE793  MET794  SER795  GLU796  ALA797  LYS798  CYS799  TRP800  GLU811  SER814 

> <Gold.Protein.RotatedAtoms>
  151.0657  133.5507  159.2630 H   0  0  0  0  0  0  0  0  0  0  0  0  # atno 6907 bound_to 6896
  151.2465  135.0607  159.9055 H   0  0  0  0  0  0  0  0  0  0  0  0  # atno 6908 bound_to 6896
  152.5404  134.0424  159.8127 H   0  0  0  0  0  0  0  0  0  0  0  0  # atno 6909 bound_to 6896
  144.9849  139.4465  143.5368 H   0  0  0  0  0  0  0  0  0  0  0  0  # atno 7974 bound_to 7965
  154.4362  140.1863  156.0984 H   0  0  0  0  0  0  0  0  0  0  0  0  # atno 8008 bound_to 7997
  156.0311  140.3330  155.7115 H   0  0  0  0  0  0  0  0  0  0  0  0  # atno 8009 bound_to 7997
  155.5838  140.0624  157.2767 H   0  0  0  0  0  0  0  0  0  0  0  0  # atno 8010 bound_to 7997
  140.6454  143.7674  150.7491 H   0  0  0  0  0  0  0  0  0  0  0  0  # atno 10167 bound_to 10162
  157.5636  130.8854  149.9150 H   0  0  0  0  0  0  0  0  0  0  0  0  # atno 10718 bound_to 10713
  153.7576  135.6921  153.4932 H   0  0  0  0  0  0  0  0  0  0  0  0  # atno 10763 bound_to 10752
  153.1960  135.4453  155.0207 H   0  0  0  0  0  0  0  0  0  0  0  0  # atno 10764 bound_to 10752
  154.8165  135.3401  154.7093 H   0  0  0  0  0  0  0  0  0  0  0  0  # atno 10765 bound_to 10752
  139.8875  134.8551  156.3142 H   0  0  0  0  0  0  0  0  0  0  0  0  # atno 11005 bound_to 11000
  146.3417  139.9145  142.8775 LP  0  0  0  0  0  0  0  0  0  0  0  0  # atno 17320 bound_to 7965
  145.2367  140.9994  143.3959 LP  0  0  0  0  0  0  0  0  0  0  0  0  # atno 17321 bound_to 7965
  140.1314  143.4522  152.2252 LP  0  0  0  0  0  0  0  0  0  0  0  0  # atno 17342 bound_to 10162
  139.5665  144.7438  151.4009 LP  0  0  0  0  0  0  0  0  0  0  0  0  # atno 17343 bound_to 10162
  156.0686  130.3688  150.0825 LP  0  0  0  0  0  0  0  0  0  0  0  0  # atno 17370 bound_to 10713
  156.8986  130.9612  151.3579 LP  0  0  0  0  0  0  0  0  0  0  0  0  # atno 17371 bound_to 10713
  140.9830  133.7255  156.0700 LP  0  0  0  0  0  0  0  0  0  0  0  0  # atno 17394 bound_to 11000
  140.7725  134.3817  157.5505 LP  0  0  0  0  0  0  0  0  0  0  0  0  # atno 17395 bound_to 11000

$$$$
