AV-unprocessed.smi:1607|AV-procd|sdf|6465|dock8
  -GOLD-   22720 7123D 1   1.00000     0.00000
 Structure written by MMmdl.
 39 40  0  0  0  0  0  0  0  0  2 V2000
  146.3118  134.5940  153.7032 C   0  0  0  0  0  0  0  0  0  0  0  0
  145.0783  135.3675  153.2046 C   0  0  2  0  0  0  0  0  0  0  0  0
  144.5297  134.8230  151.8725 C   0  0  0  0  0  0  0  0  0  0  0  0
  145.4316  135.2189  150.6948 C   0  0  0  0  0  0  0  0  0  0  0  0
  145.6719  136.7367  150.6684 C   0  0  0  0  0  0  0  0  0  0  0  0
  146.2394  137.2104  151.9571 N   0  3  1  0  0  0  0  0  0  0  0  0
  146.6260  138.6429  151.9118 C   0  0  0  0  0  0  0  0  0  0  0  0
  147.3896  139.0811  153.1768 C   0  0  0  0  0  0  0  0  0  0  0  0
  148.7166  138.4797  153.2392 N   0  0  0  0  0  0  0  0  0  0  0  0
  149.6297  138.7371  154.1886 C   0  0  0  0  0  0  0  0  0  0  0  0
  149.4393  139.5334  155.1080 O   0  0  0  0  0  0  0  0  0  0  0  0
  150.9568  137.9816  154.0879 C   0  0  0  0  0  0  0  0  0  0  0  0
  151.7931  138.2323  155.2473 N   0  0  0  0  0  0  0  0  0  0  0  0
  152.1919  139.3746  155.8110 C   0  0  0  0  0  0  0  0  0  0  0  0
  152.9608  139.1567  156.8668 N   0  0  0  0  0  0  0  0  0  0  0  0
  153.0200  137.7747  156.9330 N   0  0  0  0  0  0  0  0  0  0  0  0
  152.3286  137.2207  155.9751 N   0  0  0  0  0  0  0  0  0  0  0  0
  145.3441  136.8836  153.1006 C   0  0  0  0  0  0  0  0  0  0  0  0
  147.1600  134.6975  153.0269 H   0  0  0  0  0  0  0  0  0  0  0  0
  146.0936  133.5303  153.8011 H   0  0  0  0  0  0  0  0  0  0  0  0
  146.6276  134.9534  154.6831 H   0  0  0  0  0  0  0  0  0  0  0  0
  144.3022  135.2231  153.9574 H   0  0  0  0  0  0  0  0  0  0  0  0
  144.4176  133.7392  151.9179 H   0  0  0  0  0  0  0  0  0  0  0  0
  143.5297  135.2258  151.7051 H   0  0  0  0  0  0  0  0  0  0  0  0
  146.3860  134.6961  150.7637 H   0  0  0  0  0  0  0  0  0  0  0  0
  144.9763  134.8988  149.7571 H   0  0  0  0  0  0  0  0  0  0  0  0
  146.3564  136.9727  149.8526 H   0  0  0  0  0  0  0  0  0  0  0  0
  144.7391  137.2646  150.4633 H   0  0  0  0  0  0  0  0  0  0  0  0
  147.2751  138.8166  151.0522 H   0  0  0  0  0  0  0  0  0  0  0  0
  145.7371  139.2554  151.7526 H   0  0  0  0  0  0  0  0  0  0  0  0
  147.4878  140.1657  153.2319 H   0  0  0  0  0  0  0  0  0  0  0  0
  146.8378  138.7763  154.0663 H   0  0  0  0  0  0  0  0  0  0  0  0
  148.9531  137.8119  152.5191 H   0  0  0  0  0  0  0  0  0  0  0  0
  150.7879  136.9067  154.0083 H   0  0  0  0  0  0  0  0  0  0  0  0
  151.4843  138.2929  153.1849 H   0  0  0  0  0  0  0  0  0  0  0  0
  151.9237  140.3563  155.4491 H   0  0  0  0  0  0  0  0  0  0  0  0
  144.3990  137.4141  152.9731 H   0  0  0  0  0  0  0  0  0  0  0  0
  145.7706  137.2384  154.0381 H   0  0  0  0  0  0  0  0  0  0  0  0
  147.0937  136.6891  152.0936 H   0  0  0  0  0  0  0  0  0  0  0  0
  1  2  1  0  0  0  0
  1 19  1  0  0  0  0
  1 20  1  0  0  0  0
  1 21  1  0  0  0  0
  2 18  1  0  0  0  0
  2  3  1  0  0  0  0
  2 22  1  0  0  0  0
  3  4  1  0  0  0  0
  3 23  1  0  0  0  0
  3 24  1  0  0  0  0
  4  5  1  0  0  0  0
  4 25  1  0  0  0  0
  4 26  1  0  0  0  0
  5  6  1  0  0  0  0
  5 27  1  0  0  0  0
  5 28  1  0  0  0  0
  6  7  1  0  0  0  0
  6 18  1  0  0  0  0
  6 39  1  0  0  0  0
  7  8  1  0  0  0  0
  7 29  1  0  0  0  0
  7 30  1  0  0  0  0
  8  9  1  0  0  0  0
  8 31  1  0  0  0  0
  8 32  1  0  0  0  0
  9 10  1  0  0  0  0
  9 33  1  0  0  0  0
 10 11  2  0  0  0  0
 10 12  1  0  0  0  0
 12 13  1  0  0  0  0
 12 34  1  0  0  0  0
 12 35  1  0  0  0  0
 13 17  1  0  0  0  0
 13 14  1  0  0  0  0
 14 15  2  0  0  0  0
 14 36  1  0  0  0  0
 15 16  1  0  0  0  0
 16 17  2  0  0  0  0
 18 37  1  0  0  0  0
 18 38  1  0  0  0  0
M  CHG  1   6   1
M  END
> <s_m_source_file>
AV-unprocessed.smi

> <i_m_source_file_index>
1607

> <i_lp_mmshare_version>
43012

> <i_f3d_flags>
0

> <s_epik_input>
W0NIM11bQ0BASF0xW0NIMl1bQ0gyXVtDSDJdTihbQ0gyXTEpW0NIMl1bQ0gyXVtOSF1DKD1PKVtDSDJdbjJbY0hdbm5uMg==

> <s_epik_cmdline>
J2VwaWtfcHl0aG9uJywgJy1waCcsICc3LjAnLCAnLXRuJywgJzgnLCAnLW1hJywgJzIwMCcsICctbWV0YWxfYmluZGluZycsICctaW1hZScsICc8aW5maWxlLm1hZT4nLCAnLW9tYWUnLCAnPG91dGZpbGUubWFlPic=

> <r_lp_tautomer_probability>
1

> <r_epik_Ionization_Penalty>
0.00268321

> <r_epik_Ionization_Penalty_Charging>
0.00267875

> <r_epik_Ionization_Penalty_Neutral>
4.46125e-06

> <r_epik_State_Penalty>
0.00186642

> <r_epik_Charging_Adjusted_Penalty>
0.00454517

> <i_epik_Tot_Q>
1

> <i_epik_Tot_abs_Q>
1

> <r_epik_Metal_State_Penalty>
-0

> <b_epik_Metal_Only>
0

> <s_lp_Force_Field>
OPLS_2005

> <r_lp_Energy>
22.0016

> <b_lp_Chiralities_Consistent>
1

> <s_lp_Variant>
AV-unprocessed.smi:1607-3

> <Gold.Version>
5.8.1

> <Gold.Id.Protein>
6NUR|6NUR_protein|mol2

> <Gold.PLP.Fitness>
44.1466

> <Gold.PLP.PLP>
-29.9145

> <Gold.PLP.part.hbond>
-5.0000

> <Gold.PLP.part.metal>
0.0000

> <Gold.PLP.part.buried>
-0.1313

> <Gold.PLP.part.nonpolar>
-26.1962

> <Gold.PLP.part.repulsive>
0.2029

> <Gold.PLP.ligand.clash>
0.0000

> <Gold.PLP.ligand.torsion>
0.1412

> <Gold.PLP.Chemscore.Hbond>
4.8320

> <Gold.PLP.Chemscore.CHOScore>
0.0000

> <Gold.PLP.Chemscore.Metal>
0.0000

> <Gold.Chemscore.Hbonds>
donor molecule, donor type, donor heavy atom, donor atom, acceptor molecule, acceptor atom, score
      L1  H     6    39       P1  7948  2.00
      L1  H     9    33       P1  7948  1.00
      P1  H  7997  8008       L1    15  1.00
      P1  H 10752 10765       L1    17  0.67

> <Gold.PLP.Chemscore.Internal.Correction>
0.0184

> <Gold.Rescore>
     Score         DG    S(hbond)    S(metal)    S(lipo)     H(rot)  DE(clash)    DE(int)     intcor
     14.05     -16.64       3.59        0.00      51.90       2.69       1.08       1.51       ----

> <Gold.Chemscore.Fitness>
14.0480

> <Gold.Chemscore.DG>
-16.6353

> <Gold.Chemscore.ZeroCoef>
-5.4800

> <Gold.Chemscore.Hbond>
3.5862

> <Gold.Chemscore.Metal>
0.0000

> <Gold.Chemscore.Lipo>
51.8963

> <Gold.Chemscore.Internal_Hbond>
0.0000

> <Gold.Chemscore.DEClash>
1.0771

> <Gold.Chemscore.DEInternal>
1.5103

> <Gold.Chemscore.Rot>
2.6932

> <Gold.Chemscore.Internal.Correction>
   9.000000E+99

> <Gold.Chemscore.Hbonds>
donor molecule, donor type, donor heavy atom, donor atom, acceptor molecule, acceptor atom, score
      L1  H     6    39       P1  7948  0.98
      L1  H     9    33       P1  7948  0.97
      P1  H  7997  8008       L1    15  0.79
      P1  H 10752 10765       L1    17  0.63

> <Gold.Chemscore.Hbond.Weighted>
-11.9780

> <Gold.Chemscore.Metal.Weighted>
-0.0000

> <Gold.Chemscore.Lipo.Weighted>
-6.0719

> <Gold.Chemscore.Internal_Hbond.Weighted>
0.0000

> <Gold.Chemscore.DEClash.Weighted>
1.0771

> <Gold.Chemscore.DEInternal.Weighted>
1.5103

> <Gold.Chemscore.Rot.Weighted>
6.8945

> <Gold.Chemscore.Internal.Correction.Weighted>
   9.000000E+99

> <Gold.Protein.RotatedTorsions>
[ 6907 6896 6895 6894 ] final   72.99 input  -60.11 | X-H torsion
[ 7974 7965 7964 7962 ] final -128.35 input  175.53 | X-H torsion
[ 8008 7997 7996 7995 ] final  -70.93 input   59.86 | X-H torsion
[ 10167 10162 10161 10158 ] final   64.30 input  -65.29 | X-H torsion
[ 10718 10713 10712 10709 ] final -160.14 input   66.30 | X-H torsion
[ 10763 10752 10751 10750 ] final -155.91 input  -60.55 | X-H torsion
[ 11005 11000 10999 10996 ] final  174.37 input  -57.11 | X-H torsion

> <Gold.Protein.ActiveResidues>
 VAL166  LYS551  ARG553  GLY616  TRP617  ASP618  TYR619  PRO620  LYS621  CYS622 
 ASP623  PHE694  ASN695  SER759  ASP760  ASP761  ALA762  ILE779  LEU786  VAL792 
 PHE793  MET794  SER795  GLU796  ALA797  LYS798  CYS799  TRP800  GLU811  SER814 

> <Gold.Protein.RotatedAtoms>
  152.4898  134.4489  159.9567 H   0  0  0  0  0  0  0  0  0  0  0  0  # atno 6907 bound_to 6896
  151.4478  133.3619  159.2799 H   0  0  0  0  0  0  0  0  0  0  0  0  # atno 6908 bound_to 6896
  150.9042  134.8480  159.7441 H   0  0  0  0  0  0  0  0  0  0  0  0  # atno 6909 bound_to 6896
  144.9679  140.7515  143.4688 H   0  0  0  0  0  0  0  0  0  0  0  0  # atno 7974 bound_to 7965
  154.5049  140.0825  156.7874 H   0  0  0  0  0  0  0  0  0  0  0  0  # atno 8008 bound_to 7997
  155.3916  140.3433  155.4233 H   0  0  0  0  0  0  0  0  0  0  0  0  # atno 8009 bound_to 7997
  156.1503  140.1556  156.8768 H   0  0  0  0  0  0  0  0  0  0  0  0  # atno 8010 bound_to 7997
  140.1237  144.4708  150.6905 H   0  0  0  0  0  0  0  0  0  0  0  0  # atno 10167 bound_to 10162
  156.5780  130.8717  151.2856 H   0  0  0  0  0  0  0  0  0  0  0  0  # atno 10718 bound_to 10713
  154.7752  135.3157  154.8107 H   0  0  0  0  0  0  0  0  0  0  0  0  # atno 10763 bound_to 10752
  153.8832  135.6833  153.4770 H   0  0  0  0  0  0  0  0  0  0  0  0  # atno 10764 bound_to 10752
  153.1374  135.4754  154.9379 H   0  0  0  0  0  0  0  0  0  0  0  0  # atno 10765 bound_to 10752
  140.3506  134.7198  157.4265 H   0  0  0  0  0  0  0  0  0  0  0  0  # atno 11005 bound_to 11000
  145.2602  139.1995  143.4896 LP  0  0  0  0  0  0  0  0  0  0  0  0  # atno 17320 bound_to 7965
  146.3373  140.2530  142.8599 LP  0  0  0  0  0  0  0  0  0  0  0  0  # atno 17321 bound_to 7965
  140.6857  143.2349  151.5266 LP  0  0  0  0  0  0  0  0  0  0  0  0  # atno 17342 bound_to 10162
  139.5555  144.2286  152.1605 LP  0  0  0  0  0  0  0  0  0  0  0  0  # atno 17343 bound_to 10162
  157.7333  130.9728  150.1971 LP  0  0  0  0  0  0  0  0  0  0  0  0  # atno 17370 bound_to 10713
  156.2656  130.3716  149.8084 LP  0  0  0  0  0  0  0  0  0  0  0  0  # atno 17371 bound_to 10713
  140.0706  134.5868  155.8646 LP  0  0  0  0  0  0  0  0  0  0  0  0  # atno 17394 bound_to 11000
  141.2013  133.6618  156.5944 LP  0  0  0  0  0  0  0  0  0  0  0  0  # atno 17395 bound_to 11000

$$$$
