AV-unprocessed.smi:275|AV-procd|sdf|2065|dock1
  -GOLD-   2262021313D 1   1.00000     0.00000
 Structure written by MMmdl.
 65 69  0  0  0  0  0  0  0  0  1 V2000
  144.2498  136.9313  161.6442 C   0  0  0  0  0  0  0  0  0  0  0  0
  144.7763  137.1701  160.2192 C   0  0  0  0  0  0  0  0  0  0  0  0
  143.5626  137.2901  159.2773 C   0  0  0  0  0  0  0  0  0  0  0  0
  145.7709  136.0826  159.7342 C   0  0  1  0  0  0  0  0  0  0  0  0
  146.3833  136.5706  158.4947 N   0  0  0  0  0  0  0  0  0  0  0  0
  146.4452  135.6509  157.3965 C   0  0  0  0  0  0  0  0  0  0  0  0
  146.7253  134.3420  157.6436 N   0  0  0  0  0  0  0  0  0  0  0  0
  146.7824  133.4409  156.6601 C   0  0  0  0  0  0  0  0  0  0  0  0
  146.6047  133.6248  155.3533 N   0  0  0  0  0  0  0  0  0  0  0  0
  146.3598  134.9358  155.0771 C   0  0  0  0  0  0  0  0  0  0  0  0
  146.2762  135.9997  156.0221 C   0  0  0  0  0  0  0  0  0  0  0  0
  146.0313  137.1931  155.3513 N   0  0  0  0  0  0  0  0  0  0  0  0
  145.9529  136.8542  154.0947 C   0  0  0  0  0  0  0  0  0  0  0  0
  146.1130  135.5122  153.8437 N   0  0  0  0  0  0  0  0  0  0  0  0
  146.0573  134.8621  152.5479 C   0  0  0  0  0  0  0  0  0  0  0  0
  144.8494  133.9019  152.3643 C   0  0  1  0  0  0  0  0  0  0  0  0
  143.5376  134.7085  152.5233 C   0  0  0  0  0  0  0  0  0  0  0  0
  142.4382  133.8547  152.7655 O   0  0  0  0  0  0  0  0  0  0  0  0
  144.8902  133.1225  151.0137 C   0  0  2  0  0  0  0  0  0  0  0  0
  144.3843  133.8931  149.8018 C   0  0  0  0  0  0  0  0  0  0  0  0
  144.0752  132.7803  148.8128 C   0  0  0  0  0  0  0  0  0  0  0  0
  143.4826  131.7762  149.6175 O   0  0  0  0  0  0  0  0  0  0  0  0
  144.0052  131.8623  150.9397 C   0  0  0  0  0  0  0  0  0  0  0  0
  147.6367  136.8757  159.1751 C   0  0  0  0  0  0  0  0  0  0  0  0
  147.2213  135.8965  160.2826 C   0  0  0  0  0  0  0  0  0  0  0  0
  147.8359  134.4827  160.1321 C   0  0  0  0  0  0  0  0  0  0  0  0
  147.3656  133.4836  161.1984 C   0  0  0  0  0  0  0  0  0  0  0  0
  147.7201  133.9864  162.5993 C   0  0  0  0  0  0  0  0  0  0  0  0
  147.1373  135.3831  162.8235 C   0  0  0  0  0  0  0  0  0  0  0  0
  147.5634  136.3653  161.7117 C   0  0  0  0  0  0  0  0  0  0  0  0
  143.9320  135.8976  161.7840 H   0  0  0  0  0  0  0  0  0  0  0  0
  143.3920  137.5693  161.8593 H   0  0  0  0  0  0  0  0  0  0  0  0
  144.9920  137.1726  162.4006 H   0  0  0  0  0  0  0  0  0  0  0  0
  145.2734  138.1416  160.2251 H   0  0  0  0  0  0  0  0  0  0  0  0
  142.9793  136.3693  159.2649 H   0  0  0  0  0  0  0  0  0  0  0  0
  143.8620  137.5097  158.2524 H   0  0  0  0  0  0  0  0  0  0  0  0
  142.8976  138.0950  159.5919 H   0  0  0  0  0  0  0  0  0  0  0  0
  145.2927  135.1093  159.6318 H   0  0  0  0  0  0  0  0  0  0  0  0
  146.9967  132.4274  156.9658 H   0  0  0  0  0  0  0  0  0  0  0  0
  145.7596  137.5746  153.3134 H   0  0  0  0  0  0  0  0  0  0  0  0
  146.0365  135.6541  151.7992 H   0  0  0  0  0  0  0  0  0  0  0  0
  146.9897  134.3201  152.3870 H   0  0  0  0  0  0  0  0  0  0  0  0
  144.8695  133.1653  153.1691 H   0  0  0  0  0  0  0  0  0  0  0  0
  143.6214  135.4311  153.3359 H   0  0  0  0  0  0  0  0  0  0  0  0
  143.2973  135.2677  151.6203 H   0  0  0  0  0  0  0  0  0  0  0  0
  142.6440  133.3004  153.5029 H   0  0  0  0  0  0  0  0  0  0  0  0
  145.9211  132.8299  150.8067 H   0  0  0  0  0  0  0  0  0  0  0  0
  143.4707  134.4375  150.0449 H   0  0  0  0  0  0  0  0  0  0  0  0
  145.1140  134.6011  149.4079 H   0  0  0  0  0  0  0  0  0  0  0  0
  143.4100  133.0981  148.0100 H   0  0  0  0  0  0  0  0  0  0  0  0
  144.9928  132.3916  148.3687 H   0  0  0  0  0  0  0  0  0  0  0  0
  144.5692  130.9584  151.1662 H   0  0  0  0  0  0  0  0  0  0  0  0
  143.1633  131.9174  151.6302 H   0  0  0  0  0  0  0  0  0  0  0  0
  148.5637  136.6122  158.6661 H   0  0  0  0  0  0  0  0  0  0  0  0
  147.6573  137.9140  159.5095 H   0  0  0  0  0  0  0  0  0  0  0  0
  147.6097  134.0570  159.1556 H   0  0  0  0  0  0  0  0  0  0  0  0
  148.9242  134.5491  160.1666 H   0  0  0  0  0  0  0  0  0  0  0  0
  146.2883  133.3357  161.1163 H   0  0  0  0  0  0  0  0  0  0  0  0
  147.8265  132.5107  161.0258 H   0  0  0  0  0  0  0  0  0  0  0  0
  147.3447  133.2957  163.3549 H   0  0  0  0  0  0  0  0  0  0  0  0
  148.8042  134.0175  162.7153 H   0  0  0  0  0  0  0  0  0  0  0  0
  146.0542  135.2935  162.8649 H   0  0  0  0  0  0  0  0  0  0  0  0
  147.4509  135.7647  163.7955 H   0  0  0  0  0  0  0  0  0  0  0  0
  148.6409  136.5166  161.7886 H   0  0  0  0  0  0  0  0  0  0  0  0
  147.1350  137.3479  161.9051 H   0  0  0  0  0  0  0  0  0  0  0  0
  1  2  1  0  0  0  0
  1 31  1  0  0  0  0
  1 32  1  0  0  0  0
  1 33  1  0  0  0  0
  2  3  1  0  0  0  0
  2  4  1  0  0  0  0
  2 34  1  0  0  0  0
  3 35  1  0  0  0  0
  3 36  1  0  0  0  0
  3 37  1  0  0  0  0
  4 25  1  0  0  0  0
  4  5  1  0  0  0  0
  4 38  1  0  0  0  0
  5  6  1  0  0  0  0
  5 24  1  0  0  0  0
  6 11  1  0  0  0  0
  6  7  2  0  0  0  0
  7  8  1  0  0  0  0
  8  9  2  0  0  0  0
  8 39  1  0  0  0  0
  9 10  1  0  0  0  0
 10 14  1  0  0  0  0
 10 11  2  0  0  0  0
 11 12  1  0  0  0  0
 12 13  2  0  0  0  0
 13 14  1  0  0  0  0
 13 40  1  0  0  0  0
 14 15  1  0  0  0  0
 15 16  1  0  0  0  0
 15 41  1  0  0  0  0
 15 42  1  0  0  0  0
 16 17  1  0  0  0  0
 16 19  1  0  0  0  0
 16 43  1  0  0  0  0
 17 18  1  0  0  0  0
 17 44  1  0  0  0  0
 17 45  1  0  0  0  0
 18 46  1  0  0  0  0
 19 23  1  0  0  0  0
 19 20  1  0  0  0  0
 19 47  1  0  0  0  0
 20 21  1  0  0  0  0
 20 48  1  0  0  0  0
 20 49  1  0  0  0  0
 21 22  1  0  0  0  0
 21 50  1  0  0  0  0
 21 51  1  0  0  0  0
 22 23  1  0  0  0  0
 23 52  1  0  0  0  0
 23 53  1  0  0  0  0
 24 25  1  0  0  0  0
 24 54  1  0  0  0  0
 24 55  1  0  0  0  0
 25 30  1  0  0  0  0
 25 26  1  0  0  0  0
 26 27  1  0  0  0  0
 26 56  1  0  0  0  0
 26 57  1  0  0  0  0
 27 28  1  0  0  0  0
 27 58  1  0  0  0  0
 27 59  1  0  0  0  0
 28 29  1  0  0  0  0
 28 60  1  0  0  0  0
 28 61  1  0  0  0  0
 29 30  1  0  0  0  0
 29 62  1  0  0  0  0
 29 63  1  0  0  0  0
 30 64  1  0  0  0  0
 30 65  1  0  0  0  0
M  END
> <s_m_source_file>
AV-unprocessed.smi

> <i_m_source_file_index>
275

> <i_lp_mmshare_version>
43012

> <i_f3d_flags>
0

> <s_epik_input>
W0NIMl0xW0NIMl1bQ0gyXVtDSDJdW0NIMl1DMTJbQ0BIXShbQ0hdKFtDSDNdKVtDSDNdKU4oW0NIMl0yKWMobltjSF1uMyljKGMzNCluW2NIXW40W0NIMl1bQ0BIXShbQ0gyXVtPSF0pW0NAQEhdNVtDSDJdW0NIMl1PW0NIMl01

> <s_epik_cmdline>
J2VwaWtfcHl0aG9uJywgJy1waCcsICc3LjAnLCAnLXRuJywgJzgnLCAnLW1hJywgJzIwMCcsICctbWV0YWxfYmluZGluZycsICctaW1hZScsICc8aW5maWxlLm1hZT4nLCAnLW9tYWUnLCAnPG91dGZpbGUubWFlPic=

> <r_lp_tautomer_probability>
1

> <r_epik_Ionization_Penalty>
0.00375122

> <r_epik_Ionization_Penalty_Charging>
0

> <r_epik_Ionization_Penalty_Neutral>
0.00375122

> <r_epik_State_Penalty>
0.00260593

> <r_epik_Charging_Adjusted_Penalty>
0.00260593

> <i_epik_Tot_Q>
0

> <i_epik_Tot_abs_Q>
0

> <r_epik_Metal_State_Penalty>
-0

> <b_epik_Metal_Only>
0

> <s_lp_Force_Field>
OPLS_2005

> <r_lp_Energy>
67.0366

> <b_lp_Chiralities_Consistent>
1

> <s_lp_Variant>
AV-unprocessed.smi:275-4

> <Gold.Version>
5.8.1

> <Gold.Id.Protein>
6NUR|6NUR_protein|mol2

> <Gold.PLP.Fitness>
39.9441

> <Gold.PLP.PLP>
-36.1300

> <Gold.PLP.part.hbond>
-2.0000

> <Gold.PLP.part.metal>
0.0000

> <Gold.PLP.part.buried>
-3.8387

> <Gold.PLP.part.nonpolar>
-30.1799

> <Gold.PLP.part.repulsive>
0.8660

> <Gold.PLP.ligand.clash>
0.7691

> <Gold.PLP.ligand.torsion>
1.0113

> <Gold.PLP.Chemscore.Hbond>
2.0000

> <Gold.PLP.Chemscore.CHOScore>
0.0000

> <Gold.PLP.Chemscore.Metal>
0.0000

> <Gold.Chemscore.Hbonds>
donor molecule, donor type, donor heavy atom, donor atom, acceptor molecule, acceptor atom, score
      L1  H    18    46       P1 10957  1.00
      P1  H 10785 10796       L1    22  1.00

> <Gold.PLP.Chemscore.Internal.Correction>
0.6058

> <Gold.Rescore>
     Score         DG    S(hbond)    S(metal)    S(lipo)     H(rot)  DE(clash)    DE(int)     intcor
     14.11     -16.77       1.79        0.00     101.06       2.54       0.07       2.59       ----

> <Gold.Chemscore.Fitness>
14.1114

> <Gold.Chemscore.DG>
-16.7733

> <Gold.Chemscore.ZeroCoef>
-5.4800

> <Gold.Chemscore.Hbond>
1.7862

> <Gold.Chemscore.Metal>
0.0000

> <Gold.Chemscore.Lipo>
101.0587

> <Gold.Chemscore.Internal_Hbond>
0.0000

> <Gold.Chemscore.DEClash>
0.0750

> <Gold.Chemscore.DEInternal>
2.5869

> <Gold.Chemscore.Rot>
2.5377

> <Gold.Chemscore.Internal.Correction>
   9.000000E+99

> <Gold.Chemscore.Hbonds>
donor molecule, donor type, donor heavy atom, donor atom, acceptor molecule, acceptor atom, score
      L1  H    18    46       P1 10957  0.95
      P1  H 10785 10796       L1    22  0.86

> <Gold.Chemscore.Hbond.Weighted>
-5.9660

> <Gold.Chemscore.Metal.Weighted>
-0.0000

> <Gold.Chemscore.Lipo.Weighted>
-11.8239

> <Gold.Chemscore.Internal_Hbond.Weighted>
0.0000

> <Gold.Chemscore.DEClash.Weighted>
0.0750

> <Gold.Chemscore.DEInternal.Weighted>
2.5869

> <Gold.Chemscore.Rot.Weighted>
6.4966

> <Gold.Chemscore.Internal.Correction.Weighted>
   9.000000E+99

> <Gold.Protein.RotatedTorsions>
[ 6907 6896 6895 6894 ] final -173.58 input  -60.11 | X-H torsion
[ 7974 7965 7964 7962 ] final  -11.54 input  175.53 | X-H torsion
[ 8008 7997 7996 7995 ] final   38.89 input   59.86 | X-H torsion
[ 10167 10162 10161 10158 ] final  -11.75 input  -65.29 | X-H torsion
[ 10718 10713 10712 10709 ] final   -2.58 input   66.30 | X-H torsion
[ 10763 10752 10751 10750 ] final -135.33 input  -60.55 | X-H torsion
[ 11005 11000 10999 10996 ] final   45.53 input  -57.11 | X-H torsion

> <Gold.Protein.ActiveResidues>
 VAL166  LYS551  ARG553  GLY616  TRP617  ASP618  TYR619  PRO620  LYS621  CYS622 
 ASP623  PHE694  ASN695  SER759  ASP760  ASP761  ALA762  ILE779  LEU786  VAL792 
 PHE793  MET794  SER795  GLU796  ALA797  LYS798  CYS799  TRP800  GLU811  SER814 

> <Gold.Protein.RotatedAtoms>
  151.5585  133.3407  159.2966 H   0  0  0  0  0  0  0  0  0  0  0  0  # atno 6907 bound_to 6896
  150.8437  134.7740  159.6964 H   0  0  0  0  0  0  0  0  0  0  0  0  # atno 6908 bound_to 6896
  152.4499  134.5423  159.9894 H   0  0  0  0  0  0  0  0  0  0  0  0  # atno 6909 bound_to 6896
  146.2184  140.2926  142.8369 H   0  0  0  0  0  0  0  0  0  0  0  0  # atno 7974 bound_to 7965
  155.2277  140.3336  155.4307 H   0  0  0  0  0  0  0  0  0  0  0  0  # atno 8008 bound_to 7997
  156.2308  140.1849  156.7295 H   0  0  0  0  0  0  0  0  0  0  0  0  # atno 8009 bound_to 7997
  154.5974  140.0628  156.9307 H   0  0  0  0  0  0  0  0  0  0  0  0  # atno 8010 bound_to 7997
  140.7145  143.5606  150.9199 H   0  0  0  0  0  0  0  0  0  0  0  0  # atno 10167 bound_to 10162
  156.7888  130.5355  149.5739 H   0  0  0  0  0  0  0  0  0  0  0  0  # atno 10718 bound_to 10713
  154.8705  135.3707  154.4881 H   0  0  0  0  0  0  0  0  0  0  0  0  # atno 10763 bound_to 10752
  153.5529  135.7024  153.5587 H   0  0  0  0  0  0  0  0  0  0  0  0  # atno 10764 bound_to 10752
  153.3698  135.4024  155.1744 H   0  0  0  0  0  0  0  0  0  0  0  0  # atno 10765 bound_to 10752
  140.1451  134.4533  155.8421 H   0  0  0  0  0  0  0  0  0  0  0  0  # atno 11005 bound_to 11000
  144.9115  140.7763  143.5804 LP  0  0  0  0  0  0  0  0  0  0  0  0  # atno 17320 bound_to 7965
  145.2857  139.1902  143.4767 LP  0  0  0  0  0  0  0  0  0  0  0  0  # atno 17321 bound_to 7965
  139.9332  143.6469  152.3071 LP  0  0  0  0  0  0  0  0  0  0  0  0  # atno 17342 bound_to 10162
  139.6927  144.7645  151.1410 LP  0  0  0  0  0  0  0  0  0  0  0  0  # atno 17343 bound_to 10162
  156.1172  130.6083  151.0138 LP  0  0  0  0  0  0  0  0  0  0  0  0  # atno 17370 bound_to 10713
  157.6611  131.0880  150.7837 LP  0  0  0  0  0  0  0  0  0  0  0  0  # atno 17371 bound_to 10713
  141.2191  133.6849  156.7319 LP  0  0  0  0  0  0  0  0  0  0  0  0  # atno 17394 bound_to 11000
  140.2674  134.8419  157.3815 LP  0  0  0  0  0  0  0  0  0  0  0  0  # atno 17395 bound_to 11000

$$$$
