AV-unprocessed.smi:2021|AV-procd|sdf|8184|dock2
  -GOLD-   2272010433D 1   1.00000     0.00000
 Structure written by MMmdl.
 41 42  0  0  0  0  0  0  0  0  3 V2000
  152.8134  141.9039  162.3120 C   0  0  0  0  0  0  0  0  0  0  0  0
  153.0273  141.2446  160.9390 C   0  0  0  0  0  0  0  0  0  0  0  0
  154.0453  140.0996  161.0478 C   0  0  0  0  0  0  0  0  0  0  0  0
  153.4752  142.2671  159.8723 C   0  0  0  0  0  0  0  0  0  0  0  0
  152.4098  143.2345  159.5042 N   0  3  2  0  0  0  0  0  0  0  0  0
  152.1281  144.2423  160.5562 C   0  0  0  0  0  0  0  0  0  0  0  0
  151.0402  145.2206  160.0836 C   0  0  0  0  0  0  0  0  0  0  0  0
  149.8717  144.4958  159.7233 O   0  0  0  0  0  0  0  0  0  0  0  0
  150.1051  143.5962  158.6439 C   0  0  2  0  0  0  0  0  0  0  0  0
  148.7756  142.9298  158.2666 C   0  0  0  0  0  0  0  0  0  0  0  0
  147.6545  143.8099  158.5656 N   0  0  0  0  0  0  0  0  0  0  0  0
  146.6669  143.5292  159.4244 C   0  0  0  0  0  0  0  0  0  0  0  0
  146.6715  142.4578  160.0350 O   0  0  0  0  0  0  0  0  0  0  0  0
  145.7370  144.5057  159.5219 N   0  5  0  0  0  0  0  0  0  0  0  0
  144.6676  144.3353  160.3171 C   0  0  0  0  0  0  0  0  0  0  0  0
  143.4670  144.8636  160.0295 N   0  0  0  0  0  0  0  0  0  0  0  0
  142.4988  144.5687  160.9799 N   0  0  0  0  0  0  0  0  0  0  0  0
  142.9991  143.8294  161.9698 C   0  0  0  0  0  0  0  0  0  0  0  0
  144.6985  143.4299  161.8333 S   0  0  0  0  0  0  0  0  0  0  0  0
  151.1570  142.5613  159.0871 C   0  0  0  0  0  0  0  0  0  0  0  0
  153.7279  142.3761  162.6722 H   0  0  0  0  0  0  0  0  0  0  0  0
  152.5058  141.1682  163.0559 H   0  0  0  0  0  0  0  0  0  0  0  0
  152.0365  142.6678  162.2725 H   0  0  0  0  0  0  0  0  0  0  0  0
  152.0835  140.7953  160.6311 H   0  0  0  0  0  0  0  0  0  0  0  0
  155.0221  140.4650  161.3671 H   0  0  0  0  0  0  0  0  0  0  0  0
  154.1757  139.5960  160.0894 H   0  0  0  0  0  0  0  0  0  0  0  0
  153.7193  139.3494  161.7691 H   0  0  0  0  0  0  0  0  0  0  0  0
  154.3370  142.8111  160.2628 H   0  0  0  0  0  0  0  0  0  0  0  0
  153.8221  141.7577  158.9718 H   0  0  0  0  0  0  0  0  0  0  0  0
  151.8031  143.7395  161.4685 H   0  0  0  0  0  0  0  0  0  0  0  0
  153.0291  144.8023  160.8034 H   0  0  0  0  0  0  0  0  0  0  0  0
  150.7899  145.9184  160.8828 H   0  0  0  0  0  0  0  0  0  0  0  0
  151.3900  145.8161  159.2387 H   0  0  0  0  0  0  0  0  0  0  0  0
  150.4816  144.1502  157.7813 H   0  0  0  0  0  0  0  0  0  0  0  0
  148.7678  142.6989  157.2000 H   0  0  0  0  0  0  0  0  0  0  0  0
  148.6557  141.9868  158.8023 H   0  0  0  0  0  0  0  0  0  0  0  0
  147.6214  144.6986  158.0878 H   0  0  0  0  0  0  0  0  0  0  0  0
  142.3645  143.5200  162.7866 H   0  0  0  0  0  0  0  0  0  0  0  0
  151.3656  141.8779  158.2628 H   0  0  0  0  0  0  0  0  0  0  0  0
  150.7729  141.9603  159.9132 H   0  0  0  0  0  0  0  0  0  0  0  0
  152.7432  143.7360  158.6933 H   0  0  0  0  0  0  0  0  0  0  0  0
  1  2  1  0  0  0  0
  1 21  1  0  0  0  0
  1 22  1  0  0  0  0
  1 23  1  0  0  0  0
  2  3  1  0  0  0  0
  2  4  1  0  0  0  0
  2 24  1  0  0  0  0
  3 25  1  0  0  0  0
  3 26  1  0  0  0  0
  3 27  1  0  0  0  0
  4  5  1  0  0  0  0
  4 28  1  0  0  0  0
  4 29  1  0  0  0  0
  5 20  1  0  0  0  0
  5  6  1  0  0  0  0
  5 41  1  0  0  0  0
  6  7  1  0  0  0  0
  6 30  1  0  0  0  0
  6 31  1  0  0  0  0
  7  8  1  0  0  0  0
  7 32  1  0  0  0  0
  7 33  1  0  0  0  0
  8  9  1  0  0  0  0
  9 10  1  0  0  0  0
  9 20  1  0  0  0  0
  9 34  1  0  0  0  0
 10 11  1  0  0  0  0
 10 35  1  0  0  0  0
 10 36  1  0  0  0  0
 11 12  1  0  0  0  0
 11 37  1  0  0  0  0
 12 13  2  0  0  0  0
 12 14  1  0  0  0  0
 14 15  1  0  0  0  0
 15 19  1  0  0  0  0
 15 16  2  0  0  0  0
 16 17  1  0  0  0  0
 17 18  2  0  0  0  0
 18 19  1  0  0  0  0
 18 38  1  0  0  0  0
 20 39  1  0  0  0  0
 20 40  1  0  0  0  0
M  CHG  1   5   1
M  CHG  1  14  -1
M  END
> <s_m_source_file>
AV-unprocessed.smi

> <i_m_source_file_index>
2021

> <i_lp_mmshare_version>
43012

> <i_f3d_flags>
0

> <s_epik_input>
W0NIM11bQ0hdKFtDSDNdKVtDSDJdTjFbQ0gyXVtDSDJdT1tDQEhdKFtDSDJdMSlbQ0gyXVtOSF1DKD1PKVtOSF1jMm5uW2NIXXMy

> <s_epik_cmdline>
J2VwaWtfcHl0aG9uJywgJy1waCcsICc3LjAnLCAnLXRuJywgJzgnLCAnLW1hJywgJzIwMCcsICctbWV0YWxfYmluZGluZycsICctaW1hZScsICc8aW5maWxlLm1hZT4nLCAnLW9tYWUnLCAnPG91dGZpbGUubWFlPic=

> <r_lp_tautomer_probability>
1

> <r_epik_Ionization_Penalty>
3.15762

> <r_epik_Ionization_Penalty_Charging>
3.12229

> <r_epik_Ionization_Penalty_Neutral>
0.0353298

> <r_epik_State_Penalty>
3.11266

> <r_epik_Charging_Adjusted_Penalty>
6.23495

> <i_epik_Tot_Q>
0

> <i_epik_Tot_abs_Q>
2

> <r_epik_Metal_State_Penalty>
0.541462

> <b_epik_Metal_Only>
1

> <s_lp_Force_Field>
OPLS_2005

> <r_lp_Energy>
10.6965

> <b_lp_Chiralities_Consistent>
1

> <s_lp_Variant>
AV-unprocessed.smi:2021-10

> <Gold.Version>
5.8.1

> <Gold.Id.Protein>
6NUR|6NUR_protein|mol2

> <Gold.PLP.Fitness>
46.2202

> <Gold.PLP.PLP>
-39.1179

> <Gold.PLP.part.hbond>
-3.0680

> <Gold.PLP.part.metal>
0.0000

> <Gold.PLP.part.buried>
-3.9311

> <Gold.PLP.part.nonpolar>
-31.5537

> <Gold.PLP.part.repulsive>
0.5846

> <Gold.PLP.ligand.clash>
0.0000

> <Gold.PLP.ligand.torsion>
0.7328

> <Gold.PLP.Chemscore.Hbond>
2.7373

> <Gold.PLP.Chemscore.CHOScore>
0.0000

> <Gold.PLP.Chemscore.Metal>
0.0000

> <Gold.Chemscore.Hbonds>
donor molecule, donor type, donor heavy atom, donor atom, acceptor molecule, acceptor atom, score
      L1  H    11    37       P1  8029  0.93
      P1  H  6933  6944       L1    13  0.22
      P1  H  6934  6946       L1    13  1.00

> <Gold.PLP.Chemscore.Internal.Correction>
0.3561

> <Gold.Rescore>
     Score         DG    S(hbond)    S(metal)    S(lipo)     H(rot)  DE(clash)    DE(int)     intcor
     18.81     -21.05       2.40        0.00     104.84       1.85       0.19       2.05       ----

> <Gold.Chemscore.Fitness>
18.8092

> <Gold.Chemscore.DG>
-21.0490

> <Gold.Chemscore.ZeroCoef>
-5.4800

> <Gold.Chemscore.Hbond>
2.4041

> <Gold.Chemscore.Metal>
0.0000

> <Gold.Chemscore.Lipo>
104.8414

> <Gold.Chemscore.Internal_Hbond>
0.0000

> <Gold.Chemscore.DEClash>
0.1872

> <Gold.Chemscore.DEInternal>
2.0526

> <Gold.Chemscore.Rot>
1.8466

> <Gold.Chemscore.Internal.Correction>
   9.000000E+99

> <Gold.Chemscore.Hbonds>
donor molecule, donor type, donor heavy atom, donor atom, acceptor molecule, acceptor atom, score
      L1  H    11    37       P1  8029  0.66
      P1  H  6933  6944       L1    13  0.18
      P1  H  6934  6946       L1    13  0.98

> <Gold.Chemscore.Hbond.Weighted>
-8.0298

> <Gold.Chemscore.Metal.Weighted>
-0.0000

> <Gold.Chemscore.Lipo.Weighted>
-12.2664

> <Gold.Chemscore.Internal_Hbond.Weighted>
0.0000

> <Gold.Chemscore.DEClash.Weighted>
0.1872

> <Gold.Chemscore.DEInternal.Weighted>
2.0526

> <Gold.Chemscore.Rot.Weighted>
4.7272

> <Gold.Chemscore.Internal.Correction.Weighted>
   9.000000E+99

> <Gold.Protein.RotatedTorsions>
[ 6907 6896 6895 6894 ] final -103.03 input  -60.11 | X-H torsion
[ 7974 7965 7964 7962 ] final   68.23 input  175.53 | X-H torsion
[ 8008 7997 7996 7995 ] final  -35.16 input   59.86 | X-H torsion
[ 10167 10162 10161 10158 ] final  150.36 input  -65.29 | X-H torsion
[ 10718 10713 10712 10709 ] final  109.51 input   66.30 | X-H torsion
[ 10763 10752 10751 10750 ] final   90.56 input  -60.55 | X-H torsion
[ 11005 11000 10999 10996 ] final  178.96 input  -57.11 | X-H torsion

> <Gold.Protein.ActiveResidues>
 VAL166  LYS551  ARG553  GLY616  TRP617  ASP618  TYR619  PRO620  LYS621  CYS622 
 ASP623  PHE694  ASN695  SER759  ASP760  ASP761  ALA762  ILE779  LEU786  VAL792 
 PHE793  MET794  SER795  GLU796  ALA797  LYS798  CYS799  TRP800  GLU811  SER814 

> <Gold.Protein.RotatedAtoms>
  150.7222  134.0491  159.3791 H   0  0  0  0  0  0  0  0  0  0  0  0  # atno 6907 bound_to 6896
  151.8467  135.0569  160.0463 H   0  0  0  0  0  0  0  0  0  0  0  0  # atno 6908 bound_to 6896
  152.2822  133.5445  159.5541 H   0  0  0  0  0  0  0  0  0  0  0  0  # atno 6909 bound_to 6896
  145.8051  139.3002  143.1132 H   0  0  0  0  0  0  0  0  0  0  0  0  # atno 7974 bound_to 7965
  154.4102  140.1665  156.2166 H   0  0  0  0  0  0  0  0  0  0  0  0  # atno 8008 bound_to 7997
  155.9399  140.3409  155.6296 H   0  0  0  0  0  0  0  0  0  0  0  0  # atno 8009 bound_to 7997
  155.7002  140.0744  157.2404 H   0  0  0  0  0  0  0  0  0  0  0  0  # atno 8010 bound_to 7997
  139.4851  144.5528  151.7370 H   0  0  0  0  0  0  0  0  0  0  0  0  # atno 10167 bound_to 10162
  157.6538  131.0915  150.6465 H   0  0  0  0  0  0  0  0  0  0  0  0  # atno 10718 bound_to 10713
  153.1989  135.4429  155.0242 H   0  0  0  0  0  0  0  0  0  0  0  0  # atno 10763 bound_to 10752
  154.8135  135.3305  154.7243 H   0  0  0  0  0  0  0  0  0  0  0  0  # atno 10764 bound_to 10752
  153.7690  135.6986  153.4966 H   0  0  0  0  0  0  0  0  0  0  0  0  # atno 10765 bound_to 10752
  140.4009  134.6778  157.4561 H   0  0  0  0  0  0  0  0  0  0  0  0  # atno 11005 bound_to 11000
  145.9837  140.8661  143.0101 LP  0  0  0  0  0  0  0  0  0  0  0  0  # atno 17320 bound_to 7965
  144.6764  140.2116  143.7376 LP  0  0  0  0  0  0  0  0  0  0  0  0  # atno 17321 bound_to 7965
  140.5085  144.1061  150.5989 LP  0  0  0  0  0  0  0  0  0  0  0  0  # atno 17342 bound_to 10162
  140.3979  143.2719  151.9983 LP  0  0  0  0  0  0  0  0  0  0  0  0  # atno 17343 bound_to 10162
  156.6773  130.4557  149.5638 LP  0  0  0  0  0  0  0  0  0  0  0  0  # atno 17370 bound_to 10713
  156.1954  130.6586  151.1108 LP  0  0  0  0  0  0  0  0  0  0  0  0  # atno 17371 bound_to 10713
  140.0337  134.6368  155.9072 LP  0  0  0  0  0  0  0  0  0  0  0  0  # atno 17394 bound_to 11000
  141.1857  133.6555  156.5209 LP  0  0  0  0  0  0  0  0  0  0  0  0  # atno 17395 bound_to 11000

$$$$
