AV-unprocessed.smi:673|AV-procd|sdf|3298|dock4
  -GOLD-   22720 0263D 1   1.00000     0.00000
 Structure written by MMmdl.
 45 46  0  0  0  0  0  0  0  0  1 V2000
  150.3665  135.0081  155.2580 C   0  0  0  0  0  0  0  0  0  0  0  0
  149.6399  136.3574  155.1409 C   0  0  1  0  0  0  0  0  0  0  0  0
  150.5056  137.4604  154.4867 C   0  0  0  0  0  0  0  0  0  0  0  0
  151.6162  137.8988  155.3154 N   0  0  0  0  0  0  0  0  0  0  0  0
  152.0227  139.1260  155.6456 C   0  0  0  0  0  0  0  0  0  0  0  0
  153.0891  139.1433  156.4329 N   0  0  0  0  0  0  0  0  0  0  0  0
  153.3063  137.7997  156.5521 C   0  0  0  0  0  0  0  0  0  0  0  0
  152.4532  137.0098  155.9006 N   0  0  0  0  0  0  0  0  0  0  0  0
  148.3876  136.1652  154.4137 N   0  0  0  0  0  0  0  0  0  0  0  0
  147.4245  135.2780  154.7192 C   0  0  0  0  0  0  0  0  0  0  0  0
  147.5239  134.5110  155.6788 O   0  0  0  0  0  0  0  0  0  0  0  0
  146.3187  135.3466  153.9310 N   0  0  0  0  0  0  0  0  0  0  0  0
  145.9742  136.5166  153.0972 C   0  0  0  0  0  0  0  0  0  0  0  0
  145.2531  136.1859  151.7751 C   0  0  0  0  0  0  0  0  0  0  0  0
  145.8965  135.0452  150.9573 C   0  0  0  0  0  0  0  0  0  0  0  0
  145.4546  133.5993  151.3141 C   0  0  0  0  0  0  0  0  0  0  0  0
  143.9417  133.4022  151.0659 C   0  0  0  0  0  0  0  0  0  0  0  0
  146.1994  132.6353  150.3677 C   0  0  0  0  0  0  0  0  0  0  0  0
  145.8184  133.2047  152.7685 C   0  0  0  0  0  0  0  0  0  0  0  0
  145.3952  134.2048  153.8622 C   0  0  0  0  0  0  0  0  0  0  0  0
  151.3147  135.1193  155.7846 H   0  0  0  0  0  0  0  0  0  0  0  0
  150.5763  134.5741  154.2797 H   0  0  0  0  0  0  0  0  0  0  0  0
  149.7646  134.2882  155.8138 H   0  0  0  0  0  0  0  0  0  0  0  0
  149.3968  136.6823  156.1539 H   0  0  0  0  0  0  0  0  0  0  0  0
  150.8971  137.1271  153.5244 H   0  0  0  0  0  0  0  0  0  0  0  0
  149.8842  138.3308  154.2732 H   0  0  0  0  0  0  0  0  0  0  0  0
  151.5256  140.0236  155.3080 H   0  0  0  0  0  0  0  0  0  0  0  0
  154.1179  137.3914  157.1360 H   0  0  0  0  0  0  0  0  0  0  0  0
  148.2236  136.7775  153.6279 H   0  0  0  0  0  0  0  0  0  0  0  0
  145.3680  137.2043  153.6878 H   0  0  0  0  0  0  0  0  0  0  0  0
  146.8735  137.0663  152.8158 H   0  0  0  0  0  0  0  0  0  0  0  0
  144.1960  135.9995  151.9531 H   0  0  0  0  0  0  0  0  0  0  0  0
  145.2694  137.0903  151.1660 H   0  0  0  0  0  0  0  0  0  0  0  0
  145.6582  135.2202  149.9071 H   0  0  0  0  0  0  0  0  0  0  0  0
  146.9822  135.1303  151.0212 H   0  0  0  0  0  0  0  0  0  0  0  0
  143.6551  132.3577  151.1943 H   0  0  0  0  0  0  0  0  0  0  0  0
  143.6664  133.6903  150.0508 H   0  0  0  0  0  0  0  0  0  0  0  0
  143.3218  133.9814  151.7481 H   0  0  0  0  0  0  0  0  0  0  0  0
  145.9337  131.5962  150.5661 H   0  0  0  0  0  0  0  0  0  0  0  0
  147.2809  132.7213  150.4794 H   0  0  0  0  0  0  0  0  0  0  0  0
  145.9633  132.8387  149.3227 H   0  0  0  0  0  0  0  0  0  0  0  0
  145.3628  132.2390  152.9911 H   0  0  0  0  0  0  0  0  0  0  0  0
  146.8929  133.0330  152.8469 H   0  0  0  0  0  0  0  0  0  0  0  0
  145.3739  133.6881  154.8234 H   0  0  0  0  0  0  0  0  0  0  0  0
  144.3685  134.5414  153.7245 H   0  0  0  0  0  0  0  0  0  0  0  0
  1  2  1  0  0  0  0
  1 21  1  0  0  0  0
  1 22  1  0  0  0  0
  1 23  1  0  0  0  0
  2  3  1  0  0  0  0
  2  9  1  0  0  0  0
  2 24  1  0  0  0  0
  3  4  1  0  0  0  0
  3 25  1  0  0  0  0
  3 26  1  0  0  0  0
  4  8  1  0  0  0  0
  4  5  1  0  0  0  0
  5  6  2  0  0  0  0
  5 27  1  0  0  0  0
  6  7  1  0  0  0  0
  7  8  2  0  0  0  0
  7 28  1  0  0  0  0
  9 10  1  0  0  0  0
  9 29  1  0  0  0  0
 10 11  2  0  0  0  0
 10 12  1  0  0  0  0
 12 20  1  0  0  0  0
 12 13  1  0  0  0  0
 13 14  1  0  0  0  0
 13 30  1  0  0  0  0
 13 31  1  0  0  0  0
 14 15  1  0  0  0  0
 14 32  1  0  0  0  0
 14 33  1  0  0  0  0
 15 16  1  0  0  0  0
 15 34  1  0  0  0  0
 15 35  1  0  0  0  0
 16 17  1  0  0  0  0
 16 18  1  0  0  0  0
 16 19  1  0  0  0  0
 17 36  1  0  0  0  0
 17 37  1  0  0  0  0
 17 38  1  0  0  0  0
 18 39  1  0  0  0  0
 18 40  1  0  0  0  0
 18 41  1  0  0  0  0
 19 20  1  0  0  0  0
 19 42  1  0  0  0  0
 19 43  1  0  0  0  0
 20 44  1  0  0  0  0
 20 45  1  0  0  0  0
M  END
> <s_m_source_file>
AV-unprocessed.smi

> <i_m_source_file_index>
673

> <i_lp_mmshare_version>
43012

> <i_f3d_flags>
0

> <s_epik_input>
bjFbY0hdbltjSF1uMVtDSDJdW0NAQEhdKFtDSDNdKVtOSF1DKD1PKU4oW0NIMl1bQ0gyXTIpW0NIMl1bQ0gyXVtDSDJdQzIoW0NIM10pW0NIM10=

> <s_epik_cmdline>
J2VwaWtfcHl0aG9uJywgJy1waCcsICc3LjAnLCAnLXRuJywgJzgnLCAnLW1hJywgJzIwMCcsICctbWV0YWxfYmluZGluZycsICctaW1hZScsICc8aW5maWxlLm1hZT4nLCAnLW9tYWUnLCAnPG91dGZpbGUubWFlPic=

> <r_lp_tautomer_probability>
1

> <r_epik_Ionization_Penalty>
0.000118908

> <r_epik_Ionization_Penalty_Charging>
0

> <r_epik_Ionization_Penalty_Neutral>
0.000118908

> <r_epik_State_Penalty>
-0

> <r_epik_Charging_Adjusted_Penalty>
0

> <i_epik_Tot_Q>
0

> <i_epik_Tot_abs_Q>
0

> <r_epik_Metal_State_Penalty>
-0

> <b_epik_Metal_Only>
0

> <s_lp_Force_Field>
OPLS_2005

> <r_lp_Energy>
39.1702

> <b_lp_Chiralities_Consistent>
1

> <s_lp_Variant>
AV-unprocessed.smi:673-2

> <Gold.Version>
5.8.1

> <Gold.Id.Protein>
6NUR|6NUR_protein|mol2

> <Gold.PLP.Fitness>
35.6352

> <Gold.PLP.PLP>
-29.7558

> <Gold.PLP.part.hbond>
-3.0000

> <Gold.PLP.part.metal>
0.0000

> <Gold.PLP.part.buried>
-3.8463

> <Gold.PLP.part.nonpolar>
-24.1773

> <Gold.PLP.part.repulsive>
0.0459

> <Gold.PLP.ligand.clash>
0.0000

> <Gold.PLP.ligand.torsion>
0.3795

> <Gold.PLP.Chemscore.Hbond>
2.1840

> <Gold.PLP.Chemscore.CHOScore>
0.0000

> <Gold.PLP.Chemscore.Metal>
0.0000

> <Gold.Chemscore.Hbonds>
donor molecule, donor type, donor heavy atom, donor atom, acceptor molecule, acceptor atom, score
      L1  H     9    29       P1  7948  0.35
      P1  H  7997  8010       L1     6  1.00
      P1  H 10752 10764       L1     8  0.85

> <Gold.PLP.Chemscore.Internal.Correction>
0.0864

> <Gold.Rescore>
     Score         DG    S(hbond)    S(metal)    S(lipo)     H(rot)  DE(clash)    DE(int)     intcor
     12.97     -15.30       2.31        0.00      58.70       1.86       0.08       2.25       ----

> <Gold.Chemscore.Fitness>
12.9659

> <Gold.Chemscore.DG>
-15.2970

> <Gold.Chemscore.ZeroCoef>
-5.4800

> <Gold.Chemscore.Hbond>
2.3098

> <Gold.Chemscore.Metal>
0.0000

> <Gold.Chemscore.Lipo>
58.6982

> <Gold.Chemscore.Internal_Hbond>
0.0000

> <Gold.Chemscore.DEClash>
0.0766

> <Gold.Chemscore.DEInternal>
2.2545

> <Gold.Chemscore.Rot>
1.8614

> <Gold.Chemscore.Internal.Correction>
   9.000000E+99

> <Gold.Chemscore.Hbonds>
donor molecule, donor type, donor heavy atom, donor atom, acceptor molecule, acceptor atom, score
      L1  H     9    29       P1  7948  0.35
      P1  H  7997  8010       L1     6  0.91
      P1  H 10752 10764       L1     8  0.81

> <Gold.Chemscore.Hbond.Weighted>
-7.7147

> <Gold.Chemscore.Metal.Weighted>
-0.0000

> <Gold.Chemscore.Lipo.Weighted>
-6.8677

> <Gold.Chemscore.Internal_Hbond.Weighted>
0.0000

> <Gold.Chemscore.DEClash.Weighted>
0.0766

> <Gold.Chemscore.DEInternal.Weighted>
2.2545

> <Gold.Chemscore.Rot.Weighted>
4.7653

> <Gold.Chemscore.Internal.Correction.Weighted>
   9.000000E+99

> <Gold.Protein.RotatedTorsions>
[ 6907 6896 6895 6894 ] final   91.00 input  -60.11 | X-H torsion
[ 7974 7965 7964 7962 ] final    1.31 input  175.53 | X-H torsion
[ 8008 7997 7996 7995 ] final   64.72 input   59.86 | X-H torsion
[ 10167 10162 10161 10158 ] final   99.81 input  -65.29 | X-H torsion
[ 10718 10713 10712 10709 ] final   63.33 input   66.30 | X-H torsion
[ 10763 10752 10751 10750 ] final  -35.06 input  -60.55 | X-H torsion
[ 11005 11000 10999 10996 ] final -102.83 input  -57.11 | X-H torsion

> <Gold.Protein.ActiveResidues>
 VAL166  LYS551  ARG553  GLY616  TRP617  ASP618  TYR619  PRO620  LYS621  CYS622 
 ASP623  PHE694  ASN695  SER759  ASP760  ASP761  ALA762  ILE779  LEU786  VAL792 
 PHE793  MET794  SER795  GLU796  ALA797  LYS798  CYS799  TRP800  GLU811  SER814 

> <Gold.Protein.RotatedAtoms>
  152.5448  134.1724  159.8601 H   0  0  0  0  0  0  0  0  0  0  0  0  # atno 6907 bound_to 6896
  151.1733  133.4764  159.2601 H   0  0  0  0  0  0  0  0  0  0  0  0  # atno 6908 bound_to 6896
  151.1253  135.0112  159.8612 H   0  0  0  0  0  0  0  0  0  0  0  0  # atno 6909 bound_to 6896
  146.2439  140.1005  142.8348 H   0  0  0  0  0  0  0  0  0  0  0  0  # atno 7974 bound_to 7965
  155.6504  140.3497  155.4746 H   0  0  0  0  0  0  0  0  0  0  0  0  # atno 8008 bound_to 7997
  155.9852  140.1182  157.0713 H   0  0  0  0  0  0  0  0  0  0  0  0  # atno 8009 bound_to 7997
  154.4203  140.1130  156.5476 H   0  0  0  0  0  0  0  0  0  0  0  0  # atno 8010 bound_to 7997
  139.7584  144.6962  151.0328 H   0  0  0  0  0  0  0  0  0  0  0  0  # atno 10167 bound_to 10162
  157.5963  130.9099  149.9701 H   0  0  0  0  0  0  0  0  0  0  0  0  # atno 10718 bound_to 10713
  153.8570  135.6843  153.4786 H   0  0  0  0  0  0  0  0  0  0  0  0  # atno 10763 bound_to 10752
  153.1364  135.4676  154.9427 H   0  0  0  0  0  0  0  0  0  0  0  0  # atno 10764 bound_to 10752
  154.7776  135.3258  154.8007 H   0  0  0  0  0  0  0  0  0  0  0  0  # atno 10765 bound_to 10752
  141.1172  133.8590  157.1409 H   0  0  0  0  0  0  0  0  0  0  0  0  # atno 11005 bound_to 11000
  145.0572  140.9061  143.4960 LP  0  0  0  0  0  0  0  0  0  0  0  0  # atno 17320 bound_to 7965
  145.1114  139.2754  143.5635 LP  0  0  0  0  0  0  0  0  0  0  0  0  # atno 17321 bound_to 7965
  140.7805  143.4726  151.0126 LP  0  0  0  0  0  0  0  0  0  0  0  0  # atno 17342 bound_to 10162
  139.8412  143.7561  152.3180 LP  0  0  0  0  0  0  0  0  0  0  0  0  # atno 17343 bound_to 10162
  156.1027  130.3654  150.0190 LP  0  0  0  0  0  0  0  0  0  0  0  0  # atno 17370 bound_to 10713
  156.8302  130.9389  151.3637 LP  0  0  0  0  0  0  0  0  0  0  0  0  # atno 17371 bound_to 10713
  140.0103  134.9991  157.0380 LP  0  0  0  0  0  0  0  0  0  0  0  0  # atno 17394 bound_to 11000
  140.4611  134.1483  155.7191 LP  0  0  0  0  0  0  0  0  0  0  0  0  # atno 17395 bound_to 11000

$$$$
