AV-unprocessed.smi:2079|AV-procd|sdf|8484|dock4
  -GOLD-   2272011193D 1   1.00000     0.00000
 Structure written by MMmdl.
 41 42  0  0  0  0  0  0  0  0  3 V2000
  151.5513  141.3280  156.0285 C   0  0  0  0  0  0  0  0  0  0  0  0
  151.4751  139.9141  155.5641 C   0  0  0  0  0  0  0  0  0  0  0  0
  150.4297  139.0960  155.2406 C   0  0  0  0  0  0  0  0  0  0  0  0
  151.0714  137.8792  154.8863 C   0  0  0  0  0  0  0  0  0  0  0  0
  150.3108  136.7501  154.4823 N   0  0  0  0  0  0  0  0  0  0  0  0
  150.2312  135.5374  155.0598 C   0  0  0  0  0  0  0  0  0  0  0  0
  150.8874  135.2850  156.0776 O   0  0  0  0  0  0  0  0  0  0  0  0
  149.3858  134.7028  154.3933 N   0  5  0  0  0  0  0  0  0  0  0  0
  148.1629  134.1308  154.9550 C   0  0  0  0  0  0  0  0  0  0  0  0
  146.9271  134.9099  154.4596 C   0  0  0  0  0  0  0  0  0  0  0  0
  146.7032  134.7254  153.0000 N   0  3  1  0  0  0  0  0  0  0  0  0
  146.5124  133.3055  152.5844 C   0  0  0  0  0  0  0  0  0  0  0  0
  146.5286  133.1738  151.0527 C   0  0  0  0  0  0  0  0  0  0  0  0
  145.4786  134.0857  150.4055 C   0  0  0  0  0  0  0  0  0  0  0  0
  145.6692  135.5336  150.8829 C   0  0  0  0  0  0  0  0  0  0  0  0
  145.6742  135.6414  152.4224 C   0  0  1  0  0  0  0  0  0  0  0  0
  144.2683  135.4439  153.0306 C   0  0  0  0  0  0  0  0  0  0  0  0
  152.3909  137.9513  154.9816 N   0  0  0  0  0  0  0  0  0  0  0  0
  152.6560  139.2547  155.4175 O   0  0  0  0  0  0  0  0  0  0  0  0
  150.5795  141.8162  155.9522 H   0  0  0  0  0  0  0  0  0  0  0  0
  152.2625  141.8952  155.4279 H   0  0  0  0  0  0  0  0  0  0  0  0
  151.8731  141.3747  157.0689 H   0  0  0  0  0  0  0  0  0  0  0  0
  149.3757  139.3306  155.2581 H   0  0  0  0  0  0  0  0  0  0  0  0
  149.7440  136.8793  153.6575 H   0  0  0  0  0  0  0  0  0  0  0  0
  148.0455  133.0766  154.7000 H   0  0  0  0  0  0  0  0  0  0  0  0
  148.1852  134.1620  156.0444 H   0  0  0  0  0  0  0  0  0  0  0  0
  146.0320  134.6250  155.0150 H   0  0  0  0  0  0  0  0  0  0  0  0
  147.0927  135.9672  154.6717 H   0  0  0  0  0  0  0  0  0  0  0  0
  147.3071  132.6833  152.9966 H   0  0  0  0  0  0  0  0  0  0  0  0
  145.5788  132.9160  152.9912 H   0  0  0  0  0  0  0  0  0  0  0  0
  147.5189  133.4324  150.6755 H   0  0  0  0  0  0  0  0  0  0  0  0
  146.3498  132.1373  150.7655 H   0  0  0  0  0  0  0  0  0  0  0  0
  145.5575  134.0354  149.3191 H   0  0  0  0  0  0  0  0  0  0  0  0
  144.4775  133.7352  150.6578 H   0  0  0  0  0  0  0  0  0  0  0  0
  146.6164  135.9121  150.4958 H   0  0  0  0  0  0  0  0  0  0  0  0
  144.8936  136.1730  150.4599 H   0  0  0  0  0  0  0  0  0  0  0  0
  145.9850  136.6594  152.6622 H   0  0  0  0  0  0  0  0  0  0  0  0
  143.5624  136.1571  152.6042 H   0  0  0  0  0  0  0  0  0  0  0  0
  144.2670  135.6020  154.1089 H   0  0  0  0  0  0  0  0  0  0  0  0
  143.8699  134.4471  152.8447 H   0  0  0  0  0  0  0  0  0  0  0  0
  147.5721  135.0179  152.5760 H   0  0  0  0  0  0  0  0  0  0  0  0
  1  2  1  0  0  0  0
  1 20  1  0  0  0  0
  1 21  1  0  0  0  0
  1 22  1  0  0  0  0
  2 19  1  0  0  0  0
  2  3  2  0  0  0  0
  3  4  1  0  0  0  0
  3 23  1  0  0  0  0
  4  5  1  0  0  0  0
  4 18  2  0  0  0  0
  5  6  1  0  0  0  0
  5 24  1  0  0  0  0
  6  7  2  0  0  0  0
  6  8  1  0  0  0  0
  8  9  1  0  0  0  0
  9 10  1  0  0  0  0
  9 25  1  0  0  0  0
  9 26  1  0  0  0  0
 10 11  1  0  0  0  0
 10 27  1  0  0  0  0
 10 28  1  0  0  0  0
 11 16  1  0  0  0  0
 11 12  1  0  0  0  0
 11 41  1  0  0  0  0
 12 13  1  0  0  0  0
 12 29  1  0  0  0  0
 12 30  1  0  0  0  0
 13 14  1  0  0  0  0
 13 31  1  0  0  0  0
 13 32  1  0  0  0  0
 14 15  1  0  0  0  0
 14 33  1  0  0  0  0
 14 34  1  0  0  0  0
 15 16  1  0  0  0  0
 15 35  1  0  0  0  0
 15 36  1  0  0  0  0
 16 17  1  0  0  0  0
 16 37  1  0  0  0  0
 17 38  1  0  0  0  0
 17 39  1  0  0  0  0
 17 40  1  0  0  0  0
 18 19  1  0  0  0  0
M  CHG  1   8  -1
M  CHG  1  11   1
M  END
> <s_m_source_file>
AV-unprocessed.smi

> <i_m_source_file_index>
2079

> <i_lp_mmshare_version>
43012

> <i_f3d_flags>
0

> <s_epik_input>
W0NIM11jMVtjSF1jKG5vMSlbTkhdQyg9TylbTkhdW0NIMl1bQ0gyXU4yW0NIMl1bQ0gyXVtDSDJdW0NIMl1bQ0BIXTJbQ0gzXQ==

> <s_epik_cmdline>
J2VwaWtfcHl0aG9uJywgJy1waCcsICc3LjAnLCAnLXRuJywgJzgnLCAnLW1hJywgJzIwMCcsICctbWV0YWxfYmluZGluZycsICctaW1hZScsICc8aW5maWxlLm1hZT4nLCAnLW9tYWUnLCAnPG91dGZpbGUubWFlPic=

> <r_epik_Ionization_Penalty>
6.7666

> <r_epik_Ionization_Penalty_Charging>
6.7666

> <r_epik_Ionization_Penalty_Neutral>
5.77131e-06

> <r_epik_State_Penalty>
6.79217

> <r_epik_Charging_Adjusted_Penalty>
13.5588

> <i_epik_Tot_Q>
0

> <i_epik_Tot_abs_Q>
2

> <r_epik_Metal_State_Penalty>
2.72569

> <b_epik_Metal_Only>
1

> <s_lp_Force_Field>
OPLS_2005

> <r_lp_Energy>
14.7698

> <b_lp_Chiralities_Consistent>
1

> <s_lp_Variant>
AV-unprocessed.smi:2079-10

> <Gold.Version>
5.8.1

> <Gold.Id.Protein>
6NUR|6NUR_protein|mol2

> <Gold.PLP.Fitness>
40.9260

> <Gold.PLP.PLP>
-28.7013

> <Gold.PLP.part.hbond>
-5.8973

> <Gold.PLP.part.metal>
0.0000

> <Gold.PLP.part.buried>
-3.6192

> <Gold.PLP.part.nonpolar>
-20.8988

> <Gold.PLP.part.repulsive>
1.7179

> <Gold.PLP.ligand.clash>
0.0000

> <Gold.PLP.ligand.torsion>
1.3466

> <Gold.PLP.Chemscore.Hbond>
4.9424

> <Gold.PLP.Chemscore.CHOScore>
0.0000

> <Gold.PLP.Chemscore.Metal>
0.0000

> <Gold.Chemscore.Hbonds>
donor molecule, donor type, donor heavy atom, donor atom, acceptor molecule, acceptor atom, score
      L1  H     5    24       P1  7948  0.99
      L1  H    11    41       P1  7948  2.00
      P1  H  7997  8009       L1    19  0.94

> <Gold.PLP.Chemscore.Internal.Correction>
0.0907

> <Gold.Rescore>
     Score         DG    S(hbond)    S(metal)    S(lipo)     H(rot)  DE(clash)    DE(int)     intcor
     14.78     -17.52       2.79        0.00      57.08       1.54       1.37       1.37       ----

> <Gold.Chemscore.Fitness>
14.7823

> <Gold.Chemscore.DG>
-17.5212

> <Gold.Chemscore.ZeroCoef>
-5.4800

> <Gold.Chemscore.Hbond>
2.7866

> <Gold.Chemscore.Metal>
0.0000

> <Gold.Chemscore.Lipo>
57.0822

> <Gold.Chemscore.Internal_Hbond>
0.0000

> <Gold.Chemscore.DEClash>
1.3661

> <Gold.Chemscore.DEInternal>
1.3729

> <Gold.Chemscore.Rot>
1.5409

> <Gold.Chemscore.Internal.Correction>
   9.000000E+99

> <Gold.Chemscore.Hbonds>
donor molecule, donor type, donor heavy atom, donor atom, acceptor molecule, acceptor atom, score
      L1  H     5    24       P1  7948  0.53
      L1  H    11    41       P1  7948  0.98
      P1  H  7997  8009       L1    19  0.87

> <Gold.Chemscore.Hbond.Weighted>
-9.3072

> <Gold.Chemscore.Metal.Weighted>
-0.0000

> <Gold.Chemscore.Lipo.Weighted>
-6.6786

> <Gold.Chemscore.Internal_Hbond.Weighted>
0.0000

> <Gold.Chemscore.DEClash.Weighted>
1.3661

> <Gold.Chemscore.DEInternal.Weighted>
1.3729

> <Gold.Chemscore.Rot.Weighted>
3.9446

> <Gold.Chemscore.Internal.Correction.Weighted>
   9.000000E+99

> <Gold.Protein.RotatedTorsions>
[ 6907 6896 6895 6894 ] final  -77.14 input  -60.11 | X-H torsion
[ 7974 7965 7964 7962 ] final  124.64 input  175.53 | X-H torsion
[ 8008 7997 7996 7995 ] final -145.52 input   59.86 | X-H torsion
[ 10167 10162 10161 10158 ] final  151.88 input  -65.29 | X-H torsion
[ 10718 10713 10712 10709 ] final   62.37 input   66.30 | X-H torsion
[ 10763 10752 10751 10750 ] final  -42.76 input  -60.55 | X-H torsion
[ 11005 11000 10999 10996 ] final  177.86 input  -57.11 | X-H torsion

> <Gold.Protein.ActiveResidues>
 VAL166  LYS551  ARG553  GLY616  TRP617  ASP618  TYR619  PRO620  LYS621  CYS622 
 ASP623  PHE694  ASN695  SER759  ASP760  ASP761  ALA762  ILE779  LEU786  VAL792 
 PHE793  MET794  SER795  GLU796  ALA797  LYS798  CYS799  TRP800  GLU811  SER814 

> <Gold.Protein.RotatedAtoms>
  150.7007  134.4467  159.5316 H   0  0  0  0  0  0  0  0  0  0  0  0  # atno 6907 bound_to 6896
  152.2167  134.8448  160.0500 H   0  0  0  0  0  0  0  0  0  0  0  0  # atno 6908 bound_to 6896
  151.9314  133.3577  159.3969 H   0  0  0  0  0  0  0  0  0  0  0  0  # atno 6909 bound_to 6896
  145.0821  139.3649  143.4904 H   0  0  0  0  0  0  0  0  0  0  0  0  # atno 7974 bound_to 7965
  155.5445  140.0611  157.2863 H   0  0  0  0  0  0  0  0  0  0  0  0  # atno 8008 bound_to 7997
  154.4441  140.1913  156.0668 H   0  0  0  0  0  0  0  0  0  0  0  0  # atno 8009 bound_to 7997
  156.0561  140.3278  155.7410 H   0  0  0  0  0  0  0  0  0  0  0  0  # atno 8010 bound_to 7997
  139.4837  144.5404  151.7574 H   0  0  0  0  0  0  0  0  0  0  0  0  # atno 10167 bound_to 10162
  157.5896  130.9046  149.9580 H   0  0  0  0  0  0  0  0  0  0  0  0  # atno 10718 bound_to 10713
  153.9843  135.6713  153.4751 H   0  0  0  0  0  0  0  0  0  0  0  0  # atno 10763 bound_to 10752
  153.0734  135.4962  154.8349 H   0  0  0  0  0  0  0  0  0  0  0  0  # atno 10764 bound_to 10752
  154.7146  135.3104  154.9105 H   0  0  0  0  0  0  0  0  0  0  0  0  # atno 10765 bound_to 10752
  140.3888  134.6881  157.4495 H   0  0  0  0  0  0  0  0  0  0  0  0  # atno 11005 bound_to 11000
  146.3531  140.0616  142.8629 LP  0  0  0  0  0  0  0  0  0  0  0  0  # atno 17320 bound_to 7965
  145.1166  140.9437  143.4625 LP  0  0  0  0  0  0  0  0  0  0  0  0  # atno 17321 bound_to 7965
  140.4943  144.1264  150.5957 LP  0  0  0  0  0  0  0  0  0  0  0  0  # atno 17342 bound_to 10162
  140.4135  143.2645  151.9803 LP  0  0  0  0  0  0  0  0  0  0  0  0  # atno 17343 bound_to 10162
  156.0949  130.3660  150.0325 LP  0  0  0  0  0  0  0  0  0  0  0  0  # atno 17370 bound_to 10713
  156.8450  130.9439  151.3629 LP  0  0  0  0  0  0  0  0  0  0  0  0  # atno 17371 bound_to 10713
  140.0422  134.6250  155.8966 LP  0  0  0  0  0  0  0  0  0  0  0  0  # atno 17394 bound_to 11000
  141.1898  133.6566  156.5384 LP  0  0  0  0  0  0  0  0  0  0  0  0  # atno 17395 bound_to 11000

$$$$
