AV-unprocessed.smi:1717|AV-procd|sdf|6920|dock7
  -GOLD-   22720 8123D 1   1.00000     0.00000
 Structure written by MMmdl.
 40 41  0  0  0  0  0  0  0  0  3 V2000
  146.7675  136.8097  162.1232 C   0  0  0  0  0  0  0  0  0  0  0  0
  147.5502  137.2658  160.9808 N   0  5  0  0  0  0  0  0  0  0  0  0
  148.1655  136.4230  160.1087 C   0  0  0  0  0  0  0  0  0  0  0  0
  149.3030  136.4510  159.6266 O   0  0  0  0  0  0  0  0  0  0  0  0
  147.2463  135.2587  159.7226 C   0  0  0  0  0  0  0  0  0  0  0  0
  147.1188  135.1788  158.2462 N   0  3  2  0  0  0  0  0  0  0  0  0
  148.3760  134.7323  157.5946 C   0  0  0  0  0  0  0  0  0  0  0  0
  148.1723  134.5132  156.0859 C   0  0  0  0  0  0  0  0  0  0  0  0
  147.6344  135.7826  155.4060 C   0  0  1  0  0  0  0  0  0  0  0  0
  147.3631  135.5145  153.9967 N   0  0  0  0  0  0  0  0  0  0  0  0
  146.2986  134.8462  153.5293 C   0  0  0  0  0  0  0  0  0  0  0  0
  145.4146  134.3849  154.2509 O   0  0  0  0  0  0  0  0  0  0  0  0
  146.3326  134.7484  152.1904 N   0  0  0  0  0  0  0  0  0  0  0  0
  145.3750  134.1255  151.3515 C   0  0  0  0  0  0  0  0  0  0  0  0
  145.4615  132.8904  150.6440 C   0  0  0  0  0  0  0  0  0  0  0  0
  144.3490  132.6478  149.9651 N   0  0  0  0  0  0  0  0  0  0  0  0
  143.5566  133.7104  150.2312 N   0  0  0  0  0  0  0  0  0  0  0  0
  144.1415  134.6328  151.0703 C   0  0  0  0  0  0  0  0  0  0  0  0
  146.3569  136.2511  156.1259 C   0  0  0  0  0  0  0  0  0  0  0  0
  146.6003  136.4311  157.6328 C   0  0  0  0  0  0  0  0  0  0  0  0
  142.6298  133.7897  149.8372 H   0  0  0  0  0  0  0  0  0  0  0  0
  146.4193  137.6423  162.7343 H   0  0  0  0  0  0  0  0  0  0  0  0
  147.3367  136.1575  162.7860 H   0  0  0  0  0  0  0  0  0  0  0  0
  145.8785  136.2552  161.8210 H   0  0  0  0  0  0  0  0  0  0  0  0
  147.5756  134.3012  160.1326 H   0  0  0  0  0  0  0  0  0  0  0  0
  146.2732  135.4646  160.1709 H   0  0  0  0  0  0  0  0  0  0  0  0
  149.1591  135.4722  157.7672 H   0  0  0  0  0  0  0  0  0  0  0  0
  148.7146  133.7995  158.0472 H   0  0  0  0  0  0  0  0  0  0  0  0
  149.1158  134.2140  155.6275 H   0  0  0  0  0  0  0  0  0  0  0  0
  147.4779  133.6856  155.9326 H   0  0  0  0  0  0  0  0  0  0  0  0
  148.3952  136.5619  155.4852 H   0  0  0  0  0  0  0  0  0  0  0  0
  148.0382  135.8579  153.3293 H   0  0  0  0  0  0  0  0  0  0  0  0
  147.1236  135.1647  151.7210 H   0  0  0  0  0  0  0  0  0  0  0  0
  146.2674  132.1732  150.5961 H   0  0  0  0  0  0  0  0  0  0  0  0
  143.6436  135.5392  151.3826 H   0  0  0  0  0  0  0  0  0  0  0  0
  146.0058  137.1912  155.6983 H   0  0  0  0  0  0  0  0  0  0  0  0
  145.5568  135.5250  155.9744 H   0  0  0  0  0  0  0  0  0  0  0  0
  145.6648  136.7270  158.1079 H   0  0  0  0  0  0  0  0  0  0  0  0
  147.3098  137.2423  157.8036 H   0  0  0  0  0  0  0  0  0  0  0  0
  146.4327  134.4584  158.0699 H   0  0  0  0  0  0  0  0  0  0  0  0
  1  2  1  0  0  0  0
  1 22  1  0  0  0  0
  1 23  1  0  0  0  0
  1 24  1  0  0  0  0
  2  3  1  0  0  0  0
  3  4  2  0  0  0  0
  3  5  1  0  0  0  0
  5  6  1  0  0  0  0
  5 25  1  0  0  0  0
  5 26  1  0  0  0  0
  6 20  1  0  0  0  0
  6  7  1  0  0  0  0
  6 40  1  0  0  0  0
  7  8  1  0  0  0  0
  7 27  1  0  0  0  0
  7 28  1  0  0  0  0
  8  9  1  0  0  0  0
  8 29  1  0  0  0  0
  8 30  1  0  0  0  0
  9 10  1  0  0  0  0
  9 19  1  0  0  0  0
  9 31  1  0  0  0  0
 10 11  1  0  0  0  0
 10 32  1  0  0  0  0
 11 12  2  0  0  0  0
 11 13  1  0  0  0  0
 13 14  1  0  0  0  0
 13 33  1  0  0  0  0
 14 18  2  0  0  0  0
 14 15  1  0  0  0  0
 15 16  2  0  0  0  0
 15 34  1  0  0  0  0
 16 17  1  0  0  0  0
 17 21  1  0  0  0  0
 17 18  1  0  0  0  0
 18 35  1  0  0  0  0
 19 20  1  0  0  0  0
 19 36  1  0  0  0  0
 19 37  1  0  0  0  0
 20 38  1  0  0  0  0
 20 39  1  0  0  0  0
M  CHG  1   2  -1
M  CHG  1   6   1
M  END
> <s_m_source_file>
AV-unprocessed.smi

> <i_m_source_file_index>
1717

> <i_lp_mmshare_version>
43012

> <i_f3d_flags>
0

> <s_epik_input>
W0NIM11bTkhdQyg9TylbQ0gyXU4xW0NIMl1bQ0gyXVtDSF0oW0NIMl1bQ0gyXTEpW05IXUMoPU8pW05IXWMyW2NIXW5bbkhdW2NIXTI=

> <s_epik_cmdline>
J2VwaWtfcHl0aG9uJywgJy1waCcsICc3LjAnLCAnLXRuJywgJzgnLCAnLW1hJywgJzIwMCcsICctbWV0YWxfYmluZGluZycsICctaW1hZScsICc8aW5maWxlLm1hZT4nLCAnLW9tYWUnLCAnPG91dGZpbGUubWFlPic=

> <r_lp_tautomer_probability>
0.5

> <r_epik_Ionization_Penalty>
6.1395

> <r_epik_Ionization_Penalty_Charging>
6.13946

> <r_epik_Ionization_Penalty_Neutral>
4.21226e-05

> <r_epik_State_Penalty>
6.9595

> <r_epik_Charging_Adjusted_Penalty>
13.099

> <i_epik_Tot_Q>
0

> <i_epik_Tot_abs_Q>
2

> <r_epik_Metal_State_Penalty>
2.89141

> <b_epik_Metal_Only>
1

> <s_lp_Force_Field>
OPLS_2005

> <r_lp_Energy>
12.4493

> <b_lp_Chiralities_Consistent>
1

> <s_lp_Variant>
AV-unprocessed.smi:1717-4

> <Gold.Version>
5.8.1

> <Gold.Id.Protein>
6NUR|6NUR_protein|mol2

> <Gold.PLP.Fitness>
44.9421

> <Gold.PLP.PLP>
-23.1561

> <Gold.PLP.part.hbond>
-6.0000

> <Gold.PLP.part.metal>
0.0000

> <Gold.PLP.part.buried>
-5.3704

> <Gold.PLP.part.nonpolar>
-12.8639

> <Gold.PLP.part.repulsive>
0.3041

> <Gold.PLP.ligand.clash>
0.0000

> <Gold.PLP.ligand.torsion>
1.3171

> <Gold.PLP.Chemscore.Hbond>
7.6470

> <Gold.PLP.Chemscore.CHOScore>
0.4781

> <Gold.PLP.Chemscore.Metal>
0.0000

> <Gold.Chemscore.Hbonds>
donor molecule, donor type, donor heavy atom, donor atom, acceptor molecule, acceptor atom, score
      L1  H    10    32       P1  7948  1.00
      L1  H    13    33       P1  7948  0.87
      L1  H    17    21       P1 10186  1.00
      P1  H  6896  6907       L1     4  0.57
      P1  H  6931  6943       L1     2  1.66
      P1  H  6934  6947       L1     2  1.92

> <Gold.PLP.Chemscore.Internal.Correction>
0.0451

> <Gold.Rescore>
     Score         DG    S(hbond)    S(metal)    S(lipo)     H(rot)  DE(clash)    DE(int)     intcor
     17.65     -21.55       4.85        0.00      37.40       1.75       0.10       3.80       ----

> <Gold.Chemscore.Fitness>
17.6481

> <Gold.Chemscore.DG>
-21.5504

> <Gold.Chemscore.ZeroCoef>
-5.4800

> <Gold.Chemscore.Hbond>
4.8462

> <Gold.Chemscore.Metal>
0.0000

> <Gold.Chemscore.Lipo>
37.4007

> <Gold.Chemscore.Internal_Hbond>
0.0000

> <Gold.Chemscore.DEClash>
0.0998

> <Gold.Chemscore.DEInternal>
3.8025

> <Gold.Chemscore.Rot>
1.7546

> <Gold.Chemscore.Internal.Correction>
   9.000000E+99

> <Gold.Chemscore.Hbonds>
donor molecule, donor type, donor heavy atom, donor atom, acceptor molecule, acceptor atom, score
      L1  H    10    32       P1  7948  1.00
      L1  H    13    33       P1  7948  0.77
      L1  H    17    21       P1 10186  0.99
      P1  H  6896  6907       L1     4  0.58
      P1  H  6931  6943       L1     2  0.13
      P1  H  6934  6947       L1     2  0.37

> <Gold.Chemscore.Hbond.Weighted>
-16.1863

> <Gold.Chemscore.Metal.Weighted>
-0.0000

> <Gold.Chemscore.Lipo.Weighted>
-4.3759

> <Gold.Chemscore.Internal_Hbond.Weighted>
0.0000

> <Gold.Chemscore.DEClash.Weighted>
0.0998

> <Gold.Chemscore.DEInternal.Weighted>
3.8025

> <Gold.Chemscore.Rot.Weighted>
4.4917

> <Gold.Chemscore.Internal.Correction.Weighted>
   9.000000E+99

> <Gold.Protein.RotatedTorsions>
[ 6907 6896 6895 6894 ] final  -46.39 input  -60.11 | X-H torsion
[ 7974 7965 7964 7962 ] final   13.82 input  175.53 | X-H torsion
[ 8008 7997 7996 7995 ] final   29.90 input   59.86 | X-H torsion
[ 10167 10162 10161 10158 ] final -167.36 input  -65.29 | X-H torsion
[ 10718 10713 10712 10709 ] final  -29.92 input   66.30 | X-H torsion
[ 10763 10752 10751 10750 ] final  -43.61 input  -60.55 | X-H torsion
[ 11005 11000 10999 10996 ] final   29.42 input  -57.11 | X-H torsion

> <Gold.Protein.ActiveResidues>
 VAL166  LYS551  ARG553  GLY616  TRP617  ASP618  TYR619  PRO620  LYS621  CYS622 
 ASP623  PHE694  ASN695  SER759  ASP760  ASP761  ALA762  ILE779  LEU786  VAL792 
 PHE793  MET794  SER795  GLU796  ALA797  LYS798  CYS799  TRP800  GLU811  SER814 

> <Gold.Protein.RotatedAtoms>
  150.9118  134.8535  159.7430 H   0  0  0  0  0  0  0  0  0  0  0  0  # atno 6907 bound_to 6896
  152.4948  134.4348  159.9534 H   0  0  0  0  0  0  0  0  0  0  0  0  # atno 6908 bound_to 6896
  151.4389  133.3609  159.2814 H   0  0  0  0  0  0  0  0  0  0  0  0  # atno 6909 bound_to 6896
  146.2320  139.9132  142.8521 H   0  0  0  0  0  0  0  0  0  0  0  0  # atno 7974 bound_to 7965
  155.0819  140.3211  155.4599 H   0  0  0  0  0  0  0  0  0  0  0  0  # atno 8008 bound_to 7997
  156.2765  140.2093  156.5893 H   0  0  0  0  0  0  0  0  0  0  0  0  # atno 8009 bound_to 7997
  154.6972  140.0510  157.0409 H   0  0  0  0  0  0  0  0  0  0  0  0  # atno 8010 bound_to 7997
  139.6055  144.0923  152.1788 H   0  0  0  0  0  0  0  0  0  0  0  0  # atno 10167 bound_to 10162
  156.4063  130.4399  149.7285 H   0  0  0  0  0  0  0  0  0  0  0  0  # atno 10718 bound_to 10713
  153.9985  135.6696  153.4758 H   0  0  0  0  0  0  0  0  0  0  0  0  # atno 10763 bound_to 10752
  153.0673  135.4994  154.8224 H   0  0  0  0  0  0  0  0  0  0  0  0  # atno 10764 bound_to 10752
  154.7067  135.3089  154.9222 H   0  0  0  0  0  0  0  0  0  0  0  0  # atno 10765 bound_to 10752
  140.3051  134.2712  155.7745 H   0  0  0  0  0  0  0  0  0  0  0  0  # atno 11005 bound_to 11000
  145.2209  140.9935  143.4046 LP  0  0  0  0  0  0  0  0  0  0  0  0  # atno 17320 bound_to 7965
  144.9611  139.3979  143.6355 LP  0  0  0  0  0  0  0  0  0  0  0  0  # atno 17321 bound_to 7965
  140.0529  144.5918  150.7322 LP  0  0  0  0  0  0  0  0  0  0  0  0  # atno 17342 bound_to 10162
  140.7281  143.2658  151.4049 LP  0  0  0  0  0  0  0  0  0  0  0  0  # atno 17343 bound_to 10162
  156.4281  130.7801  151.2821 LP  0  0  0  0  0  0  0  0  0  0  0  0  # atno 17370 bound_to 10713
  157.7505  131.0162  150.3536 LP  0  0  0  0  0  0  0  0  0  0  0  0  # atno 17371 bound_to 10713
  141.2120  133.7672  156.9825 LP  0  0  0  0  0  0  0  0  0  0  0  0  # atno 17394 bound_to 11000
  140.1074  134.9498  157.2014 LP  0  0  0  0  0  0  0  0  0  0  0  0  # atno 17395 bound_to 11000

$$$$
