AV-unprocessed.smi:212|AV-procd|sdf|1632|dock8
  -GOLD-   2262019583D 1   1.00000     0.00000
 Structure written by MMmdl.
 65 68  0  0  0  0  0  0  0  0  2 V2000
  149.8585  129.3758  154.3965 C   0  0  0  0  0  0  0  0  0  0  0  0
  149.5174  130.6586  153.6135 C   0  0  1  0  0  0  0  0  0  0  0  0
  147.9973  130.8832  153.4853 C   0  0  0  0  0  0  0  0  0  0  0  0
  147.7071  132.0841  152.6582 N   0  3  1  0  0  0  0  0  0  0  0  0
  146.2558  132.2862  152.4020 C   0  0  0  0  0  0  0  0  0  0  0  0
  145.9666  132.8973  151.0096 C   0  0  0  0  0  0  0  0  0  0  0  0
  146.6723  132.0758  149.9175 C   0  0  0  0  0  0  0  0  0  0  0  0
  144.4584  132.9914  150.7134 C   0  0  0  0  0  0  0  0  0  0  0  0
  146.5142  134.1990  150.9447 O   0  0  0  0  0  0  0  0  0  0  0  0
  148.3780  133.3016  153.1824 C   0  0  0  0  0  0  0  0  0  0  0  0
  149.8931  133.0795  153.3709 C   0  0  0  0  0  0  0  0  0  0  0  0
  150.1847  131.8613  154.1223 N   0  0  0  0  0  0  0  0  0  0  0  0
  150.2640  132.0196  155.4650 C   0  0  0  0  0  0  0  0  0  0  0  0
  151.4436  131.8271  156.1105 N   0  0  0  0  0  0  0  0  0  0  0  0
  151.5160  131.9976  157.4344 C   0  0  0  0  0  0  0  0  0  0  0  0
  150.5497  132.3520  158.2846 N   0  0  0  0  0  0  0  0  0  0  0  0
  149.3650  132.5442  157.6362 C   0  0  0  0  0  0  0  0  0  0  0  0
  149.1371  132.3990  156.2399 C   0  0  0  0  0  0  0  0  0  0  0  0
  147.8094  132.6747  155.9396 N   0  0  0  0  0  0  0  0  0  0  0  0
  147.2784  132.9623  157.0972 C   0  0  0  0  0  0  0  0  0  0  0  0
  148.1403  132.9055  158.1691 N   0  0  0  0  0  0  0  0  0  0  0  0
  147.8136  133.1765  159.5574 C   0  0  0  0  0  0  0  0  0  0  0  0
  148.8166  134.1233  160.2683 C   0  0  1  0  0  0  0  0  0  0  0  0
  149.3676  135.2215  159.3227 C   0  0  0  0  0  0  0  0  0  0  0  0
  150.5437  135.8171  159.8317 O   0  0  0  0  0  0  0  0  0  0  0  0
  148.1627  134.7529  161.5261 C   0  0  1  0  0  0  0  0  0  0  0  0
  149.1306  135.4294  162.4833 C   0  0  0  0  0  0  0  0  0  0  0  0
  148.2012  136.3148  163.3018 C   0  0  0  0  0  0  0  0  0  0  0  0
  147.2250  136.7712  162.3762 O   0  0  0  0  0  0  0  0  0  0  0  0
  147.1918  135.9088  161.2419 C   0  0  0  0  0  0  0  0  0  0  0  0
  149.4280  128.4999  153.9105 H   0  0  0  0  0  0  0  0  0  0  0  0
  149.4719  129.4045  155.4158 H   0  0  0  0  0  0  0  0  0  0  0  0
  150.9369  129.2223  154.4491 H   0  0  0  0  0  0  0  0  0  0  0  0
  149.9078  130.5133  152.6052 H   0  0  0  0  0  0  0  0  0  0  0  0
  147.5400  130.0039  153.0327 H   0  0  0  0  0  0  0  0  0  0  0  0
  147.5420  130.9972  154.4699 H   0  0  0  0  0  0  0  0  0  0  0  0
  145.7162  131.3467  152.5340 H   0  0  0  0  0  0  0  0  0  0  0  0
  145.8452  132.9614  153.1547 H   0  0  0  0  0  0  0  0  0  0  0  0
  146.2988  131.0515  149.8913 H   0  0  0  0  0  0  0  0  0  0  0  0
  147.7488  132.0282  150.0871 H   0  0  0  0  0  0  0  0  0  0  0  0
  146.5146  132.5064  148.9275 H   0  0  0  0  0  0  0  0  0  0  0  0
  143.9867  132.0094  150.7597 H   0  0  0  0  0  0  0  0  0  0  0  0
  144.2751  133.3960  149.7171 H   0  0  0  0  0  0  0  0  0  0  0  0
  143.9435  133.6387  151.4241 H   0  0  0  0  0  0  0  0  0  0  0  0
  146.3580  134.5499  150.0805 H   0  0  0  0  0  0  0  0  0  0  0  0
  148.2221  134.1308  152.4914 H   0  0  0  0  0  0  0  0  0  0  0  0
  147.9125  133.5902  154.1251 H   0  0  0  0  0  0  0  0  0  0  0  0
  150.3739  132.9943  152.3958 H   0  0  0  0  0  0  0  0  0  0  0  0
  150.3437  133.9446  153.8601 H   0  0  0  0  0  0  0  0  0  0  0  0
  152.4869  131.8273  157.8760 H   0  0  0  0  0  0  0  0  0  0  0  0
  146.2350  133.2216  157.2040 H   0  0  0  0  0  0  0  0  0  0  0  0
  146.8073  133.5952  159.6018 H   0  0  0  0  0  0  0  0  0  0  0  0
  147.7666  132.2144  160.0673 H   0  0  0  0  0  0  0  0  0  0  0  0
  149.6610  133.5229  160.6117 H   0  0  0  0  0  0  0  0  0  0  0  0
  149.5618  134.8165  158.3289 H   0  0  0  0  0  0  0  0  0  0  0  0
  148.6502  136.0305  159.1939 H   0  0  0  0  0  0  0  0  0  0  0  0
  150.3122  136.6385  160.2379 H   0  0  0  0  0  0  0  0  0  0  0  0
  147.6256  133.9792  162.0776 H   0  0  0  0  0  0  0  0  0  0  0  0
  149.6850  134.7272  163.1065 H   0  0  0  0  0  0  0  0  0  0  0  0
  149.8468  136.0439  161.9355 H   0  0  0  0  0  0  0  0  0  0  0  0
  147.7043  135.7306  164.0772 H   0  0  0  0  0  0  0  0  0  0  0  0
  148.7215  137.1445  163.7803 H   0  0  0  0  0  0  0  0  0  0  0  0
  147.5102  136.4834  160.3711 H   0  0  0  0  0  0  0  0  0  0  0  0
  146.1762  135.5572  161.0586 H   0  0  0  0  0  0  0  0  0  0  0  0
  148.1245  131.9117  151.7550 H   0  0  0  0  0  0  0  0  0  0  0  0
  1  2  1  0  0  0  0
  1 31  1  0  0  0  0
  1 32  1  0  0  0  0
  1 33  1  0  0  0  0
  2 12  1  0  0  0  0
  2  3  1  0  0  0  0
  2 34  1  0  0  0  0
  3  4  1  0  0  0  0
  3 35  1  0  0  0  0
  3 36  1  0  0  0  0
  4  5  1  0  0  0  0
  4 10  1  0  0  0  0
  4 65  1  0  0  0  0
  5  6  1  0  0  0  0
  5 37  1  0  0  0  0
  5 38  1  0  0  0  0
  6  7  1  0  0  0  0
  6  8  1  0  0  0  0
  6  9  1  0  0  0  0
  7 39  1  0  0  0  0
  7 40  1  0  0  0  0
  7 41  1  0  0  0  0
  8 42  1  0  0  0  0
  8 43  1  0  0  0  0
  8 44  1  0  0  0  0
  9 45  1  0  0  0  0
 10 11  1  0  0  0  0
 10 46  1  0  0  0  0
 10 47  1  0  0  0  0
 11 12  1  0  0  0  0
 11 48  1  0  0  0  0
 11 49  1  0  0  0  0
 12 13  1  0  0  0  0
 13 18  1  0  0  0  0
 13 14  2  0  0  0  0
 14 15  1  0  0  0  0
 15 16  2  0  0  0  0
 15 50  1  0  0  0  0
 16 17  1  0  0  0  0
 17 21  1  0  0  0  0
 17 18  2  0  0  0  0
 18 19  1  0  0  0  0
 19 20  2  0  0  0  0
 20 21  1  0  0  0  0
 20 51  1  0  0  0  0
 21 22  1  0  0  0  0
 22 23  1  0  0  0  0
 22 52  1  0  0  0  0
 22 53  1  0  0  0  0
 23 24  1  0  0  0  0
 23 26  1  0  0  0  0
 23 54  1  0  0  0  0
 24 25  1  0  0  0  0
 24 55  1  0  0  0  0
 24 56  1  0  0  0  0
 25 57  1  0  0  0  0
 26 30  1  0  0  0  0
 26 27  1  0  0  0  0
 26 58  1  0  0  0  0
 27 28  1  0  0  0  0
 27 59  1  0  0  0  0
 27 60  1  0  0  0  0
 28 29  1  0  0  0  0
 28 61  1  0  0  0  0
 28 62  1  0  0  0  0
 29 30  1  0  0  0  0
 30 63  1  0  0  0  0
 30 64  1  0  0  0  0
M  CHG  1   4   1
M  END
> <s_m_source_file>
AV-unprocessed.smi

> <i_m_source_file_index>
212

> <i_lp_mmshare_version>
43012

> <i_f3d_flags>
0

> <s_epik_input>
W0NIM11bQ0BASF0xW0NIMl1OKFtDSDJdQyhbQ0gzXSkoW0NIM10pW09IXSlbQ0gyXVtDSDJdTjFjKG5bY0hdbjIpYyhjMjMpbltjSF1uM1tDSDJdW0NASF0oW0NIMl1bT0hdKVtDQEBIXTRbQ0gyXVtDSDJdT1tDSDJdNA==

> <s_epik_cmdline>
J2VwaWtfcHl0aG9uJywgJy1waCcsICc3LjAnLCAnLXRuJywgJzgnLCAnLW1hJywgJzIwMCcsICctbWV0YWxfYmluZGluZycsICctaW1hZScsICc8aW5maWxlLm1hZT4nLCAnLW9tYWUnLCAnPG91dGZpbGUubWFlPic=

> <r_lp_tautomer_probability>
1

> <r_epik_Ionization_Penalty>
0.00182193

> <r_epik_Ionization_Penalty_Charging>
0.00173996

> <r_epik_Ionization_Penalty_Neutral>
8.19718e-05

> <r_epik_State_Penalty>
-0

> <r_epik_Charging_Adjusted_Penalty>
0.00173996

> <i_epik_Tot_Q>
1

> <i_epik_Tot_abs_Q>
1

> <r_epik_Metal_State_Penalty>
-0

> <b_epik_Metal_Only>
0

> <s_lp_Force_Field>
OPLS_2005

> <r_lp_Energy>
59.0262

> <b_lp_Chiralities_Consistent>
1

> <s_lp_Variant>
AV-unprocessed.smi:212-16

> <Gold.Version>
5.8.1

> <Gold.Id.Protein>
6NUR|6NUR_protein|mol2

> <Gold.PLP.Fitness>
51.8782

> <Gold.PLP.PLP>
-40.1587

> <Gold.PLP.part.hbond>
-5.0000

> <Gold.PLP.part.metal>
0.0000

> <Gold.PLP.part.buried>
-2.4698

> <Gold.PLP.part.nonpolar>
-30.6865

> <Gold.PLP.part.repulsive>
0.1020

> <Gold.PLP.ligand.clash>
0.0000

> <Gold.PLP.ligand.torsion>
1.2620

> <Gold.PLP.Chemscore.Hbond>
4.3870

> <Gold.PLP.Chemscore.CHOScore>
0.0000

> <Gold.PLP.Chemscore.Metal>
0.0000

> <Gold.Chemscore.Hbonds>
donor molecule, donor type, donor heavy atom, donor atom, acceptor molecule, acceptor atom, score
      L1  H     4    65       P1 10747  1.00
      P1  H  6896  6907       L1    16  1.00

> <Gold.PLP.Chemscore.Internal.Correction>
1.0825

> <Gold.Rescore>
     Score         DG    S(hbond)    S(metal)    S(lipo)     H(rot)  DE(clash)    DE(int)     intcor
     13.35     -17.61       2.71        0.00     106.81       3.68       0.62       3.64       ----

> <Gold.Chemscore.Fitness>
13.3466

> <Gold.Chemscore.DG>
-17.6055

> <Gold.Chemscore.ZeroCoef>
-5.4800

> <Gold.Chemscore.Hbond>
2.7103

> <Gold.Chemscore.Metal>
0.0000

> <Gold.Chemscore.Lipo>
106.8106

> <Gold.Chemscore.Internal_Hbond>
0.0000

> <Gold.Chemscore.DEClash>
0.6174

> <Gold.Chemscore.DEInternal>
3.6415

> <Gold.Chemscore.Rot>
3.6812

> <Gold.Chemscore.Internal.Correction>
   9.000000E+99

> <Gold.Chemscore.Hbonds>
donor molecule, donor type, donor heavy atom, donor atom, acceptor molecule, acceptor atom, score
      L1  H     4    65       P1 10747  0.95
      L1  H     9    45       P1  7921  0.01
      P1  H  6896  6907       L1    16  0.61

> <Gold.Chemscore.Hbond.Weighted>
-9.0526

> <Gold.Chemscore.Metal.Weighted>
-0.0000

> <Gold.Chemscore.Lipo.Weighted>
-12.4968

> <Gold.Chemscore.Internal_Hbond.Weighted>
0.0000

> <Gold.Chemscore.DEClash.Weighted>
0.6174

> <Gold.Chemscore.DEInternal.Weighted>
3.6415

> <Gold.Chemscore.Rot.Weighted>
9.4239

> <Gold.Chemscore.Internal.Correction.Weighted>
   9.000000E+99

> <Gold.Protein.RotatedTorsions>
[ 6907 6896 6895 6894 ] final -145.91 input  -60.11 | X-H torsion
[ 7974 7965 7964 7962 ] final  139.35 input  175.53 | X-H torsion
[ 8008 7997 7996 7995 ] final -105.91 input   59.86 | X-H torsion
[ 10167 10162 10161 10158 ] final   51.68 input  -65.29 | X-H torsion
[ 10718 10713 10712 10709 ] final  157.54 input   66.30 | X-H torsion
[ 10763 10752 10751 10750 ] final  130.95 input  -60.55 | X-H torsion
[ 11005 11000 10999 10996 ] final -116.04 input  -57.11 | X-H torsion

> <Gold.Protein.ActiveResidues>
 VAL166  LYS551  ARG553  GLY616  TRP617  ASP618  TYR619  PRO620  LYS621  CYS622 
 ASP623  PHE694  ASN695  SER759  ASP760  ASP761  ALA762  ILE779  LEU786  VAL792 
 PHE793  MET794  SER795  GLU796  ALA797  LYS798  CYS799  TRP800  GLU811  SER814 

> <Gold.Protein.RotatedAtoms>
  151.1343  133.5015  159.2598 H   0  0  0  0  0  0  0  0  0  0  0  0  # atno 6907 bound_to 6896
  151.1723  135.0323  159.8767 H   0  0  0  0  0  0  0  0  0  0  0  0  # atno 6908 bound_to 6896
  152.5461  134.1205  159.8450 H   0  0  0  0  0  0  0  0  0  0  0  0  # atno 6909 bound_to 6896
  144.9287  139.5074  143.5628 H   0  0  0  0  0  0  0  0  0  0  0  0  # atno 7974 bound_to 7965
  154.9068  140.0411  157.1924 H   0  0  0  0  0  0  0  0  0  0  0  0  # atno 8008 bound_to 7997
  154.8388  140.2911  155.5652 H   0  0  0  0  0  0  0  0  0  0  0  0  # atno 8009 bound_to 7997
  156.2991  140.2486  156.3327 H   0  0  0  0  0  0  0  0  0  0  0  0  # atno 8010 bound_to 7997
  140.2594  144.3390  150.6323 H   0  0  0  0  0  0  0  0  0  0  0  0  # atno 10167 bound_to 10162
  157.1901  131.0652  151.2084 H   0  0  0  0  0  0  0  0  0  0  0  0  # atno 10718 bound_to 10713
  153.7663  135.3188  155.3345 H   0  0  0  0  0  0  0  0  0  0  0  0  # atno 10763 bound_to 10752
  154.8212  135.4602  154.0788 H   0  0  0  0  0  0  0  0  0  0  0  0  # atno 10764 bound_to 10752
  153.2034  135.6925  153.8287 H   0  0  0  0  0  0  0  0  0  0  0  0  # atno 10765 bound_to 10752
  141.0448  133.9780  157.2935 H   0  0  0  0  0  0  0  0  0  0  0  0  # atno 11005 bound_to 11000
  146.3237  139.8221  142.8924 LP  0  0  0  0  0  0  0  0  0  0  0  0  # atno 17320 bound_to 7965
  145.3177  141.0236  143.3518 LP  0  0  0  0  0  0  0  0  0  0  0  0  # atno 17321 bound_to 7965
  140.5978  143.2167  151.7131 LP  0  0  0  0  0  0  0  0  0  0  0  0  # atno 17342 bound_to 10162
  139.5021  144.3840  152.0347 LP  0  0  0  0  0  0  0  0  0  0  0  0  # atno 17343 bound_to 10162
  157.3868  130.7261  149.6669 LP  0  0  0  0  0  0  0  0  0  0  0  0  # atno 17370 bound_to 10713
  155.9713  130.4157  150.4195 LP  0  0  0  0  0  0  0  0  0  0  0  0  # atno 17371 bound_to 10713
  139.9303  135.0200  156.8378 LP  0  0  0  0  0  0  0  0  0  0  0  0  # atno 17394 bound_to 11000
  140.6167  134.0032  155.7600 LP  0  0  0  0  0  0  0  0  0  0  0  0  # atno 17395 bound_to 11000

$$$$
