AV-unprocessed.smi:1366|AV-procd|sdf|5570|dock2
  -GOLD-   22720 5163D 1   1.00000     0.00000
 Structure written by MMmdl.
 31 32  0  0  0  0  0  0  0  0  1 V2000
  150.4532  134.9793  154.6295 N   0  0  0  0  0  0  0  0  0  0  0  0
  150.6158  136.0840  154.9327 C   0  0  0  0  0  0  0  0  0  0  0  0
  150.8208  137.4745  155.3143 C   0  0  0  0  0  0  0  0  0  0  0  0
  151.3618  137.7968  156.5785 C   0  0  0  0  0  0  0  0  0  0  0  0
  151.5634  139.0753  156.9653 N   0  0  0  0  0  0  0  0  0  0  0  0
  151.2248  140.0173  156.0836 C   0  0  0  0  0  0  0  0  0  0  0  0
  151.4797  141.6963  156.5922 S   0  0  0  0  0  0  0  0  0  0  0  0
  152.1974  141.3957  158.2302 C   0  0  0  0  0  0  0  0  0  0  0  0
  152.5393  142.7054  158.9528 C   0  0  2  0  0  0  0  0  0  0  0  0
  152.1827  142.6467  160.4510 C   0  0  0  0  0  0  0  0  0  0  0  0
  152.4592  143.9961  161.1239 C   0  0  0  0  0  0  0  0  0  0  0  0
  151.7504  145.1135  160.3512 C   0  0  0  0  0  0  0  0  0  0  0  0
  152.1209  145.0498  158.8612 C   0  0  0  0  0  0  0  0  0  0  0  0
  151.8050  143.7632  158.3388 O   0  0  0  0  0  0  0  0  0  0  0  0
  150.7080  139.8446  154.8657 N   0  0  0  0  0  0  0  0  0  0  0  0
  150.5011  138.5694  154.4707 C   0  0  0  0  0  0  0  0  0  0  0  0
  149.9571  138.4014  153.1960 N   0  0  0  0  0  0  0  0  0  0  0  0
  151.6350  137.0285  157.2875 H   0  0  0  0  0  0  0  0  0  0  0  0
  151.4951  140.8077  158.8222 H   0  0  0  0  0  0  0  0  0  0  0  0
  153.0956  140.7904  158.1043 H   0  0  0  0  0  0  0  0  0  0  0  0
  153.6081  142.8984  158.8425 H   0  0  0  0  0  0  0  0  0  0  0  0
  151.1289  142.3907  160.5690 H   0  0  0  0  0  0  0  0  0  0  0  0
  152.7528  141.8604  160.9465 H   0  0  0  0  0  0  0  0  0  0  0  0
  152.1256  143.9795  162.1619 H   0  0  0  0  0  0  0  0  0  0  0  0
  153.5332  144.1856  161.1415 H   0  0  0  0  0  0  0  0  0  0  0  0
  150.6703  145.0084  160.4620 H   0  0  0  0  0  0  0  0  0  0  0  0
  152.0148  146.0865  160.7657 H   0  0  0  0  0  0  0  0  0  0  0  0
  151.5631  145.8024  158.3038 H   0  0  0  0  0  0  0  0  0  0  0  0
  153.1802  145.2646  158.7128 H   0  0  0  0  0  0  0  0  0  0  0  0
  149.7667  137.4847  152.8176 H   0  0  0  0  0  0  0  0  0  0  0  0
  149.7316  139.1949  152.6131 H   0  0  0  0  0  0  0  0  0  0  0  0
  1  2  3  0  0  0  0
  2  3  1  0  0  0  0
  3 16  1  0  0  0  0
  3  4  2  0  0  0  0
  4  5  1  0  0  0  0
  4 18  1  0  0  0  0
  5  6  2  0  0  0  0
  6  7  1  0  0  0  0
  6 15  1  0  0  0  0
  7  8  1  0  0  0  0
  8  9  1  0  0  0  0
  8 19  1  0  0  0  0
  8 20  1  0  0  0  0
  9 14  1  0  0  0  0
  9 10  1  0  0  0  0
  9 21  1  0  0  0  0
 10 11  1  0  0  0  0
 10 22  1  0  0  0  0
 10 23  1  0  0  0  0
 11 12  1  0  0  0  0
 11 24  1  0  0  0  0
 11 25  1  0  0  0  0
 12 13  1  0  0  0  0
 12 26  1  0  0  0  0
 12 27  1  0  0  0  0
 13 14  1  0  0  0  0
 13 28  1  0  0  0  0
 13 29  1  0  0  0  0
 15 16  2  0  0  0  0
 16 17  1  0  0  0  0
 17 30  1  0  0  0  0
 17 31  1  0  0  0  0
M  END
> <s_m_source_file>
AV-unprocessed.smi

> <i_m_source_file_index>
1366

> <i_lp_mmshare_version>
43012

> <i_f3d_flags>
0

> <s_epik_input>
TiNDYzFbY0hdbmMobmMxW05IMl0pU1tDSDJdW0NAQEhdMltDSDJdW0NIMl1bQ0gyXVtDSDJdTzI=

> <s_epik_cmdline>
J2VwaWtfcHl0aG9uJywgJy1waCcsICc3LjAnLCAnLXRuJywgJzgnLCAnLW1hJywgJzIwMCcsICctbWV0YWxfYmluZGluZycsICctaW1hZScsICc8aW5maWxlLm1hZT4nLCAnLW9tYWUnLCAnPG91dGZpbGUubWFlPic=

> <r_lp_tautomer_probability>
1

> <r_epik_Ionization_Penalty>
5.69531e-05

> <r_epik_Ionization_Penalty_Charging>
0

> <r_epik_Ionization_Penalty_Neutral>
5.69531e-05

> <r_epik_State_Penalty>
-0

> <r_epik_Charging_Adjusted_Penalty>
0

> <i_epik_Tot_Q>
0

> <i_epik_Tot_abs_Q>
0

> <r_epik_Metal_State_Penalty>
-0

> <b_epik_Metal_Only>
0

> <s_lp_Force_Field>
OPLS_2005

> <r_lp_Energy>
5.78872

> <b_lp_Chiralities_Consistent>
1

> <s_lp_Variant>
AV-unprocessed.smi:1366-1

> <Gold.Version>
5.8.1

> <Gold.Id.Protein>
6NUR|6NUR_protein|mol2

> <Gold.PLP.Fitness>
42.7199

> <Gold.PLP.PLP>
-34.8767

> <Gold.PLP.part.hbond>
-3.2568

> <Gold.PLP.part.metal>
0.0000

> <Gold.PLP.part.buried>
-6.0241

> <Gold.PLP.part.nonpolar>
-25.6167

> <Gold.PLP.part.repulsive>
0.3984

> <Gold.PLP.ligand.clash>
0.0000

> <Gold.PLP.ligand.torsion>
0.5790

> <Gold.PLP.Chemscore.Hbond>
3.0000

> <Gold.PLP.Chemscore.CHOScore>
0.0000

> <Gold.PLP.Chemscore.Metal>
0.0000

> <Gold.Chemscore.Hbonds>
donor molecule, donor type, donor heavy atom, donor atom, acceptor molecule, acceptor atom, score
      L1  H    17    30       P1  7948  1.00
      L1  H    17    31       P1  7957  1.00
      P1  H  7989  7998       L1    15  1.00

> <Gold.PLP.Chemscore.Internal.Correction>
0.0012

> <Gold.Rescore>
     Score         DG    S(hbond)    S(metal)    S(lipo)     H(rot)  DE(clash)    DE(int)     intcor
     17.96     -18.72       2.32        0.00      84.66       1.73       0.16       0.60       ----

> <Gold.Chemscore.Fitness>
17.9632

> <Gold.Chemscore.DG>
-18.7230

> <Gold.Chemscore.ZeroCoef>
-5.4800

> <Gold.Chemscore.Hbond>
2.3226

> <Gold.Chemscore.Metal>
0.0000

> <Gold.Chemscore.Lipo>
84.6617

> <Gold.Chemscore.Internal_Hbond>
0.0000

> <Gold.Chemscore.DEClash>
0.1631

> <Gold.Chemscore.DEInternal>
0.5967

> <Gold.Chemscore.Rot>
1.7266

> <Gold.Chemscore.Internal.Correction>
   9.000000E+99

> <Gold.Chemscore.Hbonds>
donor molecule, donor type, donor heavy atom, donor atom, acceptor molecule, acceptor atom, score
      L1  H    17    30       P1  7948  0.39
      L1  H    17    31       P1  7957  0.92
      P1  H  7989  7998       L1    15  0.66

> <Gold.Chemscore.Hbond.Weighted>
-7.7575

> <Gold.Chemscore.Metal.Weighted>
-0.0000

> <Gold.Chemscore.Lipo.Weighted>
-9.9054

> <Gold.Chemscore.Internal_Hbond.Weighted>
0.0000

> <Gold.Chemscore.DEClash.Weighted>
0.1631

> <Gold.Chemscore.DEInternal.Weighted>
0.5967

> <Gold.Chemscore.Rot.Weighted>
4.4200

> <Gold.Chemscore.Internal.Correction.Weighted>
   9.000000E+99

> <Gold.Protein.RotatedTorsions>
[ 6907 6896 6895 6894 ] final   21.43 input  -60.11 | X-H torsion
[ 7974 7965 7964 7962 ] final   38.93 input  175.53 | X-H torsion
[ 8008 7997 7996 7995 ] final -118.95 input   59.86 | X-H torsion
[ 10167 10162 10161 10158 ] final   68.80 input  -65.29 | X-H torsion
[ 10718 10713 10712 10709 ] final -113.34 input   66.30 | X-H torsion
[ 10763 10752 10751 10750 ] final   62.94 input  -60.55 | X-H torsion
[ 11005 11000 10999 10996 ] final  178.17 input  -57.11 | X-H torsion

> <Gold.Protein.ActiveResidues>
 VAL166  LYS551  ARG553  GLY616  TRP617  ASP618  TYR619  PRO620  LYS621  CYS622 
 ASP623  PHE694  ASN695  SER759  ASP760  ASP761  ALA762  ILE779  LEU786  VAL792 
 PHE793  MET794  SER795  GLU796  ALA797  LYS798  CYS799  TRP800  GLU811  SER814 

> <Gold.Protein.RotatedAtoms>
  151.9117  135.0336  160.0514 H   0  0  0  0  0  0  0  0  0  0  0  0  # atno 6907 bound_to 6896
  152.2274  133.5026  159.5205 H   0  0  0  0  0  0  0  0  0  0  0  0  # atno 6908 bound_to 6896
  150.7016  134.1178  159.4066 H   0  0  0  0  0  0  0  0  0  0  0  0  # atno 6909 bound_to 6896
  146.1023  139.5712  142.9406 H   0  0  0  0  0  0  0  0  0  0  0  0  # atno 7974 bound_to 7965
  155.1079  140.0397  157.2715 H   0  0  0  0  0  0  0  0  0  0  0  0  # atno 8008 bound_to 7997
  154.6708  140.2612  155.6984 H   0  0  0  0  0  0  0  0  0  0  0  0  # atno 8009 bound_to 7997
  156.2657  140.2798  156.1216 H   0  0  0  0  0  0  0  0  0  0  0  0  # atno 8010 bound_to 7997
  140.0747  144.5122  150.7203 H   0  0  0  0  0  0  0  0  0  0  0  0  # atno 10167 bound_to 10162
  156.0761  130.5968  150.8630 H   0  0  0  0  0  0  0  0  0  0  0  0  # atno 10718 bound_to 10713
  153.0000  135.5447  154.6272 H   0  0  0  0  0  0  0  0  0  0  0  0  # atno 10763 bound_to 10752
  154.5558  135.2830  155.0968 H   0  0  0  0  0  0  0  0  0  0  0  0  # atno 10764 bound_to 10752
  154.2190  135.6454  153.5191 H   0  0  0  0  0  0  0  0  0  0  0  0  # atno 10765 bound_to 10752
  140.3922  134.6852  157.4514 H   0  0  0  0  0  0  0  0  0  0  0  0  # atno 11005 bound_to 11000
  145.5829  141.0380  143.2112 LP  0  0  0  0  0  0  0  0  0  0  0  0  # atno 17320 bound_to 7965
  144.7443  139.7363  143.7298 LP  0  0  0  0  0  0  0  0  0  0  0  0  # atno 17321 bound_to 7965
  140.7108  143.2503  151.4587 LP  0  0  0  0  0  0  0  0  0  0  0  0  # atno 17342 bound_to 10162
  139.5815  144.1699  152.1974 LP  0  0  0  0  0  0  0  0  0  0  0  0  # atno 17343 bound_to 10162
  157.5857  131.0945  150.9201 LP  0  0  0  0  0  0  0  0  0  0  0  0  # atno 17370 bound_to 10713
  156.9387  130.5376  149.5280 LP  0  0  0  0  0  0  0  0  0  0  0  0  # atno 17371 bound_to 10713
  140.0398  134.6283  155.8995 LP  0  0  0  0  0  0  0  0  0  0  0  0  # atno 17394 bound_to 11000
  141.1887  133.6563  156.5335 LP  0  0  0  0  0  0  0  0  0  0  0  0  # atno 17395 bound_to 11000

$$$$
