AV-unprocessed.smi:1033|AV-procd|sdf|4502|dock6
  -GOLD-   22720 2503D 1   1.00000     0.00000
 Structure written by MMmdl.
 57 59  0  0  0  0  0  0  0  0  3 V2000
  152.1630  145.1594  160.4030 C   0  0  0  0  0  0  0  0  0  0  0  0
  151.9081  143.8676  159.6450 C   0  0  0  0  0  0  0  0  0  0  0  0
  151.2218  143.9335  158.4111 C   0  0  0  0  0  0  0  0  0  0  0  0
  151.0021  142.7349  157.7427 C   0  0  0  0  0  0  0  0  0  0  0  0
  150.3660  142.4653  156.5286 N   0  3  0  0  0  0  0  0  0  0  0  0
  150.3978  141.1252  156.2863 C   0  0  0  0  0  0  0  0  0  0  0  0
  151.0495  140.5370  157.3262 N   0  0  0  0  0  0  0  0  0  0  0  0
  151.3607  139.1234  157.5719 C   0  0  0  0  0  0  0  0  0  0  0  0
  150.2421  138.3901  158.3399 C   0  0  2  0  0  0  0  0  0  0  0  0
  150.7919  137.7937  159.4965 O   0  0  0  0  0  0  0  0  0  0  0  0
  149.5789  137.2799  157.5023 C   0  0  0  0  0  0  0  0  0  0  0  0
  149.3196  137.6218  156.0986 N   0  0  0  0  0  0  0  0  0  0  0  0
  150.4462  137.3034  155.2221 C   0  0  0  0  0  0  0  0  0  0  0  0
  150.6331  135.7892  154.9948 C   0  0  0  0  0  0  0  0  0  0  0  0
  149.3912  135.1901  154.4416 N   0  3  0  0  0  0  0  0  0  0  0  0
  149.5467  133.7445  154.1372 C   0  0  0  0  0  0  0  0  0  0  0  0
  148.2244  133.0817  153.7027 C   0  0  2  0  0  0  0  0  0  0  0  0
  148.3654  131.5619  153.5471 C   0  0  0  0  0  0  0  0  0  0  0  0
  147.8223  133.6158  152.4573 O   0  0  0  0  0  0  0  0  0  0  0  0
  148.2272  135.4964  155.3159 C   0  0  0  0  0  0  0  0  0  0  0  0
  148.1090  137.0187  155.5341 C   0  0  0  0  0  0  0  0  0  0  0  0
  151.4400  141.5010  158.2606 C   0  0  0  0  0  0  0  0  0  0  0  0
  152.1167  141.4170  159.4747 C   0  0  0  0  0  0  0  0  0  0  0  0
  152.3499  142.6251  160.1700 C   0  0  0  0  0  0  0  0  0  0  0  0
  153.0859  142.5658  161.4975 C   0  0  0  0  0  0  0  0  0  0  0  0
  151.7769  146.0232  159.8607 H   0  0  0  0  0  0  0  0  0  0  0  0
  153.2319  145.3123  160.5527 H   0  0  0  0  0  0  0  0  0  0  0  0
  151.6759  145.1334  161.3781 H   0  0  0  0  0  0  0  0  0  0  0  0
  150.8822  144.8757  158.0059 H   0  0  0  0  0  0  0  0  0  0  0  0
  149.9836  140.6210  155.4248 H   0  0  0  0  0  0  0  0  0  0  0  0
  151.5570  138.6469  156.6106 H   0  0  0  0  0  0  0  0  0  0  0  0
  152.2961  139.0845  158.1320 H   0  0  0  0  0  0  0  0  0  0  0  0
  149.4932  139.1027  158.6831 H   0  0  0  0  0  0  0  0  0  0  0  0
  150.9306  138.4679  160.1441 H   0  0  0  0  0  0  0  0  0  0  0  0
  150.2297  136.4050  157.5370 H   0  0  0  0  0  0  0  0  0  0  0  0
  148.6534  136.9729  157.9891 H   0  0  0  0  0  0  0  0  0  0  0  0
  150.2936  137.7886  154.2571 H   0  0  0  0  0  0  0  0  0  0  0  0
  151.3635  137.7329  155.6264 H   0  0  0  0  0  0  0  0  0  0  0  0
  151.4556  135.6321  154.2960 H   0  0  0  0  0  0  0  0  0  0  0  0
  150.9091  135.2857  155.9223 H   0  0  0  0  0  0  0  0  0  0  0  0
  150.2781  133.6148  153.3373 H   0  0  0  0  0  0  0  0  0  0  0  0
  149.9603  133.2376  155.0105 H   0  0  0  0  0  0  0  0  0  0  0  0
  147.4374  133.2786  154.4296 H   0  0  0  0  0  0  0  0  0  0  0  0
  148.6550  131.0979  154.4906 H   0  0  0  0  0  0  0  0  0  0  0  0
  149.1219  131.3042  152.8049 H   0  0  0  0  0  0  0  0  0  0  0  0
  147.4239  131.1089  153.2343 H   0  0  0  0  0  0  0  0  0  0  0  0
  148.0988  134.5187  152.4096 H   0  0  0  0  0  0  0  0  0  0  0  0
  147.3067  135.1377  154.8574 H   0  0  0  0  0  0  0  0  0  0  0  0
  148.3245  134.9731  156.2678 H   0  0  0  0  0  0  0  0  0  0  0  0
  147.2428  137.2393  156.1558 H   0  0  0  0  0  0  0  0  0  0  0  0
  147.8981  137.4907  154.5734 H   0  0  0  0  0  0  0  0  0  0  0  0
  152.4510  140.4709  159.8734 H   0  0  0  0  0  0  0  0  0  0  0  0
  153.3673  141.5436  161.7526 H   0  0  0  0  0  0  0  0  0  0  0  0
  152.4562  142.9489  162.3009 H   0  0  0  0  0  0  0  0  0  0  0  0
  153.9980  143.1615  161.4572 H   0  0  0  0  0  0  0  0  0  0  0  0
  149.2265  135.6519  153.5582 H   0  0  0  0  0  0  0  0  0  0  0  0
  149.9393  143.1433  155.9101 H   0  0  0  0  0  0  0  0  0  0  0  0
  1  2  1  0  0  0  0
  1 26  1  0  0  0  0
  1 27  1  0  0  0  0
  1 28  1  0  0  0  0
  2 24  1  0  0  0  0
  2  3  2  0  0  0  0
  3  4  1  0  0  0  0
  3 29  1  0  0  0  0
  4 22  2  0  0  0  0
  4  5  1  0  0  0  0
  5  6  2  0  0  0  0
  5 57  1  0  0  0  0
  6  7  1  0  0  0  0
  6 30  1  0  0  0  0
  7  8  1  0  0  0  0
  7 22  1  0  0  0  0
  8  9  1  0  0  0  0
  8 31  1  0  0  0  0
  8 32  1  0  0  0  0
  9 10  1  0  0  0  0
  9 11  1  0  0  0  0
  9 33  1  0  0  0  0
 10 34  1  0  0  0  0
 11 12  1  0  0  0  0
 11 35  1  0  0  0  0
 11 36  1  0  0  0  0
 12 21  1  0  0  0  0
 12 13  1  0  0  0  0
 13 14  1  0  0  0  0
 13 37  1  0  0  0  0
 13 38  1  0  0  0  0
 14 15  1  0  0  0  0
 14 39  1  0  0  0  0
 14 40  1  0  0  0  0
 15 16  1  0  0  0  0
 15 20  1  0  0  0  0
 15 56  1  0  0  0  0
 16 17  1  0  0  0  0
 16 41  1  0  0  0  0
 16 42  1  0  0  0  0
 17 18  1  0  0  0  0
 17 19  1  0  0  0  0
 17 43  1  0  0  0  0
 18 44  1  0  0  0  0
 18 45  1  0  0  0  0
 18 46  1  0  0  0  0
 19 47  1  0  0  0  0
 20 21  1  0  0  0  0
 20 48  1  0  0  0  0
 20 49  1  0  0  0  0
 21 50  1  0  0  0  0
 21 51  1  0  0  0  0
 22 23  1  0  0  0  0
 23 24  2  0  0  0  0
 23 52  1  0  0  0  0
 24 25  1  0  0  0  0
 25 53  1  0  0  0  0
 25 54  1  0  0  0  0
 25 55  1  0  0  0  0
M  CHG  1   5   1
M  CHG  1  15   1
M  END
> <s_m_source_file>
AV-unprocessed.smi

> <i_m_source_file_index>
1033

> <i_lp_mmshare_version>
43012

> <i_f3d_flags>
0

> <s_epik_input>
W0NIM11jKFtjSF0xKWMoW0NIM10pW2NIXWMoYzEyKW4oW2NIXW4yKVtDSDJdW0NASF0oW09IXSlbQ0gyXU4zW0NIMl1bQ0gyXU4oW0NIMl1bQ0gyXTMpW0NIMl1bQ0BIXShbQ0gzXSlbT0hd

> <s_epik_cmdline>
J2VwaWtfcHl0aG9uJywgJy1waCcsICc3LjAnLCAnLXRuJywgJzgnLCAnLW1hJywgJzIwMCcsICctbWV0YWxfYmluZGluZycsICctaW1hZScsICc8aW5maWxlLm1hZT4nLCAnLW9tYWUnLCAnPG91dGZpbGUubWFlPic=

> <r_epik_Ionization_Penalty>
1.28617

> <r_epik_Ionization_Penalty_Charging>
1.23646

> <r_epik_Ionization_Penalty_Neutral>
0.0497112

> <r_epik_State_Penalty>
1.79157

> <r_epik_Charging_Adjusted_Penalty>
3.02803

> <i_epik_Tot_Q>
2

> <i_epik_Tot_abs_Q>
2

> <r_epik_Metal_State_Penalty>
5.81739

> <b_epik_Metal_Only>
0

> <s_lp_Force_Field>
OPLS_2005

> <r_lp_Energy>
39.1755

> <b_lp_Chiralities_Consistent>
1

> <s_lp_Variant>
AV-unprocessed.smi:1033-13

> <Gold.Version>
5.8.1

> <Gold.Id.Protein>
6NUR|6NUR_protein|mol2

> <Gold.PLP.Fitness>
59.1840

> <Gold.PLP.PLP>
-47.5738

> <Gold.PLP.part.hbond>
-3.6853

> <Gold.PLP.part.metal>
0.0000

> <Gold.PLP.part.buried>
-6.8318

> <Gold.PLP.part.nonpolar>
-37.2542

> <Gold.PLP.part.repulsive>
0.1249

> <Gold.PLP.ligand.clash>
0.0000

> <Gold.PLP.ligand.torsion>
1.7423

> <Gold.PLP.Chemscore.Hbond>
4.9840

> <Gold.PLP.Chemscore.CHOScore>
0.0000

> <Gold.PLP.Chemscore.Metal>
0.0000

> <Gold.Chemscore.Hbonds>
donor molecule, donor type, donor heavy atom, donor atom, acceptor molecule, acceptor atom, score
      L1  H     5    57       P1  8028  2.00
      L1  H    15    56       P1  7948  2.00
      L1  H    19    47       P1  7948  1.00

> <Gold.PLP.Chemscore.Internal.Correction>
0.1427

> <Gold.Rescore>
     Score         DG    S(hbond)    S(metal)    S(lipo)     H(rot)  DE(clash)    DE(int)     intcor
     18.59     -20.50       2.74        0.00     118.90       3.15       0.04       1.87       ----

> <Gold.Chemscore.Fitness>
18.5918

> <Gold.Chemscore.DG>
-20.4971

> <Gold.Chemscore.ZeroCoef>
-5.4800

> <Gold.Chemscore.Hbond>
2.7443

> <Gold.Chemscore.Metal>
0.0000

> <Gold.Chemscore.Lipo>
118.8968

> <Gold.Chemscore.Internal_Hbond>
0.0000

> <Gold.Chemscore.DEClash>
0.0370

> <Gold.Chemscore.DEInternal>
1.8683

> <Gold.Chemscore.Rot>
3.1483

> <Gold.Chemscore.Internal.Correction>
   9.000000E+99

> <Gold.Chemscore.Hbonds>
donor molecule, donor type, donor heavy atom, donor atom, acceptor molecule, acceptor atom, score
      L1  H     5    57       P1  8028  0.94
      L1  H    15    56       P1  7948  0.55
      L1  H    19    47       P1  7948  0.30

> <Gold.Chemscore.Hbond.Weighted>
-9.1658

> <Gold.Chemscore.Metal.Weighted>
-0.0000

> <Gold.Chemscore.Lipo.Weighted>
-13.9109

> <Gold.Chemscore.Internal_Hbond.Weighted>
0.0000

> <Gold.Chemscore.DEClash.Weighted>
0.0370

> <Gold.Chemscore.DEInternal.Weighted>
1.8683

> <Gold.Chemscore.Rot.Weighted>
8.0597

> <Gold.Chemscore.Internal.Correction.Weighted>
   9.000000E+99

> <Gold.Protein.RotatedTorsions>
[ 6907 6896 6895 6894 ] final  120.84 input  -60.11 | X-H torsion
[ 7974 7965 7964 7962 ] final -136.09 input  175.53 | X-H torsion
[ 8008 7997 7996 7995 ] final  117.64 input   59.86 | X-H torsion
[ 10167 10162 10161 10158 ] final   50.35 input  -65.29 | X-H torsion
[ 10718 10713 10712 10709 ] final -130.48 input   66.30 | X-H torsion
[ 10763 10752 10751 10750 ] final -114.27 input  -60.55 | X-H torsion
[ 11005 11000 10999 10996 ] final   88.67 input  -57.11 | X-H torsion

> <Gold.Protein.ActiveResidues>
 VAL166  LYS551  ARG553  GLY616  TRP617  ASP618  TYR619  PRO620  LYS621  CYS622 
 ASP623  PHE694  ASN695  SER759  ASP760  ASP761  ALA762  ILE779  LEU786  VAL792 
 PHE793  MET794  SER795  GLU796  ALA797  LYS798  CYS799  TRP800  GLU811  SER814 

> <Gold.Protein.RotatedAtoms>
  152.4367  133.7374  159.6621 H   0  0  0  0  0  0  0  0  0  0  0  0  # atno 6907 bound_to 6896
  150.8252  133.8173  159.3128 H   0  0  0  0  0  0  0  0  0  0  0  0  # atno 6908 bound_to 6896
  151.5844  135.1059  160.0076 H   0  0  0  0  0  0  0  0  0  0  0  0  # atno 6909 bound_to 6896
  144.8957  140.6703  143.5117 H   0  0  0  0  0  0  0  0  0  0  0  0  # atno 7974 bound_to 7965
  156.2505  140.2892  156.0711 H   0  0  0  0  0  0  0  0  0  0  0  0  # atno 8008 bound_to 7997
  155.1670  140.0401  157.2872 H   0  0  0  0  0  0  0  0  0  0  0  0  # atno 8009 bound_to 7997
  154.6352  140.2509  155.7393 H   0  0  0  0  0  0  0  0  0  0  0  0  # atno 8010 bound_to 7997
  140.2733  144.3240  150.6284 H   0  0  0  0  0  0  0  0  0  0  0  0  # atno 10167 bound_to 10162
  156.2149  130.6942  151.0691 H   0  0  0  0  0  0  0  0  0  0  0  0  # atno 10718 bound_to 10713
  154.8433  135.4424  154.1479 H   0  0  0  0  0  0  0  0  0  0  0  0  # atno 10763 bound_to 10752
  153.2648  135.6939  153.7547 H   0  0  0  0  0  0  0  0  0  0  0  0  # atno 10764 bound_to 10752
  153.6811  135.3403  155.3153 H   0  0  0  0  0  0  0  0  0  0  0  0  # atno 10765 bound_to 10752
  139.8891  134.8502  156.3033 H   0  0  0  0  0  0  0  0  0  0  0  0  # atno 11005 bound_to 11000
  145.3704  139.1660  143.4335 LP  0  0  0  0  0  0  0  0  0  0  0  0  # atno 17320 bound_to 7965
  146.3080  140.3776  142.8680 LP  0  0  0  0  0  0  0  0  0  0  0  0  # atno 17321 bound_to 7965
  140.5872  143.2169  151.7321 LP  0  0  0  0  0  0  0  0  0  0  0  0  # atno 17342 bound_to 10162
  139.4983  144.3993  152.0198 LP  0  0  0  0  0  0  0  0  0  0  0  0  # atno 17343 bound_to 10162
  157.7058  131.0757  150.6672 LP  0  0  0  0  0  0  0  0  0  0  0  0  # atno 17370 bound_to 10713
  156.6733  130.4546  149.5650 LP  0  0  0  0  0  0  0  0  0  0  0  0  # atno 17371 bound_to 10713
  140.9899  133.7215  156.0798 LP  0  0  0  0  0  0  0  0  0  0  0  0  # atno 17394 bound_to 11000
  140.7639  134.3908  157.5520 LP  0  0  0  0  0  0  0  0  0  0  0  0  # atno 17395 bound_to 11000

$$$$
