AV-unprocessed.smi:273|AV-procd|sdf|2054|dock6
  -GOLD-   2262021293D 1   1.00000     0.00000
 Structure written by MMmdl.
 59 62  0  0  0  0  0  0  0  0  1 V2000
  147.4239  128.7170  152.2355 C   0  0  0  0  0  0  0  0  0  0  0  0
  147.9163  128.7676  153.6850 C   0  0  0  0  0  0  0  0  0  0  0  0
  148.4589  130.0825  153.9955 N   0  0  0  0  0  0  0  0  0  0  0  0
  149.7240  130.3144  154.3801 C   0  0  0  0  0  0  0  0  0  0  0  0
  150.5526  129.4119  154.5016 O   0  0  0  0  0  0  0  0  0  0  0  0
  150.1428  131.7688  154.6672 C   0  0  0  0  0  0  0  0  0  0  0  0
  150.8461  131.8833  156.0363 C   0  0  0  0  0  0  0  0  0  0  0  0
  151.2951  133.3266  156.3182 C   0  0  0  0  0  0  0  0  0  0  0  0
  150.1757  134.2603  156.1847 N   0  0  0  0  0  0  0  0  0  0  0  0
  150.3170  135.5012  156.7179 C   0  0  0  0  0  0  0  0  0  0  0  0
  149.9276  135.7360  157.9999 N   0  0  0  0  0  0  0  0  0  0  0  0
  150.0665  136.9514  158.5373 C   0  0  0  0  0  0  0  0  0  0  0  0
  150.5593  138.0583  157.9795 N   0  0  0  0  0  0  0  0  0  0  0  0
  150.9449  137.8337  156.6912 C   0  0  0  0  0  0  0  0  0  0  0  0
  150.8604  136.5978  155.9893 C   0  0  0  0  0  0  0  0  0  0  0  0
  151.3375  136.7591  154.6935 N   0  0  0  0  0  0  0  0  0  0  0  0
  151.6959  138.0125  154.6375 C   0  0  0  0  0  0  0  0  0  0  0  0
  151.4764  138.7373  155.7869 N   0  0  0  0  0  0  0  0  0  0  0  0
  151.7824  140.1415  156.0025 C   0  0  0  0  0  0  0  0  0  0  0  0
  150.8513  140.8521  157.0191 C   0  0  2  0  0  0  0  0  0  0  0  0
  149.5314  141.2471  156.3165 C   0  0  0  0  0  0  0  0  0  0  0  0
  149.7689  142.0020  155.1456 O   0  0  0  0  0  0  0  0  0  0  0  0
  151.5064  142.0549  157.7598 C   0  0  2  0  0  0  0  0  0  0  0  0
  152.5413  141.7058  158.8180 C   0  0  0  0  0  0  0  0  0  0  0  0
  152.6042  142.9721  159.6652 C   0  0  0  0  0  0  0  0  0  0  0  0
  151.3184  143.5716  159.5703 O   0  0  0  0  0  0  0  0  0  0  0  0
  150.5309  142.8759  158.6117 C   0  0  0  0  0  0  0  0  0  0  0  0
  149.4872  134.2148  154.8958 C   0  0  0  0  0  0  0  0  0  0  0  0
  148.9861  132.7939  154.5948 C   0  0  0  0  0  0  0  0  0  0  0  0
  147.0239  127.7316  151.9966 H   0  0  0  0  0  0  0  0  0  0  0  0
  148.2339  128.9253  151.5356 H   0  0  0  0  0  0  0  0  0  0  0  0
  146.6332  129.4477  152.0621 H   0  0  0  0  0  0  0  0  0  0  0  0
  147.0933  128.5390  154.3639 H   0  0  0  0  0  0  0  0  0  0  0  0
  148.6867  128.0117  153.8439 H   0  0  0  0  0  0  0  0  0  0  0  0
  147.8318  130.8701  153.9172 H   0  0  0  0  0  0  0  0  0  0  0  0
  150.8671  132.0311  153.8944 H   0  0  0  0  0  0  0  0  0  0  0  0
  150.1682  131.5574  156.8269 H   0  0  0  0  0  0  0  0  0  0  0  0
  151.7135  131.2234  156.0813 H   0  0  0  0  0  0  0  0  0  0  0  0
  151.7129  133.3812  157.3245 H   0  0  0  0  0  0  0  0  0  0  0  0
  152.0866  133.6125  155.6240 H   0  0  0  0  0  0  0  0  0  0  0  0
  149.7343  137.0508  159.5602 H   0  0  0  0  0  0  0  0  0  0  0  0
  152.1234  138.4477  153.7460 H   0  0  0  0  0  0  0  0  0  0  0  0
  152.8217  140.2338  156.3193 H   0  0  0  0  0  0  0  0  0  0  0  0
  151.7166  140.6325  155.0309 H   0  0  0  0  0  0  0  0  0  0  0  0
  150.5726  140.1179  157.7759 H   0  0  0  0  0  0  0  0  0  0  0  0
  148.9647  140.3560  156.0447 H   0  0  0  0  0  0  0  0  0  0  0  0
  148.8874  141.8223  156.9813 H   0  0  0  0  0  0  0  0  0  0  0  0
  149.3761  142.8551  155.2523 H   0  0  0  0  0  0  0  0  0  0  0  0
  151.9715  142.7210  157.0314 H   0  0  0  0  0  0  0  0  0  0  0  0
  152.1993  140.8666  159.4253 H   0  0  0  0  0  0  0  0  0  0  0  0
  153.5183  141.4568  158.4071 H   0  0  0  0  0  0  0  0  0  0  0  0
  152.8709  142.7632  160.7013 H   0  0  0  0  0  0  0  0  0  0  0  0
  153.3403  143.6666  159.2591 H   0  0  0  0  0  0  0  0  0  0  0  0
  149.9404  143.5738  158.0179 H   0  0  0  0  0  0  0  0  0  0  0  0
  149.8423  142.2213  159.1478 H   0  0  0  0  0  0  0  0  0  0  0  0
  148.6462  134.9058  154.8621 H   0  0  0  0  0  0  0  0  0  0  0  0
  150.1819  134.5349  154.1180 H   0  0  0  0  0  0  0  0  0  0  0  0
  148.5222  132.7802  153.6076 H   0  0  0  0  0  0  0  0  0  0  0  0
  148.2063  132.5350  155.3131 H   0  0  0  0  0  0  0  0  0  0  0  0
  1  2  1  0  0  0  0
  1 30  1  0  0  0  0
  1 31  1  0  0  0  0
  1 32  1  0  0  0  0
  2  3  1  0  0  0  0
  2 33  1  0  0  0  0
  2 34  1  0  0  0  0
  3  4  1  0  0  0  0
  3 35  1  0  0  0  0
  4  5  2  0  0  0  0
  4  6  1  0  0  0  0
  6 29  1  0  0  0  0
  6  7  1  0  0  0  0
  6 36  1  0  0  0  0
  7  8  1  0  0  0  0
  7 37  1  0  0  0  0
  7 38  1  0  0  0  0
  8  9  1  0  0  0  0
  8 39  1  0  0  0  0
  8 40  1  0  0  0  0
  9 10  1  0  0  0  0
  9 28  1  0  0  0  0
 10 15  1  0  0  0  0
 10 11  2  0  0  0  0
 11 12  1  0  0  0  0
 12 13  2  0  0  0  0
 12 41  1  0  0  0  0
 13 14  1  0  0  0  0
 14 18  1  0  0  0  0
 14 15  2  0  0  0  0
 15 16  1  0  0  0  0
 16 17  2  0  0  0  0
 17 18  1  0  0  0  0
 17 42  1  0  0  0  0
 18 19  1  0  0  0  0
 19 20  1  0  0  0  0
 19 43  1  0  0  0  0
 19 44  1  0  0  0  0
 20 21  1  0  0  0  0
 20 23  1  0  0  0  0
 20 45  1  0  0  0  0
 21 22  1  0  0  0  0
 21 46  1  0  0  0  0
 21 47  1  0  0  0  0
 22 48  1  0  0  0  0
 23 27  1  0  0  0  0
 23 24  1  0  0  0  0
 23 49  1  0  0  0  0
 24 25  1  0  0  0  0
 24 50  1  0  0  0  0
 24 51  1  0  0  0  0
 25 26  1  0  0  0  0
 25 52  1  0  0  0  0
 25 53  1  0  0  0  0
 26 27  1  0  0  0  0
 27 54  1  0  0  0  0
 27 55  1  0  0  0  0
 28 29  1  0  0  0  0
 28 56  1  0  0  0  0
 28 57  1  0  0  0  0
 29 58  1  0  0  0  0
 29 59  1  0  0  0  0
M  END
> <s_m_source_file>
AV-unprocessed.smi

> <i_m_source_file_index>
273

> <i_lp_mmshare_version>
43012

> <i_f3d_flags>
0

> <s_epik_input>
W0NIM11bQ0gyXVtOSF1DKD1PKVtDSF0xW0NIMl1bQ0gyXU4oW0NIMl1bQ0gyXTEpYyhuW2NIXW4yKWMoYzIzKW5bY0hdbjNbQ0gyXVtDQEhdKFtDSDJdW09IXSlbQ0BASF00W0NIMl1bQ0gyXU9bQ0gyXTQ=

> <s_epik_cmdline>
J2VwaWtfcHl0aG9uJywgJy1waCcsICc3LjAnLCAnLXRuJywgJzgnLCAnLW1hJywgJzIwMCcsICctbWV0YWxfYmluZGluZycsICctaW1hZScsICc8aW5maWxlLm1hZT4nLCAnLW9tYWUnLCAnPG91dGZpbGUubWFlPic=

> <r_lp_tautomer_probability>
1

> <r_epik_Ionization_Penalty>
0.00226556

> <r_epik_Ionization_Penalty_Charging>
0

> <r_epik_Ionization_Penalty_Neutral>
0.00226556

> <r_epik_State_Penalty>
0.00139883

> <r_epik_Charging_Adjusted_Penalty>
0.00139883

> <i_epik_Tot_Q>
0

> <i_epik_Tot_abs_Q>
0

> <r_epik_Metal_State_Penalty>
-0

> <b_epik_Metal_Only>
0

> <s_lp_Force_Field>
OPLS_2005

> <r_lp_Energy>
46.1121

> <b_lp_Chiralities_Consistent>
1

> <s_lp_Variant>
AV-unprocessed.smi:273-1

> <Gold.Version>
5.8.1

> <Gold.Id.Protein>
6NUR|6NUR_protein|mol2

> <Gold.PLP.Fitness>
51.0418

> <Gold.PLP.PLP>
-44.7560

> <Gold.PLP.part.hbond>
-3.1793

> <Gold.PLP.part.metal>
0.0000

> <Gold.PLP.part.buried>
-8.1275

> <Gold.PLP.part.nonpolar>
-34.5584

> <Gold.PLP.part.repulsive>
0.2853

> <Gold.PLP.ligand.clash>
0.0000

> <Gold.PLP.ligand.torsion>
1.4492

> <Gold.PLP.Chemscore.Hbond>
2.8596

> <Gold.PLP.Chemscore.CHOScore>
0.0000

> <Gold.PLP.Chemscore.Metal>
0.0000

> <Gold.Chemscore.Hbonds>
donor molecule, donor type, donor heavy atom, donor atom, acceptor molecule, acceptor atom, score
      L1  H    22    48       P1  8028  1.00
      P1  H  6896  6909       L1    11  0.84
      P1  H 10752 10763       L1    16  1.00

> <Gold.PLP.Chemscore.Internal.Correction>
0.6055

> <Gold.Rescore>
     Score         DG    S(hbond)    S(metal)    S(lipo)     H(rot)  DE(clash)    DE(int)     intcor
     14.12     -16.71       2.45        0.00      96.51       3.22       0.00       2.59       ----

> <Gold.Chemscore.Fitness>
14.1243

> <Gold.Chemscore.DG>
-16.7130

> <Gold.Chemscore.ZeroCoef>
-5.4800

> <Gold.Chemscore.Hbond>
2.4539

> <Gold.Chemscore.Metal>
0.0000

> <Gold.Chemscore.Lipo>
96.5081

> <Gold.Chemscore.Internal_Hbond>
0.0000

> <Gold.Chemscore.DEClash>
0.0015

> <Gold.Chemscore.DEInternal>
2.5872

> <Gold.Chemscore.Rot>
3.2244

> <Gold.Chemscore.Internal.Correction>
   9.000000E+99

> <Gold.Chemscore.Hbonds>
donor molecule, donor type, donor heavy atom, donor atom, acceptor molecule, acceptor atom, score
      L1  H    22    48       P1  8028  0.98
      P1  H  6896  6909       L1    11  0.20
      P1  H 10752 10763       L1    16  0.51

> <Gold.Chemscore.Hbond.Weighted>
-8.1961

> <Gold.Chemscore.Metal.Weighted>
-0.0000

> <Gold.Chemscore.Lipo.Weighted>
-11.2914

> <Gold.Chemscore.Internal_Hbond.Weighted>
0.0000

> <Gold.Chemscore.DEClash.Weighted>
0.0015

> <Gold.Chemscore.DEInternal.Weighted>
2.5872

> <Gold.Chemscore.Rot.Weighted>
8.2545

> <Gold.Chemscore.Internal.Correction.Weighted>
   9.000000E+99

> <Gold.Protein.RotatedTorsions>
[ 6907 6896 6895 6894 ] final   48.75 input  -60.11 | X-H torsion
[ 7974 7965 7964 7962 ] final   73.05 input  175.53 | X-H torsion
[ 8008 7997 7996 7995 ] final -102.91 input   59.86 | X-H torsion
[ 10167 10162 10161 10158 ] final -141.27 input  -65.29 | X-H torsion
[ 10718 10713 10712 10709 ] final    0.19 input   66.30 | X-H torsion
[ 10763 10752 10751 10750 ] final   49.94 input  -60.55 | X-H torsion
[ 11005 11000 10999 10996 ] final  -93.35 input  -57.11 | X-H torsion

> <Gold.Protein.ActiveResidues>
 VAL166  LYS551  ARG553  GLY616  TRP617  ASP618  TYR619  PRO620  LYS621  CYS622 
 ASP623  PHE694  ASN695  SER759  ASP760  ASP761  ALA762  ILE779  LEU786  VAL792 
 PHE793  MET794  SER795  GLU796  ALA797  LYS798  CYS799  TRP800  GLU811  SER814 

> <Gold.Protein.RotatedAtoms>
  152.2830  134.7807  160.0392 H   0  0  0  0  0  0  0  0  0  0  0  0  # atno 6907 bound_to 6896
  151.8380  133.3414  159.3642 H   0  0  0  0  0  0  0  0  0  0  0  0  # atno 6908 bound_to 6896
  150.7197  134.5347  159.5762 H   0  0  0  0  0  0  0  0  0  0  0  0  # atno 6909 bound_to 6896
  145.7457  139.2739  143.1460 H   0  0  0  0  0  0  0  0  0  0  0  0  # atno 7974 bound_to 7965
  154.8634  140.0426  157.1679 H   0  0  0  0  0  0  0  0  0  0  0  0  # atno 8008 bound_to 7997
  154.8816  140.2973  155.5401 H   0  0  0  0  0  0  0  0  0  0  0  0  # atno 8009 bound_to 7997
  156.2999  140.2410  156.3819 H   0  0  0  0  0  0  0  0  0  0  0  0  # atno 8010 bound_to 7997
  139.8201  143.7586  152.2666 H   0  0  0  0  0  0  0  0  0  0  0  0  # atno 10167 bound_to 10162
  156.8297  130.5484  149.5688 H   0  0  0  0  0  0  0  0  0  0  0  0  # atno 10718 bound_to 10713
  152.9785  135.5895  154.4170 H   0  0  0  0  0  0  0  0  0  0  0  0  # atno 10763 bound_to 10752
  154.3799  135.2767  155.2219 H   0  0  0  0  0  0  0  0  0  0  0  0  # atno 10764 bound_to 10752
  154.4138  135.6075  153.6023 H   0  0  0  0  0  0  0  0  0  0  0  0  # atno 10765 bound_to 10752
  141.1499  133.7882  157.0147 H   0  0  0  0  0  0  0  0  0  0  0  0  # atno 11005 bound_to 11000
  146.0405  140.8169  142.9831 LP  0  0  0  0  0  0  0  0  0  0  0  0  # atno 17320 bound_to 7965
  144.6861  140.2903  143.7279 LP  0  0  0  0  0  0  0  0  0  0  0  0  # atno 17321 bound_to 7965
  139.7761  144.7460  151.0154 LP  0  0  0  0  0  0  0  0  0  0  0  0  # atno 17342 bound_to 10162
  140.7813  143.4592  151.0302 LP  0  0  0  0  0  0  0  0  0  0  0  0  # atno 17343 bound_to 10162
  156.0941  130.5919  150.9784 LP  0  0  0  0  0  0  0  0  0  0  0  0  # atno 17370 bound_to 10713
  157.6413  131.0910  150.8245 LP  0  0  0  0  0  0  0  0  0  0  0  0  # atno 17371 bound_to 10713
  140.0855  134.9623  157.1692 LP  0  0  0  0  0  0  0  0  0  0  0  0  # atno 17394 bound_to 11000
  140.3518  134.2590  155.7197 LP  0  0  0  0  0  0  0  0  0  0  0  0  # atno 17395 bound_to 11000

$$$$
