AV-unprocessed.smi:1406|AV-procd|sdf|5720|dock1
  -GOLD-   22720 5353D 1   1.00000     0.00000
 Structure written by MMmdl.
 41 43  0  0  0  0  0  0  0  0  2 V2000
  156.3338  139.2653  161.7383 C   0  0  0  0  0  0  0  0  0  0  0  0
  154.9064  138.8670  161.3112 C   0  0  1  0  0  0  0  0  0  0  0  0
  154.4612  139.5474  160.0064 C   0  0  0  0  0  0  0  0  0  0  0  0
  154.8599  139.1401  158.9147 O   0  0  0  0  0  0  0  0  0  0  0  0
  153.6294  140.5932  160.1361 N   0  0  0  0  0  0  0  0  0  0  0  0
  153.0676  141.3642  159.0313 C   0  0  1  0  0  0  0  0  0  0  0  0
  152.1077  140.5405  158.1549 C   0  0  0  0  0  0  0  0  0  0  0  0
  150.9792  141.5134  157.7591 C   0  0  0  0  0  0  0  0  0  0  0  0
  151.3740  142.8194  158.3199 N   0  3  1  0  0  0  0  0  0  0  0  0
  150.2930  143.7925  158.5885 C   0  0  0  0  0  0  0  0  0  0  0  0
  150.9121  145.1152  159.0831 C   0  0  0  0  0  0  0  0  0  0  0  0
  151.8532  144.8921  160.2844 C   0  0  0  0  0  0  0  0  0  0  0  0
  152.8977  143.8013  159.9789 C   0  0  0  0  0  0  0  0  0  0  0  0
  152.1857  142.5208  159.5097 C   0  0  2  0  0  0  0  0  0  0  0  0
  154.7502  137.4215  161.2073 N   0  0  0  0  0  0  0  0  0  0  0  0
  154.4535  136.6638  160.1490 C   0  0  0  0  0  0  0  0  0  0  0  0
  154.4351  135.3634  160.4054 N   0  0  0  0  0  0  0  0  0  0  0  0
  154.7587  135.3880  161.7324 C   0  0  0  0  0  0  0  0  0  0  0  0
  154.9678  136.5941  162.2600 N   0  0  0  0  0  0  0  0  0  0  0  0
  156.4199  140.3451  161.8647 H   0  0  0  0  0  0  0  0  0  0  0  0
  157.0819  138.9576  161.0064 H   0  0  0  0  0  0  0  0  0  0  0  0
  156.5965  138.8040  162.6908 H   0  0  0  0  0  0  0  0  0  0  0  0
  154.2293  139.2066  162.0969 H   0  0  0  0  0  0  0  0  0  0  0  0
  153.3510  140.8618  161.0689 H   0  0  0  0  0  0  0  0  0  0  0  0
  153.8633  141.7536  158.3925 H   0  0  0  0  0  0  0  0  0  0  0  0
  152.6221  140.1376  157.2817 H   0  0  0  0  0  0  0  0  0  0  0  0
  151.6889  139.6968  158.7054 H   0  0  0  0  0  0  0  0  0  0  0  0
  150.8475  141.5814  156.6789 H   0  0  0  0  0  0  0  0  0  0  0  0
  150.0339  141.1872  158.1959 H   0  0  0  0  0  0  0  0  0  0  0  0
  149.7186  143.9633  157.6774 H   0  0  0  0  0  0  0  0  0  0  0  0
  149.6055  143.3893  159.3337 H   0  0  0  0  0  0  0  0  0  0  0  0
  151.4733  145.5764  158.2691 H   0  0  0  0  0  0  0  0  0  0  0  0
  150.1244  145.8200  159.3509 H   0  0  0  0  0  0  0  0  0  0  0  0
  152.3513  145.8251  160.5503 H   0  0  0  0  0  0  0  0  0  0  0  0
  151.2651  144.5971  161.1547 H   0  0  0  0  0  0  0  0  0  0  0  0
  153.5885  144.1516  159.2105 H   0  0  0  0  0  0  0  0  0  0  0  0
  153.4940  143.6014  160.8694 H   0  0  0  0  0  0  0  0  0  0  0  0
  151.5234  142.1626  160.3017 H   0  0  0  0  0  0  0  0  0  0  0  0
  154.2508  137.0714  159.1693 H   0  0  0  0  0  0  0  0  0  0  0  0
  154.8496  134.4900  162.3254 H   0  0  0  0  0  0  0  0  0  0  0  0
  151.9990  143.2423  157.6484 H   0  0  0  0  0  0  0  0  0  0  0  0
  1  2  1  0  0  0  0
  1 20  1  0  0  0  0
  1 21  1  0  0  0  0
  1 22  1  0  0  0  0
  2  3  1  0  0  0  0
  2 15  1  0  0  0  0
  2 23  1  0  0  0  0
  3  4  2  0  0  0  0
  3  5  1  0  0  0  0
  5  6  1  0  0  0  0
  5 24  1  0  0  0  0
  6 14  1  0  0  0  0
  6  7  1  0  0  0  0
  6 25  1  0  0  0  0
  7  8  1  0  0  0  0
  7 26  1  0  0  0  0
  7 27  1  0  0  0  0
  8  9  1  0  0  0  0
  8 28  1  0  0  0  0
  8 29  1  0  0  0  0
  9 14  1  0  0  0  0
  9 10  1  0  0  0  0
  9 41  1  0  0  0  0
 10 11  1  0  0  0  0
 10 30  1  0  0  0  0
 10 31  1  0  0  0  0
 11 12  1  0  0  0  0
 11 32  1  0  0  0  0
 11 33  1  0  0  0  0
 12 13  1  0  0  0  0
 12 34  1  0  0  0  0
 12 35  1  0  0  0  0
 13 14  1  0  0  0  0
 13 36  1  0  0  0  0
 13 37  1  0  0  0  0
 14 38  1  0  0  0  0
 15 19  1  0  0  0  0
 15 16  1  0  0  0  0
 16 17  2  0  0  0  0
 16 39  1  0  0  0  0
 17 18  1  0  0  0  0
 18 19  2  0  0  0  0
 18 40  1  0  0  0  0
M  CHG  1   9   1
M  END
> <s_m_source_file>
AV-unprocessed.smi

> <i_m_source_file_index>
1406

> <i_lp_mmshare_version>
43012

> <i_f3d_flags>
0

> <s_epik_input>
bjFbY0hdbltjSF1uMVtDQEhdKFtDSDNdKUMoPU8pW05IXVtDQEhdKFtDSDJdW0NIMl0yKVtDQEBIXShOMjMpW0NIMl1bQ0gyXVtDSDJdW0NIMl0z

> <s_epik_cmdline>
J2VwaWtfcHl0aG9uJywgJy1waCcsICc3LjAnLCAnLXRuJywgJzgnLCAnLW1hJywgJzIwMCcsICctbWV0YWxfYmluZGluZycsICctaW1hZScsICc8aW5maWxlLm1hZT4nLCAnLW9tYWUnLCAnPG91dGZpbGUubWFlPic=

> <r_lp_tautomer_probability>
1

> <r_epik_Ionization_Penalty>
0.00197066

> <r_epik_Ionization_Penalty_Charging>
0.00196223

> <r_epik_Ionization_Penalty_Neutral>
8.43107e-06

> <r_epik_State_Penalty>
0.00133866

> <r_epik_Charging_Adjusted_Penalty>
0.00330089

> <i_epik_Tot_Q>
1

> <i_epik_Tot_abs_Q>
1

> <r_epik_Metal_State_Penalty>
-0

> <b_epik_Metal_Only>
0

> <s_lp_Force_Field>
OPLS_2005

> <r_lp_Energy>
39.8871

> <b_lp_Chiralities_Consistent>
1

> <s_lp_Variant>
AV-unprocessed.smi:1406-12

> <Gold.Version>
5.8.1

> <Gold.Id.Protein>
6NUR|6NUR_protein|mol2

> <Gold.PLP.Fitness>
37.4322

> <Gold.PLP.PLP>
-32.2070

> <Gold.PLP.part.hbond>
-2.0000

> <Gold.PLP.part.metal>
0.0000

> <Gold.PLP.part.buried>
-5.6000

> <Gold.PLP.part.nonpolar>
-24.5583

> <Gold.PLP.part.repulsive>
0.1098

> <Gold.PLP.ligand.clash>
0.0000

> <Gold.PLP.ligand.torsion>
0.4412

> <Gold.PLP.Chemscore.Hbond>
2.0000

> <Gold.PLP.Chemscore.CHOScore>
0.0000

> <Gold.PLP.Chemscore.Metal>
0.0000

> <Gold.Chemscore.Hbonds>
donor molecule, donor type, donor heavy atom, donor atom, acceptor molecule, acceptor atom, score
      P1  H  6896  6907       L1    17  0.75
      P1  H  7997  8008       L1     4  1.00

> <Gold.PLP.Chemscore.Internal.Correction>
0.1075

> <Gold.Rescore>
     Score         DG    S(hbond)    S(metal)    S(lipo)     H(rot)  DE(clash)    DE(int)     intcor
     15.74     -17.50       1.94        0.00      88.62       1.89       0.04       1.72       ----

> <Gold.Chemscore.Fitness>
15.7429

> <Gold.Chemscore.DG>
-17.4998

> <Gold.Chemscore.ZeroCoef>
-5.4800

> <Gold.Chemscore.Hbond>
1.9404

> <Gold.Chemscore.Metal>
0.0000

> <Gold.Chemscore.Lipo>
88.6197

> <Gold.Chemscore.Internal_Hbond>
0.0000

> <Gold.Chemscore.DEClash>
0.0402

> <Gold.Chemscore.DEInternal>
1.7166

> <Gold.Chemscore.Rot>
1.8865

> <Gold.Chemscore.Internal.Correction>
   9.000000E+99

> <Gold.Chemscore.Hbonds>
donor molecule, donor type, donor heavy atom, donor atom, acceptor molecule, acceptor atom, score
      P1  H  6896  6907       L1    17  0.56
      P1  H  7997  8008       L1     4  1.00

> <Gold.Chemscore.Hbond.Weighted>
-6.4808

> <Gold.Chemscore.Metal.Weighted>
-0.0000

> <Gold.Chemscore.Lipo.Weighted>
-10.3685

> <Gold.Chemscore.Internal_Hbond.Weighted>
0.0000

> <Gold.Chemscore.DEClash.Weighted>
0.0402

> <Gold.Chemscore.DEInternal.Weighted>
1.7166

> <Gold.Chemscore.Rot.Weighted>
4.8295

> <Gold.Chemscore.Internal.Correction.Weighted>
   9.000000E+99

> <Gold.Protein.RotatedTorsions>
[ 6907 6896 6895 6894 ] final   75.48 input  -60.11 | X-H torsion
[ 7974 7965 7964 7962 ] final    5.31 input  175.53 | X-H torsion
[ 8008 7997 7996 7995 ] final -125.62 input   59.86 | X-H torsion
[ 10167 10162 10161 10158 ] final  -44.85 input  -65.29 | X-H torsion
[ 10718 10713 10712 10709 ] final   44.18 input   66.30 | X-H torsion
[ 10763 10752 10751 10750 ] final  -52.92 input  -60.55 | X-H torsion
[ 11005 11000 10999 10996 ] final   83.56 input  -57.11 | X-H torsion

> <Gold.Protein.ActiveResidues>
 VAL166  LYS551  ARG553  GLY616  TRP617  ASP618  TYR619  PRO620  LYS621  CYS622 
 ASP623  PHE694  ASN695  SER759  ASP760  ASP761  ALA762  ILE779  LEU786  VAL792 
 PHE793  MET794  SER795  GLU796  ALA797  LYS798  CYS799  TRP800  GLU811  SER814 

> <Gold.Protein.RotatedAtoms>
  152.5028  134.4114  159.9449 H   0  0  0  0  0  0  0  0  0  0  0  0  # atno 6907 bound_to 6896
  151.4082  133.3729  159.2748 H   0  0  0  0  0  0  0  0  0  0  0  0  # atno 6908 bound_to 6896
  150.9311  134.8747  159.7611 H   0  0  0  0  0  0  0  0  0  0  0  0  # atno 6909 bound_to 6896
  146.2441  140.0403  142.8382 H   0  0  0  0  0  0  0  0  0  0  0  0  # atno 7974 bound_to 7965
  155.2162  140.0420  157.2941 H   0  0  0  0  0  0  0  0  0  0  0  0  # atno 8008 bound_to 7997
  154.5979  140.2444  155.7803 H   0  0  0  0  0  0  0  0  0  0  0  0  # atno 8009 bound_to 7997
  156.2302  140.2941  156.0178 H   0  0  0  0  0  0  0  0  0  0  0  0  # atno 8010 bound_to 7997
  140.6881  143.2909  151.3555 H   0  0  0  0  0  0  0  0  0  0  0  0  # atno 10167 bound_to 10162
  157.4240  130.7986  149.7542 H   0  0  0  0  0  0  0  0  0  0  0  0  # atno 10718 bound_to 10713
  154.1506  135.6490  153.4962 H   0  0  0  0  0  0  0  0  0  0  0  0  # atno 10763 bound_to 10752
  153.0139  135.5337  154.6812 H   0  0  0  0  0  0  0  0  0  0  0  0  # atno 10764 bound_to 10752
  154.6099  135.2953  155.0415 H   0  0  0  0  0  0  0  0  0  0  0  0  # atno 10765 bound_to 10752
  139.9027  134.8154  156.2326 H   0  0  0  0  0  0  0  0  0  0  0  0  # atno 11005 bound_to 11000
  145.1075  140.9384  143.4676 LP  0  0  0  0  0  0  0  0  0  0  0  0  # atno 17320 bound_to 7965
  145.0609  139.3106  143.5880 LP  0  0  0  0  0  0  0  0  0  0  0  0  # atno 17321 bound_to 7965
  139.6257  144.0818  152.2432 LP  0  0  0  0  0  0  0  0  0  0  0  0  # atno 17342 bound_to 10162
  140.0277  144.6105  150.7514 LP  0  0  0  0  0  0  0  0  0  0  0  0  # atno 17343 bound_to 10162
  155.9890  130.3955  150.3092 LP  0  0  0  0  0  0  0  0  0  0  0  0  # atno 17370 bound_to 10713
  157.1242  131.0255  151.2996 LP  0  0  0  0  0  0  0  0  0  0  0  0  # atno 17371 bound_to 10713
  141.0336  133.6975  156.1472 LP  0  0  0  0  0  0  0  0  0  0  0  0  # atno 17394 bound_to 11000
  140.7061  134.4512  157.5584 LP  0  0  0  0  0  0  0  0  0  0  0  0  # atno 17395 bound_to 11000

$$$$
