AV-unprocessed.smi:2936|AV-procd|sdf|11258|dock8
  -GOLD-   2272016153D 1   1.00000     0.00000
 Structure written by MMmdl.
 24 25  0  0  0  0  0  0  0  0  1 V2000
  151.4066  138.1645  154.4963 O   0  0  0  0  0  0  0  0  0  0  0  0
  150.9182  139.2697  154.7230 C   0  0  0  0  0  0  0  0  0  0  0  0
  150.0839  139.8680  153.8396 N   0  0  0  0  0  0  0  0  0  0  0  0
  149.4791  141.0935  153.9841 N   0  0  0  0  0  0  0  0  0  0  0  0
  149.7116  141.7672  155.0582 C   0  0  0  0  0  0  0  0  0  0  0  0
  150.5838  141.2856  156.1181 C   0  0  0  0  0  0  0  0  0  0  0  0
  150.7951  142.0594  157.2491 N   0  0  0  0  0  0  0  0  0  0  0  0
  151.1487  143.4706  157.2013 C   0  0  0  0  0  0  0  0  0  0  0  0
  152.4435  143.7232  157.9939 C   0  0  0  0  0  0  0  0  0  0  0  0
  152.2900  143.2374  159.3250 O   0  0  0  0  0  0  0  0  0  0  0  0
  152.0296  141.8366  159.3615 C   0  0  0  0  0  0  0  0  0  0  0  0
  150.7230  141.5364  158.6055 C   0  0  0  0  0  0  0  0  0  0  0  0
  151.1616  140.0648  155.9349 C   0  0  0  0  0  0  0  0  0  0  0  0
  152.2150  139.3901  157.1312 Cl  0  0  0  0  0  0  0  0  0  0  0  0
  149.8598  139.3953  152.9759 H   0  0  0  0  0  0  0  0  0  0  0  0
  149.2610  142.7453  155.2291 H   0  0  0  0  0  0  0  0  0  0  0  0
  151.2720  143.7916  156.1664 H   0  0  0  0  0  0  0  0  0  0  0  0
  150.3292  144.0545  157.6216 H   0  0  0  0  0  0  0  0  0  0  0  0
  153.2977  143.2418  157.5162 H   0  0  0  0  0  0  0  0  0  0  0  0
  152.6599  144.7910  158.0280 H   0  0  0  0  0  0  0  0  0  0  0  0
  152.8682  141.2886  158.9300 H   0  0  0  0  0  0  0  0  0  0  0  0
  151.9434  141.5183  160.4004 H   0  0  0  0  0  0  0  0  0  0  0  0
  149.8767  141.9956  159.1172 H   0  0  0  0  0  0  0  0  0  0  0  0
  150.5390  140.4617  158.5839 H   0  0  0  0  0  0  0  0  0  0  0  0
  1  2  2  0  0  0  0
  2 13  1  0  0  0  0
  2  3  1  0  0  0  0
  3 15  1  0  0  0  0
  3  4  1  0  0  0  0
  4  5  2  0  0  0  0
  5  6  1  0  0  0  0
  5 16  1  0  0  0  0
  6  7  1  0  0  0  0
  6 13  2  0  0  0  0
  7 12  1  0  0  0  0
  7  8  1  0  0  0  0
  8  9  1  0  0  0  0
  8 17  1  0  0  0  0
  8 18  1  0  0  0  0
  9 10  1  0  0  0  0
  9 19  1  0  0  0  0
  9 20  1  0  0  0  0
 10 11  1  0  0  0  0
 11 12  1  0  0  0  0
 11 21  1  0  0  0  0
 11 22  1  0  0  0  0
 12 23  1  0  0  0  0
 12 24  1  0  0  0  0
 13 14  1  0  0  0  0
M  END
> <s_m_source_file>
AV-unprocessed.smi

> <i_m_source_file_index>
2936

> <i_lp_mmshare_version>
43012

> <i_f3d_flags>
0

> <s_epik_input>
Tz1jMVtuSF1uW2NIXWMoYzFDbClOMltDSDJdW0NIMl1PW0NIMl1bQ0gyXTI=

> <s_epik_cmdline>
J2VwaWtfcHl0aG9uJywgJy1waCcsICc3LjAnLCAnLXRuJywgJzgnLCAnLW1hJywgJzIwMCcsICctbWV0YWxfYmluZGluZycsICctaW1hZScsICc8aW5maWxlLm1hZT4nLCAnLW9tYWUnLCAnPG91dGZpbGUubWFlPic=

> <r_lp_tautomer_probability>
0.986175

> <r_epik_Ionization_Penalty>
0.0102925

> <r_epik_Ionization_Penalty_Charging>
0.0102925

> <r_epik_Ionization_Penalty_Neutral>
4.87729e-09

> <r_epik_State_Penalty>
1.65855

> <r_epik_Charging_Adjusted_Penalty>
1.66884

> <i_epik_Tot_Q>
0

> <i_epik_Tot_abs_Q>
0

> <r_epik_Metal_State_Penalty>
3.9956

> <b_epik_Metal_Only>
0

> <s_lp_Force_Field>
OPLS_2005

> <r_lp_Energy>
35.1147

> <b_lp_Chiralities_Consistent>
1

> <s_lp_Variant>
AV-unprocessed.smi:2936-2

> <Gold.Version>
5.8.1

> <Gold.Id.Protein>
6NUR|6NUR_protein|mol2

> <Gold.PLP.Fitness>
31.6446

> <Gold.PLP.PLP>
-24.7053

> <Gold.PLP.part.hbond>
-3.0000

> <Gold.PLP.part.metal>
0.0000

> <Gold.PLP.part.buried>
-0.1763

> <Gold.PLP.part.nonpolar>
-22.8533

> <Gold.PLP.part.repulsive>
3.7941

> <Gold.PLP.ligand.clash>
0.0000

> <Gold.PLP.ligand.torsion>
0.8243

> <Gold.PLP.Chemscore.Hbond>
1.3459

> <Gold.PLP.Chemscore.CHOScore>
1.0000

> <Gold.PLP.Chemscore.Metal>
0.0000

> <Gold.Chemscore.Hbonds>
donor molecule, donor type, donor heavy atom, donor atom, acceptor molecule, acceptor atom, score
      L1  H     3    15       P1  7957  0.66
      P1  H  8011  8017       L1     4  0.63
      L1  C     5    16       P1  8028  1.00

> <Gold.PLP.Chemscore.Internal.Correction>
1.5501

> <Gold.Rescore>
     Score         DG    S(hbond)    S(metal)    S(lipo)     H(rot)  DE(clash)    DE(int)     intcor
     12.86     -15.42       0.83        0.00      61.31       0.00       0.72       1.85       ----

> <Gold.Chemscore.Fitness>
12.8607

> <Gold.Chemscore.DG>
-15.4239

> <Gold.Chemscore.ZeroCoef>
-5.4800

> <Gold.Chemscore.Hbond>
0.8296

> <Gold.Chemscore.Metal>
0.0000

> <Gold.Chemscore.Lipo>
61.3084

> <Gold.Chemscore.Internal_Hbond>
0.0000

> <Gold.Chemscore.DEClash>
0.7152

> <Gold.Chemscore.DEInternal>
1.8480

> <Gold.Chemscore.Rot>
0.0000

> <Gold.Chemscore.Internal.Correction>
   9.000000E+99

> <Gold.Chemscore.Hbonds>
donor molecule, donor type, donor heavy atom, donor atom, acceptor molecule, acceptor atom, score
      L1  H     3    15       P1  7957  0.65
      P1  H  8011  8017       L1     4  0.33

> <Gold.Chemscore.Hbond.Weighted>
-2.7708

> <Gold.Chemscore.Metal.Weighted>
-0.0000

> <Gold.Chemscore.Lipo.Weighted>
-7.1731

> <Gold.Chemscore.Internal_Hbond.Weighted>
0.0000

> <Gold.Chemscore.DEClash.Weighted>
0.7152

> <Gold.Chemscore.DEInternal.Weighted>
1.8480

> <Gold.Chemscore.Rot.Weighted>
0.0000

> <Gold.Chemscore.Internal.Correction.Weighted>
   9.000000E+99

> <Gold.Protein.RotatedTorsions>
[ 6907 6896 6895 6894 ] final  -96.30 input  -60.11 | X-H torsion
[ 7974 7965 7964 7962 ] final  172.90 input  175.53 | X-H torsion
[ 8008 7997 7996 7995 ] final  136.36 input   59.86 | X-H torsion
[ 10167 10162 10161 10158 ] final  -39.37 input  -65.29 | X-H torsion
[ 10718 10713 10712 10709 ] final  165.28 input   66.30 | X-H torsion
[ 10763 10752 10751 10750 ] final   93.41 input  -60.55 | X-H torsion
[ 11005 11000 10999 10996 ] final   14.08 input  -57.11 | X-H torsion

> <Gold.Protein.ActiveResidues>
 VAL166  LYS551  ARG553  GLY616  TRP617  ASP618  TYR619  PRO620  LYS621  CYS622 
 ASP623  PHE694  ASN695  SER759  ASP760  ASP761  ALA762  ILE779  LEU786  VAL792 
 PHE793  MET794  SER795  GLU796  ALA797  LYS798  CYS799  TRP800  GLU811  SER814 

> <Gold.Protein.RotatedAtoms>
  150.6985  134.1525  159.4145 H   0  0  0  0  0  0  0  0  0  0  0  0  # atno 6907 bound_to 6896
  151.9507  135.0168  160.0551 H   0  0  0  0  0  0  0  0  0  0  0  0  # atno 6908 bound_to 6896
  152.2013  133.4808  159.5097 H   0  0  0  0  0  0  0  0  0  0  0  0  # atno 6909 bound_to 6896
  144.7257  139.9567  143.6433 H   0  0  0  0  0  0  0  0  0  0  0  0  # atno 7974 bound_to 7965
  156.3004  140.2447  156.3732 H   0  0  0  0  0  0  0  0  0  0  0  0  # atno 8008 bound_to 7997
  154.8769  140.0414  157.1778 H   0  0  0  0  0  0  0  0  0  0  0  0  # atno 8009 bound_to 7997
  154.8737  140.2939  155.5470 H   0  0  0  0  0  0  0  0  0  0  0  0  # atno 8010 bound_to 7997
  140.7066  143.3219  151.2772 H   0  0  0  0  0  0  0  0  0  0  0  0  # atno 10167 bound_to 10162
  157.0824  131.0395  151.2570 H   0  0  0  0  0  0  0  0  0  0  0  0  # atno 10718 bound_to 10713
  153.2300  135.4326  155.0584 H   0  0  0  0  0  0  0  0  0  0  0  0  # atno 10763 bound_to 10752
  154.8292  135.3377  154.6802 H   0  0  0  0  0  0  0  0  0  0  0  0  # atno 10764 bound_to 10752
  153.7229  135.7016  153.5064 H   0  0  0  0  0  0  0  0  0  0  0  0  # atno 10765 bound_to 10752
  140.4735  134.1007  155.7737 H   0  0  0  0  0  0  0  0  0  0  0  0  # atno 11005 bound_to 11000
  146.0669  139.3660  143.0547 LP  0  0  0  0  0  0  0  0  0  0  0  0  # atno 17320 bound_to 7965
  145.8019  140.9767  143.0994 LP  0  0  0  0  0  0  0  0  0  0  0  0  # atno 17321 bound_to 7965
  139.6675  144.0079  152.2732 LP  0  0  0  0  0  0  0  0  0  0  0  0  # atno 17342 bound_to 10162
  139.9667  144.6522  150.8028 LP  0  0  0  0  0  0  0  0  0  0  0  0  # atno 17343 bound_to 10162
  157.4789  130.7753  149.7395 LP  0  0  0  0  0  0  0  0  0  0  0  0  # atno 17370 bound_to 10713
  155.9920  130.3934  150.2960 LP  0  0  0  0  0  0  0  0  0  0  0  0  # atno 17371 bound_to 10713
  141.1565  133.8872  157.1962 LP  0  0  0  0  0  0  0  0  0  0  0  0  # atno 17394 bound_to 11000
  139.9870  135.0078  156.9886 LP  0  0  0  0  0  0  0  0  0  0  0  0  # atno 17395 bound_to 11000

$$$$
