AV-unprocessed.smi:232|AV-procd|sdf|1779|dock8
  -GOLD-   2262020323D 1   1.00000     0.00000
 Structure written by MMmdl.
 52 55  0  0  0  0  0  0  0  0  1 V2000
  151.4939  144.8385  158.2524 C   0  0  0  0  0  0  0  0  0  0  0  0
  151.7856  143.4145  157.7599 C   0  0  0  0  0  0  0  0  0  0  0  0
  151.8239  142.3725  158.8927 C   0  0  2  0  0  0  0  0  0  0  0  0
  152.2760  142.9616  160.2411 C   0  0  0  0  0  0  0  0  0  0  0  0
  153.1079  141.8487  160.8704 C   0  0  0  0  0  0  0  0  0  0  0  0
  153.7738  141.2429  159.6394 C   0  0  1  0  0  0  0  0  0  0  0  0
  154.4786  139.8934  159.8835 C   0  0  0  0  0  0  0  0  0  0  0  0
  152.7438  141.2667  158.5982 N   0  0  0  0  0  0  0  0  0  0  0  0
  152.1715  140.0896  158.2476 C   0  0  0  0  0  0  0  0  0  0  0  0
  151.5439  139.3208  159.1771 N   0  0  0  0  0  0  0  0  0  0  0  0
  150.9886  138.1591  158.8176 C   0  0  0  0  0  0  0  0  0  0  0  0
  150.9512  137.5888  157.6108 N   0  0  0  0  0  0  0  0  0  0  0  0
  151.5907  138.3557  156.6816 C   0  0  0  0  0  0  0  0  0  0  0  0
  152.2258  139.6067  156.9146 C   0  0  0  0  0  0  0  0  0  0  0  0
  152.7743  140.0925  155.7346 N   0  0  0  0  0  0  0  0  0  0  0  0
  152.4746  139.1806  154.8497 C   0  0  0  0  0  0  0  0  0  0  0  0
  151.7609  138.1065  155.3321 N   0  0  0  0  0  0  0  0  0  0  0  0
  151.2862  136.9632  154.5740 C   0  0  0  0  0  0  0  0  0  0  0  0
  149.8078  136.6433  154.8676 C   0  0  1  0  0  0  0  0  0  0  0  0
  148.9598  137.3439  153.9770 O   0  0  0  0  0  0  0  0  0  0  0  0
  149.5022  135.1327  154.8264 C   0  0  1  0  0  0  0  0  0  0  0  0
  149.7215  134.4302  153.4837 C   0  0  0  0  0  0  0  0  0  0  0  0
  149.9205  132.9988  153.9290 C   0  0  0  0  0  0  0  0  0  0  0  0
  150.7211  133.1822  155.2156 C   0  0  0  0  0  0  0  0  0  0  0  0
  150.2701  134.4085  155.7851 O   0  0  0  0  0  0  0  0  0  0  0  0
  151.5381  145.5497  157.4275 H   0  0  0  0  0  0  0  0  0  0  0  0
  152.2210  145.1526  159.0015 H   0  0  0  0  0  0  0  0  0  0  0  0
  150.5013  144.9119  158.6966 H   0  0  0  0  0  0  0  0  0  0  0  0
  151.0472  143.1257  157.0109 H   0  0  0  0  0  0  0  0  0  0  0  0
  152.7504  143.4192  157.2516 H   0  0  0  0  0  0  0  0  0  0  0  0
  150.8095  141.9971  159.0309 H   0  0  0  0  0  0  0  0  0  0  0  0
  152.9091  143.8358  160.0818 H   0  0  0  0  0  0  0  0  0  0  0  0
  151.4386  143.2686  160.8682 H   0  0  0  0  0  0  0  0  0  0  0  0
  153.8244  142.2173  161.6048 H   0  0  0  0  0  0  0  0  0  0  0  0
  152.4598  141.1179  161.3565 H   0  0  0  0  0  0  0  0  0  0  0  0
  154.5415  141.9402  159.3005 H   0  0  0  0  0  0  0  0  0  0  0  0
  155.2698  140.0038  160.6252 H   0  0  0  0  0  0  0  0  0  0  0  0
  154.9388  139.5165  158.9695 H   0  0  0  0  0  0  0  0  0  0  0  0
  153.7903  139.1334  160.2548 H   0  0  0  0  0  0  0  0  0  0  0  0
  150.5041  137.6085  159.6103 H   0  0  0  0  0  0  0  0  0  0  0  0
  152.7615  139.2702  153.8121 H   0  0  0  0  0  0  0  0  0  0  0  0
  151.4336  137.1642  153.5121 H   0  0  0  0  0  0  0  0  0  0  0  0
  151.9144  136.1062  154.8204 H   0  0  0  0  0  0  0  0  0  0  0  0
  149.5700  137.0040  155.8693 H   0  0  0  0  0  0  0  0  0  0  0  0
  149.0781  136.9854  153.1106 H   0  0  0  0  0  0  0  0  0  0  0  0
  148.4583  134.9869  155.1097 H   0  0  0  0  0  0  0  0  0  0  0  0
  148.8831  134.5535  152.7977 H   0  0  0  0  0  0  0  0  0  0  0  0
  150.6242  134.7846  152.9850 H   0  0  0  0  0  0  0  0  0  0  0  0
  148.9569  132.5363  154.1473 H   0  0  0  0  0  0  0  0  0  0  0  0
  150.4359  132.3859  153.1891 H   0  0  0  0  0  0  0  0  0  0  0  0
  150.5953  132.3500  155.9083 H   0  0  0  0  0  0  0  0  0  0  0  0
  151.7838  133.2774  154.9895 H   0  0  0  0  0  0  0  0  0  0  0  0
  1  2  1  0  0  0  0
  1 26  1  0  0  0  0
  1 27  1  0  0  0  0
  1 28  1  0  0  0  0
  2  3  1  0  0  0  0
  2 29  1  0  0  0  0
  2 30  1  0  0  0  0
  3  8  1  0  0  0  0
  3  4  1  0  0  0  0
  3 31  1  0  0  0  0
  4  5  1  0  0  0  0
  4 32  1  0  0  0  0
  4 33  1  0  0  0  0
  5  6  1  0  0  0  0
  5 34  1  0  0  0  0
  5 35  1  0  0  0  0
  6  7  1  0  0  0  0
  6  8  1  0  0  0  0
  6 36  1  0  0  0  0
  7 37  1  0  0  0  0
  7 38  1  0  0  0  0
  7 39  1  0  0  0  0
  8  9  1  0  0  0  0
  9 14  1  0  0  0  0
  9 10  2  0  0  0  0
 10 11  1  0  0  0  0
 11 12  2  0  0  0  0
 11 40  1  0  0  0  0
 12 13  1  0  0  0  0
 13 17  1  0  0  0  0
 13 14  2  0  0  0  0
 14 15  1  0  0  0  0
 15 16  2  0  0  0  0
 16 17  1  0  0  0  0
 16 41  1  0  0  0  0
 17 18  1  0  0  0  0
 18 19  1  0  0  0  0
 18 42  1  0  0  0  0
 18 43  1  0  0  0  0
 19 20  1  0  0  0  0
 19 21  1  0  0  0  0
 19 44  1  0  0  0  0
 20 45  1  0  0  0  0
 21 25  1  0  0  0  0
 21 22  1  0  0  0  0
 21 46  1  0  0  0  0
 22 23  1  0  0  0  0
 22 47  1  0  0  0  0
 22 48  1  0  0  0  0
 23 24  1  0  0  0  0
 23 49  1  0  0  0  0
 23 50  1  0  0  0  0
 24 25  1  0  0  0  0
 24 51  1  0  0  0  0
 24 52  1  0  0  0  0
M  END
> <s_m_source_file>
AV-unprocessed.smi

> <i_m_source_file_index>
232

> <i_lp_mmshare_version>
43012

> <i_f3d_flags>
0

> <s_epik_input>
W0NIM11bQ0gyXVtDQEBIXTFbQ0gyXVtDSDJdW0NAQEhdKFtDSDNdKU4xYyhuW2NIXW4yKWMoYzIzKW5bY0hdbjNbQ0gyXVtDQEhdKFtPSF0pW0NAQEhdNFtDSDJdW0NIMl1bQ0gyXU80

> <s_epik_cmdline>
J2VwaWtfcHl0aG9uJywgJy1waCcsICc3LjAnLCAnLXRuJywgJzgnLCAnLW1hJywgJzIwMCcsICctbWV0YWxfYmluZGluZycsICctaW1hZScsICc8aW5maWxlLm1hZT4nLCAnLW9tYWUnLCAnPG91dGZpbGUubWFlPic=

> <r_lp_tautomer_probability>
1

> <r_epik_Ionization_Penalty>
0.00258048

> <r_epik_Ionization_Penalty_Charging>
0

> <r_epik_Ionization_Penalty_Neutral>
0.00258048

> <r_epik_State_Penalty>
0.00168551

> <r_epik_Charging_Adjusted_Penalty>
0.00168551

> <i_epik_Tot_Q>
0

> <i_epik_Tot_abs_Q>
0

> <r_epik_Metal_State_Penalty>
-0

> <b_epik_Metal_Only>
0

> <s_lp_Force_Field>
OPLS_2005

> <r_lp_Energy>
58.3384

> <b_lp_Chiralities_Consistent>
1

> <s_lp_Variant>
AV-unprocessed.smi:232-13

> <Gold.Version>
5.8.1

> <Gold.Id.Protein>
6NUR|6NUR_protein|mol2

> <Gold.PLP.Fitness>
47.7771

> <Gold.PLP.PLP>
-43.7693

> <Gold.PLP.part.hbond>
-2.0000

> <Gold.PLP.part.metal>
0.0000

> <Gold.PLP.part.buried>
-3.9503

> <Gold.PLP.part.nonpolar>
-36.6244

> <Gold.PLP.part.repulsive>
0.0000

> <Gold.PLP.ligand.clash>
0.0000

> <Gold.PLP.ligand.torsion>
1.0958

> <Gold.PLP.Chemscore.Hbond>
2.0000

> <Gold.PLP.Chemscore.CHOScore>
0.0000

> <Gold.PLP.Chemscore.Metal>
0.0000

> <Gold.Chemscore.Hbonds>
donor molecule, donor type, donor heavy atom, donor atom, acceptor molecule, acceptor atom, score
      L1  H    20    45       P1  7948  0.78
      P1  H  7997  8010       L1    15  1.00

> <Gold.PLP.Chemscore.Internal.Correction>
0.1995

> <Gold.Rescore>
     Score         DG    S(hbond)    S(metal)    S(lipo)     H(rot)  DE(clash)    DE(int)     intcor
     15.20     -17.50       1.86        0.00     102.55       2.43       0.19       2.11       ----

> <Gold.Chemscore.Fitness>
15.1966

> <Gold.Chemscore.DG>
-17.4958

> <Gold.Chemscore.ZeroCoef>
-5.4800

> <Gold.Chemscore.Hbond>
1.8647

> <Gold.Chemscore.Metal>
0.0000

> <Gold.Chemscore.Lipo>
102.5513

> <Gold.Chemscore.Internal_Hbond>
0.0000

> <Gold.Chemscore.DEClash>
0.1887

> <Gold.Chemscore.DEInternal>
2.1105

> <Gold.Chemscore.Rot>
2.4260

> <Gold.Chemscore.Internal.Correction>
   9.000000E+99

> <Gold.Chemscore.Hbonds>
donor molecule, donor type, donor heavy atom, donor atom, acceptor molecule, acceptor atom, score
      L1  H    20    45       P1  7948  0.77
      P1  H  7997  8010       L1    15  0.53

> <Gold.Chemscore.Hbond.Weighted>
-6.2280

> <Gold.Chemscore.Metal.Weighted>
-0.0000

> <Gold.Chemscore.Lipo.Weighted>
-11.9985

> <Gold.Chemscore.Internal_Hbond.Weighted>
0.0000

> <Gold.Chemscore.DEClash.Weighted>
0.1887

> <Gold.Chemscore.DEInternal.Weighted>
2.1105

> <Gold.Chemscore.Rot.Weighted>
6.2107

> <Gold.Chemscore.Internal.Correction.Weighted>
   9.000000E+99

> <Gold.Protein.RotatedTorsions>
[ 6907 6896 6895 6894 ] final   70.13 input  -60.11 | X-H torsion
[ 7974 7965 7964 7962 ] final -102.82 input  175.53 | X-H torsion
[ 8008 7997 7996 7995 ] final  103.38 input   59.86 | X-H torsion
[ 10167 10162 10161 10158 ] final  -40.22 input  -65.29 | X-H torsion
[ 10718 10713 10712 10709 ] final -100.48 input   66.30 | X-H torsion
[ 10763 10752 10751 10750 ] final  178.67 input  -60.55 | X-H torsion
[ 11005 11000 10999 10996 ] final   59.05 input  -57.11 | X-H torsion

> <Gold.Protein.ActiveResidues>
 VAL166  LYS551  ARG553  GLY616  TRP617  ASP618  TYR619  PRO620  LYS621  CYS622 
 ASP623  PHE694  ASN695  SER759  ASP760  ASP761  ALA762  ILE779  LEU786  VAL792 
 PHE793  MET794  SER795  GLU796  ALA797  LYS798  CYS799  TRP800  GLU811  SER814 

> <Gold.Protein.RotatedAtoms>
  152.4730  134.4914  159.9696 H   0  0  0  0  0  0  0  0  0  0  0  0  # atno 6907 bound_to 6896
  151.4936  133.3513  159.2865 H   0  0  0  0  0  0  0  0  0  0  0  0  # atno 6908 bound_to 6896
  150.8751  134.8160  159.7245 H   0  0  0  0  0  0  0  0  0  0  0  0  # atno 6909 bound_to 6896
  145.2638  140.9277  143.3025 H   0  0  0  0  0  0  0  0  0  0  0  0  # atno 7974 bound_to 7965
  156.1479  140.3165  155.8600 H   0  0  0  0  0  0  0  0  0  0  0  0  # atno 8008 bound_to 7997
  155.4029  140.0501  157.3053 H   0  0  0  0  0  0  0  0  0  0  0  0  # atno 8009 bound_to 7997
  154.5032  140.2137  155.9315 H   0  0  0  0  0  0  0  0  0  0  0  0  # atno 8010 bound_to 7997
  140.7041  143.3167  151.2893 H   0  0  0  0  0  0  0  0  0  0  0  0  # atno 10167 bound_to 10162
  156.0164  130.5330  150.6824 H   0  0  0  0  0  0  0  0  0  0  0  0  # atno 10718 bound_to 10713
  154.5107  135.2788  155.1345 H   0  0  0  0  0  0  0  0  0  0  0  0  # atno 10763 bound_to 10752
  154.2941  135.6261  153.5401 H   0  0  0  0  0  0  0  0  0  0  0  0  # atno 10764 bound_to 10752
  152.9918  135.5681  154.5572 H   0  0  0  0  0  0  0  0  0  0  0  0  # atno 10765 bound_to 10752
  140.0332  134.5982  155.9479 H   0  0  0  0  0  0  0  0  0  0  0  0  # atno 11005 bound_to 11000
  144.9394  139.4206  143.6456 LP  0  0  0  0  0  0  0  0  0  0  0  0  # atno 17320 bound_to 7965
  146.3267  139.8347  142.8902 LP  0  0  0  0  0  0  0  0  0  0  0  0  # atno 17321 bound_to 7965
  139.6607  144.0194  152.2690 LP  0  0  0  0  0  0  0  0  0  0  0  0  # atno 17342 bound_to 10162
  139.9760  144.6461  150.7944 LP  0  0  0  0  0  0  0  0  0  0  0  0  # atno 17343 bound_to 10162
  157.4523  131.0874  151.0833 LP  0  0  0  0  0  0  0  0  0  0  0  0  # atno 17370 bound_to 10713
  157.1345  130.6116  149.5538 LP  0  0  0  0  0  0  0  0  0  0  0  0  # atno 17371 bound_to 10713
  141.1843  133.6552  156.5150 LP  0  0  0  0  0  0  0  0  0  0  0  0  # atno 17394 bound_to 11000
  140.4191  134.7203  157.4880 LP  0  0  0  0  0  0  0  0  0  0  0  0  # atno 17395 bound_to 11000

$$$$
