AV-unprocessed.smi:3312|AV-procd|sdf|12727|dock8
  -GOLD-   2272019 73D 1   1.00000     0.00000
 Structure written by MMmdl.
 39 40  0  0  0  0  0  0  0  0  2 V2000
  154.3731  140.4272  160.9994 C   0  0  0  0  0  0  0  0  0  0  0  0
  153.5466  141.6559  160.7508 C   0  0  0  0  0  0  0  0  0  0  0  0
  153.0189  142.5629  161.7131 C   0  0  0  0  0  0  0  0  0  0  0  0
  152.3271  143.5478  161.1647 N   0  0  0  0  0  0  0  0  0  0  0  0
  152.3958  143.3120  159.8375 N   0  0  0  0  0  0  0  0  0  0  0  0
  151.7335  144.2113  158.9089 C   0  0  0  0  0  0  0  0  0  0  0  0
  150.4289  143.6179  158.3533 C   0  0  0  0  0  0  0  0  0  0  0  0
  150.6485  142.9716  157.0414 N   0  3  0  0  0  0  0  0  0  0  0  0
  150.3515  141.5231  157.0088 C   0  0  0  0  0  0  0  0  0  0  0  0
  150.5316  140.9043  155.6113 C   0  0  0  0  0  0  0  0  0  0  0  0
  149.8336  141.3200  154.6844 O   0  0  0  0  0  0  0  0  0  0  0  0
  151.4537  139.9282  155.4377 N   0  0  0  0  0  0  0  0  0  0  0  0
  152.3168  139.3592  156.4774 C   0  0  0  0  0  0  0  0  0  0  0  0
  151.9393  137.8783  156.6590 C   0  0  0  0  0  0  0  0  0  0  0  0
  152.0871  137.1929  155.4176 O   0  0  0  0  0  0  0  0  0  0  0  0
  151.2871  137.7429  154.3732 C   0  0  0  0  0  0  0  0  0  0  0  0
  151.6485  139.2251  154.1665 C   0  0  0  0  0  0  0  0  0  0  0  0
  153.1187  142.1711  159.5600 C   0  0  0  0  0  0  0  0  0  0  0  0
  154.2833  140.0810  162.0293 H   0  0  0  0  0  0  0  0  0  0  0  0
  155.4316  140.6099  160.8129 H   0  0  0  0  0  0  0  0  0  0  0  0
  154.0709  139.6002  160.3564 H   0  0  0  0  0  0  0  0  0  0  0  0
  153.1162  142.5334  162.7883 H   0  0  0  0  0  0  0  0  0  0  0  0
  151.5381  145.1590  159.4129 H   0  0  0  0  0  0  0  0  0  0  0  0
  152.4243  144.4260  158.0925 H   0  0  0  0  0  0  0  0  0  0  0  0
  150.0315  142.8771  159.0476 H   0  0  0  0  0  0  0  0  0  0  0  0
  149.6738  144.4001  158.2654 H   0  0  0  0  0  0  0  0  0  0  0  0
  150.0591  143.4227  156.3555 H   0  0  0  0  0  0  0  0  0  0  0  0
  151.0424  141.0267  157.6911 H   0  0  0  0  0  0  0  0  0  0  0  0
  149.3409  141.3539  157.3830 H   0  0  0  0  0  0  0  0  0  0  0  0
  153.3581  139.4410  156.1618 H   0  0  0  0  0  0  0  0  0  0  0  0
  152.2586  139.8764  157.4336 H   0  0  0  0  0  0  0  0  0  0  0  0
  152.5882  137.4108  157.3997 H   0  0  0  0  0  0  0  0  0  0  0  0
  150.9147  137.7792  157.0214 H   0  0  0  0  0  0  0  0  0  0  0  0
  151.4658  137.1795  153.4573 H   0  0  0  0  0  0  0  0  0  0  0  0
  150.2292  137.6311  154.6166 H   0  0  0  0  0  0  0  0  0  0  0  0
  151.0503  139.6382  153.3534 H   0  0  0  0  0  0  0  0  0  0  0  0
  152.6895  139.3200  153.8545 H   0  0  0  0  0  0  0  0  0  0  0  0
  153.2712  141.8238  158.5484 H   0  0  0  0  0  0  0  0  0  0  0  0
  151.6142  143.1119  156.7824 H   0  0  0  0  0  0  0  0  0  0  0  0
  1  2  1  0  0  0  0
  1 19  1  0  0  0  0
  1 20  1  0  0  0  0
  1 21  1  0  0  0  0
  2 18  2  0  0  0  0
  2  3  1  0  0  0  0
  3  4  2  0  0  0  0
  3 22  1  0  0  0  0
  4  5  1  0  0  0  0
  5  6  1  0  0  0  0
  5 18  1  0  0  0  0
  6  7  1  0  0  0  0
  6 23  1  0  0  0  0
  6 24  1  0  0  0  0
  7  8  1  0  0  0  0
  7 25  1  0  0  0  0
  7 26  1  0  0  0  0
  8  9  1  0  0  0  0
  8 27  1  0  0  0  0
  8 39  1  0  0  0  0
  9 10  1  0  0  0  0
  9 28  1  0  0  0  0
  9 29  1  0  0  0  0
 10 11  2  0  0  0  0
 10 12  1  0  0  0  0
 12 17  1  0  0  0  0
 12 13  1  0  0  0  0
 13 14  1  0  0  0  0
 13 30  1  0  0  0  0
 13 31  1  0  0  0  0
 14 15  1  0  0  0  0
 14 32  1  0  0  0  0
 14 33  1  0  0  0  0
 15 16  1  0  0  0  0
 16 17  1  0  0  0  0
 16 34  1  0  0  0  0
 16 35  1  0  0  0  0
 17 36  1  0  0  0  0
 17 37  1  0  0  0  0
 18 38  1  0  0  0  0
M  CHG  1   8   1
M  END
> <s_m_source_file>
AV-unprocessed.smi

> <i_m_source_file_index>
3312

> <i_lp_mmshare_version>
43012

> <i_f3d_flags>
0

> <s_epik_input>
W0NIM11jMVtjSF1ubihbY0hdMSlbQ0gyXVtDSDJdW05IXVtDSDJdQyg9TylOMltDSDJdW0NIMl1PW0NIMl1bQ0gyXTI=

> <s_epik_cmdline>
J2VwaWtfcHl0aG9uJywgJy1waCcsICc3LjAnLCAnLXRuJywgJzgnLCAnLW1hJywgJzIwMCcsICctbWV0YWxfYmluZGluZycsICctaW1hZScsICc8aW5maWxlLm1hZT4nLCAnLW9tYWUnLCAnPG91dGZpbGUubWFlPic=

> <r_lp_tautomer_probability>
1

> <r_epik_Ionization_Penalty>
0.325402

> <r_epik_Ionization_Penalty_Charging>
0.325398

> <r_epik_Ionization_Penalty_Neutral>
4.45308e-06

> <r_epik_State_Penalty>
0.321221

> <r_epik_Charging_Adjusted_Penalty>
0.646619

> <i_epik_Tot_Q>
1

> <i_epik_Tot_abs_Q>
1

> <r_epik_Metal_State_Penalty>
0.321643

> <b_epik_Metal_Only>
0

> <s_lp_Force_Field>
OPLS_2005

> <r_lp_Energy>
21.6744

> <b_lp_Chiralities_Consistent>
1

> <s_lp_Variant>
AV-unprocessed.smi:3312-1

> <Gold.Version>
5.8.1

> <Gold.Id.Protein>
6NUR|6NUR_protein|mol2

> <Gold.PLP.Fitness>
51.2748

> <Gold.PLP.PLP>
-42.9135

> <Gold.PLP.part.hbond>
-3.0000

> <Gold.PLP.part.metal>
0.0000

> <Gold.PLP.part.buried>
-2.9629

> <Gold.PLP.part.nonpolar>
-36.7337

> <Gold.PLP.part.repulsive>
0.2864

> <Gold.PLP.ligand.clash>
0.0000

> <Gold.PLP.ligand.torsion>
0.8305

> <Gold.PLP.Chemscore.Hbond>
3.3354

> <Gold.PLP.Chemscore.CHOScore>
0.0000

> <Gold.PLP.Chemscore.Metal>
0.0000

> <Gold.Chemscore.Hbonds>
donor molecule, donor type, donor heavy atom, donor atom, acceptor molecule, acceptor atom, score
      L1  H     8    27       P1  8028  2.00
      P1  H  7989  7998       L1    11  0.06
      P1  H 10752 10765       L1    15  0.85

> <Gold.PLP.Chemscore.Internal.Correction>
0.0162

> <Gold.Rescore>
     Score         DG    S(hbond)    S(metal)    S(lipo)     H(rot)  DE(clash)    DE(int)     intcor
     16.77     -17.54       1.79        0.00      93.28       1.89       0.06       0.71       ----

> <Gold.Chemscore.Fitness>
16.7662

> <Gold.Chemscore.DG>
-17.5353

> <Gold.Chemscore.ZeroCoef>
-5.4800

> <Gold.Chemscore.Hbond>
1.7883

> <Gold.Chemscore.Metal>
0.0000

> <Gold.Chemscore.Lipo>
93.2820

> <Gold.Chemscore.Internal_Hbond>
0.0000

> <Gold.Chemscore.DEClash>
0.0624

> <Gold.Chemscore.DEInternal>
0.7067

> <Gold.Chemscore.Rot>
1.8874

> <Gold.Chemscore.Internal.Correction>
   9.000000E+99

> <Gold.Chemscore.Hbonds>
donor molecule, donor type, donor heavy atom, donor atom, acceptor molecule, acceptor atom, score
      L1  H     8    27       P1  8028  0.99
      P1  H 10752 10765       L1    15  0.71

> <Gold.Chemscore.Hbond.Weighted>
-5.9730

> <Gold.Chemscore.Metal.Weighted>
-0.0000

> <Gold.Chemscore.Lipo.Weighted>
-10.9140

> <Gold.Chemscore.Internal_Hbond.Weighted>
0.0000

> <Gold.Chemscore.DEClash.Weighted>
0.0624

> <Gold.Chemscore.DEInternal.Weighted>
0.7067

> <Gold.Chemscore.Rot.Weighted>
4.8317

> <Gold.Chemscore.Internal.Correction.Weighted>
   9.000000E+99

> <Gold.Protein.RotatedTorsions>
[ 6907 6896 6895 6894 ] final   46.58 input  -60.11 | X-H torsion
[ 7974 7965 7964 7962 ] final  -50.08 input  175.53 | X-H torsion
[ 8008 7997 7996 7995 ] final  -23.97 input   59.86 | X-H torsion
[ 10167 10162 10161 10158 ] final   52.98 input  -65.29 | X-H torsion
[ 10718 10713 10712 10709 ] final   93.20 input   66.30 | X-H torsion
[ 10763 10752 10751 10750 ] final -159.47 input  -60.55 | X-H torsion
[ 11005 11000 10999 10996 ] final   57.44 input  -57.11 | X-H torsion

> <Gold.Protein.ActiveResidues>
 VAL166  LYS551  ARG553  GLY616  TRP617  ASP618  TYR619  PRO620  LYS621  CYS622 
 ASP623  PHE694  ASN695  SER759  ASP760  ASP761  ALA762  ILE779  LEU786  VAL792 
 PHE793  MET794  SER795  GLU796  ALA797  LYS798  CYS799  TRP800  GLU811  SER814 

> <Gold.Protein.RotatedAtoms>
  152.2581  134.8063  160.0434 H   0  0  0  0  0  0  0  0  0  0  0  0  # atno 6907 bound_to 6896
  151.8720  133.3472  159.3746 H   0  0  0  0  0  0  0  0  0  0  0  0  # atno 6908 bound_to 6896
  150.7107  134.5031  159.5615 H   0  0  0  0  0  0  0  0  0  0  0  0  # atno 6909 bound_to 6896
  145.9337  140.7726  142.9587 H   0  0  0  0  0  0  0  0  0  0  0  0  # atno 7974 bound_to 7965
  154.4555  140.1966  156.0393 H   0  0  0  0  0  0  0  0  0  0  0  0  # atno 8008 bound_to 7997
  156.0737  140.3281  155.7579 H   0  0  0  0  0  0  0  0  0  0  0  0  # atno 8009 bound_to 7997
  155.5223  140.0571  157.2895 H   0  0  0  0  0  0  0  0  0  0  0  0  # atno 8010 bound_to 7997
  140.2456  144.3535  150.6365 H   0  0  0  0  0  0  0  0  0  0  0  0  # atno 10167 bound_to 10162
  157.6955  131.0470  150.3998 H   0  0  0  0  0  0  0  0  0  0  0  0  # atno 10718 bound_to 10713
  154.7472  135.3083  154.8624 H   0  0  0  0  0  0  0  0  0  0  0  0  # atno 10763 bound_to 10752
  153.9421  135.6773  153.4748 H   0  0  0  0  0  0  0  0  0  0  0  0  # atno 10764 bound_to 10752
  153.1068  135.4885  154.8892 H   0  0  0  0  0  0  0  0  0  0  0  0  # atno 10765 bound_to 10752
  140.0453  134.5815  155.9331 H   0  0  0  0  0  0  0  0  0  0  0  0  # atno 11005 bound_to 11000
  144.6768  140.2168  143.7371 LP  0  0  0  0  0  0  0  0  0  0  0  0  # atno 17320 bound_to 7965
  145.8392  139.2122  143.1837 LP  0  0  0  0  0  0  0  0  0  0  0  0  # atno 17321 bound_to 7965
  140.6080  143.2168  151.6942 LP  0  0  0  0  0  0  0  0  0  0  0  0  # atno 17342 bound_to 10162
  139.5063  144.3687  152.0491 LP  0  0  0  0  0  0  0  0  0  0  0  0  # atno 17343 bound_to 10162
  156.4392  130.3988  149.6708 LP  0  0  0  0  0  0  0  0  0  0  0  0  # atno 17370 bound_to 10713
  156.3898  130.7621  151.2621 LP  0  0  0  0  0  0  0  0  0  0  0  0  # atno 17371 bound_to 10713
  141.1903  133.6568  156.5408 LP  0  0  0  0  0  0  0  0  0  0  0  0  # atno 17394 bound_to 11000
  140.4004  134.7361  157.4776 LP  0  0  0  0  0  0  0  0  0  0  0  0  # atno 17395 bound_to 11000

$$$$
