AV-unprocessed.smi:26|AV-procd|sdf|184|dock5
  -GOLD-   2262015443D 1   1.00000     0.00000
 Structure written by MMmdl.
 58 61  0  0  0  0  0  0  0  0  1 V2000
  147.0659  139.1488  152.6443 C   0  0  0  0  0  0  0  0  0  0  0  0
  147.8045  138.6436  153.8429 C   0  0  0  0  0  0  0  0  0  0  0  0
  148.9419  139.1324  154.4123 C   0  0  0  0  0  0  0  0  0  0  0  0
  149.2544  138.3390  155.5475 C   0  0  0  0  0  0  0  0  0  0  0  0
  150.4020  138.4616  156.4783 C   0  0  0  0  0  0  0  0  0  0  0  0
  150.4837  137.8173  157.5237 O   0  0  0  0  0  0  0  0  0  0  0  0
  151.5066  139.4657  156.1103 C   0  0  0  0  0  0  0  0  0  0  0  0
  151.7727  140.3851  157.2110 N   0  0  0  0  0  0  0  0  0  0  0  0
  152.5703  139.9283  158.2917 C   0  0  0  0  0  0  0  0  0  0  0  0
  153.0119  138.7798  158.3457 O   0  0  0  0  0  0  0  0  0  0  0  0
  152.8220  140.9256  159.3260 C   0  0  0  0  0  0  0  0  0  0  0  0
  153.5587  140.5969  160.4005 F   0  0  0  0  0  0  0  0  0  0  0  0
  152.3268  142.1772  159.2244 C   0  0  0  0  0  0  0  0  0  0  0  0
  151.5599  142.6009  158.1529 N   0  0  0  0  0  0  0  0  0  0  0  0
  151.0247  144.0135  158.0848 C   0  0  1  0  0  0  0  0  0  0  0  0
  149.9648  144.2319  159.1702 C   0  0  0  0  0  0  0  0  0  0  0  0
  150.7778  144.8638  160.2795 C   0  0  0  0  0  0  0  0  0  0  0  0
  151.7898  145.6839  159.4886 C   0  0  0  0  0  0  0  0  0  0  0  0
  152.0716  144.9090  158.3269 O   0  0  0  0  0  0  0  0  0  0  0  0
  151.2488  141.6982  157.1129 C   0  0  0  0  0  0  0  0  0  0  0  0
  150.5478  142.0495  156.1610 O   0  0  0  0  0  0  0  0  0  0  0  0
  148.2957  137.3580  155.6435 C   0  0  0  0  0  0  0  0  0  0  0  0
  148.1366  136.2676  156.6666 C   0  0  0  0  0  0  0  0  0  0  0  0
  147.3996  137.5325  154.5798 N   0  0  0  0  0  0  0  0  0  0  0  0
  146.2007  136.7343  154.2810 C   0  0  2  0  0  0  0  0  0  0  0  0
  145.2989  136.6064  155.5246 C   0  0  0  0  0  0  0  0  0  0  0  0
  146.5274  135.4291  153.5502 C   0  0  0  0  0  0  0  0  0  0  0  0
  145.9547  135.1974  152.2795 C   0  0  0  0  0  0  0  0  0  0  0  0
  146.2270  134.0088  151.5755 C   0  0  0  0  0  0  0  0  0  0  0  0
  147.0730  133.0354  152.1384 C   0  0  0  0  0  0  0  0  0  0  0  0
  147.6441  133.2524  153.4061 C   0  0  0  0  0  0  0  0  0  0  0  0
  147.3716  134.4410  154.1107 C   0  0  0  0  0  0  0  0  0  0  0  0
  147.5066  140.0773  152.2802 H   0  0  0  0  0  0  0  0  0  0  0  0
  146.0216  139.3511  152.8833 H   0  0  0  0  0  0  0  0  0  0  0  0
  147.1003  138.4245  151.8304 H   0  0  0  0  0  0  0  0  0  0  0  0
  149.4938  139.9860  154.0471 H   0  0  0  0  0  0  0  0  0  0  0  0
  152.4412  138.9546  155.8733 H   0  0  0  0  0  0  0  0  0  0  0  0
  151.2617  140.0420  155.2181 H   0  0  0  0  0  0  0  0  0  0  0  0
  152.5443  142.8688  160.0246 H   0  0  0  0  0  0  0  0  0  0  0  0
  150.6535  144.1564  157.0691 H   0  0  0  0  0  0  0  0  0  0  0  0
  149.2215  144.9352  158.7931 H   0  0  0  0  0  0  0  0  0  0  0  0
  149.4635  143.3062  159.4560 H   0  0  0  0  0  0  0  0  0  0  0  0
  150.1782  145.4686  160.9601 H   0  0  0  0  0  0  0  0  0  0  0  0
  151.2854  144.0944  160.8622 H   0  0  0  0  0  0  0  0  0  0  0  0
  151.3497  146.6327  159.1790 H   0  0  0  0  0  0  0  0  0  0  0  0
  152.6953  145.8978  160.0566 H   0  0  0  0  0  0  0  0  0  0  0  0
  148.6069  135.3457  156.3248 H   0  0  0  0  0  0  0  0  0  0  0  0
  147.0927  136.0571  156.8843 H   0  0  0  0  0  0  0  0  0  0  0  0
  148.5918  136.5416  157.6174 H   0  0  0  0  0  0  0  0  0  0  0  0
  145.6098  137.2820  153.5485 H   0  0  0  0  0  0  0  0  0  0  0  0
  144.3512  136.1282  155.2757 H   0  0  0  0  0  0  0  0  0  0  0  0
  145.0647  137.5901  155.9324 H   0  0  0  0  0  0  0  0  0  0  0  0
  145.7651  136.0307  156.3228 H   0  0  0  0  0  0  0  0  0  0  0  0
  145.3039  135.9384  151.8383 H   0  0  0  0  0  0  0  0  0  0  0  0
  145.7867  133.8441  150.6033 H   0  0  0  0  0  0  0  0  0  0  0  0
  147.2830  132.1237  151.5989 H   0  0  0  0  0  0  0  0  0  0  0  0
  148.2932  132.5058  153.8394 H   0  0  0  0  0  0  0  0  0  0  0  0
  147.8267  134.5795  155.0794 H   0  0  0  0  0  0  0  0  0  0  0  0
  1  2  1  0  0  0  0
  1 33  1  0  0  0  0
  1 34  1  0  0  0  0
  1 35  1  0  0  0  0
  2 24  1  0  0  0  0
  2  3  2  0  0  0  0
  3  4  1  0  0  0  0
  3 36  1  0  0  0  0
  4  5  1  0  0  0  0
  4 22  2  0  0  0  0
  5  6  2  0  0  0  0
  5  7  1  0  0  0  0
  7  8  1  0  0  0  0
  7 37  1  0  0  0  0
  7 38  1  0  0  0  0
  8 20  1  0  0  0  0
  8  9  1  0  0  0  0
  9 10  2  0  0  0  0
  9 11  1  0  0  0  0
 11 12  1  0  0  0  0
 11 13  2  0  0  0  0
 13 14  1  0  0  0  0
 13 39  1  0  0  0  0
 14 15  1  0  0  0  0
 14 20  1  0  0  0  0
 15 19  1  0  0  0  0
 15 16  1  0  0  0  0
 15 40  1  0  0  0  0
 16 17  1  0  0  0  0
 16 41  1  0  0  0  0
 16 42  1  0  0  0  0
 17 18  1  0  0  0  0
 17 43  1  0  0  0  0
 17 44  1  0  0  0  0
 18 19  1  0  0  0  0
 18 45  1  0  0  0  0
 18 46  1  0  0  0  0
 20 21  2  0  0  0  0
 22 23  1  0  0  0  0
 22 24  1  0  0  0  0
 23 47  1  0  0  0  0
 23 48  1  0  0  0  0
 23 49  1  0  0  0  0
 24 25  1  0  0  0  0
 25 26  1  0  0  0  0
 25 27  1  0  0  0  0
 25 50  1  0  0  0  0
 26 51  1  0  0  0  0
 26 52  1  0  0  0  0
 26 53  1  0  0  0  0
 27 32  1  0  0  0  0
 27 28  2  0  0  0  0
 28 29  1  0  0  0  0
 28 54  1  0  0  0  0
 29 30  2  0  0  0  0
 29 55  1  0  0  0  0
 30 31  1  0  0  0  0
 30 56  1  0  0  0  0
 31 32  2  0  0  0  0
 31 57  1  0  0  0  0
 32 58  1  0  0  0  0
M  END
> <s_m_source_file>
AV-unprocessed.smi

> <i_m_source_file_index>
26

> <i_lp_mmshare_version>
43012

> <i_f3d_flags>
0

> <s_epik_input>
W2NIXTFbY0hdW2NIXVtjSF1bY0hdYzFbQ0BASF0oW0NIM10pbjJjKFtDSDNdKWMoW2NIXWMyW0NIM10pQyg9TylbQ0gyXW4zYyg9TyljKEYpW2NIXW4oYzM9TylbQ0BASF00W0NIMl1bQ0gyXVtDSDJdTzQ=

> <s_epik_cmdline>
J2VwaWtfcHl0aG9uJywgJy1waCcsICc3LjAnLCAnLXRuJywgJzgnLCAnLW1hJywgJzIwMCcsICctbWV0YWxfYmluZGluZycsICctaW1hZScsICc8aW5maWxlLm1hZT4nLCAnLW9tYWUnLCAnPG91dGZpbGUubWFlPic=

> <r_lp_tautomer_probability>
1

> <r_epik_Ionization_Penalty>
5.02402e-09

> <r_epik_Ionization_Penalty_Charging>
5.01743e-09

> <r_epik_Ionization_Penalty_Neutral>
6.58831e-12

> <r_epik_State_Penalty>
-0

> <r_epik_Charging_Adjusted_Penalty>
5.01743e-09

> <i_epik_Tot_Q>
0

> <i_epik_Tot_abs_Q>
0

> <r_epik_Metal_State_Penalty>
-0

> <b_epik_Metal_Only>
0

> <s_epik_Chemistry_Notes>
This compound contains an acetal/aminal-like group ( X-CH(R)-Y where X, Y are N, S, or O) that may be acid/base labile, releasing an aldehyde.

> <s_lp_Force_Field>
OPLS_2005

> <r_lp_Energy>
51.2992

> <b_lp_Chiralities_Consistent>
1

> <s_lp_Variant>
AV-unprocessed.smi:26-2

> <Gold.Version>
5.8.1

> <Gold.Id.Protein>
6NUR|6NUR_protein|mol2

> <Gold.PLP.Fitness>
44.4369

> <Gold.PLP.PLP>
-46.0288

> <Gold.PLP.part.hbond>
0.0000

> <Gold.PLP.part.metal>
0.0000

> <Gold.PLP.part.buried>
-4.8578

> <Gold.PLP.part.nonpolar>
-41.1889

> <Gold.PLP.part.repulsive>
0.1598

> <Gold.PLP.ligand.clash>
0.0000

> <Gold.PLP.ligand.torsion>
0.9521

> <Gold.PLP.Chemscore.Hbond>
0.0000

> <Gold.PLP.Chemscore.CHOScore>
0.0000

> <Gold.PLP.Chemscore.Metal>
0.0000

> <Gold.PLP.Chemscore.Internal.Correction>
0.3124

> <Gold.Rescore>
     Score         DG    S(hbond)    S(metal)    S(lipo)     H(rot)  DE(clash)    DE(int)     intcor
      9.24     -12.68       0.00        0.00     101.69       1.84       0.32       3.12       ----

> <Gold.Chemscore.Fitness>
9.2380

> <Gold.Chemscore.DG>
-12.6777

> <Gold.Chemscore.ZeroCoef>
-5.4800

> <Gold.Chemscore.Hbond>
0.0000

> <Gold.Chemscore.Metal>
0.0000

> <Gold.Chemscore.Lipo>
101.6895

> <Gold.Chemscore.Internal_Hbond>
0.0000

> <Gold.Chemscore.DEClash>
0.3193

> <Gold.Chemscore.DEInternal>
3.1203

> <Gold.Chemscore.Rot>
1.8359

> <Gold.Chemscore.Internal.Correction>
   9.000000E+99

> <Gold.Chemscore.Hbond.Weighted>
-0.0000

> <Gold.Chemscore.Metal.Weighted>
-0.0000

> <Gold.Chemscore.Lipo.Weighted>
-11.8977

> <Gold.Chemscore.Internal_Hbond.Weighted>
0.0000

> <Gold.Chemscore.DEClash.Weighted>
0.3193

> <Gold.Chemscore.DEInternal.Weighted>
3.1203

> <Gold.Chemscore.Rot.Weighted>
4.7000

> <Gold.Chemscore.Internal.Correction.Weighted>
   9.000000E+99

> <Gold.Protein.RotatedTorsions>
[ 6907 6896 6895 6894 ] final  -93.46 input  -60.11 | X-H torsion
[ 7974 7965 7964 7962 ] final  -17.16 input  175.53 | X-H torsion
[ 8008 7997 7996 7995 ] final -105.24 input   59.86 | X-H torsion
[ 10167 10162 10161 10158 ] final  -20.56 input  -65.29 | X-H torsion
[ 10718 10713 10712 10709 ] final  -33.51 input   66.30 | X-H torsion
[ 10763 10752 10751 10750 ] final  -40.21 input  -60.55 | X-H torsion
[ 11005 11000 10999 10996 ] final -111.12 input  -57.11 | X-H torsion

> <Gold.Protein.ActiveResidues>
 VAL166  LYS551  ARG553  GLY616  TRP617  ASP618  TYR619  PRO620  LYS621  CYS622 
 ASP623  PHE694  ASN695  SER759  ASP760  ASP761  ALA762  ILE779  LEU786  VAL792 
 PHE793  MET794  SER795  GLU796  ALA797  LYS798  CYS799  TRP800  GLU811  SER814 

> <Gold.Protein.RotatedAtoms>
  150.6923  134.1964  159.4304 H   0  0  0  0  0  0  0  0  0  0  0  0  # atno 6907 bound_to 6896
  151.9932  134.9965  160.0571 H   0  0  0  0  0  0  0  0  0  0  0  0  # atno 6908 bound_to 6896
  152.1648  133.4570  159.4916 H   0  0  0  0  0  0  0  0  0  0  0  0  # atno 6909 bound_to 6896
  146.1954  140.3739  142.8442 H   0  0  0  0  0  0  0  0  0  0  0  0  # atno 7974 bound_to 7965
  154.8970  140.0414  157.1871 H   0  0  0  0  0  0  0  0  0  0  0  0  # atno 8008 bound_to 7997
  154.8483  140.2925  155.5594 H   0  0  0  0  0  0  0  0  0  0  0  0  # atno 8009 bound_to 7997
  156.2995  140.2470  156.3437 H   0  0  0  0  0  0  0  0  0  0  0  0  # atno 8010 bound_to 7997
  140.7277  143.4711  151.0245 H   0  0  0  0  0  0  0  0  0  0  0  0  # atno 10167 bound_to 10162
  156.3617  130.4325  149.7618 H   0  0  0  0  0  0  0  0  0  0  0  0  # atno 10718 bound_to 10713
  153.9421  135.6760  153.4744 H   0  0  0  0  0  0  0  0  0  0  0  0  # atno 10763 bound_to 10752
  153.0926  135.4867  154.8716 H   0  0  0  0  0  0  0  0  0  0  0  0  # atno 10764 bound_to 10752
  154.7371  135.3152  154.8750 H   0  0  0  0  0  0  0  0  0  0  0  0  # atno 10765 bound_to 10752
  141.0753  133.9312  157.2403 H   0  0  0  0  0  0  0  0  0  0  0  0  # atno 11005 bound_to 11000
  144.8570  140.7084  143.6132 LP  0  0  0  0  0  0  0  0  0  0  0  0  # atno 17320 bound_to 7965
  145.3660  139.1670  143.4358 LP  0  0  0  0  0  0  0  0  0  0  0  0  # atno 17321 bound_to 7965
  139.8403  143.7573  152.3180 LP  0  0  0  0  0  0  0  0  0  0  0  0  # atno 17342 bound_to 10162
  139.7719  144.7474  151.0212 LP  0  0  0  0  0  0  0  0  0  0  0  0  # atno 17343 bound_to 10162
  156.4779  130.8027  151.3043 LP  0  0  0  0  0  0  0  0  0  0  0  0  # atno 17370 bound_to 10713
  157.7474  131.0015  150.2965 LP  0  0  0  0  0  0  0  0  0  0  0  0  # atno 17371 bound_to 10713
  139.9565  135.0164  156.9143 LP  0  0  0  0  0  0  0  0  0  0  0  0  # atno 17394 bound_to 11000
  140.5587  134.0556  155.7392 LP  0  0  0  0  0  0  0  0  0  0  0  0  # atno 17395 bound_to 11000

$$$$
