AV-unprocessed.smi:239|AV-procd|sdf|1820|dock7
  -GOLD-   2262020413D 1   1.00000     0.00000
 Structure written by MMmdl.
 54 58  0  0  0  0  0  0  0  0  1 V2000
  155.5333  139.7167  160.8388 C   0  0  0  0  0  0  0  0  0  0  0  0
  154.1726  140.3611  160.5551 C   0  0  2  0  0  0  0  0  0  0  0  0
  153.4991  139.7555  159.3116 C   0  0  0  0  0  0  0  0  0  0  0  0
  152.2617  140.4681  159.0140 N   0  0  0  0  0  0  0  0  0  0  0  0
  151.4245  139.8352  158.1527 C   0  0  0  0  0  0  0  0  0  0  0  0
  151.1871  138.5029  158.2924 N   0  0  0  0  0  0  0  0  0  0  0  0
  150.3541  137.8729  157.4590 C   0  0  0  0  0  0  0  0  0  0  0  0
  149.6645  138.3733  156.4325 N   0  0  0  0  0  0  0  0  0  0  0  0
  149.9044  139.7069  156.2798 C   0  0  0  0  0  0  0  0  0  0  0  0
  150.7642  140.5071  157.0847 C   0  0  0  0  0  0  0  0  0  0  0  0
  150.7669  141.8153  156.6141 N   0  0  0  0  0  0  0  0  0  0  0  0
  149.9428  141.7932  155.6026 C   0  0  0  0  0  0  0  0  0  0  0  0
  149.3733  140.5689  155.3364 N   0  0  0  0  0  0  0  0  0  0  0  0
  148.4218  140.2628  154.2790 C   0  0  0  0  0  0  0  0  0  0  0  0
  147.0088  140.8500  154.5200 C   0  0  0  0  0  0  0  0  0  0  0  0
  146.1089  140.1702  153.6611 O   0  0  0  0  0  0  0  0  0  0  0  0
  146.5667  140.6086  155.9772 C   0  0  0  0  0  0  0  0  0  0  0  0
  145.2439  141.3223  156.3089 C   0  0  0  0  0  0  0  0  0  0  0  0
  145.3555  142.7117  156.0255 O   0  0  0  0  0  0  0  0  0  0  0  0
  145.5886  142.9744  154.6471 C   0  0  0  0  0  0  0  0  0  0  0  0
  146.9314  142.3615  154.2114 C   0  0  0  0  0  0  0  0  0  0  0  0
  152.4555  141.9076  158.8547 C   0  0  0  0  0  0  0  0  0  0  0  0
  153.1863  142.4995  160.0750 C   0  0  1  0  0  0  0  0  0  0  0  0
  152.2948  142.6206  161.3030 C   0  0  0  0  0  0  0  0  0  0  0  0
  151.5217  143.8883  161.5805 C   0  0  0  0  0  0  0  0  0  0  0  0
  152.6933  143.5107  162.4561 C   0  0  0  0  0  0  0  0  0  0  0  0
  154.3771  141.7585  160.3499 O   0  0  0  0  0  0  0  0  0  0  0  0
  155.4307  138.6457  161.0152 H   0  0  0  0  0  0  0  0  0  0  0  0
  155.9957  140.1564  161.7229 H   0  0  0  0  0  0  0  0  0  0  0  0
  156.2173  139.8538  160.0008 H   0  0  0  0  0  0  0  0  0  0  0  0
  153.5364  140.2067  161.4273 H   0  0  0  0  0  0  0  0  0  0  0  0
  154.1635  139.8329  158.4498 H   0  0  0  0  0  0  0  0  0  0  0  0
  153.3226  138.6935  159.4769 H   0  0  0  0  0  0  0  0  0  0  0  0
  150.2193  136.8172  157.6429 H   0  0  0  0  0  0  0  0  0  0  0  0
  149.7214  142.6764  155.0211 H   0  0  0  0  0  0  0  0  0  0  0  0
  148.8296  140.6307  153.3364 H   0  0  0  0  0  0  0  0  0  0  0  0
  148.3637  139.1781  154.1801 H   0  0  0  0  0  0  0  0  0  0  0  0
  145.3607  140.7271  153.5091 H   0  0  0  0  0  0  0  0  0  0  0  0
  146.4767  139.5403  156.1781 H   0  0  0  0  0  0  0  0  0  0  0  0
  147.3369  140.9823  156.6533 H   0  0  0  0  0  0  0  0  0  0  0  0
  144.4119  140.8912  155.7501 H   0  0  0  0  0  0  0  0  0  0  0  0
  145.0101  141.1988  157.3666 H   0  0  0  0  0  0  0  0  0  0  0  0
  144.7645  142.5854  154.0469 H   0  0  0  0  0  0  0  0  0  0  0  0
  145.6063  144.0535  154.4943 H   0  0  0  0  0  0  0  0  0  0  0  0
  147.7341  142.8768  154.7405 H   0  0  0  0  0  0  0  0  0  0  0  0
  147.0926  142.5525  153.1498 H   0  0  0  0  0  0  0  0  0  0  0  0
  153.0457  142.0862  157.9547 H   0  0  0  0  0  0  0  0  0  0  0  0
  151.4972  142.4102  158.7168 H   0  0  0  0  0  0  0  0  0  0  0  0
  153.5104  143.5071  159.8123 H   0  0  0  0  0  0  0  0  0  0  0  0
  151.7924  141.6960  161.5804 H   0  0  0  0  0  0  0  0  0  0  0  0
  151.6543  144.7258  160.8983 H   0  0  0  0  0  0  0  0  0  0  0  0
  150.5244  143.7851  162.0030 H   0  0  0  0  0  0  0  0  0  0  0  0
  152.4768  143.1562  163.4618 H   0  0  0  0  0  0  0  0  0  0  0  0
  153.6063  144.0937  162.3536 H   0  0  0  0  0  0  0  0  0  0  0  0
  1  2  1  0  0  0  0
  1 28  1  0  0  0  0
  1 29  1  0  0  0  0
  1 30  1  0  0  0  0
  2 27  1  0  0  0  0
  2  3  1  0  0  0  0
  2 31  1  0  0  0  0
  3  4  1  0  0  0  0
  3 32  1  0  0  0  0
  3 33  1  0  0  0  0
  4  5  1  0  0  0  0
  4 22  1  0  0  0  0
  5 10  1  0  0  0  0
  5  6  2  0  0  0  0
  6  7  1  0  0  0  0
  7  8  2  0  0  0  0
  7 34  1  0  0  0  0
  8  9  1  0  0  0  0
  9 13  1  0  0  0  0
  9 10  2  0  0  0  0
 10 11  1  0  0  0  0
 11 12  2  0  0  0  0
 12 13  1  0  0  0  0
 12 35  1  0  0  0  0
 13 14  1  0  0  0  0
 14 15  1  0  0  0  0
 14 36  1  0  0  0  0
 14 37  1  0  0  0  0
 15 21  1  0  0  0  0
 15 16  1  0  0  0  0
 15 17  1  0  0  0  0
 16 38  1  0  0  0  0
 17 18  1  0  0  0  0
 17 39  1  0  0  0  0
 17 40  1  0  0  0  0
 18 19  1  0  0  0  0
 18 41  1  0  0  0  0
 18 42  1  0  0  0  0
 19 20  1  0  0  0  0
 20 21  1  0  0  0  0
 20 43  1  0  0  0  0
 20 44  1  0  0  0  0
 21 45  1  0  0  0  0
 21 46  1  0  0  0  0
 22 23  1  0  0  0  0
 22 47  1  0  0  0  0
 22 48  1  0  0  0  0
 23 24  1  0  0  0  0
 23 27  1  0  0  0  0
 23 49  1  0  0  0  0
 24 26  1  0  0  0  0
 24 25  1  0  0  0  0
 24 50  1  0  0  0  0
 25 26  1  0  0  0  0
 25 51  1  0  0  0  0
 25 52  1  0  0  0  0
 26 53  1  0  0  0  0
 26 54  1  0  0  0  0
M  END
> <s_m_source_file>
AV-unprocessed.smi

> <i_m_source_file_index>
239

> <i_lp_mmshare_version>
43012

> <i_f3d_flags>
0

> <s_epik_input>
W0NIMl0xW0NIMl1bQ0hdMVtDQEBIXShPMilbQ0gyXU4oW0NIMl1bQ0BIXTJbQ0gzXSljKG5bY0hdbjMpYyhjMzQpbltjSF1uNFtDSDJdQzUoW09IXSlbQ0gyXVtDSDJdT1tDSDJdW0NIMl01

> <s_epik_cmdline>
J2VwaWtfcHl0aG9uJywgJy1waCcsICc3LjAnLCAnLXRuJywgJzgnLCAnLW1hJywgJzIwMCcsICctbWV0YWxfYmluZGluZycsICctaW1hZScsICc8aW5maWxlLm1hZT4nLCAnLW9tYWUnLCAnPG91dGZpbGUubWFlPic=

> <r_lp_tautomer_probability>
1

> <r_epik_Ionization_Penalty>
9.13091e-05

> <r_epik_Ionization_Penalty_Charging>
0

> <r_epik_Ionization_Penalty_Neutral>
9.13091e-05

> <r_epik_State_Penalty>
-0

> <r_epik_Charging_Adjusted_Penalty>
0

> <i_epik_Tot_Q>
0

> <i_epik_Tot_abs_Q>
0

> <r_epik_Metal_State_Penalty>
-0

> <b_epik_Metal_Only>
0

> <s_lp_Force_Field>
OPLS_2005

> <r_lp_Energy>
39.9708

> <b_lp_Chiralities_Consistent>
1

> <s_lp_Variant>
AV-unprocessed.smi:239-1

> <Gold.Version>
5.8.1

> <Gold.Id.Protein>
6NUR|6NUR_protein|mol2

> <Gold.PLP.Fitness>
48.1402

> <Gold.PLP.PLP>
-44.6203

> <Gold.PLP.part.hbond>
-1.0998

> <Gold.PLP.part.metal>
0.0000

> <Gold.PLP.part.buried>
-7.2846

> <Gold.PLP.part.nonpolar>
-35.9159

> <Gold.PLP.part.repulsive>
0.2339

> <Gold.PLP.ligand.clash>
0.0000

> <Gold.PLP.ligand.torsion>
1.0899

> <Gold.PLP.Chemscore.Hbond>
0.5920

> <Gold.PLP.Chemscore.CHOScore>
0.8445

> <Gold.PLP.Chemscore.Metal>
0.0000

> <Gold.Chemscore.Hbonds>
donor molecule, donor type, donor heavy atom, donor atom, acceptor molecule, acceptor atom, score
      L1  H    16    38       P1 10175  0.67
      L1  C    12    35       P1  8028  1.00

> <Gold.PLP.Chemscore.Internal.Correction>
1.3903

> <Gold.Rescore>
     Score         DG    S(hbond)    S(metal)    S(lipo)     H(rot)  DE(clash)    DE(int)     intcor
     13.36     -15.77       0.97        0.00     109.34       2.24       0.05       2.36       ----

> <Gold.Chemscore.Fitness>
13.3641

> <Gold.Chemscore.DG>
-15.7691

> <Gold.Chemscore.ZeroCoef>
-5.4800

> <Gold.Chemscore.Hbond>
0.9663

> <Gold.Chemscore.Metal>
0.0000

> <Gold.Chemscore.Lipo>
109.3394

> <Gold.Chemscore.Internal_Hbond>
0.0000

> <Gold.Chemscore.DEClash>
0.0478

> <Gold.Chemscore.DEInternal>
2.3571

> <Gold.Chemscore.Rot>
2.2387

> <Gold.Chemscore.Internal.Correction>
   9.000000E+99

> <Gold.Chemscore.Hbonds>
donor molecule, donor type, donor heavy atom, donor atom, acceptor molecule, acceptor atom, score
      L1  H    16    38       P1 10175  0.60

> <Gold.Chemscore.Hbond.Weighted>
-3.2275

> <Gold.Chemscore.Metal.Weighted>
-0.0000

> <Gold.Chemscore.Lipo.Weighted>
-12.7927

> <Gold.Chemscore.Internal_Hbond.Weighted>
0.0000

> <Gold.Chemscore.DEClash.Weighted>
0.0478

> <Gold.Chemscore.DEInternal.Weighted>
2.3571

> <Gold.Chemscore.Rot.Weighted>
5.7311

> <Gold.Chemscore.Internal.Correction.Weighted>
   9.000000E+99

> <Gold.Protein.RotatedTorsions>
[ 6907 6896 6895 6894 ] final  125.48 input  -60.11 | X-H torsion
[ 7974 7965 7964 7962 ] final   41.54 input  175.53 | X-H torsion
[ 8008 7997 7996 7995 ] final   37.10 input   59.86 | X-H torsion
[ 10167 10162 10161 10158 ] final  125.64 input  -65.29 | X-H torsion
[ 10718 10713 10712 10709 ] final   40.00 input   66.30 | X-H torsion
[ 10763 10752 10751 10750 ] final  118.72 input  -60.55 | X-H torsion
[ 11005 11000 10999 10996 ] final  -95.83 input  -57.11 | X-H torsion

> <Gold.Protein.ActiveResidues>
 VAL166  LYS551  ARG553  GLY616  TRP617  ASP618  TYR619  PRO620  LYS621  CYS622 
 ASP623  PHE694  ASN695  SER759  ASP760  ASP761  ALA762  ILE779  LEU786  VAL792 
 PHE793  MET794  SER795  GLU796  ALA797  LYS798  CYS799  TRP800  GLU811  SER814 

> <Gold.Protein.RotatedAtoms>
  152.3988  133.6787  159.6298 H   0  0  0  0  0  0  0  0  0  0  0  0  # atno 6907 bound_to 6896
  150.7883  133.8827  159.3299 H   0  0  0  0  0  0  0  0  0  0  0  0  # atno 6908 bound_to 6896
  151.6597  135.0992  160.0228 H   0  0  0  0  0  0  0  0  0  0  0  0  # atno 6909 bound_to 6896
  146.0815  139.5404  142.9534 H   0  0  0  0  0  0  0  0  0  0  0  0  # atno 7974 bound_to 7965
  155.1982  140.3313  155.4347 H   0  0  0  0  0  0  0  0  0  0  0  0  # atno 8008 bound_to 7997
  156.2417  140.1898  156.7020 H   0  0  0  0  0  0  0  0  0  0  0  0  # atno 8009 bound_to 7997
  154.6159  140.0602  156.9540 H   0  0  0  0  0  0  0  0  0  0  0  0  # atno 8010 bound_to 7997
  139.5674  144.6919  151.3872 H   0  0  0  0  0  0  0  0  0  0  0  0  # atno 10167 bound_to 10162
  157.3770  130.7733  149.7163 H   0  0  0  0  0  0  0  0  0  0  0  0  # atno 10718 bound_to 10713
  153.5720  135.3500  155.2841 H   0  0  0  0  0  0  0  0  0  0  0  0  # atno 10763 bound_to 10752
  154.8680  135.4161  154.2714 H   0  0  0  0  0  0  0  0  0  0  0  0  # atno 10764 bound_to 10752
  153.3482  135.7053  153.6880 H   0  0  0  0  0  0  0  0  0  0  0  0  # atno 10765 bound_to 10752
  141.1430  133.8054  157.0488 H   0  0  0  0  0  0  0  0  0  0  0  0  # atno 11005 bound_to 11000
  145.6209  141.0322  143.1915 LP  0  0  0  0  0  0  0  0  0  0  0  0  # atno 17320 bound_to 7965
  144.7296  139.7766  143.7352 LP  0  0  0  0  0  0  0  0  0  0  0  0  # atno 17321 bound_to 7965
  140.6958  143.7752  150.7325 LP  0  0  0  0  0  0  0  0  0  0  0  0  # atno 17342 bound_to 10162
  140.1248  143.4579  152.2291 LP  0  0  0  0  0  0  0  0  0  0  0  0  # atno 17343 bound_to 10162
  155.9767  130.4072  150.3758 LP  0  0  0  0  0  0  0  0  0  0  0  0  # atno 17370 bound_to 10713
  157.1857  131.0403  151.2726 LP  0  0  0  0  0  0  0  0  0  0  0  0  # atno 17371 bound_to 10713
  140.0645  134.9736  157.1362 LP  0  0  0  0  0  0  0  0  0  0  0  0  # atno 17394 bound_to 11000
  140.3800  134.2297  155.7171 LP  0  0  0  0  0  0  0  0  0  0  0  0  # atno 17395 bound_to 11000

$$$$
