AV-unprocessed.smi:1830|AV-procd|sdf|7438|dock6
  -GOLD-   22720 9123D 1   1.00000     0.00000
 Structure written by MMmdl.
 53 56  0  0  0  0  0  0  0  0  2 V2000
  150.2989  135.6627  156.0649 O   0  0  0  0  0  0  0  0  0  0  0  0
  149.8468  135.8379  154.9343 C   0  0  0  0  0  0  0  0  0  0  0  0
  149.5760  137.0483  154.4256 N   0  0  0  0  0  0  0  0  0  0  0  0
  149.7926  138.3240  155.1013 C   0  0  0  0  0  0  0  0  0  0  0  0
  151.2714  138.7506  155.0017 C   0  0  2  0  0  0  0  0  0  0  0  0
  152.1533  138.1507  156.1249 C   0  0  0  0  0  0  0  0  0  0  0  0
  151.8908  138.8720  157.3845 N   0  3  1  0  0  0  0  0  0  0  0  0
  152.6285  138.4574  158.5909 C   0  0  0  0  0  0  0  0  0  0  0  0
  152.6284  139.7007  159.5028 C   0  0  0  0  0  0  0  0  0  0  0  0
  152.0115  140.8339  158.6634 C   0  0  0  0  0  0  0  0  0  0  0  0
  152.1274  140.3093  157.2356 C   0  0  2  0  0  0  0  0  0  0  0  0
  151.1638  140.8696  156.1836 C   0  0  0  0  0  0  0  0  0  0  0  0
  151.4062  140.1805  154.9534 O   0  0  0  0  0  0  0  0  0  0  0  0
  149.5476  134.8683  154.0527 N   0  0  0  0  0  0  0  0  0  0  0  0
  149.6264  133.4522  154.2046 C   0  0  0  0  0  0  0  0  0  0  0  0
  150.5252  132.8098  155.0923 C   0  0  0  0  0  0  0  0  0  0  0  0
  150.5333  131.4049  155.1647 C   0  0  0  0  0  0  0  0  0  0  0  0
  149.6475  130.6871  154.3421 C   0  0  0  0  0  0  0  0  0  0  0  0
  148.7971  131.2805  153.4807 N   0  0  0  0  0  0  0  0  0  0  0  0
  148.7860  132.6339  153.4052 C   0  0  0  0  0  0  0  0  0  0  0  0
  147.8981  133.2263  152.4888 N   0  0  0  0  0  0  0  0  0  0  0  0
  146.8375  134.0299  153.0722 C   0  0  0  0  0  0  0  0  0  0  0  0
  145.8365  134.2550  151.9377 C   0  0  0  0  0  0  0  0  0  0  0  0
  146.0618  133.0789  150.9796 C   0  0  0  0  0  0  0  0  0  0  0  0
  147.2469  132.3070  151.5693 C   0  0  0  0  0  0  0  0  0  0  0  0
  149.2032  137.0914  153.4881 H   0  0  0  0  0  0  0  0  0  0  0  0
  149.1337  139.0678  154.6544 H   0  0  0  0  0  0  0  0  0  0  0  0
  149.5059  138.2668  156.1525 H   0  0  0  0  0  0  0  0  0  0  0  0
  151.6513  138.3726  154.0516 H   0  0  0  0  0  0  0  0  0  0  0  0
  151.9548  137.0860  156.2526 H   0  0  0  0  0  0  0  0  0  0  0  0
  153.2082  138.2502  155.8643 H   0  0  0  0  0  0  0  0  0  0  0  0
  152.1572  137.5936  159.0606 H   0  0  0  0  0  0  0  0  0  0  0  0
  153.6523  138.1857  158.3287 H   0  0  0  0  0  0  0  0  0  0  0  0
  152.0536  139.5335  160.4143 H   0  0  0  0  0  0  0  0  0  0  0  0
  153.6483  139.9486  159.7993 H   0  0  0  0  0  0  0  0  0  0  0  0
  150.9624  140.9653  158.9329 H   0  0  0  0  0  0  0  0  0  0  0  0
  152.5176  141.7896  158.8038 H   0  0  0  0  0  0  0  0  0  0  0  0
  153.1545  140.4611  156.8957 H   0  0  0  0  0  0  0  0  0  0  0  0
  150.1242  140.7615  156.4939 H   0  0  0  0  0  0  0  0  0  0  0  0
  151.3412  141.9347  156.0343 H   0  0  0  0  0  0  0  0  0  0  0  0
  149.1352  135.1767  153.1843 H   0  0  0  0  0  0  0  0  0  0  0  0
  151.2177  133.3581  155.7106 H   0  0  0  0  0  0  0  0  0  0  0  0
  151.2063  130.8898  155.8339 H   0  0  0  0  0  0  0  0  0  0  0  0
  149.6256  129.6078  154.3714 H   0  0  0  0  0  0  0  0  0  0  0  0
  146.3584  133.4960  153.8942 H   0  0  0  0  0  0  0  0  0  0  0  0
  147.2241  134.9725  153.4609 H   0  0  0  0  0  0  0  0  0  0  0  0
  144.8107  134.3070  152.3039 H   0  0  0  0  0  0  0  0  0  0  0  0
  146.0553  135.1931  151.4260 H   0  0  0  0  0  0  0  0  0  0  0  0
  145.1797  132.4433  150.8959 H   0  0  0  0  0  0  0  0  0  0  0  0
  146.3008  133.4482  149.9815 H   0  0  0  0  0  0  0  0  0  0  0  0
  147.9374  131.9784  150.7918 H   0  0  0  0  0  0  0  0  0  0  0  0
  146.8902  131.4214  152.0972 H   0  0  0  0  0  0  0  0  0  0  0  0
  150.9096  138.7629  157.5976 H   0  0  0  0  0  0  0  0  0  0  0  0
  1  2  2  0  0  0  0
  2  3  1  0  0  0  0
  2 14  1  0  0  0  0
  3  4  1  0  0  0  0
  3 26  1  0  0  0  0
  4  5  1  0  0  0  0
  4 27  1  0  0  0  0
  4 28  1  0  0  0  0
  5 13  1  0  0  0  0
  5  6  1  0  0  0  0
  5 29  1  0  0  0  0
  6  7  1  0  0  0  0
  6 30  1  0  0  0  0
  6 31  1  0  0  0  0
  7 11  1  0  0  0  0
  7  8  1  0  0  0  0
  7 53  1  0  0  0  0
  8  9  1  0  0  0  0
  8 32  1  0  0  0  0
  8 33  1  0  0  0  0
  9 10  1  0  0  0  0
  9 34  1  0  0  0  0
  9 35  1  0  0  0  0
 10 11  1  0  0  0  0
 10 36  1  0  0  0  0
 10 37  1  0  0  0  0
 11 12  1  0  0  0  0
 11 38  1  0  0  0  0
 12 13  1  0  0  0  0
 12 39  1  0  0  0  0
 12 40  1  0  0  0  0
 14 15  1  0  0  0  0
 14 41  1  0  0  0  0
 15 20  1  0  0  0  0
 15 16  2  0  0  0  0
 16 17  1  0  0  0  0
 16 42  1  0  0  0  0
 17 18  2  0  0  0  0
 17 43  1  0  0  0  0
 18 19  1  0  0  0  0
 18 44  1  0  0  0  0
 19 20  2  0  0  0  0
 20 21  1  0  0  0  0
 21 25  1  0  0  0  0
 21 22  1  0  0  0  0
 22 23  1  0  0  0  0
 22 45  1  0  0  0  0
 22 46  1  0  0  0  0
 23 24  1  0  0  0  0
 23 47  1  0  0  0  0
 23 48  1  0  0  0  0
 24 25  1  0  0  0  0
 24 49  1  0  0  0  0
 24 50  1  0  0  0  0
 25 51  1  0  0  0  0
 25 52  1  0  0  0  0
M  CHG  1   7   1
M  END
> <s_m_source_file>
AV-unprocessed.smi

> <i_m_source_file_index>
1830

> <i_lp_mmshare_version>
43012

> <i_f3d_flags>
0

> <s_epik_input>
W0NIMl0xW0NIMl1bQ0gyXVtDQEhdKE4xMilbQ0gyXU9bQ0BASF0oW0NIMl0yKVtDSDJdW05IXUMoPU8pW05IXWMzW2NIXVtjSF1bY0hdbmMzTjRbQ0gyXVtDSDJdW0NIMl1bQ0gyXTQ=

> <s_epik_cmdline>
J2VwaWtfcHl0aG9uJywgJy1waCcsICc3LjAnLCAnLXRuJywgJzgnLCAnLW1hJywgJzIwMCcsICctbWV0YWxfYmluZGluZycsICctaW1hZScsICc8aW5maWxlLm1hZT4nLCAnLW9tYWUnLCAnPG91dGZpbGUubWFlPic=

> <r_lp_tautomer_probability>
1

> <r_epik_Ionization_Penalty>
0.193547

> <r_epik_Ionization_Penalty_Charging>
0.10673

> <r_epik_Ionization_Penalty_Neutral>
0.0868166

> <r_epik_State_Penalty>
0.173595

> <r_epik_Charging_Adjusted_Penalty>
0.280326

> <i_epik_Tot_Q>
1

> <i_epik_Tot_abs_Q>
1

> <r_epik_Metal_State_Penalty>
0.164683

> <b_epik_Metal_Only>
0

> <s_lp_Force_Field>
OPLS_2005

> <r_lp_Energy>
70.9361

> <b_lp_Chiralities_Consistent>
1

> <s_lp_Variant>
AV-unprocessed.smi:1830-7

> <Gold.Version>
5.8.1

> <Gold.Id.Protein>
6NUR|6NUR_protein|mol2

> <Gold.PLP.Fitness>
44.6873

> <Gold.PLP.PLP>
-37.3489

> <Gold.PLP.part.hbond>
-3.0353

> <Gold.PLP.part.metal>
0.0000

> <Gold.PLP.part.buried>
-1.9573

> <Gold.PLP.part.nonpolar>
-31.7246

> <Gold.PLP.part.repulsive>
0.4807

> <Gold.PLP.ligand.clash>
0.0000

> <Gold.PLP.ligand.torsion>
0.7679

> <Gold.PLP.Chemscore.Hbond>
2.9440

> <Gold.PLP.Chemscore.CHOScore>
0.0000

> <Gold.PLP.Chemscore.Metal>
0.0000

> <Gold.Chemscore.Hbonds>
donor molecule, donor type, donor heavy atom, donor atom, acceptor molecule, acceptor atom, score
      L1  H     3    26       P1  7948  0.94
      L1  H    14    41       P1  7948  0.90
      P1  H  7989  7998       L1    13  1.00

> <Gold.PLP.Chemscore.Internal.Correction>
0.0423

> <Gold.Rescore>
     Score         DG    S(hbond)    S(metal)    S(lipo)     H(rot)  DE(clash)    DE(int)     intcor
     18.23     -20.30       2.51        0.00      85.92       1.41       0.03       2.04       ----

> <Gold.Chemscore.Fitness>
18.2280

> <Gold.Chemscore.DG>
-20.2983

> <Gold.Chemscore.ZeroCoef>
-5.4800

> <Gold.Chemscore.Hbond>
2.5051

> <Gold.Chemscore.Metal>
0.0000

> <Gold.Chemscore.Lipo>
85.9179

> <Gold.Chemscore.Internal_Hbond>
0.0000

> <Gold.Chemscore.DEClash>
0.0308

> <Gold.Chemscore.DEInternal>
2.0395

> <Gold.Chemscore.Rot>
1.4067

> <Gold.Chemscore.Internal.Correction>
   9.000000E+99

> <Gold.Chemscore.Hbonds>
donor molecule, donor type, donor heavy atom, donor atom, acceptor molecule, acceptor atom, score
      L1  H     3    26       P1  7948  0.90
      L1  H    14    41       P1  7948  0.17
      P1  H  7989  7998       L1    13  0.93

> <Gold.Chemscore.Hbond.Weighted>
-8.3670

> <Gold.Chemscore.Metal.Weighted>
-0.0000

> <Gold.Chemscore.Lipo.Weighted>
-10.0524

> <Gold.Chemscore.Internal_Hbond.Weighted>
0.0000

> <Gold.Chemscore.DEClash.Weighted>
0.0308

> <Gold.Chemscore.DEInternal.Weighted>
2.0395

> <Gold.Chemscore.Rot.Weighted>
3.6011

> <Gold.Chemscore.Internal.Correction.Weighted>
   9.000000E+99

> <Gold.Protein.RotatedTorsions>
[ 6907 6896 6895 6894 ] final   24.07 input  -60.11 | X-H torsion
[ 7974 7965 7964 7962 ] final  -61.68 input  175.53 | X-H torsion
[ 8008 7997 7996 7995 ] final  -81.50 input   59.86 | X-H torsion
[ 10167 10162 10161 10158 ] final   61.34 input  -65.29 | X-H torsion
[ 10718 10713 10712 10709 ] final -101.03 input   66.30 | X-H torsion
[ 10763 10752 10751 10750 ] final -139.71 input  -60.55 | X-H torsion
[ 11005 11000 10999 10996 ] final   44.46 input  -57.11 | X-H torsion

> <Gold.Protein.ActiveResidues>
 VAL166  LYS551  ARG553  GLY616  TRP617  ASP618  TYR619  PRO620  LYS621  CYS622 
 ASP623  PHE694  ASN695  SER759  ASP760  ASP761  ALA762  ILE779  LEU786  VAL792 
 PHE793  MET794  SER795  GLU796  ALA797  LYS798  CYS799  TRP800  GLU811  SER814 

> <Gold.Protein.RotatedAtoms>
  151.9519  135.0165  160.0542 H   0  0  0  0  0  0  0  0  0  0  0  0  # atno 6907 bound_to 6896
  152.1945  133.4792  159.5034 H   0  0  0  0  0  0  0  0  0  0  0  0  # atno 6908 bound_to 6896
  150.6942  134.1587  159.4211 H   0  0  0  0  0  0  0  0  0  0  0  0  # atno 6909 bound_to 6896
  145.8005  140.8657  143.0233 H   0  0  0  0  0  0  0  0  0  0  0  0  # atno 7974 bound_to 7965
  154.5990  140.0647  156.9342 H   0  0  0  0  0  0  0  0  0  0  0  0  # atno 8008 bound_to 7997
  155.2165  140.3327  155.4303 H   0  0  0  0  0  0  0  0  0  0  0  0  # atno 8009 bound_to 7997
  156.2306  140.1839  156.7237 H   0  0  0  0  0  0  0  0  0  0  0  0  # atno 8010 bound_to 7997
  140.1558  144.4418  150.6735 H   0  0  0  0  0  0  0  0  0  0  0  0  # atno 10167 bound_to 10162
  156.0181  130.5355  150.6904 H   0  0  0  0  0  0  0  0  0  0  0  0  # atno 10718 bound_to 10713
  154.8601  135.3574  154.5589 H   0  0  0  0  0  0  0  0  0  0  0  0  # atno 10763 bound_to 10752
  153.6205  135.7006  153.5317 H   0  0  0  0  0  0  0  0  0  0  0  0  # atno 10764 bound_to 10752
  153.3133  135.4172  155.1314 H   0  0  0  0  0  0  0  0  0  0  0  0  # atno 10765 bound_to 10752
  140.1549  134.4414  155.8356 H   0  0  0  0  0  0  0  0  0  0  0  0  # atno 11005 bound_to 11000
  144.6769  140.0253  143.7483 LP  0  0  0  0  0  0  0  0  0  0  0  0  # atno 17320 bound_to 7965
  145.9882  139.2994  143.1001 LP  0  0  0  0  0  0  0  0  0  0  0  0  # atno 17321 bound_to 7965
  140.6674  143.2273  151.5709 LP  0  0  0  0  0  0  0  0  0  0  0  0  # atno 17342 bound_to 10162
  139.5404  144.2663  152.1339 LP  0  0  0  0  0  0  0  0  0  0  0  0  # atno 17343 bound_to 10162
  157.4587  131.0880  151.0769 LP  0  0  0  0  0  0  0  0  0  0  0  0  # atno 17370 bound_to 10713
  157.1264  130.6083  149.5518 LP  0  0  0  0  0  0  0  0  0  0  0  0  # atno 17371 bound_to 10713
  141.2203  133.6888  156.7490 LP  0  0  0  0  0  0  0  0  0  0  0  0  # atno 17394 bound_to 11000
  140.2559  134.8504  157.3712 LP  0  0  0  0  0  0  0  0  0  0  0  0  # atno 17395 bound_to 11000

$$$$
