AV-unprocessed.smi:3193|AV-procd|sdf|12204|dock2
  -GOLD-   2272018 43D 1   1.00000     0.00000
 Structure written by MMmdl.
 40 41  0  0  0  0  0  0  0  0  2 V2000
  152.6168  140.8161  159.5811 C   0  0  0  0  0  0  0  0  0  0  0  0
  151.9260  142.1906  159.5011 C   0  0  1  0  0  0  0  0  0  0  0  0
  152.8705  143.2735  160.0650 C   0  0  0  0  0  0  0  0  0  0  0  0
  152.2183  144.6624  160.0697 C   0  0  0  0  0  0  0  0  0  0  0  0
  151.7462  145.0462  158.6634 C   0  0  0  0  0  0  0  0  0  0  0  0
  150.7972  143.9815  158.0964 C   0  0  0  0  0  0  0  0  0  0  0  0
  151.4407  142.5768  158.0709 C   0  0  2  0  0  0  0  0  0  0  0  0
  150.4410  141.5690  157.4602 C   0  0  0  0  0  0  0  0  0  0  0  0
  150.0086  141.9730  156.1083 N   0  3  0  0  0  0  0  0  0  0  0  0
  149.0388  141.0567  155.4766 C   0  0  0  0  0  0  0  0  0  0  0  0
  149.6581  140.3397  154.2670 C   0  0  0  0  0  0  0  0  0  0  0  0
  150.6670  139.3775  154.6705 N   0  0  0  0  0  0  0  0  0  0  0  0
  151.7703  139.6106  155.4810 C   0  0  0  0  0  0  0  0  0  0  0  0
  152.4499  138.4169  155.5730 C   0  0  0  0  0  0  0  0  0  0  0  0
  151.7845  137.4414  154.8343 N   0  0  0  0  0  0  0  0  0  0  0  0
  150.7354  138.0813  154.3356 C   0  0  0  0  0  0  0  0  0  0  0  0
  153.4364  140.7384  158.8661 H   0  0  0  0  0  0  0  0  0  0  0  0
  151.9198  140.0003  159.3922 H   0  0  0  0  0  0  0  0  0  0  0  0
  153.0305  140.6430  160.5750 H   0  0  0  0  0  0  0  0  0  0  0  0
  151.0527  142.1488  160.1539 H   0  0  0  0  0  0  0  0  0  0  0  0
  153.1691  143.0168  161.0820 H   0  0  0  0  0  0  0  0  0  0  0  0
  153.7880  143.3059  159.4755 H   0  0  0  0  0  0  0  0  0  0  0  0
  151.3715  144.6689  160.7570 H   0  0  0  0  0  0  0  0  0  0  0  0
  152.9251  145.4049  160.4408 H   0  0  0  0  0  0  0  0  0  0  0  0
  151.2458  146.0147  158.6905 H   0  0  0  0  0  0  0  0  0  0  0  0
  152.6075  145.1605  158.0039 H   0  0  0  0  0  0  0  0  0  0  0  0
  149.8828  143.9574  158.6914 H   0  0  0  0  0  0  0  0  0  0  0  0
  150.4988  144.2749  157.0893 H   0  0  0  0  0  0  0  0  0  0  0  0
  152.3102  142.6356  157.4137 H   0  0  0  0  0  0  0  0  0  0  0  0
  150.8823  140.5716  157.4344 H   0  0  0  0  0  0  0  0  0  0  0  0
  149.5447  141.5000  158.0782 H   0  0  0  0  0  0  0  0  0  0  0  0
  149.6088  142.8994  156.1528 H   0  0  0  0  0  0  0  0  0  0  0  0
  148.7014  140.3202  156.2073 H   0  0  0  0  0  0  0  0  0  0  0  0
  148.1608  141.6248  155.1676 H   0  0  0  0  0  0  0  0  0  0  0  0
  148.8852  139.8098  153.7090 H   0  0  0  0  0  0  0  0  0  0  0  0
  150.1060  141.0593  153.5802 H   0  0  0  0  0  0  0  0  0  0  0  0
  151.9784  140.5797  155.9104 H   0  0  0  0  0  0  0  0  0  0  0  0
  153.3593  138.1871  156.1090 H   0  0  0  0  0  0  0  0  0  0  0  0
  150.0064  137.5977  153.7017 H   0  0  0  0  0  0  0  0  0  0  0  0
  150.8302  142.0049  155.5214 H   0  0  0  0  0  0  0  0  0  0  0  0
  1  2  1  0  0  0  0
  1 17  1  0  0  0  0
  1 18  1  0  0  0  0
  1 19  1  0  0  0  0
  2  7  1  0  0  0  0
  2  3  1  0  0  0  0
  2 20  1  0  0  0  0
  3  4  1  0  0  0  0
  3 21  1  0  0  0  0
  3 22  1  0  0  0  0
  4  5  1  0  0  0  0
  4 23  1  0  0  0  0
  4 24  1  0  0  0  0
  5  6  1  0  0  0  0
  5 25  1  0  0  0  0
  5 26  1  0  0  0  0
  6  7  1  0  0  0  0
  6 27  1  0  0  0  0
  6 28  1  0  0  0  0
  7  8  1  0  0  0  0
  7 29  1  0  0  0  0
  8  9  1  0  0  0  0
  8 30  1  0  0  0  0
  8 31  1  0  0  0  0
  9 10  1  0  0  0  0
  9 32  1  0  0  0  0
  9 40  1  0  0  0  0
 10 11  1  0  0  0  0
 10 33  1  0  0  0  0
 10 34  1  0  0  0  0
 11 12  1  0  0  0  0
 11 35  1  0  0  0  0
 11 36  1  0  0  0  0
 12 16  1  0  0  0  0
 12 13  1  0  0  0  0
 13 14  2  0  0  0  0
 13 37  1  0  0  0  0
 14 15  1  0  0  0  0
 14 38  1  0  0  0  0
 15 16  2  0  0  0  0
 16 39  1  0  0  0  0
M  CHG  1   9   1
M  END
> <s_m_source_file>
AV-unprocessed.smi

> <i_m_source_file_index>
3193

> <i_lp_mmshare_version>
43012

> <i_f3d_flags>
0

> <s_epik_input>
W0NIM11bQ0BASF0xW0NIMl1bQ0gyXVtDSDJdW0NIMl1bQ0BIXTFbQ0gyXVtOSF1bQ0gyXVtDSDJdbjJbY0hdW2NIXW5bY0hdMg==

> <s_epik_cmdline>
J2VwaWtfcHl0aG9uJywgJy1waCcsICc3LjAnLCAnLXRuJywgJzgnLCAnLW1hJywgJzIwMCcsICctbWV0YWxfYmluZGluZycsICctaW1hZScsICc8aW5maWxlLm1hZT4nLCAnLW9tYWUnLCAnPG91dGZpbGUubWFlPic=

> <r_lp_tautomer_probability>
1

> <r_epik_Ionization_Penalty>
0.0503046

> <r_epik_Ionization_Penalty_Charging>
0.0503046

> <r_epik_Ionization_Penalty_Neutral>
0

> <r_epik_State_Penalty>
0.0981804

> <r_epik_Charging_Adjusted_Penalty>
0.148485

> <i_epik_Tot_Q>
1

> <i_epik_Tot_abs_Q>
1

> <r_epik_Metal_State_Penalty>
0.000105854

> <b_epik_Metal_Only>
0

> <s_lp_Force_Field>
OPLS_2005

> <r_lp_Energy>
18.894

> <b_lp_Chiralities_Consistent>
1

> <s_lp_Variant>
AV-unprocessed.smi:3193-4

> <Gold.Version>
5.8.1

> <Gold.Id.Protein>
6NUR|6NUR_protein|mol2

> <Gold.PLP.Fitness>
49.4452

> <Gold.PLP.PLP>
-39.5058

> <Gold.PLP.part.hbond>
-1.8788

> <Gold.PLP.part.metal>
0.0000

> <Gold.PLP.part.buried>
-0.3893

> <Gold.PLP.part.nonpolar>
-37.0266

> <Gold.PLP.part.repulsive>
0.2114

> <Gold.PLP.ligand.clash>
0.0000

> <Gold.PLP.ligand.torsion>
0.4313

> <Gold.PLP.Chemscore.Hbond>
2.5961

> <Gold.PLP.Chemscore.CHOScore>
1.0000

> <Gold.PLP.Chemscore.Metal>
0.0000

> <Gold.Chemscore.Hbonds>
donor molecule, donor type, donor heavy atom, donor atom, acceptor molecule, acceptor atom, score
      L1  H     9    32       P1  8028  2.00
      P1  H 10752 10765       L1    15  0.62
      L1  C    16    39       P1  7948  1.00

> <Gold.PLP.Chemscore.Internal.Correction>
0.0136

> <Gold.Rescore>
     Score         DG    S(hbond)    S(metal)    S(lipo)     H(rot)  DE(clash)    DE(int)     intcor
     16.88     -18.48       1.50        0.00     109.77       1.89       0.28       1.31       ----

> <Gold.Chemscore.Fitness>
16.8843

> <Gold.Chemscore.DG>
-18.4801

> <Gold.Chemscore.ZeroCoef>
-5.4800

> <Gold.Chemscore.Hbond>
1.4952

> <Gold.Chemscore.Metal>
0.0000

> <Gold.Chemscore.Lipo>
109.7712

> <Gold.Chemscore.Internal_Hbond>
0.0000

> <Gold.Chemscore.DEClash>
0.2829

> <Gold.Chemscore.DEInternal>
1.3130

> <Gold.Chemscore.Rot>
1.8895

> <Gold.Chemscore.Internal.Correction>
   9.000000E+99

> <Gold.Chemscore.Hbonds>
donor molecule, donor type, donor heavy atom, donor atom, acceptor molecule, acceptor atom, score
      L1  H     9    32       P1  8028  0.94
      P1  H 10752 10765       L1    15  0.54

> <Gold.Chemscore.Hbond.Weighted>
-4.9940

> <Gold.Chemscore.Metal.Weighted>
-0.0000

> <Gold.Chemscore.Lipo.Weighted>
-12.8432

> <Gold.Chemscore.Internal_Hbond.Weighted>
0.0000

> <Gold.Chemscore.DEClash.Weighted>
0.2829

> <Gold.Chemscore.DEInternal.Weighted>
1.3130

> <Gold.Chemscore.Rot.Weighted>
4.8371

> <Gold.Chemscore.Internal.Correction.Weighted>
   9.000000E+99

> <Gold.Protein.RotatedTorsions>
[ 6907 6896 6895 6894 ] final  104.10 input  -60.11 | X-H torsion
[ 7974 7965 7964 7962 ] final -170.59 input  175.53 | X-H torsion
[ 8008 7997 7996 7995 ] final -160.27 input   59.86 | X-H torsion
[ 10167 10162 10161 10158 ] final  -58.89 input  -65.29 | X-H torsion
[ 10718 10713 10712 10709 ] final -171.58 input   66.30 | X-H torsion
[ 10763 10752 10751 10750 ] final  167.21 input  -60.55 | X-H torsion
[ 11005 11000 10999 10996 ] final  -23.34 input  -57.11 | X-H torsion

> <Gold.Protein.ActiveResidues>
 VAL166  LYS551  ARG553  GLY616  TRP617  ASP618  TYR619  PRO620  LYS621  CYS622 
 ASP623  PHE694  ASN695  SER759  ASP760  ASP761  ALA762  ILE779  LEU786  VAL792 
 PHE793  MET794  SER795  GLU796  ALA797  LYS798  CYS799  TRP800  GLU811  SER814 

> <Gold.Protein.RotatedAtoms>
  152.5275  133.9726  159.7769 H   0  0  0  0  0  0  0  0  0  0  0  0  # atno 6907 bound_to 6896
  150.9995  133.6062  159.2704 H   0  0  0  0  0  0  0  0  0  0  0  0  # atno 6908 bound_to 6896
  151.3176  135.0816  159.9347 H   0  0  0  0  0  0  0  0  0  0  0  0  # atno 6909 bound_to 6896
  144.7168  140.2049  143.6334 H   0  0  0  0  0  0  0  0  0  0  0  0  # atno 7974 bound_to 7965
  155.7749  140.0857  157.2089 H   0  0  0  0  0  0  0  0  0  0  0  0  # atno 8008 bound_to 7997
  154.3994  140.1518  156.3042 H   0  0  0  0  0  0  0  0  0  0  0  0  # atno 8009 bound_to 7997
  155.8711  140.3425  155.5824 H   0  0  0  0  0  0  0  0  0  0  0  0  # atno 8010 bound_to 7997
  140.6169  143.2405  151.5575 H   0  0  0  0  0  0  0  0  0  0  0  0  # atno 10167 bound_to 10162
  156.7429  130.9349  151.3111 H   0  0  0  0  0  0  0  0  0  0  0  0  # atno 10718 bound_to 10713
  154.3505  135.2753  155.2374 H   0  0  0  0  0  0  0  0  0  0  0  0  # atno 10763 bound_to 10752
  154.4606  135.5908  153.6256 H   0  0  0  0  0  0  0  0  0  0  0  0  # atno 10764 bound_to 10752
  152.9850  135.6064  154.3715 H   0  0  0  0  0  0  0  0  0  0  0  0  # atno 10765 bound_to 10752
  140.8742  133.7699  156.0223 H   0  0  0  0  0  0  0  0  0  0  0  0  # atno 11005 bound_to 11000
  145.8645  139.2240  143.1697 LP  0  0  0  0  0  0  0  0  0  0  0  0  # atno 17320 bound_to 7965
  146.0142  140.8407  142.9955 LP  0  0  0  0  0  0  0  0  0  0  0  0  # atno 17321 bound_to 7965
  139.5406  144.2658  152.1343 LP  0  0  0  0  0  0  0  0  0  0  0  0  # atno 17342 bound_to 10162
  140.1869  144.4789  150.6499 LP  0  0  0  0  0  0  0  0  0  0  0  0  # atno 17343 bound_to 10162
  157.6810  130.9140  150.0268 LP  0  0  0  0  0  0  0  0  0  0  0  0  # atno 17370 bound_to 10713
  156.1452  130.3642  149.9521 LP  0  0  0  0  0  0  0  0  0  0  0  0  # atno 17371 bound_to 10713
  140.8537  134.2923  157.5264 LP  0  0  0  0  0  0  0  0  0  0  0  0  # atno 17394 bound_to 11000
  139.8714  134.9481  156.3988 LP  0  0  0  0  0  0  0  0  0  0  0  0  # atno 17395 bound_to 11000

$$$$
