AV-unprocessed.smi:1123|AV-procd|sdf|4830|dock9
  -GOLD-   22720 3393D 1   1.00000     0.00000
 Structure written by MMmdl.
 37 38  0  0  0  0  0  0  0  0  1 V2000
  148.7309  141.3349  155.0391 C   0  0  0  0  0  0  0  0  0  0  0  0
  150.1478  141.0022  155.5494 C   0  0  1  0  0  0  0  0  0  0  0  0
  150.3870  141.4657  156.9959 C   0  0  0  0  0  0  0  0  0  0  0  0
  150.7069  140.6603  157.8710 O   0  0  0  0  0  0  0  0  0  0  0  0
  150.2257  142.7774  157.2335 N   0  0  0  0  0  0  0  0  0  0  0  0
  150.4139  143.4245  158.5258 C   0  0  0  0  0  0  0  0  0  0  0  0
  151.7969  144.0961  158.6211 C   0  0  0  0  0  0  0  0  0  0  0  0
  152.6962  143.5156  159.6165 N   0  0  0  0  0  0  0  0  0  0  0  0
  152.9593  142.0975  159.3804 C   0  0  0  0  0  0  0  0  0  0  0  0
  153.8837  141.4980  160.4551 C   0  0  0  0  0  0  0  0  0  0  0  0
  153.3171  141.7029  161.7451 O   0  0  0  0  0  0  0  0  0  0  0  0
  153.0898  143.0788  162.0315 C   0  0  0  0  0  0  0  0  0  0  0  0
  152.1592  143.6790  160.9635 C   0  0  0  0  0  0  0  0  0  0  0  0
  150.4598  139.5847  155.4121 N   0  0  0  0  0  0  0  0  0  0  0  0
  151.4763  138.8780  155.9109 C   0  0  0  0  0  0  0  0  0  0  0  0
  151.4285  137.5857  155.6199 N   0  0  0  0  0  0  0  0  0  0  0  0
  150.2705  137.5581  154.8959 C   0  0  0  0  0  0  0  0  0  0  0  0
  149.6452  138.7259  154.7495 N   0  0  0  0  0  0  0  0  0  0  0  0
  148.5348  142.4061  155.0949 H   0  0  0  0  0  0  0  0  0  0  0  0
  147.9571  140.8271  155.6164 H   0  0  0  0  0  0  0  0  0  0  0  0
  148.6140  141.0360  153.9971 H   0  0  0  0  0  0  0  0  0  0  0  0
  150.8518  141.5471  154.9183 H   0  0  0  0  0  0  0  0  0  0  0  0
  149.9602  143.3710  156.4612 H   0  0  0  0  0  0  0  0  0  0  0  0
  149.6183  144.1605  158.6365 H   0  0  0  0  0  0  0  0  0  0  0  0
  150.2838  142.6994  159.3308 H   0  0  0  0  0  0  0  0  0  0  0  0
  152.2719  144.0229  157.6419 H   0  0  0  0  0  0  0  0  0  0  0  0
  151.6733  145.1629  158.8133 H   0  0  0  0  0  0  0  0  0  0  0  0
  152.0193  141.5441  159.3641 H   0  0  0  0  0  0  0  0  0  0  0  0
  153.4244  141.9549  158.4060 H   0  0  0  0  0  0  0  0  0  0  0  0
  154.0156  140.4290  160.2889 H   0  0  0  0  0  0  0  0  0  0  0  0
  154.8739  141.9538  160.4094 H   0  0  0  0  0  0  0  0  0  0  0  0
  152.6402  143.1680  163.0204 H   0  0  0  0  0  0  0  0  0  0  0  0
  154.0402  143.6138  162.0614 H   0  0  0  0  0  0  0  0  0  0  0  0
  152.0065  144.7378  161.1752 H   0  0  0  0  0  0  0  0  0  0  0  0
  151.1797  143.2034  161.0317 H   0  0  0  0  0  0  0  0  0  0  0  0
  152.2662  139.3172  156.5022 H   0  0  0  0  0  0  0  0  0  0  0  0
  149.8733  136.6490  154.4688 H   0  0  0  0  0  0  0  0  0  0  0  0
  1  2  1  0  0  0  0
  1 19  1  0  0  0  0
  1 20  1  0  0  0  0
  1 21  1  0  0  0  0
  2  3  1  0  0  0  0
  2 14  1  0  0  0  0
  2 22  1  0  0  0  0
  3  4  2  0  0  0  0
  3  5  1  0  0  0  0
  5  6  1  0  0  0  0
  5 23  1  0  0  0  0
  6  7  1  0  0  0  0
  6 24  1  0  0  0  0
  6 25  1  0  0  0  0
  7  8  1  0  0  0  0
  7 26  1  0  0  0  0
  7 27  1  0  0  0  0
  8 13  1  0  0  0  0
  8  9  1  0  0  0  0
  9 10  1  0  0  0  0
  9 28  1  0  0  0  0
  9 29  1  0  0  0  0
 10 11  1  0  0  0  0
 10 30  1  0  0  0  0
 10 31  1  0  0  0  0
 11 12  1  0  0  0  0
 12 13  1  0  0  0  0
 12 32  1  0  0  0  0
 12 33  1  0  0  0  0
 13 34  1  0  0  0  0
 13 35  1  0  0  0  0
 14 18  1  0  0  0  0
 14 15  1  0  0  0  0
 15 16  2  0  0  0  0
 15 36  1  0  0  0  0
 16 17  1  0  0  0  0
 17 18  2  0  0  0  0
 17 37  1  0  0  0  0
M  END
> <s_m_source_file>
AV-unprocessed.smi

> <i_m_source_file_index>
1123

> <i_lp_mmshare_version>
43012

> <i_f3d_flags>
0

> <s_epik_input>
bjFbY0hdbltjSF1uMVtDQEhdKFtDSDNdKUMoPU8pW05IXVtDSDJdW0NIMl1OMltDSDJdW0NIMl1PW0NIMl1bQ0gyXTI=

> <s_epik_cmdline>
J2VwaWtfcHl0aG9uJywgJy1waCcsICc3LjAnLCAnLXRuJywgJzgnLCAnLW1hJywgJzIwMCcsICctbWV0YWxfYmluZGluZycsICctaW1hZScsICc8aW5maWxlLm1hZT4nLCAnLW9tYWUnLCAnPG91dGZpbGUubWFlPic=

> <r_lp_tautomer_probability>
1

> <r_epik_Ionization_Penalty>
0.211373

> <r_epik_Ionization_Penalty_Charging>
0

> <r_epik_Ionization_Penalty_Neutral>
0.211373

> <r_epik_State_Penalty>
0.201459

> <r_epik_Charging_Adjusted_Penalty>
0.201459

> <i_epik_Tot_Q>
0

> <i_epik_Tot_abs_Q>
0

> <r_epik_Metal_State_Penalty>
0.201458

> <b_epik_Metal_Only>
0

> <s_lp_Force_Field>
OPLS_2005

> <r_lp_Energy>
26.9465

> <b_lp_Chiralities_Consistent>
1

> <s_lp_Variant>
AV-unprocessed.smi:1123-2

> <Gold.Version>
5.8.1

> <Gold.Id.Protein>
6NUR|6NUR_protein|mol2

> <Gold.PLP.Fitness>
44.7944

> <Gold.PLP.PLP>
-40.1369

> <Gold.PLP.part.hbond>
-1.2801

> <Gold.PLP.part.metal>
0.0000

> <Gold.PLP.part.buried>
-4.8158

> <Gold.PLP.part.nonpolar>
-34.0898

> <Gold.PLP.part.repulsive>
0.2575

> <Gold.PLP.ligand.clash>
0.0000

> <Gold.PLP.ligand.torsion>
0.8444

> <Gold.PLP.Chemscore.Hbond>
1.0000

> <Gold.PLP.Chemscore.CHOScore>
1.0711

> <Gold.PLP.Chemscore.Metal>
0.0000

> <Gold.Chemscore.Hbonds>
donor molecule, donor type, donor heavy atom, donor atom, acceptor molecule, acceptor atom, score
      L1  H     5    23       P1  8028  1.00
      L1  C    17    37       P1  7948  0.40

> <Gold.PLP.Chemscore.Internal.Correction>
0.1332

> <Gold.Rescore>
     Score         DG    S(hbond)    S(metal)    S(lipo)     H(rot)  DE(clash)    DE(int)     intcor
      9.49     -11.21       0.99        0.00      77.75       2.61       0.04       1.68       ----

> <Gold.Chemscore.Fitness>
9.4889

> <Gold.Chemscore.DG>
-11.2144

> <Gold.Chemscore.ZeroCoef>
-5.4800

> <Gold.Chemscore.Hbond>
0.9936

> <Gold.Chemscore.Metal>
0.0000

> <Gold.Chemscore.Lipo>
77.7497

> <Gold.Chemscore.Internal_Hbond>
0.0000

> <Gold.Chemscore.DEClash>
0.0407

> <Gold.Chemscore.DEInternal>
1.6848

> <Gold.Chemscore.Rot>
2.6097

> <Gold.Chemscore.Internal.Correction>
   9.000000E+99

> <Gold.Chemscore.Hbonds>
donor molecule, donor type, donor heavy atom, donor atom, acceptor molecule, acceptor atom, score
      L1  H     5    23       P1  8028  0.97

> <Gold.Chemscore.Hbond.Weighted>
-3.3185

> <Gold.Chemscore.Metal.Weighted>
-0.0000

> <Gold.Chemscore.Lipo.Weighted>
-9.0967

> <Gold.Chemscore.Internal_Hbond.Weighted>
0.0000

> <Gold.Chemscore.DEClash.Weighted>
0.0407

> <Gold.Chemscore.DEInternal.Weighted>
1.6848

> <Gold.Chemscore.Rot.Weighted>
6.6809

> <Gold.Chemscore.Internal.Correction.Weighted>
   9.000000E+99

> <Gold.Protein.RotatedTorsions>
[ 6907 6896 6895 6894 ] final  -57.68 input  -60.11 | X-H torsion
[ 7974 7965 7964 7962 ] final   73.15 input  175.53 | X-H torsion
[ 8008 7997 7996 7995 ] final   16.88 input   59.86 | X-H torsion
[ 10167 10162 10161 10158 ] final -155.61 input  -65.29 | X-H torsion
[ 10718 10713 10712 10709 ] final -152.55 input   66.30 | X-H torsion
[ 10763 10752 10751 10750 ] final -114.59 input  -60.55 | X-H torsion
[ 11005 11000 10999 10996 ] final   46.31 input  -57.11 | X-H torsion

> <Gold.Protein.ActiveResidues>
 VAL166  LYS551  ARG553  GLY616  TRP617  ASP618  TYR619  PRO620  LYS621  CYS622 
 ASP623  PHE694  ASN695  SER759  ASP760  ASP761  ALA762  ILE779  LEU786  VAL792 
 PHE793  MET794  SER795  GLU796  ALA797  LYS798  CYS799  TRP800  GLU811  SER814 

> <Gold.Protein.RotatedAtoms>
  150.8066  134.7195  159.6649 H   0  0  0  0  0  0  0  0  0  0  0  0  # atno 6907 bound_to 6896
  152.4186  134.5993  160.0005 H   0  0  0  0  0  0  0  0  0  0  0  0  # atno 6908 bound_to 6896
  151.6215  133.3301  159.3125 H   0  0  0  0  0  0  0  0  0  0  0  0  # atno 6909 bound_to 6896
  145.7445  139.2734  143.1467 H   0  0  0  0  0  0  0  0  0  0  0  0  # atno 7974 bound_to 7965
  154.8833  140.2976  155.5413 H   0  0  0  0  0  0  0  0  0  0  0  0  # atno 8008 bound_to 7997
  156.3022  140.2438  156.3772 H   0  0  0  0  0  0  0  0  0  0  0  0  # atno 8009 bound_to 7997
  154.8694  140.0402  157.1704 H   0  0  0  0  0  0  0  0  0  0  0  0  # atno 8010 bound_to 7997
  139.6917  143.9409  152.2388 H   0  0  0  0  0  0  0  0  0  0  0  0  # atno 10167 bound_to 10162
  156.4740  130.8272  151.2501 H   0  0  0  0  0  0  0  0  0  0  0  0  # atno 10718 bound_to 10713
  154.8446  135.4412  154.1529 H   0  0  0  0  0  0  0  0  0  0  0  0  # atno 10763 bound_to 10752
  153.2685  135.6943  153.7511 H   0  0  0  0  0  0  0  0  0  0  0  0  # atno 10764 bound_to 10752
  153.6760  135.3411  155.3141 H   0  0  0  0  0  0  0  0  0  0  0  0  # atno 10765 bound_to 10752
  140.1380  134.4620  155.8471 H   0  0  0  0  0  0  0  0  0  0  0  0  # atno 11005 bound_to 11000
  146.0416  140.8159  142.9826 LP  0  0  0  0  0  0  0  0  0  0  0  0  # atno 17320 bound_to 7965
  144.6863  140.2918  143.7277 LP  0  0  0  0  0  0  0  0  0  0  0  0  # atno 17321 bound_to 7965
  139.9227  144.6790  150.8445 LP  0  0  0  0  0  0  0  0  0  0  0  0  # atno 17342 bound_to 10162
  140.7684  143.3364  151.2301 LP  0  0  0  0  0  0  0  0  0  0  0  0  # atno 17343 bound_to 10162
  157.7489  131.0067  150.3160 LP  0  0  0  0  0  0  0  0  0  0  0  0  # atno 17370 bound_to 10713
  156.3589  130.3843  149.7268 LP  0  0  0  0  0  0  0  0  0  0  0  0  # atno 17371 bound_to 10713
  141.2181  133.6822  156.7193 LP  0  0  0  0  0  0  0  0  0  0  0  0  # atno 17394 bound_to 11000
  140.2758  134.8356  157.3889 LP  0  0  0  0  0  0  0  0  0  0  0  0  # atno 17395 bound_to 11000

$$$$
