AV-unprocessed.smi:1554|AV-procd|sdf|6248|dock7
  -GOLD-   22720 6433D 1   1.00000     0.00000
 Structure written by MMmdl.
 48 50  0  0  0  0  0  0  0  0  2 V2000
  153.3156  141.9771  160.9745 C   0  0  0  0  0  0  0  0  0  0  0  0
  152.5523  141.8896  159.6646 C   0  0  0  0  0  0  0  0  0  0  0  0
  152.9818  140.9725  158.6791 C   0  0  0  0  0  0  0  0  0  0  0  0
  152.2988  140.8582  157.4488 C   0  0  0  0  0  0  0  0  0  0  0  0
  152.5416  140.0414  156.3582 N   0  0  0  0  0  0  0  0  0  0  0  0
  151.5677  140.4042  155.5287 C   0  0  0  0  0  0  0  0  0  0  0  0
  150.7251  141.3673  155.9502 N   0  0  0  0  0  0  0  0  0  0  0  0
  149.6034  141.9324  155.2172 C   0  0  0  0  0  0  0  0  0  0  0  0
  148.5302  140.8905  154.8302 C   0  0  2  0  0  0  0  0  0  0  0  0
  147.8632  141.3366  153.6646 O   0  0  0  0  0  0  0  0  0  0  0  0
  147.4861  140.6514  155.9438 C   0  0  0  0  0  0  0  0  0  0  0  0
  146.8687  141.9101  156.4399 N   0  3  1  0  0  0  0  0  0  0  0  0
  145.7959  142.4578  155.5704 C   0  0  0  0  0  0  0  0  0  0  0  0
  144.4691  141.6947  155.7571 C   0  0  0  0  0  0  0  0  0  0  0  0
  144.1036  141.6857  157.1318 O   0  0  0  0  0  0  0  0  0  0  0  0
  145.0761  141.0452  157.9506 C   0  0  2  0  0  0  0  0  0  0  0  0
  144.5420  141.0068  159.3863 C   0  0  0  0  0  0  0  0  0  0  0  0
  146.4025  141.8258  157.8459 C   0  0  0  0  0  0  0  0  0  0  0  0
  151.1659  141.6948  157.2284 C   0  0  0  0  0  0  0  0  0  0  0  0
  150.7273  142.6094  158.2027 C   0  0  0  0  0  0  0  0  0  0  0  0
  151.4218  142.7113  159.4259 C   0  0  0  0  0  0  0  0  0  0  0  0
  150.9414  143.7036  160.4702 C   0  0  0  0  0  0  0  0  0  0  0  0
  154.1322  141.2554  161.0081 H   0  0  0  0  0  0  0  0  0  0  0  0
  152.6544  141.7716  161.8164 H   0  0  0  0  0  0  0  0  0  0  0  0
  153.7424  142.9721  161.1028 H   0  0  0  0  0  0  0  0  0  0  0  0
  153.8424  140.3457  158.8611 H   0  0  0  0  0  0  0  0  0  0  0  0
  151.4647  139.9501  154.5539 H   0  0  0  0  0  0  0  0  0  0  0  0
  149.1612  142.7276  155.8192 H   0  0  0  0  0  0  0  0  0  0  0  0
  149.9917  142.4131  154.3187 H   0  0  0  0  0  0  0  0  0  0  0  0
  149.0447  139.9630  154.5818 H   0  0  0  0  0  0  0  0  0  0  0  0
  148.4886  141.4076  152.9601 H   0  0  0  0  0  0  0  0  0  0  0  0
  146.7070  139.9788  155.5867 H   0  0  0  0  0  0  0  0  0  0  0  0
  147.9712  140.1338  156.7728 H   0  0  0  0  0  0  0  0  0  0  0  0
  145.6453  143.5040  155.8393 H   0  0  0  0  0  0  0  0  0  0  0  0
  146.0944  142.4534  154.5228 H   0  0  0  0  0  0  0  0  0  0  0  0
  143.6772  142.1827  155.1887 H   0  0  0  0  0  0  0  0  0  0  0  0
  144.5372  140.6733  155.3810 H   0  0  0  0  0  0  0  0  0  0  0  0
  145.2156  140.0181  157.6089 H   0  0  0  0  0  0  0  0  0  0  0  0
  145.2506  140.5178  160.0552 H   0  0  0  0  0  0  0  0  0  0  0  0
  143.6027  140.4557  159.4384 H   0  0  0  0  0  0  0  0  0  0  0  0
  144.3603  142.0120  159.7683 H   0  0  0  0  0  0  0  0  0  0  0  0
  147.1706  141.3770  158.4771 H   0  0  0  0  0  0  0  0  0  0  0  0
  146.2582  142.8409  158.2189 H   0  0  0  0  0  0  0  0  0  0  0  0
  149.8630  143.2273  158.0113 H   0  0  0  0  0  0  0  0  0  0  0  0
  150.0875  144.2786  160.1104 H   0  0  0  0  0  0  0  0  0  0  0  0
  151.7346  144.4072  160.7237 H   0  0  0  0  0  0  0  0  0  0  0  0
  150.6358  143.1833  161.3781 H   0  0  0  0  0  0  0  0  0  0  0  0
  147.6179  142.5873  156.4409 H   0  0  0  0  0  0  0  0  0  0  0  0
  1  2  1  0  0  0  0
  1 23  1  0  0  0  0
  1 24  1  0  0  0  0
  1 25  1  0  0  0  0
  2 21  1  0  0  0  0
  2  3  2  0  0  0  0
  3  4  1  0  0  0  0
  3 26  1  0  0  0  0
  4 19  2  0  0  0  0
  4  5  1  0  0  0  0
  5  6  2  0  0  0  0
  6  7  1  0  0  0  0
  6 27  1  0  0  0  0
  7  8  1  0  0  0  0
  7 19  1  0  0  0  0
  8  9  1  0  0  0  0
  8 28  1  0  0  0  0
  8 29  1  0  0  0  0
  9 10  1  0  0  0  0
  9 11  1  0  0  0  0
  9 30  1  0  0  0  0
 10 31  1  0  0  0  0
 11 12  1  0  0  0  0
 11 32  1  0  0  0  0
 11 33  1  0  0  0  0
 12 18  1  0  0  0  0
 12 13  1  0  0  0  0
 12 48  1  0  0  0  0
 13 14  1  0  0  0  0
 13 34  1  0  0  0  0
 13 35  1  0  0  0  0
 14 15  1  0  0  0  0
 14 36  1  0  0  0  0
 14 37  1  0  0  0  0
 15 16  1  0  0  0  0
 16 17  1  0  0  0  0
 16 18  1  0  0  0  0
 16 38  1  0  0  0  0
 17 39  1  0  0  0  0
 17 40  1  0  0  0  0
 17 41  1  0  0  0  0
 18 42  1  0  0  0  0
 18 43  1  0  0  0  0
 19 20  1  0  0  0  0
 20 21  2  0  0  0  0
 20 44  1  0  0  0  0
 21 22  1  0  0  0  0
 22 45  1  0  0  0  0
 22 46  1  0  0  0  0
 22 47  1  0  0  0  0
M  CHG  1  12   1
M  END
> <s_m_source_file>
AV-unprocessed.smi

> <i_m_source_file_index>
1554

> <i_lp_mmshare_version>
43012

> <i_f3d_flags>
0

> <s_epik_input>
W0NIM11jKFtjSF0xKWMoW0NIM10pW2NIXWMoYzEyKW4oW2NIXW4yKVtDSDJdW0NASF0oW09IXSlbQ0gyXU4zW0NIMl1bQ0gyXU9bQ0BASF0oW0NIM10pW0NIMl0z

> <s_epik_cmdline>
J2VwaWtfcHl0aG9uJywgJy1waCcsICc3LjAnLCAnLXRuJywgJzgnLCAnLW1hJywgJzIwMCcsICctbWV0YWxfYmluZGluZycsICctaW1hZScsICc8aW5maWxlLm1hZT4nLCAnLW9tYWUnLCAnPG91dGZpbGUubWFlPic=

> <r_epik_Ionization_Penalty>
0.695251

> <r_epik_Ionization_Penalty_Charging>
0.608065

> <r_epik_Ionization_Penalty_Neutral>
0.0871863

> <r_epik_State_Penalty>
0.731955

> <r_epik_Charging_Adjusted_Penalty>
1.34002

> <i_epik_Tot_Q>
1

> <i_epik_Tot_abs_Q>
1

> <r_epik_Metal_State_Penalty>
0.652186

> <b_epik_Metal_Only>
0

> <s_lp_Force_Field>
OPLS_2005

> <r_lp_Energy>
22.8588

> <b_lp_Chiralities_Consistent>
1

> <s_lp_Variant>
AV-unprocessed.smi:1554-9

> <Gold.Version>
5.8.1

> <Gold.Id.Protein>
6NUR|6NUR_protein|mol2

> <Gold.PLP.Fitness>
50.5532

> <Gold.PLP.PLP>
-39.7571

> <Gold.PLP.part.hbond>
-3.2020

> <Gold.PLP.part.metal>
0.0000

> <Gold.PLP.part.buried>
-3.9705

> <Gold.PLP.part.nonpolar>
-32.2158

> <Gold.PLP.part.repulsive>
0.0915

> <Gold.PLP.ligand.clash>
0.0000

> <Gold.PLP.ligand.torsion>
0.5941

> <Gold.PLP.Chemscore.Hbond>
3.9840

> <Gold.PLP.Chemscore.CHOScore>
0.0000

> <Gold.PLP.Chemscore.Metal>
0.0000

> <Gold.Chemscore.Hbonds>
donor molecule, donor type, donor heavy atom, donor atom, acceptor molecule, acceptor atom, score
      P1  H  7997  8008       L1     5  0.85

> <Gold.PLP.Chemscore.Internal.Correction>
0.0324

> <Gold.Rescore>
     Score         DG    S(hbond)    S(metal)    S(lipo)     H(rot)  DE(clash)    DE(int)     intcor
     18.62     -19.78       2.36        0.00      99.72       2.05       0.28       0.87       ----

> <Gold.Chemscore.Fitness>
18.6246

> <Gold.Chemscore.DG>
-19.7778

> <Gold.Chemscore.ZeroCoef>
-5.4800

> <Gold.Chemscore.Hbond>
2.3625

> <Gold.Chemscore.Metal>
0.0000

> <Gold.Chemscore.Lipo>
99.7152

> <Gold.Chemscore.Internal_Hbond>
0.0000

> <Gold.Chemscore.DEClash>
0.2802

> <Gold.Chemscore.DEInternal>
0.8730

> <Gold.Chemscore.Rot>
2.0546

> <Gold.Chemscore.Internal.Correction>
   9.000000E+99

> <Gold.Chemscore.Hbonds>
donor molecule, donor type, donor heavy atom, donor atom, acceptor molecule, acceptor atom, score
      L1  H    10    31       P1  7957  0.01
      P1  H  7997  8008       L1     5  0.15

> <Gold.Chemscore.Hbond.Weighted>
-7.8908

> <Gold.Chemscore.Metal.Weighted>
-0.0000

> <Gold.Chemscore.Lipo.Weighted>
-11.6667

> <Gold.Chemscore.Internal_Hbond.Weighted>
0.0000

> <Gold.Chemscore.DEClash.Weighted>
0.2802

> <Gold.Chemscore.DEInternal.Weighted>
0.8730

> <Gold.Chemscore.Rot.Weighted>
5.2597

> <Gold.Chemscore.Internal.Correction.Weighted>
   9.000000E+99

> <Gold.Protein.RotatedTorsions>
[ 6907 6896 6895 6894 ] final   32.43 input  -60.11 | X-H torsion
[ 7974 7965 7964 7962 ] final -178.85 input  175.53 | X-H torsion
[ 8008 7997 7996 7995 ] final  -46.60 input   59.86 | X-H torsion
[ 10167 10162 10161 10158 ] final  -72.58 input  -65.29 | X-H torsion
[ 10718 10713 10712 10709 ] final -140.70 input   66.30 | X-H torsion
[ 10763 10752 10751 10750 ] final  112.94 input  -60.55 | X-H torsion
[ 11005 11000 10999 10996 ] final  -12.60 input  -57.11 | X-H torsion

> <Gold.Protein.ActiveResidues>
 VAL166  LYS551  ARG553  GLY616  TRP617  ASP618  TYR619  PRO620  LYS621  CYS622 
 ASP623  PHE694  ASN695  SER759  ASP760  ASP761  ALA762  ILE779  LEU786  VAL792 
 PHE793  MET794  SER795  GLU796  ALA797  LYS798  CYS799  TRP800  GLU811  SER814 

> <Gold.Protein.RotatedAtoms>
  152.0743  134.9513  160.0573 H   0  0  0  0  0  0  0  0  0  0  0  0  # atno 6907 bound_to 6896
  152.0827  133.4156  159.4516 H   0  0  0  0  0  0  0  0  0  0  0  0  # atno 6908 bound_to 6896
  150.6836  134.2883  159.4699 H   0  0  0  0  0  0  0  0  0  0  0  0  # atno 6909 bound_to 6896
  144.7133  140.0806  143.6426 H   0  0  0  0  0  0  0  0  0  0  0  0  # atno 7974 bound_to 7965
  154.4009  140.1367  156.4038 H   0  0  0  0  0  0  0  0  0  0  0  0  # atno 8008 bound_to 7997
  155.7799  140.3481  155.5271 H   0  0  0  0  0  0  0  0  0  0  0  0  # atno 8009 bound_to 7997
  155.8684  140.0968  157.1557 H   0  0  0  0  0  0  0  0  0  0  0  0  # atno 8010 bound_to 7997
  140.5180  143.2335  151.7479 H   0  0  0  0  0  0  0  0  0  0  0  0  # atno 10167 bound_to 10162
  156.3253  130.7557  151.1663 H   0  0  0  0  0  0  0  0  0  0  0  0  # atno 10718 bound_to 10713
  153.4852  135.3671  155.2463 H   0  0  0  0  0  0  0  0  0  0  0  0  # atno 10763 bound_to 10752
  154.8754  135.3964  154.3653 H   0  0  0  0  0  0  0  0  0  0  0  0  # atno 10764 bound_to 10752
  153.4264  135.7081  153.6325 H   0  0  0  0  0  0  0  0  0  0  0  0  # atno 10765 bound_to 10752
  140.7675  133.8465  155.9177 H   0  0  0  0  0  0  0  0  0  0  0  0  # atno 11005 bound_to 11000
  145.9705  139.2866  143.1102 LP  0  0  0  0  0  0  0  0  0  0  0  0  # atno 17320 bound_to 7965
  145.9122  140.9172  143.0448 LP  0  0  0  0  0  0  0  0  0  0  0  0  # atno 17321 bound_to 7965
  139.4915  144.4295  151.9888 LP  0  0  0  0  0  0  0  0  0  0  0  0  # atno 17342 bound_to 10162
  140.3390  144.3225  150.5971 LP  0  0  0  0  0  0  0  0  0  0  0  0  # atno 17343 bound_to 10162
  157.7420  131.0496  150.5056 LP  0  0  0  0  0  0  0  0  0  0  0  0  # atno 17370 bound_to 10713
  156.5214  130.4163  149.6248 LP  0  0  0  0  0  0  0  0  0  0  0  0  # atno 17371 bound_to 10713
  140.9605  134.1661  157.4657 LP  0  0  0  0  0  0  0  0  0  0  0  0  # atno 17394 bound_to 11000
  139.8761  134.9943  156.5687 LP  0  0  0  0  0  0  0  0  0  0  0  0  # atno 17395 bound_to 11000

$$$$
