AV-unprocessed.smi:682|AV-procd|sdf|3329|dock5
  -GOLD-   22720 0293D 1   1.00000     0.00000
 Structure written by MMmdl.
 41 42  0  0  0  0  0  0  0  0  1 V2000
  150.2383  141.5492  154.7147 C   0  0  0  0  0  0  0  0  0  0  0  0
  150.9630  140.4332  154.2141 O   0  0  0  0  0  0  0  0  0  0  0  0
  151.1045  139.3208  155.0991 C   0  0  2  0  0  0  0  0  0  0  0  0
  151.9253  139.7304  156.3319 C   0  0  0  0  0  0  0  0  0  0  0  0
  151.5138  138.0358  154.3566 C   0  0  0  0  0  0  0  0  0  0  0  0
  150.4740  137.3155  155.2121 C   0  0  2  0  0  0  0  0  0  0  0  0
  149.7809  136.2595  154.4820 N   0  0  0  0  0  0  0  0  0  0  0  0
  149.5276  135.0401  154.9754 C   0  0  0  0  0  0  0  0  0  0  0  0
  149.8638  134.6802  156.1035 O   0  0  0  0  0  0  0  0  0  0  0  0
  148.8656  134.2820  154.0867 N   0  0  0  0  0  0  0  0  0  0  0  0
  148.4208  132.9478  154.2613 C   0  0  0  0  0  0  0  0  0  0  0  0
  148.3601  132.1654  155.4493 C   0  0  0  0  0  0  0  0  0  0  0  0
  147.8800  130.9565  155.1975 N   0  0  0  0  0  0  0  0  0  0  0  0
  147.6298  130.9468  153.8658 N   0  0  0  0  0  0  0  0  0  0  0  0
  147.0862  129.7521  153.2561 C   0  0  0  0  0  0  0  0  0  0  0  0
  147.9483  132.1480  153.2645 C   0  0  0  0  0  0  0  0  0  0  0  0
  149.7042  138.6580  155.3093 C   0  0  0  0  0  0  0  0  0  0  0  0
  149.0041  138.9322  156.6442 C   0  0  0  0  0  0  0  0  0  0  0  0
  148.6506  138.9352  154.2176 C   0  0  0  0  0  0  0  0  0  0  0  0
  150.2896  142.3615  153.9898 H   0  0  0  0  0  0  0  0  0  0  0  0
  150.6535  141.9186  155.6524 H   0  0  0  0  0  0  0  0  0  0  0  0
  149.1846  141.3157  154.8645 H   0  0  0  0  0  0  0  0  0  0  0  0
  151.9300  138.9514  157.0937 H   0  0  0  0  0  0  0  0  0  0  0  0
  151.5251  140.6340  156.7921 H   0  0  0  0  0  0  0  0  0  0  0  0
  152.9687  139.9189  156.0813 H   0  0  0  0  0  0  0  0  0  0  0  0
  151.2735  138.0489  153.2918 H   0  0  0  0  0  0  0  0  0  0  0  0
  152.5415  137.7150  154.5297 H   0  0  0  0  0  0  0  0  0  0  0  0
  150.8912  136.9907  156.1683 H   0  0  0  0  0  0  0  0  0  0  0  0
  149.4709  136.4752  153.5460 H   0  0  0  0  0  0  0  0  0  0  0  0
  148.6557  134.7040  153.1940 H   0  0  0  0  0  0  0  0  0  0  0  0
  148.6369  132.4172  156.4621 H   0  0  0  0  0  0  0  0  0  0  0  0
  147.0204  129.8797  152.1752 H   0  0  0  0  0  0  0  0  0  0  0  0
  146.0887  129.5584  153.6518 H   0  0  0  0  0  0  0  0  0  0  0  0
  147.7303  128.8992  153.4730 H   0  0  0  0  0  0  0  0  0  0  0  0
  147.8134  132.3232  152.2072 H   0  0  0  0  0  0  0  0  0  0  0  0
  148.0732  138.3710  156.7315 H   0  0  0  0  0  0  0  0  0  0  0  0
  148.7635  139.9896  156.7576 H   0  0  0  0  0  0  0  0  0  0  0  0
  149.6202  138.6455  157.4960 H   0  0  0  0  0  0  0  0  0  0  0  0
  147.7751  138.2950  154.3306 H   0  0  0  0  0  0  0  0  0  0  0  0
  149.0401  138.7671  153.2135 H   0  0  0  0  0  0  0  0  0  0  0  0
  148.3011  139.9675  154.2549 H   0  0  0  0  0  0  0  0  0  0  0  0
  1  2  1  0  0  0  0
  1 20  1  0  0  0  0
  1 21  1  0  0  0  0
  1 22  1  0  0  0  0
  2  3  1  0  0  0  0
  3 17  1  0  0  0  0
  3  4  1  0  0  0  0
  3  5  1  0  0  0  0
  4 23  1  0  0  0  0
  4 24  1  0  0  0  0
  4 25  1  0  0  0  0
  5  6  1  0  0  0  0
  5 26  1  0  0  0  0
  5 27  1  0  0  0  0
  6  7  1  0  0  0  0
  6 17  1  0  0  0  0
  6 28  1  0  0  0  0
  7  8  1  0  0  0  0
  7 29  1  0  0  0  0
  8  9  2  0  0  0  0
  8 10  1  0  0  0  0
 10 11  1  0  0  0  0
 10 30  1  0  0  0  0
 11 16  2  0  0  0  0
 11 12  1  0  0  0  0
 12 13  2  0  0  0  0
 12 31  1  0  0  0  0
 13 14  1  0  0  0  0
 14 15  1  0  0  0  0
 14 16  1  0  0  0  0
 15 32  1  0  0  0  0
 15 33  1  0  0  0  0
 15 34  1  0  0  0  0
 16 35  1  0  0  0  0
 17 18  1  0  0  0  0
 17 19  1  0  0  0  0
 18 36  1  0  0  0  0
 18 37  1  0  0  0  0
 18 38  1  0  0  0  0
 19 39  1  0  0  0  0
 19 40  1  0  0  0  0
 19 41  1  0  0  0  0
M  END
> <s_m_source_file>
AV-unprocessed.smi

> <i_m_source_file_index>
682

> <i_lp_mmshare_version>
43012

> <i_f3d_flags>
0

> <s_epik_input>
W0NIM11PW0NAQF0xKFtDSDNdKVtDSDJdW0NASF0oQzEoW0NIM10pW0NIM10pW05IXUMoPU8pW05IXWMyW2NIXW5uKFtDSDNdKVtjSF0y

> <s_epik_cmdline>
J2VwaWtfcHl0aG9uJywgJy1waCcsICc3LjAnLCAnLXRuJywgJzgnLCAnLW1hJywgJzIwMCcsICctbWV0YWxfYmluZGluZycsICctaW1hZScsICc8aW5maWxlLm1hZT4nLCAnLW9tYWUnLCAnPG91dGZpbGUubWFlPic=

> <r_lp_tautomer_probability>
1

> <r_epik_Ionization_Penalty>
0.000192302

> <r_epik_Ionization_Penalty_Charging>
0

> <r_epik_Ionization_Penalty_Neutral>
0.000192302

> <r_epik_State_Penalty>
-0

> <r_epik_Charging_Adjusted_Penalty>
0

> <i_epik_Tot_Q>
0

> <i_epik_Tot_abs_Q>
0

> <r_epik_Metal_State_Penalty>
-0

> <b_epik_Metal_Only>
0

> <s_lp_Force_Field>
OPLS_2005

> <r_lp_Energy>
23.9348

> <b_lp_Chiralities_Consistent>
1

> <s_lp_Variant>
AV-unprocessed.smi:682-4

> <Gold.Version>
5.8.1

> <Gold.Id.Protein>
6NUR|6NUR_protein|mol2

> <Gold.PLP.Fitness>
39.5971

> <Gold.PLP.PLP>
-29.0412

> <Gold.PLP.part.hbond>
-3.0310

> <Gold.PLP.part.metal>
0.0000

> <Gold.PLP.part.buried>
-1.8257

> <Gold.PLP.part.nonpolar>
-24.2170

> <Gold.PLP.part.repulsive>
0.2244

> <Gold.PLP.ligand.clash>
0.0000

> <Gold.PLP.ligand.torsion>
0.2365

> <Gold.PLP.Chemscore.Hbond>
2.8744

> <Gold.PLP.Chemscore.CHOScore>
0.6782

> <Gold.PLP.Chemscore.Metal>
0.0000

> <Gold.Chemscore.Hbonds>
donor molecule, donor type, donor heavy atom, donor atom, acceptor molecule, acceptor atom, score
      L1  H     7    29       P1  7948  1.00
      L1  H    10    30       P1  7948  0.99
      L1  C    16    35       P1 10747  0.54

> <Gold.PLP.Chemscore.Internal.Correction>
0.3713

> <Gold.Rescore>
     Score         DG    S(hbond)    S(metal)    S(lipo)     H(rot)  DE(clash)    DE(int)     intcor
     15.65     -17.91       2.76        0.00      54.37       1.23       0.00       2.25       ----

> <Gold.Chemscore.Fitness>
15.6537

> <Gold.Chemscore.DG>
-17.9077

> <Gold.Chemscore.ZeroCoef>
-5.4800

> <Gold.Chemscore.Hbond>
2.7619

> <Gold.Chemscore.Metal>
0.0000

> <Gold.Chemscore.Lipo>
54.3689

> <Gold.Chemscore.Internal_Hbond>
0.0000

> <Gold.Chemscore.DEClash>
0.0000

> <Gold.Chemscore.DEInternal>
2.2540

> <Gold.Chemscore.Rot>
1.2336

> <Gold.Chemscore.Internal.Correction>
   9.000000E+99

> <Gold.Chemscore.Hbonds>
donor molecule, donor type, donor heavy atom, donor atom, acceptor molecule, acceptor atom, score
      L1  H     7    29       P1  7948  0.74
      L1  H    10    30       P1  7948  0.31
      P1  H  7989  7998       L1     2  0.01

> <Gold.Chemscore.Hbond.Weighted>
-9.2247

> <Gold.Chemscore.Metal.Weighted>
-0.0000

> <Gold.Chemscore.Lipo.Weighted>
-6.3612

> <Gold.Chemscore.Internal_Hbond.Weighted>
0.0000

> <Gold.Chemscore.DEClash.Weighted>
0.0000

> <Gold.Chemscore.DEInternal.Weighted>
2.2540

> <Gold.Chemscore.Rot.Weighted>
3.1581

> <Gold.Chemscore.Internal.Correction.Weighted>
   9.000000E+99

> <Gold.Protein.RotatedTorsions>
[ 6907 6896 6895 6894 ] final   25.04 input  -60.11 | X-H torsion
[ 7974 7965 7964 7962 ] final  -89.12 input  175.53 | X-H torsion
[ 8008 7997 7996 7995 ] final  -35.45 input   59.86 | X-H torsion
[ 10167 10162 10161 10158 ] final  131.66 input  -65.29 | X-H torsion
[ 10718 10713 10712 10709 ] final   60.29 input   66.30 | X-H torsion
[ 10763 10752 10751 10750 ] final  153.88 input  -60.55 | X-H torsion
[ 11005 11000 10999 10996 ] final -167.23 input  -57.11 | X-H torsion

> <Gold.Protein.ActiveResidues>
 VAL166  LYS551  ARG553  GLY616  TRP617  ASP618  TYR619  PRO620  LYS621  CYS622 
 ASP623  PHE694  ASN695  SER759  ASP760  ASP761  ALA762  ILE779  LEU786  VAL792 
 PHE793  MET794  SER795  GLU796  ALA797  LYS798  CYS799  TRP800  GLU811  SER814 

> <Gold.Protein.RotatedAtoms>
  151.9665  135.0098  160.0550 H   0  0  0  0  0  0  0  0  0  0  0  0  # atno 6907 bound_to 6896
  152.1821  133.4710  159.4972 H   0  0  0  0  0  0  0  0  0  0  0  0  # atno 6908 bound_to 6896
  150.6919  134.1737  159.4265 H   0  0  0  0  0  0  0  0  0  0  0  0  # atno 6909 bound_to 6896
  145.4440  140.9559  143.2059 H   0  0  0  0  0  0  0  0  0  0  0  0  # atno 7974 bound_to 7965
  154.4095  140.1657  156.2213 H   0  0  0  0  0  0  0  0  0  0  0  0  # atno 8008 bound_to 7997
  155.9361  140.3411  155.6265 H   0  0  0  0  0  0  0  0  0  0  0  0  # atno 8009 bound_to 7997
  155.7047  140.0749  157.2386 H   0  0  0  0  0  0  0  0  0  0  0  0  # atno 8010 bound_to 7997
  139.5374  144.6696  151.4740 H   0  0  0  0  0  0  0  0  0  0  0  0  # atno 10167 bound_to 10162
  157.5741  130.8930  149.9317 H   0  0  0  0  0  0  0  0  0  0  0  0  # atno 10718 bound_to 10713
  154.1434  135.2819  155.3155 H   0  0  0  0  0  0  0  0  0  0  0  0  # atno 10763 bound_to 10752
  154.6270  135.5448  153.7642 H   0  0  0  0  0  0  0  0  0  0  0  0  # atno 10764 bound_to 10752
  153.0243  135.6453  154.1580 H   0  0  0  0  0  0  0  0  0  0  0  0  # atno 10765 bound_to 10752
  140.5556  134.5384  157.5132 H   0  0  0  0  0  0  0  0  0  0  0  0  # atno 11005 bound_to 11000
  144.8103  139.5974  143.7032 LP  0  0  0  0  0  0  0  0  0  0  0  0  # atno 17320 bound_to 7965
  146.2541  139.6263  142.9407 LP  0  0  0  0  0  0  0  0  0  0  0  0  # atno 17321 bound_to 7965
  140.6587  143.8544  150.6864 LP  0  0  0  0  0  0  0  0  0  0  0  0  # atno 17342 bound_to 10162
  140.1932  143.4019  152.1848 LP  0  0  0  0  0  0  0  0  0  0  0  0  # atno 17343 bound_to 10162
  156.0786  130.3676  150.0627 LP  0  0  0  0  0  0  0  0  0  0  0  0  # atno 17370 bound_to 10713
  156.8775  130.9545  151.3603 LP  0  0  0  0  0  0  0  0  0  0  0  0  # atno 17371 bound_to 10713
  139.9433  134.7747  156.0624 LP  0  0  0  0  0  0  0  0  0  0  0  0  # atno 17394 bound_to 11000
  141.1145  133.6632  156.3061 LP  0  0  0  0  0  0  0  0  0  0  0  0  # atno 17395 bound_to 11000

$$$$
