AV-unprocessed.smi:2600|AV-procd|sdf|10182|dock1
  -GOLD-   2272014193D 1   1.00000     0.00000
 Structure written by MMmdl.
 44 45  0  0  0  0  0  0  0  0  1 V2000
  145.3304  143.8545  156.2493 C   0  0  0  0  0  0  0  0  0  0  0  0
  145.3505  142.9645  154.9957 C   0  0  0  0  0  0  0  0  0  0  0  0
  146.4769  141.9046  154.9489 C   0  0  2  0  0  0  0  0  0  0  0  0
  146.5106  141.1758  156.3114 C   0  0  0  0  0  0  0  0  0  0  0  0
  147.8504  142.5419  154.6076 C   0  0  0  0  0  0  0  0  0  0  0  0
  148.8461  141.4841  154.3822 N   0  0  0  0  0  0  0  0  0  0  0  0
  149.9341  141.2065  155.1427 C   0  0  0  0  0  0  0  0  0  0  0  0
  150.6579  140.2293  154.9482 O   0  0  0  0  0  0  0  0  0  0  0  0
  150.1738  142.0932  156.1250 N   0  0  0  0  0  0  0  0  0  0  0  0
  151.2773  142.0344  157.0808 C   0  0  0  0  0  0  0  0  0  0  0  0
  151.4527  143.3545  157.8559 C   0  0  0  0  0  0  0  0  0  0  0  0
  151.9339  143.2020  159.2672 C   0  0  0  0  0  0  0  0  0  0  0  0
  152.4676  142.1105  159.8930 C   0  0  0  0  0  0  0  0  0  0  0  0
  152.7527  142.5680  161.2083 C   0  0  0  0  0  0  0  0  0  0  0  0
  152.4133  143.8319  161.3895 N   0  0  0  0  0  0  0  0  0  0  0  0
  151.9037  144.2232  160.2021 N   0  0  0  0  0  0  0  0  0  0  0  0
  151.4270  145.5860  160.0636 C   0  0  0  0  0  0  0  0  0  0  0  0
  148.4390  140.6511  153.2488 C   0  0  0  0  0  0  0  0  0  0  0  0
  147.0977  139.9836  153.5923 C   0  0  0  0  0  0  0  0  0  0  0  0
  146.1191  140.9735  153.9186 O   0  0  0  0  0  0  0  0  0  0  0  0
  144.5734  144.6330  156.1512 H   0  0  0  0  0  0  0  0  0  0  0  0
  146.2895  144.3487  156.4054 H   0  0  0  0  0  0  0  0  0  0  0  0
  145.0903  143.2878  157.1481 H   0  0  0  0  0  0  0  0  0  0  0  0
  144.3818  142.4724  154.8987 H   0  0  0  0  0  0  0  0  0  0  0  0
  145.4416  143.6147  154.1247 H   0  0  0  0  0  0  0  0  0  0  0  0
  146.7175  141.8746  157.1225 H   0  0  0  0  0  0  0  0  0  0  0  0
  147.2758  140.4027  156.3557 H   0  0  0  0  0  0  0  0  0  0  0  0
  145.5553  140.6962  156.5258 H   0  0  0  0  0  0  0  0  0  0  0  0
  147.7904  143.1280  153.6909 H   0  0  0  0  0  0  0  0  0  0  0  0
  148.1281  143.2545  155.3840 H   0  0  0  0  0  0  0  0  0  0  0  0
  149.5370  142.8715  156.2167 H   0  0  0  0  0  0  0  0  0  0  0  0
  151.1412  141.2048  157.7757 H   0  0  0  0  0  0  0  0  0  0  0  0
  152.1915  141.8137  156.5300 H   0  0  0  0  0  0  0  0  0  0  0  0
  152.1346  144.0057  157.3087 H   0  0  0  0  0  0  0  0  0  0  0  0
  150.4973  143.8806  157.8675 H   0  0  0  0  0  0  0  0  0  0  0  0
  152.6393  141.1322  159.4697 H   0  0  0  0  0  0  0  0  0  0  0  0
  153.1917  142.0225  162.0307 H   0  0  0  0  0  0  0  0  0  0  0  0
  150.6332  145.6367  159.3188 H   0  0  0  0  0  0  0  0  0  0  0  0
  152.2492  146.2311  159.7537 H   0  0  0  0  0  0  0  0  0  0  0  0
  151.0327  145.9460  161.0147 H   0  0  0  0  0  0  0  0  0  0  0  0
  148.3310  141.2735  152.3594 H   0  0  0  0  0  0  0  0  0  0  0  0
  149.1765  139.8890  152.9936 H   0  0  0  0  0  0  0  0  0  0  0  0
  146.7372  139.4110  152.7376 H   0  0  0  0  0  0  0  0  0  0  0  0
  147.2157  139.2723  154.4099 H   0  0  0  0  0  0  0  0  0  0  0  0
  1  2  1  0  0  0  0
  1 21  1  0  0  0  0
  1 22  1  0  0  0  0
  1 23  1  0  0  0  0
  2  3  1  0  0  0  0
  2 24  1  0  0  0  0
  2 25  1  0  0  0  0
  3 20  1  0  0  0  0
  3  4  1  0  0  0  0
  3  5  1  0  0  0  0
  4 26  1  0  0  0  0
  4 27  1  0  0  0  0
  4 28  1  0  0  0  0
  5  6  1  0  0  0  0
  5 29  1  0  0  0  0
  5 30  1  0  0  0  0
  6  7  1  0  0  0  0
  6 18  1  0  0  0  0
  7  8  2  0  0  0  0
  7  9  1  0  0  0  0
  9 10  1  0  0  0  0
  9 31  1  0  0  0  0
 10 11  1  0  0  0  0
 10 32  1  0  0  0  0
 10 33  1  0  0  0  0
 11 12  1  0  0  0  0
 11 34  1  0  0  0  0
 11 35  1  0  0  0  0
 12 16  1  0  0  0  0
 12 13  2  0  0  0  0
 13 14  1  0  0  0  0
 13 36  1  0  0  0  0
 14 15  2  0  0  0  0
 14 37  1  0  0  0  0
 15 16  1  0  0  0  0
 16 17  1  0  0  0  0
 17 38  1  0  0  0  0
 17 39  1  0  0  0  0
 17 40  1  0  0  0  0
 18 19  1  0  0  0  0
 18 41  1  0  0  0  0
 18 42  1  0  0  0  0
 19 20  1  0  0  0  0
 19 43  1  0  0  0  0
 19 44  1  0  0  0  0
M  END
> <s_m_source_file>
AV-unprocessed.smi

> <i_m_source_file_index>
2600

> <i_lp_mmshare_version>
43012

> <i_f3d_flags>
0

> <s_epik_input>
W0NIM11bQ0gyXVtDQEBdMShbQ0gzXSlbQ0gyXU4oW0NIMl1bQ0gyXU8xKUMoPU8pW05IXVtDSDJdW0NIMl1jMltjSF1bY0hdbm4yW0NIM10=

> <s_epik_cmdline>
J2VwaWtfcHl0aG9uJywgJy1waCcsICc3LjAnLCAnLXRuJywgJzgnLCAnLW1hJywgJzIwMCcsICctbWV0YWxfYmluZGluZycsICctaW1hZScsICc8aW5maWxlLm1hZT4nLCAnLW9tYWUnLCAnPG91dGZpbGUubWFlPic=

> <r_lp_tautomer_probability>
1

> <r_epik_Ionization_Penalty>
0.00252014

> <r_epik_Ionization_Penalty_Charging>
0

> <r_epik_Ionization_Penalty_Neutral>
0.00252014

> <r_epik_State_Penalty>
0.00172506

> <r_epik_Charging_Adjusted_Penalty>
0.00172506

> <i_epik_Tot_Q>
0

> <i_epik_Tot_abs_Q>
0

> <r_epik_Metal_State_Penalty>
-0

> <b_epik_Metal_Only>
0

> <s_lp_Force_Field>
OPLS_2005

> <r_lp_Energy>
29.2507

> <b_lp_Chiralities_Consistent>
1

> <s_lp_Variant>
AV-unprocessed.smi:2600-2

> <Gold.Version>
5.8.1

> <Gold.Id.Protein>
6NUR|6NUR_protein|mol2

> <Gold.PLP.Fitness>
43.2285

> <Gold.PLP.PLP>
-38.5440

> <Gold.PLP.part.hbond>
-2.0000

> <Gold.PLP.part.metal>
0.0000

> <Gold.PLP.part.buried>
2.5086

> <Gold.PLP.part.nonpolar>
-40.2886

> <Gold.PLP.part.repulsive>
2.0824

> <Gold.PLP.ligand.clash>
0.0000

> <Gold.PLP.ligand.torsion>
0.6105

> <Gold.PLP.Chemscore.Hbond>
1.9516

> <Gold.PLP.Chemscore.CHOScore>
0.0000

> <Gold.PLP.Chemscore.Metal>
0.0000

> <Gold.Chemscore.Hbonds>
donor molecule, donor type, donor heavy atom, donor atom, acceptor molecule, acceptor atom, score
      L1  H     9    31       P1  8028  0.98
      P1  H  7989  7998       L1     8  0.95

> <Gold.PLP.Chemscore.Internal.Correction>
0.0507

> <Gold.Rescore>
     Score         DG    S(hbond)    S(metal)    S(lipo)     H(rot)  DE(clash)    DE(int)     intcor
     12.60     -15.98       1.00        0.00      93.50       1.47       2.82       0.56       ----

> <Gold.Chemscore.Fitness>
12.5975

> <Gold.Chemscore.DG>
-15.9765

> <Gold.Chemscore.ZeroCoef>
-5.4800

> <Gold.Chemscore.Hbond>
0.9966

> <Gold.Chemscore.Metal>
0.0000

> <Gold.Chemscore.Lipo>
93.5039

> <Gold.Chemscore.Internal_Hbond>
0.0000

> <Gold.Chemscore.DEClash>
2.8185

> <Gold.Chemscore.DEInternal>
0.5605

> <Gold.Chemscore.Rot>
1.4735

> <Gold.Chemscore.Internal.Correction>
   9.000000E+99

> <Gold.Chemscore.Hbonds>
donor molecule, donor type, donor heavy atom, donor atom, acceptor molecule, acceptor atom, score
      L1  H     9    31       P1  8028  0.88
      P1  H  7989  7998       L1     8  0.21

> <Gold.Chemscore.Hbond.Weighted>
-3.3287

> <Gold.Chemscore.Metal.Weighted>
-0.0000

> <Gold.Chemscore.Lipo.Weighted>
-10.9400

> <Gold.Chemscore.Internal_Hbond.Weighted>
0.0000

> <Gold.Chemscore.DEClash.Weighted>
2.8185

> <Gold.Chemscore.DEInternal.Weighted>
0.5605

> <Gold.Chemscore.Rot.Weighted>
3.7721

> <Gold.Chemscore.Internal.Correction.Weighted>
   9.000000E+99

> <Gold.Protein.RotatedTorsions>
[ 6907 6896 6895 6894 ] final -160.25 input  -60.11 | X-H torsion
[ 7974 7965 7964 7962 ] final -131.84 input  175.53 | X-H torsion
[ 8008 7997 7996 7995 ] final -146.37 input   59.86 | X-H torsion
[ 10167 10162 10161 10158 ] final  157.87 input  -65.29 | X-H torsion
[ 10718 10713 10712 10709 ] final   17.60 input   66.30 | X-H torsion
[ 10763 10752 10751 10750 ] final  -52.20 input  -60.55 | X-H torsion
[ 11005 11000 10999 10996 ] final  -31.34 input  -57.11 | X-H torsion

> <Gold.Protein.ActiveResidues>
 VAL166  LYS551  ARG553  GLY616  TRP617  ASP618  TYR619  PRO620  LYS621  CYS622 
 ASP623  PHE694  ASN695  SER759  ASP760  ASP761  ALA762  ILE779  LEU786  VAL792 
 PHE793  MET794  SER795  GLU796  ALA797  LYS798  CYS799  TRP800  GLU811  SER814 

> <Gold.Protein.RotatedAtoms>
  151.3462  133.3943  159.2675 H   0  0  0  0  0  0  0  0  0  0  0  0  # atno 6907 bound_to 6896
  150.9838  134.9188  159.7870 H   0  0  0  0  0  0  0  0  0  0  0  0  # atno 6908 bound_to 6896
  152.5225  134.3426  159.9275 H   0  0  0  0  0  0  0  0  0  0  0  0  # atno 6909 bound_to 6896
  144.9341  140.7163  143.4887 H   0  0  0  0  0  0  0  0  0  0  0  0  # atno 7974 bound_to 7965
  155.5583  140.0623  157.2835 H   0  0  0  0  0  0  0  0  0  0  0  0  # atno 8008 bound_to 7997
  154.4398  140.1890  156.0801 H   0  0  0  0  0  0  0  0  0  0  0  0  # atno 8009 bound_to 7997
  156.0466  140.3289  155.7307 H   0  0  0  0  0  0  0  0  0  0  0  0  # atno 8010 bound_to 7997
  139.4824  144.4877  151.8353 H   0  0  0  0  0  0  0  0  0  0  0  0  # atno 10167 bound_to 10162
  157.0844  130.6401  149.5834 H   0  0  0  0  0  0  0  0  0  0  0  0  # atno 10718 bound_to 10713
  154.1389  135.6508  153.4938 H   0  0  0  0  0  0  0  0  0  0  0  0  # atno 10763 bound_to 10752
  153.0172  135.5310  154.6926 H   0  0  0  0  0  0  0  0  0  0  0  0  # atno 10764 bound_to 10752
  154.6181  135.2961  155.0328 H   0  0  0  0  0  0  0  0  0  0  0  0  # atno 10765 bound_to 10752
  140.9460  133.7250  156.1147 H   0  0  0  0  0  0  0  0  0  0  0  0  # atno 11005 bound_to 11000
  145.3095  139.1823  143.4646 LP  0  0  0  0  0  0  0  0  0  0  0  0  # atno 17320 bound_to 7965
  146.3259  140.3097  142.8626 LP  0  0  0  0  0  0  0  0  0  0  0  0  # atno 17321 bound_to 7965
  140.4359  144.2053  150.5889 LP  0  0  0  0  0  0  0  0  0  0  0  0  # atno 17342 bound_to 10162
  140.4733  143.2405  151.9059 LP  0  0  0  0  0  0  0  0  0  0  0  0  # atno 17343 bound_to 10162
  155.9915  130.4969  150.7300 LP  0  0  0  0  0  0  0  0  0  0  0  0  # atno 17370 bound_to 10713
  157.4773  131.0899  151.0575 LP  0  0  0  0  0  0  0  0  0  0  0  0  # atno 17371 bound_to 10713
  140.7669  134.3876  157.5515 LP  0  0  0  0  0  0  0  0  0  0  0  0  # atno 17394 bound_to 11000
  139.8833  134.8997  156.2773 LP  0  0  0  0  0  0  0  0  0  0  0  0  # atno 17395 bound_to 11000

$$$$
