AV-unprocessed.smi:1675|AV-procd|sdf|6717|dock4
  -GOLD-   22720 7463D 1   1.00000     0.00000
 Structure written by MMmdl.
 40 42  0  0  0  0  0  0  0  0  1 V2000
  142.5040  132.8832  148.5843 N   0  0  0  0  0  0  0  0  0  0  0  0
  143.6878  132.4454  149.0206 C   0  0  0  0  0  0  0  0  0  0  0  0
  144.5847  132.1085  148.2500 O   0  0  0  0  0  0  0  0  0  0  0  0
  143.8904  132.3753  150.5373 C   0  0  0  0  0  0  0  0  0  0  0  0
  144.0390  133.6989  151.1176 N   0  0  0  0  0  0  0  0  0  0  0  0
  144.9256  134.6945  150.7549 C   0  0  0  0  0  0  0  0  0  0  0  0
  144.6790  135.7368  151.6029 C   0  0  0  0  0  0  0  0  0  0  0  0
  145.3137  137.0018  151.6824 N   0  0  0  0  0  0  0  0  0  0  0  0
  146.0986  137.4642  152.6714 C   0  0  0  0  0  0  0  0  0  0  0  0
  146.3958  136.8216  153.6782 O   0  0  0  0  0  0  0  0  0  0  0  0
  146.6272  138.8920  152.4920 C   0  0  0  0  0  0  0  0  0  0  0  0
  147.6838  139.2892  153.5474 C   0  0  2  0  0  0  0  0  0  0  0  0
  147.2509  139.1422  155.0244 C   0  0  0  0  0  0  0  0  0  0  0  0
  147.6136  140.5122  155.6280 C   0  0  2  0  0  0  0  0  0  0  0  0
  146.5957  141.5595  155.1415 C   0  0  0  0  0  0  0  0  0  0  0  0
  146.9854  141.7468  153.6639 C   0  0  0  0  0  0  0  0  0  0  0  0
  148.1589  140.7601  153.4901 C   0  0  1  0  0  0  0  0  0  0  0  0
  148.8605  140.8950  154.8382 C   0  0  0  0  0  0  0  0  0  0  0  0
  143.6318  135.3022  152.4562 C   0  0  0  0  0  0  0  0  0  0  0  0
  143.2454  134.0726  152.1528 N   0  0  0  0  0  0  0  0  0  0  0  0
  142.3288  132.9426  147.5917 H   0  0  0  0  0  0  0  0  0  0  0  0
  141.7882  133.1511  149.2441 H   0  0  0  0  0  0  0  0  0  0  0  0
  143.0445  131.8806  151.0174 H   0  0  0  0  0  0  0  0  0  0  0  0
  144.7777  131.7792  150.7562 H   0  0  0  0  0  0  0  0  0  0  0  0
  145.6351  134.5651  149.9509 H   0  0  0  0  0  0  0  0  0  0  0  0
  145.1643  137.6195  150.8977 H   0  0  0  0  0  0  0  0  0  0  0  0
  147.0594  138.9939  151.4954 H   0  0  0  0  0  0  0  0  0  0  0  0
  145.7737  139.5691  152.5275 H   0  0  0  0  0  0  0  0  0  0  0  0
  148.5636  138.6623  153.3892 H   0  0  0  0  0  0  0  0  0  0  0  0
  146.1889  138.9211  155.1394 H   0  0  0  0  0  0  0  0  0  0  0  0
  147.8093  138.3401  155.5082 H   0  0  0  0  0  0  0  0  0  0  0  0
  147.7391  140.4944  156.7111 H   0  0  0  0  0  0  0  0  0  0  0  0
  145.5653  141.2226  155.2613 H   0  0  0  0  0  0  0  0  0  0  0  0
  146.7073  142.4960  155.6891 H   0  0  0  0  0  0  0  0  0  0  0  0
  146.1565  141.5603  152.9820 H   0  0  0  0  0  0  0  0  0  0  0  0
  147.3209  142.7701  153.4912 H   0  0  0  0  0  0  0  0  0  0  0  0
  148.7886  140.9803  152.6275 H   0  0  0  0  0  0  0  0  0  0  0  0
  149.2108  141.9075  155.0461 H   0  0  0  0  0  0  0  0  0  0  0  0
  149.6887  140.1965  154.9715 H   0  0  0  0  0  0  0  0  0  0  0  0
  143.1484  135.8267  153.2673 H   0  0  0  0  0  0  0  0  0  0  0  0
  1  2  1  0  0  0  0
  1 21  1  0  0  0  0
  1 22  1  0  0  0  0
  2  3  2  0  0  0  0
  2  4  1  0  0  0  0
  4  5  1  0  0  0  0
  4 23  1  0  0  0  0
  4 24  1  0  0  0  0
  5 20  1  0  0  0  0
  5  6  1  0  0  0  0
  6  7  2  0  0  0  0
  6 25  1  0  0  0  0
  7  8  1  0  0  0  0
  7 19  1  0  0  0  0
  8  9  1  0  0  0  0
  8 26  1  0  0  0  0
  9 10  2  0  0  0  0
  9 11  1  0  0  0  0
 11 12  1  0  0  0  0
 11 27  1  0  0  0  0
 11 28  1  0  0  0  0
 12 17  1  0  0  0  0
 12 13  1  0  0  0  0
 12 29  1  0  0  0  0
 13 14  1  0  0  0  0
 13 30  1  0  0  0  0
 13 31  1  0  0  0  0
 14 18  1  0  0  0  0
 14 15  1  0  0  0  0
 14 32  1  0  0  0  0
 15 16  1  0  0  0  0
 15 33  1  0  0  0  0
 15 34  1  0  0  0  0
 16 17  1  0  0  0  0
 16 35  1  0  0  0  0
 16 36  1  0  0  0  0
 17 18  1  0  0  0  0
 17 37  1  0  0  0  0
 18 38  1  0  0  0  0
 18 39  1  0  0  0  0
 19 20  2  0  0  0  0
 19 40  1  0  0  0  0
M  END
> <s_m_source_file>
AV-unprocessed.smi

> <i_m_source_file_index>
1675

> <i_lp_mmshare_version>
43012

> <i_f3d_flags>
0

> <s_epik_input>
W05IMl1DKD1PKVtDSDJdbjFbY0hdYyhbY0hdbjEpW05IXUMoPU8pW0NIMl1bQ0BIXShbQ0gyXVtDQEBIXTIzKVtDQEBIXShbQ0gyXTMpW0NIMl1bQ0gyXTI=

> <s_epik_cmdline>
J2VwaWtfcHl0aG9uJywgJy1waCcsICc3LjAnLCAnLXRuJywgJzgnLCAnLW1hJywgJzIwMCcsICctbWV0YWxfYmluZGluZycsICctaW1hZScsICc8aW5maWxlLm1hZT4nLCAnLW9tYWUnLCAnPG91dGZpbGUubWFlPic=

> <r_lp_tautomer_probability>
1

> <r_epik_Ionization_Penalty>
2.17494e-05

> <r_epik_Ionization_Penalty_Charging>
0

> <r_epik_Ionization_Penalty_Neutral>
2.17494e-05

> <r_epik_State_Penalty>
-0

> <r_epik_Charging_Adjusted_Penalty>
0

> <i_epik_Tot_Q>
0

> <i_epik_Tot_abs_Q>
0

> <r_epik_Metal_State_Penalty>
-0

> <b_epik_Metal_Only>
0

> <s_lp_Force_Field>
OPLS_2005

> <r_lp_Energy>
53.8438

> <b_lp_Chiralities_Consistent>
1

> <s_lp_Variant>
AV-unprocessed.smi:1675-3

> <Gold.Version>
5.8.1

> <Gold.Id.Protein>
6NUR|6NUR_protein|mol2

> <Gold.PLP.Fitness>
46.2860

> <Gold.PLP.PLP>
-36.7995

> <Gold.PLP.part.hbond>
-4.8235

> <Gold.PLP.part.metal>
0.0000

> <Gold.PLP.part.buried>
-5.4302

> <Gold.PLP.part.nonpolar>
-29.6152

> <Gold.PLP.part.repulsive>
1.1467

> <Gold.PLP.ligand.clash>
0.0000

> <Gold.PLP.ligand.torsion>
0.9135

> <Gold.PLP.Chemscore.Hbond>
2.7680

> <Gold.PLP.Chemscore.CHOScore>
1.0000

> <Gold.PLP.Chemscore.Metal>
0.0000

> <Gold.Chemscore.Hbonds>
donor molecule, donor type, donor heavy atom, donor atom, acceptor molecule, acceptor atom, score
      L1  H     1    21       P1 10195  0.75
      L1  H     1    22       P1 10186  0.68
      L1  H     8    26       P1 10171  0.94
      L1  C     6    25       P1  7921  1.00

> <Gold.PLP.Chemscore.Internal.Correction>
0.0095

> <Gold.Rescore>
     Score         DG    S(hbond)    S(metal)    S(lipo)     H(rot)  DE(clash)    DE(int)     intcor
     14.74     -16.94       2.79        0.00      65.17       2.15       0.23       1.97       ----

> <Gold.Chemscore.Fitness>
14.7430

> <Gold.Chemscore.DG>
-16.9397

> <Gold.Chemscore.ZeroCoef>
-5.4800

> <Gold.Chemscore.Hbond>
2.7949

> <Gold.Chemscore.Metal>
0.0000

> <Gold.Chemscore.Lipo>
65.1721

> <Gold.Chemscore.Internal_Hbond>
0.0000

> <Gold.Chemscore.DEClash>
0.2264

> <Gold.Chemscore.DEInternal>
1.9702

> <Gold.Chemscore.Rot>
2.1486

> <Gold.Chemscore.Internal.Correction>
   9.000000E+99

> <Gold.Chemscore.Hbonds>
donor molecule, donor type, donor heavy atom, donor atom, acceptor molecule, acceptor atom, score
      L1  H     1    21       P1 10195  0.74
      L1  H     1    22       P1 10186  0.65
      L1  H     8    26       P1 10171  0.90

> <Gold.Chemscore.Hbond.Weighted>
-9.3349

> <Gold.Chemscore.Metal.Weighted>
-0.0000

> <Gold.Chemscore.Lipo.Weighted>
-7.6251

> <Gold.Chemscore.Internal_Hbond.Weighted>
0.0000

> <Gold.Chemscore.DEClash.Weighted>
0.2264

> <Gold.Chemscore.DEInternal.Weighted>
1.9702

> <Gold.Chemscore.Rot.Weighted>
5.5004

> <Gold.Chemscore.Internal.Correction.Weighted>
   9.000000E+99

> <Gold.Protein.RotatedTorsions>
[ 6907 6896 6895 6894 ] final   65.77 input  -60.11 | X-H torsion
[ 7974 7965 7964 7962 ] final   35.75 input  175.53 | X-H torsion
[ 8008 7997 7996 7995 ] final   -6.39 input   59.86 | X-H torsion
[ 10167 10162 10161 10158 ] final  163.91 input  -65.29 | X-H torsion
[ 10718 10713 10712 10709 ] final  -99.53 input   66.30 | X-H torsion
[ 10763 10752 10751 10750 ] final  -55.99 input  -60.55 | X-H torsion
[ 11005 11000 10999 10996 ] final  168.03 input  -57.11 | X-H torsion

> <Gold.Protein.ActiveResidues>
 VAL166  LYS551  ARG553  GLY616  TRP617  ASP618  TYR619  PRO620  LYS621  CYS622 
 ASP623  PHE694  ASN695  SER759  ASP760  ASP761  ALA762  ILE779  LEU786  VAL792 
 PHE793  MET794  SER795  GLU796  ALA797  LYS798  CYS799  TRP800  GLU811  SER814 

> <Gold.Protein.RotatedAtoms>
  152.4432  134.5548  159.9877 H   0  0  0  0  0  0  0  0  0  0  0  0  # atno 6907 bound_to 6896
  151.5640  133.3393  159.2984 H   0  0  0  0  0  0  0  0  0  0  0  0  # atno 6908 bound_to 6896
  150.8342  134.7642  159.6943 H   0  0  0  0  0  0  0  0  0  0  0  0  # atno 6909 bound_to 6896
  146.1261  139.6103  142.9258 H   0  0  0  0  0  0  0  0  0  0  0  0  # atno 7974 bound_to 7965
  154.5942  140.2434  155.7879 H   0  0  0  0  0  0  0  0  0  0  0  0  # atno 8008 bound_to 7997
  156.2268  140.2980  156.0041 H   0  0  0  0  0  0  0  0  0  0  0  0  # atno 8009 bound_to 7997
  155.2321  140.0404  157.2954 H   0  0  0  0  0  0  0  0  0  0  0  0  # atno 8010 bound_to 7997
  139.4881  144.4288  151.9096 H   0  0  0  0  0  0  0  0  0  0  0  0  # atno 10167 bound_to 10162
  156.0137  130.5287  150.6684 H   0  0  0  0  0  0  0  0  0  0  0  0  # atno 10718 bound_to 10713
  154.1995  135.6413  153.5083 H   0  0  0  0  0  0  0  0  0  0  0  0  # atno 10763 bound_to 10752
  153.0015  135.5448  154.6330 H   0  0  0  0  0  0  0  0  0  0  0  0  # atno 10764 bound_to 10752
  154.5740  135.2919  155.0773 H   0  0  0  0  0  0  0  0  0  0  0  0  # atno 10765 bound_to 10752
  140.2830  134.7735  157.3774 H   0  0  0  0  0  0  0  0  0  0  0  0  # atno 11005 bound_to 11000
  145.5363  141.0424  143.2355 LP  0  0  0  0  0  0  0  0  0  0  0  0  # atno 17320 bound_to 7965
  144.7643  139.6881  143.7221 LP  0  0  0  0  0  0  0  0  0  0  0  0  # atno 17321 bound_to 7965
  140.3735  144.2825  150.5917 LP  0  0  0  0  0  0  0  0  0  0  0  0  # atno 17342 bound_to 10162
  140.5297  143.2246  151.8258 LP  0  0  0  0  0  0  0  0  0  0  0  0  # atno 17343 bound_to 10162
  157.4412  131.0861  151.0942 LP  0  0  0  0  0  0  0  0  0  0  0  0  # atno 17370 bound_to 10713
  157.1486  130.6174  149.5575 LP  0  0  0  0  0  0  0  0  0  0  0  0  # atno 17371 bound_to 10713
  140.1265  134.5150  155.8140 LP  0  0  0  0  0  0  0  0  0  0  0  0  # atno 17394 bound_to 11000
  141.2159  133.6775  156.6962 LP  0  0  0  0  0  0  0  0  0  0  0  0  # atno 17395 bound_to 11000

$$$$
