AV-unprocessed.smi:2190|AV-procd|sdf|8888|dock3
  -GOLD-   2272012 93D 1   1.00000     0.00000
 Structure written by MMmdl.
 46 48  0  0  0  0  0  0  0  0  1 V2000
  145.3943  144.6859  152.0369 C   0  0  0  0  0  0  0  0  0  0  0  0
  145.4036  144.1157  153.4403 C   0  0  0  0  0  0  0  0  0  0  0  0
  144.3794  144.4449  154.3487 C   0  0  0  0  0  0  0  0  0  0  0  0
  144.3954  143.9095  155.6490 C   0  0  0  0  0  0  0  0  0  0  0  0
  145.4333  143.0425  156.0491 C   0  0  0  0  0  0  0  0  0  0  0  0
  145.4337  142.4730  157.4553 C   0  0  0  0  0  0  0  0  0  0  0  0
  146.4680  142.7027  155.1467 C   0  0  0  0  0  0  0  0  0  0  0  0
  147.4519  141.8481  155.6006 O   0  0  0  0  0  0  0  0  0  0  0  0
  148.3180  141.2425  154.6501 C   0  0  0  0  0  0  0  0  0  0  0  0
  149.7215  141.1163  155.2639 C   0  0  2  0  0  0  0  0  0  0  0  0
  150.4909  140.2489  154.4541 O   0  0  0  0  0  0  0  0  0  0  0  0
  149.6695  140.5550  156.7000 C   0  0  0  0  0  0  0  0  0  0  0  0
  150.9339  140.6935  157.4117 N   0  0  0  0  0  0  0  0  0  0  0  0
  151.9303  139.7795  157.5286 C   0  0  0  0  0  0  0  0  0  0  0  0
  151.8299  138.4262  156.8826 C   0  0  0  0  0  0  0  0  0  0  0  0
  152.8706  138.1464  155.9681 O   0  0  0  0  0  0  0  0  0  0  0  0
  152.9910  140.1711  158.2390 N   0  0  0  0  0  0  0  0  0  0  0  0
  152.6511  141.4551  158.6159 C   0  0  0  0  0  0  0  0  0  0  0  0
  153.3616  142.4045  159.3847 C   0  0  0  0  0  0  0  0  0  0  0  0
  152.8054  143.6747  159.6423 C   0  0  0  0  0  0  0  0  0  0  0  0
  151.5341  144.0129  159.1355 C   0  0  0  0  0  0  0  0  0  0  0  0
  150.8098  143.0817  158.3666 C   0  0  0  0  0  0  0  0  0  0  0  0
  151.3692  141.8146  158.1128 C   0  0  0  0  0  0  0  0  0  0  0  0
  146.4411  143.2487  153.8377 C   0  0  0  0  0  0  0  0  0  0  0  0
  144.6307  145.4563  151.9255 H   0  0  0  0  0  0  0  0  0  0  0  0
  145.1929  143.8974  151.3114 H   0  0  0  0  0  0  0  0  0  0  0  0
  146.3612  145.1311  151.8012 H   0  0  0  0  0  0  0  0  0  0  0  0
  143.5787  145.1073  154.0534 H   0  0  0  0  0  0  0  0  0  0  0  0
  143.6053  144.1679  156.3388 H   0  0  0  0  0  0  0  0  0  0  0  0
  146.3537  142.7438  157.9742 H   0  0  0  0  0  0  0  0  0  0  0  0
  145.3654  141.3853  157.4215 H   0  0  0  0  0  0  0  0  0  0  0  0
  144.5927  142.8477  158.0393 H   0  0  0  0  0  0  0  0  0  0  0  0
  147.9339  140.2462  154.4246 H   0  0  0  0  0  0  0  0  0  0  0  0
  148.3520  141.8071  153.7164 H   0  0  0  0  0  0  0  0  0  0  0  0
  150.2003  142.0955  155.2778 H   0  0  0  0  0  0  0  0  0  0  0  0
  150.2368  139.3581  154.6408 H   0  0  0  0  0  0  0  0  0  0  0  0
  148.8894  141.0553  157.2742 H   0  0  0  0  0  0  0  0  0  0  0  0
  149.3956  139.4992  156.6821 H   0  0  0  0  0  0  0  0  0  0  0  0
  151.8371  137.6555  157.6526 H   0  0  0  0  0  0  0  0  0  0  0  0
  150.8784  138.3540  156.3555 H   0  0  0  0  0  0  0  0  0  0  0  0
  153.0988  137.2326  156.0424 H   0  0  0  0  0  0  0  0  0  0  0  0
  154.3363  142.1545  159.7767 H   0  0  0  0  0  0  0  0  0  0  0  0
  153.3568  144.3923  160.2319 H   0  0  0  0  0  0  0  0  0  0  0  0
  151.1149  144.9877  159.3378 H   0  0  0  0  0  0  0  0  0  0  0  0
  149.8351  143.3379  157.9794 H   0  0  0  0  0  0  0  0  0  0  0  0
  147.2089  143.0147  153.1160 H   0  0  0  0  0  0  0  0  0  0  0  0
  1  2  1  0  0  0  0
  1 25  1  0  0  0  0
  1 26  1  0  0  0  0
  1 27  1  0  0  0  0
  2 24  1  0  0  0  0
  2  3  2  0  0  0  0
  3  4  1  0  0  0  0
  3 28  1  0  0  0  0
  4  5  2  0  0  0  0
  4 29  1  0  0  0  0
  5  6  1  0  0  0  0
  5  7  1  0  0  0  0
  6 30  1  0  0  0  0
  6 31  1  0  0  0  0
  6 32  1  0  0  0  0
  7  8  1  0  0  0  0
  7 24  2  0  0  0  0
  8  9  1  0  0  0  0
  9 10  1  0  0  0  0
  9 33  1  0  0  0  0
  9 34  1  0  0  0  0
 10 11  1  0  0  0  0
 10 12  1  0  0  0  0
 10 35  1  0  0  0  0
 11 36  1  0  0  0  0
 12 13  1  0  0  0  0
 12 37  1  0  0  0  0
 12 38  1  0  0  0  0
 13 23  1  0  0  0  0
 13 14  1  0  0  0  0
 14 15  1  0  0  0  0
 14 17  2  0  0  0  0
 15 16  1  0  0  0  0
 15 39  1  0  0  0  0
 15 40  1  0  0  0  0
 16 41  1  0  0  0  0
 17 18  1  0  0  0  0
 18 23  2  0  0  0  0
 18 19  1  0  0  0  0
 19 20  2  0  0  0  0
 19 42  1  0  0  0  0
 20 21  1  0  0  0  0
 20 43  1  0  0  0  0
 21 22  2  0  0  0  0
 21 44  1  0  0  0  0
 22 23  1  0  0  0  0
 22 45  1  0  0  0  0
 24 46  1  0  0  0  0
M  END
> <s_m_source_file>
AV-unprocessed.smi

> <i_m_source_file_index>
2190

> <i_lp_mmshare_version>
43012

> <i_f3d_flags>
0

> <s_epik_input>
W0NIM11jMVtjSF1bY0hdYyhbQ0gzXSljKFtjSF0xKU9bQ0gyXVtDQEhdKFtPSF0pW0NIMl1uKGMobjIpW0NIMl1bT0hdKWMoYzIzKVtjSF1bY0hdW2NIXVtjSF0z

> <s_epik_cmdline>
J2VwaWtfcHl0aG9uJywgJy1waCcsICc3LjAnLCAnLXRuJywgJzgnLCAnLW1hJywgJzIwMCcsICctbWV0YWxfYmluZGluZycsICctaW1hZScsICc8aW5maWxlLm1hZT4nLCAnLW9tYWUnLCAnPG91dGZpbGUubWFlPic=

> <r_lp_tautomer_probability>
1

> <r_epik_Ionization_Penalty>
0.0555874

> <r_epik_Ionization_Penalty_Charging>
0

> <r_epik_Ionization_Penalty_Neutral>
0.0555874

> <r_epik_State_Penalty>
0.0478234

> <r_epik_Charging_Adjusted_Penalty>
0.0478234

> <i_epik_Tot_Q>
0

> <i_epik_Tot_abs_Q>
0

> <r_epik_Metal_State_Penalty>
4.98044e-05

> <b_epik_Metal_Only>
0

> <s_lp_Force_Field>
OPLS_2005

> <r_lp_Energy>
17.5677

> <b_lp_Chiralities_Consistent>
1

> <s_lp_Variant>
AV-unprocessed.smi:2190-1

> <Gold.Version>
5.8.1

> <Gold.Id.Protein>
6NUR|6NUR_protein|mol2

> <Gold.PLP.Fitness>
51.3353

> <Gold.PLP.PLP>
-47.1190

> <Gold.PLP.part.hbond>
-2.2177

> <Gold.PLP.part.metal>
0.0000

> <Gold.PLP.part.buried>
-5.6918

> <Gold.PLP.part.nonpolar>
-37.6469

> <Gold.PLP.part.repulsive>
0.1195

> <Gold.PLP.ligand.clash>
0.0000

> <Gold.PLP.ligand.torsion>
0.9332

> <Gold.PLP.Chemscore.Hbond>
2.0000

> <Gold.PLP.Chemscore.CHOScore>
0.0000

> <Gold.PLP.Chemscore.Metal>
0.0000

> <Gold.Chemscore.Hbonds>
donor molecule, donor type, donor heavy atom, donor atom, acceptor molecule, acceptor atom, score
      P1  H  7989  7998       L1    11  1.00
      P1  H  7997  8008       L1    17  0.99

> <Gold.PLP.Chemscore.Internal.Correction>
0.0828

> <Gold.Rescore>
     Score         DG    S(hbond)    S(metal)    S(lipo)     H(rot)  DE(clash)    DE(int)     intcor
     16.79     -17.82       1.67        0.00     122.38       2.96       0.22       0.81       ----

> <Gold.Chemscore.Fitness>
16.7900

> <Gold.Chemscore.DG>
-17.8234

> <Gold.Chemscore.ZeroCoef>
-5.4800

> <Gold.Chemscore.Hbond>
1.6745

> <Gold.Chemscore.Metal>
0.0000

> <Gold.Chemscore.Lipo>
122.3792

> <Gold.Chemscore.Internal_Hbond>
0.0000

> <Gold.Chemscore.DEClash>
0.2247

> <Gold.Chemscore.DEInternal>
0.8088

> <Gold.Chemscore.Rot>
2.9561

> <Gold.Chemscore.Internal.Correction>
   9.000000E+99

> <Gold.Chemscore.Hbonds>
donor molecule, donor type, donor heavy atom, donor atom, acceptor molecule, acceptor atom, score
      P1  H  7989  7998       L1    11  0.95
      P1  H  7997  8008       L1    17  0.44

> <Gold.Chemscore.Hbond.Weighted>
-5.5927

> <Gold.Chemscore.Metal.Weighted>
-0.0000

> <Gold.Chemscore.Lipo.Weighted>
-14.3184

> <Gold.Chemscore.Internal_Hbond.Weighted>
0.0000

> <Gold.Chemscore.DEClash.Weighted>
0.2247

> <Gold.Chemscore.DEInternal.Weighted>
0.8088

> <Gold.Chemscore.Rot.Weighted>
7.5677

> <Gold.Chemscore.Internal.Correction.Weighted>
   9.000000E+99

> <Gold.Protein.RotatedTorsions>
[ 6907 6896 6895 6894 ] final  -68.53 input  -60.11 | X-H torsion
[ 7974 7965 7964 7962 ] final   27.39 input  175.53 | X-H torsion
[ 8008 7997 7996 7995 ] final  -82.76 input   59.86 | X-H torsion
[ 10167 10162 10161 10158 ] final  169.58 input  -65.29 | X-H torsion
[ 10718 10713 10712 10709 ] final  -53.74 input   66.30 | X-H torsion
[ 10763 10752 10751 10750 ] final  -48.64 input  -60.55 | X-H torsion
[ 11005 11000 10999 10996 ] final  -75.87 input  -57.11 | X-H torsion

> <Gold.Protein.ActiveResidues>
 VAL166  LYS551  ARG553  GLY616  TRP617  ASP618  TYR619  PRO620  LYS621  CYS622 
 ASP623  PHE694  ASN695  SER759  ASP760  ASP761  ALA762  ILE779  LEU786  VAL792 
 PHE793  MET794  SER795  GLU796  ALA797  LYS798  CYS799  TRP800  GLU811  SER814 

> <Gold.Protein.RotatedAtoms>
  150.7352  134.5726  159.5897 H   0  0  0  0  0  0  0  0  0  0  0  0  # atno 6907 bound_to 6896
  152.3161  134.7435  160.0334 H   0  0  0  0  0  0  0  0  0  0  0  0  # atno 6908 bound_to 6896
  151.7966  133.3329  159.3551 H   0  0  0  0  0  0  0  0  0  0  0  0  # atno 6909 bound_to 6896
  146.1787  139.7198  142.8916 H   0  0  0  0  0  0  0  0  0  0  0  0  # atno 7974 bound_to 7965
  154.6120  140.0628  156.9506 H   0  0  0  0  0  0  0  0  0  0  0  0  # atno 8008 bound_to 7997
  155.1957  140.3311  155.4333 H   0  0  0  0  0  0  0  0  0  0  0  0  # atno 8009 bound_to 7997
  156.2382  140.1873  156.7044 H   0  0  0  0  0  0  0  0  0  0  0  0  # atno 8010 bound_to 7997
  139.4996  144.3690  151.9744 H   0  0  0  0  0  0  0  0  0  0  0  0  # atno 10167 bound_to 10162
  156.1509  130.4151  149.9947 H   0  0  0  0  0  0  0  0  0  0  0  0  # atno 10718 bound_to 10713
  154.0811  135.6591  153.4838 H   0  0  0  0  0  0  0  0  0  0  0  0  # atno 10763 bound_to 10752
  153.0355  135.5180  154.7473 H   0  0  0  0  0  0  0  0  0  0  0  0  # atno 10764 bound_to 10752
  154.6568  135.3009  154.9885 H   0  0  0  0  0  0  0  0  0  0  0  0  # atno 10765 bound_to 10752
  141.1649  133.6962  156.7582 H   0  0  0  0  0  0  0  0  0  0  0  0  # atno 11005 bound_to 11000
  145.4139  141.0399  143.3002 LP  0  0  0  0  0  0  0  0  0  0  0  0  # atno 17320 bound_to 7965
  144.8278  139.5680  143.6957 LP  0  0  0  0  0  0  0  0  0  0  0  0  # atno 17321 bound_to 7965
  140.3127  144.3520  150.6030 LP  0  0  0  0  0  0  0  0  0  0  0  0  # atno 17342 bound_to 10162
  140.5786  143.2174  151.7469 LP  0  0  0  0  0  0  0  0  0  0  0  0  # atno 17343 bound_to 10162
  156.7805  130.9219  151.3646 LP  0  0  0  0  0  0  0  0  0  0  0  0  # atno 17370 bound_to 10713
  157.6656  130.9004  149.9924 LP  0  0  0  0  0  0  0  0  0  0  0  0  # atno 17371 bound_to 10713
  140.2554  134.8508  157.3707 LP  0  0  0  0  0  0  0  0  0  0  0  0  # atno 17394 bound_to 11000
  140.1663  134.4665  155.7861 LP  0  0  0  0  0  0  0  0  0  0  0  0  # atno 17395 bound_to 11000

$$$$
