AV-unprocessed.smi:3234|AV-procd|sdf|12348|dock3
  -GOLD-   2272018213D 1   1.00000     0.00000
 Structure written by MMmdl.
 37 39  0  0  0  0  0  0  0  0  2 V2000
  144.8725  136.5536  152.9380 O   0  0  0  0  0  0  0  0  0  0  0  0
  146.0560  136.3058  152.7113 C   0  0  0  0  0  0  0  0  0  0  0  0
  146.5228  135.2484  152.0236 N   0  0  0  0  0  0  0  0  0  0  0  0
  145.8143  134.1806  151.4040 C   0  0  0  0  0  0  0  0  0  0  0  0
  146.5794  133.1098  150.8962 C   0  0  0  0  0  0  0  0  0  0  0  0
  145.9168  132.0303  150.2784 C   0  0  0  0  0  0  0  0  0  0  0  0
  144.5759  131.9620  150.1454 N   0  0  0  0  0  0  0  0  0  0  0  0
  143.8435  132.9847  150.6342 C   0  0  0  0  0  0  0  0  0  0  0  0
  144.4057  134.1103  151.2695 C   0  0  0  0  0  0  0  0  0  0  0  0
  147.0598  137.0887  153.1319 N   0  0  0  0  0  0  0  0  0  0  0  0
  146.8873  138.3132  153.9062 C   0  0  2  0  0  0  0  0  0  0  0  0
  145.7366  138.2781  154.9076 C   0  0  0  0  0  0  0  0  0  0  0  0
  145.4716  139.7666  155.1598 C   0  0  0  0  0  0  0  0  0  0  0  0
  145.8790  140.4877  153.9279 N   0  3  1  0  0  0  0  0  0  0  0  0
  146.7238  141.6734  154.1888 C   0  0  0  0  0  0  0  0  0  0  0  0
  146.1766  142.5807  155.2647 C   0  0  0  0  0  0  0  0  0  0  0  0
  146.0659  142.9784  153.8087 C   0  0  0  0  0  0  0  0  0  0  0  0
  146.5078  139.5005  153.0225 C   0  0  0  0  0  0  0  0  0  0  0  0
  147.5256  135.2066  151.9171 H   0  0  0  0  0  0  0  0  0  0  0  0
  147.6567  133.1101  150.9748 H   0  0  0  0  0  0  0  0  0  0  0  0
  146.4802  131.1991  149.8809 H   0  0  0  0  0  0  0  0  0  0  0  0
  142.7730  132.9039  150.5171 H   0  0  0  0  0  0  0  0  0  0  0  0
  143.7435  134.8782  151.6349 H   0  0  0  0  0  0  0  0  0  0  0  0
  148.0052  136.8168  152.9042 H   0  0  0  0  0  0  0  0  0  0  0  0
  147.8165  138.5474  154.4305 H   0  0  0  0  0  0  0  0  0  0  0  0
  144.8570  137.8126  154.4601 H   0  0  0  0  0  0  0  0  0  0  0  0
  145.9807  137.7331  155.8201 H   0  0  0  0  0  0  0  0  0  0  0  0
  144.4263  139.9616  155.4006 H   0  0  0  0  0  0  0  0  0  0  0  0
  146.0716  140.1016  156.0077 H   0  0  0  0  0  0  0  0  0  0  0  0
  147.7980  141.5400  154.0708 H   0  0  0  0  0  0  0  0  0  0  0  0
  145.2636  142.2805  155.7758 H   0  0  0  0  0  0  0  0  0  0  0  0
  146.8936  143.1252  155.8759 H   0  0  0  0  0  0  0  0  0  0  0  0
  146.7111  143.7829  153.4613 H   0  0  0  0  0  0  0  0  0  0  0  0
  145.0785  142.9442  153.3518 H   0  0  0  0  0  0  0  0  0  0  0  0
  147.3629  139.9065  152.4795 H   0  0  0  0  0  0  0  0  0  0  0  0
  145.7615  139.2023  152.2844 H   0  0  0  0  0  0  0  0  0  0  0  0
  145.0405  140.8152  153.4699 H   0  0  0  0  0  0  0  0  0  0  0  0
  1  2  2  0  0  0  0
  2  3  1  0  0  0  0
  2 10  1  0  0  0  0
  3  4  1  0  0  0  0
  3 19  1  0  0  0  0
  4  9  1  0  0  0  0
  4  5  2  0  0  0  0
  5  6  1  0  0  0  0
  5 20  1  0  0  0  0
  6  7  2  0  0  0  0
  6 21  1  0  0  0  0
  7  8  1  0  0  0  0
  8  9  2  0  0  0  0
  8 22  1  0  0  0  0
  9 23  1  0  0  0  0
 10 11  1  0  0  0  0
 10 24  1  0  0  0  0
 11 18  1  0  0  0  0
 11 12  1  0  0  0  0
 11 25  1  0  0  0  0
 12 13  1  0  0  0  0
 12 26  1  0  0  0  0
 12 27  1  0  0  0  0
 13 14  1  0  0  0  0
 13 28  1  0  0  0  0
 13 29  1  0  0  0  0
 14 15  1  0  0  0  0
 14 18  1  0  0  0  0
 14 37  1  0  0  0  0
 15 17  1  0  0  0  0
 15 16  1  0  0  0  0
 15 30  1  0  0  0  0
 16 17  1  0  0  0  0
 16 31  1  0  0  0  0
 16 32  1  0  0  0  0
 17 33  1  0  0  0  0
 17 34  1  0  0  0  0
 18 35  1  0  0  0  0
 18 36  1  0  0  0  0
M  CHG  1  14   1
M  END
> <s_m_source_file>
AV-unprocessed.smi

> <i_m_source_file_index>
3234

> <i_lp_mmshare_version>
43012

> <i_f3d_flags>
0

> <s_epik_input>
W2NIXTFbY0hdbltjSF1bY0hdYzFbTkhdQyg9TylbTkhdW0NAQEhdMltDSDJdW0NIMl1OKFtDSDJdMilbQ0hdM1tDSDJdW0NIMl0z

> <s_epik_cmdline>
J2VwaWtfcHl0aG9uJywgJy1waCcsICc3LjAnLCAnLXRuJywgJzgnLCAnLW1hJywgJzIwMCcsICctbWV0YWxfYmluZGluZycsICctaW1hZScsICc8aW5maWxlLm1hZT4nLCAnLW9tYWUnLCAnPG91dGZpbGUubWFlPic=

> <r_epik_Ionization_Penalty>
0.0934328

> <r_epik_Ionization_Penalty_Charging>
0.000606352

> <r_epik_Ionization_Penalty_Neutral>
0.0928265

> <r_epik_State_Penalty>
0.0830811

> <r_epik_Charging_Adjusted_Penalty>
0.0836875

> <i_epik_Tot_Q>
1

> <i_epik_Tot_abs_Q>
1

> <r_epik_Metal_State_Penalty>
0.0724491

> <b_epik_Metal_Only>
0

> <s_lp_Force_Field>
OPLS_2005

> <r_lp_Energy>
42.4864

> <b_lp_Chiralities_Consistent>
1

> <s_lp_Variant>
AV-unprocessed.smi:3234-1

> <Gold.Version>
5.8.1

> <Gold.Id.Protein>
6NUR|6NUR_protein|mol2

> <Gold.PLP.Fitness>
43.8346

> <Gold.PLP.PLP>
-27.7565

> <Gold.PLP.part.hbond>
-2.6749

> <Gold.PLP.part.metal>
0.0000

> <Gold.PLP.part.buried>
-2.8794

> <Gold.PLP.part.nonpolar>
-23.4801

> <Gold.PLP.part.repulsive>
0.3571

> <Gold.PLP.ligand.clash>
0.0000

> <Gold.PLP.ligand.torsion>
1.1233

> <Gold.PLP.Chemscore.Hbond>
3.7997

> <Gold.PLP.Chemscore.CHOScore>
1.8871

> <Gold.PLP.Chemscore.Metal>
0.0000

> <Gold.Chemscore.Hbonds>
donor molecule, donor type, donor heavy atom, donor atom, acceptor molecule, acceptor atom, score
      L1  H     3    19       P1  7948  0.86
      L1  H    10    24       P1  7948  0.94
      L1  H    14    37       P1 10175  2.00
      L1  C     6    21       P1 10747  0.89
      L1  C     8    22       P1 10186  1.00

> <Gold.PLP.Chemscore.Internal.Correction>
1.2641

> <Gold.Rescore>
     Score         DG    S(hbond)    S(metal)    S(lipo)     H(rot)  DE(clash)    DE(int)     intcor
     14.60     -18.46       2.58        0.00      63.70       1.21       0.21       3.64       ----

> <Gold.Chemscore.Fitness>
14.6039

> <Gold.Chemscore.DG>
-18.4581

> <Gold.Chemscore.ZeroCoef>
-5.4800

> <Gold.Chemscore.Hbond>
2.5823

> <Gold.Chemscore.Metal>
0.0000

> <Gold.Chemscore.Lipo>
63.6975

> <Gold.Chemscore.Internal_Hbond>
0.0000

> <Gold.Chemscore.DEClash>
0.2136

> <Gold.Chemscore.DEInternal>
3.6405

> <Gold.Chemscore.Rot>
1.2108

> <Gold.Chemscore.Internal.Correction>
   9.000000E+99

> <Gold.Chemscore.Hbonds>
donor molecule, donor type, donor heavy atom, donor atom, acceptor molecule, acceptor atom, score
      L1  H     3    19       P1  7948  0.81
      L1  H    10    24       P1  7948  0.84
      L1  H    14    37       P1 10175  0.81

> <Gold.Chemscore.Hbond.Weighted>
-8.6250

> <Gold.Chemscore.Metal.Weighted>
-0.0000

> <Gold.Chemscore.Lipo.Weighted>
-7.4526

> <Gold.Chemscore.Internal_Hbond.Weighted>
0.0000

> <Gold.Chemscore.DEClash.Weighted>
0.2136

> <Gold.Chemscore.DEInternal.Weighted>
3.6405

> <Gold.Chemscore.Rot.Weighted>
3.0996

> <Gold.Chemscore.Internal.Correction.Weighted>
   9.000000E+99

> <Gold.Protein.RotatedTorsions>
[ 6907 6896 6895 6894 ] final -118.62 input  -60.11 | X-H torsion
[ 7974 7965 7964 7962 ] final   26.22 input  175.53 | X-H torsion
[ 8008 7997 7996 7995 ] final  133.51 input   59.86 | X-H torsion
[ 10167 10162 10161 10158 ] final -146.25 input  -65.29 | X-H torsion
[ 10718 10713 10712 10709 ] final  -69.12 input   66.30 | X-H torsion
[ 10763 10752 10751 10750 ] final  -72.48 input  -60.55 | X-H torsion
[ 11005 11000 10999 10996 ] final   36.06 input  -57.11 | X-H torsion

> <Gold.Protein.ActiveResidues>
 VAL166  LYS551  ARG553  GLY616  TRP617  ASP618  TYR619  PRO620  LYS621  CYS622 
 ASP623  PHE694  ASN695  SER759  ASP760  ASP761  ALA762  ILE779  LEU786  VAL792 
 PHE793  MET794  SER795  GLU796  ALA797  LYS798  CYS799  TRP800  GLU811  SER814 

> <Gold.Protein.RotatedAtoms>
  150.8235  133.8212  159.3128 H   0  0  0  0  0  0  0  0  0  0  0  0  # atno 6907 bound_to 6896
  151.5963  135.1048  160.0060 H   0  0  0  0  0  0  0  0  0  0  0  0  # atno 6908 bound_to 6896
  152.4322  133.7257  159.6615 H   0  0  0  0  0  0  0  0  0  0  0  0  # atno 6909 bound_to 6896
  146.1849  139.7358  142.8874 H   0  0  0  0  0  0  0  0  0  0  0  0  # atno 7974 bound_to 7965
  156.2993  140.2519  156.3264 H   0  0  0  0  0  0  0  0  0  0  0  0  # atno 8008 bound_to 7997
  154.9186  140.0401  157.2004 H   0  0  0  0  0  0  0  0  0  0  0  0  # atno 8009 bound_to 7997
  154.8333  140.2879  155.5712 H   0  0  0  0  0  0  0  0  0  0  0  0  # atno 8010 bound_to 7997
  139.7730  143.8210  152.2627 H   0  0  0  0  0  0  0  0  0  0  0  0  # atno 10167 bound_to 10162
  156.0471  130.4307  150.2101 H   0  0  0  0  0  0  0  0  0  0  0  0  # atno 10718 bound_to 10713
  154.4463  135.5928  153.6162 H   0  0  0  0  0  0  0  0  0  0  0  0  # atno 10763 bound_to 10752
  152.9809  135.6010  154.3661 H   0  0  0  0  0  0  0  0  0  0  0  0  # atno 10764 bound_to 10752
  154.3516  135.2841  155.2347 H   0  0  0  0  0  0  0  0  0  0  0  0  # atno 10765 bound_to 10752
  140.2364  134.3467  155.7943 H   0  0  0  0  0  0  0  0  0  0  0  0  # atno 11005 bound_to 11000
  145.3969  141.0380  143.3092 LP  0  0  0  0  0  0  0  0  0  0  0  0  # atno 17320 bound_to 7965
  144.8379  139.5520  143.6914 LP  0  0  0  0  0  0  0  0  0  0  0  0  # atno 17321 bound_to 7965
  139.8250  144.7279  150.9523 LP  0  0  0  0  0  0  0  0  0  0  0  0  # atno 17342 bound_to 10162
  140.7815  143.4123  151.0973 LP  0  0  0  0  0  0  0  0  0  0  0  0  # atno 17343 bound_to 10162
  157.0190  130.9973  151.3345 LP  0  0  0  0  0  0  0  0  0  0  0  0  # atno 17370 bound_to 10713
  157.5358  130.8087  149.7970 LP  0  0  0  0  0  0  0  0  0  0  0  0  # atno 17371 bound_to 10713
  141.2214  133.7274  156.8814 LP  0  0  0  0  0  0  0  0  0  0  0  0  # atno 17394 bound_to 11000
  140.1698  134.9108  157.2819 LP  0  0  0  0  0  0  0  0  0  0  0  0  # atno 17395 bound_to 11000

$$$$
