AV-unprocessed.smi:1744|AV-procd|sdf|7026|dock10
  -GOLD-   22720 8243D 1   1.00000     0.00000
 Structure written by MMmdl.
 44 45  0  0  0  0  0  0  0  0  2 V2000
  153.2657  142.1646  161.0482 C   0  0  0  0  0  0  0  0  0  0  0  0
  153.5726  140.9149  160.2135 C   0  0  0  0  0  0  0  0  0  0  0  0
  152.7603  140.8558  159.0137 N   0  0  0  0  0  0  0  0  0  0  0  0
  151.7193  141.6847  158.6454 C   0  0  0  0  0  0  0  0  0  0  0  0
  151.2835  141.2216  157.4405 C   0  0  0  0  0  0  0  0  0  0  0  0
  150.2169  141.7836  156.6956 N   0  0  0  0  0  0  0  0  0  0  0  0
  149.6489  141.2832  155.5867 C   0  0  0  0  0  0  0  0  0  0  0  0
  149.9845  140.2394  155.0278 O   0  0  0  0  0  0  0  0  0  0  0  0
  148.6578  142.0729  155.1484 N   0  0  0  0  0  0  0  0  0  0  0  0
  147.8292  141.8151  153.9709 C   0  0  2  0  0  0  0  0  0  0  0  0
  146.7261  142.8786  153.8009 C   0  0  0  0  0  0  0  0  0  0  0  0
  145.6359  142.7548  154.8795 C   0  0  0  0  0  0  0  0  0  0  0  0
  145.0478  141.3886  154.8926 N   0  3  2  0  0  0  0  0  0  0  0  0
  143.8971  141.2584  155.8236 C   0  0  0  0  0  0  0  0  0  0  0  0
  143.2844  139.8538  155.8283 C   0  0  0  0  0  0  0  0  0  0  0  0
  142.8890  139.3657  154.6505 N   0  0  0  0  0  0  0  0  0  0  0  0
  143.1537  139.2234  156.8760 O   0  0  0  0  0  0  0  0  0  0  0  0
  146.0838  140.3499  155.1243 C   0  0  0  0  0  0  0  0  0  0  0  0
  147.1920  140.4174  154.0570 C   0  0  0  0  0  0  0  0  0  0  0  0
  152.1059  140.1004  157.1345 C   0  0  0  0  0  0  0  0  0  0  0  0
  152.9955  139.8885  158.0929 N   0  0  0  0  0  0  0  0  0  0  0  0
  153.8755  142.1864  161.9513 H   0  0  0  0  0  0  0  0  0  0  0  0
  152.2186  142.1876  161.3522 H   0  0  0  0  0  0  0  0  0  0  0  0
  153.4725  143.0762  160.4864 H   0  0  0  0  0  0  0  0  0  0  0  0
  154.6249  140.8981  159.9260 H   0  0  0  0  0  0  0  0  0  0  0  0
  153.3906  140.0154  160.8030 H   0  0  0  0  0  0  0  0  0  0  0  0
  151.3905  142.5115  159.2578 H   0  0  0  0  0  0  0  0  0  0  0  0
  149.8497  142.6571  157.0436 H   0  0  0  0  0  0  0  0  0  0  0  0
  148.4510  142.9068  155.6782 H   0  0  0  0  0  0  0  0  0  0  0  0
  148.4777  141.8368  153.0930 H   0  0  0  0  0  0  0  0  0  0  0  0
  147.1527  143.8823  153.8131 H   0  0  0  0  0  0  0  0  0  0  0  0
  146.2665  142.7613  152.8185 H   0  0  0  0  0  0  0  0  0  0  0  0
  146.0495  142.9858  155.8624 H   0  0  0  0  0  0  0  0  0  0  0  0
  144.8599  143.4958  154.6859 H   0  0  0  0  0  0  0  0  0  0  0  0
  144.2262  141.4564  156.8446 H   0  0  0  0  0  0  0  0  0  0  0  0
  143.1380  142.0068  155.5889 H   0  0  0  0  0  0  0  0  0  0  0  0
  142.4834  138.4428  154.5923 H   0  0  0  0  0  0  0  0  0  0  0  0
  143.0025  139.9218  153.8145 H   0  0  0  0  0  0  0  0  0  0  0  0
  146.5070  140.4722  156.1225 H   0  0  0  0  0  0  0  0  0  0  0  0
  145.6249  139.3608  155.0957 H   0  0  0  0  0  0  0  0  0  0  0  0
  146.7652  140.1601  153.0867 H   0  0  0  0  0  0  0  0  0  0  0  0
  147.9552  139.6649  154.2595 H   0  0  0  0  0  0  0  0  0  0  0  0
  152.0957  139.4438  156.2773 H   0  0  0  0  0  0  0  0  0  0  0  0
  144.6776  141.2188  153.9679 H   0  0  0  0  0  0  0  0  0  0  0  0
  1  2  1  0  0  0  0
  1 22  1  0  0  0  0
  1 23  1  0  0  0  0
  1 24  1  0  0  0  0
  2  3  1  0  0  0  0
  2 25  1  0  0  0  0
  2 26  1  0  0  0  0
  3 21  1  0  0  0  0
  3  4  1  0  0  0  0
  4  5  2  0  0  0  0
  4 27  1  0  0  0  0
  5  6  1  0  0  0  0
  5 20  1  0  0  0  0
  6  7  1  0  0  0  0
  6 28  1  0  0  0  0
  7  8  2  0  0  0  0
  7  9  1  0  0  0  0
  9 10  1  0  0  0  0
  9 29  1  0  0  0  0
 10 19  1  0  0  0  0
 10 11  1  0  0  0  0
 10 30  1  0  0  0  0
 11 12  1  0  0  0  0
 11 31  1  0  0  0  0
 11 32  1  0  0  0  0
 12 13  1  0  0  0  0
 12 33  1  0  0  0  0
 12 34  1  0  0  0  0
 13 14  1  0  0  0  0
 13 18  1  0  0  0  0
 13 44  1  0  0  0  0
 14 15  1  0  0  0  0
 14 35  1  0  0  0  0
 14 36  1  0  0  0  0
 15 16  1  0  0  0  0
 15 17  2  0  0  0  0
 16 37  1  0  0  0  0
 16 38  1  0  0  0  0
 18 19  1  0  0  0  0
 18 39  1  0  0  0  0
 18 40  1  0  0  0  0
 19 41  1  0  0  0  0
 19 42  1  0  0  0  0
 20 21  2  0  0  0  0
 20 43  1  0  0  0  0
M  CHG  1  13   1
M  END
> <s_m_source_file>
AV-unprocessed.smi

> <i_m_source_file_index>
1744

> <i_lp_mmshare_version>
43012

> <i_f3d_flags>
0

> <s_epik_input>
W0NIM11bQ0gyXW4xW2NIXWMoW2NIXW4xKVtOSF1DKD1PKVtOSF1bQ0hdMltDSDJdW0NIMl1OKFtDSDJdW0NIMl0yKVtDSDJdQyg9TylbTkgyXQ==

> <s_epik_cmdline>
J2VwaWtfcHl0aG9uJywgJy1waCcsICc3LjAnLCAnLXRuJywgJzgnLCAnLW1hJywgJzIwMCcsICctbWV0YWxfYmluZGluZycsICctaW1hZScsICc8aW5maWxlLm1hZT4nLCAnLW9tYWUnLCAnPG91dGZpbGUubWFlPic=

> <r_lp_tautomer_probability>
1

> <r_epik_Ionization_Penalty>
0.839033

> <r_epik_Ionization_Penalty_Charging>
0.838844

> <r_epik_Ionization_Penalty_Neutral>
0.000189439

> <r_epik_State_Penalty>
0.8734

> <r_epik_Charging_Adjusted_Penalty>
1.71224

> <i_epik_Tot_Q>
1

> <i_epik_Tot_abs_Q>
1

> <r_epik_Metal_State_Penalty>
0.89072

> <b_epik_Metal_Only>
0

> <s_lp_Force_Field>
OPLS_2005

> <r_lp_Energy>
17.546

> <b_lp_Chiralities_Consistent>
1

> <s_lp_Variant>
AV-unprocessed.smi:1744-3

> <Gold.Version>
5.8.1

> <Gold.Id.Protein>
6NUR|6NUR_protein|mol2

> <Gold.PLP.Fitness>
49.9785

> <Gold.PLP.PLP>
-34.4957

> <Gold.PLP.part.hbond>
-4.4960

> <Gold.PLP.part.metal>
0.0000

> <Gold.PLP.part.buried>
-4.0032

> <Gold.PLP.part.nonpolar>
-24.1202

> <Gold.PLP.part.repulsive>
0.3166

> <Gold.PLP.ligand.clash>
0.0000

> <Gold.PLP.ligand.torsion>
0.1206

> <Gold.PLP.Chemscore.Hbond>
5.2308

> <Gold.PLP.Chemscore.CHOScore>
0.0000

> <Gold.PLP.Chemscore.Metal>
0.0000

> <Gold.Chemscore.Hbonds>
donor molecule, donor type, donor heavy atom, donor atom, acceptor molecule, acceptor atom, score
      L1  H     9    29       P1  8028  0.78
      L1  H    13    44       P1 10175  2.00
      L1  H    16    38       P1 10175  1.00
      P1  H  7989  7998       L1     8  0.24
      P1  H  7997  8009       L1    21  1.00

> <Gold.PLP.Chemscore.Internal.Correction>
0.0317

> <Gold.Rescore>
     Score         DG    S(hbond)    S(metal)    S(lipo)     H(rot)  DE(clash)    DE(int)     intcor
     16.67     -19.25       3.41        0.00      68.92       2.22       0.14       2.43       ----

> <Gold.Chemscore.Fitness>
16.6725

> <Gold.Chemscore.DG>
-19.2474

> <Gold.Chemscore.ZeroCoef>
-5.4800

> <Gold.Chemscore.Hbond>
3.4103

> <Gold.Chemscore.Metal>
0.0000

> <Gold.Chemscore.Lipo>
68.9151

> <Gold.Chemscore.Internal_Hbond>
0.0000

> <Gold.Chemscore.DEClash>
0.1408

> <Gold.Chemscore.DEInternal>
2.4340

> <Gold.Chemscore.Rot>
2.2211

> <Gold.Chemscore.Internal.Correction>
   9.000000E+99

> <Gold.Chemscore.Hbonds>
donor molecule, donor type, donor heavy atom, donor atom, acceptor molecule, acceptor atom, score
      L1  H     9    29       P1  8028  0.77
      L1  H    13    44       P1 10175  0.60
      L1  H    16    38       P1 10175  0.94
      P1  H  7989  7998       L1     8  0.12
      P1  H  7997  8009       L1    21  0.27

> <Gold.Chemscore.Hbond.Weighted>
-11.3903

> <Gold.Chemscore.Metal.Weighted>
-0.0000

> <Gold.Chemscore.Lipo.Weighted>
-8.0631

> <Gold.Chemscore.Internal_Hbond.Weighted>
0.0000

> <Gold.Chemscore.DEClash.Weighted>
0.1408

> <Gold.Chemscore.DEInternal.Weighted>
2.4340

> <Gold.Chemscore.Rot.Weighted>
5.6860

> <Gold.Chemscore.Internal.Correction.Weighted>
   9.000000E+99

> <Gold.Protein.RotatedTorsions>
[ 6907 6896 6895 6894 ] final -123.01 input  -60.11 | X-H torsion
[ 7974 7965 7964 7962 ] final -132.75 input  175.53 | X-H torsion
[ 8008 7997 7996 7995 ] final  148.19 input   59.86 | X-H torsion
[ 10167 10162 10161 10158 ] final   98.17 input  -65.29 | X-H torsion
[ 10718 10713 10712 10709 ] final   74.75 input   66.30 | X-H torsion
[ 10763 10752 10751 10750 ] final  -19.45 input  -60.55 | X-H torsion
[ 11005 11000 10999 10996 ] final  -29.16 input  -57.11 | X-H torsion

> <Gold.Protein.ActiveResidues>
 VAL166  LYS551  ARG553  GLY616  TRP617  ASP618  TYR619  PRO620  LYS621  CYS622 
 ASP623  PHE694  ASN695  SER759  ASP760  ASP761  ALA762  ILE779  LEU786  VAL792 
 PHE793  MET794  SER795  GLU796  ALA797  LYS798  CYS799  TRP800  GLU811  SER814 

> <Gold.Protein.RotatedAtoms>
  150.8630  133.7616  159.2985 H   0  0  0  0  0  0  0  0  0  0  0  0  # atno 6907 bound_to 6896
  151.5253  135.1066  159.9898 H   0  0  0  0  0  0  0  0  0  0  0  0  # atno 6908 bound_to 6896
  152.4640  133.7838  159.6921 H   0  0  0  0  0  0  0  0  0  0  0  0  # atno 6909 bound_to 6896
  144.9257  140.7068  143.4937 H   0  0  0  0  0  0  0  0  0  0  0  0  # atno 7974 bound_to 7965
  156.2800  140.2135  156.5658 H   0  0  0  0  0  0  0  0  0  0  0  0  # atno 8008 bound_to 7997
  154.7176  140.0506  157.0632 H   0  0  0  0  0  0  0  0  0  0  0  0  # atno 8009 bound_to 7997
  155.0522  140.3157  155.4691 H   0  0  0  0  0  0  0  0  0  0  0  0  # atno 8010 bound_to 7997
  139.7733  144.6914  151.0125 H   0  0  0  0  0  0  0  0  0  0  0  0  # atno 10167 bound_to 10162
  157.6605  130.9693  150.1256 H   0  0  0  0  0  0  0  0  0  0  0  0  # atno 10718 bound_to 10713
  153.6050  135.6998  153.5369 H   0  0  0  0  0  0  0  0  0  0  0  0  # atno 10763 bound_to 10752
  153.3065  135.4113  155.1298 H   0  0  0  0  0  0  0  0  0  0  0  0  # atno 10764 bound_to 10752
  154.8575  135.3661  154.5587 H   0  0  0  0  0  0  0  0  0  0  0  0  # atno 10765 bound_to 10752
  140.9272  133.7361  156.0885 H   0  0  0  0  0  0  0  0  0  0  0  0  # atno 11005 bound_to 11000
  145.3224  139.1784  143.4581 LP  0  0  0  0  0  0  0  0  0  0  0  0  # atno 17320 bound_to 7965
  146.3225  140.3243  142.8635 LP  0  0  0  0  0  0  0  0  0  0  0  0  # atno 17321 bound_to 7965
  140.7815  143.4564  151.0340 LP  0  0  0  0  0  0  0  0  0  0  0  0  # atno 17342 bound_to 10162
  139.8247  143.7772  152.3178 LP  0  0  0  0  0  0  0  0  0  0  0  0  # atno 17343 bound_to 10162
  156.2116  130.3667  149.8664 LP  0  0  0  0  0  0  0  0  0  0  0  0  # atno 17370 bound_to 10713
  156.6541  130.8755  151.3536 LP  0  0  0  0  0  0  0  0  0  0  0  0  # atno 17371 bound_to 10713
  140.7910  134.3617  157.5464 LP  0  0  0  0  0  0  0  0  0  0  0  0  # atno 17394 bound_to 11000
  139.8788  134.9140  156.3097 LP  0  0  0  0  0  0  0  0  0  0  0  0  # atno 17395 bound_to 11000

$$$$
