AV-unprocessed.smi:1368|AV-procd|sdf|5577|dock4
  -GOLD-   22720 5173D 1   1.00000     0.00000
 Structure written by MMmdl.
 47 49  0  0  0  0  0  0  0  0  2 V2000
  146.3296  135.0820  162.5804 C   0  0  0  0  0  0  0  0  0  0  0  0
  147.2136  135.8836  161.6300 C   0  0  0  0  0  0  0  0  0  0  0  0
  147.4335  137.0699  161.8705 O   0  0  0  0  0  0  0  0  0  0  0  0
  147.6752  135.2138  160.5574 N   0  0  0  0  0  0  0  0  0  0  0  0
  148.5225  135.6742  159.5123 C   0  0  0  0  0  0  0  0  0  0  0  0
  148.5883  134.8898  158.3436 C   0  0  0  0  0  0  0  0  0  0  0  0
  149.4202  135.2691  157.2732 C   0  0  0  0  0  0  0  0  0  0  0  0
  150.2102  136.4332  157.3499 C   0  0  0  0  0  0  0  0  0  0  0  0
  150.9973  136.7305  156.2576 O   0  0  0  0  0  0  0  0  0  0  0  0
  152.1028  137.6048  156.4439 C   0  0  0  0  0  0  0  0  0  0  0  0
  151.6344  139.0547  156.2433 C   0  0  2  0  0  0  0  0  0  0  0  0
  152.6016  139.7347  155.4674 O   0  0  0  0  0  0  0  0  0  0  0  0
  151.4528  139.7866  157.5884 C   0  0  0  0  0  0  0  0  0  0  0  0
  151.2467  141.2359  157.4326 N   0  0  0  0  0  0  0  0  0  0  0  0
  150.5589  141.9224  156.4762 C   0  0  0  0  0  0  0  0  0  0  0  0
  149.8264  141.3387  155.3151 C   0  0  0  0  0  0  0  0  0  0  0  0
  150.6595  143.2476  156.7778 N   0  3  0  0  0  0  0  0  0  0  0  0
  151.4196  143.4114  157.9368 C   0  0  0  0  0  0  0  0  0  0  0  0
  151.7919  144.5615  158.6261 C   0  0  0  0  0  0  0  0  0  0  0  0
  152.5802  144.3798  159.7812 C   0  0  0  0  0  0  0  0  0  0  0  0
  152.9689  143.0940  160.2097 C   0  0  0  0  0  0  0  0  0  0  0  0
  152.5842  141.9355  159.5032 C   0  0  0  0  0  0  0  0  0  0  0  0
  151.8026  142.1229  158.3630 C   0  0  0  0  0  0  0  0  0  0  0  0
  150.1548  137.2154  158.5301 C   0  0  0  0  0  0  0  0  0  0  0  0
  149.3235  136.8374  159.6023 C   0  0  0  0  0  0  0  0  0  0  0  0
  146.5863  134.0220  162.5600 H   0  0  0  0  0  0  0  0  0  0  0  0
  145.2817  135.1883  162.2993 H   0  0  0  0  0  0  0  0  0  0  0  0
  146.4476  135.4383  163.6043 H   0  0  0  0  0  0  0  0  0  0  0  0
  147.3348  134.2692  160.4507 H   0  0  0  0  0  0  0  0  0  0  0  0
  147.9950  133.9909  158.2599 H   0  0  0  0  0  0  0  0  0  0  0  0
  149.4531  134.6579  156.3831 H   0  0  0  0  0  0  0  0  0  0  0  0
  152.4664  137.4829  157.4657 H   0  0  0  0  0  0  0  0  0  0  0  0
  152.9252  137.3665  155.7668 H   0  0  0  0  0  0  0  0  0  0  0  0
  150.6850  139.0612  155.7065 H   0  0  0  0  0  0  0  0  0  0  0  0
  152.2659  140.5931  155.2569 H   0  0  0  0  0  0  0  0  0  0  0  0
  150.5772  139.3943  158.1071 H   0  0  0  0  0  0  0  0  0  0  0  0
  152.2984  139.6101  158.2535 H   0  0  0  0  0  0  0  0  0  0  0  0
  149.4231  142.1271  154.6793 H   0  0  0  0  0  0  0  0  0  0  0  0
  149.0010  140.7192  155.6660 H   0  0  0  0  0  0  0  0  0  0  0  0
  150.4968  140.7212  154.7175 H   0  0  0  0  0  0  0  0  0  0  0  0
  151.4970  145.5477  158.2984 H   0  0  0  0  0  0  0  0  0  0  0  0
  152.8947  145.2438  160.3489 H   0  0  0  0  0  0  0  0  0  0  0  0
  153.5762  142.9935  161.0975 H   0  0  0  0  0  0  0  0  0  0  0  0
  152.8942  140.9566  159.8373 H   0  0  0  0  0  0  0  0  0  0  0  0
  150.7461  138.1112  158.6428 H   0  0  0  0  0  0  0  0  0  0  0  0
  149.3310  137.4510  160.4894 H   0  0  0  0  0  0  0  0  0  0  0  0
  150.2383  143.9854  156.2282 H   0  0  0  0  0  0  0  0  0  0  0  0
  1  2  1  0  0  0  0
  1 26  1  0  0  0  0
  1 27  1  0  0  0  0
  1 28  1  0  0  0  0
  2  3  2  0  0  0  0
  2  4  1  0  0  0  0
  4  5  1  0  0  0  0
  4 29  1  0  0  0  0
  5 25  1  0  0  0  0
  5  6  2  0  0  0  0
  6  7  1  0  0  0  0
  6 30  1  0  0  0  0
  7  8  2  0  0  0  0
  7 31  1  0  0  0  0
  8  9  1  0  0  0  0
  8 24  1  0  0  0  0
  9 10  1  0  0  0  0
 10 11  1  0  0  0  0
 10 32  1  0  0  0  0
 10 33  1  0  0  0  0
 11 12  1  0  0  0  0
 11 13  1  0  0  0  0
 11 34  1  0  0  0  0
 12 35  1  0  0  0  0
 13 14  1  0  0  0  0
 13 36  1  0  0  0  0
 13 37  1  0  0  0  0
 14 23  1  0  0  0  0
 14 15  1  0  0  0  0
 15 16  1  0  0  0  0
 15 17  2  0  0  0  0
 16 38  1  0  0  0  0
 16 39  1  0  0  0  0
 16 40  1  0  0  0  0
 17 18  1  0  0  0  0
 17 47  1  0  0  0  0
 18 23  2  0  0  0  0
 18 19  1  0  0  0  0
 19 20  2  0  0  0  0
 19 41  1  0  0  0  0
 20 21  1  0  0  0  0
 20 42  1  0  0  0  0
 21 22  2  0  0  0  0
 21 43  1  0  0  0  0
 22 23  1  0  0  0  0
 22 44  1  0  0  0  0
 24 25  2  0  0  0  0
 24 45  1  0  0  0  0
 25 46  1  0  0  0  0
M  CHG  1  17   1
M  END
> <s_m_source_file>
AV-unprocessed.smi

> <i_m_source_file_index>
1368

> <i_lp_mmshare_version>
43012

> <i_f3d_flags>
0

> <s_epik_input>
W0NIM11DKD1PKVtOSF1jMVtjSF1bY0hdYyhbY0hdW2NIXTEpT1tDSDJdW0NASF0oW09IXSlbQ0gyXW4oYyhuMilbQ0gzXSljKGMyMylbY0hdW2NIXVtjSF1bY0hdMw==

> <s_epik_cmdline>
J2VwaWtfcHl0aG9uJywgJy1waCcsICc3LjAnLCAnLXRuJywgJzgnLCAnLW1hJywgJzIwMCcsICctbWV0YWxfYmluZGluZycsICctaW1hZScsICc8aW5maWxlLm1hZT4nLCAnLW9tYWUnLCAnPG91dGZpbGUubWFlPic=

> <r_lp_tautomer_probability>
1

> <r_epik_Ionization_Penalty>
1.00673

> <r_epik_Ionization_Penalty_Charging>
1.00673

> <r_epik_Ionization_Penalty_Neutral>
2.60899e-06

> <r_epik_State_Penalty>
1.05579

> <r_epik_Charging_Adjusted_Penalty>
2.06252

> <i_epik_Tot_Q>
1

> <i_epik_Tot_abs_Q>
1

> <r_epik_Metal_State_Penalty>
1.15682

> <b_epik_Metal_Only>
0

> <s_lp_Force_Field>
OPLS_2005

> <r_lp_Energy>
25.0727

> <b_lp_Chiralities_Consistent>
1

> <s_lp_Variant>
AV-unprocessed.smi:1368-3

> <Gold.Version>
5.8.1

> <Gold.Id.Protein>
6NUR|6NUR_protein|mol2

> <Gold.PLP.Fitness>
60.5851

> <Gold.PLP.PLP>
-49.7857

> <Gold.PLP.part.hbond>
-4.3075

> <Gold.PLP.part.metal>
0.0000

> <Gold.PLP.part.buried>
-6.5596

> <Gold.PLP.part.nonpolar>
-40.0263

> <Gold.PLP.part.repulsive>
0.1507

> <Gold.PLP.ligand.clash>
0.0000

> <Gold.PLP.ligand.torsion>
1.5166

> <Gold.PLP.Chemscore.Hbond>
4.5789

> <Gold.PLP.Chemscore.CHOScore>
0.0000

> <Gold.PLP.Chemscore.Metal>
0.0000

> <Gold.Chemscore.Hbonds>
donor molecule, donor type, donor heavy atom, donor atom, acceptor molecule, acceptor atom, score
      L1  H    17    47       P1  8028  2.00
      P1  H  6931  6943       L1     3  0.98
      P1  H  6934  6947       L1     3  0.50
      P1  H  7997  8009       L1    12  0.95

> <Gold.PLP.Chemscore.Internal.Correction>
0.0959

> <Gold.Rescore>
     Score         DG    S(hbond)    S(metal)    S(lipo)     H(rot)  DE(clash)    DE(int)     intcor
     19.01     -22.24       2.61        0.00     122.92       2.47       0.02       3.21       ----

> <Gold.Chemscore.Fitness>
19.0119

> <Gold.Chemscore.DG>
-22.2360

> <Gold.Chemscore.ZeroCoef>
-5.4800

> <Gold.Chemscore.Hbond>
2.6051

> <Gold.Chemscore.Metal>
0.0000

> <Gold.Chemscore.Lipo>
122.9239

> <Gold.Chemscore.Internal_Hbond>
0.0000

> <Gold.Chemscore.DEClash>
0.0165

> <Gold.Chemscore.DEInternal>
3.2075

> <Gold.Chemscore.Rot>
2.4715

> <Gold.Chemscore.Internal.Correction>
   9.000000E+99

> <Gold.Chemscore.Hbonds>
donor molecule, donor type, donor heavy atom, donor atom, acceptor molecule, acceptor atom, score
      L1  H    17    47       P1  8028  0.94
      P1  H  6931  6943       L1     3  0.91
      P1  H  6934  6947       L1     3  0.50
      P1  H  7997  8009       L1    12  0.21

> <Gold.Chemscore.Hbond.Weighted>
-8.7009

> <Gold.Chemscore.Metal.Weighted>
-0.0000

> <Gold.Chemscore.Lipo.Weighted>
-14.3821

> <Gold.Chemscore.Internal_Hbond.Weighted>
0.0000

> <Gold.Chemscore.DEClash.Weighted>
0.0165

> <Gold.Chemscore.DEInternal.Weighted>
3.2075

> <Gold.Chemscore.Rot.Weighted>
6.3271

> <Gold.Chemscore.Internal.Correction.Weighted>
   9.000000E+99

> <Gold.Protein.RotatedTorsions>
[ 6907 6896 6895 6894 ] final   38.00 input  -60.11 | X-H torsion
[ 7974 7965 7964 7962 ] final -138.18 input  175.53 | X-H torsion
[ 8008 7997 7996 7995 ] final -130.56 input   59.86 | X-H torsion
[ 10167 10162 10161 10158 ] final -153.92 input  -65.29 | X-H torsion
[ 10718 10713 10712 10709 ] final -124.36 input   66.30 | X-H torsion
[ 10763 10752 10751 10750 ] final -163.92 input  -60.55 | X-H torsion
[ 11005 11000 10999 10996 ] final  -67.95 input  -57.11 | X-H torsion

> <Gold.Protein.ActiveResidues>
 VAL166  LYS551  ARG553  GLY616  TRP617  ASP618  TYR619  PRO620  LYS621  CYS622 
 ASP623  PHE694  ASN695  SER759  ASP760  ASP761  ALA762  ILE779  LEU786  VAL792 
 PHE793  MET794  SER795  GLU796  ALA797  LYS798  CYS799  TRP800  GLU811  SER814 

> <Gold.Protein.RotatedAtoms>
  152.1506  134.8991  160.0548 H   0  0  0  0  0  0  0  0  0  0  0  0  # atno 6907 bound_to 6896
  152.0024  133.3825  159.4195 H   0  0  0  0  0  0  0  0  0  0  0  0  # atno 6908 bound_to 6896
  150.6875  134.3741  159.5049 H   0  0  0  0  0  0  0  0  0  0  0  0  # atno 6909 bound_to 6896
  144.8780  140.6465  143.5224 H   0  0  0  0  0  0  0  0  0  0  0  0  # atno 7974 bound_to 7965
  155.2978  140.0451  157.3027 H   0  0  0  0  0  0  0  0  0  0  0  0  # atno 8008 bound_to 7997
  154.5504  140.2315  155.8462 H   0  0  0  0  0  0  0  0  0  0  0  0  # atno 8009 bound_to 7997
  156.1961  140.3038  155.9438 H   0  0  0  0  0  0  0  0  0  0  0  0  # atno 8010 bound_to 7997
  139.7056  143.9191  152.2447 H   0  0  0  0  0  0  0  0  0  0  0  0  # atno 10167 bound_to 10162
  156.1581  130.6582  151.0010 H   0  0  0  0  0  0  0  0  0  0  0  0  # atno 10718 bound_to 10713
  154.7077  135.3000  154.9244 H   0  0  0  0  0  0  0  0  0  0  0  0  # atno 10763 bound_to 10752
  154.0156  135.6689  153.4772 H   0  0  0  0  0  0  0  0  0  0  0  0  # atno 10764 bound_to 10752
  153.0730  135.5050  154.8258 H   0  0  0  0  0  0  0  0  0  0  0  0  # atno 10765 bound_to 10752
  141.1520  133.6730  156.6370 H   0  0  0  0  0  0  0  0  0  0  0  0  # atno 11005 bound_to 11000
  145.4007  139.1598  143.4179 LP  0  0  0  0  0  0  0  0  0  0  0  0  # atno 17320 bound_to 7965
  146.2975  140.4104  142.8716 LP  0  0  0  0  0  0  0  0  0  0  0  0  # atno 17321 bound_to 7965
  139.9046  144.6892  150.8628 LP  0  0  0  0  0  0  0  0  0  0  0  0  # atno 17342 bound_to 10162
  140.7721  143.3488  151.2056 LP  0  0  0  0  0  0  0  0  0  0  0  0  # atno 17343 bound_to 10162
  157.6711  131.0861  150.7610 LP  0  0  0  0  0  0  0  0  0  0  0  0  # atno 17370 bound_to 10713
  156.7675  130.4818  149.5425 LP  0  0  0  0  0  0  0  0  0  0  0  0  # atno 17371 bound_to 10713
  140.3422  134.7839  157.4406 LP  0  0  0  0  0  0  0  0  0  0  0  0  # atno 17394 bound_to 11000
  140.0928  134.5577  155.8427 LP  0  0  0  0  0  0  0  0  0  0  0  0  # atno 17395 bound_to 11000

$$$$
