AV-unprocessed.smi:3354|AV-procd|sdf|12960|dock3
  -GOLD-   2272019393D 1   1.00000     0.00000
 Structure written by MMmdl.
 38 40  0  0  0  0  0  0  0  0  1 V2000
  151.3972  138.7296  154.3970 C   0  0  0  0  0  0  0  0  0  0  0  0
  151.0653  139.4118  155.7102 C   0  0  1  0  0  0  0  0  0  0  0  0
  150.7001  140.8773  155.7485 C   0  0  0  0  0  0  0  0  0  0  0  0
  149.6527  139.8288  156.0714 C   0  0  1  0  0  0  0  0  0  0  0  0
  148.5776  139.5527  155.1618 N   0  0  0  0  0  0  0  0  0  0  0  0
  147.8681  138.2801  155.1638 C   0  0  0  0  0  0  0  0  0  0  0  0
  146.8493  138.3683  154.0137 C   0  0  2  0  0  0  0  0  0  0  0  0
  146.8847  137.1602  153.1936 N   0  0  0  0  0  0  0  0  0  0  0  0
  145.8221  136.3924  152.9157 C   0  0  0  0  0  0  0  0  0  0  0  0
  144.6883  136.6292  153.3319 O   0  0  0  0  0  0  0  0  0  0  0  0
  146.1616  135.3647  152.1187 N   0  0  0  0  0  0  0  0  0  0  0  0
  145.3304  134.3365  151.5973 C   0  0  0  0  0  0  0  0  0  0  0  0
  145.7206  133.4340  150.5783 C   0  0  0  0  0  0  0  0  0  0  0  0
  144.7965  132.4678  150.1360 C   0  0  0  0  0  0  0  0  0  0  0  0
  143.5158  132.4441  150.7211 C   0  0  0  0  0  0  0  0  0  0  0  0
  143.1256  133.3068  151.6831 N   0  0  0  0  0  0  0  0  0  0  0  0
  144.0170  134.2301  152.1020 C   0  0  0  0  0  0  0  0  0  0  0  0
  147.2277  139.6303  153.2228 C   0  0  0  0  0  0  0  0  0  0  0  0
  148.2982  140.2853  154.0777 C   0  0  0  0  0  0  0  0  0  0  0  0
  148.8276  141.3530  153.7715 O   0  0  0  0  0  0  0  0  0  0  0  0
  150.8439  139.1732  153.5695 H   0  0  0  0  0  0  0  0  0  0  0  0
  151.1471  137.6702  154.4544 H   0  0  0  0  0  0  0  0  0  0  0  0
  152.4626  138.8241  154.1869 H   0  0  0  0  0  0  0  0  0  0  0  0
  151.6660  139.0487  156.5417 H   0  0  0  0  0  0  0  0  0  0  0  0
  151.0899  141.4643  156.5777 H   0  0  0  0  0  0  0  0  0  0  0  0
  150.6555  141.4046  154.7984 H   0  0  0  0  0  0  0  0  0  0  0  0
  149.3941  139.7517  157.1265 H   0  0  0  0  0  0  0  0  0  0  0  0
  148.5865  137.4717  155.0165 H   0  0  0  0  0  0  0  0  0  0  0  0
  147.3580  138.1096  156.1120 H   0  0  0  0  0  0  0  0  0  0  0  0
  145.8505  138.4952  154.4368 H   0  0  0  0  0  0  0  0  0  0  0  0
  147.7794  136.8957  152.8080 H   0  0  0  0  0  0  0  0  0  0  0  0
  147.1185  135.3501  151.7977 H   0  0  0  0  0  0  0  0  0  0  0  0
  146.6965  133.4700  150.1199 H   0  0  0  0  0  0  0  0  0  0  0  0
  145.0622  131.7635  149.3616 H   0  0  0  0  0  0  0  0  0  0  0  0
  142.7832  131.7168  150.4034 H   0  0  0  0  0  0  0  0  0  0  0  0
  143.6698  134.9046  152.8715 H   0  0  0  0  0  0  0  0  0  0  0  0
  147.6436  139.3996  152.2410 H   0  0  0  0  0  0  0  0  0  0  0  0
  146.3746  140.2961  153.0887 H   0  0  0  0  0  0  0  0  0  0  0  0
  1  2  1  0  0  0  0
  1 21  1  0  0  0  0
  1 22  1  0  0  0  0
  1 23  1  0  0  0  0
  2  4  1  0  0  0  0
  2  3  1  0  0  0  0
  2 24  1  0  0  0  0
  3  4  1  0  0  0  0
  3 25  1  0  0  0  0
  3 26  1  0  0  0  0
  4  5  1  0  0  0  0
  4 27  1  0  0  0  0
  5 19  1  0  0  0  0
  5  6  1  0  0  0  0
  6  7  1  0  0  0  0
  6 28  1  0  0  0  0
  6 29  1  0  0  0  0
  7  8  1  0  0  0  0
  7 18  1  0  0  0  0
  7 30  1  0  0  0  0
  8  9  1  0  0  0  0
  8 31  1  0  0  0  0
  9 10  2  0  0  0  0
  9 11  1  0  0  0  0
 11 12  1  0  0  0  0
 11 32  1  0  0  0  0
 12 17  1  0  0  0  0
 12 13  2  0  0  0  0
 13 14  1  0  0  0  0
 13 33  1  0  0  0  0
 14 15  2  0  0  0  0
 14 34  1  0  0  0  0
 15 16  1  0  0  0  0
 15 35  1  0  0  0  0
 16 17  2  0  0  0  0
 17 36  1  0  0  0  0
 18 19  1  0  0  0  0
 18 37  1  0  0  0  0
 18 38  1  0  0  0  0
 19 20  2  0  0  0  0
M  END
> <s_m_source_file>
AV-unprocessed.smi

> <i_m_source_file_index>
3354

> <i_lp_mmshare_version>
43012

> <i_f3d_flags>
0

> <s_epik_input>
W0NIM11bQ0BASF0xW0NIMl1bQ0BIXTFOMltDSDJdW0NASF0oW0NIMl1DMj1PKVtOSF1DKD1PKVtOSF1jM1tjSF1bY0hdW2NIXW5bY0hdMw==

> <s_epik_cmdline>
J2VwaWtfcHl0aG9uJywgJy1waCcsICc3LjAnLCAnLXRuJywgJzgnLCAnLW1hJywgJzIwMCcsICctbWV0YWxfYmluZGluZycsICctaW1hZScsICc8aW5maWxlLm1hZT4nLCAnLW9tYWUnLCAnPG91dGZpbGUubWFlPic=

> <r_epik_Ionization_Penalty>
0.00456191

> <r_epik_Ionization_Penalty_Charging>
0

> <r_epik_Ionization_Penalty_Neutral>
0.00456191

> <r_epik_State_Penalty>
0.00327094

> <r_epik_Charging_Adjusted_Penalty>
0.00327094

> <i_epik_Tot_Q>
0

> <i_epik_Tot_abs_Q>
0

> <r_epik_Metal_State_Penalty>
-0

> <b_epik_Metal_Only>
0

> <s_lp_Force_Field>
OPLS_2005

> <r_lp_Energy>
41.3781

> <b_lp_Chiralities_Consistent>
1

> <s_lp_Variant>
AV-unprocessed.smi:3354-6

> <Gold.Version>
5.8.1

> <Gold.Id.Protein>
6NUR|6NUR_protein|mol2

> <Gold.PLP.Fitness>
41.6623

> <Gold.PLP.PLP>
-31.1996

> <Gold.PLP.part.hbond>
-3.0357

> <Gold.PLP.part.metal>
0.0000

> <Gold.PLP.part.buried>
-4.9423

> <Gold.PLP.part.nonpolar>
-23.8504

> <Gold.PLP.part.repulsive>
1.2967

> <Gold.PLP.ligand.clash>
0.0000

> <Gold.PLP.ligand.torsion>
0.5715

> <Gold.PLP.Chemscore.Hbond>
2.7760

> <Gold.PLP.Chemscore.CHOScore>
1.0000

> <Gold.PLP.Chemscore.Metal>
0.0000

> <Gold.Chemscore.Hbonds>
donor molecule, donor type, donor heavy atom, donor atom, acceptor molecule, acceptor atom, score
      L1  H     8    31       P1  7948  1.00
      L1  H    11    32       P1  7948  0.98
      P1  H  8011  8017       L1    20  0.79
      L1  C    15    35       P1 10952  1.00

> <Gold.PLP.Chemscore.Internal.Correction>
0.2776

> <Gold.Rescore>
     Score         DG    S(hbond)    S(metal)    S(lipo)     H(rot)  DE(clash)    DE(int)     intcor
     16.09     -19.66       2.67        0.00      71.92       1.24       0.17       3.40       ----

> <Gold.Chemscore.Fitness>
16.0880

> <Gold.Chemscore.DG>
-19.6573

> <Gold.Chemscore.ZeroCoef>
-5.4800

> <Gold.Chemscore.Hbond>
2.6727

> <Gold.Chemscore.Metal>
0.0000

> <Gold.Chemscore.Lipo>
71.9225

> <Gold.Chemscore.Internal_Hbond>
0.0000

> <Gold.Chemscore.DEClash>
0.1721

> <Gold.Chemscore.DEInternal>
3.3973

> <Gold.Chemscore.Rot>
1.2361

> <Gold.Chemscore.Internal.Correction>
   9.000000E+99

> <Gold.Chemscore.Hbonds>
donor molecule, donor type, donor heavy atom, donor atom, acceptor molecule, acceptor atom, score
      L1  H     8    31       P1  7948  1.00
      L1  H    11    32       P1  7948  0.89
      P1  H  8011  8017       L1    20  0.73

> <Gold.Chemscore.Hbond.Weighted>
-8.9267

> <Gold.Chemscore.Metal.Weighted>
-0.0000

> <Gold.Chemscore.Lipo.Weighted>
-8.4149

> <Gold.Chemscore.Internal_Hbond.Weighted>
0.0000

> <Gold.Chemscore.DEClash.Weighted>
0.1721

> <Gold.Chemscore.DEInternal.Weighted>
3.3973

> <Gold.Chemscore.Rot.Weighted>
3.1643

> <Gold.Chemscore.Internal.Correction.Weighted>
   9.000000E+99

> <Gold.Protein.RotatedTorsions>
[ 6907 6896 6895 6894 ] final  127.09 input  -60.11 | X-H torsion
[ 7974 7965 7964 7962 ] final -168.07 input  175.53 | X-H torsion
[ 8008 7997 7996 7995 ] final   96.77 input   59.86 | X-H torsion
[ 10167 10162 10161 10158 ] final  -86.11 input  -65.29 | X-H torsion
[ 10718 10713 10712 10709 ] final  -92.41 input   66.30 | X-H torsion
[ 10763 10752 10751 10750 ] final   51.67 input  -60.55 | X-H torsion
[ 11005 11000 10999 10996 ] final  -77.28 input  -57.11 | X-H torsion

> <Gold.Protein.ActiveResidues>
 VAL166  LYS551  ARG553  GLY616  TRP617  ASP618  TYR619  PRO620  LYS621  CYS622 
 ASP623  PHE694  ASN695  SER759  ASP760  ASP761  ALA762  ILE779  LEU786  VAL792 
 PHE793  MET794  SER795  GLU796  ALA797  LYS798  CYS799  TRP800  GLU811  SER814 

> <Gold.Protein.RotatedAtoms>
  152.3844  133.6591  159.6186 H   0  0  0  0  0  0  0  0  0  0  0  0  # atno 6907 bound_to 6896
  150.7767  133.9060  159.3364 H   0  0  0  0  0  0  0  0  0  0  0  0  # atno 6908 bound_to 6896
  151.6859  135.0955  160.0276 H   0  0  0  0  0  0  0  0  0  0  0  0  # atno 6909 bound_to 6896
  144.7210  140.2425  143.6289 H   0  0  0  0  0  0  0  0  0  0  0  0  # atno 7974 bound_to 7965
  156.0831  140.3268  155.7719 H   0  0  0  0  0  0  0  0  0  0  0  0  # atno 8008 bound_to 7997
  155.5120  140.0578  157.2939 H   0  0  0  0  0  0  0  0  0  0  0  0  # atno 8009 bound_to 7997
  154.4594  140.1959  156.0305 H   0  0  0  0  0  0  0  0  0  0  0  0  # atno 8010 bound_to 7997
  140.3973  143.2678  151.9188 H   0  0  0  0  0  0  0  0  0  0  0  0  # atno 10167 bound_to 10162
  156.0002  130.4986  150.5622 H   0  0  0  0  0  0  0  0  0  0  0  0  # atno 10718 bound_to 10713
  152.9786  135.5838  154.4453 H   0  0  0  0  0  0  0  0  0  0  0  0  # atno 10763 bound_to 10752
  154.4049  135.2769  155.2075 H   0  0  0  0  0  0  0  0  0  0  0  0  # atno 10764 bound_to 10752
  154.3890  135.6129  153.5887 H   0  0  0  0  0  0  0  0  0  0  0  0  # atno 10765 bound_to 10752
  141.1659  133.7016  156.7797 H   0  0  0  0  0  0  0  0  0  0  0  0  # atno 11005 bound_to 11000
  145.8306  139.2084  143.1885 LP  0  0  0  0  0  0  0  0  0  0  0  0  # atno 17320 bound_to 7965
  146.0434  140.8142  142.9817 LP  0  0  0  0  0  0  0  0  0  0  0  0  # atno 17321 bound_to 7965
  139.4786  144.5668  151.8151 LP  0  0  0  0  0  0  0  0  0  0  0  0  # atno 17342 bound_to 10162
  140.4777  144.1495  150.5927 LP  0  0  0  0  0  0  0  0  0  0  0  0  # atno 17343 bound_to 10162
  157.3529  131.0736  151.1698 LP  0  0  0  0  0  0  0  0  0  0  0  0  # atno 17370 bound_to 10713
  157.2509  130.6613  149.5931 LP  0  0  0  0  0  0  0  0  0  0  0  0  # atno 17371 bound_to 10713
  140.2404  134.8618  157.3567 LP  0  0  0  0  0  0  0  0  0  0  0  0  # atno 17394 bound_to 11000
  140.1802  134.4499  155.7777 LP  0  0  0  0  0  0  0  0  0  0  0  0  # atno 17395 bound_to 11000

$$$$
