AV-unprocessed.smi:798|AV-procd|sdf|3769|dock1
  -GOLD-   22720 1203D 1   1.00000     0.00000
 Structure written by MMmdl.
 34 36  0  0  0  0  0  0  0  0  1 V2000
  150.9296  140.7868  156.2946 O   0  0  0  0  0  0  0  0  0  0  0  0
  150.4021  141.8917  156.1636 C   0  0  0  0  0  0  0  0  0  0  0  0
  150.6710  142.9776  156.9094 N   0  0  0  0  0  0  0  0  0  0  0  0
  151.5857  143.1018  157.9882 C   0  0  0  0  0  0  0  0  0  0  0  0
  152.2078  142.0597  158.5615 N   0  0  0  0  0  0  0  0  0  0  0  0
  153.0445  142.4594  159.5956 N   0  0  0  0  0  0  0  0  0  0  0  0
  153.0214  143.7850  159.7607 C   0  0  0  0  0  0  0  0  0  0  0  0
  151.9756  144.6755  158.6680 S   0  0  0  0  0  0  0  0  0  0  0  0
  149.4727  142.1611  155.2366 N   0  0  0  0  0  0  0  0  0  0  0  0
  148.9645  141.2032  154.2573 C   0  0  2  0  0  0  0  0  0  0  0  0
  147.7058  141.7031  153.5035 C   0  0  2  0  0  0  0  0  0  0  0  0
  146.6197  142.1982  154.4826 C   0  0  0  0  0  0  0  0  0  0  0  0
  146.1474  140.8925  155.1488 C   0  0  0  0  0  0  0  0  0  0  0  0
  146.9977  139.8202  154.4398 C   0  0  1  0  0  0  0  0  0  0  0  0
  147.0922  140.3920  153.0296 C   0  0  0  0  0  0  0  0  0  0  0  0
  148.4586  139.9082  154.9444 C   0  0  1  0  0  0  0  0  0  0  0  0
  149.3145  138.6769  154.5887 C   0  0  0  0  0  0  0  0  0  0  0  0
  149.5157  138.6013  153.1933 O   0  0  0  0  0  0  0  0  0  0  0  0
  150.1588  143.8160  156.6785 H   0  0  0  0  0  0  0  0  0  0  0  0
  153.6247  144.2419  160.5311 H   0  0  0  0  0  0  0  0  0  0  0  0
  149.0943  143.0961  155.1967 H   0  0  0  0  0  0  0  0  0  0  0  0
  149.7499  140.9649  153.5365 H   0  0  0  0  0  0  0  0  0  0  0  0
  147.9293  142.4141  152.7074 H   0  0  0  0  0  0  0  0  0  0  0  0
  146.9822  142.9318  155.2025 H   0  0  0  0  0  0  0  0  0  0  0  0
  145.7976  142.6613  153.9355 H   0  0  0  0  0  0  0  0  0  0  0  0
  146.3000  140.8968  156.2286 H   0  0  0  0  0  0  0  0  0  0  0  0
  145.0846  140.7321  154.9638 H   0  0  0  0  0  0  0  0  0  0  0  0
  146.5646  138.8214  154.5025 H   0  0  0  0  0  0  0  0  0  0  0  0
  146.1210  140.5169  152.5468 H   0  0  0  0  0  0  0  0  0  0  0  0
  147.7454  139.8231  152.3668 H   0  0  0  0  0  0  0  0  0  0  0  0
  148.4644  140.0185  156.0307 H   0  0  0  0  0  0  0  0  0  0  0  0
  150.2817  138.7022  155.0907 H   0  0  0  0  0  0  0  0  0  0  0  0
  148.8100  137.7650  154.9094 H   0  0  0  0  0  0  0  0  0  0  0  0
  149.5338  137.6905  152.9411 H   0  0  0  0  0  0  0  0  0  0  0  0
  1  2  2  0  0  0  0
  2  3  1  0  0  0  0
  2  9  1  0  0  0  0
  3  4  1  0  0  0  0
  3 19  1  0  0  0  0
  4  8  1  0  0  0  0
  4  5  2  0  0  0  0
  5  6  1  0  0  0  0
  6  7  2  0  0  0  0
  7  8  1  0  0  0  0
  7 20  1  0  0  0  0
  9 10  1  0  0  0  0
  9 21  1  0  0  0  0
 10 16  1  0  0  0  0
 10 11  1  0  0  0  0
 10 22  1  0  0  0  0
 11 15  1  0  0  0  0
 11 12  1  0  0  0  0
 11 23  1  0  0  0  0
 12 13  1  0  0  0  0
 12 24  1  0  0  0  0
 12 25  1  0  0  0  0
 13 14  1  0  0  0  0
 13 26  1  0  0  0  0
 13 27  1  0  0  0  0
 14 15  1  0  0  0  0
 14 16  1  0  0  0  0
 14 28  1  0  0  0  0
 15 29  1  0  0  0  0
 15 30  1  0  0  0  0
 16 17  1  0  0  0  0
 16 31  1  0  0  0  0
 17 18  1  0  0  0  0
 17 32  1  0  0  0  0
 17 33  1  0  0  0  0
 18 34  1  0  0  0  0
M  END
> <s_m_source_file>
AV-unprocessed.smi

> <i_m_source_file_index>
798

> <i_lp_mmshare_version>
43012

> <i_f3d_flags>
0

> <s_epik_input>
W0NIMl0xW0NIMl1bQ0BASF0oW0NIMl0yKVtDQEBIXShbQ0gyXVtPSF0pW0NAQEhdKFtDQEhdMTIpW05IXUMoPU8pW05IXWMzbm5bY0hdczM=

> <s_epik_cmdline>
J2VwaWtfcHl0aG9uJywgJy1waCcsICc3LjAnLCAnLXRuJywgJzgnLCAnLW1hJywgJzIwMCcsICctbWV0YWxfYmluZGluZycsICctaW1hZScsICc8aW5maWxlLm1hZT4nLCAnLW9tYWUnLCAnPG91dGZpbGUubWFlPic=

> <r_lp_tautomer_probability>
1

> <r_epik_Ionization_Penalty>
0.000329046

> <r_epik_Ionization_Penalty_Charging>
0

> <r_epik_Ionization_Penalty_Neutral>
0.000329046

> <r_epik_State_Penalty>
-0

> <r_epik_Charging_Adjusted_Penalty>
0

> <i_epik_Tot_Q>
0

> <i_epik_Tot_abs_Q>
0

> <r_epik_Metal_State_Penalty>
0.173433

> <b_epik_Metal_Only>
0

> <s_lp_Force_Field>
OPLS_2005

> <r_lp_Energy>
48.3873

> <b_lp_Chiralities_Consistent>
1

> <s_lp_Variant>
AV-unprocessed.smi:798-1

> <Gold.Version>
5.8.1

> <Gold.Id.Protein>
6NUR|6NUR_protein|mol2

> <Gold.PLP.Fitness>
44.0266

> <Gold.PLP.PLP>
-35.2808

> <Gold.PLP.part.hbond>
-3.8758

> <Gold.PLP.part.metal>
0.0000

> <Gold.PLP.part.buried>
-4.9666

> <Gold.PLP.part.nonpolar>
-25.4084

> <Gold.PLP.part.repulsive>
0.2547

> <Gold.PLP.ligand.clash>
0.0000

> <Gold.PLP.ligand.torsion>
0.1503

> <Gold.PLP.Chemscore.Hbond>
3.0000

> <Gold.PLP.Chemscore.CHOScore>
0.0000

> <Gold.PLP.Chemscore.Metal>
0.0000

> <Gold.Chemscore.Hbonds>
donor molecule, donor type, donor heavy atom, donor atom, acceptor molecule, acceptor atom, score
      L1  H     3    19       P1  8028  1.00
      L1  H     9    21       P1  8028  1.00
      L1  H    18    34       P1  7948  1.00

> <Gold.PLP.Chemscore.Internal.Correction>
0.0465

> <Gold.Rescore>
     Score         DG    S(hbond)    S(metal)    S(lipo)     H(rot)  DE(clash)    DE(int)     intcor
     15.75     -18.48       2.92        0.00      70.19       1.94       0.03       2.69       ----

> <Gold.Chemscore.Fitness>
15.7549

> <Gold.Chemscore.DG>
-18.4799

> <Gold.Chemscore.ZeroCoef>
-5.4800

> <Gold.Chemscore.Hbond>
2.9237

> <Gold.Chemscore.Metal>
0.0000

> <Gold.Chemscore.Lipo>
70.1864

> <Gold.Chemscore.Internal_Hbond>
0.0000

> <Gold.Chemscore.DEClash>
0.0348

> <Gold.Chemscore.DEInternal>
2.6902

> <Gold.Chemscore.Rot>
1.9442

> <Gold.Chemscore.Internal.Correction>
   9.000000E+99

> <Gold.Chemscore.Hbonds>
donor molecule, donor type, donor heavy atom, donor atom, acceptor molecule, acceptor atom, score
      L1  H     3    19       P1  8028  0.96
      L1  H     9    21       P1  8028  0.99
      L1  H    18    34       P1  7948  0.75

> <Gold.Chemscore.Hbond.Weighted>
-9.7652

> <Gold.Chemscore.Metal.Weighted>
-0.0000

> <Gold.Chemscore.Lipo.Weighted>
-8.2118

> <Gold.Chemscore.Internal_Hbond.Weighted>
0.0000

> <Gold.Chemscore.DEClash.Weighted>
0.0348

> <Gold.Chemscore.DEInternal.Weighted>
2.6902

> <Gold.Chemscore.Rot.Weighted>
4.9771

> <Gold.Chemscore.Internal.Correction.Weighted>
   9.000000E+99

> <Gold.Protein.RotatedTorsions>
[ 6907 6896 6895 6894 ] final   -4.47 input  -60.11 | X-H torsion
[ 7974 7965 7964 7962 ] final  -19.97 input  175.53 | X-H torsion
[ 8008 7997 7996 7995 ] final   18.65 input   59.86 | X-H torsion
[ 10167 10162 10161 10158 ] final -165.46 input  -65.29 | X-H torsion
[ 10718 10713 10712 10709 ] final -133.17 input   66.30 | X-H torsion
[ 10763 10752 10751 10750 ] final  143.80 input  -60.55 | X-H torsion
[ 11005 11000 10999 10996 ] final    0.68 input  -57.11 | X-H torsion

> <Gold.Protein.ActiveResidues>
 VAL166  LYS551  ARG553  GLY616  TRP617  ASP618  TYR619  PRO620  LYS621  CYS622 
 ASP623  PHE694  ASN695  SER759  ASP760  ASP761  ALA762  ILE779  LEU786  VAL792 
 PHE793  MET794  SER795  GLU796  ALA797  LYS798  CYS799  TRP800  GLU811  SER814 

> <Gold.Protein.RotatedAtoms>
  151.4972  135.1060  159.9819 H   0  0  0  0  0  0  0  0  0  0  0  0  # atno 6907 bound_to 6896
  152.4717  133.8040  159.6978 H   0  0  0  0  0  0  0  0  0  0  0  0  # atno 6908 bound_to 6896
  150.8729  133.7416  159.2981 H   0  0  0  0  0  0  0  0  0  0  0  0  # atno 6909 bound_to 6896
  146.1813  140.4137  142.8493 H   0  0  0  0  0  0  0  0  0  0  0  0  # atno 7974 bound_to 7965
  154.9092  140.3011  155.5275 H   0  0  0  0  0  0  0  0  0  0  0  0  # atno 8008 bound_to 7997
  156.3015  140.2392  156.4064 H   0  0  0  0  0  0  0  0  0  0  0  0  # atno 8009 bound_to 7997
  154.8443  140.0412  157.1551 H   0  0  0  0  0  0  0  0  0  0  0  0  # atno 8010 bound_to 7997
  139.6181  144.0679  152.1907 H   0  0  0  0  0  0  0  0  0  0  0  0  # atno 10167 bound_to 10162
  156.2422  130.7102  151.0968 H   0  0  0  0  0  0  0  0  0  0  0  0  # atno 10718 bound_to 10713
  153.9783  135.2944  155.3422 H   0  0  0  0  0  0  0  0  0  0  0  0  # atno 10763 bound_to 10752
  154.7283  135.5079  153.8925 H   0  0  0  0  0  0  0  0  0  0  0  0  # atno 10764 bound_to 10752
  153.0866  135.6695  154.0050 H   0  0  0  0  0  0  0  0  0  0  0  0  # atno 10765 bound_to 10752
  140.6239  133.9636  155.8239 H   0  0  0  0  0  0  0  0  0  0  0  0  # atno 11005 bound_to 11000
  144.8320  140.6721  143.6285 LP  0  0  0  0  0  0  0  0  0  0  0  0  # atno 17320 bound_to 7965
  145.4068  139.1587  143.4147 LP  0  0  0  0  0  0  0  0  0  0  0  0  # atno 17321 bound_to 7965
  140.0314  144.6077  150.7484 LP  0  0  0  0  0  0  0  0  0  0  0  0  # atno 17342 bound_to 10162
  140.7364  143.2753  151.3762 LP  0  0  0  0  0  0  0  0  0  0  0  0  # atno 17343 bound_to 10162
  157.7180  131.0698  150.6251 LP  0  0  0  0  0  0  0  0  0  0  0  0  # atno 17370 bound_to 10713
  156.6325  130.4436  149.5781 LP  0  0  0  0  0  0  0  0  0  0  0  0  # atno 17371 bound_to 10713
  141.0723  134.0187  157.3508 LP  0  0  0  0  0  0  0  0  0  0  0  0  # atno 17394 bound_to 11000
  139.9142  135.0194  156.7816 LP  0  0  0  0  0  0  0  0  0  0  0  0  # atno 17395 bound_to 11000

$$$$
