AV-unprocessed.smi:3226|AV-procd|sdf|12313|dock5
  -GOLD-   2272018163D 1   1.00000     0.00000
 Structure written by MMmdl.
 41 43  0  0  0  0  0  0  0  0  2 V2000
  148.8131  138.7069  154.1160 C   0  0  0  0  0  0  0  0  0  0  0  0
  149.3520  140.0357  154.6574 C   0  0  0  0  0  0  0  0  0  0  0  0
  150.6707  139.8819  155.3504 C   0  0  0  0  0  0  0  0  0  0  0  0
  151.8090  139.5954  154.7074 N   0  0  0  0  0  0  0  0  0  0  0  0
  152.7898  139.5688  155.6782 N   0  0  0  0  0  0  0  0  0  0  0  0
  152.1480  139.8519  156.8101 C   0  0  0  0  0  0  0  0  0  0  0  0
  150.8273  140.0539  156.6803 N   0  0  0  0  0  0  0  0  0  0  0  0
  149.8585  140.3752  157.7149 C   0  0  0  0  0  0  0  0  0  0  0  0
  149.0530  141.6426  157.3856 C   0  0  0  0  0  0  0  0  0  0  0  0
  149.8105  142.5553  156.5060 N   0  3  0  0  0  0  0  0  0  0  0  0
  151.2105  142.7696  156.9208 C   0  0  0  0  0  0  0  0  0  0  0  0
  151.3111  142.9960  158.4406 C   0  0  2  0  0  0  0  0  0  0  0  0
  150.3467  144.1070  158.9615 C   0  0  0  0  0  0  0  0  0  0  0  0
  151.2919  145.0726  159.7132 C   0  0  1  0  0  0  0  0  0  0  0  0
  151.8712  144.3361  160.9026 C   0  0  0  0  0  0  0  0  0  0  0  0
  152.7130  143.4162  160.4277 C   0  0  0  0  0  0  0  0  0  0  0  0
  152.6918  143.5234  158.9169 C   0  0  2  0  0  0  0  0  0  0  0  0
  152.4955  145.0381  158.7677 C   0  0  0  0  0  0  0  0  0  0  0  0
  147.8510  138.8490  153.6236 H   0  0  0  0  0  0  0  0  0  0  0  0
  148.6722  137.9831  154.9194 H   0  0  0  0  0  0  0  0  0  0  0  0
  149.4983  138.2702  153.3890 H   0  0  0  0  0  0  0  0  0  0  0  0
  149.4413  140.7611  153.8492 H   0  0  0  0  0  0  0  0  0  0  0  0
  148.6365  140.4574  155.3643 H   0  0  0  0  0  0  0  0  0  0  0  0
  152.6558  139.9097  157.7618 H   0  0  0  0  0  0  0  0  0  0  0  0
  149.1917  139.5223  157.8482 H   0  0  0  0  0  0  0  0  0  0  0  0
  150.3880  140.5016  158.6595 H   0  0  0  0  0  0  0  0  0  0  0  0
  148.1252  141.3629  156.8849 H   0  0  0  0  0  0  0  0  0  0  0  0
  148.7746  142.1652  158.3015 H   0  0  0  0  0  0  0  0  0  0  0  0
  149.8102  142.1746  155.5705 H   0  0  0  0  0  0  0  0  0  0  0  0
  151.8174  141.9184  156.6113 H   0  0  0  0  0  0  0  0  0  0  0  0
  151.5976  143.6436  156.3954 H   0  0  0  0  0  0  0  0  0  0  0  0
  151.0834  142.0533  158.9424 H   0  0  0  0  0  0  0  0  0  0  0  0
  149.8511  144.6238  158.1383 H   0  0  0  0  0  0  0  0  0  0  0  0
  149.5698  143.7054  159.6136 H   0  0  0  0  0  0  0  0  0  0  0  0
  150.8966  146.0644  159.9342 H   0  0  0  0  0  0  0  0  0  0  0  0
  151.6081  144.5246  161.9330 H   0  0  0  0  0  0  0  0  0  0  0  0
  153.2836  142.6900  160.9878 H   0  0  0  0  0  0  0  0  0  0  0  0
  153.5732  143.1126  158.4238 H   0  0  0  0  0  0  0  0  0  0  0  0
  152.2691  145.3671  157.7524 H   0  0  0  0  0  0  0  0  0  0  0  0
  153.3445  145.6158  159.1393 H   0  0  0  0  0  0  0  0  0  0  0  0
  149.3415  143.4497  156.4913 H   0  0  0  0  0  0  0  0  0  0  0  0
  1  2  1  0  0  0  0
  1 19  1  0  0  0  0
  1 20  1  0  0  0  0
  1 21  1  0  0  0  0
  2  3  1  0  0  0  0
  2 22  1  0  0  0  0
  2 23  1  0  0  0  0
  3  7  1  0  0  0  0
  3  4  2  0  0  0  0
  4  5  1  0  0  0  0
  5  6  2  0  0  0  0
  6  7  1  0  0  0  0
  6 24  1  0  0  0  0
  7  8  1  0  0  0  0
  8  9  1  0  0  0  0
  8 25  1  0  0  0  0
  8 26  1  0  0  0  0
  9 10  1  0  0  0  0
  9 27  1  0  0  0  0
  9 28  1  0  0  0  0
 10 11  1  0  0  0  0
 10 29  1  0  0  0  0
 10 41  1  0  0  0  0
 11 12  1  0  0  0  0
 11 30  1  0  0  0  0
 11 31  1  0  0  0  0
 12 17  1  0  0  0  0
 12 13  1  0  0  0  0
 12 32  1  0  0  0  0
 13 14  1  0  0  0  0
 13 33  1  0  0  0  0
 13 34  1  0  0  0  0
 14 18  1  0  0  0  0
 14 15  1  0  0  0  0
 14 35  1  0  0  0  0
 15 16  2  0  0  0  0
 15 36  1  0  0  0  0
 16 17  1  0  0  0  0
 16 37  1  0  0  0  0
 17 18  1  0  0  0  0
 17 38  1  0  0  0  0
 18 39  1  0  0  0  0
 18 40  1  0  0  0  0
M  CHG  1  10   1
M  END
> <s_m_source_file>
AV-unprocessed.smi

> <i_m_source_file_index>
3226

> <i_lp_mmshare_version>
43012

> <i_f3d_flags>
0

> <s_epik_input>
W0NIM11bQ0gyXWMxbm5bY0hdbjFbQ0gyXVtDSDJdW05IXVtDSDJdW0NASF0oW0NIMl1bQ0BASF0yMylbQ0BASF0oW0NIMl0zKVtDSF09W0NIXTI=

> <s_epik_cmdline>
J2VwaWtfcHl0aG9uJywgJy1waCcsICc3LjAnLCAnLXRuJywgJzgnLCAnLW1hJywgJzIwMCcsICctbWV0YWxfYmluZGluZycsICctaW1hZScsICc8aW5maWxlLm1hZT4nLCAnLW9tYWUnLCAnPG91dGZpbGUubWFlPic=

> <r_lp_tautomer_probability>
1

> <r_epik_Ionization_Penalty>
0.00175008

> <r_epik_Ionization_Penalty_Charging>
0.00173932

> <r_epik_Ionization_Penalty_Neutral>
1.07546e-05

> <r_epik_State_Penalty>
-0

> <r_epik_Charging_Adjusted_Penalty>
0.00173932

> <i_epik_Tot_Q>
1

> <i_epik_Tot_abs_Q>
1

> <r_epik_Metal_State_Penalty>
-0

> <b_epik_Metal_Only>
0

> <s_lp_Force_Field>
OPLS_2005

> <r_lp_Energy>
64.8147

> <b_lp_Chiralities_Consistent>
1

> <s_lp_Variant>
AV-unprocessed.smi:3226-1

> <Gold.Version>
5.8.1

> <Gold.Id.Protein>
6NUR|6NUR_protein|mol2

> <Gold.PLP.Fitness>
53.0806

> <Gold.PLP.PLP>
-42.6351

> <Gold.PLP.part.hbond>
-2.8937

> <Gold.PLP.part.metal>
0.0000

> <Gold.PLP.part.buried>
-5.6803

> <Gold.PLP.part.nonpolar>
-33.7416

> <Gold.PLP.part.repulsive>
0.1280

> <Gold.PLP.ligand.clash>
0.0000

> <Gold.PLP.ligand.torsion>
0.4963

> <Gold.PLP.Chemscore.Hbond>
3.8020

> <Gold.PLP.Chemscore.CHOScore>
0.0000

> <Gold.PLP.Chemscore.Metal>
0.0000

> <Gold.Chemscore.Hbonds>
donor molecule, donor type, donor heavy atom, donor atom, acceptor molecule, acceptor atom, score
      L1  H    10    41       P1  8028  1.95
      P1  H  7989  7998       L1     4  0.80
      P1  H  7997  8010       L1     5  1.00

> <Gold.PLP.Chemscore.Internal.Correction>
0.0321

> <Gold.Rescore>
     Score         DG    S(hbond)    S(metal)    S(lipo)     H(rot)  DE(clash)    DE(int)     intcor
     16.87     -18.68       1.68        0.00     109.95       2.06       0.13       1.68       ----

> <Gold.Chemscore.Fitness>
16.8679

> <Gold.Chemscore.DG>
-18.6814

> <Gold.Chemscore.ZeroCoef>
-5.4800

> <Gold.Chemscore.Hbond>
1.6818

> <Gold.Chemscore.Metal>
0.0000

> <Gold.Chemscore.Lipo>
109.9461

> <Gold.Chemscore.Internal_Hbond>
0.0000

> <Gold.Chemscore.DEClash>
0.1328

> <Gold.Chemscore.DEInternal>
1.6806

> <Gold.Chemscore.Rot>
2.0623

> <Gold.Chemscore.Internal.Correction>
   9.000000E+99

> <Gold.Chemscore.Hbonds>
donor molecule, donor type, donor heavy atom, donor atom, acceptor molecule, acceptor atom, score
      L1  H    10    41       P1  8028  0.91
      P1  H  7989  7998       L1     4  0.11
      P1  H  7997  8010       L1     5  0.55

> <Gold.Chemscore.Hbond.Weighted>
-5.6173

> <Gold.Chemscore.Metal.Weighted>
-0.0000

> <Gold.Chemscore.Lipo.Weighted>
-12.8637

> <Gold.Chemscore.Internal_Hbond.Weighted>
0.0000

> <Gold.Chemscore.DEClash.Weighted>
0.1328

> <Gold.Chemscore.DEInternal.Weighted>
1.6806

> <Gold.Chemscore.Rot.Weighted>
5.2796

> <Gold.Chemscore.Internal.Correction.Weighted>
   9.000000E+99

> <Gold.Protein.RotatedTorsions>
[ 6907 6896 6895 6894 ] final  107.57 input  -60.11 | X-H torsion
[ 7974 7965 7964 7962 ] final  162.55 input  175.53 | X-H torsion
[ 8008 7997 7996 7995 ] final  104.89 input   59.86 | X-H torsion
[ 10167 10162 10161 10158 ] final   35.10 input  -65.29 | X-H torsion
[ 10718 10713 10712 10709 ] final -170.06 input   66.30 | X-H torsion
[ 10763 10752 10751 10750 ] final  105.33 input  -60.55 | X-H torsion
[ 11005 11000 10999 10996 ] final  -70.12 input  -57.11 | X-H torsion

> <Gold.Protein.ActiveResidues>
 VAL166  LYS551  ARG553  GLY616  TRP617  ASP618  TYR619  PRO620  LYS621  CYS622 
 ASP623  PHE694  ASN695  SER759  ASP760  ASP761  ALA762  ILE779  LEU786  VAL792 
 PHE793  MET794  SER795  GLU796  ALA797  LYS798  CYS799  TRP800  GLU811  SER814 

> <Gold.Protein.RotatedAtoms>
  152.5149  133.9215  159.7536 H   0  0  0  0  0  0  0  0  0  0  0  0  # atno 6907 bound_to 6896
  150.9586  133.6462  159.2765 H   0  0  0  0  0  0  0  0  0  0  0  0  # atno 6908 bound_to 6896
  151.3715  135.0928  159.9519 H   0  0  0  0  0  0  0  0  0  0  0  0  # atno 6909 bound_to 6896
  144.7631  139.8056  143.6325 H   0  0  0  0  0  0  0  0  0  0  0  0  # atno 7974 bound_to 7965
  156.1612  140.3140  155.8810 H   0  0  0  0  0  0  0  0  0  0  0  0  # atno 8008 bound_to 7997
  155.3778  140.0486  157.3061 H   0  0  0  0  0  0  0  0  0  0  0  0  # atno 8009 bound_to 7997
  154.5148  140.2177  155.9097 H   0  0  0  0  0  0  0  0  0  0  0  0  # atno 8010 bound_to 7997
  140.4253  144.1402  150.6152 H   0  0  0  0  0  0  0  0  0  0  0  0  # atno 10167 bound_to 10162
  156.7207  130.9269  151.3097 H   0  0  0  0  0  0  0  0  0  0  0  0  # atno 10718 bound_to 10713
  153.3779  135.3913  155.1836 H   0  0  0  0  0  0  0  0  0  0  0  0  # atno 10763 bound_to 10752
  154.8703  135.3718  154.4894 H   0  0  0  0  0  0  0  0  0  0  0  0  # atno 10764 bound_to 10752
  153.5368  135.7085  153.5717 H   0  0  0  0  0  0  0  0  0  0  0  0  # atno 10765 bound_to 10752
  141.1568  133.6782  156.6704 H   0  0  0  0  0  0  0  0  0  0  0  0  # atno 11005 bound_to 11000
  146.1713  139.4865  142.9925 LP  0  0  0  0  0  0  0  0  0  0  0  0  # atno 17320 bound_to 7965
  145.6555  141.0253  143.1737 LP  0  0  0  0  0  0  0  0  0  0  0  0  # atno 17321 bound_to 7965
  140.4488  143.2495  151.9375 LP  0  0  0  0  0  0  0  0  0  0  0  0  # atno 17342 bound_to 10162
  139.4783  144.5582  151.8280 LP  0  0  0  0  0  0  0  0  0  0  0  0  # atno 17343 bound_to 10162
  157.6899  130.9223  150.0486 LP  0  0  0  0  0  0  0  0  0  0  0  0  # atno 17370 bound_to 10713
  156.1596  130.3643  149.9318 LP  0  0  0  0  0  0  0  0  0  0  0  0  # atno 17371 bound_to 10713
  140.3179  134.8032  157.4229 LP  0  0  0  0  0  0  0  0  0  0  0  0  # atno 17394 bound_to 11000
  140.1122  134.5330  155.8256 LP  0  0  0  0  0  0  0  0  0  0  0  0  # atno 17395 bound_to 11000

$$$$
