AV-unprocessed.smi:2379|AV-procd|sdf|9453|dock8
  -GOLD-   2272013 83D 1   1.00000     0.00000
 Structure written by MMmdl.
 53 55  0  0  0  0  0  0  0  0  2 V2000
  151.5359  145.4082  159.8298 C   0  0  0  0  0  0  0  0  0  0  0  0
  151.8058  144.0038  159.3321 C   0  0  0  0  0  0  0  0  0  0  0  0
  152.8946  143.2610  159.8270 C   0  0  0  0  0  0  0  0  0  0  0  0
  153.0935  141.9592  159.3274 C   0  0  0  0  0  0  0  0  0  0  0  0
  154.2453  141.1066  159.8164 C   0  0  0  0  0  0  0  0  0  0  0  0
  152.2919  141.3967  158.3976 N   0  0  0  0  0  0  0  0  0  0  0  0
  151.2398  142.1024  157.9141 C   0  0  0  0  0  0  0  0  0  0  0  0
  150.3338  141.5972  156.9439 N   0  0  0  0  0  0  0  0  0  0  0  0
  150.6091  140.8346  155.8711 C   0  0  0  0  0  0  0  0  0  0  0  0
  151.7343  140.4837  155.5155 O   0  0  0  0  0  0  0  0  0  0  0  0
  149.4897  140.4964  155.2137 N   0  0  0  0  0  0  0  0  0  0  0  0
  149.4368  139.6908  153.9934 C   0  0  2  0  0  0  0  0  0  0  0  0
  148.0310  139.0954  153.8025 C   0  0  0  0  0  0  0  0  0  0  0  0
  147.7339  137.9702  154.8120 C   0  0  0  0  0  0  0  0  0  0  0  0
  148.7705  136.9059  154.7589 N   0  3  2  0  0  0  0  0  0  0  0  0
  148.4390  135.7402  155.6200 C   0  0  0  0  0  0  0  0  0  0  0  0
  149.3866  134.5461  155.3875 C   0  0  2  0  0  0  0  0  0  0  0  0
  149.0561  133.7556  154.1364 C   0  0  0  0  0  0  0  0  0  0  0  0
  149.7949  132.4457  154.3842 C   0  0  0  0  0  0  0  0  0  0  0  0
  149.7326  132.2384  155.7904 O   0  0  0  0  0  0  0  0  0  0  0  0
  149.3347  133.4392  156.4447 C   0  0  0  0  0  0  0  0  0  0  0  0
  150.1256  137.4587  155.0188 C   0  0  0  0  0  0  0  0  0  0  0  0
  150.4794  138.5548  154.0001 C   0  0  0  0  0  0  0  0  0  0  0  0
  150.9664  143.4132  158.3657 C   0  0  0  0  0  0  0  0  0  0  0  0
  152.4247  145.8386  160.2921 H   0  0  0  0  0  0  0  0  0  0  0  0
  150.7351  145.3981  160.5693 H   0  0  0  0  0  0  0  0  0  0  0  0
  151.2361  146.0561  159.0057 H   0  0  0  0  0  0  0  0  0  0  0  0
  153.5595  143.6773  160.5698 H   0  0  0  0  0  0  0  0  0  0  0  0
  154.6278  141.4738  160.7692 H   0  0  0  0  0  0  0  0  0  0  0  0
  155.0589  141.1214  159.0912 H   0  0  0  0  0  0  0  0  0  0  0  0
  153.9278  140.0726  159.9563 H   0  0  0  0  0  0  0  0  0  0  0  0
  149.3648  141.8382  157.0902 H   0  0  0  0  0  0  0  0  0  0  0  0
  148.6102  140.8366  155.5740 H   0  0  0  0  0  0  0  0  0  0  0  0
  149.6427  140.3534  153.1507 H   0  0  0  0  0  0  0  0  0  0  0  0
  147.2745  139.8775  153.8785 H   0  0  0  0  0  0  0  0  0  0  0  0
  147.9487  138.6944  152.7913 H   0  0  0  0  0  0  0  0  0  0  0  0
  147.6748  138.3720  155.8248 H   0  0  0  0  0  0  0  0  0  0  0  0
  146.7564  137.5435  154.5838 H   0  0  0  0  0  0  0  0  0  0  0  0
  148.4097  136.0298  156.6717 H   0  0  0  0  0  0  0  0  0  0  0  0
  147.4303  135.3990  155.3822 H   0  0  0  0  0  0  0  0  0  0  0  0
  150.4134  134.9052  155.2977 H   0  0  0  0  0  0  0  0  0  0  0  0
  147.9825  133.5716  154.0714 H   0  0  0  0  0  0  0  0  0  0  0  0
  149.3734  134.2512  153.2185 H   0  0  0  0  0  0  0  0  0  0  0  0
  149.3611  131.6089  153.8364 H   0  0  0  0  0  0  0  0  0  0  0  0
  150.8417  132.5374  154.0918 H   0  0  0  0  0  0  0  0  0  0  0  0
  149.9833  133.6482  157.2956 H   0  0  0  0  0  0  0  0  0  0  0  0
  148.3183  133.3019  156.8160 H   0  0  0  0  0  0  0  0  0  0  0  0
  150.1715  137.8573  156.0335 H   0  0  0  0  0  0  0  0  0  0  0  0
  150.8757  136.6727  154.9614 H   0  0  0  0  0  0  0  0  0  0  0  0
  150.5296  138.1110  153.0050 H   0  0  0  0  0  0  0  0  0  0  0  0
  151.4777  138.9439  154.2024 H   0  0  0  0  0  0  0  0  0  0  0  0
  150.1232  143.9640  157.9746 H   0  0  0  0  0  0  0  0  0  0  0  0
  148.7677  136.5648  153.8082 H   0  0  0  0  0  0  0  0  0  0  0  0
  1  2  1  0  0  0  0
  1 25  1  0  0  0  0
  1 26  1  0  0  0  0
  1 27  1  0  0  0  0
  2 24  1  0  0  0  0
  2  3  2  0  0  0  0
  3  4  1  0  0  0  0
  3 28  1  0  0  0  0
  4  5  1  0  0  0  0
  4  6  2  0  0  0  0
  5 29  1  0  0  0  0
  5 30  1  0  0  0  0
  5 31  1  0  0  0  0
  6  7  1  0  0  0  0
  7  8  1  0  0  0  0
  7 24  2  0  0  0  0
  8  9  1  0  0  0  0
  8 32  1  0  0  0  0
  9 10  2  0  0  0  0
  9 11  1  0  0  0  0
 11 12  1  0  0  0  0
 11 33  1  0  0  0  0
 12 23  1  0  0  0  0
 12 13  1  0  0  0  0
 12 34  1  0  0  0  0
 13 14  1  0  0  0  0
 13 35  1  0  0  0  0
 13 36  1  0  0  0  0
 14 15  1  0  0  0  0
 14 37  1  0  0  0  0
 14 38  1  0  0  0  0
 15 16  1  0  0  0  0
 15 22  1  0  0  0  0
 15 53  1  0  0  0  0
 16 17  1  0  0  0  0
 16 39  1  0  0  0  0
 16 40  1  0  0  0  0
 17 21  1  0  0  0  0
 17 18  1  0  0  0  0
 17 41  1  0  0  0  0
 18 19  1  0  0  0  0
 18 42  1  0  0  0  0
 18 43  1  0  0  0  0
 19 20  1  0  0  0  0
 19 44  1  0  0  0  0
 19 45  1  0  0  0  0
 20 21  1  0  0  0  0
 21 46  1  0  0  0  0
 21 47  1  0  0  0  0
 22 23  1  0  0  0  0
 22 48  1  0  0  0  0
 22 49  1  0  0  0  0
 23 50  1  0  0  0  0
 23 51  1  0  0  0  0
 24 52  1  0  0  0  0
M  CHG  1  15   1
M  END
> <s_m_source_file>
AV-unprocessed.smi

> <i_m_source_file_index>
2379

> <i_lp_mmshare_version>
43012

> <i_f3d_flags>
0

> <s_epik_input>
W0NIM11jMVtjSF1jKFtDSDNdKW5jKFtjSF0xKVtOSF1DKD1PKVtOSF1bQ0hdMltDSDJdW0NIMl1OKFtDSDJdW0NIMl0yKVtDSDJdW0NAQEhdM1tDSDJdW0NIMl1PW0NIMl0z

> <s_epik_cmdline>
J2VwaWtfcHl0aG9uJywgJy1waCcsICc3LjAnLCAnLXRuJywgJzgnLCAnLW1hJywgJzIwMCcsICctbWV0YWxfYmluZGluZycsICctaW1hZScsICc8aW5maWxlLm1hZT4nLCAnLW9tYWUnLCAnPG91dGZpbGUubWFlPic=

> <r_epik_Ionization_Penalty>
0.00766556

> <r_epik_Ionization_Penalty_Charging>
0.00747775

> <r_epik_Ionization_Penalty_Neutral>
0.00018781

> <r_epik_State_Penalty>
0.00558817

> <r_epik_Charging_Adjusted_Penalty>
0.0130659

> <i_epik_Tot_Q>
1

> <i_epik_Tot_abs_Q>
1

> <r_epik_Metal_State_Penalty>
-0

> <b_epik_Metal_Only>
0

> <s_lp_Force_Field>
OPLS_2005

> <r_lp_Energy>
34.3762

> <b_lp_Chiralities_Consistent>
1

> <s_lp_Variant>
AV-unprocessed.smi:2379-3

> <Gold.Version>
5.8.1

> <Gold.Id.Protein>
6NUR|6NUR_protein|mol2

> <Gold.PLP.Fitness>
50.6009

> <Gold.PLP.PLP>
-43.7903

> <Gold.PLP.part.hbond>
-2.0000

> <Gold.PLP.part.metal>
0.0000

> <Gold.PLP.part.buried>
-3.3068

> <Gold.PLP.part.nonpolar>
-38.4157

> <Gold.PLP.part.repulsive>
0.1451

> <Gold.PLP.ligand.clash>
0.0000

> <Gold.PLP.ligand.torsion>
0.7442

> <Gold.PLP.Chemscore.Hbond>
2.7520

> <Gold.PLP.Chemscore.CHOScore>
0.0000

> <Gold.PLP.Chemscore.Metal>
0.0000

> <Gold.Chemscore.Hbonds>
donor molecule, donor type, donor heavy atom, donor atom, acceptor molecule, acceptor atom, score
      L1  H    15    53       P1  7948  2.00
      P1  H  7989  7998       L1    10  0.73

> <Gold.PLP.Chemscore.Internal.Correction>
0.0430

> <Gold.Rescore>
     Score         DG    S(hbond)    S(metal)    S(lipo)     H(rot)  DE(clash)    DE(int)     intcor
     17.62     -20.62       1.71        0.00     110.60       1.37       0.12       2.87       ----

> <Gold.Chemscore.Fitness>
17.6240

> <Gold.Chemscore.DG>
-20.6176

> <Gold.Chemscore.ZeroCoef>
-5.4800

> <Gold.Chemscore.Hbond>
1.7100

> <Gold.Chemscore.Metal>
0.0000

> <Gold.Chemscore.Lipo>
110.5972

> <Gold.Chemscore.Internal_Hbond>
0.0000

> <Gold.Chemscore.DEClash>
0.1221

> <Gold.Chemscore.DEInternal>
2.8716

> <Gold.Chemscore.Rot>
1.3725

> <Gold.Chemscore.Internal.Correction>
   9.000000E+99

> <Gold.Chemscore.Hbonds>
donor molecule, donor type, donor heavy atom, donor atom, acceptor molecule, acceptor atom, score
      L1  H    15    53       P1  7948  0.98
      P1  H  7989  7998       L1    10  0.20

> <Gold.Chemscore.Hbond.Weighted>
-5.7113

> <Gold.Chemscore.Metal.Weighted>
-0.0000

> <Gold.Chemscore.Lipo.Weighted>
-12.9399

> <Gold.Chemscore.Internal_Hbond.Weighted>
0.0000

> <Gold.Chemscore.DEClash.Weighted>
0.1221

> <Gold.Chemscore.DEInternal.Weighted>
2.8716

> <Gold.Chemscore.Rot.Weighted>
3.5136

> <Gold.Chemscore.Internal.Correction.Weighted>
   9.000000E+99

> <Gold.Protein.RotatedTorsions>
[ 6907 6896 6895 6894 ] final  -23.19 input  -60.11 | X-H torsion
[ 7974 7965 7964 7962 ] final   93.25 input  175.53 | X-H torsion
[ 8008 7997 7996 7995 ] final  135.18 input   59.86 | X-H torsion
[ 10167 10162 10161 10158 ] final  -27.82 input  -65.29 | X-H torsion
[ 10718 10713 10712 10709 ] final  170.15 input   66.30 | X-H torsion
[ 10763 10752 10751 10750 ] final  133.83 input  -60.55 | X-H torsion
[ 11005 11000 10999 10996 ] final   75.83 input  -57.11 | X-H torsion

> <Gold.Protein.ActiveResidues>
 VAL166  LYS551  ARG553  GLY616  TRP617  ASP618  TYR619  PRO620  LYS621  CYS622 
 ASP623  PHE694  ASN695  SER759  ASP760  ASP761  ALA762  ILE779  LEU786  VAL792 
 PHE793  MET794  SER795  GLU796  ALA797  LYS798  CYS799  TRP800  GLU811  SER814 

> <Gold.Protein.RotatedAtoms>
  151.2076  135.0468  159.8897 H   0  0  0  0  0  0  0  0  0  0  0  0  # atno 6907 bound_to 6896
  152.5427  134.0780  159.8233 H   0  0  0  0  0  0  0  0  0  0  0  0  # atno 6908 bound_to 6896
  151.0929  133.5254  159.2646 H   0  0  0  0  0  0  0  0  0  0  0  0  # atno 6909 bound_to 6896
  145.4814  139.2278  143.2880 H   0  0  0  0  0  0  0  0  0  0  0  0  # atno 7974 bound_to 7965
  156.3002  140.2477  156.3539 H   0  0  0  0  0  0  0  0  0  0  0  0  # atno 8008 bound_to 7997
  154.8940  140.0408  157.1874 H   0  0  0  0  0  0  0  0  0  0  0  0  # atno 8009 bound_to 7997
  154.8569  140.2914  155.5567 H   0  0  0  0  0  0  0  0  0  0  0  0  # atno 8010 bound_to 7997
  140.7274  143.4061  151.1183 H   0  0  0  0  0  0  0  0  0  0  0  0  # atno 10167 bound_to 10162
  157.0123  131.0208  151.2799 H   0  0  0  0  0  0  0  0  0  0  0  0  # atno 10718 bound_to 10713
  153.8135  135.3126  155.3403 H   0  0  0  0  0  0  0  0  0  0  0  0  # atno 10763 bound_to 10752
  154.8042  135.4708  154.0353 H   0  0  0  0  0  0  0  0  0  0  0  0  # atno 10764 bound_to 10752
  153.1738  135.6882  153.8659 H   0  0  0  0  0  0  0  0  0  0  0  0  # atno 10765 bound_to 10752
  139.9326  134.7550  156.1320 H   0  0  0  0  0  0  0  0  0  0  0  0  # atno 11005 bound_to 11000
  146.2338  140.5601  142.8963 LP  0  0  0  0  0  0  0  0  0  0  0  0  # atno 17320 bound_to 7965
  144.7887  140.5987  143.6556 LP  0  0  0  0  0  0  0  0  0  0  0  0  # atno 17321 bound_to 7965
  139.7688  143.8525  152.3116 LP  0  0  0  0  0  0  0  0  0  0  0  0  # atno 17342 bound_to 10162
  139.8437  144.7198  150.9300 LP  0  0  0  0  0  0  0  0  0  0  0  0  # atno 17343 bound_to 10162
  157.5311  130.8059  149.7918 LP  0  0  0  0  0  0  0  0  0  0  0  0  # atno 17370 bound_to 10713
  156.0132  130.3824  150.2197 LP  0  0  0  0  0  0  0  0  0  0  0  0  # atno 17371 bound_to 10713
  141.0922  133.6709  156.2566 LP  0  0  0  0  0  0  0  0  0  0  0  0  # atno 17394 bound_to 11000
  140.6162  134.5408  157.5541 LP  0  0  0  0  0  0  0  0  0  0  0  0  # atno 17395 bound_to 11000

$$$$
