AV-unprocessed.smi:906|AV-procd|sdf|4105|dock10
  -GOLD-   22720 2 03D 1   1.00000     0.00000
 Structure written by MMmdl.
 48 49  0  0  0  0  0  0  0  0  2 V2000
  152.4356  143.9993  161.6816 C   0  0  0  0  0  0  0  0  0  0  0  0
  152.0135  143.5884  160.2868 C   0  0  0  0  0  0  0  0  0  0  0  0
  152.0297  144.5142  159.2222 C   0  0  0  0  0  0  0  0  0  0  0  0
  151.6264  144.0757  157.9467 C   0  0  0  0  0  0  0  0  0  0  0  0
  151.2190  142.7351  157.7855 C   0  0  0  0  0  0  0  0  0  0  0  0
  150.7483  142.2149  156.4385 C   0  0  0  0  0  0  0  0  0  0  0  0
  150.0665  140.8357  156.5164 C   0  0  0  0  0  0  0  0  0  0  0  0
  148.8275  140.7914  155.7436 N   0  0  0  0  0  0  0  0  0  0  0  0
  148.7370  140.7524  154.4026 C   0  0  0  0  0  0  0  0  0  0  0  0
  149.7288  140.7692  153.6729 O   0  0  0  0  0  0  0  0  0  0  0  0
  147.4750  140.6035  153.9293 N   0  0  0  0  0  0  0  0  0  0  0  0
  147.0924  140.5079  152.5132 C   0  0  0  0  0  0  0  0  0  0  0  0
  146.7364  139.0453  152.1854 C   0  0  0  0  0  0  0  0  0  0  0  0
  145.6810  138.5238  153.0980 N   0  3  0  0  0  0  0  0  0  0  0  0
  145.2179  137.1490  152.7396 C   0  0  1  0  0  0  0  0  0  0  0  0
  146.2150  136.0406  153.1358 C   0  0  0  0  0  0  0  0  0  0  0  0
  143.7870  136.8709  153.2506 C   0  0  0  0  0  0  0  0  0  0  0  0
  142.9738  137.8577  152.8732 F   0  0  0  0  0  0  0  0  0  0  0  0
  143.3382  135.7343  152.7184 F   0  0  0  0  0  0  0  0  0  0  0  0
  143.7451  136.7600  154.5775 F   0  0  0  0  0  0  0  0  0  0  0  0
  146.0009  138.7463  154.5374 C   0  0  0  0  0  0  0  0  0  0  0  0
  146.3609  140.2190  154.8004 C   0  0  0  0  0  0  0  0  0  0  0  0
  151.2405  141.8905  158.9153 C   0  0  0  0  0  0  0  0  0  0  0  0
  151.6281  142.3016  160.1414 N   0  0  0  0  0  0  0  0  0  0  0  0
  152.7511  145.0426  161.7086 H   0  0  0  0  0  0  0  0  0  0  0  0
  153.2681  143.3836  162.0233 H   0  0  0  0  0  0  0  0  0  0  0  0
  151.6070  143.8757  162.3795 H   0  0  0  0  0  0  0  0  0  0  0  0
  152.3422  145.5364  159.3774 H   0  0  0  0  0  0  0  0  0  0  0  0
  151.6203  144.7605  157.1112 H   0  0  0  0  0  0  0  0  0  0  0  0
  150.0630  142.9388  155.9955 H   0  0  0  0  0  0  0  0  0  0  0  0
  151.6060  142.1615  155.7670 H   0  0  0  0  0  0  0  0  0  0  0  0
  150.7392  140.0747  156.1207 H   0  0  0  0  0  0  0  0  0  0  0  0
  149.8844  140.5654  157.5579 H   0  0  0  0  0  0  0  0  0  0  0  0
  147.9691  140.7467  156.2729 H   0  0  0  0  0  0  0  0  0  0  0  0
  146.2279  141.1497  152.3366 H   0  0  0  0  0  0  0  0  0  0  0  0
  147.8602  140.8578  151.8233 H   0  0  0  0  0  0  0  0  0  0  0  0
  146.3957  138.9836  151.1511 H   0  0  0  0  0  0  0  0  0  0  0  0
  147.6293  138.4236  152.2640 H   0  0  0  0  0  0  0  0  0  0  0  0
  145.1410  137.1258  151.6512 H   0  0  0  0  0  0  0  0  0  0  0  0
  145.9004  135.0777  152.7330 H   0  0  0  0  0  0  0  0  0  0  0  0
  146.2895  135.9258  154.2171 H   0  0  0  0  0  0  0  0  0  0  0  0
  147.2144  136.2403  152.7492 H   0  0  0  0  0  0  0  0  0  0  0  0
  145.1552  138.4710  155.1649 H   0  0  0  0  0  0  0  0  0  0  0  0
  146.8411  138.1190  154.8371 H   0  0  0  0  0  0  0  0  0  0  0  0
  146.5840  140.3687  155.8579 H   0  0  0  0  0  0  0  0  0  0  0  0
  145.5028  140.8586  154.5889 H   0  0  0  0  0  0  0  0  0  0  0  0
  150.9294  140.8594  158.8355 H   0  0  0  0  0  0  0  0  0  0  0  0
  144.8821  139.1143  152.9143 H   0  0  0  0  0  0  0  0  0  0  0  0
  1  2  1  0  0  0  0
  1 25  1  0  0  0  0
  1 26  1  0  0  0  0
  1 27  1  0  0  0  0
  2 24  1  0  0  0  0
  2  3  2  0  0  0  0
  3  4  1  0  0  0  0
  3 28  1  0  0  0  0
  4  5  2  0  0  0  0
  4 29  1  0  0  0  0
  5  6  1  0  0  0  0
  5 23  1  0  0  0  0
  6  7  1  0  0  0  0
  6 30  1  0  0  0  0
  6 31  1  0  0  0  0
  7  8  1  0  0  0  0
  7 32  1  0  0  0  0
  7 33  1  0  0  0  0
  8  9  1  0  0  0  0
  8 34  1  0  0  0  0
  9 10  2  0  0  0  0
  9 11  1  0  0  0  0
 11 22  1  0  0  0  0
 11 12  1  0  0  0  0
 12 13  1  0  0  0  0
 12 35  1  0  0  0  0
 12 36  1  0  0  0  0
 13 14  1  0  0  0  0
 13 37  1  0  0  0  0
 13 38  1  0  0  0  0
 14 15  1  0  0  0  0
 14 21  1  0  0  0  0
 14 48  1  0  0  0  0
 15 16  1  0  0  0  0
 15 17  1  0  0  0  0
 15 39  1  0  0  0  0
 16 40  1  0  0  0  0
 16 41  1  0  0  0  0
 16 42  1  0  0  0  0
 17 18  1  0  0  0  0
 17 19  1  0  0  0  0
 17 20  1  0  0  0  0
 21 22  1  0  0  0  0
 21 43  1  0  0  0  0
 21 44  1  0  0  0  0
 22 45  1  0  0  0  0
 22 46  1  0  0  0  0
 23 24  2  0  0  0  0
 23 47  1  0  0  0  0
M  CHG  1  14   1
M  END
> <s_m_source_file>
AV-unprocessed.smi

> <i_m_source_file_index>
906

> <i_lp_mmshare_version>
43012

> <i_f3d_flags>
0

> <s_epik_input>
W0NIM11jMVtjSF1bY0hdYyhbY0hdbjEpW0NIMl1bQ0gyXVtOSF1DKD1PKU4yW0NIMl1bQ0gyXU4oW0NASF0oW0NIM10pQyhGKShGKUYpW0NIMl1bQ0gyXTI=

> <s_epik_cmdline>
J2VwaWtfcHl0aG9uJywgJy1waCcsICc3LjAnLCAnLXRuJywgJzgnLCAnLW1hJywgJzIwMCcsICctbWV0YWxfYmluZGluZycsICctaW1hZScsICc8aW5maWxlLm1hZT4nLCAnLW9tYWUnLCAnPG91dGZpbGUubWFlPic=

> <r_epik_Ionization_Penalty>
2.02136

> <r_epik_Ionization_Penalty_Charging>
1.96814

> <r_epik_Ionization_Penalty_Neutral>
0.0532286

> <r_epik_State_Penalty>
2.14285

> <r_epik_Charging_Adjusted_Penalty>
4.11098

> <i_epik_Tot_Q>
1

> <i_epik_Tot_abs_Q>
1

> <r_epik_Metal_State_Penalty>
2.1406

> <b_epik_Metal_Only>
0

> <s_lp_Force_Field>
OPLS_2005

> <r_lp_Energy>
51.1917

> <b_lp_Chiralities_Consistent>
1

> <s_lp_Variant>
AV-unprocessed.smi:906-6

> <Gold.Version>
5.8.1

> <Gold.Id.Protein>
6NUR|6NUR_protein|mol2

> <Gold.PLP.Fitness>
47.6409

> <Gold.PLP.PLP>
-40.8047

> <Gold.PLP.part.hbond>
-3.7006

> <Gold.PLP.part.metal>
0.0000

> <Gold.PLP.part.buried>
1.7350

> <Gold.PLP.part.nonpolar>
-40.0910

> <Gold.PLP.part.repulsive>
3.5293

> <Gold.PLP.ligand.clash>
1.7270

> <Gold.PLP.ligand.torsion>
0.8930

> <Gold.PLP.Chemscore.Hbond>
3.1958

> <Gold.PLP.Chemscore.CHOScore>
0.0000

> <Gold.PLP.Chemscore.Metal>
0.0000

> <Gold.Chemscore.Hbonds>
donor molecule, donor type, donor heavy atom, donor atom, acceptor molecule, acceptor atom, score
      L1  H    14    48       P1 10175  2.00
      P1  H  7989  7998       L1    10  0.43
      P1  H  8011  8017       L1    10  0.78

> <Gold.PLP.Chemscore.Internal.Correction>
0.7619

> <Gold.Rescore>
     Score         DG    S(hbond)    S(metal)    S(lipo)     H(rot)  DE(clash)    DE(int)     intcor
     17.85     -21.97       2.22        0.00     113.06       1.62       2.91       1.21       ----

> <Gold.Chemscore.Fitness>
17.8480

> <Gold.Chemscore.DG>
-21.9682

> <Gold.Chemscore.ZeroCoef>
-5.4800

> <Gold.Chemscore.Hbond>
2.2156

> <Gold.Chemscore.Metal>
0.0000

> <Gold.Chemscore.Lipo>
113.0575

> <Gold.Chemscore.Internal_Hbond>
0.0000

> <Gold.Chemscore.DEClash>
2.9091

> <Gold.Chemscore.DEInternal>
1.2111

> <Gold.Chemscore.Rot>
1.6171

> <Gold.Chemscore.Internal.Correction>
   9.000000E+99

> <Gold.Chemscore.Hbonds>
donor molecule, donor type, donor heavy atom, donor atom, acceptor molecule, acceptor atom, score
      L1  H    14    48       P1 10175  1.00
      P1  H  7989  7998       L1    10  0.44
      P1  H  8011  8017       L1    10  0.67

> <Gold.Chemscore.Hbond.Weighted>
-7.4002

> <Gold.Chemscore.Metal.Weighted>
-0.0000

> <Gold.Chemscore.Lipo.Weighted>
-13.2277

> <Gold.Chemscore.Internal_Hbond.Weighted>
0.0000

> <Gold.Chemscore.DEClash.Weighted>
2.9091

> <Gold.Chemscore.DEInternal.Weighted>
1.2111

> <Gold.Chemscore.Rot.Weighted>
4.1398

> <Gold.Chemscore.Internal.Correction.Weighted>
   9.000000E+99

> <Gold.Protein.RotatedTorsions>
[ 6907 6896 6895 6894 ] final   53.66 input  -60.11 | X-H torsion
[ 7974 7965 7964 7962 ] final -155.11 input  175.53 | X-H torsion
[ 8008 7997 7996 7995 ] final -153.77 input   59.86 | X-H torsion
[ 10167 10162 10161 10158 ] final   53.51 input  -65.29 | X-H torsion
[ 10718 10713 10712 10709 ] final -139.03 input   66.30 | X-H torsion
[ 10763 10752 10751 10750 ] final  -82.86 input  -60.55 | X-H torsion
[ 11005 11000 10999 10996 ] final  127.68 input  -57.11 | X-H torsion

> <Gold.Protein.ActiveResidues>
 VAL166  LYS551  ARG553  GLY616  TRP617  ASP618  TYR619  PRO620  LYS621  CYS622 
 ASP623  PHE694  ASN695  SER759  ASP760  ASP761  ALA762  ILE779  LEU786  VAL792 
 PHE793  MET794  SER795  GLU796  ALA797  LYS798  CYS799  TRP800  GLU811  SER814 

> <Gold.Protein.RotatedAtoms>
  152.3359  134.7198  160.0276 H   0  0  0  0  0  0  0  0  0  0  0  0  # atno 6907 bound_to 6896
  151.7599  133.3327  159.3423 H   0  0  0  0  0  0  0  0  0  0  0  0  # atno 6908 bound_to 6896
  150.7450  134.6047  159.6099 H   0  0  0  0  0  0  0  0  0  0  0  0  # atno 6909 bound_to 6896
  144.7656  140.4294  143.5944 H   0  0  0  0  0  0  0  0  0  0  0  0  # atno 7974 bound_to 7965
  155.6760  140.0739  157.2502 H   0  0  0  0  0  0  0  0  0  0  0  0  # atno 8008 bound_to 7997
  154.4114  140.1690  156.1982 H   0  0  0  0  0  0  0  0  0  0  0  0  # atno 8009 bound_to 7997
  155.9576  140.3372  155.6465 H   0  0  0  0  0  0  0  0  0  0  0  0  # atno 8010 bound_to 7997
  140.2400  144.3594  150.6383 H   0  0  0  0  0  0  0  0  0  0  0  0  # atno 10167 bound_to 10162
  156.3061  130.7456  151.1520 H   0  0  0  0  0  0  0  0  0  0  0  0  # atno 10718 bound_to 10713
  154.5809  135.5576  153.7184 H   0  0  0  0  0  0  0  0  0  0  0  0  # atno 10763 bound_to 10752
  153.0081  135.6320  154.1984 H   0  0  0  0  0  0  0  0  0  0  0  0  # atno 10764 bound_to 10752
  154.1925  135.2881  155.2997 H   0  0  0  0  0  0  0  0  0  0  0  0  # atno 10765 bound_to 10752
  139.9520  134.9620  156.8890 H   0  0  0  0  0  0  0  0  0  0  0  0  # atno 11005 bound_to 11000
  145.6481  139.1560  143.2877 LP  0  0  0  0  0  0  0  0  0  0  0  0  # atno 17320 bound_to 7965
  146.1760  140.6572  142.9211 LP  0  0  0  0  0  0  0  0  0  0  0  0  # atno 17321 bound_to 7965
  140.6121  143.2170  151.6866 LP  0  0  0  0  0  0  0  0  0  0  0  0  # atno 17342 bound_to 10162
  139.5080  144.3625  152.0548 LP  0  0  0  0  0  0  0  0  0  0  0  0  # atno 17343 bound_to 10162
  157.7380  131.0546  150.5322 LP  0  0  0  0  0  0  0  0  0  0  0  0  # atno 17370 bound_to 10713
  156.5455  130.4218  149.6133 LP  0  0  0  0  0  0  0  0  0  0  0  0  # atno 17371 bound_to 10713
  140.5697  134.0455  155.7426 LP  0  0  0  0  0  0  0  0  0  0  0  0  # atno 17394 bound_to 11000
  141.1185  133.9501  157.2777 LP  0  0  0  0  0  0  0  0  0  0  0  0  # atno 17395 bound_to 11000

$$$$
