AV-unprocessed.smi:1304|AV-procd|sdf|5430|dock2
  -GOLD-   22720 4593D 1   1.00000     0.00000
 Structure written by MMmdl.
 47 48  0  0  0  0  0  0  0  0  1 V2000
  152.0278  138.1506  154.9765 C   0  0  0  0  0  0  0  0  0  0  0  0
  150.5394  138.5394  154.9944 C   0  0  0  0  0  0  0  0  0  0  0  0
  150.1539  139.6726  156.0022 C   0  0  2  0  0  0  0  0  0  0  0  0
  151.2972  140.7208  155.9484 C   0  0  0  0  0  0  0  0  0  0  0  0
  150.1328  139.0694  157.4441 C   0  0  0  0  0  0  0  0  0  0  0  0
  149.1936  137.9646  157.5897 N   0  0  0  0  0  0  0  0  0  0  0  0
  148.9676  137.2731  158.7167 C   0  0  0  0  0  0  0  0  0  0  0  0
  149.5832  137.4804  159.7612 O   0  0  0  0  0  0  0  0  0  0  0  0
  147.8790  136.1857  158.6844 C   0  0  0  0  0  0  0  0  0  0  0  0
  147.6445  135.5152  159.9772 N   0  0  0  0  0  0  0  0  0  0  0  0
  147.7000  134.1071  159.9868 C   0  0  0  0  0  0  0  0  0  0  0  0
  147.4755  133.3950  161.1023 C   0  0  0  0  0  0  0  0  0  0  0  0
  147.1723  134.1104  162.3190 C   0  0  0  0  0  0  0  0  0  0  0  0
  147.1140  135.4570  162.3208 C   0  0  0  0  0  0  0  0  0  0  0  0
  147.3523  136.2391  161.1023 C   0  0  0  0  0  0  0  0  0  0  0  0
  147.2813  137.4679  161.0906 O   0  0  0  0  0  0  0  0  0  0  0  0
  148.8253  140.2676  155.6679 N   0  0  0  0  0  0  0  0  0  0  0  0
  148.3038  141.2216  156.6563 C   0  0  0  0  0  0  0  0  0  0  0  0
  146.8844  141.7049  156.3123 C   0  0  0  0  0  0  0  0  0  0  0  0
  146.8730  142.2776  155.0113 O   0  0  0  0  0  0  0  0  0  0  0  0
  147.3034  141.3588  154.0157 C   0  0  0  0  0  0  0  0  0  0  0  0
  148.7292  140.8795  154.3353 C   0  0  0  0  0  0  0  0  0  0  0  0
  152.1980  137.3264  154.2841 H   0  0  0  0  0  0  0  0  0  0  0  0
  152.3729  137.8289  155.9591 H   0  0  0  0  0  0  0  0  0  0  0  0
  152.6575  138.9789  154.6522 H   0  0  0  0  0  0  0  0  0  0  0  0
  150.2544  138.8172  153.9794 H   0  0  0  0  0  0  0  0  0  0  0  0
  149.9448  137.6457  155.1781 H   0  0  0  0  0  0  0  0  0  0  0  0
  152.2660  140.2687  156.1633 H   0  0  0  0  0  0  0  0  0  0  0  0
  151.1578  141.5184  156.6780 H   0  0  0  0  0  0  0  0  0  0  0  0
  151.3873  141.1829  154.9661 H   0  0  0  0  0  0  0  0  0  0  0  0
  151.1114  138.6750  157.7179 H   0  0  0  0  0  0  0  0  0  0  0  0
  149.8932  139.8436  158.1749 H   0  0  0  0  0  0  0  0  0  0  0  0
  148.6475  137.7279  156.7742 H   0  0  0  0  0  0  0  0  0  0  0  0
  146.9561  136.6440  158.3265 H   0  0  0  0  0  0  0  0  0  0  0  0
  148.1432  135.4525  157.9205 H   0  0  0  0  0  0  0  0  0  0  0  0
  147.9251  133.6492  159.0342 H   0  0  0  0  0  0  0  0  0  0  0  0
  147.5171  132.3157  161.0893 H   0  0  0  0  0  0  0  0  0  0  0  0
  146.9907  133.5635  163.2326 H   0  0  0  0  0  0  0  0  0  0  0  0
  146.8849  135.9753  163.2403 H   0  0  0  0  0  0  0  0  0  0  0  0
  148.2591  140.7748  157.6472 H   0  0  0  0  0  0  0  0  0  0  0  0
  148.9610  142.0884  156.7269 H   0  0  0  0  0  0  0  0  0  0  0  0
  146.1722  140.8798  156.3615 H   0  0  0  0  0  0  0  0  0  0  0  0
  146.5561  142.4543  157.0326 H   0  0  0  0  0  0  0  0  0  0  0  0
  146.6137  140.5146  153.9648 H   0  0  0  0  0  0  0  0  0  0  0  0
  147.2791  141.8507  153.0432 H   0  0  0  0  0  0  0  0  0  0  0  0
  149.4086  141.7281  154.2579 H   0  0  0  0  0  0  0  0  0  0  0  0
  149.0117  140.1733  153.5576 H   0  0  0  0  0  0  0  0  0  0  0  0
  1  2  1  0  0  0  0
  1 23  1  0  0  0  0
  1 24  1  0  0  0  0
  1 25  1  0  0  0  0
  2  3  1  0  0  0  0
  2 26  1  0  0  0  0
  2 27  1  0  0  0  0
  3  4  1  0  0  0  0
  3  5  1  0  0  0  0
  3 17  1  0  0  0  0
  4 28  1  0  0  0  0
  4 29  1  0  0  0  0
  4 30  1  0  0  0  0
  5  6  1  0  0  0  0
  5 31  1  0  0  0  0
  5 32  1  0  0  0  0
  6  7  1  0  0  0  0
  6 33  1  0  0  0  0
  7  8  2  0  0  0  0
  7  9  1  0  0  0  0
  9 10  1  0  0  0  0
  9 34  1  0  0  0  0
  9 35  1  0  0  0  0
 10 15  1  0  0  0  0
 10 11  1  0  0  0  0
 11 12  2  0  0  0  0
 11 36  1  0  0  0  0
 12 13  1  0  0  0  0
 12 37  1  0  0  0  0
 13 14  2  0  0  0  0
 13 38  1  0  0  0  0
 14 15  1  0  0  0  0
 14 39  1  0  0  0  0
 15 16  2  0  0  0  0
 17 22  1  0  0  0  0
 17 18  1  0  0  0  0
 18 19  1  0  0  0  0
 18 40  1  0  0  0  0
 18 41  1  0  0  0  0
 19 20  1  0  0  0  0
 19 42  1  0  0  0  0
 19 43  1  0  0  0  0
 20 21  1  0  0  0  0
 21 22  1  0  0  0  0
 21 44  1  0  0  0  0
 21 45  1  0  0  0  0
 22 46  1  0  0  0  0
 22 47  1  0  0  0  0
M  END
> <s_m_source_file>
AV-unprocessed.smi

> <i_m_source_file_index>
1304

> <i_lp_mmshare_version>
43012

> <i_f3d_flags>
0

> <s_epik_input>
W0NIMl0xW0NIMl1PW0NIMl1bQ0gyXU4xW0NAQF0oW0NIM10pKFtDSDJdW0NIM10pW0NIMl1bTkhdQyg9TylbQ0gyXW4yW2NIXVtjSF1bY0hdW2NIXWMyPU8=

> <s_epik_cmdline>
J2VwaWtfcHl0aG9uJywgJy1waCcsICc3LjAnLCAnLXRuJywgJzgnLCAnLW1hJywgJzIwMCcsICctbWV0YWxfYmluZGluZycsICctaW1hZScsICc8aW5maWxlLm1hZT4nLCAnLW9tYWUnLCAnPG91dGZpbGUubWFlPic=

> <r_lp_tautomer_probability>
1

> <r_epik_Ionization_Penalty>
0.318667

> <r_epik_Ionization_Penalty_Charging>
3.55364e-07

> <r_epik_Ionization_Penalty_Neutral>
0.318667

> <r_epik_State_Penalty>
0.313095

> <r_epik_Charging_Adjusted_Penalty>
0.313095

> <i_epik_Tot_Q>
0

> <i_epik_Tot_abs_Q>
0

> <r_epik_Metal_State_Penalty>
0.313065

> <b_epik_Metal_Only>
0

> <s_lp_Force_Field>
OPLS_2005

> <r_lp_Energy>
51.8872

> <b_lp_Chiralities_Consistent>
1

> <s_lp_Variant>
AV-unprocessed.smi:1304-2

> <Gold.Version>
5.8.1

> <Gold.Id.Protein>
6NUR|6NUR_protein|mol2

> <Gold.PLP.Fitness>
43.3647

> <Gold.PLP.PLP>
-38.6393

> <Gold.PLP.part.hbond>
-3.0000

> <Gold.PLP.part.metal>
0.0000

> <Gold.PLP.part.buried>
-5.3906

> <Gold.PLP.part.nonpolar>
-30.8440

> <Gold.PLP.part.repulsive>
0.2581

> <Gold.PLP.ligand.clash>
0.0000

> <Gold.PLP.ligand.torsion>
0.3327

> <Gold.PLP.Chemscore.Hbond>
1.7600

> <Gold.PLP.Chemscore.CHOScore>
0.0000

> <Gold.PLP.Chemscore.Metal>
0.0000

> <Gold.Chemscore.Hbonds>
donor molecule, donor type, donor heavy atom, donor atom, acceptor molecule, acceptor atom, score
      P1  H  6931  6943       L1    16  0.62
      P1  H  6934  6947       L1    16  1.00

> <Gold.PLP.Chemscore.Internal.Correction>
0.1108

> <Gold.Rescore>
     Score         DG    S(hbond)    S(metal)    S(lipo)     H(rot)  DE(clash)    DE(int)     intcor
     18.17     -18.90       2.73        0.00      79.52       1.95       0.18       0.55       ----

> <Gold.Chemscore.Fitness>
18.1714

> <Gold.Chemscore.DG>
-18.8984

> <Gold.Chemscore.ZeroCoef>
-5.4800

> <Gold.Chemscore.Hbond>
2.7276

> <Gold.Chemscore.Metal>
0.0000

> <Gold.Chemscore.Lipo>
79.5219

> <Gold.Chemscore.Internal_Hbond>
0.0000

> <Gold.Chemscore.DEClash>
0.1761

> <Gold.Chemscore.DEInternal>
0.5509

> <Gold.Chemscore.Rot>
1.9515

> <Gold.Chemscore.Internal.Correction>
   9.000000E+99

> <Gold.Chemscore.Hbonds>
donor molecule, donor type, donor heavy atom, donor atom, acceptor molecule, acceptor atom, score
      P1  H  6931  6943       L1    16  0.45
      P1  H  6934  6947       L1    16  0.94

> <Gold.Chemscore.Hbond.Weighted>
-9.1102

> <Gold.Chemscore.Metal.Weighted>
-0.0000

> <Gold.Chemscore.Lipo.Weighted>
-9.3041

> <Gold.Chemscore.Internal_Hbond.Weighted>
0.0000

> <Gold.Chemscore.DEClash.Weighted>
0.1761

> <Gold.Chemscore.DEInternal.Weighted>
0.5509

> <Gold.Chemscore.Rot.Weighted>
4.9958

> <Gold.Chemscore.Internal.Correction.Weighted>
   9.000000E+99

> <Gold.Protein.RotatedTorsions>
[ 6907 6896 6895 6894 ] final  -32.81 input  -60.11 | X-H torsion
[ 7974 7965 7964 7962 ] final -126.66 input  175.53 | X-H torsion
[ 8008 7997 7996 7995 ] final  -12.57 input   59.86 | X-H torsion
[ 10167 10162 10161 10158 ] final   38.64 input  -65.29 | X-H torsion
[ 10718 10713 10712 10709 ] final  -40.33 input   66.30 | X-H torsion
[ 10763 10752 10751 10750 ] final    9.89 input  -60.55 | X-H torsion
[ 11005 11000 10999 10996 ] final  172.02 input  -57.11 | X-H torsion

> <Gold.Protein.ActiveResidues>
 VAL166  LYS551  ARG553  GLY616  TRP617  ASP618  TYR619  PRO620  LYS621  CYS622 
 ASP623  PHE694  ASN695  SER759  ASP760  ASP761  ALA762  ILE779  LEU786  VAL792 
 PHE793  MET794  SER795  GLU796  ALA797  LYS798  CYS799  TRP800  GLU811  SER814 

> <Gold.Protein.RotatedAtoms>
  151.0738  134.9815  159.8321 H   0  0  0  0  0  0  0  0  0  0  0  0  # atno 6907 bound_to 6896
  152.5411  134.2266  159.8818 H   0  0  0  0  0  0  0  0  0  0  0  0  # atno 6908 bound_to 6896
  151.2292  133.4416  159.2637 H   0  0  0  0  0  0  0  0  0  0  0  0  # atno 6909 bound_to 6896
  144.9850  140.7677  143.4589 H   0  0  0  0  0  0  0  0  0  0  0  0  # atno 7974 bound_to 7965
  154.5366  140.2273  155.8712 H   0  0  0  0  0  0  0  0  0  0  0  0  # atno 8008 bound_to 7997
  156.1818  140.3098  155.9125 H   0  0  0  0  0  0  0  0  0  0  0  0  # atno 8009 bound_to 7997
  155.3342  140.0447  157.3034 H   0  0  0  0  0  0  0  0  0  0  0  0  # atno 8010 bound_to 7997
  140.3917  144.1844  150.6131 H   0  0  0  0  0  0  0  0  0  0  0  0  # atno 10167 bound_to 10162
  156.2825  130.4219  149.8322 H   0  0  0  0  0  0  0  0  0  0  0  0  # atno 10718 bound_to 10713
  153.2091  135.6866  153.8136 H   0  0  0  0  0  0  0  0  0  0  0  0  # atno 10763 bound_to 10752
  153.7375  135.3243  155.3299 H   0  0  0  0  0  0  0  0  0  0  0  0  # atno 10764 bound_to 10752
  154.8212  135.4650  154.0891 H   0  0  0  0  0  0  0  0  0  0  0  0  # atno 10765 bound_to 10752
  140.3252  134.7404  157.4093 H   0  0  0  0  0  0  0  0  0  0  0  0  # atno 11005 bound_to 11000
  145.2367  139.2090  143.5014 LP  0  0  0  0  0  0  0  0  0  0  0  0  # atno 17320 bound_to 7965
  146.3417  140.2254  142.8592 LP  0  0  0  0  0  0  0  0  0  0  0  0  # atno 17321 bound_to 7965
  140.4833  143.2372  151.8924 LP  0  0  0  0  0  0  0  0  0  0  0  0  # atno 17342 bound_to 10162
  139.4789  144.5246  151.8753 LP  0  0  0  0  0  0  0  0  0  0  0  0  # atno 17343 bound_to 10162
  156.5764  130.8447  151.3371 LP  0  0  0  0  0  0  0  0  0  0  0  0  # atno 17370 bound_to 10713
  157.7319  130.9706  150.1901 LP  0  0  0  0  0  0  0  0  0  0  0  0  # atno 17371 bound_to 10713
  140.0908  134.5604  155.8446 LP  0  0  0  0  0  0  0  0  0  0  0  0  # atno 17394 bound_to 11000
  141.2077  133.6666  156.6322 LP  0  0  0  0  0  0  0  0  0  0  0  0  # atno 17395 bound_to 11000

$$$$
