AV-unprocessed.smi:3148|AV-procd|sdf|11998|dock1
  -GOLD-   2272017403D 1   1.00000     0.00000
 Structure written by MMmdl.
 35 37  0  0  0  0  0  0  0  0  2 V2000
  153.8322  141.2448  160.7372 C   0  0  0  0  0  0  0  0  0  0  0  0
  152.8769  140.8242  159.7690 O   0  0  0  0  0  0  0  0  0  0  0  0
  152.2240  141.7907  159.0319 C   0  0  0  0  0  0  0  0  0  0  0  0
  152.4890  143.1476  159.2789 C   0  0  0  0  0  0  0  0  0  0  0  0
  151.7914  144.0888  158.4973 C   0  0  0  0  0  0  0  0  0  0  0  0
  151.9836  145.5801  158.6715 C   0  0  0  0  0  0  0  0  0  0  0  0
  150.9102  143.6705  157.5547 N   0  3  0  0  0  0  0  0  0  0  0  0
  150.7009  142.3588  157.3688 C   0  0  0  0  0  0  0  0  0  0  0  0
  149.7854  141.9871  156.4010 N   0  0  0  0  0  0  0  0  0  0  0  0
  149.4501  140.6050  156.0824 C   0  0  1  0  0  0  0  0  0  0  0  0
  148.8505  140.4424  154.6795 C   0  0  0  0  0  0  0  0  0  0  0  0
  149.8038  139.4222  154.0451 C   0  0  2  0  0  0  0  0  0  0  0  0
  149.6631  138.0280  154.6712 C   0  0  0  0  0  0  0  0  0  0  0  0
  150.3252  138.2292  156.0339 C   0  0  0  0  0  0  0  0  0  0  0  0
  150.7012  139.7165  155.9870 C   0  0  1  0  0  0  0  0  0  0  0  0
  151.0312  139.8434  154.6133 O   0  0  0  0  0  0  0  0  0  0  0  0
  151.3354  141.4176  158.0817 N   0  0  0  0  0  0  0  0  0  0  0  0
  154.2614  140.3695  161.2245 H   0  0  0  0  0  0  0  0  0  0  0  0
  153.3722  141.8616  161.5107 H   0  0  0  0  0  0  0  0  0  0  0  0
  154.6502  141.8007  160.2760 H   0  0  0  0  0  0  0  0  0  0  0  0
  153.1962  143.4506  160.0373 H   0  0  0  0  0  0  0  0  0  0  0  0
  152.7894  145.7939  159.3743 H   0  0  0  0  0  0  0  0  0  0  0  0
  151.0693  146.0368  159.0512 H   0  0  0  0  0  0  0  0  0  0  0  0
  152.2320  146.0468  157.7179 H   0  0  0  0  0  0  0  0  0  0  0  0
  149.2162  142.7156  155.9950 H   0  0  0  0  0  0  0  0  0  0  0  0
  148.7771  140.2198  156.8498 H   0  0  0  0  0  0  0  0  0  0  0  0
  147.8186  140.0906  154.7022 H   0  0  0  0  0  0  0  0  0  0  0  0
  148.8749  141.3778  154.1179 H   0  0  0  0  0  0  0  0  0  0  0  0
  149.7898  139.4225  152.9549 H   0  0  0  0  0  0  0  0  0  0  0  0
  148.6222  137.7121  154.7471 H   0  0  0  0  0  0  0  0  0  0  0  0
  150.2057  137.2824  154.0890 H   0  0  0  0  0  0  0  0  0  0  0  0
  149.6631  137.9909  156.8670 H   0  0  0  0  0  0  0  0  0  0  0  0
  151.2175  137.6078  156.1198 H   0  0  0  0  0  0  0  0  0  0  0  0
  151.5035  139.9846  156.6755 H   0  0  0  0  0  0  0  0  0  0  0  0
  150.4091  144.3624  156.9969 H   0  0  0  0  0  0  0  0  0  0  0  0
  1  2  1  0  0  0  0
  1 18  1  0  0  0  0
  1 19  1  0  0  0  0
  1 20  1  0  0  0  0
  2  3  1  0  0  0  0
  3 17  1  0  0  0  0
  3  4  2  0  0  0  0
  4  5  1  0  0  0  0
  4 21  1  0  0  0  0
  5  6  1  0  0  0  0
  5  7  2  0  0  0  0
  6 22  1  0  0  0  0
  6 23  1  0  0  0  0
  6 24  1  0  0  0  0
  7  8  1  0  0  0  0
  7 35  1  0  0  0  0
  8  9  1  0  0  0  0
  8 17  2  0  0  0  0
  9 10  1  0  0  0  0
  9 25  1  0  0  0  0
 10 15  1  0  0  0  0
 10 11  1  0  0  0  0
 10 26  1  0  0  0  0
 11 12  1  0  0  0  0
 11 27  1  0  0  0  0
 11 28  1  0  0  0  0
 12 16  1  0  0  0  0
 12 13  1  0  0  0  0
 12 29  1  0  0  0  0
 13 14  1  0  0  0  0
 13 30  1  0  0  0  0
 13 31  1  0  0  0  0
 14 15  1  0  0  0  0
 14 32  1  0  0  0  0
 14 33  1  0  0  0  0
 15 16  1  0  0  0  0
 15 34  1  0  0  0  0
M  CHG  1   7   1
M  END
> <s_m_source_file>
AV-unprocessed.smi

> <i_m_source_file_index>
3148

> <i_lp_mmshare_version>
43012

> <i_f3d_flags>
0

> <s_epik_input>
W0NIM11PYzFbY0hdYyhbQ0gzXSluYyhuMSlbTkhdW0NASF0oW0NIMl1bQ0BASF0yMylbQ0BASF0oTzMpW0NIMl1bQ0gyXTI=

> <s_epik_cmdline>
J2VwaWtfcHl0aG9uJywgJy1waCcsICc3LjAnLCAnLXRuJywgJzgnLCAnLW1hJywgJzIwMCcsICctbWV0YWxfYmluZGluZycsICctaW1hZScsICc8aW5maWxlLm1hZT4nLCAnLW9tYWUnLCAnPG91dGZpbGUubWFlPic=

> <r_lp_tautomer_probability>
0.999985

> <r_epik_Ionization_Penalty>
1.09461

> <r_epik_Ionization_Penalty_Charging>
1.0946

> <r_epik_Ionization_Penalty_Neutral>
6.69406e-06

> <r_epik_State_Penalty>
1.15119

> <r_epik_Charging_Adjusted_Penalty>
2.24579

> <i_epik_Tot_Q>
1

> <i_epik_Tot_abs_Q>
1

> <r_epik_Metal_State_Penalty>
1.2392

> <b_epik_Metal_Only>
0

> <s_lp_Force_Field>
OPLS_2005

> <r_lp_Energy>
35.8621

> <b_lp_Chiralities_Consistent>
1

> <s_lp_Variant>
AV-unprocessed.smi:3148-8

> <Gold.Version>
5.8.1

> <Gold.Id.Protein>
6NUR|6NUR_protein|mol2

> <Gold.PLP.Fitness>
45.1013

> <Gold.PLP.PLP>
-31.0539

> <Gold.PLP.part.hbond>
-3.0000

> <Gold.PLP.part.metal>
0.0000

> <Gold.PLP.part.buried>
-2.8951

> <Gold.PLP.part.nonpolar>
-26.2186

> <Gold.PLP.part.repulsive>
0.1572

> <Gold.PLP.ligand.clash>
0.0726

> <Gold.PLP.ligand.torsion>
0.2567

> <Gold.PLP.Chemscore.Hbond>
4.8715

> <Gold.PLP.Chemscore.CHOScore>
0.0000

> <Gold.PLP.Chemscore.Metal>
0.0000

> <Gold.Chemscore.Hbonds>
donor molecule, donor type, donor heavy atom, donor atom, acceptor molecule, acceptor atom, score
      L1  H     7    35       P1  8028  1.92
      L1  H     9    25       P1  8028  1.84
      P1  H  7989  7998       L1    16  1.00

> <Gold.PLP.Chemscore.Internal.Correction>
0.0189

> <Gold.Rescore>
     Score         DG    S(hbond)    S(metal)    S(lipo)     H(rot)  DE(clash)    DE(int)     intcor
     17.93     -20.07       2.58        0.00      77.99       1.24       0.52       1.63       ----

> <Gold.Chemscore.Fitness>
17.9276

> <Gold.Chemscore.DG>
-20.0688

> <Gold.Chemscore.ZeroCoef>
-5.4800

> <Gold.Chemscore.Hbond>
2.5845

> <Gold.Chemscore.Metal>
0.0000

> <Gold.Chemscore.Lipo>
77.9887

> <Gold.Chemscore.Internal_Hbond>
0.0000

> <Gold.Chemscore.DEClash>
0.5160

> <Gold.Chemscore.DEInternal>
1.6253

> <Gold.Chemscore.Rot>
1.2376

> <Gold.Chemscore.Internal.Correction>
   9.000000E+99

> <Gold.Chemscore.Hbonds>
donor molecule, donor type, donor heavy atom, donor atom, acceptor molecule, acceptor atom, score
      L1  H     7    35       P1  8028  0.76
      L1  H     9    25       P1  8028  0.83
      P1  H  7989  7998       L1    16  0.39

> <Gold.Chemscore.Hbond.Weighted>
-8.6322

> <Gold.Chemscore.Metal.Weighted>
-0.0000

> <Gold.Chemscore.Lipo.Weighted>
-9.1247

> <Gold.Chemscore.Internal_Hbond.Weighted>
0.0000

> <Gold.Chemscore.DEClash.Weighted>
0.5160

> <Gold.Chemscore.DEInternal.Weighted>
1.6253

> <Gold.Chemscore.Rot.Weighted>
3.1681

> <Gold.Chemscore.Internal.Correction.Weighted>
   9.000000E+99

> <Gold.Protein.RotatedTorsions>
[ 6907 6896 6895 6894 ] final  113.36 input  -60.11 | X-H torsion
[ 7974 7965 7964 7962 ] final  -79.80 input  175.53 | X-H torsion
[ 8008 7997 7996 7995 ] final -159.79 input   59.86 | X-H torsion
[ 10167 10162 10161 10158 ] final -136.30 input  -65.29 | X-H torsion
[ 10718 10713 10712 10709 ] final   26.87 input   66.30 | X-H torsion
[ 10763 10752 10751 10750 ] final   32.65 input  -60.55 | X-H torsion
[ 11005 11000 10999 10996 ] final -108.00 input  -57.11 | X-H torsion

> <Gold.Protein.ActiveResidues>
 VAL166  LYS551  ARG553  GLY616  TRP617  ASP618  TYR619  PRO620  LYS621  CYS622 
 ASP623  PHE694  ASN695  SER759  ASP760  ASP761  ALA762  ILE779  LEU786  VAL792 
 PHE793  MET794  SER795  GLU796  ALA797  LYS798  CYS799  TRP800  GLU811  SER814 

> <Gold.Protein.RotatedAtoms>
  152.4865  133.8386  159.7140 H   0  0  0  0  0  0  0  0  0  0  0  0  # atno 6907 bound_to 6896
  150.8956  133.7176  159.2899 H   0  0  0  0  0  0  0  0  0  0  0  0  # atno 6908 bound_to 6896
  151.4635  135.1044  159.9783 H   0  0  0  0  0  0  0  0  0  0  0  0  # atno 6909 bound_to 6896
  145.5685  140.9470  143.1409 H   0  0  0  0  0  0  0  0  0  0  0  0  # atno 7974 bound_to 7965
  155.7678  140.0848  157.2123 H   0  0  0  0  0  0  0  0  0  0  0  0  # atno 8008 bound_to 7997
  154.3998  140.1531  156.2964 H   0  0  0  0  0  0  0  0  0  0  0  0  # atno 8009 bound_to 7997
  155.8776  140.3422  155.5868 H   0  0  0  0  0  0  0  0  0  0  0  0  # atno 8010 bound_to 7997
  139.8692  143.6979  152.2642 H   0  0  0  0  0  0  0  0  0  0  0  0  # atno 10167 bound_to 10162
  157.2126  130.6941  149.6235 H   0  0  0  0  0  0  0  0  0  0  0  0  # atno 10718 bound_to 10713
  153.0251  135.6407  154.1389 H   0  0  0  0  0  0  0  0  0  0  0  0  # atno 10763 bound_to 10752
  154.1119  135.2852  155.3230 H   0  0  0  0  0  0  0  0  0  0  0  0  # atno 10764 bound_to 10752
  154.6326  135.5487  153.7760 H   0  0  0  0  0  0  0  0  0  0  0  0  # atno 10765 bound_to 10752
  141.0924  133.9031  157.2043 H   0  0  0  0  0  0  0  0  0  0  0  0  # atno 11005 bound_to 11000
  144.7449  139.7347  143.7296 LP  0  0  0  0  0  0  0  0  0  0  0  0  # atno 17320 bound_to 7965
  146.1801  139.4990  142.9872 LP  0  0  0  0  0  0  0  0  0  0  0  0  # atno 17321 bound_to 7965
  139.7300  144.7584  151.0817 LP  0  0  0  0  0  0  0  0  0  0  0  0  # atno 17342 bound_to 10162
  140.7763  143.5100  150.9664 LP  0  0  0  0  0  0  0  0  0  0  0  0  # atno 17343 bound_to 10162
  155.9689  130.4546  150.5856 LP  0  0  0  0  0  0  0  0  0  0  0  0  # atno 17370 bound_to 10713
  157.3657  131.0757  151.1600 LP  0  0  0  0  0  0  0  0  0  0  0  0  # atno 17371 bound_to 10713
  139.9753  135.0116  156.9616 LP  0  0  0  0  0  0  0  0  0  0  0  0  # atno 17394 bound_to 11000
  140.5220  134.0898  155.7294 LP  0  0  0  0  0  0  0  0  0  0  0  0  # atno 17395 bound_to 11000

$$$$
