AV-unprocessed.smi:2451|AV-procd|sdf|9682|dock6
  -GOLD-   2272013323D 1   1.00000     0.00000
 Structure written by MMmdl.
 37 38  0  0  0  0  0  0  0  0  2 V2000
  154.5179  140.7359  161.3425 C   0  0  0  0  0  0  0  0  0  0  0  0
  153.2960  141.1329  160.4917 C   0  0  1  0  0  0  0  0  0  0  0  0
  153.1922  142.6781  160.4627 C   0  0  0  0  0  0  0  0  0  0  0  0
  151.9853  143.1166  159.6155 C   0  0  0  0  0  0  0  0  0  0  0  0
  152.0431  142.5355  158.1870 C   0  0  0  0  0  0  0  0  0  0  0  0
  152.1337  140.9918  158.1591 C   0  0  1  0  0  0  0  0  0  0  0  0
  152.3139  140.5533  156.7813 N   0  5  0  0  0  0  0  0  0  0  0  0
  151.0861  139.8327  156.0064 S   0  0  0  0  0  0  0  0  0  0  0  0
  151.4856  139.2856  154.6993 O   0  0  0  0  0  0  0  0  0  0  0  0
  150.3020  138.9513  156.8872 O   0  0  0  0  0  0  0  0  0  0  0  0
  150.0127  141.2883  155.6467 C   0  0  0  0  0  0  0  0  0  0  0  0
  148.8154  140.8668  154.8407 C   0  0  0  0  0  0  0  0  0  0  0  0
  147.7195  141.6594  154.3984 C   0  0  0  0  0  0  0  0  0  0  0  0
  146.9405  140.7736  153.7119 C   0  0  0  0  0  0  0  0  0  0  0  0
  147.5059  139.5404  153.7164 O   0  0  0  0  0  0  0  0  0  0  0  0
  148.7038  139.6103  154.4369 N   0  0  0  0  0  0  0  0  0  0  0  0
  153.3182  140.4963  159.0558 C   0  0  2  0  0  0  0  0  0  0  0  0
  153.3661  138.9466  159.1324 C   0  0  0  0  0  0  0  0  0  0  0  0
  155.4513  140.9791  160.8336 H   0  0  0  0  0  0  0  0  0  0  0  0
  154.5259  139.6720  161.5755 H   0  0  0  0  0  0  0  0  0  0  0  0
  154.5170  141.2617  162.2976 H   0  0  0  0  0  0  0  0  0  0  0  0
  152.4146  140.7611  161.0189 H   0  0  0  0  0  0  0  0  0  0  0  0
  153.0953  143.0745  161.4740 H   0  0  0  0  0  0  0  0  0  0  0  0
  154.1057  143.1041  160.0455 H   0  0  0  0  0  0  0  0  0  0  0  0
  151.0590  142.8185  160.1110 H   0  0  0  0  0  0  0  0  0  0  0  0
  151.9577  144.2054  159.5621 H   0  0  0  0  0  0  0  0  0  0  0  0
  151.1642  142.8630  157.6300 H   0  0  0  0  0  0  0  0  0  0  0  0
  152.9053  142.9628  157.6721 H   0  0  0  0  0  0  0  0  0  0  0  0
  151.2113  140.5994  158.5903 H   0  0  0  0  0  0  0  0  0  0  0  0
  149.7101  141.7325  156.5945 H   0  0  0  0  0  0  0  0  0  0  0  0
  150.6123  142.0252  155.1116 H   0  0  0  0  0  0  0  0  0  0  0  0
  147.5334  142.7098  154.5668 H   0  0  0  0  0  0  0  0  0  0  0  0
  146.0014  140.8634  153.1862 H   0  0  0  0  0  0  0  0  0  0  0  0
  154.2433  140.8241  158.5787 H   0  0  0  0  0  0  0  0  0  0  0  0
  152.5057  138.5377  159.6653 H   0  0  0  0  0  0  0  0  0  0  0  0
  154.2607  138.6001  159.6472 H   0  0  0  0  0  0  0  0  0  0  0  0
  153.4002  138.4724  158.1496 H   0  0  0  0  0  0  0  0  0  0  0  0
  1  2  1  0  0  0  0
  1 19  1  0  0  0  0
  1 20  1  0  0  0  0
  1 21  1  0  0  0  0
  2 17  1  0  0  0  0
  2  3  1  0  0  0  0
  2 22  1  0  0  0  0
  3  4  1  0  0  0  0
  3 23  1  0  0  0  0
  3 24  1  0  0  0  0
  4  5  1  0  0  0  0
  4 25  1  0  0  0  0
  4 26  1  0  0  0  0
  5  6  1  0  0  0  0
  5 27  1  0  0  0  0
  5 28  1  0  0  0  0
  6  7  1  0  0  0  0
  6 17  1  0  0  0  0
  6 29  1  0  0  0  0
  7  8  1  0  0  0  0
  8  9  2  0  0  0  0
  8 10  2  0  0  0  0
  8 11  1  0  0  0  0
 11 12  1  0  0  0  0
 11 30  1  0  0  0  0
 11 31  1  0  0  0  0
 12 16  2  0  0  0  0
 12 13  1  0  0  0  0
 13 14  2  0  0  0  0
 13 32  1  0  0  0  0
 14 15  1  0  0  0  0
 14 33  1  0  0  0  0
 15 16  1  0  0  0  0
 17 18  1  0  0  0  0
 17 34  1  0  0  0  0
 18 35  1  0  0  0  0
 18 36  1  0  0  0  0
 18 37  1  0  0  0  0
M  CHG  1   7  -1
M  END
> <s_m_source_file>
AV-unprocessed.smi

> <i_m_source_file_index>
2451

> <i_lp_mmshare_version>
43012

> <i_f3d_flags>
0

> <s_epik_input>
W0NIM11bQ0BASF0xW0NIMl1bQ0gyXVtDSDJdW0NASF0oW0NASF0xW0NIM10pW05IXVMoPU8pKD1PKVtDSDJdYzJbY0hdW2NIXW9uMg==

> <s_epik_cmdline>
J2VwaWtfcHl0aG9uJywgJy1waCcsICc3LjAnLCAnLXRuJywgJzgnLCAnLW1hJywgJzIwMCcsICctbWV0YWxfYmluZGluZycsICctaW1hZScsICc8aW5maWxlLm1hZT4nLCAnLW9tYWUnLCAnPG91dGZpbGUubWFlPic=

> <r_lp_tautomer_probability>
1

> <r_epik_Ionization_Penalty>
5.22693

> <r_epik_Ionization_Penalty_Charging>
5.22693

> <r_epik_Ionization_Penalty_Neutral>
2.67702e-10

> <r_epik_State_Penalty>
5.22685

> <r_epik_Charging_Adjusted_Penalty>
10.4538

> <i_epik_Tot_Q>
-1

> <i_epik_Tot_abs_Q>
1

> <r_epik_Metal_State_Penalty>
1.28716

> <b_epik_Metal_Only>
1

> <s_lp_Force_Field>
OPLS_2005

> <r_lp_Energy>
12.2025

> <b_lp_Chiralities_Consistent>
1

> <s_lp_Variant>
AV-unprocessed.smi:2451-14

> <Gold.Version>
5.8.1

> <Gold.Id.Protein>
6NUR|6NUR_protein|mol2

> <Gold.PLP.Fitness>
44.1102

> <Gold.PLP.PLP>
-33.4482

> <Gold.PLP.part.hbond>
-2.0000

> <Gold.PLP.part.metal>
0.0000

> <Gold.PLP.part.buried>
-2.5227

> <Gold.PLP.part.nonpolar>
-29.8976

> <Gold.PLP.part.repulsive>
0.5399

> <Gold.PLP.ligand.clash>
0.0000

> <Gold.PLP.ligand.torsion>
0.6517

> <Gold.PLP.Chemscore.Hbond>
2.8398

> <Gold.PLP.Chemscore.CHOScore>
0.8181

> <Gold.PLP.Chemscore.Metal>
0.0000

> <Gold.Chemscore.Hbonds>
donor molecule, donor type, donor heavy atom, donor atom, acceptor molecule, acceptor atom, score
      P1  H  7989  7998       L1     9  1.00
      P1  H  7997  8008       L1     7  1.54
      L1  C    14    33       P1 10175  1.00

> <Gold.PLP.Chemscore.Internal.Correction>
0.9918

> <Gold.Rescore>
     Score         DG    S(hbond)    S(metal)    S(lipo)     H(rot)  DE(clash)    DE(int)     intcor
     15.81     -18.46       1.72        0.00      92.35       1.40       0.32       2.32       ----

> <Gold.Chemscore.Fitness>
15.8087

> <Gold.Chemscore.DG>
-18.4551

> <Gold.Chemscore.ZeroCoef>
-5.4800

> <Gold.Chemscore.Hbond>
1.7217

> <Gold.Chemscore.Metal>
0.0000

> <Gold.Chemscore.Lipo>
92.3511

> <Gold.Chemscore.Internal_Hbond>
0.0000

> <Gold.Chemscore.DEClash>
0.3250

> <Gold.Chemscore.DEInternal>
2.3215

> <Gold.Chemscore.Rot>
1.3986

> <Gold.Chemscore.Internal.Correction>
   9.000000E+99

> <Gold.Chemscore.Hbonds>
donor molecule, donor type, donor heavy atom, donor atom, acceptor molecule, acceptor atom, score
      P1  H  7989  7998       L1     9  0.54
      P1  H  7997  8008       L1     7  0.48

> <Gold.Chemscore.Hbond.Weighted>
-5.7504

> <Gold.Chemscore.Metal.Weighted>
-0.0000

> <Gold.Chemscore.Lipo.Weighted>
-10.8051

> <Gold.Chemscore.Internal_Hbond.Weighted>
0.0000

> <Gold.Chemscore.DEClash.Weighted>
0.3250

> <Gold.Chemscore.DEInternal.Weighted>
2.3215

> <Gold.Chemscore.Rot.Weighted>
3.5804

> <Gold.Chemscore.Internal.Correction.Weighted>
   9.000000E+99

> <Gold.Protein.RotatedTorsions>
[ 6907 6896 6895 6894 ] final   75.37 input  -60.11 | X-H torsion
[ 7974 7965 7964 7962 ] final  -78.72 input  175.53 | X-H torsion
[ 8008 7997 7996 7995 ] final  -51.07 input   59.86 | X-H torsion
[ 10167 10162 10161 10158 ] final -146.11 input  -65.29 | X-H torsion
[ 10718 10713 10712 10709 ] final -171.50 input   66.30 | X-H torsion
[ 10763 10752 10751 10750 ] final  133.76 input  -60.55 | X-H torsion
[ 11005 11000 10999 10996 ] final  159.98 input  -57.11 | X-H torsion

> <Gold.Protein.ActiveResidues>
 VAL166  LYS551  ARG553  GLY616  TRP617  ASP618  TYR619  PRO620  LYS621  CYS622 
 ASP623  PHE694  ASN695  SER759  ASP760  ASP761  ALA762  ILE779  LEU786  VAL792 
 PHE793  MET794  SER795  GLU796  ALA797  LYS798  CYS799  TRP800  GLU811  SER814 

> <Gold.Protein.RotatedAtoms>
  152.5022  134.4131  159.9455 H   0  0  0  0  0  0  0  0  0  0  0  0  # atno 6907 bound_to 6896
  151.4100  133.3724  159.2750 H   0  0  0  0  0  0  0  0  0  0  0  0  # atno 6908 bound_to 6896
  150.9299  134.8736  159.7603 H   0  0  0  0  0  0  0  0  0  0  0  0  # atno 6909 bound_to 6896
  145.5828  140.9445  143.1334 H   0  0  0  0  0  0  0  0  0  0  0  0  # atno 7974 bound_to 7965
  154.4075  140.1257  156.4769 H   0  0  0  0  0  0  0  0  0  0  0  0  # atno 8008 bound_to 7997
  155.7124  140.3493  155.4960 H   0  0  0  0  0  0  0  0  0  0  0  0  # atno 8009 bound_to 7997
  155.9288  140.1066  157.1138 H   0  0  0  0  0  0  0  0  0  0  0  0  # atno 8010 bound_to 7997
  139.7743  143.8192  152.2629 H   0  0  0  0  0  0  0  0  0  0  0  0  # atno 10167 bound_to 10162
  156.7419  130.9345  151.3110 H   0  0  0  0  0  0  0  0  0  0  0  0  # atno 10718 bound_to 10713
  153.8124  135.3127  155.3402 H   0  0  0  0  0  0  0  0  0  0  0  0  # atno 10763 bound_to 10752
  154.8046  135.4706  154.0362 H   0  0  0  0  0  0  0  0  0  0  0  0  # atno 10764 bound_to 10752
  153.1745  135.6883  153.8651 H   0  0  0  0  0  0  0  0  0  0  0  0  # atno 10765 bound_to 10752
  140.2014  134.8335  157.3022 H   0  0  0  0  0  0  0  0  0  0  0  0  # atno 11005 bound_to 11000
  144.7386  139.7513  143.7319 LP  0  0  0  0  0  0  0  0  0  0  0  0  # atno 17320 bound_to 7965
  146.1704  139.4852  142.9931 LP  0  0  0  0  0  0  0  0  0  0  0  0  # atno 17321 bound_to 7965
  139.8236  144.7285  150.9541 LP  0  0  0  0  0  0  0  0  0  0  0  0  # atno 17342 bound_to 10162
  140.7815  143.4136  151.0954 LP  0  0  0  0  0  0  0  0  0  0  0  0  # atno 17343 bound_to 10162
  157.6815  130.9144  150.0279 LP  0  0  0  0  0  0  0  0  0  0  0  0  # atno 17370 bound_to 10713
  156.1459  130.3642  149.9511 LP  0  0  0  0  0  0  0  0  0  0  0  0  # atno 17371 bound_to 10713
  140.2050  134.4208  155.7642 LP  0  0  0  0  0  0  0  0  0  0  0  0  # atno 17394 bound_to 11000
  141.2227  133.7090  156.8245 LP  0  0  0  0  0  0  0  0  0  0  0  0  # atno 17395 bound_to 11000

$$$$
