AV-unprocessed.smi:3067|AV-procd|sdf|11696|dock4
  -GOLD-   2272017 93D 1   1.00000     0.00000
 Structure written by MMmdl.
 34 35  0  0  0  0  0  0  0  0  1 V2000
  152.9693  141.4598  160.5211 C   0  0  0  0  0  0  0  0  0  0  0  0
  151.8013  141.9600  159.8896 O   0  0  0  0  0  0  0  0  0  0  0  0
  152.0539  142.8754  158.8274 C   0  0  2  0  0  0  0  0  0  0  0  0
  152.8215  144.1091  159.3483 C   0  0  0  0  0  0  0  0  0  0  0  0
  151.9865  144.9162  160.3567 C   0  0  0  0  0  0  0  0  0  0  0  0
  150.6302  145.3217  159.7601 C   0  0  0  0  0  0  0  0  0  0  0  0
  149.8601  144.0984  159.2380 C   0  0  0  0  0  0  0  0  0  0  0  0
  150.6976  143.3052  158.2165 C   0  0  2  0  0  0  0  0  0  0  0  0
  149.9430  142.1663  157.7035 N   0  0  0  0  0  0  0  0  0  0  0  0
  150.5557  141.1335  156.9772 C   0  0  0  0  0  0  0  0  0  0  0  0
  151.4134  140.1675  157.5540 C   0  0  0  0  0  0  0  0  0  0  0  0
  151.9744  139.1723  156.7309 C   0  0  0  0  0  0  0  0  0  0  0  0
  151.6627  139.1753  155.3554 C   0  0  0  0  0  0  0  0  0  0  0  0
  152.2315  138.1566  154.4895 C   0  0  0  0  0  0  0  0  0  0  0  0
  152.6849  137.3458  153.7995 N   0  0  0  0  0  0  0  0  0  0  0  0
  150.8481  140.0947  154.7943 N   0  0  0  0  0  0  0  0  0  0  0  0
  150.3139  141.0456  155.5900 C   0  0  0  0  0  0  0  0  0  0  0  0
  152.6842  140.7560  161.3030 H   0  0  0  0  0  0  0  0  0  0  0  0
  153.5525  142.2542  160.9863 H   0  0  0  0  0  0  0  0  0  0  0  0
  153.6039  140.9286  159.8105 H   0  0  0  0  0  0  0  0  0  0  0  0
  152.6513  142.3858  158.0570 H   0  0  0  0  0  0  0  0  0  0  0  0
  153.7693  143.8174  159.7993 H   0  0  0  0  0  0  0  0  0  0  0  0
  153.0786  144.7506  158.5044 H   0  0  0  0  0  0  0  0  0  0  0  0
  151.8271  144.3232  161.2582 H   0  0  0  0  0  0  0  0  0  0  0  0
  152.5358  145.8056  160.6665 H   0  0  0  0  0  0  0  0  0  0  0  0
  150.0351  145.8438  160.5099 H   0  0  0  0  0  0  0  0  0  0  0  0
  150.7873  146.0281  158.9439 H   0  0  0  0  0  0  0  0  0  0  0  0
  149.5826  143.4568  160.0758 H   0  0  0  0  0  0  0  0  0  0  0  0
  148.9267  144.4273  158.7799 H   0  0  0  0  0  0  0  0  0  0  0  0
  150.8899  143.9811  157.3835 H   0  0  0  0  0  0  0  0  0  0  0  0
  149.0461  141.9794  158.1291 H   0  0  0  0  0  0  0  0  0  0  0  0
  151.6499  140.1705  158.6069 H   0  0  0  0  0  0  0  0  0  0  0  0
  152.6309  138.4248  157.1523 H   0  0  0  0  0  0  0  0  0  0  0  0
  149.6679  141.7598  155.1001 H   0  0  0  0  0  0  0  0  0  0  0  0
  1  2  1  0  0  0  0
  1 18  1  0  0  0  0
  1 19  1  0  0  0  0
  1 20  1  0  0  0  0
  2  3  1  0  0  0  0
  3  8  1  0  0  0  0
  3  4  1  0  0  0  0
  3 21  1  0  0  0  0
  4  5  1  0  0  0  0
  4 22  1  0  0  0  0
  4 23  1  0  0  0  0
  5  6  1  0  0  0  0
  5 24  1  0  0  0  0
  5 25  1  0  0  0  0
  6  7  1  0  0  0  0
  6 26  1  0  0  0  0
  6 27  1  0  0  0  0
  7  8  1  0  0  0  0
  7 28  1  0  0  0  0
  7 29  1  0  0  0  0
  8  9  1  0  0  0  0
  8 30  1  0  0  0  0
  9 10  1  0  0  0  0
  9 31  1  0  0  0  0
 10 17  1  0  0  0  0
 10 11  2  0  0  0  0
 11 12  1  0  0  0  0
 11 32  1  0  0  0  0
 12 13  2  0  0  0  0
 12 33  1  0  0  0  0
 13 14  1  0  0  0  0
 13 16  1  0  0  0  0
 14 15  3  0  0  0  0
 16 17  2  0  0  0  0
 17 34  1  0  0  0  0
M  END
> <s_m_source_file>
AV-unprocessed.smi

> <i_m_source_file_index>
3067

> <i_lp_mmshare_version>
43012

> <i_f3d_flags>
0

> <s_epik_input>
W0NIM11PW0NAQEhdMVtDSDJdW0NIMl1bQ0gyXVtDSDJdW0NASF0xW05IXWMyW2NIXVtjSF1jKEMjTiluW2NIXTI=

> <s_epik_cmdline>
J2VwaWtfcHl0aG9uJywgJy1waCcsICc3LjAnLCAnLXRuJywgJzgnLCAnLW1hJywgJzIwMCcsICctbWV0YWxfYmluZGluZycsICctaW1hZScsICc8aW5maWxlLm1hZT4nLCAnLW9tYWUnLCAnPG91dGZpbGUubWFlPic=

> <r_lp_tautomer_probability>
1

> <r_epik_Ionization_Penalty>
2.01011e-07

> <r_epik_Ionization_Penalty_Charging>
0

> <r_epik_Ionization_Penalty_Neutral>
2.01011e-07

> <r_epik_State_Penalty>
-0

> <r_epik_Charging_Adjusted_Penalty>
0

> <i_epik_Tot_Q>
0

> <i_epik_Tot_abs_Q>
0

> <r_epik_Metal_State_Penalty>
-0

> <b_epik_Metal_Only>
0

> <s_lp_Force_Field>
OPLS_2005

> <r_lp_Energy>
17.9327

> <b_lp_Chiralities_Consistent>
1

> <s_lp_Variant>
AV-unprocessed.smi:3067-3

> <Gold.Version>
5.8.1

> <Gold.Id.Protein>
6NUR|6NUR_protein|mol2

> <Gold.PLP.Fitness>
40.9543

> <Gold.PLP.PLP>
-37.5328

> <Gold.PLP.part.hbond>
-2.0889

> <Gold.PLP.part.metal>
0.0000

> <Gold.PLP.part.buried>
-5.0311

> <Gold.PLP.part.nonpolar>
-31.3611

> <Gold.PLP.part.repulsive>
0.6574

> <Gold.PLP.ligand.clash>
0.0000

> <Gold.PLP.ligand.torsion>
0.8751

> <Gold.PLP.Chemscore.Hbond>
1.7200

> <Gold.PLP.Chemscore.CHOScore>
0.0000

> <Gold.PLP.Chemscore.Metal>
0.0000

> <Gold.Chemscore.Hbonds>
donor molecule, donor type, donor heavy atom, donor atom, acceptor molecule, acceptor atom, score
      P1  H  7989  7998       L1    16  1.00
      P1  H 10752 10765       L1    15  0.72

> <Gold.PLP.Chemscore.Internal.Correction>
0.0117

> <Gold.Rescore>
     Score         DG    S(hbond)    S(metal)    S(lipo)     H(rot)  DE(clash)    DE(int)     intcor
     18.14     -19.42       1.59        0.00     100.17       1.20       0.34       0.95       ----

> <Gold.Chemscore.Fitness>
18.1406

> <Gold.Chemscore.DG>
-19.4230

> <Gold.Chemscore.ZeroCoef>
-5.4800

> <Gold.Chemscore.Hbond>
1.5862

> <Gold.Chemscore.Metal>
0.0000

> <Gold.Chemscore.Lipo>
100.1717

> <Gold.Chemscore.Internal_Hbond>
0.0000

> <Gold.Chemscore.DEClash>
0.3353

> <Gold.Chemscore.DEInternal>
0.9472

> <Gold.Chemscore.Rot>
1.2012

> <Gold.Chemscore.Internal.Correction>
   9.000000E+99

> <Gold.Chemscore.Hbonds>
donor molecule, donor type, donor heavy atom, donor atom, acceptor molecule, acceptor atom, score
      P1  H  7989  7998       L1    16  0.49
      P1  H 10752 10765       L1    15  0.72

> <Gold.Chemscore.Hbond.Weighted>
-5.2979

> <Gold.Chemscore.Metal.Weighted>
-0.0000

> <Gold.Chemscore.Lipo.Weighted>
-11.7201

> <Gold.Chemscore.Internal_Hbond.Weighted>
0.0000

> <Gold.Chemscore.DEClash.Weighted>
0.3353

> <Gold.Chemscore.DEInternal.Weighted>
0.9472

> <Gold.Chemscore.Rot.Weighted>
3.0750

> <Gold.Chemscore.Internal.Correction.Weighted>
   9.000000E+99

> <Gold.Protein.RotatedTorsions>
[ 6907 6896 6895 6894 ] final -169.30 input  -60.11 | X-H torsion
[ 7974 7965 7964 7962 ] final -104.54 input  175.53 | X-H torsion
[ 8008 7997 7996 7995 ] final -156.10 input   59.86 | X-H torsion
[ 10167 10162 10161 10158 ] final -136.59 input  -65.29 | X-H torsion
[ 10718 10713 10712 10709 ] final  -89.53 input   66.30 | X-H torsion
[ 10763 10752 10751 10750 ] final  136.57 input  -60.55 | X-H torsion
[ 11005 11000 10999 10996 ] final  153.96 input  -57.11 | X-H torsion

> <Gold.Protein.ActiveResidues>
 VAL166  LYS551  ARG553  GLY616  TRP617  ASP618  TYR619  PRO620  LYS621  CYS622 
 ASP623  PHE694  ASN695  SER759  ASP760  ASP761  ALA762  ILE779  LEU786  VAL792 
 PHE793  MET794  SER795  GLU796  ALA797  LYS798  CYS799  TRP800  GLU811  SER814 

> <Gold.Protein.RotatedAtoms>
  151.4894  133.3528  159.2850 H   0  0  0  0  0  0  0  0  0  0  0  0  # atno 6907 bound_to 6896
  150.8845  134.8242  159.7259 H   0  0  0  0  0  0  0  0  0  0  0  0  # atno 6908 bound_to 6896
  152.4784  134.4796  159.9713 H   0  0  0  0  0  0  0  0  0  0  0  0  # atno 6909 bound_to 6896
  145.2419  140.9208  143.3145 H   0  0  0  0  0  0  0  0  0  0  0  0  # atno 7974 bound_to 7965
  155.7120  140.0779  157.2367 H   0  0  0  0  0  0  0  0  0  0  0  0  # atno 8008 bound_to 7997
  154.4057  140.1628  156.2361 H   0  0  0  0  0  0  0  0  0  0  0  0  # atno 8009 bound_to 7997
  155.9274  140.3393  155.6224 H   0  0  0  0  0  0  0  0  0  0  0  0  # atno 8010 bound_to 7997
  139.8662  143.7014  152.2645 H   0  0  0  0  0  0  0  0  0  0  0  0  # atno 10167 bound_to 10162
  155.9984  130.4876  150.5185 H   0  0  0  0  0  0  0  0  0  0  0  0  # atno 10718 bound_to 10713
  153.8588  135.3070  155.3436 H   0  0  0  0  0  0  0  0  0  0  0  0  # atno 10763 bound_to 10752
  154.7858  135.4810  153.9946 H   0  0  0  0  0  0  0  0  0  0  0  0  # atno 10764 bound_to 10752
  153.1474  135.6836  153.9028 H   0  0  0  0  0  0  0  0  0  0  0  0  # atno 10765 bound_to 10752
  140.1445  134.8716  157.2375 H   0  0  0  0  0  0  0  0  0  0  0  0  # atno 11005 bound_to 11000
  144.9581  139.4009  143.6369 LP  0  0  0  0  0  0  0  0  0  0  0  0  # atno 17320 bound_to 7965
  146.3326  139.8621  142.8854 LP  0  0  0  0  0  0  0  0  0  0  0  0  # atno 17321 bound_to 7965
  139.7327  144.7578  151.0777 LP  0  0  0  0  0  0  0  0  0  0  0  0  # atno 17342 bound_to 10162
  140.7768  143.5069  150.9701 LP  0  0  0  0  0  0  0  0  0  0  0  0  # atno 17343 bound_to 10162
  157.3149  131.0671  151.1974 LP  0  0  0  0  0  0  0  0  0  0  0  0  # atno 17370 bound_to 10713
  157.2907  130.6795  149.6113 LP  0  0  0  0  0  0  0  0  0  0  0  0  # atno 17371 bound_to 10713
  140.2680  134.3493  155.7383 LP  0  0  0  0  0  0  0  0  0  0  0  0  # atno 17394 bound_to 11000
  141.2191  133.7407  156.9180 LP  0  0  0  0  0  0  0  0  0  0  0  0  # atno 17395 bound_to 11000

$$$$
