AV-unprocessed.smi:1047|AV-procd|sdf|4592|dock4
  -GOLD-   22720 3 73D 1   1.00000     0.00000
 Structure written by MMmdl.
 55 57  0  0  0  0  0  0  0  0  1 V2000
  146.3744  133.7302  150.8222 C   0  0  0  0  0  0  0  0  0  0  0  0
  144.9690  134.1111  151.3088 C   0  0  0  0  0  0  0  0  0  0  0  0
  144.8214  135.5009  151.7370 N   0  0  0  0  0  0  0  0  0  0  0  0
  143.5735  135.6937  152.4664 C   0  0  0  0  0  0  0  0  0  0  0  0
  143.3984  137.1499  152.9275 C   0  0  0  0  0  0  0  0  0  0  0  0
  144.5166  137.5323  153.7217 O   0  0  0  0  0  0  0  0  0  0  0  0
  145.7582  137.4140  153.0319 C   0  0  1  0  0  0  0  0  0  0  0  0
  146.8709  137.8684  153.9884 C   0  0  0  0  0  0  0  0  0  0  0  0
  148.0933  138.2044  153.2643 N   0  0  0  0  0  0  0  0  0  0  0  0
  149.1264  138.7921  154.1120 C   0  0  0  0  0  0  0  0  0  0  0  0
  148.7643  140.2298  154.5208 C   0  0  2  0  0  0  0  0  0  0  0  0
  147.9836  140.8017  153.4896 O   0  0  0  0  0  0  0  0  0  0  0  0
  150.0226  141.0927  154.7358 C   0  0  0  0  0  0  0  0  0  0  0  0
  150.7901  140.6849  155.8997 N   0  0  0  0  0  0  0  0  0  0  0  0
  151.2327  139.4448  156.1823 C   0  0  0  0  0  0  0  0  0  0  0  0
  151.9285  139.2869  157.3046 N   0  0  0  0  0  0  0  0  0  0  0  0
  151.9377  140.5759  157.8099 C   0  0  0  0  0  0  0  0  0  0  0  0
  152.5193  141.0939  158.9879 C   0  0  0  0  0  0  0  0  0  0  0  0
  152.4025  142.4644  159.3120 C   0  0  0  0  0  0  0  0  0  0  0  0
  153.0457  142.9792  160.5877 C   0  0  0  0  0  0  0  0  0  0  0  0
  151.6914  143.3395  158.4520 C   0  0  0  0  0  0  0  0  0  0  0  0
  151.5475  144.8147  158.7824 C   0  0  0  0  0  0  0  0  0  0  0  0
  151.1064  142.8389  157.2700 C   0  0  0  0  0  0  0  0  0  0  0  0
  151.2322  141.4740  156.9565 C   0  0  0  0  0  0  0  0  0  0  0  0
  145.9320  135.9505  152.5735 C   0  0  0  0  0  0  0  0  0  0  0  0
  146.3776  132.7180  150.4174 H   0  0  0  0  0  0  0  0  0  0  0  0
  147.1073  133.7579  151.6278 H   0  0  0  0  0  0  0  0  0  0  0  0
  146.7124  134.4026  150.0335 H   0  0  0  0  0  0  0  0  0  0  0  0
  144.2779  133.9220  150.4864 H   0  0  0  0  0  0  0  0  0  0  0  0
  144.6675  133.4399  152.1141 H   0  0  0  0  0  0  0  0  0  0  0  0
  142.7287  135.4118  151.8366 H   0  0  0  0  0  0  0  0  0  0  0  0
  143.5473  135.0354  153.3364 H   0  0  0  0  0  0  0  0  0  0  0  0
  143.3035  137.8191  152.0708 H   0  0  0  0  0  0  0  0  0  0  0  0
  142.4884  137.2544  153.5182 H   0  0  0  0  0  0  0  0  0  0  0  0
  145.7338  138.0772  152.1647 H   0  0  0  0  0  0  0  0  0  0  0  0
  146.5267  138.7462  154.5369 H   0  0  0  0  0  0  0  0  0  0  0  0
  147.0657  137.0951  154.7324 H   0  0  0  0  0  0  0  0  0  0  0  0
  147.8753  138.8364  152.5006 H   0  0  0  0  0  0  0  0  0  0  0  0
  149.2266  138.1848  155.0124 H   0  0  0  0  0  0  0  0  0  0  0  0
  150.0977  138.7678  153.6158 H   0  0  0  0  0  0  0  0  0  0  0  0
  148.1800  140.2204  155.4424 H   0  0  0  0  0  0  0  0  0  0  0  0
  148.4912  140.7918  152.6924 H   0  0  0  0  0  0  0  0  0  0  0  0
  150.6744  141.0301  153.8633 H   0  0  0  0  0  0  0  0  0  0  0  0
  149.7523  142.1439  154.8445 H   0  0  0  0  0  0  0  0  0  0  0  0
  151.0335  138.6110  155.5252 H   0  0  0  0  0  0  0  0  0  0  0  0
  153.0589  140.4264  159.6431 H   0  0  0  0  0  0  0  0  0  0  0  0
  153.7706  143.7613  160.3612 H   0  0  0  0  0  0  0  0  0  0  0  0
  153.5682  142.1836  161.1197 H   0  0  0  0  0  0  0  0  0  0  0  0
  152.2901  143.3901  161.2574 H   0  0  0  0  0  0  0  0  0  0  0  0
  150.9440  145.3321  158.0364 H   0  0  0  0  0  0  0  0  0  0  0  0
  152.5251  145.2959  158.8156 H   0  0  0  0  0  0  0  0  0  0  0  0
  151.0637  144.9446  159.7507 H   0  0  0  0  0  0  0  0  0  0  0  0
  150.5611  143.4939  156.6066 H   0  0  0  0  0  0  0  0  0  0  0  0
  146.0204  135.3032  153.4476 H   0  0  0  0  0  0  0  0  0  0  0  0
  146.8704  135.8643  152.0265 H   0  0  0  0  0  0  0  0  0  0  0  0
  1  2  1  0  0  0  0
  1 26  1  0  0  0  0
  1 27  1  0  0  0  0
  1 28  1  0  0  0  0
  2  3  1  0  0  0  0
  2 29  1  0  0  0  0
  2 30  1  0  0  0  0
  3 25  1  0  0  0  0
  3  4  1  0  0  0  0
  4  5  1  0  0  0  0
  4 31  1  0  0  0  0
  4 32  1  0  0  0  0
  5  6  1  0  0  0  0
  5 33  1  0  0  0  0
  5 34  1  0  0  0  0
  6  7  1  0  0  0  0
  7  8  1  0  0  0  0
  7 25  1  0  0  0  0
  7 35  1  0  0  0  0
  8  9  1  0  0  0  0
  8 36  1  0  0  0  0
  8 37  1  0  0  0  0
  9 10  1  0  0  0  0
  9 38  1  0  0  0  0
 10 11  1  0  0  0  0
 10 39  1  0  0  0  0
 10 40  1  0  0  0  0
 11 12  1  0  0  0  0
 11 13  1  0  0  0  0
 11 41  1  0  0  0  0
 12 42  1  0  0  0  0
 13 14  1  0  0  0  0
 13 43  1  0  0  0  0
 13 44  1  0  0  0  0
 14 24  1  0  0  0  0
 14 15  1  0  0  0  0
 15 16  2  0  0  0  0
 15 45  1  0  0  0  0
 16 17  1  0  0  0  0
 17 24  2  0  0  0  0
 17 18  1  0  0  0  0
 18 19  2  0  0  0  0
 18 46  1  0  0  0  0
 19 20  1  0  0  0  0
 19 21  1  0  0  0  0
 20 47  1  0  0  0  0
 20 48  1  0  0  0  0
 20 49  1  0  0  0  0
 21 22  1  0  0  0  0
 21 23  2  0  0  0  0
 22 50  1  0  0  0  0
 22 51  1  0  0  0  0
 22 52  1  0  0  0  0
 23 24  1  0  0  0  0
 23 53  1  0  0  0  0
 25 54  1  0  0  0  0
 25 55  1  0  0  0  0
M  END
> <s_m_source_file>
AV-unprocessed.smi

> <i_m_source_file_index>
1047

> <i_lp_mmshare_version>
43012

> <i_f3d_flags>
0

> <s_epik_input>
W0NIM11bQ0gyXU4xW0NIMl1bQ0gyXU9bQ0BIXShbQ0gyXTEpW0NIMl1bTkhdW0NIMl1bQ0BIXShbT0hdKVtDSDJdbihbY0hdbjIpYyhjMjMpW2NIXWMoW0NIM10pYyhbY0hdMylbQ0gzXQ==

> <s_epik_cmdline>
J2VwaWtfcHl0aG9uJywgJy1waCcsICc3LjAnLCAnLXRuJywgJzgnLCAnLW1hJywgJzIwMCcsICctbWV0YWxfYmluZGluZycsICctaW1hZScsICc8aW5maWxlLm1hZT4nLCAnLW9tYWUnLCAnPG91dGZpbGUubWFlPic=

> <r_epik_Ionization_Penalty>
2.74124

> <r_epik_Ionization_Penalty_Charging>
0

> <r_epik_Ionization_Penalty_Neutral>
2.74124

> <r_epik_State_Penalty>
2.37482

> <r_epik_Charging_Adjusted_Penalty>
2.37482

> <i_epik_Tot_Q>
0

> <i_epik_Tot_abs_Q>
0

> <r_epik_Metal_State_Penalty>
2.25944

> <b_epik_Metal_Only>
0

> <s_lp_Force_Field>
OPLS_2005

> <r_lp_Energy>
35.4924

> <b_lp_Chiralities_Consistent>
1

> <s_lp_Variant>
AV-unprocessed.smi:1047-33

> <Gold.Version>
5.8.1

> <Gold.Id.Protein>
6NUR|6NUR_protein|mol2

> <Gold.PLP.Fitness>
48.1797

> <Gold.PLP.PLP>
-46.6123

> <Gold.PLP.part.hbond>
-2.5525

> <Gold.PLP.part.metal>
0.0000

> <Gold.PLP.part.buried>
-3.9348

> <Gold.PLP.part.nonpolar>
-40.6411

> <Gold.PLP.part.repulsive>
0.3054

> <Gold.PLP.ligand.clash>
0.0000

> <Gold.PLP.ligand.torsion>
0.7902

> <Gold.PLP.Chemscore.Hbond>
1.0000

> <Gold.PLP.Chemscore.CHOScore>
0.0000

> <Gold.PLP.Chemscore.Metal>
0.0000

> <Gold.Chemscore.Hbonds>
donor molecule, donor type, donor heavy atom, donor atom, acceptor molecule, acceptor atom, score
      L1  H    12    42       P1  7957  1.00

> <Gold.PLP.Chemscore.Internal.Correction>
0.1478

> <Gold.Rescore>
     Score         DG    S(hbond)    S(metal)    S(lipo)     H(rot)  DE(clash)    DE(int)     intcor
     15.04     -17.13       0.97        0.00     127.07       2.52       1.30       0.78       ----

> <Gold.Chemscore.Fitness>
15.0450

> <Gold.Chemscore.DG>
-17.1294

> <Gold.Chemscore.ZeroCoef>
-5.4800

> <Gold.Chemscore.Hbond>
0.9710

> <Gold.Chemscore.Metal>
0.0000

> <Gold.Chemscore.Lipo>
127.0667

> <Gold.Chemscore.Internal_Hbond>
0.0000

> <Gold.Chemscore.DEClash>
1.3013

> <Gold.Chemscore.DEInternal>
0.7831

> <Gold.Chemscore.Rot>
2.5237

> <Gold.Chemscore.Internal.Correction>
   9.000000E+99

> <Gold.Chemscore.Hbonds>
donor molecule, donor type, donor heavy atom, donor atom, acceptor molecule, acceptor atom, score
      L1  H     9    38       P1  7957  0.01
      L1  H    12    42       P1  7957  0.93

> <Gold.Chemscore.Hbond.Weighted>
-3.2432

> <Gold.Chemscore.Metal.Weighted>
-0.0000

> <Gold.Chemscore.Lipo.Weighted>
-14.8668

> <Gold.Chemscore.Internal_Hbond.Weighted>
0.0000

> <Gold.Chemscore.DEClash.Weighted>
1.3013

> <Gold.Chemscore.DEInternal.Weighted>
0.7831

> <Gold.Chemscore.Rot.Weighted>
6.4607

> <Gold.Chemscore.Internal.Correction.Weighted>
   9.000000E+99

> <Gold.Protein.RotatedTorsions>
[ 6907 6896 6895 6894 ] final   27.16 input  -60.11 | X-H torsion
[ 7974 7965 7964 7962 ] final  -95.46 input  175.53 | X-H torsion
[ 8008 7997 7996 7995 ] final   43.10 input   59.86 | X-H torsion
[ 10167 10162 10161 10158 ] final  -12.95 input  -65.29 | X-H torsion
[ 10718 10713 10712 10709 ] final    3.36 input   66.30 | X-H torsion
[ 10763 10752 10751 10750 ] final  156.61 input  -60.55 | X-H torsion
[ 11005 11000 10999 10996 ] final   92.92 input  -57.11 | X-H torsion

> <Gold.Protein.ActiveResidues>
 VAL166  LYS551  ARG553  GLY616  TRP617  ASP618  TYR619  PRO620  LYS621  CYS622 
 ASP623  PHE694  ASN695  SER759  ASP760  ASP761  ALA762  ILE779  LEU786  VAL792 
 PHE793  MET794  SER795  GLU796  ALA797  LYS798  CYS799  TRP800  GLU811  SER814 

> <Gold.Protein.RotatedAtoms>
  151.9982  134.9943  160.0563 H   0  0  0  0  0  0  0  0  0  0  0  0  # atno 6907 bound_to 6896
  152.1545  133.4538  159.4838 H   0  0  0  0  0  0  0  0  0  0  0  0  # atno 6908 bound_to 6896
  150.6879  134.2066  159.4386 H   0  0  0  0  0  0  0  0  0  0  0  0  # atno 6909 bound_to 6896
  145.3598  140.9490  143.2507 H   0  0  0  0  0  0  0  0  0  0  0  0  # atno 7974 bound_to 7965
  155.2971  140.3382  155.4249 H   0  0  0  0  0  0  0  0  0  0  0  0  # atno 8008 bound_to 7997
  156.2019  140.1736  156.7921 H   0  0  0  0  0  0  0  0  0  0  0  0  # atno 8009 bound_to 7997
  154.5570  140.0694  156.8743 H   0  0  0  0  0  0  0  0  0  0  0  0  # atno 8010 bound_to 7997
  140.7172  143.5477  150.9336 H   0  0  0  0  0  0  0  0  0  0  0  0  # atno 10167 bound_to 10162
  156.8767  130.5639  149.5655 H   0  0  0  0  0  0  0  0  0  0  0  0  # atno 10718 bound_to 10713
  154.1871  135.2796  155.3033 H   0  0  0  0  0  0  0  0  0  0  0  0  # atno 10763 bound_to 10752
  154.5957  135.5545  153.7327 H   0  0  0  0  0  0  0  0  0  0  0  0  # atno 10764 bound_to 10752
  153.0122  135.6379  154.2010 H   0  0  0  0  0  0  0  0  0  0  0  0  # atno 10765 bound_to 10752
  139.8817  134.8761  156.3643 H   0  0  0  0  0  0  0  0  0  0  0  0  # atno 11005 bound_to 11000
  144.8655  139.5114  143.6792 LP  0  0  0  0  0  0  0  0  0  0  0  0  # atno 17320 bound_to 7965
  146.2932  139.7201  142.9145 LP  0  0  0  0  0  0  0  0  0  0  0  0  # atno 17321 bound_to 7965
  139.9201  143.6616  152.3098 LP  0  0  0  0  0  0  0  0  0  0  0  0  # atno 17342 bound_to 10162
  139.7030  144.7632  151.1241 LP  0  0  0  0  0  0  0  0  0  0  0  0  # atno 17343 bound_to 10162
  156.0698  130.5734  150.9361 LP  0  0  0  0  0  0  0  0  0  0  0  0  # atno 17370 bound_to 10713
  157.6164  131.0933  150.8702 LP  0  0  0  0  0  0  0  0  0  0  0  0  # atno 17371 bound_to 10713
  140.9508  133.7452  156.0269 LP  0  0  0  0  0  0  0  0  0  0  0  0  # atno 17394 bound_to 11000
  140.8108  134.3401  157.5412 LP  0  0  0  0  0  0  0  0  0  0  0  0  # atno 17395 bound_to 11000

$$$$
