AV-unprocessed.smi:1855|AV-procd|sdf|7531|dock2
  -GOLD-   22720 9243D 1   1.00000     0.00000
 Structure written by MMmdl.
 43 45  0  0  0  0  0  0  0  0  1 V2000
  148.1197  132.1487  158.8088 C   0  0  0  0  0  0  0  0  0  0  0  0
  148.4367  133.5118  159.0462 O   0  0  0  0  0  0  0  0  0  0  0  0
  147.8592  134.1410  160.1301 C   0  0  0  0  0  0  0  0  0  0  0  0
  146.9608  133.5050  161.0238 C   0  0  0  0  0  0  0  0  0  0  0  0
  146.4113  134.2142  162.1076 C   0  0  0  0  0  0  0  0  0  0  0  0
  146.7515  135.5627  162.3105 C   0  0  0  0  0  0  0  0  0  0  0  0
  147.6414  136.2036  161.4296 C   0  0  0  0  0  0  0  0  0  0  0  0
  148.2000  135.4976  160.3350 C   0  0  0  0  0  0  0  0  0  0  0  0
  149.0782  136.0562  159.4325 O   0  0  0  0  0  0  0  0  0  0  0  0
  149.4224  137.4277  159.5648 C   0  0  0  0  0  0  0  0  0  0  0  0
  150.6836  137.6997  158.7326 C   0  0  0  0  0  0  0  0  0  0  0  0
  150.7348  139.0745  158.2530 N   0  0  0  0  0  0  0  0  0  0  0  0
  150.0400  139.6351  157.2308 C   0  0  0  0  0  0  0  0  0  0  0  0
  149.0528  138.8577  156.4095 C   0  0  0  0  0  0  0  0  0  0  0  0
  148.5799  139.6908  155.3082 N   0  0  0  0  0  0  0  0  0  0  0  0
  149.3642  140.2870  154.3989 C   0  0  0  0  0  0  0  0  0  0  0  0
  150.5907  140.2000  154.3718 O   0  0  0  0  0  0  0  0  0  0  0  0
  150.2918  140.9234  156.9961 N   0  0  0  0  0  0  0  0  0  0  0  0
  151.2385  141.2281  157.9542 C   0  0  0  0  0  0  0  0  0  0  0  0
  151.9122  142.4404  158.2257 C   0  0  0  0  0  0  0  0  0  0  0  0
  152.8615  142.5120  159.2663 C   0  0  0  0  0  0  0  0  0  0  0  0
  153.1488  141.3756  160.0495 C   0  0  0  0  0  0  0  0  0  0  0  0
  152.4843  140.1597  159.7993 C   0  0  0  0  0  0  0  0  0  0  0  0
  151.5390  140.0925  158.7581 C   0  0  0  0  0  0  0  0  0  0  0  0
  148.6479  131.8089  157.9181 H   0  0  0  0  0  0  0  0  0  0  0  0
  147.0524  132.0122  158.6309 H   0  0  0  0  0  0  0  0  0  0  0  0
  148.4332  131.5158  159.6401 H   0  0  0  0  0  0  0  0  0  0  0  0
  146.6770  132.4711  160.8995 H   0  0  0  0  0  0  0  0  0  0  0  0
  145.7284  133.7221  162.7844 H   0  0  0  0  0  0  0  0  0  0  0  0
  146.3306  136.1069  163.1431 H   0  0  0  0  0  0  0  0  0  0  0  0
  147.8826  137.2388  161.6163 H   0  0  0  0  0  0  0  0  0  0  0  0
  148.6061  138.0610  159.2142 H   0  0  0  0  0  0  0  0  0  0  0  0
  149.6140  137.6688  160.6112 H   0  0  0  0  0  0  0  0  0  0  0  0
  151.5779  137.4795  159.3146 H   0  0  0  0  0  0  0  0  0  0  0  0
  150.7112  137.0327  157.8703 H   0  0  0  0  0  0  0  0  0  0  0  0
  149.5170  137.9431  156.0364 H   0  0  0  0  0  0  0  0  0  0  0  0
  148.2092  138.5528  157.0286 H   0  0  0  0  0  0  0  0  0  0  0  0
  147.5825  139.8302  155.2379 H   0  0  0  0  0  0  0  0  0  0  0  0
  148.7619  140.8643  153.6806 H   0  0  0  0  0  0  0  0  0  0  0  0
  151.7005  143.3157  157.6295 H   0  0  0  0  0  0  0  0  0  0  0  0
  153.3730  143.4427  159.4629 H   0  0  0  0  0  0  0  0  0  0  0  0
  153.8806  141.4367  160.8416 H   0  0  0  0  0  0  0  0  0  0  0  0
  152.7062  139.2863  160.3942 H   0  0  0  0  0  0  0  0  0  0  0  0
  1  2  1  0  0  0  0
  1 25  1  0  0  0  0
  1 26  1  0  0  0  0
  1 27  1  0  0  0  0
  2  3  1  0  0  0  0
  3  8  1  0  0  0  0
  3  4  2  0  0  0  0
  4  5  1  0  0  0  0
  4 28  1  0  0  0  0
  5  6  2  0  0  0  0
  5 29  1  0  0  0  0
  6  7  1  0  0  0  0
  6 30  1  0  0  0  0
  7  8  2  0  0  0  0
  7 31  1  0  0  0  0
  8  9  1  0  0  0  0
  9 10  1  0  0  0  0
 10 11  1  0  0  0  0
 10 32  1  0  0  0  0
 10 33  1  0  0  0  0
 11 12  1  0  0  0  0
 11 34  1  0  0  0  0
 11 35  1  0  0  0  0
 12 24  1  0  0  0  0
 12 13  1  0  0  0  0
 13 14  1  0  0  0  0
 13 18  2  0  0  0  0
 14 15  1  0  0  0  0
 14 36  1  0  0  0  0
 14 37  1  0  0  0  0
 15 16  1  0  0  0  0
 15 38  1  0  0  0  0
 16 17  2  0  0  0  0
 16 39  1  0  0  0  0
 18 19  1  0  0  0  0
 19 24  2  0  0  0  0
 19 20  1  0  0  0  0
 20 21  2  0  0  0  0
 20 40  1  0  0  0  0
 21 22  1  0  0  0  0
 21 41  1  0  0  0  0
 22 23  2  0  0  0  0
 22 42  1  0  0  0  0
 23 24  1  0  0  0  0
 23 43  1  0  0  0  0
M  END
> <s_m_source_file>
AV-unprocessed.smi

> <i_m_source_file_index>
1855

> <i_lp_mmshare_version>
43012

> <i_f3d_flags>
0

> <s_epik_input>
W0NIM11PYzFbY0hdW2NIXVtjSF1bY0hdYzFPW0NIMl1bQ0gyXW4oYyhuMilbQ0gyXVtOSF1bQ0hdPU8pYyhjMjMpW2NIXVtjSF1bY0hdW2NIXTM=

> <s_epik_cmdline>
J2VwaWtfcHl0aG9uJywgJy1waCcsICc3LjAnLCAnLXRuJywgJzgnLCAnLW1hJywgJzIwMCcsICctbWV0YWxfYmluZGluZycsICctaW1hZScsICc8aW5maWxlLm1hZT4nLCAnLW9tYWUnLCAnPG91dGZpbGUubWFlPic=

> <r_lp_tautomer_probability>
1

> <r_epik_Ionization_Penalty>
0.0587233

> <r_epik_Ionization_Penalty_Charging>
0

> <r_epik_Ionization_Penalty_Neutral>
0.0587233

> <r_epik_State_Penalty>
0.0508012

> <r_epik_Charging_Adjusted_Penalty>
0.0508012

> <i_epik_Tot_Q>
0

> <i_epik_Tot_abs_Q>
0

> <r_epik_Metal_State_Penalty>
0.0461886

> <b_epik_Metal_Only>
0

> <s_lp_Force_Field>
OPLS_2005

> <r_lp_Energy>
14.9723

> <b_lp_Chiralities_Consistent>
1

> <s_lp_Variant>
AV-unprocessed.smi:1855-1

> <Gold.Version>
5.8.1

> <Gold.Id.Protein>
6NUR|6NUR_protein|mol2

> <Gold.PLP.Fitness>
45.2985

> <Gold.PLP.PLP>
-40.1178

> <Gold.PLP.part.hbond>
-2.7790

> <Gold.PLP.part.metal>
0.0000

> <Gold.PLP.part.buried>
-4.5331

> <Gold.PLP.part.nonpolar>
-34.3152

> <Gold.PLP.part.repulsive>
0.1523

> <Gold.PLP.ligand.clash>
0.0000

> <Gold.PLP.ligand.torsion>
0.4942

> <Gold.PLP.Chemscore.Hbond>
2.0000

> <Gold.PLP.Chemscore.CHOScore>
0.0000

> <Gold.PLP.Chemscore.Metal>
0.0000

> <Gold.Chemscore.Hbonds>
donor molecule, donor type, donor heavy atom, donor atom, acceptor molecule, acceptor atom, score
      P1  H  6896  6907       L1     9  0.76
      P1  H  7989  7998       L1    17  0.96

> <Gold.PLP.Chemscore.Internal.Correction>
0.1690

> <Gold.Rescore>
     Score         DG    S(hbond)    S(metal)    S(lipo)     H(rot)  DE(clash)    DE(int)     intcor
     13.30     -15.98       1.55        0.00     105.37       2.74       1.14       1.54       ----

> <Gold.Chemscore.Fitness>
13.2976

> <Gold.Chemscore.DG>
-15.9804

> <Gold.Chemscore.ZeroCoef>
-5.4800

> <Gold.Chemscore.Hbond>
1.5514

> <Gold.Chemscore.Metal>
0.0000

> <Gold.Chemscore.Lipo>
105.3737

> <Gold.Chemscore.Internal_Hbond>
0.0000

> <Gold.Chemscore.DEClash>
1.1395

> <Gold.Chemscore.DEInternal>
1.5432

> <Gold.Chemscore.Rot>
2.7383

> <Gold.Chemscore.Internal.Correction>
   9.000000E+99

> <Gold.Chemscore.Hbonds>
donor molecule, donor type, donor heavy atom, donor atom, acceptor molecule, acceptor atom, score
      P1  H  6896  6907       L1     9  0.18
      P1  H  7989  7998       L1    17  0.90

> <Gold.Chemscore.Hbond.Weighted>
-5.1818

> <Gold.Chemscore.Metal.Weighted>
-0.0000

> <Gold.Chemscore.Lipo.Weighted>
-12.3287

> <Gold.Chemscore.Internal_Hbond.Weighted>
0.0000

> <Gold.Chemscore.DEClash.Weighted>
1.1395

> <Gold.Chemscore.DEInternal.Weighted>
1.5432

> <Gold.Chemscore.Rot.Weighted>
7.0102

> <Gold.Chemscore.Internal.Correction.Weighted>
   9.000000E+99

> <Gold.Protein.RotatedTorsions>
[ 6907 6896 6895 6894 ] final  -54.92 input  -60.11 | X-H torsion
[ 7974 7965 7964 7962 ] final   37.01 input  175.53 | X-H torsion
[ 8008 7997 7996 7995 ] final  139.49 input   59.86 | X-H torsion
[ 10167 10162 10161 10158 ] final   68.98 input  -65.29 | X-H torsion
[ 10718 10713 10712 10709 ] final   55.48 input   66.30 | X-H torsion
[ 10763 10752 10751 10750 ] final  172.07 input  -60.55 | X-H torsion
[ 11005 11000 10999 10996 ] final  -73.55 input  -57.11 | X-H torsion

> <Gold.Protein.ActiveResidues>
 VAL166  LYS551  ARG553  GLY616  TRP617  ASP618  TYR619  PRO620  LYS621  CYS622 
 ASP623  PHE694  ASN695  SER759  ASP760  ASP761  ALA762  ILE779  LEU786  VAL792 
 PHE793  MET794  SER795  GLU796  ALA797  LYS798  CYS799  TRP800  GLU811  SER814 

> <Gold.Protein.RotatedAtoms>
  150.8296  134.7544  159.6842 H   0  0  0  0  0  0  0  0  0  0  0  0  # atno 6907 bound_to 6896
  152.4403  134.5601  159.9901 H   0  0  0  0  0  0  0  0  0  0  0  0  # atno 6908 bound_to 6896
  151.5765  133.3345  159.3036 H   0  0  0  0  0  0  0  0  0  0  0  0  # atno 6909 bound_to 6896
  146.1169  139.5947  142.9315 H   0  0  0  0  0  0  0  0  0  0  0  0  # atno 7974 bound_to 7965
  156.2989  140.2366  156.4247 H   0  0  0  0  0  0  0  0  0  0  0  0  # atno 8008 bound_to 7997
  154.8324  140.0432  157.1506 H   0  0  0  0  0  0  0  0  0  0  0  0  # atno 8009 bound_to 7997
  154.9193  140.3001  155.5228 H   0  0  0  0  0  0  0  0  0  0  0  0  # atno 8010 bound_to 7997
  140.0728  144.5138  150.7215 H   0  0  0  0  0  0  0  0  0  0  0  0  # atno 10167 bound_to 10162
  157.5348  130.8656  149.8738 H   0  0  0  0  0  0  0  0  0  0  0  0  # atno 10718 bound_to 10713
  154.4208  135.2758  155.1976 H   0  0  0  0  0  0  0  0  0  0  0  0  # atno 10763 bound_to 10752
  154.3923  135.6063  153.5853 H   0  0  0  0  0  0  0  0  0  0  0  0  # atno 10764 bound_to 10752
  152.9833  135.5906  154.4504 H   0  0  0  0  0  0  0  0  0  0  0  0  # atno 10765 bound_to 10752
  141.1624  133.6882  156.7229 H   0  0  0  0  0  0  0  0  0  0  0  0  # atno 11005 bound_to 11000
  145.5547  141.0410  143.2259 LP  0  0  0  0  0  0  0  0  0  0  0  0  # atno 17320 bound_to 7965
  144.7561  139.7070  143.7253 LP  0  0  0  0  0  0  0  0  0  0  0  0  # atno 17321 bound_to 7965
  140.7117  143.2510  151.4561 LP  0  0  0  0  0  0  0  0  0  0  0  0  # atno 17342 bound_to 10162
  139.5826  144.1676  152.1987 LP  0  0  0  0  0  0  0  0  0  0  0  0  # atno 17343 bound_to 10162
  156.0450  130.3730  150.1340 LP  0  0  0  0  0  0  0  0  0  0  0  0  # atno 17370 bound_to 10713
  156.9522  130.9778  151.3496 LP  0  0  0  0  0  0  0  0  0  0  0  0  # atno 17371 bound_to 10713
  140.2802  134.8322  157.3927 LP  0  0  0  0  0  0  0  0  0  0  0  0  # atno 17394 bound_to 11000
  140.1440  134.4935  155.8010 LP  0  0  0  0  0  0  0  0  0  0  0  0  # atno 17395 bound_to 11000

$$$$
