AV-unprocessed.smi:2318|AV-procd|sdf|9276|dock7
  -GOLD-   2272012503D 1   1.00000     0.00000
 Structure written by MMmdl.
 37 38  0  0  0  0  0  0  0  0  1 V2000
  143.6107  133.1781  148.0880 C   0  0  0  0  0  0  0  0  0  0  0  0
  144.2214  132.6360  149.2827 N   0  0  0  0  0  0  0  0  0  0  0  0
  143.7779  132.7126  150.5878 C   0  0  0  0  0  0  0  0  0  0  0  0
  144.6862  132.0548  151.3680 C   0  0  0  0  0  0  0  0  0  0  0  0
  145.6582  131.6066  150.4315 C   0  0  0  0  0  0  0  0  0  0  0  0
  146.7876  130.8645  150.8615 N   0  0  0  0  0  0  0  0  0  0  0  0
  146.8191  129.8659  151.7603 C   0  0  0  0  0  0  0  0  0  0  0  0
  145.8432  129.4337  152.3746 O   0  0  0  0  0  0  0  0  0  0  0  0
  148.0629  129.3868  151.9071 N   0  0  0  0  0  0  0  0  0  0  0  0
  148.4704  128.3112  152.8137 C   0  0  1  0  0  0  0  0  0  0  0  0
  149.4275  127.3397  152.0746 C   0  0  0  0  0  0  0  0  0  0  0  0
  149.0485  127.0657  150.6133 C   0  0  0  0  0  0  0  0  0  0  0  0
  149.8293  125.8060  150.2392 C   0  0  0  0  0  0  0  0  0  0  0  0
  149.9765  125.0059  151.5392 C   0  0  0  0  0  0  0  0  0  0  0  0
  149.5069  125.9280  152.6730 C   0  0  0  0  0  0  0  0  0  0  0  0
  149.0804  128.9440  154.0854 C   0  0  0  0  0  0  0  0  0  0  0  0
  149.3585  127.9902  154.9752 F   0  0  0  0  0  0  0  0  0  0  0  0
  150.2165  129.5817  153.8065 F   0  0  0  0  0  0  0  0  0  0  0  0
  148.2250  129.8055  154.6371 F   0  0  0  0  0  0  0  0  0  0  0  0
  145.3826  131.9555  149.1822 N   0  0  0  0  0  0  0  0  0  0  0  0
  142.6191  133.5685  148.3186 H   0  0  0  0  0  0  0  0  0  0  0  0
  143.5169  132.3975  147.3322 H   0  0  0  0  0  0  0  0  0  0  0  0
  144.2281  133.9859  147.6943 H   0  0  0  0  0  0  0  0  0  0  0  0
  142.8629  133.2233  150.8497 H   0  0  0  0  0  0  0  0  0  0  0  0
  144.6579  131.9162  152.4388 H   0  0  0  0  0  0  0  0  0  0  0  0
  147.6664  131.1210  150.4369 H   0  0  0  0  0  0  0  0  0  0  0  0
  148.7971  129.8086  151.3574 H   0  0  0  0  0  0  0  0  0  0  0  0
  147.5902  127.7461  153.1258 H   0  0  0  0  0  0  0  0  0  0  0  0
  150.4333  127.7632  152.0793 H   0  0  0  0  0  0  0  0  0  0  0  0
  147.9782  126.8683  150.5368 H   0  0  0  0  0  0  0  0  0  0  0  0
  149.2791  127.9017  149.9522 H   0  0  0  0  0  0  0  0  0  0  0  0
  149.3342  125.2353  149.4529 H   0  0  0  0  0  0  0  0  0  0  0  0
  150.8167  126.0854  149.8695 H   0  0  0  0  0  0  0  0  0  0  0  0
  149.3767  124.0954  151.5139 H   0  0  0  0  0  0  0  0  0  0  0  0
  151.0155  124.7070  151.6830 H   0  0  0  0  0  0  0  0  0  0  0  0
  150.1752  125.8815  153.5333 H   0  0  0  0  0  0  0  0  0  0  0  0
  148.5185  125.6096  153.0076 H   0  0  0  0  0  0  0  0  0  0  0  0
  1  2  1  0  0  0  0
  1 21  1  0  0  0  0
  1 22  1  0  0  0  0
  1 23  1  0  0  0  0
  2 20  1  0  0  0  0
  2  3  1  0  0  0  0
  3  4  2  0  0  0  0
  3 24  1  0  0  0  0
  4  5  1  0  0  0  0
  4 25  1  0  0  0  0
  5  6  1  0  0  0  0
  5 20  2  0  0  0  0
  6  7  1  0  0  0  0
  6 26  1  0  0  0  0
  7  8  2  0  0  0  0
  7  9  1  0  0  0  0
  9 10  1  0  0  0  0
  9 27  1  0  0  0  0
 10 11  1  0  0  0  0
 10 16  1  0  0  0  0
 10 28  1  0  0  0  0
 11 15  1  0  0  0  0
 11 12  1  0  0  0  0
 11 29  1  0  0  0  0
 12 13  1  0  0  0  0
 12 30  1  0  0  0  0
 12 31  1  0  0  0  0
 13 14  1  0  0  0  0
 13 32  1  0  0  0  0
 13 33  1  0  0  0  0
 14 15  1  0  0  0  0
 14 34  1  0  0  0  0
 14 35  1  0  0  0  0
 15 36  1  0  0  0  0
 15 37  1  0  0  0  0
 16 17  1  0  0  0  0
 16 18  1  0  0  0  0
 16 19  1  0  0  0  0
M  END
> <s_m_source_file>
AV-unprocessed.smi

> <i_m_source_file_index>
2318

> <i_lp_mmshare_version>
43012

> <i_f3d_flags>
0

> <s_epik_input>
W0NIM11uMVtjSF1bY0hdYyhuMSlbTkhdQyg9TylbTkhdW0NAQEhdKEMoRikoRilGKVtDSF0yW0NIMl1bQ0gyXVtDSDJdW0NIMl0y

> <s_epik_cmdline>
J2VwaWtfcHl0aG9uJywgJy1waCcsICc3LjAnLCAnLXRuJywgJzgnLCAnLW1hJywgJzIwMCcsICctbWV0YWxfYmluZGluZycsICctaW1hZScsICc8aW5maWxlLm1hZT4nLCAnLW9tYWUnLCAnPG91dGZpbGUubWFlPic=

> <r_lp_tautomer_probability>
1

> <r_epik_Ionization_Penalty>
2.39546e-05

> <r_epik_Ionization_Penalty_Charging>
0

> <r_epik_Ionization_Penalty_Neutral>
2.39546e-05

> <r_epik_State_Penalty>
-0

> <r_epik_Charging_Adjusted_Penalty>
0

> <i_epik_Tot_Q>
0

> <i_epik_Tot_abs_Q>
0

> <r_epik_Metal_State_Penalty>
-0

> <b_epik_Metal_Only>
0

> <s_lp_Force_Field>
OPLS_2005

> <r_lp_Energy>
23.5829

> <b_lp_Chiralities_Consistent>
1

> <s_lp_Variant>
AV-unprocessed.smi:2318-2

> <Gold.Version>
5.8.1

> <Gold.Id.Protein>
6NUR|6NUR_protein|mol2

> <Gold.PLP.Fitness>
44.5265

> <Gold.PLP.PLP>
-37.5799

> <Gold.PLP.part.hbond>
-2.3634

> <Gold.PLP.part.metal>
0.0000

> <Gold.PLP.part.buried>
-2.1660

> <Gold.PLP.part.nonpolar>
-32.9840

> <Gold.PLP.part.repulsive>
0.4681

> <Gold.PLP.ligand.clash>
0.0000

> <Gold.PLP.ligand.torsion>
1.0249

> <Gold.PLP.Chemscore.Hbond>
1.9120

> <Gold.PLP.Chemscore.CHOScore>
1.0000

> <Gold.PLP.Chemscore.Metal>
0.0000

> <Gold.Chemscore.Hbonds>
donor molecule, donor type, donor heavy atom, donor atom, acceptor molecule, acceptor atom, score
      L1  H     6    26       P1 10747  0.50
      L1  H     9    27       P1 10747  0.41
      L1  C     3    24       P1 10186  0.93

> <Gold.PLP.Chemscore.Internal.Correction>
0.2605

> <Gold.Rescore>
     Score         DG    S(hbond)    S(metal)    S(lipo)     H(rot)  DE(clash)    DE(int)     intcor
     13.36     -16.60       1.62        0.00      77.27       1.30       1.80       1.44       ----

> <Gold.Chemscore.Fitness>
13.3606

> <Gold.Chemscore.DG>
-16.6023

> <Gold.Chemscore.ZeroCoef>
-5.4800

> <Gold.Chemscore.Hbond>
1.6199

> <Gold.Chemscore.Metal>
0.0000

> <Gold.Chemscore.Lipo>
77.2705

> <Gold.Chemscore.Internal_Hbond>
0.0000

> <Gold.Chemscore.DEClash>
1.7982

> <Gold.Chemscore.DEInternal>
1.4434

> <Gold.Chemscore.Rot>
1.3003

> <Gold.Chemscore.Internal.Correction>
   9.000000E+99

> <Gold.Chemscore.Hbonds>
donor molecule, donor type, donor heavy atom, donor atom, acceptor molecule, acceptor atom, score
      L1  H     6    26       P1 10747  0.48
      L1  H     9    27       P1 10747  0.03

> <Gold.Chemscore.Hbond.Weighted>
-5.4104

> <Gold.Chemscore.Metal.Weighted>
-0.0000

> <Gold.Chemscore.Lipo.Weighted>
-9.0406

> <Gold.Chemscore.Internal_Hbond.Weighted>
0.0000

> <Gold.Chemscore.DEClash.Weighted>
1.7982

> <Gold.Chemscore.DEInternal.Weighted>
1.4434

> <Gold.Chemscore.Rot.Weighted>
3.3287

> <Gold.Chemscore.Internal.Correction.Weighted>
   9.000000E+99

> <Gold.Protein.RotatedTorsions>
[ 6907 6896 6895 6894 ] final  136.41 input  -60.11 | X-H torsion
[ 7974 7965 7964 7962 ] final  -16.11 input  175.53 | X-H torsion
[ 8008 7997 7996 7995 ] final  145.60 input   59.86 | X-H torsion
[ 10167 10162 10161 10158 ] final  -67.59 input  -65.29 | X-H torsion
[ 10718 10713 10712 10709 ] final   35.26 input   66.30 | X-H torsion
[ 10763 10752 10751 10750 ] final  -36.97 input  -60.55 | X-H torsion
[ 11005 11000 10999 10996 ] final  165.47 input  -57.11 | X-H torsion

> <Gold.Protein.ActiveResidues>
 VAL166  LYS551  ARG553  GLY616  TRP617  ASP618  TYR619  PRO620  LYS621  CYS622 
 ASP623  PHE694  ASN695  SER759  ASP760  ASP761  ALA762  ILE779  LEU786  VAL792 
 PHE793  MET794  SER795  GLU796  ALA797  LYS798  CYS799  TRP800  GLU811  SER814 

> <Gold.Protein.RotatedAtoms>
  152.2896  133.5548  159.5548 H   0  0  0  0  0  0  0  0  0  0  0  0  # atno 6907 bound_to 6896
  150.7230  134.0447  159.3787 H   0  0  0  0  0  0  0  0  0  0  0  0  # atno 6908 bound_to 6896
  151.8354  135.0608  160.0492 H   0  0  0  0  0  0  0  0  0  0  0  0  # atno 6909 bound_to 6896
  146.2002  140.3589  142.8426 H   0  0  0  0  0  0  0  0  0  0  0  0  # atno 7974 bound_to 7965
  156.2879  140.2205  156.5241 H   0  0  0  0  0  0  0  0  0  0  0  0  # atno 8008 bound_to 7997
  154.7503  140.0481  157.0910 H   0  0  0  0  0  0  0  0  0  0  0  0  # atno 8009 bound_to 7997
  155.0118  140.3114  155.4830 H   0  0  0  0  0  0  0  0  0  0  0  0  # atno 8010 bound_to 7997
  140.5572  143.2312  151.6799 H   0  0  0  0  0  0  0  0  0  0  0  0  # atno 10167 bound_to 10162
  157.3205  130.7445  149.6782 H   0  0  0  0  0  0  0  0  0  0  0  0  # atno 10718 bound_to 10713
  153.8885  135.6814  153.4762 H   0  0  0  0  0  0  0  0  0  0  0  0  # atno 10763 bound_to 10752
  153.1194  135.4746  154.9168 H   0  0  0  0  0  0  0  0  0  0  0  0  # atno 10764 bound_to 10752
  154.7634  135.3217  154.8287 H   0  0  0  0  0  0  0  0  0  0  0  0  # atno 10765 bound_to 10752
  140.2565  134.7936  157.3550 H   0  0  0  0  0  0  0  0  0  0  0  0  # atno 11005 bound_to 11000
  144.8667  140.7216  143.6073 LP  0  0  0  0  0  0  0  0  0  0  0  0  # atno 17320 bound_to 7965
  145.3509  139.1706  143.4435 LP  0  0  0  0  0  0  0  0  0  0  0  0  # atno 17321 bound_to 7965
  139.5053  144.3722  152.0459 LP  0  0  0  0  0  0  0  0  0  0  0  0  # atno 17342 bound_to 10162
  140.2845  144.3823  150.6108 LP  0  0  0  0  0  0  0  0  0  0  0  0  # atno 17343 bound_to 10162
  155.9685  130.4224  150.4517 LP  0  0  0  0  0  0  0  0  0  0  0  0  # atno 17370 bound_to 10713
  157.2531  131.0551  151.2367 LP  0  0  0  0  0  0  0  0  0  0  0  0  # atno 17371 bound_to 10713
  140.1506  134.4854  155.7964 LP  0  0  0  0  0  0  0  0  0  0  0  0  # atno 17394 bound_to 11000
  141.2195  133.6861  156.7372 LP  0  0  0  0  0  0  0  0  0  0  0  0  # atno 17395 bound_to 11000

$$$$
