AV-unprocessed.smi:3293|AV-procd|sdf|12632|dock3
  -GOLD-   2272018563D 1   1.00000     0.00000
 Structure written by MMmdl.
 44 45  0  0  0  0  0  0  0  0  2 V2000
  154.1837  140.5447  160.4703 C   0  0  0  0  0  0  0  0  0  0  0  0
  153.3608  141.8213  160.5267 C   0  0  0  0  0  0  0  0  0  0  0  0
  153.1603  142.4618  161.6953 C   0  0  0  0  0  0  0  0  0  0  0  0
  152.4058  143.7711  161.8485 C   0  0  0  0  0  0  0  0  0  0  0  0
  151.7254  144.2344  160.5494 C   0  0  0  0  0  0  0  0  0  0  0  0
  152.5781  143.9004  159.3131 C   0  0  2  0  0  0  0  0  0  0  0  0
  152.0244  144.5541  158.0352 C   0  0  0  0  0  0  0  0  0  0  0  0
  152.8192  142.3684  159.1995 C   0  0  2  0  0  0  0  0  0  0  0  0
  151.5672  141.5930  158.7113 C   0  0  0  0  0  0  0  0  0  0  0  0
  151.3259  141.7402  157.2625 N   0  3  0  0  0  0  0  0  0  0  0  0
  149.9132  141.5801  156.8674 C   0  0  0  0  0  0  0  0  0  0  0  0
  149.7976  140.9480  155.4745 C   0  0  0  0  0  0  0  0  0  0  0  0
  148.5261  141.3602  154.7873 C   0  0  0  0  0  0  0  0  0  0  0  0
  147.9515  140.8101  153.6058 C   0  0  0  0  0  0  0  0  0  0  0  0
  146.8173  141.3983  153.2632 N   0  0  0  0  0  0  0  0  0  0  0  0
  146.6296  142.3431  154.2074 N   0  0  0  0  0  0  0  0  0  0  0  0
  145.4618  143.1957  154.1424 C   0  0  0  0  0  0  0  0  0  0  0  0
  147.6443  142.3432  155.1400 C   0  0  0  0  0  0  0  0  0  0  0  0
  154.9285  140.6037  159.6764 H   0  0  0  0  0  0  0  0  0  0  0  0
  153.5562  139.6721  160.2978 H   0  0  0  0  0  0  0  0  0  0  0  0
  154.7151  140.3802  161.4084 H   0  0  0  0  0  0  0  0  0  0  0  0
  153.5804  142.0569  162.6047 H   0  0  0  0  0  0  0  0  0  0  0  0
  151.6679  143.6757  162.6454 H   0  0  0  0  0  0  0  0  0  0  0  0
  153.1244  144.5240  162.1740 H   0  0  0  0  0  0  0  0  0  0  0  0
  150.7460  143.7639  160.4597 H   0  0  0  0  0  0  0  0  0  0  0  0
  151.5382  145.3075  160.6051 H   0  0  0  0  0  0  0  0  0  0  0  0
  153.5565  144.3574  159.4739 H   0  0  0  0  0  0  0  0  0  0  0  0
  150.9843  144.2832  157.8544 H   0  0  0  0  0  0  0  0  0  0  0  0
  152.6082  144.2679  157.1599 H   0  0  0  0  0  0  0  0  0  0  0  0
  152.0619  145.6413  158.1110 H   0  0  0  0  0  0  0  0  0  0  0  0
  153.6046  142.2345  158.4539 H   0  0  0  0  0  0  0  0  0  0  0  0
  151.6620  140.5328  158.9486 H   0  0  0  0  0  0  0  0  0  0  0  0
  150.6722  141.9533  159.2166 H   0  0  0  0  0  0  0  0  0  0  0  0
  151.6369  142.6581  156.9781 H   0  0  0  0  0  0  0  0  0  0  0  0
  149.4023  140.9579  157.6039 H   0  0  0  0  0  0  0  0  0  0  0  0
  149.4264  142.5564  156.8752 H   0  0  0  0  0  0  0  0  0  0  0  0
  150.6635  141.2333  154.8754 H   0  0  0  0  0  0  0  0  0  0  0  0
  149.8450  139.8620  155.5655 H   0  0  0  0  0  0  0  0  0  0  0  0
  148.3225  140.0029  152.9912 H   0  0  0  0  0  0  0  0  0  0  0  0
  145.4748  143.9115  154.9649 H   0  0  0  0  0  0  0  0  0  0  0  0
  144.5576  142.5903  154.2142 H   0  0  0  0  0  0  0  0  0  0  0  0
  145.4548  143.7419  153.1986 H   0  0  0  0  0  0  0  0  0  0  0  0
  147.6540  143.0351  155.9695 H   0  0  0  0  0  0  0  0  0  0  0  0
  151.8763  141.0474  156.7751 H   0  0  0  0  0  0  0  0  0  0  0  0
  1  2  1  0  0  0  0
  1 19  1  0  0  0  0
  1 20  1  0  0  0  0
  1 21  1  0  0  0  0
  2  8  1  0  0  0  0
  2  3  2  0  0  0  0
  3  4  1  0  0  0  0
  3 22  1  0  0  0  0
  4  5  1  0  0  0  0
  4 23  1  0  0  0  0
  4 24  1  0  0  0  0
  5  6  1  0  0  0  0
  5 25  1  0  0  0  0
  5 26  1  0  0  0  0
  6  7  1  0  0  0  0
  6  8  1  0  0  0  0
  6 27  1  0  0  0  0
  7 28  1  0  0  0  0
  7 29  1  0  0  0  0
  7 30  1  0  0  0  0
  8  9  1  0  0  0  0
  8 31  1  0  0  0  0
  9 10  1  0  0  0  0
  9 32  1  0  0  0  0
  9 33  1  0  0  0  0
 10 11  1  0  0  0  0
 10 34  1  0  0  0  0
 10 44  1  0  0  0  0
 11 12  1  0  0  0  0
 11 35  1  0  0  0  0
 11 36  1  0  0  0  0
 12 13  1  0  0  0  0
 12 37  1  0  0  0  0
 12 38  1  0  0  0  0
 13 18  2  0  0  0  0
 13 14  1  0  0  0  0
 14 15  2  0  0  0  0
 14 39  1  0  0  0  0
 15 16  1  0  0  0  0
 16 17  1  0  0  0  0
 16 18  1  0  0  0  0
 17 40  1  0  0  0  0
 17 41  1  0  0  0  0
 17 42  1  0  0  0  0
 18 43  1  0  0  0  0
M  CHG  1  10   1
M  END
> <s_m_source_file>
AV-unprocessed.smi

> <i_m_source_file_index>
3293

> <i_lp_mmshare_version>
43012

> <i_f3d_flags>
0

> <s_epik_input>
W0NIM11DMT1bQ0hdW0NIMl1bQ0gyXVtDQEBIXShbQ0gzXSlbQ0BIXTFbQ0gyXVtOSF1bQ0gyXVtDSDJdYzJbY0hdbm4oW0NIM10pW2NIXTI=

> <s_epik_cmdline>
J2VwaWtfcHl0aG9uJywgJy1waCcsICc3LjAnLCAnLXRuJywgJzgnLCAnLW1hJywgJzIwMCcsICctbWV0YWxfYmluZGluZycsICctaW1hZScsICc8aW5maWxlLm1hZT4nLCAnLW9tYWUnLCAnPG91dGZpbGUubWFlPic=

> <r_lp_tautomer_probability>
1

> <r_epik_Ionization_Penalty>
0.000598621

> <r_epik_Ionization_Penalty_Charging>
0.000582095

> <r_epik_Ionization_Penalty_Neutral>
1.65262e-05

> <r_epik_State_Penalty>
-0

> <r_epik_Charging_Adjusted_Penalty>
0.000582095

> <i_epik_Tot_Q>
1

> <i_epik_Tot_abs_Q>
1

> <r_epik_Metal_State_Penalty>
-0

> <b_epik_Metal_Only>
0

> <s_lp_Force_Field>
OPLS_2005

> <r_lp_Energy>
11.2905

> <b_lp_Chiralities_Consistent>
1

> <s_lp_Variant>
AV-unprocessed.smi:3293-4

> <Gold.Version>
5.8.1

> <Gold.Id.Protein>
6NUR|6NUR_protein|mol2

> <Gold.PLP.Fitness>
52.2470

> <Gold.PLP.PLP>
-48.8115

> <Gold.PLP.part.hbond>
0.0000

> <Gold.PLP.part.metal>
0.0000

> <Gold.PLP.part.buried>
-0.4561

> <Gold.PLP.part.nonpolar>
-48.6941

> <Gold.PLP.part.repulsive>
0.2723

> <Gold.PLP.ligand.clash>
0.0000

> <Gold.PLP.ligand.torsion>
0.8251

> <Gold.PLP.Chemscore.Hbond>
0.0000

> <Gold.PLP.Chemscore.CHOScore>
1.6878

> <Gold.PLP.Chemscore.Metal>
0.0000

> <Gold.Chemscore.Hbonds>
donor molecule, donor type, donor heavy atom, donor atom, acceptor molecule, acceptor atom, score
      L1  C    14    39       P1  7957  1.00
      L1  C    18    43       P1  8028  0.66

> <Gold.PLP.Chemscore.Internal.Correction>
0.0222

> <Gold.Rescore>
     Score         DG    S(hbond)    S(metal)    S(lipo)     H(rot)  DE(clash)    DE(int)     intcor
     16.69     -17.48       0.00        0.00     135.09       1.48       0.04       0.75       ----

> <Gold.Chemscore.Fitness>
16.6913

> <Gold.Chemscore.DG>
-17.4845

> <Gold.Chemscore.ZeroCoef>
-5.4800

> <Gold.Chemscore.Hbond>
0.0000

> <Gold.Chemscore.Metal>
0.0000

> <Gold.Chemscore.Lipo>
135.0884

> <Gold.Chemscore.Internal_Hbond>
0.0000

> <Gold.Chemscore.DEClash>
0.0426

> <Gold.Chemscore.DEInternal>
0.7506

> <Gold.Chemscore.Rot>
1.4847

> <Gold.Chemscore.Internal.Correction>
   9.000000E+99

> <Gold.Chemscore.Hbond.Weighted>
-0.0000

> <Gold.Chemscore.Metal.Weighted>
-0.0000

> <Gold.Chemscore.Lipo.Weighted>
-15.8053

> <Gold.Chemscore.Internal_Hbond.Weighted>
0.0000

> <Gold.Chemscore.DEClash.Weighted>
0.0426

> <Gold.Chemscore.DEInternal.Weighted>
0.7506

> <Gold.Chemscore.Rot.Weighted>
3.8008

> <Gold.Chemscore.Internal.Correction.Weighted>
   9.000000E+99

> <Gold.Protein.RotatedTorsions>
[ 6907 6896 6895 6894 ] final  -90.62 input  -60.11 | X-H torsion
[ 7974 7965 7964 7962 ] final  141.43 input  175.53 | X-H torsion
[ 8008 7997 7996 7995 ] final -105.90 input   59.86 | X-H torsion
[ 10167 10162 10161 10158 ] final   89.20 input  -65.29 | X-H torsion
[ 10718 10713 10712 10709 ] final -167.16 input   66.30 | X-H torsion
[ 10763 10752 10751 10750 ] final   97.17 input  -60.55 | X-H torsion
[ 11005 11000 10999 10996 ] final   41.85 input  -57.11 | X-H torsion

> <Gold.Protein.ActiveResidues>
 VAL166  LYS551  ARG553  GLY616  TRP617  ASP618  TYR619  PRO620  LYS621  CYS622 
 ASP623  PHE694  ASN695  SER759  ASP760  ASP761  ALA762  ILE779  LEU786  VAL792 
 PHE793  MET794  SER795  GLU796  ALA797  LYS798  CYS799  TRP800  GLU811  SER814 

> <Gold.Protein.RotatedAtoms>
  150.6883  134.2404  159.4469 H   0  0  0  0  0  0  0  0  0  0  0  0  # atno 6907 bound_to 6896
  152.0349  134.9743  160.0582 H   0  0  0  0  0  0  0  0  0  0  0  0  # atno 6908 bound_to 6896
  152.1268  133.4350  159.4739 H   0  0  0  0  0  0  0  0  0  0  0  0  # atno 6909 bound_to 6896
  144.9097  139.5310  143.5714 H   0  0  0  0  0  0  0  0  0  0  0  0  # atno 7974 bound_to 7965
  154.9066  140.0411  157.1923 H   0  0  0  0  0  0  0  0  0  0  0  0  # atno 8008 bound_to 7997
  154.8390  140.2911  155.5650 H   0  0  0  0  0  0  0  0  0  0  0  0  # atno 8009 bound_to 7997
  156.2991  140.2486  156.3329 H   0  0  0  0  0  0  0  0  0  0  0  0  # atno 8010 bound_to 7997
  139.8596  144.6551  150.9074 H   0  0  0  0  0  0  0  0  0  0  0  0  # atno 10167 bound_to 10162
  156.6784  130.9112  151.3053 H   0  0  0  0  0  0  0  0  0  0  0  0  # atno 10718 bound_to 10713
  153.2737  135.4193  155.1012 H   0  0  0  0  0  0  0  0  0  0  0  0  # atno 10763 bound_to 10752
  154.8465  135.3478  154.6208 H   0  0  0  0  0  0  0  0  0  0  0  0  # atno 10764 bound_to 10752
  153.6629  135.7047  153.5229 H   0  0  0  0  0  0  0  0  0  0  0  0  # atno 10765 bound_to 10752
  140.1795  134.4122  155.8209 H   0  0  0  0  0  0  0  0  0  0  0  0  # atno 11005 bound_to 11000
  146.3152  139.7893  142.8989 LP  0  0  0  0  0  0  0  0  0  0  0  0  # atno 17320 bound_to 7965
  145.3476  141.0301  143.3357 LP  0  0  0  0  0  0  0  0  0  0  0  0  # atno 17321 bound_to 7965
  140.7777  143.3756  151.1570 LP  0  0  0  0  0  0  0  0  0  0  0  0  # atno 17342 bound_to 10162
  139.7387  143.8959  152.3043 LP  0  0  0  0  0  0  0  0  0  0  0  0  # atno 17343 bound_to 10162
  157.7052  130.9377  150.0910 LP  0  0  0  0  0  0  0  0  0  0  0  0  # atno 17370 bound_to 10713
  156.1886  130.3653  149.8939 LP  0  0  0  0  0  0  0  0  0  0  0  0  # atno 17371 bound_to 10713
  141.2222  133.6993  156.7905 LP  0  0  0  0  0  0  0  0  0  0  0  0  # atno 17394 bound_to 11000
  140.2284  134.8704  157.3451 LP  0  0  0  0  0  0  0  0  0  0  0  0  # atno 17395 bound_to 11000

$$$$
