AV-unprocessed.smi:2714|AV-procd|sdf|10480|dock3
  -GOLD-   2272014523D 1   1.00000     0.00000
 Structure written by MMmdl.
 46 47  0  0  0  0  0  0  0  0  1 V2000
  153.1972  142.5379  162.9801 C   0  0  0  0  0  0  0  0  0  0  0  0
  152.9856  142.2281  161.4942 C   0  0  0  0  0  0  0  0  0  0  0  0
  152.6811  143.4908  160.6676 C   0  0  0  0  0  0  0  0  0  0  0  0
  152.5996  143.2478  159.1445 C   0  0  2  0  0  0  0  0  0  0  0  0
  152.6131  144.5793  158.3739 C   0  0  0  0  0  0  0  0  0  0  0  0
  151.3590  142.4279  158.7597 C   0  0  0  0  0  0  0  0  0  0  0  0
  150.2307  142.8468  159.0198 O   0  0  0  0  0  0  0  0  0  0  0  0
  151.5848  141.2654  158.1301 N   0  0  0  0  0  0  0  0  0  0  0  0
  150.5515  140.3784  157.6069 C   0  0  0  0  0  0  0  0  0  0  0  0
  150.9443  139.6878  156.3047 C   0  0  0  0  0  0  0  0  0  0  0  0
  152.2081  139.0685  156.2010 C   0  0  0  0  0  0  0  0  0  0  0  0
  152.5635  138.4301  154.9989 C   0  0  0  0  0  0  0  0  0  0  0  0
  151.6366  138.4362  153.9404 C   0  0  0  0  0  0  0  0  0  0  0  0
  150.4260  139.0263  154.0214 N   0  0  0  0  0  0  0  0  0  0  0  0
  150.0812  139.6413  155.1787 C   0  0  0  0  0  0  0  0  0  0  0  0
  148.8156  140.2457  155.2331 N   0  0  0  0  0  0  0  0  0  0  0  0
  148.6616  141.3966  154.3545 C   0  0  0  0  0  0  0  0  0  0  0  0
  147.3101  142.0798  154.6275 C   0  0  0  0  0  0  0  0  0  0  0  0
  146.2546  141.1323  154.4833 O   0  0  0  0  0  0  0  0  0  0  0  0
  146.3801  140.0431  155.3941 C   0  0  0  0  0  0  0  0  0  0  0  0
  147.7054  139.3074  155.1352 C   0  0  0  0  0  0  0  0  0  0  0  0
  153.4078  141.6271  163.5405 H   0  0  0  0  0  0  0  0  0  0  0  0
  152.3108  142.9997  163.4156 H   0  0  0  0  0  0  0  0  0  0  0  0
  154.0362  143.2190  163.1254 H   0  0  0  0  0  0  0  0  0  0  0  0
  153.8773  141.7392  161.1005 H   0  0  0  0  0  0  0  0  0  0  0  0
  152.1713  141.5094  161.3979 H   0  0  0  0  0  0  0  0  0  0  0  0
  151.7532  143.9428  161.0217 H   0  0  0  0  0  0  0  0  0  0  0  0
  153.4622  144.2270  160.8618 H   0  0  0  0  0  0  0  0  0  0  0  0
  153.4877  142.6898  158.8415 H   0  0  0  0  0  0  0  0  0  0  0  0
  152.5384  144.4189  157.2978 H   0  0  0  0  0  0  0  0  0  0  0  0
  153.5386  145.1257  158.5566 H   0  0  0  0  0  0  0  0  0  0  0  0
  151.7854  145.2243  158.6723 H   0  0  0  0  0  0  0  0  0  0  0  0
  152.5430  140.9949  157.9628 H   0  0  0  0  0  0  0  0  0  0  0  0
  150.3466  139.6128  158.3556 H   0  0  0  0  0  0  0  0  0  0  0  0
  149.6215  140.9346  157.4781 H   0  0  0  0  0  0  0  0  0  0  0  0
  152.8976  139.0775  157.0325 H   0  0  0  0  0  0  0  0  0  0  0  0
  153.5228  137.9459  154.8917 H   0  0  0  0  0  0  0  0  0  0  0  0
  151.8735  137.9549  153.0032 H   0  0  0  0  0  0  0  0  0  0  0  0
  149.4791  142.0998  154.5185 H   0  0  0  0  0  0  0  0  0  0  0  0
  148.7125  141.0748  153.3135 H   0  0  0  0  0  0  0  0  0  0  0  0
  147.2892  142.5109  155.6297 H   0  0  0  0  0  0  0  0  0  0  0  0
  147.1530  142.8980  153.9245 H   0  0  0  0  0  0  0  0  0  0  0  0
  146.3316  140.4061  156.4222 H   0  0  0  0  0  0  0  0  0  0  0  0
  145.5390  139.3639  155.2560 H   0  0  0  0  0  0  0  0  0  0  0  0
  147.6911  138.8535  154.1433 H   0  0  0  0  0  0  0  0  0  0  0  0
  147.8362  138.5017  155.8581 H   0  0  0  0  0  0  0  0  0  0  0  0
  1  2  1  0  0  0  0
  1 22  1  0  0  0  0
  1 23  1  0  0  0  0
  1 24  1  0  0  0  0
  2  3  1  0  0  0  0
  2 25  1  0  0  0  0
  2 26  1  0  0  0  0
  3  4  1  0  0  0  0
  3 27  1  0  0  0  0
  3 28  1  0  0  0  0
  4  5  1  0  0  0  0
  4  6  1  0  0  0  0
  4 29  1  0  0  0  0
  5 30  1  0  0  0  0
  5 31  1  0  0  0  0
  5 32  1  0  0  0  0
  6  7  2  0  0  0  0
  6  8  1  0  0  0  0
  8  9  1  0  0  0  0
  8 33  1  0  0  0  0
  9 10  1  0  0  0  0
  9 34  1  0  0  0  0
  9 35  1  0  0  0  0
 10 15  1  0  0  0  0
 10 11  2  0  0  0  0
 11 12  1  0  0  0  0
 11 36  1  0  0  0  0
 12 13  2  0  0  0  0
 12 37  1  0  0  0  0
 13 14  1  0  0  0  0
 13 38  1  0  0  0  0
 14 15  2  0  0  0  0
 15 16  1  0  0  0  0
 16 21  1  0  0  0  0
 16 17  1  0  0  0  0
 17 18  1  0  0  0  0
 17 39  1  0  0  0  0
 17 40  1  0  0  0  0
 18 19  1  0  0  0  0
 18 41  1  0  0  0  0
 18 42  1  0  0  0  0
 19 20  1  0  0  0  0
 20 21  1  0  0  0  0
 20 43  1  0  0  0  0
 20 44  1  0  0  0  0
 21 45  1  0  0  0  0
 21 46  1  0  0  0  0
M  END
> <s_m_source_file>
AV-unprocessed.smi

> <i_m_source_file_index>
2714

> <i_lp_mmshare_version>
43012

> <i_f3d_flags>
0

> <s_epik_input>
W0NIM11bQ0gyXVtDSDJdW0NASF0oW0NIM10pQyg9TylbTkhdW0NIMl1jMVtjSF1bY0hdW2NIXW5jMU4yW0NIMl1bQ0gyXU9bQ0gyXVtDSDJdMg==

> <s_epik_cmdline>
J2VwaWtfcHl0aG9uJywgJy1waCcsICc3LjAnLCAnLXRuJywgJzgnLCAnLW1hJywgJzIwMCcsICctbWV0YWxfYmluZGluZycsICctaW1hZScsICc8aW5maWxlLm1hZT4nLCAnLW9tYWUnLCAnPG91dGZpbGUubWFlPic=

> <r_lp_tautomer_probability>
1

> <r_epik_Ionization_Penalty>
0.00517355

> <r_epik_Ionization_Penalty_Charging>
0

> <r_epik_Ionization_Penalty_Neutral>
0.00517355

> <r_epik_State_Penalty>
0.00376978

> <r_epik_Charging_Adjusted_Penalty>
0.00376978

> <i_epik_Tot_Q>
0

> <i_epik_Tot_abs_Q>
0

> <r_epik_Metal_State_Penalty>
-0

> <b_epik_Metal_Only>
0

> <s_lp_Force_Field>
OPLS_2005

> <r_lp_Energy>
18.1949

> <b_lp_Chiralities_Consistent>
1

> <s_lp_Variant>
AV-unprocessed.smi:2714-1

> <Gold.Version>
5.8.1

> <Gold.Id.Protein>
6NUR|6NUR_protein|mol2

> <Gold.PLP.Fitness>
45.5799

> <Gold.PLP.PLP>
-43.2740

> <Gold.PLP.part.hbond>
-0.1229

> <Gold.PLP.part.metal>
0.0000

> <Gold.PLP.part.buried>
-7.0137

> <Gold.PLP.part.nonpolar>
-37.2533

> <Gold.PLP.part.repulsive>
0.6102

> <Gold.PLP.ligand.clash>
0.0000

> <Gold.PLP.ligand.torsion>
0.4680

> <Gold.PLP.Chemscore.Hbond>
0.0102

> <Gold.PLP.Chemscore.CHOScore>
1.0000

> <Gold.PLP.Chemscore.Metal>
0.0000

> <Gold.Chemscore.Hbonds>
donor molecule, donor type, donor heavy atom, donor atom, acceptor molecule, acceptor atom, score
      P1  H  7989  7998       L1    14  0.02
      L1  C    13    38       P1  7949  0.90

> <Gold.PLP.Chemscore.Internal.Correction>
0.2112

> <Gold.Rescore>
     Score         DG    S(hbond)    S(metal)    S(lipo)     H(rot)  DE(clash)    DE(int)     intcor
     13.77     -14.45       0.00        0.00     114.30       1.72       0.08       0.60       ----

> <Gold.Chemscore.Fitness>
13.7741

> <Gold.Chemscore.DG>
-14.4522

> <Gold.Chemscore.ZeroCoef>
-5.4800

> <Gold.Chemscore.Hbond>
0.0000

> <Gold.Chemscore.Metal>
0.0000

> <Gold.Chemscore.Lipo>
114.3021

> <Gold.Chemscore.Internal_Hbond>
0.0000

> <Gold.Chemscore.DEClash>
0.0775

> <Gold.Chemscore.DEInternal>
0.6006

> <Gold.Chemscore.Rot>
1.7192

> <Gold.Chemscore.Internal.Correction>
   9.000000E+99

> <Gold.Chemscore.Hbond.Weighted>
-0.0000

> <Gold.Chemscore.Metal.Weighted>
-0.0000

> <Gold.Chemscore.Lipo.Weighted>
-13.3733

> <Gold.Chemscore.Internal_Hbond.Weighted>
0.0000

> <Gold.Chemscore.DEClash.Weighted>
0.0775

> <Gold.Chemscore.DEInternal.Weighted>
0.6006

> <Gold.Chemscore.Rot.Weighted>
4.4011

> <Gold.Chemscore.Internal.Correction.Weighted>
   9.000000E+99

> <Gold.Protein.RotatedTorsions>
[ 6907 6896 6895 6894 ] final -104.59 input  -60.11 | X-H torsion
[ 7974 7965 7964 7962 ] final  -70.37 input  175.53 | X-H torsion
[ 8008 7997 7996 7995 ] final  156.84 input   59.86 | X-H torsion
[ 10167 10162 10161 10158 ] final -140.23 input  -65.29 | X-H torsion
[ 10718 10713 10712 10709 ] final   45.14 input   66.30 | X-H torsion
[ 10763 10752 10751 10750 ] final   77.34 input  -60.55 | X-H torsion
[ 11005 11000 10999 10996 ] final  -12.56 input  -57.11 | X-H torsion

> <Gold.Protein.ActiveResidues>
 VAL166  LYS551  ARG553  GLY616  TRP617  ASP618  TYR619  PRO620  LYS621  CYS622 
 ASP623  PHE694  ASN695  SER759  ASP760  ASP761  ALA762  ILE779  LEU786  VAL792 
 PHE793  MET794  SER795  GLU796  ALA797  LYS798  CYS799  TRP800  GLU811  SER814 

> <Gold.Protein.RotatedAtoms>
  150.7294  134.0255  159.3715 H   0  0  0  0  0  0  0  0  0  0  0  0  # atno 6907 bound_to 6896
  151.8222  135.0646  160.0436 H   0  0  0  0  0  0  0  0  0  0  0  0  # atno 6908 bound_to 6896
  152.2995  133.5605  159.5646 H   0  0  0  0  0  0  0  0  0  0  0  0  # atno 6909 bound_to 6896
  145.6918  140.9150  143.0778 H   0  0  0  0  0  0  0  0  0  0  0  0  # atno 7974 bound_to 7965
  156.2399  140.1901  156.7017 H   0  0  0  0  0  0  0  0  0  0  0  0  # atno 8008 bound_to 7997
  154.6177  140.0613  156.9602 H   0  0  0  0  0  0  0  0  0  0  0  0  # atno 8009 bound_to 7997
  155.1912  140.3284  155.4361 H   0  0  0  0  0  0  0  0  0  0  0  0  # atno 8010 bound_to 7997
  139.8302  143.7457  152.2666 H   0  0  0  0  0  0  0  0  0  0  0  0  # atno 10167 bound_to 10162
  157.4344  130.8044  149.7633 H   0  0  0  0  0  0  0  0  0  0  0  0  # atno 10718 bound_to 10713
  153.0791  135.4918  154.8467 H   0  0  0  0  0  0  0  0  0  0  0  0  # atno 10763 bound_to 10752
  154.7128  135.3023  154.9173 H   0  0  0  0  0  0  0  0  0  0  0  0  # atno 10764 bound_to 10752
  153.9862  135.6784  153.4805 H   0  0  0  0  0  0  0  0  0  0  0  0  # atno 10765 bound_to 10752
  140.7670  133.8469  155.9173 H   0  0  0  0  0  0  0  0  0  0  0  0  # atno 11005 bound_to 11000
  144.6994  139.8831  143.7448 LP  0  0  0  0  0  0  0  0  0  0  0  0  # atno 17320 bound_to 7965
  146.0875  139.3864  143.0426 LP  0  0  0  0  0  0  0  0  0  0  0  0  # atno 17321 bound_to 7965
  139.7662  144.7491  151.0290 LP  0  0  0  0  0  0  0  0  0  0  0  0  # atno 17342 bound_to 10162
  140.7807  143.4695  151.0166 LP  0  0  0  0  0  0  0  0  0  0  0  0  # atno 17343 bound_to 10162
  155.9925  130.3930  150.2940 LP  0  0  0  0  0  0  0  0  0  0  0  0  # atno 17370 bound_to 10713
  157.1100  131.0218  151.3052 LP  0  0  0  0  0  0  0  0  0  0  0  0  # atno 17371 bound_to 10713
  140.9610  134.1656  157.4654 LP  0  0  0  0  0  0  0  0  0  0  0  0  # atno 17394 bound_to 11000
  139.8761  134.9944  156.5695 LP  0  0  0  0  0  0  0  0  0  0  0  0  # atno 17395 bound_to 11000

$$$$
