AV-unprocessed.smi:553|AV-procd|sdf|2905|dock6
  -GOLD-   2262023393D 1   1.00000     0.00000
 Structure written by MMmdl.
 43 45  0  0  0  0  0  0  0  0  1 V2000
  150.0874  135.0950  157.5223 O   0  0  0  0  0  0  0  0  0  0  0  0
  150.4039  135.3759  156.3685 C   0  0  0  0  0  0  0  0  0  0  0  0
  150.9182  136.5586  155.9776 N   0  0  0  0  0  0  0  0  0  0  0  0
  151.2449  137.6980  156.7617 C   0  0  0  0  0  0  0  0  0  0  0  0
  150.7405  137.9526  158.0595 C   0  0  0  0  0  0  0  0  0  0  0  0
  151.1605  139.1135  158.7370 C   0  0  0  0  0  0  0  0  0  0  0  0
  152.0750  139.9795  158.1034 C   0  0  0  0  0  0  0  0  0  0  0  0
  152.4944  141.1367  158.7749 N   0  0  0  0  0  0  0  0  0  0  0  0
  153.0705  140.8681  160.0865 C   0  0  0  0  0  0  0  0  0  0  0  0
  153.6211  142.1695  160.6953 C   0  0  0  0  0  0  0  0  0  0  0  0
  152.5867  143.1482  160.7475 O   0  0  0  0  0  0  0  0  0  0  0  0
  152.0769  143.4581  159.4533 C   0  0  0  0  0  0  0  0  0  0  0  0
  151.4863  142.1891  158.8146 C   0  0  0  0  0  0  0  0  0  0  0  0
  152.5696  139.7372  156.8665 N   0  0  0  0  0  0  0  0  0  0  0  0
  152.1629  138.6229  156.2225 C   0  0  0  0  0  0  0  0  0  0  0  0
  150.2264  134.4951  155.3673 N   0  0  0  0  0  0  0  0  0  0  0  0
  149.6942  133.1334  155.4408 C   0  0  1  0  0  0  0  0  0  0  0  0
  149.4839  132.5460  154.0328 C   0  0  0  0  0  0  0  0  0  0  0  0
  149.2669  131.0327  154.1590 C   0  0  0  0  0  0  0  0  0  0  0  0
  150.2286  130.5024  155.6269 S   0  0  0  0  0  0  0  0  0  0  0  0
  149.3154  129.8684  156.5897 O   0  0  0  0  0  0  0  0  0  0  0  0
  151.4618  129.8279  155.1940 O   0  0  0  0  0  0  0  0  0  0  0  0
  150.6411  132.1916  156.2024 C   0  0  0  0  0  0  0  0  0  0  0  0
  151.0557  136.6691  154.9836 H   0  0  0  0  0  0  0  0  0  0  0  0
  150.0556  137.2830  158.5551 H   0  0  0  0  0  0  0  0  0  0  0  0
  150.7893  139.3297  159.7282 H   0  0  0  0  0  0  0  0  0  0  0  0
  152.3098  140.4454  160.7446 H   0  0  0  0  0  0  0  0  0  0  0  0
  153.8675  140.1290  159.9965 H   0  0  0  0  0  0  0  0  0  0  0  0
  153.9888  141.9864  161.7051 H   0  0  0  0  0  0  0  0  0  0  0  0
  154.4630  142.5463  160.1123 H   0  0  0  0  0  0  0  0  0  0  0  0
  151.3081  144.2249  159.5478 H   0  0  0  0  0  0  0  0  0  0  0  0
  152.8691  143.8753  158.8294 H   0  0  0  0  0  0  0  0  0  0  0  0
  151.1367  142.4048  157.8041 H   0  0  0  0  0  0  0  0  0  0  0  0
  150.6230  141.8537  159.3914 H   0  0  0  0  0  0  0  0  0  0  0  0
  152.5843  138.4668  155.2400 H   0  0  0  0  0  0  0  0  0  0  0  0
  150.4726  134.8174  154.4424 H   0  0  0  0  0  0  0  0  0  0  0  0
  148.7228  133.1374  155.9389 H   0  0  0  0  0  0  0  0  0  0  0  0
  148.6547  133.0258  153.5119 H   0  0  0  0  0  0  0  0  0  0  0  0
  150.3792  132.7198  153.4339 H   0  0  0  0  0  0  0  0  0  0  0  0
  148.2169  130.8074  154.3465 H   0  0  0  0  0  0  0  0  0  0  0  0
  149.5892  130.4807  153.2759 H   0  0  0  0  0  0  0  0  0  0  0  0
  151.6824  132.3850  155.9420 H   0  0  0  0  0  0  0  0  0  0  0  0
  150.5360  132.2548  157.2855 H   0  0  0  0  0  0  0  0  0  0  0  0
  1  2  2  0  0  0  0
  2  3  1  0  0  0  0
  2 16  1  0  0  0  0
  3  4  1  0  0  0  0
  3 24  1  0  0  0  0
  4 15  1  0  0  0  0
  4  5  2  0  0  0  0
  5  6  1  0  0  0  0
  5 25  1  0  0  0  0
  6  7  2  0  0  0  0
  6 26  1  0  0  0  0
  7  8  1  0  0  0  0
  7 14  1  0  0  0  0
  8 13  1  0  0  0  0
  8  9  1  0  0  0  0
  9 10  1  0  0  0  0
  9 27  1  0  0  0  0
  9 28  1  0  0  0  0
 10 11  1  0  0  0  0
 10 29  1  0  0  0  0
 10 30  1  0  0  0  0
 11 12  1  0  0  0  0
 12 13  1  0  0  0  0
 12 31  1  0  0  0  0
 12 32  1  0  0  0  0
 13 33  1  0  0  0  0
 13 34  1  0  0  0  0
 14 15  2  0  0  0  0
 15 35  1  0  0  0  0
 16 17  1  0  0  0  0
 16 36  1  0  0  0  0
 17 23  1  0  0  0  0
 17 18  1  0  0  0  0
 17 37  1  0  0  0  0
 18 19  1  0  0  0  0
 18 38  1  0  0  0  0
 18 39  1  0  0  0  0
 19 20  1  0  0  0  0
 19 40  1  0  0  0  0
 19 41  1  0  0  0  0
 20 21  2  0  0  0  0
 20 22  2  0  0  0  0
 20 23  1  0  0  0  0
 23 42  1  0  0  0  0
 23 43  1  0  0  0  0
M  END
> <s_m_source_file>
AV-unprocessed.smi

> <i_m_source_file_index>
553

> <i_lp_mmshare_version>
43012

> <i_f3d_flags>
0

> <s_epik_input>
Tz1TMSg9TylbQ0gyXVtDSDJdW0NASF0oW0NIMl0xKVtOSF1DKD1PKVtOSF1jMltjSF1bY0hdYyhuW2NIXTIpTjNbQ0gyXVtDSDJdT1tDSDJdW0NIMl0z

> <s_epik_cmdline>
J2VwaWtfcHl0aG9uJywgJy1waCcsICc3LjAnLCAnLXRuJywgJzgnLCAnLW1hJywgJzIwMCcsICctbWV0YWxfYmluZGluZycsICctaW1hZScsICc8aW5maWxlLm1hZT4nLCAnLW9tYWUnLCAnPG91dGZpbGUubWFlPic=

> <r_lp_tautomer_probability>
1

> <r_epik_Ionization_Penalty>
0.00171806

> <r_epik_Ionization_Penalty_Charging>
0

> <r_epik_Ionization_Penalty_Neutral>
0.00171806

> <r_epik_State_Penalty>
0.00114322

> <r_epik_Charging_Adjusted_Penalty>
0.00114322

> <i_epik_Tot_Q>
0

> <i_epik_Tot_abs_Q>
0

> <r_epik_Metal_State_Penalty>
-0

> <b_epik_Metal_Only>
0

> <s_lp_Force_Field>
OPLS_2005

> <r_lp_Energy>
34.1165

> <b_lp_Chiralities_Consistent>
1

> <s_lp_Variant>
AV-unprocessed.smi:553-2

> <Gold.Version>
5.8.1

> <Gold.Id.Protein>
6NUR|6NUR_protein|mol2

> <Gold.PLP.Fitness>
38.5892

> <Gold.PLP.PLP>
-34.2290

> <Gold.PLP.part.hbond>
-2.0000

> <Gold.PLP.part.metal>
0.0000

> <Gold.PLP.part.buried>
-7.0406

> <Gold.PLP.part.nonpolar>
-26.1406

> <Gold.PLP.part.repulsive>
0.2629

> <Gold.PLP.ligand.clash>
0.0000

> <Gold.PLP.ligand.torsion>
0.3445

> <Gold.PLP.Chemscore.Hbond>
1.6484

> <Gold.PLP.Chemscore.CHOScore>
0.0000

> <Gold.PLP.Chemscore.Metal>
0.0000

> <Gold.Chemscore.Hbonds>
donor molecule, donor type, donor heavy atom, donor atom, acceptor molecule, acceptor atom, score
      P1  H  6896  6907       L1     1  0.59
      P1  H  7997  8009       L1    14  0.99

> <Gold.PLP.Chemscore.Internal.Correction>
0.1038

> <Gold.Rescore>
     Score         DG    S(hbond)    S(metal)    S(lipo)     H(rot)  DE(clash)    DE(int)     intcor
     15.65     -17.07       1.74        0.00      77.08       1.27       0.00       1.42       ----

> <Gold.Chemscore.Fitness>
15.6504

> <Gold.Chemscore.DG>
-17.0726

> <Gold.Chemscore.ZeroCoef>
-5.4800

> <Gold.Chemscore.Hbond>
1.7444

> <Gold.Chemscore.Metal>
0.0000

> <Gold.Chemscore.Lipo>
77.0805

> <Gold.Chemscore.Internal_Hbond>
0.0000

> <Gold.Chemscore.DEClash>
0.0000

> <Gold.Chemscore.DEInternal>
1.4222

> <Gold.Chemscore.Rot>
1.2703

> <Gold.Chemscore.Internal.Correction>
   9.000000E+99

> <Gold.Chemscore.Hbonds>
donor molecule, donor type, donor heavy atom, donor atom, acceptor molecule, acceptor atom, score
      P1  H  6896  6907       L1     1  0.58
      P1  H  7997  8009       L1    14  0.61

> <Gold.Chemscore.Hbond.Weighted>
-5.8262

> <Gold.Chemscore.Metal.Weighted>
-0.0000

> <Gold.Chemscore.Lipo.Weighted>
-9.0184

> <Gold.Chemscore.Internal_Hbond.Weighted>
0.0000

> <Gold.Chemscore.DEClash.Weighted>
0.0000

> <Gold.Chemscore.DEInternal.Weighted>
1.4222

> <Gold.Chemscore.Rot.Weighted>
3.2520

> <Gold.Chemscore.Internal.Correction.Weighted>
   9.000000E+99

> <Gold.Protein.RotatedTorsions>
[ 6907 6896 6895 6894 ] final  -82.65 input  -60.11 | X-H torsion
[ 7974 7965 7964 7962 ] final   37.89 input  175.53 | X-H torsion
[ 8008 7997 7996 7995 ] final -155.46 input   59.86 | X-H torsion
[ 10167 10162 10161 10158 ] final  -82.39 input  -65.29 | X-H torsion
[ 10718 10713 10712 10709 ] final -178.36 input   66.30 | X-H torsion
[ 10763 10752 10751 10750 ] final  111.09 input  -60.55 | X-H torsion
[ 11005 11000 10999 10996 ] final   75.11 input  -57.11 | X-H torsion

> <Gold.Protein.ActiveResidues>
 VAL166  LYS551  ARG553  GLY616  TRP617  ASP618  TYR619  PRO620  LYS621  CYS622 
 ASP623  PHE694  ASN695  SER759  ASP760  ASP761  ALA762  ILE779  LEU786  VAL792 
 PHE793  MET794  SER795  GLU796  ALA797  LYS798  CYS799  TRP800  GLU811  SER814 

> <Gold.Protein.RotatedAtoms>
  150.6894  134.3632  159.4959 H   0  0  0  0  0  0  0  0  0  0  0  0  # atno 6907 bound_to 6896
  152.1458  134.9024  160.0560 H   0  0  0  0  0  0  0  0  0  0  0  0  # atno 6908 bound_to 6896
  152.0140  133.3838  159.4268 H   0  0  0  0  0  0  0  0  0  0  0  0  # atno 6909 bound_to 6896
  146.1103  139.5839  142.9356 H   0  0  0  0  0  0  0  0  0  0  0  0  # atno 7974 bound_to 7965
  155.7022  140.0768  157.2405 H   0  0  0  0  0  0  0  0  0  0  0  0  # atno 8008 bound_to 7997
  154.4071  140.1645  156.2257 H   0  0  0  0  0  0  0  0  0  0  0  0  # atno 8009 bound_to 7997
  155.9357  140.3388  155.6289 H   0  0  0  0  0  0  0  0  0  0  0  0  # atno 8010 bound_to 7997
  140.4324  143.2544  151.8741 H   0  0  0  0  0  0  0  0  0  0  0  0  # atno 10167 bound_to 10162
  156.8432  130.9693  151.3098 H   0  0  0  0  0  0  0  0  0  0  0  0  # atno 10718 bound_to 10713
  153.4583  135.3728  155.2323 H   0  0  0  0  0  0  0  0  0  0  0  0  # atno 10763 bound_to 10752
  154.8757  135.3902  154.3956 H   0  0  0  0  0  0  0  0  0  0  0  0  # atno 10764 bound_to 10752
  153.4525  135.7086  153.6164 H   0  0  0  0  0  0  0  0  0  0  0  0  # atno 10765 bound_to 10752
  139.9359  134.7490  156.1231 H   0  0  0  0  0  0  0  0  0  0  0  0  # atno 11005 bound_to 11000
  145.5676  141.0397  143.2191 LP  0  0  0  0  0  0  0  0  0  0  0  0  # atno 17320 bound_to 7965
  144.7506  139.7204  143.7274 LP  0  0  0  0  0  0  0  0  0  0  0  0  # atno 17321 bound_to 7965
  139.4785  144.5320  151.8652 LP  0  0  0  0  0  0  0  0  0  0  0  0  # atno 17342 bound_to 10162
  140.4412  144.1983  150.5891 LP  0  0  0  0  0  0  0  0  0  0  0  0  # atno 17343 bound_to 10162
  157.6344  130.8755  149.9332 LP  0  0  0  0  0  0  0  0  0  0  0  0  # atno 17370 bound_to 10713
  156.0869  130.3667  150.0470 LP  0  0  0  0  0  0  0  0  0  0  0  0  # atno 17371 bound_to 10713
  141.0972  133.6691  156.2671 LP  0  0  0  0  0  0  0  0  0  0  0  0  # atno 17394 bound_to 11000
  140.6078  134.5489  157.5528 LP  0  0  0  0  0  0  0  0  0  0  0  0  # atno 17395 bound_to 11000

$$$$
