AV-unprocessed.smi:3303|AV-procd|sdf|12660|dock7
  -GOLD-   2272018593D 1   1.00000     0.00000
 Structure written by MMmdl.
 45 46  0  0  0  0  0  0  0  0  3 V2000
  152.7050  138.4138  154.6047 C   0  0  0  0  0  0  0  0  0  0  0  0
  151.2435  138.0315  154.3160 C   0  0  1  0  0  0  0  0  0  0  0  0
  150.8887  136.6326  154.8594 C   0  0  0  0  0  0  0  0  0  0  0  0
  149.5082  136.2436  154.4742 N   0  3  1  0  0  0  0  0  0  0  0  0
  149.2047  134.8257  154.7750 C   0  0  0  0  0  0  0  0  0  0  0  0
  148.4672  137.2050  154.9391 C   0  0  1  0  0  0  0  0  0  0  0  0
  148.1822  137.1247  156.4550 C   0  0  0  0  0  0  0  0  0  0  0  0
  148.7978  138.6361  154.4544 C   0  0  0  0  0  0  0  0  0  0  0  0
  150.2341  139.1010  154.7919 C   0  0  1  0  0  0  0  0  0  0  0  0
  150.4121  139.4218  156.2295 N   0  3  0  0  0  0  0  0  0  0  0  0
  151.1822  140.6494  156.5180 C   0  0  0  0  0  0  0  0  0  0  0  0
  151.3743  140.8317  158.0293 C   0  0  0  0  0  0  0  0  0  0  0  0
  151.6573  142.2753  158.3976 C   0  0  0  0  0  0  0  0  0  0  0  0
  152.3679  142.5952  159.5741 C   0  0  0  0  0  0  0  0  0  0  0  0
  152.6085  143.9527  159.8632 C   0  0  0  0  0  0  0  0  0  0  0  0
  152.1332  144.9311  158.9688 C   0  0  0  0  0  0  0  0  0  0  0  0
  151.4351  144.5078  157.8203 C   0  0  0  0  0  0  0  0  0  0  0  0
  151.1997  143.2088  157.5333 N   0  0  0  0  0  0  0  0  0  0  0  0
  152.9158  138.4360  155.6742 H   0  0  0  0  0  0  0  0  0  0  0  0
  152.9425  139.3967  154.1962 H   0  0  0  0  0  0  0  0  0  0  0  0
  153.3915  137.6978  154.1517 H   0  0  0  0  0  0  0  0  0  0  0  0
  151.1543  137.9776  153.2295 H   0  0  0  0  0  0  0  0  0  0  0  0
  151.5866  135.9017  154.4481 H   0  0  0  0  0  0  0  0  0  0  0  0
  151.0050  136.5937  155.9430 H   0  0  0  0  0  0  0  0  0  0  0  0
  149.2922  134.6141  155.8412 H   0  0  0  0  0  0  0  0  0  0  0  0
  149.8972  134.1701  154.2464 H   0  0  0  0  0  0  0  0  0  0  0  0
  148.1952  134.5684  154.4524 H   0  0  0  0  0  0  0  0  0  0  0  0
  147.5395  136.9205  154.4400 H   0  0  0  0  0  0  0  0  0  0  0  0
  147.4676  137.8917  156.7552 H   0  0  0  0  0  0  0  0  0  0  0  0
  149.0773  137.2566  157.0608 H   0  0  0  0  0  0  0  0  0  0  0  0
  147.7437  136.1648  156.7281 H   0  0  0  0  0  0  0  0  0  0  0  0
  148.6925  138.6514  153.3687 H   0  0  0  0  0  0  0  0  0  0  0  0
  148.0517  139.3429  154.8165 H   0  0  0  0  0  0  0  0  0  0  0  0
  150.4375  140.0176  154.2357 H   0  0  0  0  0  0  0  0  0  0  0  0
  149.5047  139.4931  156.6670 H   0  0  0  0  0  0  0  0  0  0  0  0
  152.1538  140.5916  156.0257 H   0  0  0  0  0  0  0  0  0  0  0  0
  150.6634  141.5166  156.1103 H   0  0  0  0  0  0  0  0  0  0  0  0
  150.4815  140.5016  158.5631 H   0  0  0  0  0  0  0  0  0  0  0  0
  152.1931  140.2031  158.3820 H   0  0  0  0  0  0  0  0  0  0  0  0
  152.7213  141.8226  160.2416 H   0  0  0  0  0  0  0  0  0  0  0  0
  153.1484  144.2376  160.7543 H   0  0  0  0  0  0  0  0  0  0  0  0
  152.2991  145.9815  159.1586 H   0  0  0  0  0  0  0  0  0  0  0  0
  151.0564  145.2306  157.1130 H   0  0  0  0  0  0  0  0  0  0  0  0
  150.9115  138.6529  156.6542 H   0  0  0  0  0  0  0  0  0  0  0  0
  149.4884  136.3047  153.4658 H   0  0  0  0  0  0  0  0  0  0  0  0
  1  2  1  0  0  0  0
  1 19  1  0  0  0  0
  1 20  1  0  0  0  0
  1 21  1  0  0  0  0
  2  9  1  0  0  0  0
  2  3  1  0  0  0  0
  2 22  1  0  0  0  0
  3  4  1  0  0  0  0
  3 23  1  0  0  0  0
  3 24  1  0  0  0  0
  4  5  1  0  0  0  0
  4  6  1  0  0  0  0
  4 45  1  0  0  0  0
  5 25  1  0  0  0  0
  5 26  1  0  0  0  0
  5 27  1  0  0  0  0
  6  7  1  0  0  0  0
  6  8  1  0  0  0  0
  6 28  1  0  0  0  0
  7 29  1  0  0  0  0
  7 30  1  0  0  0  0
  7 31  1  0  0  0  0
  8  9  1  0  0  0  0
  8 32  1  0  0  0  0
  8 33  1  0  0  0  0
  9 10  1  0  0  0  0
  9 34  1  0  0  0  0
 10 11  1  0  0  0  0
 10 35  1  0  0  0  0
 10 44  1  0  0  0  0
 11 12  1  0  0  0  0
 11 36  1  0  0  0  0
 11 37  1  0  0  0  0
 12 13  1  0  0  0  0
 12 38  1  0  0  0  0
 12 39  1  0  0  0  0
 13 18  1  0  0  0  0
 13 14  2  0  0  0  0
 14 15  1  0  0  0  0
 14 40  1  0  0  0  0
 15 16  2  0  0  0  0
 15 41  1  0  0  0  0
 16 17  1  0  0  0  0
 16 42  1  0  0  0  0
 17 18  2  0  0  0  0
 17 43  1  0  0  0  0
M  CHG  1   4   1
M  CHG  1  10   1
M  END
> <s_m_source_file>
AV-unprocessed.smi

> <i_m_source_file_index>
3303

> <i_lp_mmshare_version>
43012

> <i_f3d_flags>
0

> <s_epik_input>
W0NIM11bQ0BASF0xW0NIMl1OKFtDSDNdKVtDQEBIXShbQ0gzXSlbQ0gyXVtDQEhdMVtOSF1bQ0gyXVtDSDJdYzJbY0hdW2NIXVtjSF1bY0hdbjI=

> <s_epik_cmdline>
J2VwaWtfcHl0aG9uJywgJy1waCcsICc3LjAnLCAnLXRuJywgJzgnLCAnLW1hJywgJzIwMCcsICctbWV0YWxfYmluZGluZycsICctaW1hZScsICc8aW5maWxlLm1hZT4nLCAnLW9tYWUnLCAnPG91dGZpbGUubWFlPic=

> <r_epik_Ionization_Penalty>
0.0769462

> <r_epik_Ionization_Penalty_Charging>
0.0759813

> <r_epik_Ionization_Penalty_Neutral>
0.000964829

> <r_epik_State_Penalty>
0.0654373

> <r_epik_Charging_Adjusted_Penalty>
0.141419

> <i_epik_Tot_Q>
2

> <i_epik_Tot_abs_Q>
2

> <r_epik_Metal_State_Penalty>
0.0656439

> <b_epik_Metal_Only>
0

> <s_lp_Force_Field>
OPLS_2005

> <r_lp_Energy>
33.2065

> <b_lp_Chiralities_Consistent>
1

> <s_lp_Variant>
AV-unprocessed.smi:3303-4

> <Gold.Version>
5.8.1

> <Gold.Id.Protein>
6NUR|6NUR_protein|mol2

> <Gold.PLP.Fitness>
44.3378

> <Gold.PLP.PLP>
-37.6371

> <Gold.PLP.part.hbond>
-1.0000

> <Gold.PLP.part.metal>
0.0000

> <Gold.PLP.part.buried>
-3.6278

> <Gold.PLP.part.nonpolar>
-33.6351

> <Gold.PLP.part.repulsive>
0.1950

> <Gold.PLP.ligand.clash>
0.0000

> <Gold.PLP.ligand.torsion>
1.0460

> <Gold.PLP.Chemscore.Hbond>
2.0000

> <Gold.PLP.Chemscore.CHOScore>
0.9266

> <Gold.PLP.Chemscore.Metal>
0.0000

> <Gold.Chemscore.Hbonds>
donor molecule, donor type, donor heavy atom, donor atom, acceptor molecule, acceptor atom, score
      L1  H     4    45       P1  7948  2.00
      L1  C    17    43       P1  8028  0.68

> <Gold.PLP.Chemscore.Internal.Correction>
0.0129

> <Gold.Rescore>
     Score         DG    S(hbond)    S(metal)    S(lipo)     H(rot)  DE(clash)    DE(int)     intcor
     17.46     -18.53       0.99        0.00     113.30       1.37       0.09       0.99       ----

> <Gold.Chemscore.Fitness>
17.4573

> <Gold.Chemscore.DG>
-18.5297

> <Gold.Chemscore.ZeroCoef>
-5.4800

> <Gold.Chemscore.Hbond>
0.9917

> <Gold.Chemscore.Metal>
0.0000

> <Gold.Chemscore.Lipo>
113.2975

> <Gold.Chemscore.Internal_Hbond>
0.0000

> <Gold.Chemscore.DEClash>
0.0861

> <Gold.Chemscore.DEInternal>
0.9862

> <Gold.Chemscore.Rot>
1.3744

> <Gold.Chemscore.Internal.Correction>
   9.000000E+99

> <Gold.Chemscore.Hbonds>
donor molecule, donor type, donor heavy atom, donor atom, acceptor molecule, acceptor atom, score
      L1  H     4    45       P1  7948  0.60

> <Gold.Chemscore.Hbond.Weighted>
-3.3123

> <Gold.Chemscore.Metal.Weighted>
-0.0000

> <Gold.Chemscore.Lipo.Weighted>
-13.2558

> <Gold.Chemscore.Internal_Hbond.Weighted>
0.0000

> <Gold.Chemscore.DEClash.Weighted>
0.0861

> <Gold.Chemscore.DEInternal.Weighted>
0.9862

> <Gold.Chemscore.Rot.Weighted>
3.5185

> <Gold.Chemscore.Internal.Correction.Weighted>
   9.000000E+99

> <Gold.Protein.RotatedTorsions>
[ 6907 6896 6895 6894 ] final -136.33 input  -60.11 | X-H torsion
[ 7974 7965 7964 7962 ] final -126.37 input  175.53 | X-H torsion
[ 8008 7997 7996 7995 ] final  158.20 input   59.86 | X-H torsion
[ 10167 10162 10161 10158 ] final   74.94 input  -65.29 | X-H torsion
[ 10718 10713 10712 10709 ] final  174.47 input   66.30 | X-H torsion
[ 10763 10752 10751 10750 ] final  119.79 input  -60.55 | X-H torsion
[ 11005 11000 10999 10996 ] final  118.21 input  -57.11 | X-H torsion

> <Gold.Protein.ActiveResidues>
 VAL166  LYS551  ARG553  GLY616  TRP617  ASP618  TYR619  PRO620  LYS621  CYS622 
 ASP623  PHE694  ASN695  SER759  ASP760  ASP761  ALA762  ILE779  LEU786  VAL792 
 PHE793  MET794  SER795  GLU796  ALA797  LYS798  CYS799  TRP800  GLU811  SER814 

> <Gold.Protein.RotatedAtoms>
  151.0087  133.5986  159.2685 H   0  0  0  0  0  0  0  0  0  0  0  0  # atno 6907 bound_to 6896
  151.3145  135.0802  159.9294 H   0  0  0  0  0  0  0  0  0  0  0  0  # atno 6908 bound_to 6896
  152.5294  133.9746  159.7832 H   0  0  0  0  0  0  0  0  0  0  0  0  # atno 6909 bound_to 6896
  144.9879  140.7704  143.4572 H   0  0  0  0  0  0  0  0  0  0  0  0  # atno 7974 bound_to 7965
  156.2317  140.1864  156.7225 H   0  0  0  0  0  0  0  0  0  0  0  0  # atno 8008 bound_to 7997
  154.6034  140.0632  156.9426 H   0  0  0  0  0  0  0  0  0  0  0  0  # atno 8009 bound_to 7997
  155.2136  140.3302  155.4328 H   0  0  0  0  0  0  0  0  0  0  0  0  # atno 8010 bound_to 7997
  140.0083  144.5634  150.7680 H   0  0  0  0  0  0  0  0  0  0  0  0  # atno 10167 bound_to 10162
  156.9491  131.0025  151.2952 H   0  0  0  0  0  0  0  0  0  0  0  0  # atno 10718 bound_to 10713
  153.5885  135.3470  155.2902 H   0  0  0  0  0  0  0  0  0  0  0  0  # atno 10763 bound_to 10752
  154.8656  135.4199  154.2542 H   0  0  0  0  0  0  0  0  0  0  0  0  # atno 10764 bound_to 10752
  153.3344  135.7046  153.6990 H   0  0  0  0  0  0  0  0  0  0  0  0  # atno 10765 bound_to 10752
  139.9101  134.9618  156.7469 H   0  0  0  0  0  0  0  0  0  0  0  0  # atno 11005 bound_to 11000
  145.2327  139.2108  143.5034 LP  0  0  0  0  0  0  0  0  0  0  0  0  # atno 17320 bound_to 7965
  146.3424  140.2207  142.8591 LP  0  0  0  0  0  0  0  0  0  0  0  0  # atno 17321 bound_to 7965
  140.7391  143.2787  151.3662 LP  0  0  0  0  0  0  0  0  0  0  0  0  # atno 17342 bound_to 10162
  139.6223  144.0883  152.2402 LP  0  0  0  0  0  0  0  0  0  0  0  0  # atno 17343 bound_to 10162
  157.5734  130.8326  149.8422 LP  0  0  0  0  0  0  0  0  0  0  0  0  # atno 17370 bound_to 10713
  156.0371  130.3748  150.1533 LP  0  0  0  0  0  0  0  0  0  0  0  0  # atno 17371 bound_to 10713
  140.6805  133.9479  155.7907 LP  0  0  0  0  0  0  0  0  0  0  0  0  # atno 17394 bound_to 11000
  141.0514  134.0479  157.3779 LP  0  0  0  0  0  0  0  0  0  0  0  0  # atno 17395 bound_to 11000

$$$$
