AV-unprocessed.smi:2510|AV-procd|sdf|9885|dock8
  -GOLD-   2272013523D 1   1.00000     0.00000
 Structure written by MMmdl.
 48 49  0  0  0  0  0  0  0  0  1 V2000
  152.1266  138.3603  155.1169 C   0  0  0  0  0  0  0  0  0  0  0  0
  152.1942  139.8657  155.4250 C   0  0  0  0  0  0  0  0  0  0  0  0
  151.4972  140.3019  156.7366 C   0  0  0  0  0  0  0  0  0  0  0  0
  152.4023  139.8992  157.9316 C   0  0  0  0  0  0  0  0  0  0  0  0
  152.6604  138.3914  158.0783 C   0  0  0  0  0  0  0  0  0  0  0  0
  150.9407  141.7581  156.6945 C   0  0  2  0  0  0  0  0  0  0  0  0
  150.8646  142.3944  158.0088 N   0  0  0  0  0  0  0  0  0  0  0  0
  151.3806  143.5937  158.3149 C   0  0  0  0  0  0  0  0  0  0  0  0
  151.8730  144.3562  157.4839 O   0  0  0  0  0  0  0  0  0  0  0  0
  151.3755  143.9692  159.7966 C   0  0  0  0  0  0  0  0  0  0  0  0
  152.1982  142.9934  160.5764 C   0  0  0  0  0  0  0  0  0  0  0  0
  153.0016  141.9638  160.1722 C   0  0  0  0  0  0  0  0  0  0  0  0
  153.5523  141.4505  161.3827 C   0  0  0  0  0  0  0  0  0  0  0  0
  154.5299  140.3254  161.5519 C   0  0  0  0  0  0  0  0  0  0  0  0
  153.1146  142.0978  162.4524 N   0  0  0  0  0  0  0  0  0  0  0  0
  152.2879  143.0330  161.9494 N   0  0  0  0  0  0  0  0  0  0  0  0
  149.5772  141.2041  156.2468 C   0  0  2  0  0  0  0  0  0  0  0  0
  148.2708  141.8688  156.6769 C   0  0  0  0  0  0  0  0  0  0  0  0
  150.0144  139.8490  156.8326 C   0  0  2  0  0  0  0  0  0  0  0  0
  149.5938  139.6811  158.1828 O   0  0  0  0  0  0  0  0  0  0  0  0
  149.7055  138.3444  158.6397 C   0  0  0  0  0  0  0  0  0  0  0  0
  151.8089  143.6926  162.5460 H   0  0  0  0  0  0  0  0  0  0  0  0
  152.7501  138.1192  154.2558 H   0  0  0  0  0  0  0  0  0  0  0  0
  151.1136  138.0400  154.8756 H   0  0  0  0  0  0  0  0  0  0  0  0
  152.4791  137.7602  155.9558 H   0  0  0  0  0  0  0  0  0  0  0  0
  153.2492  140.1369  155.4612 H   0  0  0  0  0  0  0  0  0  0  0  0
  151.8055  140.4246  154.5744 H   0  0  0  0  0  0  0  0  0  0  0  0
  153.3526  140.4310  157.8980 H   0  0  0  0  0  0  0  0  0  0  0  0
  151.9527  140.2184  158.8705 H   0  0  0  0  0  0  0  0  0  0  0  0
  153.1855  138.1860  159.0112 H   0  0  0  0  0  0  0  0  0  0  0  0
  153.2786  138.0019  157.2702 H   0  0  0  0  0  0  0  0  0  0  0  0
  151.7274  137.8277  158.0961 H   0  0  0  0  0  0  0  0  0  0  0  0
  151.3961  142.3881  155.9289 H   0  0  0  0  0  0  0  0  0  0  0  0
  150.4821  141.8373  158.7593 H   0  0  0  0  0  0  0  0  0  0  0  0
  151.7651  144.9802  159.9232 H   0  0  0  0  0  0  0  0  0  0  0  0
  150.3491  143.9776  160.1647 H   0  0  0  0  0  0  0  0  0  0  0  0
  153.1870  141.6394  159.1589 H   0  0  0  0  0  0  0  0  0  0  0  0
  154.6480  139.7637  160.6254 H   0  0  0  0  0  0  0  0  0  0  0  0
  154.2007  139.6280  162.3228 H   0  0  0  0  0  0  0  0  0  0  0  0
  155.5119  140.7023  161.8388 H   0  0  0  0  0  0  0  0  0  0  0  0
  149.5901  141.1227  155.1587 H   0  0  0  0  0  0  0  0  0  0  0  0
  148.1672  141.9067  157.7615 H   0  0  0  0  0  0  0  0  0  0  0  0
  147.4086  141.3295  156.2847 H   0  0  0  0  0  0  0  0  0  0  0  0
  148.2120  142.8921  156.3066 H   0  0  0  0  0  0  0  0  0  0  0  0
  149.7909  138.9891  156.1981 H   0  0  0  0  0  0  0  0  0  0  0  0
  149.3241  138.2741  159.6580 H   0  0  0  0  0  0  0  0  0  0  0  0
  150.7475  138.0219  158.6480 H   0  0  0  0  0  0  0  0  0  0  0  0
  149.1336  137.6565  158.0169 H   0  0  0  0  0  0  0  0  0  0  0  0
  1  2  1  0  0  0  0
  1 23  1  0  0  0  0
  1 24  1  0  0  0  0
  1 25  1  0  0  0  0
  2  3  1  0  0  0  0
  2 26  1  0  0  0  0
  2 27  1  0  0  0  0
  3 19  1  0  0  0  0
  3  4  1  0  0  0  0
  3  6  1  0  0  0  0
  4  5  1  0  0  0  0
  4 28  1  0  0  0  0
  4 29  1  0  0  0  0
  5 30  1  0  0  0  0
  5 31  1  0  0  0  0
  5 32  1  0  0  0  0
  6  7  1  0  0  0  0
  6 17  1  0  0  0  0
  6 33  1  0  0  0  0
  7  8  1  0  0  0  0
  7 34  1  0  0  0  0
  8  9  2  0  0  0  0
  8 10  1  0  0  0  0
 10 35  1  0  0  0  0
 10 36  1  0  0  0  0
 10 11  1  0  0  0  0
 11 16  1  0  0  0  0
 11 12  2  0  0  0  0
 12 13  1  0  0  0  0
 12 37  1  0  0  0  0
 13 14  1  0  0  0  0
 13 15  2  0  0  0  0
 14 38  1  0  0  0  0
 14 39  1  0  0  0  0
 14 40  1  0  0  0  0
 15 16  1  0  0  0  0
 16 22  1  0  0  0  0
 17 18  1  0  0  0  0
 17 19  1  0  0  0  0
 17 41  1  0  0  0  0
 18 42  1  0  0  0  0
 18 43  1  0  0  0  0
 18 44  1  0  0  0  0
 19 20  1  0  0  0  0
 19 45  1  0  0  0  0
 20 21  1  0  0  0  0
 21 46  1  0  0  0  0
 21 47  1  0  0  0  0
 21 48  1  0  0  0  0
M  END
> <s_m_source_file>
AV-unprocessed.smi

> <i_m_source_file_index>
2510

> <i_lp_mmshare_version>
43012

> <i_f3d_flags>
0

> <s_epik_input>
W0NIM11PW0NAQEhdMVtDQEhdKFtDSDNdKVtDQEBIXShDMShbQ0gyXVtDSDNdKVtDSDJdW0NIM10pW05IXUMoPU8pW0NIMl1jMltjSF1jKFtDSDNdKVtuSF1uMg==

> <s_epik_cmdline>
J2VwaWtfcHl0aG9uJywgJy1waCcsICc3LjAnLCAnLXRuJywgJzgnLCAnLW1hJywgJzIwMCcsICctbWV0YWxfYmluZGluZycsICctaW1hZScsICc8aW5maWxlLm1hZT4nLCAnLW9tYWUnLCAnPG91dGZpbGUubWFlPic=

> <r_lp_tautomer_probability>
0.5

> <r_epik_Ionization_Penalty>
0.000134763

> <r_epik_Ionization_Penalty_Charging>
0

> <r_epik_Ionization_Penalty_Neutral>
0.000134763

> <r_epik_State_Penalty>
0.41068

> <r_epik_Charging_Adjusted_Penalty>
0.41068

> <i_epik_Tot_Q>
0

> <i_epik_Tot_abs_Q>
0

> <r_epik_Metal_State_Penalty>
0.410661

> <b_epik_Metal_Only>
0

> <s_lp_Force_Field>
OPLS_2005

> <r_lp_Energy>
25.7229

> <b_lp_Chiralities_Consistent>
1

> <s_lp_Variant>
AV-unprocessed.smi:2510-16

> <Gold.Version>
5.8.1

> <Gold.Id.Protein>
6NUR|6NUR_protein|mol2

> <Gold.PLP.Fitness>
37.3168

> <Gold.PLP.PLP>
-38.1460

> <Gold.PLP.part.hbond>
0.0000

> <Gold.PLP.part.metal>
0.0000

> <Gold.PLP.part.buried>
-3.6455

> <Gold.PLP.part.nonpolar>
-34.0576

> <Gold.PLP.part.repulsive>
0.3162

> <Gold.PLP.ligand.clash>
0.0000

> <Gold.PLP.ligand.torsion>
0.7324

> <Gold.PLP.Chemscore.Hbond>
0.0000

> <Gold.PLP.Chemscore.CHOScore>
0.0000

> <Gold.PLP.Chemscore.Metal>
0.0000

> <Gold.PLP.Chemscore.Internal.Correction>
0.6357

> <Gold.Rescore>
     Score         DG    S(hbond)    S(metal)    S(lipo)     H(rot)  DE(clash)    DE(int)     intcor
     12.16     -13.16       0.00        0.00     105.23       1.81       0.02       0.98       ----

> <Gold.Chemscore.Fitness>
12.1553

> <Gold.Chemscore.DG>
-13.1580

> <Gold.Chemscore.ZeroCoef>
-5.4800

> <Gold.Chemscore.Hbond>
0.0000

> <Gold.Chemscore.Metal>
0.0000

> <Gold.Chemscore.Lipo>
105.2314

> <Gold.Chemscore.Internal_Hbond>
0.0000

> <Gold.Chemscore.DEClash>
0.0208

> <Gold.Chemscore.DEInternal>
0.9818

> <Gold.Chemscore.Rot>
1.8102

> <Gold.Chemscore.Internal.Correction>
   9.000000E+99

> <Gold.Chemscore.Hbond.Weighted>
-0.0000

> <Gold.Chemscore.Metal.Weighted>
-0.0000

> <Gold.Chemscore.Lipo.Weighted>
-12.3121

> <Gold.Chemscore.Internal_Hbond.Weighted>
0.0000

> <Gold.Chemscore.DEClash.Weighted>
0.0208

> <Gold.Chemscore.DEInternal.Weighted>
0.9818

> <Gold.Chemscore.Rot.Weighted>
4.6341

> <Gold.Chemscore.Internal.Correction.Weighted>
   9.000000E+99

> <Gold.Protein.RotatedTorsions>
[ 6907 6896 6895 6894 ] final   13.11 input  -60.11 | X-H torsion
[ 7974 7965 7964 7962 ] final   -4.69 input  175.53 | X-H torsion
[ 8008 7997 7996 7995 ] final  -48.05 input   59.86 | X-H torsion
[ 10167 10162 10161 10158 ] final  -84.34 input  -65.29 | X-H torsion
[ 10718 10713 10712 10709 ] final -113.85 input   66.30 | X-H torsion
[ 10763 10752 10751 10750 ] final  -35.57 input  -60.55 | X-H torsion
[ 11005 11000 10999 10996 ] final    4.02 input  -57.11 | X-H torsion

> <Gold.Protein.ActiveResidues>
 VAL166  LYS551  ARG553  GLY616  TRP617  ASP618  TYR619  PRO620  LYS621  CYS622 
 ASP623  PHE694  ASN695  SER759  ASP760  ASP761  ALA762  ILE779  LEU786  VAL792 
 PHE793  MET794  SER795  GLU796  ALA797  LYS798  CYS799  TRP800  GLU811  SER814 

> <Gold.Protein.RotatedAtoms>
  151.7810  135.0761  160.0373 H   0  0  0  0  0  0  0  0  0  0  0  0  # atno 6907 bound_to 6896
  152.3223  133.5863  159.5761 H   0  0  0  0  0  0  0  0  0  0  0  0  # atno 6908 bound_to 6896
  150.7376  133.9909  159.3648 H   0  0  0  0  0  0  0  0  0  0  0  0  # atno 6909 bound_to 6896
  146.2367  140.1909  142.8332 H   0  0  0  0  0  0  0  0  0  0  0  0  # atno 7974 bound_to 7965
  154.4024  140.1331  156.4276 H   0  0  0  0  0  0  0  0  0  0  0  0  # atno 8008 bound_to 7997
  155.7582  140.3486  155.5164 H   0  0  0  0  0  0  0  0  0  0  0  0  # atno 8009 bound_to 7997
  155.8884  140.0999  157.1426 H   0  0  0  0  0  0  0  0  0  0  0  0  # atno 8010 bound_to 7997
  140.4141  143.2610  151.8978 H   0  0  0  0  0  0  0  0  0  0  0  0  # atno 10167 bound_to 10162
  156.0793  130.5995  150.8697 H   0  0  0  0  0  0  0  0  0  0  0  0  # atno 10718 bound_to 10713
  153.8654  135.6836  153.4779 H   0  0  0  0  0  0  0  0  0  0  0  0  # atno 10763 bound_to 10752
  153.1317  135.4695  154.9358 H   0  0  0  0  0  0  0  0  0  0  0  0  # atno 10764 bound_to 10752
  154.7739  135.3247  154.8083 H   0  0  0  0  0  0  0  0  0  0  0  0  # atno 10765 bound_to 10752
  140.5866  133.9963  155.8070 H   0  0  0  0  0  0  0  0  0  0  0  0  # atno 11005 bound_to 11000
  144.9858  140.8502  143.5369 LP  0  0  0  0  0  0  0  0  0  0  0  0  # atno 17320 bound_to 7965
  145.1908  139.2302  143.5243 LP  0  0  0  0  0  0  0  0  0  0  0  0  # atno 17321 bound_to 7965
  139.4782  144.5506  151.8392 LP  0  0  0  0  0  0  0  0  0  0  0  0  # atno 17342 bound_to 10162
  140.4605  144.1728  150.5906 LP  0  0  0  0  0  0  0  0  0  0  0  0  # atno 17343 bound_to 10162
  157.5902  131.0944  150.9131 LP  0  0  0  0  0  0  0  0  0  0  0  0  # atno 17370 bound_to 10713
  156.9308  130.5349  149.5279 LP  0  0  0  0  0  0  0  0  0  0  0  0  # atno 17371 bound_to 10713
  141.0962  133.9840  157.3156 LP  0  0  0  0  0  0  0  0  0  0  0  0  # atno 17394 bound_to 11000
  139.9293  135.0200  156.8344 LP  0  0  0  0  0  0  0  0  0  0  0  0  # atno 17395 bound_to 11000

$$$$
