AV-unprocessed.smi:3303|AV-procd|sdf|12689|dock4
  -GOLD-   2272019 23D 1   1.00000     0.00000
 Structure written by MMmdl.
 44 45  0  0  0  0  0  0  0  0  2 V2000
  148.6021  141.1112  154.1843 C   0  0  0  0  0  0  0  0  0  0  0  0
  149.1005  139.6571  154.1340 C   0  0  2  0  0  0  0  0  0  0  0  0
  148.0381  138.6612  154.6349 C   0  0  0  0  0  0  0  0  0  0  0  0
  148.4852  137.2526  154.4809 N   0  3  2  0  0  0  0  0  0  0  0  0
  147.3863  136.3106  154.8046 C   0  0  0  0  0  0  0  0  0  0  0  0
  149.7549  136.9844  155.2200 C   0  0  1  0  0  0  0  0  0  0  0  0
  150.2459  135.5330  155.0517 C   0  0  0  0  0  0  0  0  0  0  0  0
  150.8665  137.9568  154.7645 C   0  0  0  0  0  0  0  0  0  0  0  0
  150.4568  139.4374  154.8417 C   0  0  2  0  0  0  0  0  0  0  0  0
  150.4348  139.8602  156.2402 N   0  0  0  0  0  0  0  0  0  0  0  0
  151.7700  139.8508  156.8201 C   0  0  0  0  0  0  0  0  0  0  0  0
  151.6847  140.1015  158.3312 C   0  0  0  0  0  0  0  0  0  0  0  0
  151.8341  141.5727  158.6691 C   0  0  0  0  0  0  0  0  0  0  0  0
  152.8490  142.0121  159.5457 C   0  0  0  0  0  0  0  0  0  0  0  0
  152.9342  143.3875  159.8371 C   0  0  0  0  0  0  0  0  0  0  0  0
  152.0061  144.2653  159.2447 C   0  0  0  0  0  0  0  0  0  0  0  0
  151.0289  143.7264  158.3843 C   0  0  0  0  0  0  0  0  0  0  0  0
  150.9373  142.4093  158.0994 N   0  0  0  0  0  0  0  0  0  0  0  0
  148.3628  141.4207  155.2021 H   0  0  0  0  0  0  0  0  0  0  0  0
  147.7003  141.2366  153.5844 H   0  0  0  0  0  0  0  0  0  0  0  0
  149.3534  141.7969  153.7921 H   0  0  0  0  0  0  0  0  0  0  0  0
  149.2639  139.4324  153.0788 H   0  0  0  0  0  0  0  0  0  0  0  0
  147.7942  138.8563  155.6806 H   0  0  0  0  0  0  0  0  0  0  0  0
  147.1186  138.8092  154.0668 H   0  0  0  0  0  0  0  0  0  0  0  0
  147.1786  136.3037  155.8753 H   0  0  0  0  0  0  0  0  0  0  0  0
  147.6234  135.2949  154.4892 H   0  0  0  0  0  0  0  0  0  0  0  0
  146.4698  136.5906  154.2839 H   0  0  0  0  0  0  0  0  0  0  0  0
  149.5646  137.1507  156.2817 H   0  0  0  0  0  0  0  0  0  0  0  0
  151.2205  135.3968  155.5216 H   0  0  0  0  0  0  0  0  0  0  0  0
  150.3486  135.2664  153.9994 H   0  0  0  0  0  0  0  0  0  0  0  0
  149.5743  134.8142  155.5207 H   0  0  0  0  0  0  0  0  0  0  0  0
  151.7756  137.7921  155.3450 H   0  0  0  0  0  0  0  0  0  0  0  0
  151.1307  137.7282  153.7310 H   0  0  0  0  0  0  0  0  0  0  0  0
  151.2205  140.0094  154.3114 H   0  0  0  0  0  0  0  0  0  0  0  0
  149.8511  139.2326  156.7752 H   0  0  0  0  0  0  0  0  0  0  0  0
  152.2414  138.8860  156.6279 H   0  0  0  0  0  0  0  0  0  0  0  0
  152.3895  140.6164  156.3526 H   0  0  0  0  0  0  0  0  0  0  0  0
  150.7309  139.7402  158.7184 H   0  0  0  0  0  0  0  0  0  0  0  0
  152.4609  139.5386  158.8521 H   0  0  0  0  0  0  0  0  0  0  0  0
  153.5442  141.3138  159.9881 H   0  0  0  0  0  0  0  0  0  0  0  0
  153.6963  143.7620  160.5044 H   0  0  0  0  0  0  0  0  0  0  0  0
  152.0409  145.3259  159.4454 H   0  0  0  0  0  0  0  0  0  0  0  0
  150.3003  144.3698  157.9137 H   0  0  0  0  0  0  0  0  0  0  0  0
  148.6890  137.1250  153.4999 H   0  0  0  0  0  0  0  0  0  0  0  0
  1  2  1  0  0  0  0
  1 19  1  0  0  0  0
  1 20  1  0  0  0  0
  1 21  1  0  0  0  0
  2  9  1  0  0  0  0
  2  3  1  0  0  0  0
  2 22  1  0  0  0  0
  3  4  1  0  0  0  0
  3 23  1  0  0  0  0
  3 24  1  0  0  0  0
  4  5  1  0  0  0  0
  4  6  1  0  0  0  0
  4 44  1  0  0  0  0
  5 25  1  0  0  0  0
  5 26  1  0  0  0  0
  5 27  1  0  0  0  0
  6  7  1  0  0  0  0
  6  8  1  0  0  0  0
  6 28  1  0  0  0  0
  7 29  1  0  0  0  0
  7 30  1  0  0  0  0
  7 31  1  0  0  0  0
  8  9  1  0  0  0  0
  8 32  1  0  0  0  0
  8 33  1  0  0  0  0
  9 10  1  0  0  0  0
  9 34  1  0  0  0  0
 10 11  1  0  0  0  0
 10 35  1  0  0  0  0
 11 12  1  0  0  0  0
 11 36  1  0  0  0  0
 11 37  1  0  0  0  0
 12 13  1  0  0  0  0
 12 38  1  0  0  0  0
 12 39  1  0  0  0  0
 13 18  1  0  0  0  0
 13 14  2  0  0  0  0
 14 15  1  0  0  0  0
 14 40  1  0  0  0  0
 15 16  2  0  0  0  0
 15 41  1  0  0  0  0
 16 17  1  0  0  0  0
 16 42  1  0  0  0  0
 17 18  2  0  0  0  0
 17 43  1  0  0  0  0
M  CHG  1   4   1
M  END
> <s_m_source_file>
AV-unprocessed.smi

> <i_m_source_file_index>
3303

> <i_lp_mmshare_version>
43012

> <i_f3d_flags>
0

> <s_epik_input>
W0NIM11bQ0BASF0xW0NIMl1OKFtDSDNdKVtDQEBIXShbQ0gzXSlbQ0gyXVtDQEhdMVtOSF1bQ0gyXVtDSDJdYzJbY0hdW2NIXVtjSF1bY0hdbjI=

> <s_epik_cmdline>
J2VwaWtfcHl0aG9uJywgJy1waCcsICc3LjAnLCAnLXRuJywgJzgnLCAnLW1hJywgJzIwMCcsICctbWV0YWxfYmluZGluZycsICctaW1hZScsICc8aW5maWxlLm1hZT4nLCAnLW9tYWUnLCAnPG91dGZpbGUubWFlPic=

> <r_epik_Ionization_Penalty>
2.31085

> <r_epik_Ionization_Penalty_Charging>
0.000313057

> <r_epik_Ionization_Penalty_Neutral>
2.31054

> <r_epik_State_Penalty>
2.4087

> <r_epik_Charging_Adjusted_Penalty>
2.40902

> <i_epik_Tot_Q>
1

> <i_epik_Tot_abs_Q>
1

> <r_epik_Metal_State_Penalty>
2.30979

> <b_epik_Metal_Only>
0

> <s_lp_Force_Field>
OPLS_2005

> <r_lp_Energy>
26.9633

> <b_lp_Chiralities_Consistent>
1

> <s_lp_Variant>
AV-unprocessed.smi:3303-33

> <Gold.Version>
5.8.1

> <Gold.Id.Protein>
6NUR|6NUR_protein|mol2

> <Gold.PLP.Fitness>
44.6845

> <Gold.PLP.PLP>
-35.9710

> <Gold.PLP.part.hbond>
-1.0000

> <Gold.PLP.part.metal>
0.0000

> <Gold.PLP.part.buried>
-1.9559

> <Gold.PLP.part.nonpolar>
-33.1400

> <Gold.PLP.part.repulsive>
0.0887

> <Gold.PLP.ligand.clash>
0.0000

> <Gold.PLP.ligand.torsion>
0.2726

> <Gold.PLP.Chemscore.Hbond>
2.0000

> <Gold.PLP.Chemscore.CHOScore>
1.0839

> <Gold.PLP.Chemscore.Metal>
0.0000

> <Gold.Chemscore.Hbonds>
donor molecule, donor type, donor heavy atom, donor atom, acceptor molecule, acceptor atom, score
      L1  H     4    44       P1  7948  2.00
      L1  C    17    43       P1  8028  0.70

> <Gold.PLP.Chemscore.Internal.Correction>
0.0071

> <Gold.Rescore>
     Score         DG    S(hbond)    S(metal)    S(lipo)     H(rot)  DE(clash)    DE(int)     intcor
     18.68     -19.07       1.00        0.00     116.79       1.33       0.11       0.29       ----

> <Gold.Chemscore.Fitness>
18.6789

> <Gold.Chemscore.DG>
-19.0719

> <Gold.Chemscore.ZeroCoef>
-5.4800

> <Gold.Chemscore.Hbond>
0.9955

> <Gold.Chemscore.Metal>
0.0000

> <Gold.Chemscore.Lipo>
116.7915

> <Gold.Chemscore.Internal_Hbond>
0.0000

> <Gold.Chemscore.DEClash>
0.1060

> <Gold.Chemscore.DEInternal>
0.2870

> <Gold.Chemscore.Rot>
1.3272

> <Gold.Chemscore.Internal.Correction>
   9.000000E+99

> <Gold.Chemscore.Hbonds>
donor molecule, donor type, donor heavy atom, donor atom, acceptor molecule, acceptor atom, score
      L1  H     4    44       P1  7948  0.99

> <Gold.Chemscore.Hbond.Weighted>
-3.3249

> <Gold.Chemscore.Metal.Weighted>
-0.0000

> <Gold.Chemscore.Lipo.Weighted>
-13.6646

> <Gold.Chemscore.Internal_Hbond.Weighted>
0.0000

> <Gold.Chemscore.DEClash.Weighted>
0.1060

> <Gold.Chemscore.DEInternal.Weighted>
0.2870

> <Gold.Chemscore.Rot.Weighted>
3.3976

> <Gold.Chemscore.Internal.Correction.Weighted>
   9.000000E+99

> <Gold.Protein.RotatedTorsions>
[ 6907 6896 6895 6894 ] final  -98.04 input  -60.11 | X-H torsion
[ 7974 7965 7964 7962 ] final  123.07 input  175.53 | X-H torsion
[ 8008 7997 7996 7995 ] final   57.05 input   59.86 | X-H torsion
[ 10167 10162 10161 10158 ] final    7.22 input  -65.29 | X-H torsion
[ 10718 10713 10712 10709 ] final  -98.34 input   66.30 | X-H torsion
[ 10763 10752 10751 10750 ] final   47.47 input  -60.55 | X-H torsion
[ 11005 11000 10999 10996 ] final    5.88 input  -57.11 | X-H torsion

> <Gold.Protein.ActiveResidues>
 VAL166  LYS551  ARG553  GLY616  TRP617  ASP618  TYR619  PRO620  LYS621  CYS622 
 ASP623  PHE694  ASN695  SER759  ASP760  ASP761  ALA762  ILE779  LEU786  VAL792 
 PHE793  MET794  SER795  GLU796  ALA797  LYS798  CYS799  TRP800  GLU811  SER814 

> <Gold.Protein.RotatedAtoms>
  150.7034  134.1256  159.4050 H   0  0  0  0  0  0  0  0  0  0  0  0  # atno 6907 bound_to 6896
  151.9242  135.0283  160.0533 H   0  0  0  0  0  0  0  0  0  0  0  0  # atno 6908 bound_to 6896
  152.2231  133.4963  159.5210 H   0  0  0  0  0  0  0  0  0  0  0  0  # atno 6909 bound_to 6896
  145.1002  139.3524  143.4816 H   0  0  0  0  0  0  0  0  0  0  0  0  # atno 7974 bound_to 7965
  155.5274  140.3481  155.4419 H   0  0  0  0  0  0  0  0  0  0  0  0  # atno 8008 bound_to 7997
  156.0742  140.1370  156.9819 H   0  0  0  0  0  0  0  0  0  0  0  0  # atno 8009 bound_to 7997
  154.4544  140.0959  156.6689 H   0  0  0  0  0  0  0  0  0  0  0  0  # atno 8010 bound_to 7997
  140.6384  143.7832  150.7393 H   0  0  0  0  0  0  0  0  0  0  0  0  # atno 10167 bound_to 10162
  156.0105  130.5234  150.6508 H   0  0  0  0  0  0  0  0  0  0  0  0  # atno 10718 bound_to 10713
  152.9799  135.5975  154.3769 H   0  0  0  0  0  0  0  0  0  0  0  0  # atno 10763 bound_to 10752
  154.3437  135.2767  155.2411 H   0  0  0  0  0  0  0  0  0  0  0  0  # atno 10764 bound_to 10752
  154.4481  135.5996  153.6228 H   0  0  0  0  0  0  0  0  0  0  0  0  # atno 10765 bound_to 10752
  140.5657  134.0150  155.7989 H   0  0  0  0  0  0  0  0  0  0  0  0  # atno 11005 bound_to 11000
  146.3530  140.0875  142.8614 LP  0  0  0  0  0  0  0  0  0  0  0  0  # atno 17320 bound_to 7965
  145.0965  140.9318  143.4738 LP  0  0  0  0  0  0  0  0  0  0  0  0  # atno 17321 bound_to 7965
  140.1458  143.4401  152.2164 LP  0  0  0  0  0  0  0  0  0  0  0  0  # atno 17342 bound_to 10162
  139.5594  144.7395  151.4200 LP  0  0  0  0  0  0  0  0  0  0  0  0  # atno 17343 bound_to 10162
  157.4270  131.0844  151.1076 LP  0  0  0  0  0  0  0  0  0  0  0  0  # atno 17370 bound_to 10713
  157.1661  130.6246  149.5625 LP  0  0  0  0  0  0  0  0  0  0  0  0  # atno 17371 bound_to 10713
  141.1087  133.9651  157.2950 LP  0  0  0  0  0  0  0  0  0  0  0  0  # atno 17394 bound_to 11000
  139.9386  135.0194  156.8636 LP  0  0  0  0  0  0  0  0  0  0  0  0  # atno 17395 bound_to 11000

$$$$
