AV-unprocessed.smi:317|AV-procd|sdf|2328|dock4
  -GOLD-   2262022233D 1   1.00000     0.00000
 Structure written by MMmdl.
 40 41  0  0  0  0  0  0  0  0  2 V2000
  149.2109  132.9575  155.6175 C   0  0  0  0  0  0  0  0  0  0  0  0
  149.6113  134.1017  154.6734 C   0  0  2  0  0  0  0  0  0  0  0  0
  150.1146  135.3412  155.4396 C   0  0  0  0  0  0  0  0  0  0  0  0
  150.7802  136.2254  154.5632 O   0  0  0  0  0  0  0  0  0  0  0  0
  148.4668  134.4506  153.8358 N   0  0  0  0  0  0  0  0  0  0  0  0
  147.7668  133.5933  153.0790 C   0  0  0  0  0  0  0  0  0  0  0  0
  148.0276  132.3941  152.9879 O   0  0  0  0  0  0  0  0  0  0  0  0
  146.7721  134.2206  152.4291 N   0  0  0  0  0  0  0  0  0  0  0  0
  145.8208  133.6689  151.5237 C   0  0  0  0  0  0  0  0  0  0  0  0
  146.1873  132.6699  150.5847 C   0  0  0  0  0  0  0  0  0  0  0  0
  145.2287  132.1595  149.6893 C   0  0  0  0  0  0  0  0  0  0  0  0
  143.9140  132.6517  149.7474 C   0  0  0  0  0  0  0  0  0  0  0  0
  143.5910  133.5860  150.6650 N   0  3  0  0  0  0  0  0  0  0  0  0
  144.4639  134.1059  151.5638 C   0  0  0  0  0  0  0  0  0  0  0  0
  143.9729  135.0688  152.4752 N   0  0  0  0  0  0  0  0  0  0  0  0
  143.9665  136.4838  152.1219 C   0  0  0  0  0  0  0  0  0  0  0  0
  143.0740  137.1486  153.1662 C   0  0  0  0  0  0  0  0  0  0  0  0
  142.0168  136.0787  153.4223 C   0  0  0  0  0  0  0  0  0  0  0  0
  142.7854  134.7619  153.2662 C   0  0  0  0  0  0  0  0  0  0  0  0
  150.0540  132.6376  156.2304 H   0  0  0  0  0  0  0  0  0  0  0  0
  148.8668  132.0876  155.0570 H   0  0  0  0  0  0  0  0  0  0  0  0
  148.4076  133.2596  156.2904 H   0  0  0  0  0  0  0  0  0  0  0  0
  150.4112  133.7386  154.0246 H   0  0  0  0  0  0  0  0  0  0  0  0
  149.2817  135.8854  155.8861 H   0  0  0  0  0  0  0  0  0  0  0  0
  150.7846  135.0562  156.2515 H   0  0  0  0  0  0  0  0  0  0  0  0
  150.1680  136.5129  153.9030 H   0  0  0  0  0  0  0  0  0  0  0  0
  148.1834  135.4195  153.8438 H   0  0  0  0  0  0  0  0  0  0  0  0
  146.7470  135.2247  152.5264 H   0  0  0  0  0  0  0  0  0  0  0  0
  147.1920  132.2783  150.5394 H   0  0  0  0  0  0  0  0  0  0  0  0
  145.5002  131.4023  148.9680 H   0  0  0  0  0  0  0  0  0  0  0  0
  143.1138  132.3232  149.1001 H   0  0  0  0  0  0  0  0  0  0  0  0
  144.9738  136.9012  152.1257 H   0  0  0  0  0  0  0  0  0  0  0  0
  143.5368  136.6271  151.1296 H   0  0  0  0  0  0  0  0  0  0  0  0
  143.6417  137.3371  154.0784 H   0  0  0  0  0  0  0  0  0  0  0  0
  142.6524  138.0947  152.8260 H   0  0  0  0  0  0  0  0  0  0  0  0
  141.5385  136.1773  154.3970 H   0  0  0  0  0  0  0  0  0  0  0  0
  141.2399  136.1430  152.6595 H   0  0  0  0  0  0  0  0  0  0  0  0
  142.1663  133.9949  152.7988 H   0  0  0  0  0  0  0  0  0  0  0  0
  143.1005  134.3976  154.2443 H   0  0  0  0  0  0  0  0  0  0  0  0
  142.6256  133.9152  150.6892 H   0  0  0  0  0  0  0  0  0  0  0  0
  1  2  1  0  0  0  0
  1 20  1  0  0  0  0
  1 21  1  0  0  0  0
  1 22  1  0  0  0  0
  2  3  1  0  0  0  0
  2  5  1  0  0  0  0
  2 23  1  0  0  0  0
  3  4  1  0  0  0  0
  3 24  1  0  0  0  0
  3 25  1  0  0  0  0
  4 26  1  0  0  0  0
  5  6  1  0  0  0  0
  5 27  1  0  0  0  0
  6  7  2  0  0  0  0
  6  8  1  0  0  0  0
  8  9  1  0  0  0  0
  8 28  1  0  0  0  0
  9 14  1  0  0  0  0
  9 10  2  0  0  0  0
 10 11  1  0  0  0  0
 10 29  1  0  0  0  0
 11 12  2  0  0  0  0
 11 30  1  0  0  0  0
 12 13  1  0  0  0  0
 12 31  1  0  0  0  0
 13 14  2  0  0  0  0
 13 40  1  0  0  0  0
 14 15  1  0  0  0  0
 15 19  1  0  0  0  0
 15 16  1  0  0  0  0
 16 17  1  0  0  0  0
 16 32  1  0  0  0  0
 16 33  1  0  0  0  0
 17 18  1  0  0  0  0
 17 34  1  0  0  0  0
 17 35  1  0  0  0  0
 18 19  1  0  0  0  0
 18 36  1  0  0  0  0
 18 37  1  0  0  0  0
 19 38  1  0  0  0  0
 19 39  1  0  0  0  0
M  CHG  1  13   1
M  END
> <s_m_source_file>
AV-unprocessed.smi

> <i_m_source_file_index>
317

> <i_lp_mmshare_version>
43012

> <i_f3d_flags>
0

> <s_epik_input>
W09IXVtDSDJdW0NAQEhdKFtDSDNdKVtOSF1DKD1PKVtOSF1jMVtjSF1bY0hdW2NIXW5jMU4yW0NIMl1bQ0gyXVtDSDJdW0NIMl0y

> <s_epik_cmdline>
J2VwaWtfcHl0aG9uJywgJy1waCcsICc3LjAnLCAnLXRuJywgJzgnLCAnLW1hJywgJzIwMCcsICctbWV0YWxfYmluZGluZycsICctaW1hZScsICc8aW5maWxlLm1hZT4nLCAnLW9tYWUnLCAnPG91dGZpbGUubWFlPic=

> <r_lp_tautomer_probability>
0.999994

> <r_epik_Ionization_Penalty>
1.11558

> <r_epik_Ionization_Penalty_Charging>
1.11556

> <r_epik_Ionization_Penalty_Neutral>
2.02999e-05

> <r_epik_State_Penalty>
1.17393

> <r_epik_Charging_Adjusted_Penalty>
2.28949

> <i_epik_Tot_Q>
1

> <i_epik_Tot_abs_Q>
1

> <r_epik_Metal_State_Penalty>
1.25924

> <b_epik_Metal_Only>
0

> <s_lp_Force_Field>
OPLS_2005

> <r_lp_Energy>
37.9657

> <b_lp_Chiralities_Consistent>
1

> <s_lp_Variant>
AV-unprocessed.smi:317-3

> <Gold.Version>
5.8.1

> <Gold.Id.Protein>
6NUR|6NUR_protein|mol2

> <Gold.PLP.Fitness>
44.0562

> <Gold.PLP.PLP>
-35.8702

> <Gold.PLP.part.hbond>
-5.5740

> <Gold.PLP.part.metal>
0.0000

> <Gold.PLP.part.buried>
-4.3659

> <Gold.PLP.part.nonpolar>
-26.8389

> <Gold.PLP.part.repulsive>
0.2655

> <Gold.PLP.ligand.clash>
0.0000

> <Gold.PLP.ligand.torsion>
0.8518

> <Gold.PLP.Chemscore.Hbond>
3.1632

> <Gold.PLP.Chemscore.CHOScore>
0.0000

> <Gold.PLP.Chemscore.Metal>
0.0000

> <Gold.Chemscore.Hbonds>
donor molecule, donor type, donor heavy atom, donor atom, acceptor molecule, acceptor atom, score
      L1  H     4    26       P1  7948  0.18
      L1  H     5    27       P1  7948  0.03
      L1  H    13    40       P1 10186  1.81
      P1  H 10752 10765       L1     4  0.50

> <Gold.PLP.Chemscore.Internal.Correction>
0.4001

> <Gold.Rescore>
     Score         DG    S(hbond)    S(metal)    S(lipo)     H(rot)  DE(clash)    DE(int)     intcor
      9.63     -11.52       0.99        0.00      69.56       2.11       0.03       1.86       ----

> <Gold.Chemscore.Fitness>
9.6295

> <Gold.Chemscore.DG>
-11.5242

> <Gold.Chemscore.ZeroCoef>
-5.4800

> <Gold.Chemscore.Hbond>
0.9902

> <Gold.Chemscore.Metal>
0.0000

> <Gold.Chemscore.Lipo>
69.5598

> <Gold.Chemscore.Internal_Hbond>
0.0000

> <Gold.Chemscore.DEClash>
0.0304

> <Gold.Chemscore.DEInternal>
1.8643

> <Gold.Chemscore.Rot>
2.1099

> <Gold.Chemscore.Internal.Correction>
   9.000000E+99

> <Gold.Chemscore.Hbonds>
donor molecule, donor type, donor heavy atom, donor atom, acceptor molecule, acceptor atom, score
      L1  H     4    26       P1  7948  0.03
      L1  H     5    27       P1  7948  0.04
      L1  H    13    40       P1 10186  0.67
      P1  H 10752 10765       L1     4  0.30

> <Gold.Chemscore.Hbond.Weighted>
-3.3072

> <Gold.Chemscore.Metal.Weighted>
-0.0000

> <Gold.Chemscore.Lipo.Weighted>
-8.1385

> <Gold.Chemscore.Internal_Hbond.Weighted>
0.0000

> <Gold.Chemscore.DEClash.Weighted>
0.0304

> <Gold.Chemscore.DEInternal.Weighted>
1.8643

> <Gold.Chemscore.Rot.Weighted>
5.4015

> <Gold.Chemscore.Internal.Correction.Weighted>
   9.000000E+99

> <Gold.Protein.RotatedTorsions>
[ 6907 6896 6895 6894 ] final  108.56 input  -60.11 | X-H torsion
[ 7974 7965 7964 7962 ] final   93.99 input  175.53 | X-H torsion
[ 8008 7997 7996 7995 ] final   79.73 input   59.86 | X-H torsion
[ 10167 10162 10161 10158 ] final  -74.92 input  -65.29 | X-H torsion
[ 10718 10713 10712 10709 ] final -107.95 input   66.30 | X-H torsion
[ 10763 10752 10751 10750 ] final  174.31 input  -60.55 | X-H torsion
[ 11005 11000 10999 10996 ] final -167.21 input  -57.11 | X-H torsion

> <Gold.Protein.ActiveResidues>
 VAL166  LYS551  ARG553  GLY616  TRP617  ASP618  TYR619  PRO620  LYS621  CYS622 
 ASP623  PHE694  ASN695  SER759  ASP760  ASP761  ALA762  ILE779  LEU786  VAL792 
 PHE793  MET794  SER795  GLU796  ALA797  LYS798  CYS799  TRP800  GLU811  SER814 

> <Gold.Protein.RotatedAtoms>
  152.5107  133.9071  159.7469 H   0  0  0  0  0  0  0  0  0  0  0  0  # atno 6907 bound_to 6896
  150.9473  133.6580  159.2785 H   0  0  0  0  0  0  0  0  0  0  0  0  # atno 6908 bound_to 6896
  151.3870  135.0954  159.9567 H   0  0  0  0  0  0  0  0  0  0  0  0  # atno 6909 bound_to 6896
  145.4716  139.2282  143.2932 H   0  0  0  0  0  0  0  0  0  0  0  0  # atno 7974 bound_to 7965
  155.8738  140.3447  155.5839 H   0  0  0  0  0  0  0  0  0  0  0  0  # atno 8008 bound_to 7997
  155.7798  140.0857  157.2084 H   0  0  0  0  0  0  0  0  0  0  0  0  # atno 8009 bound_to 7997
  154.4019  140.1503  156.3026 H   0  0  0  0  0  0  0  0  0  0  0  0  # atno 8010 bound_to 7997
  140.4986  143.2365  151.7789 H   0  0  0  0  0  0  0  0  0  0  0  0  # atno 10167 bound_to 10162
  156.0461  130.5688  150.7893 H   0  0  0  0  0  0  0  0  0  0  0  0  # atno 10718 bound_to 10713
  154.4521  135.2765  155.1773 H   0  0  0  0  0  0  0  0  0  0  0  0  # atno 10763 bound_to 10752
  154.3596  135.6132  153.5687 H   0  0  0  0  0  0  0  0  0  0  0  0  # atno 10764 bound_to 10752
  152.9848  135.5831  154.4868 H   0  0  0  0  0  0  0  0  0  0  0  0  # atno 10765 bound_to 10752
  140.5558  134.5382  157.5132 H   0  0  0  0  0  0  0  0  0  0  0  0  # atno 11005 bound_to 11000
  146.2393  140.5494  142.8941 LP  0  0  0  0  0  0  0  0  0  0  0  0  # atno 17320 bound_to 7965
  144.7942  140.6090  143.6521 LP  0  0  0  0  0  0  0  0  0  0  0  0  # atno 17321 bound_to 7965
  139.4867  144.4552  151.9607 LP  0  0  0  0  0  0  0  0  0  0  0  0  # atno 17342 bound_to 10162
  140.3641  144.2937  150.5929 LP  0  0  0  0  0  0  0  0  0  0  0  0  # atno 17343 bound_to 10162
  157.5338  131.0938  150.9920 LP  0  0  0  0  0  0  0  0  0  0  0  0  # atno 17370 bound_to 10713
  157.0219  130.5677  149.5332 LP  0  0  0  0  0  0  0  0  0  0  0  0  # atno 17371 bound_to 10713
  139.9432  134.7749  156.0626 LP  0  0  0  0  0  0  0  0  0  0  0  0  # atno 17394 bound_to 11000
  141.1144  133.6632  156.3058 LP  0  0  0  0  0  0  0  0  0  0  0  0  # atno 17395 bound_to 11000

$$$$
