AV-unprocessed.smi:175|AV-procd|sdf|1432|dock3
  -GOLD-   2262019213D 1   1.00000     0.00000
 Structure written by MMmdl.
 47 50  0  0  0  0  0  0  0  0  1 V2000
  152.3566  140.8084  158.4259 C   0  0  0  0  0  0  0  0  0  0  0  0
  151.5752  142.0673  158.8338 C   0  0  1  0  0  0  0  0  0  0  0  0
  152.4632  142.9080  159.5666 O   0  0  0  0  0  0  0  0  0  0  0  0
  152.0941  144.2594  159.3582 C   0  0  0  0  0  0  0  0  0  0  0  0
  151.7423  144.2769  157.8788 C   0  0  0  0  0  0  0  0  0  0  0  0
  151.0150  142.9492  157.6818 C   0  0  2  0  0  0  0  0  0  0  0  0
  149.6381  143.1691  157.9386 O   0  0  0  0  0  0  0  0  0  0  0  0
  151.1498  142.3760  156.2464 C   0  0  0  0  0  0  0  0  0  0  0  0
  150.6840  141.0027  156.1268 N   0  0  0  0  0  0  0  0  0  0  0  0
  149.4491  140.5140  156.4927 C   0  0  0  0  0  0  0  0  0  0  0  0
  149.2724  139.2364  156.2917 N   0  0  0  0  0  0  0  0  0  0  0  0
  150.4742  138.8161  155.7377 C   0  0  0  0  0  0  0  0  0  0  0  0
  150.9665  137.5648  155.2862 C   0  0  0  0  0  0  0  0  0  0  0  0
  150.2149  136.4433  155.3352 N   0  0  0  0  0  0  0  0  0  0  0  0
  150.8930  135.2745  155.8923 C   0  0  0  0  0  0  0  0  0  0  0  0
  149.8407  134.6831  156.8090 C   0  0  0  0  0  0  0  0  0  0  0  0
  150.0220  133.6657  157.4758 O   0  0  0  0  0  0  0  0  0  0  0  0
  148.7328  135.4259  156.7762 N   0  0  0  0  0  0  0  0  0  0  0  0
  147.5032  135.2008  157.5328 C   0  0  0  0  0  0  0  0  0  0  0  0
  147.7420  135.1857  159.0532 C   0  0  0  0  0  0  0  0  0  0  0  0
  148.3481  134.0464  159.3846 F   0  0  0  0  0  0  0  0  0  0  0  0
  148.5263  136.2027  159.4096 F   0  0  0  0  0  0  0  0  0  0  0  0
  146.5927  135.2627  159.7236 F   0  0  0  0  0  0  0  0  0  0  0  0
  148.8760  136.5829  155.9093 C   0  0  0  0  0  0  0  0  0  0  0  0
  152.2257  137.5197  154.7764 N   0  0  0  0  0  0  0  0  0  0  0  0
  152.9607  138.6348  154.7199 C   0  0  0  0  0  0  0  0  0  0  0  0
  152.6356  139.8700  155.1089 N   0  0  0  0  0  0  0  0  0  0  0  0
  151.3706  139.9139  155.6185 C   0  0  0  0  0  0  0  0  0  0  0  0
  151.7300  140.1133  157.8668 H   0  0  0  0  0  0  0  0  0  0  0  0
  152.7203  140.2803  159.3076 H   0  0  0  0  0  0  0  0  0  0  0  0
  153.2241  141.0561  157.8138 H   0  0  0  0  0  0  0  0  0  0  0  0
  150.7716  141.7684  159.5094 H   0  0  0  0  0  0  0  0  0  0  0  0
  151.2277  144.5068  159.9734 H   0  0  0  0  0  0  0  0  0  0  0  0
  152.9055  144.9430  159.6082 H   0  0  0  0  0  0  0  0  0  0  0  0
  151.1576  145.1501  157.5859 H   0  0  0  0  0  0  0  0  0  0  0  0
  152.6669  144.2875  157.3006 H   0  0  0  0  0  0  0  0  0  0  0  0
  149.2665  143.6342  157.2047 H   0  0  0  0  0  0  0  0  0  0  0  0
  150.5793  142.9783  155.5389 H   0  0  0  0  0  0  0  0  0  0  0  0
  152.1889  142.4135  155.9172 H   0  0  0  0  0  0  0  0  0  0  0  0
  148.6791  141.1380  156.9219 H   0  0  0  0  0  0  0  0  0  0  0  0
  151.1516  134.5704  155.1011 H   0  0  0  0  0  0  0  0  0  0  0  0
  151.7947  135.5204  156.4564 H   0  0  0  0  0  0  0  0  0  0  0  0
  146.7718  135.9687  157.2762 H   0  0  0  0  0  0  0  0  0  0  0  0
  147.0662  134.2506  157.2224 H   0  0  0  0  0  0  0  0  0  0  0  0
  148.7378  137.5038  156.4785 H   0  0  0  0  0  0  0  0  0  0  0  0
  148.1293  136.5567  155.1153 H   0  0  0  0  0  0  0  0  0  0  0  0
  153.9506  138.5214  154.3034 H   0  0  0  0  0  0  0  0  0  0  0  0
  1  2  1  0  0  0  0
  1 29  1  0  0  0  0
  1 30  1  0  0  0  0
  1 31  1  0  0  0  0
  2  6  1  0  0  0  0
  2  3  1  0  0  0  0
  2 32  1  0  0  0  0
  3  4  1  0  0  0  0
  4  5  1  0  0  0  0
  4 33  1  0  0  0  0
  4 34  1  0  0  0  0
  5  6  1  0  0  0  0
  5 35  1  0  0  0  0
  5 36  1  0  0  0  0
  6  7  1  0  0  0  0
  6  8  1  0  0  0  0
  7 37  1  0  0  0  0
  8  9  1  0  0  0  0
  8 38  1  0  0  0  0
  8 39  1  0  0  0  0
  9 28  1  0  0  0  0
  9 10  1  0  0  0  0
 10 11  2  0  0  0  0
 10 40  1  0  0  0  0
 11 12  1  0  0  0  0
 12 28  2  0  0  0  0
 12 13  1  0  0  0  0
 13 14  1  0  0  0  0
 13 25  2  0  0  0  0
 14 24  1  0  0  0  0
 14 15  1  0  0  0  0
 15 16  1  0  0  0  0
 15 41  1  0  0  0  0
 15 42  1  0  0  0  0
 16 17  2  0  0  0  0
 16 18  1  0  0  0  0
 18 19  1  0  0  0  0
 18 24  1  0  0  0  0
 19 20  1  0  0  0  0
 19 43  1  0  0  0  0
 19 44  1  0  0  0  0
 20 21  1  0  0  0  0
 20 22  1  0  0  0  0
 20 23  1  0  0  0  0
 24 45  1  0  0  0  0
 24 46  1  0  0  0  0
 25 26  1  0  0  0  0
 26 27  2  0  0  0  0
 26 47  1  0  0  0  0
 27 28  1  0  0  0  0
M  END
> <s_m_source_file>
AV-unprocessed.smi

> <i_m_source_file_index>
175

> <i_lp_mmshare_version>
43012

> <i_f3d_flags>
0

> <s_epik_input>
W0NIMl0xW0NIMl1PW0NAQEhdKFtDSDNdKVtDQEBdMShbT0hdKVtDSDJdbihbY0hdbjIpYyhjMjMpbltjSF1uYzNONFtDSDJdQyg9TylOKFtDSDJdNClbQ0gyXUMoRikoRilG

> <s_epik_cmdline>
J2VwaWtfcHl0aG9uJywgJy1waCcsICc3LjAnLCAnLXRuJywgJzgnLCAnLW1hJywgJzIwMCcsICctbWV0YWxfYmluZGluZycsICctaW1hZScsICc8aW5maWxlLm1hZT4nLCAnLW9tYWUnLCAnPG91dGZpbGUubWFlPic=

> <r_lp_tautomer_probability>
1

> <r_epik_Ionization_Penalty>
0.000307802

> <r_epik_Ionization_Penalty_Charging>
0

> <r_epik_Ionization_Penalty_Neutral>
0.000307802

> <r_epik_State_Penalty>
-0

> <r_epik_Charging_Adjusted_Penalty>
0

> <i_epik_Tot_Q>
0

> <i_epik_Tot_abs_Q>
0

> <r_epik_Metal_State_Penalty>
-0

> <b_epik_Metal_Only>
0

> <s_epik_Chemistry_Notes>
This compound contains an acetal/aminal-like group ( X-CH(R)-Y where X, Y are N, S, or O) that may be acid/base labile, releasing an aldehyde.

> <s_lp_Force_Field>
OPLS_2005

> <r_lp_Energy>
36.4888

> <b_lp_Chiralities_Consistent>
1

> <s_lp_Variant>
AV-unprocessed.smi:175-4

> <Gold.Version>
5.8.1

> <Gold.Id.Protein>
6NUR|6NUR_protein|mol2

> <Gold.PLP.Fitness>
50.1633

> <Gold.PLP.PLP>
-41.3756

> <Gold.PLP.part.hbond>
-4.8845

> <Gold.PLP.part.metal>
0.0000

> <Gold.PLP.part.buried>
-7.3554

> <Gold.PLP.part.nonpolar>
-30.1043

> <Gold.PLP.part.repulsive>
0.2219

> <Gold.PLP.ligand.clash>
1.4446

> <Gold.PLP.ligand.torsion>
0.4105

> <Gold.PLP.Chemscore.Hbond>
3.5770

> <Gold.PLP.Chemscore.CHOScore>
0.0000

> <Gold.PLP.Chemscore.Metal>
0.0000

> <Gold.Chemscore.Hbonds>
donor molecule, donor type, donor heavy atom, donor atom, acceptor molecule, acceptor atom, score
      L1  H     7    37       P1  8028  1.00
      P1  H  6896  6908       L1    17  0.99
      P1  H  7989  7998       L1    27  0.04
      P1  H  7997  8008       L1    27  0.70
      P1  H 10752 10763       L1    25  0.71

> <Gold.PLP.Chemscore.Internal.Correction>
0.3223

> <Gold.Rescore>
     Score         DG    S(hbond)    S(metal)    S(lipo)     H(rot)  DE(clash)    DE(int)     intcor
      9.36     -15.23       2.81        0.00      69.79       3.05       0.04       5.82       ----

> <Gold.Chemscore.Fitness>
9.3627

> <Gold.Chemscore.DG>
-15.2267

> <Gold.Chemscore.ZeroCoef>
-5.4800

> <Gold.Chemscore.Hbond>
2.8101

> <Gold.Chemscore.Metal>
0.0000

> <Gold.Chemscore.Lipo>
69.7912

> <Gold.Chemscore.Internal_Hbond>
0.0000

> <Gold.Chemscore.DEClash>
0.0416

> <Gold.Chemscore.DEInternal>
5.8224

> <Gold.Chemscore.Rot>
3.0487

> <Gold.Chemscore.Internal.Correction>
   9.000000E+99

> <Gold.Chemscore.Hbonds>
donor molecule, donor type, donor heavy atom, donor atom, acceptor molecule, acceptor atom, score
      L1  H     7    37       P1  8028  0.60
      P1  H  6896  6908       L1    17  0.91
      P1  H  7997  8008       L1    27  0.07
      P1  H 10752 10763       L1    25  0.58

> <Gold.Chemscore.Hbond.Weighted>
-9.3857

> <Gold.Chemscore.Metal.Weighted>
-0.0000

> <Gold.Chemscore.Lipo.Weighted>
-8.1656

> <Gold.Chemscore.Internal_Hbond.Weighted>
0.0000

> <Gold.Chemscore.DEClash.Weighted>
0.0416

> <Gold.Chemscore.DEInternal.Weighted>
5.8224

> <Gold.Chemscore.Rot.Weighted>
7.8046

> <Gold.Chemscore.Internal.Correction.Weighted>
   9.000000E+99

> <Gold.Protein.RotatedTorsions>
[ 6907 6896 6895 6894 ] final  106.29 input  -60.11 | X-H torsion
[ 7974 7965 7964 7962 ] final   -0.04 input  175.53 | X-H torsion
[ 8008 7997 7996 7995 ] final  -30.27 input   59.86 | X-H torsion
[ 10167 10162 10161 10158 ] final  157.25 input  -65.29 | X-H torsion
[ 10718 10713 10712 10709 ] final    7.98 input   66.30 | X-H torsion
[ 10763 10752 10751 10750 ] final   54.24 input  -60.55 | X-H torsion
[ 11005 11000 10999 10996 ] final  -50.88 input  -57.11 | X-H torsion

> <Gold.Protein.ActiveResidues>
 VAL166  LYS551  ARG553  GLY616  TRP617  ASP618  TYR619  PRO620  LYS621  CYS622 
 ASP623  PHE694  ASN695  SER759  ASP760  ASP761  ALA762  ILE779  LEU786  VAL792 
 PHE793  MET794  SER795  GLU796  ALA797  LYS798  CYS799  TRP800  GLU811  SER814 

> <Gold.Protein.RotatedAtoms>
  152.5199  133.9403  159.7622 H   0  0  0  0  0  0  0  0  0  0  0  0  # atno 6907 bound_to 6896
  150.9735  133.6311  159.2741 H   0  0  0  0  0  0  0  0  0  0  0  0  # atno 6908 bound_to 6896
  151.3514  135.0891  159.9457 H   0  0  0  0  0  0  0  0  0  0  0  0  # atno 6909 bound_to 6896
  146.2430  140.1210  142.8340 H   0  0  0  0  0  0  0  0  0  0  0  0  # atno 7974 bound_to 7965
  154.4257  140.1796  156.1381 H   0  0  0  0  0  0  0  0  0  0  0  0  # atno 8008 bound_to 7997
  156.0014  140.3359  155.6824 H   0  0  0  0  0  0  0  0  0  0  0  0  # atno 8009 bound_to 7997
  155.6238  140.0662  157.2661 H   0  0  0  0  0  0  0  0  0  0  0  0  # atno 8010 bound_to 7997
  139.4822  144.4934  151.8274 H   0  0  0  0  0  0  0  0  0  0  0  0  # atno 10167 bound_to 10162
  156.9449  130.5875  149.5654 H   0  0  0  0  0  0  0  0  0  0  0  0  # atno 10718 bound_to 10713
  152.9802  135.5751  154.4872 H   0  0  0  0  0  0  0  0  0  0  0  0  # atno 10763 bound_to 10752
  154.4412  135.2776  155.1848 H   0  0  0  0  0  0  0  0  0  0  0  0  # atno 10764 bound_to 10752
  154.3516  135.6208  153.5699 H   0  0  0  0  0  0  0  0  0  0  0  0  # atno 10765 bound_to 10752
  141.0840  133.6646  156.3795 H   0  0  0  0  0  0  0  0  0  0  0  0  # atno 11005 bound_to 11000
  145.0406  140.8942  143.5055 LP  0  0  0  0  0  0  0  0  0  0  0  0  # atno 17320 bound_to 7965
  145.1290  139.2644  143.5549 LP  0  0  0  0  0  0  0  0  0  0  0  0  # atno 17321 bound_to 7965
  140.4421  144.1972  150.5892 LP  0  0  0  0  0  0  0  0  0  0  0  0  # atno 17342 bound_to 10162
  140.4673  143.2426  151.9138 LP  0  0  0  0  0  0  0  0  0  0  0  0  # atno 17343 bound_to 10162
  156.0388  130.5472  150.8719 LP  0  0  0  0  0  0  0  0  0  0  0  0  # atno 17370 bound_to 10713
  157.5760  131.0946  150.9345 LP  0  0  0  0  0  0  0  0  0  0  0  0  # atno 17371 bound_to 10713
  140.5404  134.6126  157.5378 LP  0  0  0  0  0  0  0  0  0  0  0  0  # atno 17394 bound_to 11000
  139.9656  134.7378  156.0144 LP  0  0  0  0  0  0  0  0  0  0  0  0  # atno 17395 bound_to 11000

$$$$
