AV-unprocessed.smi:2822|AV-procd|sdf|10862|dock4
  -GOLD-   2272015303D 1   1.00000     0.00000
 Structure written by MMmdl.
 41 43  0  0  0  0  0  0  0  0  3 V2000
  151.3348  144.3375  160.8122 Cl  0  0  0  0  0  0  0  0  0  0  0  0
  152.4129  143.0423  161.1996 C   0  0  0  0  0  0  0  0  0  0  0  0
  152.9918  142.9888  162.4845 C   0  0  0  0  0  0  0  0  0  0  0  0
  153.8367  141.9857  162.8038 N   0  3  0  0  0  0  0  0  0  0  0  0
  154.1646  141.0051  161.9360 C   0  0  0  0  0  0  0  0  0  0  0  0
  153.6178  141.0038  160.6366 C   0  0  0  0  0  0  0  0  0  0  0  0
  152.7265  142.0368  160.2517 C   0  0  0  0  0  0  0  0  0  0  0  0
  152.1479  142.0918  158.9738 N   0  0  0  0  0  0  0  0  0  0  0  0
  152.1488  140.9279  158.1001 C   0  0  0  0  0  0  0  0  0  0  0  0
  150.8541  140.8337  157.2800 C   0  0  2  0  0  0  0  0  0  0  0  0
  150.5671  142.1512  156.5253 C   0  0  0  0  0  0  0  0  0  0  0  0
  149.2570  142.1091  155.8313 N   0  3  1  0  0  0  0  0  0  0  0  0
  149.2820  141.3188  154.5702 C   0  0  0  0  0  0  0  0  0  0  0  0
  147.9228  141.3589  153.8570 C   0  0  0  0  0  0  0  0  0  0  0  0
  146.8098  140.8581  154.7837 C   0  0  0  0  0  0  0  0  0  0  0  0
  146.7952  141.6869  156.0753 C   0  0  0  0  0  0  0  0  0  0  0  0
  148.1716  141.7188  156.7733 C   0  0  1  0  0  0  0  0  0  0  0  0
  148.5315  140.4103  157.5078 C   0  0  0  0  0  0  0  0  0  0  0  0
  149.7771  140.5754  158.1765 O   0  0  0  0  0  0  0  0  0  0  0  0
  152.8048  143.7148  163.2623 H   0  0  0  0  0  0  0  0  0  0  0  0
  154.8490  140.2548  162.3045 H   0  0  0  0  0  0  0  0  0  0  0  0
  153.8895  140.2086  159.9587 H   0  0  0  0  0  0  0  0  0  0  0  0
  151.9551  142.9962  158.5658 H   0  0  0  0  0  0  0  0  0  0  0  0
  153.0130  140.9630  157.4356 H   0  0  0  0  0  0  0  0  0  0  0  0
  152.2488  140.0344  158.7174 H   0  0  0  0  0  0  0  0  0  0  0  0
  150.9471  140.0096  156.5709 H   0  0  0  0  0  0  0  0  0  0  0  0
  150.5495  142.9806  157.2337 H   0  0  0  0  0  0  0  0  0  0  0  0
  151.3622  142.3722  155.8121 H   0  0  0  0  0  0  0  0  0  0  0  0
  150.0498  141.7219  153.9088 H   0  0  0  0  0  0  0  0  0  0  0  0
  149.5558  140.2831  154.7709 H   0  0  0  0  0  0  0  0  0  0  0  0
  147.7047  142.3778  153.5344 H   0  0  0  0  0  0  0  0  0  0  0  0
  147.9583  140.7486  152.9540 H   0  0  0  0  0  0  0  0  0  0  0  0
  145.8441  140.9296  154.2824 H   0  0  0  0  0  0  0  0  0  0  0  0
  146.9623  139.8033  155.0143 H   0  0  0  0  0  0  0  0  0  0  0  0
  146.4976  142.7081  155.8323 H   0  0  0  0  0  0  0  0  0  0  0  0
  146.0339  141.3066  156.7571 H   0  0  0  0  0  0  0  0  0  0  0  0
  148.1199  142.5004  157.5330 H   0  0  0  0  0  0  0  0  0  0  0  0
  147.7699  140.1754  158.2517 H   0  0  0  0  0  0  0  0  0  0  0  0
  148.5797  139.5590  156.8280 H   0  0  0  0  0  0  0  0  0  0  0  0
  149.0554  143.0571  155.5463 H   0  0  0  0  0  0  0  0  0  0  0  0
  154.2435  141.9681  163.7395 H   0  0  0  0  0  0  0  0  0  0  0  0
  1  2  1  0  0  0  0
  2  7  1  0  0  0  0
  2  3  2  0  0  0  0
  3  4  1  0  0  0  0
  3 20  1  0  0  0  0
  4  5  2  0  0  0  0
  4 41  1  0  0  0  0
  5  6  1  0  0  0  0
  5 21  1  0  0  0  0
  6  7  2  0  0  0  0
  6 22  1  0  0  0  0
  7  8  1  0  0  0  0
  8  9  1  0  0  0  0
  8 23  1  0  0  0  0
  9 10  1  0  0  0  0
  9 24  1  0  0  0  0
  9 25  1  0  0  0  0
 10 19  1  0  0  0  0
 10 11  1  0  0  0  0
 10 26  1  0  0  0  0
 11 12  1  0  0  0  0
 11 27  1  0  0  0  0
 11 28  1  0  0  0  0
 12 17  1  0  0  0  0
 12 13  1  0  0  0  0
 12 40  1  0  0  0  0
 13 14  1  0  0  0  0
 13 29  1  0  0  0  0
 13 30  1  0  0  0  0
 14 15  1  0  0  0  0
 14 31  1  0  0  0  0
 14 32  1  0  0  0  0
 15 16  1  0  0  0  0
 15 33  1  0  0  0  0
 15 34  1  0  0  0  0
 16 17  1  0  0  0  0
 16 35  1  0  0  0  0
 16 36  1  0  0  0  0
 17 18  1  0  0  0  0
 17 37  1  0  0  0  0
 18 19  1  0  0  0  0
 18 38  1  0  0  0  0
 18 39  1  0  0  0  0
M  CHG  1   4   1
M  CHG  1  12   1
M  END
> <s_m_source_file>
AV-unprocessed.smi

> <i_m_source_file_index>
2822

> <i_lp_mmshare_version>
43012

> <i_f3d_flags>
0

> <s_epik_input>
Q2xjMVtjSF1uW2NIXVtjSF1jMVtOSF1bQ0gyXVtDQEhdKFtDSDJdMilPW0NIMl1bQ0BASF0oTjIzKVtDSDJdW0NIMl1bQ0gyXVtDSDJdMw==

> <s_epik_cmdline>
J2VwaWtfcHl0aG9uJywgJy1waCcsICc3LjAnLCAnLXRuJywgJzgnLCAnLW1hJywgJzIwMCcsICctbWV0YWxfYmluZGluZycsICctaW1hZScsICc8aW5maWxlLm1hZT4nLCAnLW9tYWUnLCAnPG91dGZpbGUubWFlPic=

> <r_lp_tautomer_probability>
1

> <r_epik_Ionization_Penalty>
0.254999

> <r_epik_Ionization_Penalty_Charging>
0.254956

> <r_epik_Ionization_Penalty_Neutral>
4.33524e-05

> <r_epik_State_Penalty>
0.230978

> <r_epik_Charging_Adjusted_Penalty>
0.485934

> <i_epik_Tot_Q>
2

> <i_epik_Tot_abs_Q>
2

> <r_epik_Metal_State_Penalty>
3.47007

> <b_epik_Metal_Only>
0

> <s_lp_Force_Field>
OPLS_2005

> <r_lp_Energy>
40.6949

> <b_lp_Chiralities_Consistent>
1

> <s_lp_Variant>
AV-unprocessed.smi:2822-3

> <Gold.Version>
5.8.1

> <Gold.Id.Protein>
6NUR|6NUR_protein|mol2

> <Gold.PLP.Fitness>
45.6777

> <Gold.PLP.PLP>
-40.1800

> <Gold.PLP.part.hbond>
-1.9143

> <Gold.PLP.part.metal>
0.0000

> <Gold.PLP.part.buried>
-4.2112

> <Gold.PLP.part.nonpolar>
-33.6557

> <Gold.PLP.part.repulsive>
0.2364

> <Gold.PLP.ligand.clash>
0.0000

> <Gold.PLP.ligand.torsion>
0.2514

> <Gold.PLP.Chemscore.Hbond>
2.0000

> <Gold.PLP.Chemscore.CHOScore>
0.0000

> <Gold.PLP.Chemscore.Metal>
0.0000

> <Gold.Chemscore.Hbonds>
donor molecule, donor type, donor heavy atom, donor atom, acceptor molecule, acceptor atom, score
      L1  H    12    40       P1  8028  2.00

> <Gold.PLP.Chemscore.Internal.Correction>
0.0004

> <Gold.Rescore>
     Score         DG    S(hbond)    S(metal)    S(lipo)     H(rot)  DE(clash)    DE(int)     intcor
     18.92     -19.20       0.98        0.00     115.37       1.20       0.09       0.19       ----

> <Gold.Chemscore.Fitness>
18.9242

> <Gold.Chemscore.DG>
-19.2018

> <Gold.Chemscore.ZeroCoef>
-5.4800

> <Gold.Chemscore.Hbond>
0.9839

> <Gold.Chemscore.Metal>
0.0000

> <Gold.Chemscore.Lipo>
115.3664

> <Gold.Chemscore.Internal_Hbond>
0.0000

> <Gold.Chemscore.DEClash>
0.0900

> <Gold.Chemscore.DEInternal>
0.1877

> <Gold.Chemscore.Rot>
1.1962

> <Gold.Chemscore.Internal.Correction>
   9.000000E+99

> <Gold.Chemscore.Hbonds>
donor molecule, donor type, donor heavy atom, donor atom, acceptor molecule, acceptor atom, score
      L1  H    12    40       P1  8028  0.99

> <Gold.Chemscore.Hbond.Weighted>
-3.2862

> <Gold.Chemscore.Metal.Weighted>
-0.0000

> <Gold.Chemscore.Lipo.Weighted>
-13.4979

> <Gold.Chemscore.Internal_Hbond.Weighted>
0.0000

> <Gold.Chemscore.DEClash.Weighted>
0.0900

> <Gold.Chemscore.DEInternal.Weighted>
0.1877

> <Gold.Chemscore.Rot.Weighted>
3.0623

> <Gold.Chemscore.Internal.Correction.Weighted>
   9.000000E+99

> <Gold.Protein.RotatedTorsions>
[ 6907 6896 6895 6894 ] final   26.13 input  -60.11 | X-H torsion
[ 7974 7965 7964 7962 ] final   87.34 input  175.53 | X-H torsion
[ 8008 7997 7996 7995 ] final  -59.94 input   59.86 | X-H torsion
[ 10167 10162 10161 10158 ] final   51.86 input  -65.29 | X-H torsion
[ 10718 10713 10712 10709 ] final   53.47 input   66.30 | X-H torsion
[ 10763 10752 10751 10750 ] final   81.23 input  -60.55 | X-H torsion
[ 11005 11000 10999 10996 ] final  164.14 input  -57.11 | X-H torsion

> <Gold.Protein.ActiveResidues>
 VAL166  LYS551  ARG553  GLY616  TRP617  ASP618  TYR619  PRO620  LYS621  CYS622 
 ASP623  PHE694  ASN695  SER759  ASP760  ASP761  ALA762  ILE779  LEU786  VAL792 
 PHE793  MET794  SER795  GLU796  ALA797  LYS798  CYS799  TRP800  GLU811  SER814 

> <Gold.Protein.RotatedAtoms>
  151.9829  135.0019  160.0557 H   0  0  0  0  0  0  0  0  0  0  0  0  # atno 6907 bound_to 6896
  152.1680  133.4620  159.4903 H   0  0  0  0  0  0  0  0  0  0  0  0  # atno 6908 bound_to 6896
  150.6897  134.1906  159.4327 H   0  0  0  0  0  0  0  0  0  0  0  0  # atno 6909 bound_to 6896
  145.5603  139.2303  143.2463 H   0  0  0  0  0  0  0  0  0  0  0  0  # atno 7974 bound_to 7965
  154.4375  140.1050  156.6195 H   0  0  0  0  0  0  0  0  0  0  0  0  # atno 8008 bound_to 7997
  155.5722  140.3489  155.4499 H   0  0  0  0  0  0  0  0  0  0  0  0  # atno 8009 bound_to 7997
  156.0381  140.1276  157.0175 H   0  0  0  0  0  0  0  0  0  0  0  0  # atno 8010 bound_to 7997
  140.2574  144.3411  150.6328 H   0  0  0  0  0  0  0  0  0  0  0  0  # atno 10167 bound_to 10162
  157.5169  130.8539  149.8508 H   0  0  0  0  0  0  0  0  0  0  0  0  # atno 10718 bound_to 10713
  153.1099  135.4773  154.9017 H   0  0  0  0  0  0  0  0  0  0  0  0  # atno 10763 bound_to 10752
  154.7470  135.3096  154.8630 H   0  0  0  0  0  0  0  0  0  0  0  0  # atno 10764 bound_to 10752
  153.9222  135.6854  153.4801 H   0  0  0  0  0  0  0  0  0  0  0  0  # atno 10765 bound_to 10752
  140.2429  134.8037  157.3428 H   0  0  0  0  0  0  0  0  0  0  0  0  # atno 11005 bound_to 11000
  146.1856  140.6428  142.9169 LP  0  0  0  0  0  0  0  0  0  0  0  0  # atno 17320 bound_to 7965
  144.7486  140.5133  143.6818 LP  0  0  0  0  0  0  0  0  0  0  0  0  # atno 17321 bound_to 7965
  140.5993  143.2167  151.7104 LP  0  0  0  0  0  0  0  0  0  0  0  0  # atno 17342 bound_to 10162
  139.5027  144.3818  152.0368 LP  0  0  0  0  0  0  0  0  0  0  0  0  # atno 17343 bound_to 10162
  156.0327  130.3760  150.1645 LP  0  0  0  0  0  0  0  0  0  0  0  0  # atno 17370 bound_to 10713
  156.9833  130.9871  151.3432 LP  0  0  0  0  0  0  0  0  0  0  0  0  # atno 17371 bound_to 10713
  140.1635  134.4698  155.7878 LP  0  0  0  0  0  0  0  0  0  0  0  0  # atno 17394 bound_to 11000
  141.2209  133.6911  156.7586 LP  0  0  0  0  0  0  0  0  0  0  0  0  # atno 17395 bound_to 11000

$$$$
