AV-unprocessed.smi:2184|AV-procd|sdf|8870|dock2
  -GOLD-   2272012 73D 1   1.00000     0.00000
 Structure written by MMmdl.
 47 48  0  0  0  0  0  0  0  0  1 V2000
  147.9817  132.9054  154.2540 C   0  0  0  0  0  0  0  0  0  0  0  0
  149.4080  133.9461  153.8384 S   0  0  0  0  0  0  0  0  0  0  0  0
  149.5754  134.9260  155.3605 C   0  0  1  0  0  0  0  0  0  0  0  0
  149.7731  133.9994  156.5705 C   0  0  0  0  0  0  0  0  0  0  0  0
  150.7116  135.9508  155.2589 C   0  0  0  0  0  0  0  0  0  0  0  0
  151.6279  135.9482  156.0816 O   0  0  0  0  0  0  0  0  0  0  0  0
  150.6429  136.8218  154.2399 N   0  0  0  0  0  0  0  0  0  0  0  0
  151.6210  137.8710  153.9709 C   0  0  0  0  0  0  0  0  0  0  0  0
  151.7054  138.9434  155.0483 C   0  0  0  0  0  0  0  0  0  0  0  0
  150.7637  139.9899  155.1406 C   0  0  0  0  0  0  0  0  0  0  0  0
  150.9052  140.9489  156.1612 C   0  0  0  0  0  0  0  0  0  0  0  0
  151.9907  140.8433  157.0632 C   0  0  0  0  0  0  0  0  0  0  0  0
  152.1508  141.7929  158.0954 N   0  0  0  0  0  0  0  0  0  0  0  0
  152.3621  141.2453  159.4323 C   0  0  0  0  0  0  0  0  0  0  0  0
  152.8381  142.3484  160.3966 C   0  0  2  0  0  0  0  0  0  0  0  0
  152.9527  141.8419  161.8380 C   0  0  0  0  0  0  0  0  0  0  0  0
  151.9065  143.4266  160.3743 O   0  0  0  0  0  0  0  0  0  0  0  0
  151.7947  144.0230  159.0849 C   0  0  2  0  0  0  0  0  0  0  0  0
  150.8479  145.2231  159.1896 C   0  0  0  0  0  0  0  0  0  0  0  0
  151.2842  142.9695  158.0847 C   0  0  0  0  0  0  0  0  0  0  0  0
  152.8947  139.8369  156.9692 N   0  0  0  0  0  0  0  0  0  0  0  0
  152.7542  138.9201  155.9890 C   0  0  0  0  0  0  0  0  0  0  0  0
  147.7758  132.2123  153.4385 H   0  0  0  0  0  0  0  0  0  0  0  0
  147.0926  133.5144  154.4176 H   0  0  0  0  0  0  0  0  0  0  0  0
  148.1803  132.3267  155.1562 H   0  0  0  0  0  0  0  0  0  0  0  0
  148.6347  135.4594  155.5061 H   0  0  0  0  0  0  0  0  0  0  0  0
  149.8860  134.5698  157.4934 H   0  0  0  0  0  0  0  0  0  0  0  0
  150.6576  133.3715  156.4553 H   0  0  0  0  0  0  0  0  0  0  0  0
  148.9153  133.3386  156.6975 H   0  0  0  0  0  0  0  0  0  0  0  0
  149.8591  136.7530  153.6071 H   0  0  0  0  0  0  0  0  0  0  0  0
  152.6041  137.4229  153.8173 H   0  0  0  0  0  0  0  0  0  0  0  0
  151.3521  138.3529  153.0310 H   0  0  0  0  0  0  0  0  0  0  0  0
  149.9398  140.0619  154.4462 H   0  0  0  0  0  0  0  0  0  0  0  0
  150.1758  141.7403  156.2486 H   0  0  0  0  0  0  0  0  0  0  0  0
  151.4234  140.8164  159.7855 H   0  0  0  0  0  0  0  0  0  0  0  0
  153.0948  140.4394  159.4253 H   0  0  0  0  0  0  0  0  0  0  0  0
  153.8162  142.7151  160.0798 H   0  0  0  0  0  0  0  0  0  0  0  0
  153.6675  141.0217  161.9102 H   0  0  0  0  0  0  0  0  0  0  0  0
  151.9919  141.4828  162.2078 H   0  0  0  0  0  0  0  0  0  0  0  0
  153.2905  142.6362  162.5042 H   0  0  0  0  0  0  0  0  0  0  0  0
  152.7760  144.3825  158.7703 H   0  0  0  0  0  0  0  0  0  0  0  0
  150.7373  145.7207  158.2259 H   0  0  0  0  0  0  0  0  0  0  0  0
  151.2268  145.9571  159.9012 H   0  0  0  0  0  0  0  0  0  0  0  0
  149.8565  144.9158  159.5239 H   0  0  0  0  0  0  0  0  0  0  0  0
  151.2546  143.4049  157.0851 H   0  0  0  0  0  0  0  0  0  0  0  0
  150.2672  142.6683  158.3406 H   0  0  0  0  0  0  0  0  0  0  0  0
  153.5028  138.1422  155.9582 H   0  0  0  0  0  0  0  0  0  0  0  0
  1  2  1  0  0  0  0
  1 23  1  0  0  0  0
  1 24  1  0  0  0  0
  1 25  1  0  0  0  0
  2  3  1  0  0  0  0
  3  4  1  0  0  0  0
  3  5  1  0  0  0  0
  3 26  1  0  0  0  0
  4 27  1  0  0  0  0
  4 28  1  0  0  0  0
  4 29  1  0  0  0  0
  5  6  2  0  0  0  0
  5  7  1  0  0  0  0
  7  8  1  0  0  0  0
  7 30  1  0  0  0  0
  8  9  1  0  0  0  0
  8 31  1  0  0  0  0
  8 32  1  0  0  0  0
  9 22  1  0  0  0  0
  9 10  2  0  0  0  0
 10 11  1  0  0  0  0
 10 33  1  0  0  0  0
 11 12  2  0  0  0  0
 11 34  1  0  0  0  0
 12 13  1  0  0  0  0
 12 21  1  0  0  0  0
 13 20  1  0  0  0  0
 13 14  1  0  0  0  0
 14 15  1  0  0  0  0
 14 35  1  0  0  0  0
 14 36  1  0  0  0  0
 15 16  1  0  0  0  0
 15 17  1  0  0  0  0
 15 37  1  0  0  0  0
 16 38  1  0  0  0  0
 16 39  1  0  0  0  0
 16 40  1  0  0  0  0
 17 18  1  0  0  0  0
 18 19  1  0  0  0  0
 18 20  1  0  0  0  0
 18 41  1  0  0  0  0
 19 42  1  0  0  0  0
 19 43  1  0  0  0  0
 19 44  1  0  0  0  0
 20 45  1  0  0  0  0
 20 46  1  0  0  0  0
 21 22  2  0  0  0  0
 22 47  1  0  0  0  0
M  END
> <s_m_source_file>
AV-unprocessed.smi

> <i_m_source_file_index>
2184

> <i_lp_mmshare_version>
43012

> <i_f3d_flags>
0

> <s_epik_input>
W0NIM11TW0NASF0oW0NIM10pQyg9TylbTkhdW0NIMl1jMVtjSF1bY0hdYyhuW2NIXTEpTjJbQ0gyXVtDQEBIXShbQ0gzXSlPW0NAQEhdKFtDSDNdKVtDSDJdMg==

> <s_epik_cmdline>
J2VwaWtfcHl0aG9uJywgJy1waCcsICc3LjAnLCAnLXRuJywgJzgnLCAnLW1hJywgJzIwMCcsICctbWV0YWxfYmluZGluZycsICctaW1hZScsICc8aW5maWxlLm1hZT4nLCAnLW9tYWUnLCAnPG91dGZpbGUubWFlPic=

> <r_lp_tautomer_probability>
1

> <r_epik_Ionization_Penalty>
0.00551702

> <r_epik_Ionization_Penalty_Charging>
0

> <r_epik_Ionization_Penalty_Neutral>
0.00551702

> <r_epik_State_Penalty>
0.00403758

> <r_epik_Charging_Adjusted_Penalty>
0.00403758

> <i_epik_Tot_Q>
0

> <i_epik_Tot_abs_Q>
0

> <r_epik_Metal_State_Penalty>
-0

> <b_epik_Metal_Only>
0

> <s_lp_Force_Field>
OPLS_2005

> <r_lp_Energy>
14.1544

> <b_lp_Chiralities_Consistent>
1

> <s_lp_Variant>
AV-unprocessed.smi:2184-2

> <Gold.Version>
5.8.1

> <Gold.Id.Protein>
6NUR|6NUR_protein|mol2

> <Gold.PLP.Fitness>
52.1320

> <Gold.PLP.PLP>
-44.6176

> <Gold.PLP.part.hbond>
-3.7800

> <Gold.PLP.part.metal>
0.0000

> <Gold.PLP.part.buried>
-1.8987

> <Gold.PLP.part.nonpolar>
-37.7418

> <Gold.PLP.part.repulsive>
0.1375

> <Gold.PLP.ligand.clash>
0.0000

> <Gold.PLP.ligand.torsion>
0.4514

> <Gold.PLP.Chemscore.Hbond>
2.6763

> <Gold.PLP.Chemscore.CHOScore>
0.0000

> <Gold.PLP.Chemscore.Metal>
0.0000

> <Gold.Chemscore.Hbonds>
donor molecule, donor type, donor heavy atom, donor atom, acceptor molecule, acceptor atom, score
      L1  H     7    30       P1  7948  1.00
      P1  H  7997  8008       L1    21  0.90
      P1  H 10752 10764       L1     6  0.85

> <Gold.PLP.Chemscore.Internal.Correction>
0.3884

> <Gold.Rescore>
     Score         DG    S(hbond)    S(metal)    S(lipo)     H(rot)  DE(clash)    DE(int)     intcor
     18.66     -19.93       1.42        0.00     117.87       1.59       0.99       0.28       ----

> <Gold.Chemscore.Fitness>
18.6616

> <Gold.Chemscore.DG>
-19.9333

> <Gold.Chemscore.ZeroCoef>
-5.4800

> <Gold.Chemscore.Hbond>
1.4208

> <Gold.Chemscore.Metal>
0.0000

> <Gold.Chemscore.Lipo>
117.8663

> <Gold.Chemscore.Internal_Hbond>
0.0000

> <Gold.Chemscore.DEClash>
0.9935

> <Gold.Chemscore.DEInternal>
0.2782

> <Gold.Chemscore.Rot>
1.5947

> <Gold.Chemscore.Internal.Correction>
   9.000000E+99

> <Gold.Chemscore.Hbonds>
donor molecule, donor type, donor heavy atom, donor atom, acceptor molecule, acceptor atom, score
      L1  H     7    30       P1  7948  0.37
      P1  H  7997  8008       L1    21  0.17
      P1  H 10752 10764       L1     6  0.15

> <Gold.Chemscore.Hbond.Weighted>
-4.7454

> <Gold.Chemscore.Metal.Weighted>
-0.0000

> <Gold.Chemscore.Lipo.Weighted>
-13.7904

> <Gold.Chemscore.Internal_Hbond.Weighted>
0.0000

> <Gold.Chemscore.DEClash.Weighted>
0.9935

> <Gold.Chemscore.DEInternal.Weighted>
0.2782

> <Gold.Chemscore.Rot.Weighted>
4.0824

> <Gold.Chemscore.Internal.Correction.Weighted>
   9.000000E+99

> <Gold.Protein.RotatedTorsions>
[ 6907 6896 6895 6894 ] final   80.88 input  -60.11 | X-H torsion
[ 7974 7965 7964 7962 ] final    5.74 input  175.53 | X-H torsion
[ 8008 7997 7996 7995 ] final  -73.51 input   59.86 | X-H torsion
[ 10167 10162 10161 10158 ] final  129.43 input  -65.29 | X-H torsion
[ 10718 10713 10712 10709 ] final -170.65 input   66.30 | X-H torsion
[ 10763 10752 10751 10750 ] final  -43.76 input  -60.55 | X-H torsion
[ 11005 11000 10999 10996 ] final   78.45 input  -57.11 | X-H torsion

> <Gold.Protein.ActiveResidues>
 VAL166  LYS551  ARG553  GLY616  TRP617  ASP618  TYR619  PRO620  LYS621  CYS622 
 ASP623  PHE694  ASN695  SER759  ASP760  ASP761  ALA762  ILE779  LEU786  VAL792 
 PHE793  MET794  SER795  GLU796  ALA797  LYS798  CYS799  TRP800  GLU811  SER814 

> <Gold.Protein.RotatedAtoms>
  152.5250  134.3289  159.9175 H   0  0  0  0  0  0  0  0  0  0  0  0  # atno 6907 bound_to 6896
  151.3238  133.4022  159.2664 H   0  0  0  0  0  0  0  0  0  0  0  0  # atno 6908 bound_to 6896
  150.9937  134.9283  159.7971 H   0  0  0  0  0  0  0  0  0  0  0  0  # atno 6909 bound_to 6896
  146.2439  140.0338  142.8387 H   0  0  0  0  0  0  0  0  0  0  0  0  # atno 7974 bound_to 7965
  154.5253  140.0778  156.8247 H   0  0  0  0  0  0  0  0  0  0  0  0  # atno 8008 bound_to 7997
  155.3488  140.3411  155.4221 H   0  0  0  0  0  0  0  0  0  0  0  0  # atno 8009 bound_to 7997
  156.1725  140.1624  156.8409 H   0  0  0  0  0  0  0  0  0  0  0  0  # atno 8010 bound_to 7997
  139.5478  144.6788  151.4419 H   0  0  0  0  0  0  0  0  0  0  0  0  # atno 10167 bound_to 10162
  156.7293  130.9300  151.3103 H   0  0  0  0  0  0  0  0  0  0  0  0  # atno 10718 bound_to 10713
  154.0008  135.6693  153.4759 H   0  0  0  0  0  0  0  0  0  0  0  0  # atno 10763 bound_to 10752
  153.0663  135.4999  154.8203 H   0  0  0  0  0  0  0  0  0  0  0  0  # atno 10764 bound_to 10752
  154.7053  135.3087  154.9242 H   0  0  0  0  0  0  0  0  0  0  0  0  # atno 10765 bound_to 10752
  139.9212  134.7765  156.1652 H   0  0  0  0  0  0  0  0  0  0  0  0  # atno 11005 bound_to 11000
  145.1130  140.9417  143.4645 LP  0  0  0  0  0  0  0  0  0  0  0  0  # atno 17320 bound_to 7965
  145.0556  139.3146  143.5906 LP  0  0  0  0  0  0  0  0  0  0  0  0  # atno 17321 bound_to 7965
  140.6731  143.8249  150.7025 LP  0  0  0  0  0  0  0  0  0  0  0  0  # atno 17342 bound_to 10162
  140.1679  143.4219  152.2021 LP  0  0  0  0  0  0  0  0  0  0  0  0  # atno 17343 bound_to 10162
  157.6865  130.9191  150.0401 LP  0  0  0  0  0  0  0  0  0  0  0  0  # atno 17370 bound_to 10713
  156.1540  130.3643  149.9396 LP  0  0  0  0  0  0  0  0  0  0  0  0  # atno 17371 bound_to 10713
  141.0734  133.6786  156.2186 LP  0  0  0  0  0  0  0  0  0  0  0  0  # atno 17394 bound_to 11000
  140.6469  134.5107  157.5574 LP  0  0  0  0  0  0  0  0  0  0  0  0  # atno 17395 bound_to 11000

$$$$
