AV-unprocessed.smi:2358|AV-procd|sdf|9406|dock10
  -GOLD-   2272013 43D 1   1.00000     0.00000
 Structure written by MMmdl.
 46 48  0  0  0  0  0  0  0  0  2 V2000
  151.5754  145.4150  158.7349 C   0  0  0  0  0  0  0  0  0  0  0  0
  151.8072  143.9210  158.6384 C   0  0  0  0  0  0  0  0  0  0  0  0
  152.7097  143.2845  159.5134 C   0  0  0  0  0  0  0  0  0  0  0  0
  152.9263  141.8963  159.4172 C   0  0  0  0  0  0  0  0  0  0  0  0
  153.8975  141.2172  160.3607 C   0  0  0  0  0  0  0  0  0  0  0  0
  152.2354  141.1466  158.4436 C   0  0  0  0  0  0  0  0  0  0  0  0
  151.3295  141.7676  157.5598 C   0  0  0  0  0  0  0  0  0  0  0  0
  150.7020  140.9571  156.6380 O   0  0  0  0  0  0  0  0  0  0  0  0
  151.3511  139.7553  156.2436 C   0  0  0  0  0  0  0  0  0  0  0  0
  151.6259  139.8122  154.7310 C   0  0  1  0  0  0  0  0  0  0  0  0
  152.7873  140.5993  154.5532 O   0  0  0  0  0  0  0  0  0  0  0  0
  151.9008  138.4112  154.1390 C   0  0  0  0  0  0  0  0  0  0  0  0
  150.8878  137.4339  154.5561 N   0  0  0  0  0  0  0  0  0  0  0  0
  149.5953  137.7705  154.1929 N   0  0  0  0  0  0  0  0  0  0  0  0
  148.5979  136.9998  154.4821 C   0  0  0  0  0  0  0  0  0  0  0  0
  147.2432  137.3599  154.0930 N   0  0  0  0  0  0  0  0  0  0  0  0
  146.0912  136.6607  154.3567 C   0  0  0  0  0  0  0  0  0  0  0  0
  145.0657  137.3804  153.7997 C   0  0  0  0  0  0  0  0  0  0  0  0
  145.6337  138.4849  153.2219 N   0  3  0  0  0  0  0  0  0  0  0  0
  146.9598  138.4756  153.3992 C   0  0  0  0  0  0  0  0  0  0  0  0
  148.8356  135.7560  155.2070 C   0  0  0  0  0  0  0  0  0  0  0  0
  150.1012  135.4351  155.5517 C   0  0  0  0  0  0  0  0  0  0  0  0
  151.2361  136.2944  155.2217 C   0  0  0  0  0  0  0  0  0  0  0  0
  152.3987  136.0151  155.5113 O   0  0  0  0  0  0  0  0  0  0  0  0
  151.1211  143.1660  157.6653 C   0  0  0  0  0  0  0  0  0  0  0  0
  151.9510  145.8139  159.6776 H   0  0  0  0  0  0  0  0  0  0  0  0
  150.5108  145.6417  158.6723 H   0  0  0  0  0  0  0  0  0  0  0  0
  152.0847  145.9275  157.9186 H   0  0  0  0  0  0  0  0  0  0  0  0
  153.2383  143.8599  160.2596 H   0  0  0  0  0  0  0  0  0  0  0  0
  154.1123  140.1965  160.0426 H   0  0  0  0  0  0  0  0  0  0  0  0
  153.4817  141.1815  161.3678 H   0  0  0  0  0  0  0  0  0  0  0  0
  154.8392  141.7657  160.3968 H   0  0  0  0  0  0  0  0  0  0  0  0
  152.3994  140.0814  158.3695 H   0  0  0  0  0  0  0  0  0  0  0  0
  152.2744  139.5914  156.8028 H   0  0  0  0  0  0  0  0  0  0  0  0
  150.6783  138.9240  156.4598 H   0  0  0  0  0  0  0  0  0  0  0  0
  150.7774  140.2755  154.2253 H   0  0  0  0  0  0  0  0  0  0  0  0
  152.6338  141.2091  153.8473 H   0  0  0  0  0  0  0  0  0  0  0  0
  152.0081  138.4534  153.0531 H   0  0  0  0  0  0  0  0  0  0  0  0
  152.8675  138.0490  154.4936 H   0  0  0  0  0  0  0  0  0  0  0  0
  146.0815  135.7294  154.9051 H   0  0  0  0  0  0  0  0  0  0  0  0
  144.0019  137.1943  153.7722 H   0  0  0  0  0  0  0  0  0  0  0  0
  147.6301  139.2341  153.0404 H   0  0  0  0  0  0  0  0  0  0  0  0
  148.0400  135.0826  155.4798 H   0  0  0  0  0  0  0  0  0  0  0  0
  150.2833  134.5157  156.0887 H   0  0  0  0  0  0  0  0  0  0  0  0
  150.4382  143.6830  157.0083 H   0  0  0  0  0  0  0  0  0  0  0  0
  145.1238  139.2080  152.7297 H   0  0  0  0  0  0  0  0  0  0  0  0
  1  2  1  0  0  0  0
  1 26  1  0  0  0  0
  1 27  1  0  0  0  0
  1 28  1  0  0  0  0
  2 25  1  0  0  0  0
  2  3  2  0  0  0  0
  3  4  1  0  0  0  0
  3 29  1  0  0  0  0
  4  5  1  0  0  0  0
  4  6  2  0  0  0  0
  5 30  1  0  0  0  0
  5 31  1  0  0  0  0
  5 32  1  0  0  0  0
  6  7  1  0  0  0  0
  6 33  1  0  0  0  0
  7  8  1  0  0  0  0
  7 25  2  0  0  0  0
  8  9  1  0  0  0  0
  9 10  1  0  0  0  0
  9 34  1  0  0  0  0
  9 35  1  0  0  0  0
 10 11  1  0  0  0  0
 10 12  1  0  0  0  0
 10 36  1  0  0  0  0
 11 37  1  0  0  0  0
 12 13  1  0  0  0  0
 12 38  1  0  0  0  0
 12 39  1  0  0  0  0
 13 23  1  0  0  0  0
 13 14  1  0  0  0  0
 14 15  2  0  0  0  0
 15 16  1  0  0  0  0
 15 21  1  0  0  0  0
 16 20  1  0  0  0  0
 16 17  1  0  0  0  0
 17 18  2  0  0  0  0
 17 40  1  0  0  0  0
 18 19  1  0  0  0  0
 18 41  1  0  0  0  0
 19 20  2  0  0  0  0
 19 46  1  0  0  0  0
 20 42  1  0  0  0  0
 21 22  2  0  0  0  0
 21 43  1  0  0  0  0
 22 23  1  0  0  0  0
 22 44  1  0  0  0  0
 23 24  2  0  0  0  0
 25 45  1  0  0  0  0
M  CHG  1  19   1
M  END
> <s_m_source_file>
AV-unprocessed.smi

> <i_m_source_file_index>
2358

> <i_lp_mmshare_version>
43012

> <i_f3d_flags>
0

> <s_epik_input>
W0NIM11jMVtjSF1jKFtDSDNdKVtjSF1jKFtjSF0xKU9bQ0gyXVtDQEhdKFtPSF0pW0NIMl1uMm5jKFtjSF1bY0hdYzI9TyktbjNbY0hdW2NIXW5bY0hdMw==

> <s_epik_cmdline>
J2VwaWtfcHl0aG9uJywgJy1waCcsICc3LjAnLCAnLXRuJywgJzgnLCAnLW1hJywgJzIwMCcsICctbWV0YWxfYmluZGluZycsICctaW1hZScsICc8aW5maWxlLm1hZT4nLCAnLW9tYWUnLCAnPG91dGZpbGUubWFlPic=

> <r_lp_tautomer_probability>
1

> <r_epik_Ionization_Penalty>
1.66053

> <r_epik_Ionization_Penalty_Charging>
2.42216e-09

> <r_epik_Ionization_Penalty_Neutral>
1.66053

> <r_epik_State_Penalty>
1.76336

> <r_epik_Charging_Adjusted_Penalty>
1.76336

> <i_epik_Tot_Q>
1

> <i_epik_Tot_abs_Q>
1

> <r_epik_Metal_State_Penalty>
1.79856

> <b_epik_Metal_Only>
0

> <s_lp_Force_Field>
OPLS_2005

> <r_lp_Energy>
39.182

> <b_lp_Chiralities_Consistent>
1

> <s_lp_Variant>
AV-unprocessed.smi:2358-4

> <Gold.Version>
5.8.1

> <Gold.Id.Protein>
6NUR|6NUR_protein|mol2

> <Gold.PLP.Fitness>
53.3952

> <Gold.PLP.PLP>
-43.2924

> <Gold.PLP.part.hbond>
-4.0000

> <Gold.PLP.part.metal>
0.0000

> <Gold.PLP.part.buried>
-5.1488

> <Gold.PLP.part.nonpolar>
-34.6376

> <Gold.PLP.part.repulsive>
0.3337

> <Gold.PLP.ligand.clash>
0.0323

> <Gold.PLP.ligand.torsion>
0.9908

> <Gold.PLP.Chemscore.Hbond>
4.0000

> <Gold.PLP.Chemscore.CHOScore>
0.0000

> <Gold.PLP.Chemscore.Metal>
0.0000

> <Gold.Chemscore.Hbonds>
donor molecule, donor type, donor heavy atom, donor atom, acceptor molecule, acceptor atom, score
      L1  H    19    46       P1 10175  2.00
      P1  H  7997  8009       L1    11  0.70
      L1  C    20    42       P1  7957  0.25

> <Gold.PLP.Chemscore.Internal.Correction>
0.1167

> <Gold.Rescore>
     Score         DG    S(hbond)    S(metal)    S(lipo)     H(rot)  DE(clash)    DE(int)     intcor
     20.16     -21.09       2.90        0.00     108.59       2.65       0.05       0.88       ----

> <Gold.Chemscore.Fitness>
20.1582

> <Gold.Chemscore.DG>
-21.0881

> <Gold.Chemscore.ZeroCoef>
-5.4800

> <Gold.Chemscore.Hbond>
2.9031

> <Gold.Chemscore.Metal>
0.0000

> <Gold.Chemscore.Lipo>
108.5919

> <Gold.Chemscore.Internal_Hbond>
0.0000

> <Gold.Chemscore.DEClash>
0.0544

> <Gold.Chemscore.DEInternal>
0.8755

> <Gold.Chemscore.Rot>
2.6537

> <Gold.Chemscore.Internal.Correction>
   9.000000E+99

> <Gold.Chemscore.Hbonds>
donor molecule, donor type, donor heavy atom, donor atom, acceptor molecule, acceptor atom, score
      L1  H    19    46       P1 10175  0.97
      P1  H  7997  8009       L1    11  0.64

> <Gold.Chemscore.Hbond.Weighted>
-9.6963

> <Gold.Chemscore.Metal.Weighted>
-0.0000

> <Gold.Chemscore.Lipo.Weighted>
-12.7052

> <Gold.Chemscore.Internal_Hbond.Weighted>
0.0000

> <Gold.Chemscore.DEClash.Weighted>
0.0544

> <Gold.Chemscore.DEInternal.Weighted>
0.8755

> <Gold.Chemscore.Rot.Weighted>
6.7935

> <Gold.Chemscore.Internal.Correction.Weighted>
   9.000000E+99

> <Gold.Protein.RotatedTorsions>
[ 6907 6896 6895 6894 ] final  -37.96 input  -60.11 | X-H torsion
[ 7974 7965 7964 7962 ] final  -81.57 input  175.53 | X-H torsion
[ 8008 7997 7996 7995 ] final -132.88 input   59.86 | X-H torsion
[ 10167 10162 10161 10158 ] final   45.53 input  -65.29 | X-H torsion
[ 10718 10713 10712 10709 ] final  -43.49 input   66.30 | X-H torsion
[ 10763 10752 10751 10750 ] final   83.76 input  -60.55 | X-H torsion
[ 11005 11000 10999 10996 ] final -132.48 input  -57.11 | X-H torsion

> <Gold.Protein.ActiveResidues>
 VAL166  LYS551  ARG553  GLY616  TRP617  ASP618  TYR619  PRO620  LYS621  CYS622 
 ASP623  PHE694  ASN695  SER759  ASP760  ASP761  ALA762  ILE779  LEU786  VAL792 
 PHE793  MET794  SER795  GLU796  ALA797  LYS798  CYS799  TRP800  GLU811  SER814 

> <Gold.Protein.RotatedAtoms>
  151.0083  134.9376  159.7992 H   0  0  0  0  0  0  0  0  0  0  0  0  # atno 6907 bound_to 6896
  152.5296  134.3063  159.9107 H   0  0  0  0  0  0  0  0  0  0  0  0  # atno 6908 bound_to 6896
  151.3069  133.4056  159.2678 H   0  0  0  0  0  0  0  0  0  0  0  0  # atno 6909 bound_to 6896
  145.5449  140.9505  143.1531 H   0  0  0  0  0  0  0  0  0  0  0  0  # atno 7974 bound_to 7965
  155.3362  140.0469  157.3044 H   0  0  0  0  0  0  0  0  0  0  0  0  # atno 8008 bound_to 7997
  154.5301  140.2254  155.8784 H   0  0  0  0  0  0  0  0  0  0  0  0  # atno 8009 bound_to 7997
  156.1780  140.3080  155.9101 H   0  0  0  0  0  0  0  0  0  0  0  0  # atno 8010 bound_to 7997
  140.3232  144.2680  150.6179 H   0  0  0  0  0  0  0  0  0  0  0  0  # atno 10167 bound_to 10162
  156.2485  130.4186  149.8678 H   0  0  0  0  0  0  0  0  0  0  0  0  # atno 10718 bound_to 10713
  153.1320  135.4679  154.9363 H   0  0  0  0  0  0  0  0  0  0  0  0  # atno 10763 bound_to 10752
  154.7672  135.3148  154.8264 H   0  0  0  0  0  0  0  0  0  0  0  0  # atno 10764 bound_to 10752
  153.8804  135.6895  153.4821 H   0  0  0  0  0  0  0  0  0  0  0  0  # atno 10765 bound_to 10752
  140.9167  134.1498  157.4347 H   0  0  0  0  0  0  0  0  0  0  0  0  # atno 11005 bound_to 11000
  144.7558  139.7078  143.7254 LP  0  0  0  0  0  0  0  0  0  0  0  0  # atno 17320 bound_to 7965
  146.1956  139.5221  142.9777 LP  0  0  0  0  0  0  0  0  0  0  0  0  # atno 17321 bound_to 7965
  140.5465  143.2214  151.7999 LP  0  0  0  0  0  0  0  0  0  0  0  0  # atno 17342 bound_to 10162
  139.4870  144.4533  151.9628 LP  0  0  0  0  0  0  0  0  0  0  0  0  # atno 17343 bound_to 10162
  156.6235  130.8636  151.3480 LP  0  0  0  0  0  0  0  0  0  0  0  0  # atno 17370 bound_to 10713
  157.7204  130.9552  150.1418 LP  0  0  0  0  0  0  0  0  0  0  0  0  # atno 17371 bound_to 10713
  139.8767  134.9956  156.5752 LP  0  0  0  0  0  0  0  0  0  0  0  0  # atno 17394 bound_to 11000
  140.8041  133.8481  155.8752 LP  0  0  0  0  0  0  0  0  0  0  0  0  # atno 17395 bound_to 11000

$$$$
