AV-unprocessed.smi:1571|AV-procd|sdf|6326|dock2
  -GOLD-   22720 6533D 1   1.00000     0.00000
 Structure written by MMmdl.
 37 38  0  0  0  0  0  0  0  0  1 V2000
  147.9777  132.5374  159.3969 C   0  0  0  0  0  0  0  0  0  0  0  0
  147.7491  133.4474  160.5696 C   0  0  0  0  0  0  0  0  0  0  0  0
  147.7747  132.9409  161.7906 N   0  0  0  0  0  0  0  0  0  0  0  0
  147.5269  134.0110  162.6550 O   0  0  0  0  0  0  0  0  0  0  0  0
  147.3608  135.1342  161.9122 C   0  0  0  0  0  0  0  0  0  0  0  0
  147.0780  136.3904  162.6647 C   0  0  0  0  0  0  0  0  0  0  0  0
  147.4917  134.8494  160.5801 C   0  0  0  0  0  0  0  0  0  0  0  0
  147.3847  135.7877  159.4019 C   0  0  0  0  0  0  0  0  0  0  0  0
  148.7053  135.8890  158.6281 C   0  0  0  0  0  0  0  0  0  0  0  0
  149.3265  134.8806  158.2890 O   0  0  0  0  0  0  0  0  0  0  0  0
  149.1176  137.1364  158.3538 N   0  0  0  0  0  0  0  0  0  0  0  0
  150.3274  137.5047  157.6223 C   0  0  0  0  0  0  0  0  0  0  0  0
  150.5681  139.0199  157.7654 C   0  0  0  0  0  0  0  0  0  0  0  0
  151.8756  139.4821  157.1066 C   0  0  0  0  0  0  0  0  0  0  0  0
  151.8668  139.1023  155.3061 S   0  0  0  0  0  0  0  0  0  0  0  0
  150.7328  139.8154  154.6983 O   0  0  0  0  0  0  0  0  0  0  0  0
  153.2254  139.2793  154.7718 O   0  0  0  0  0  0  0  0  0  0  0  0
  151.4604  137.3079  155.3306 C   0  0  0  0  0  0  0  0  0  0  0  0
  150.1924  137.0497  156.1561 C   0  0  0  0  0  0  0  0  0  0  0  0
  147.8952  133.0722  158.4511 H   0  0  0  0  0  0  0  0  0  0  0  0
  147.2466  131.7289  159.3810 H   0  0  0  0  0  0  0  0  0  0  0  0
  148.9703  132.0882  159.4374 H   0  0  0  0  0  0  0  0  0  0  0  0
  146.9395  137.2329  161.9876 H   0  0  0  0  0  0  0  0  0  0  0  0
  147.9007  136.6301  163.3384 H   0  0  0  0  0  0  0  0  0  0  0  0
  146.1710  136.2863  163.2600 H   0  0  0  0  0  0  0  0  0  0  0  0
  146.6083  135.4582  158.7109 H   0  0  0  0  0  0  0  0  0  0  0  0
  147.0930  136.7881  159.7229 H   0  0  0  0  0  0  0  0  0  0  0  0
  148.5388  137.8989  158.6754 H   0  0  0  0  0  0  0  0  0  0  0  0
  151.1881  136.9895  158.0525 H   0  0  0  0  0  0  0  0  0  0  0  0
  149.7298  139.5716  157.3379 H   0  0  0  0  0  0  0  0  0  0  0  0
  150.5984  139.2840  158.8232 H   0  0  0  0  0  0  0  0  0  0  0  0
  152.0167  140.5560  157.2279 H   0  0  0  0  0  0  0  0  0  0  0  0
  152.7334  138.9824  157.5567 H   0  0  0  0  0  0  0  0  0  0  0  0
  151.3320  136.9732  154.3012 H   0  0  0  0  0  0  0  0  0  0  0  0
  152.3114  136.7707  155.7496 H   0  0  0  0  0  0  0  0  0  0  0  0
  149.9684  135.9828  156.1267 H   0  0  0  0  0  0  0  0  0  0  0  0
  149.3443  137.5515  155.6881 H   0  0  0  0  0  0  0  0  0  0  0  0
  1  2  1  0  0  0  0
  1 20  1  0  0  0  0
  1 21  1  0  0  0  0
  1 22  1  0  0  0  0
  2  7  1  0  0  0  0
  2  3  2  0  0  0  0
  3  4  1  0  0  0  0
  4  5  1  0  0  0  0
  5  6  1  0  0  0  0
  5  7  2  0  0  0  0
  6 23  1  0  0  0  0
  6 24  1  0  0  0  0
  6 25  1  0  0  0  0
  7  8  1  0  0  0  0
  8  9  1  0  0  0  0
  8 26  1  0  0  0  0
  8 27  1  0  0  0  0
  9 10  2  0  0  0  0
  9 11  1  0  0  0  0
 11 12  1  0  0  0  0
 11 28  1  0  0  0  0
 12 19  1  0  0  0  0
 12 13  1  0  0  0  0
 12 29  1  0  0  0  0
 13 14  1  0  0  0  0
 13 30  1  0  0  0  0
 13 31  1  0  0  0  0
 14 15  1  0  0  0  0
 14 32  1  0  0  0  0
 14 33  1  0  0  0  0
 15 16  2  0  0  0  0
 15 17  2  0  0  0  0
 15 18  1  0  0  0  0
 18 19  1  0  0  0  0
 18 34  1  0  0  0  0
 18 35  1  0  0  0  0
 19 36  1  0  0  0  0
 19 37  1  0  0  0  0
M  END
> <s_m_source_file>
AV-unprocessed.smi

> <i_m_source_file_index>
1571

> <i_lp_mmshare_version>
43012

> <i_f3d_flags>
0

> <s_epik_input>
W0NIM11jMW5vYyhbQ0gzXSljMVtDSDJdQyg9TylbTkhdW0NIXShbQ0gyXVtDSDJdMilbQ0gyXVtDSDJdUzIoPU8pPU8=

> <s_epik_cmdline>
J2VwaWtfcHl0aG9uJywgJy1waCcsICc3LjAnLCAnLXRuJywgJzgnLCAnLW1hJywgJzIwMCcsICctbWV0YWxfYmluZGluZycsICctaW1hZScsICc8aW5maWxlLm1hZT4nLCAnLW9tYWUnLCAnPG91dGZpbGUubWFlPic=

> <r_lp_tautomer_probability>
1

> <r_epik_Ionization_Penalty>
4.0065e-08

> <r_epik_Ionization_Penalty_Charging>
0

> <r_epik_Ionization_Penalty_Neutral>
4.0065e-08

> <r_epik_State_Penalty>
-0

> <r_epik_Charging_Adjusted_Penalty>
0

> <i_epik_Tot_Q>
0

> <i_epik_Tot_abs_Q>
0

> <r_epik_Metal_State_Penalty>
-0

> <b_epik_Metal_Only>
0

> <s_lp_Force_Field>
OPLS_2005

> <r_lp_Energy>
-11.0004

> <b_lp_Chiralities_Consistent>
1

> <s_lp_Variant>
AV-unprocessed.smi:1571-1

> <Gold.Version>
5.8.1

> <Gold.Id.Protein>
6NUR|6NUR_protein|mol2

> <Gold.PLP.Fitness>
38.9230

> <Gold.PLP.PLP>
-30.3221

> <Gold.PLP.part.hbond>
-3.7687

> <Gold.PLP.part.metal>
0.0000

> <Gold.PLP.part.buried>
-6.4615

> <Gold.PLP.part.nonpolar>
-20.4778

> <Gold.PLP.part.repulsive>
0.2471

> <Gold.PLP.ligand.clash>
0.0000

> <Gold.PLP.ligand.torsion>
0.2056

> <Gold.PLP.Chemscore.Hbond>
3.0000

> <Gold.PLP.Chemscore.CHOScore>
0.0000

> <Gold.PLP.Chemscore.Metal>
0.0000

> <Gold.Chemscore.Hbonds>
donor molecule, donor type, donor heavy atom, donor atom, acceptor molecule, acceptor atom, score
      P1  H  6896  6907       L1    10  1.00
      P1  H  7989  7998       L1    16  1.00
      P1  H  7997  8009       L1    17  1.00

> <Gold.PLP.Chemscore.Internal.Correction>
0.0120

> <Gold.Rescore>
     Score         DG    S(hbond)    S(metal)    S(lipo)     H(rot)  DE(clash)    DE(int)     intcor
     17.59     -17.97       2.88        0.00      56.37       1.46       0.04       0.33       ----

> <Gold.Chemscore.Fitness>
17.5950

> <Gold.Chemscore.DG>
-17.9677

> <Gold.Chemscore.ZeroCoef>
-5.4800

> <Gold.Chemscore.Hbond>
2.8833

> <Gold.Chemscore.Metal>
0.0000

> <Gold.Chemscore.Lipo>
56.3699

> <Gold.Chemscore.Internal_Hbond>
0.0000

> <Gold.Chemscore.DEClash>
0.0437

> <Gold.Chemscore.DEInternal>
0.3290

> <Gold.Chemscore.Rot>
1.4601

> <Gold.Chemscore.Internal.Correction>
   9.000000E+99

> <Gold.Chemscore.Hbonds>
donor molecule, donor type, donor heavy atom, donor atom, acceptor molecule, acceptor atom, score
      P1  H  6896  6907       L1    10  0.97
      P1  H  7989  7998       L1    16  0.26
      P1  H  7997  8009       L1    17  0.99

> <Gold.Chemscore.Hbond.Weighted>
-9.6303

> <Gold.Chemscore.Metal.Weighted>
-0.0000

> <Gold.Chemscore.Lipo.Weighted>
-6.5953

> <Gold.Chemscore.Internal_Hbond.Weighted>
0.0000

> <Gold.Chemscore.DEClash.Weighted>
0.0437

> <Gold.Chemscore.DEInternal.Weighted>
0.3290

> <Gold.Chemscore.Rot.Weighted>
3.7379

> <Gold.Chemscore.Internal.Correction.Weighted>
   9.000000E+99

> <Gold.Protein.RotatedTorsions>
[ 6907 6896 6895 6894 ] final  -95.07 input  -60.11 | X-H torsion
[ 7974 7965 7964 7962 ] final  -38.35 input  175.53 | X-H torsion
[ 8008 7997 7996 7995 ] final -120.01 input   59.86 | X-H torsion
[ 10167 10162 10161 10158 ] final  120.63 input  -65.29 | X-H torsion
[ 10718 10713 10712 10709 ] final   91.03 input   66.30 | X-H torsion
[ 10763 10752 10751 10750 ] final -101.55 input  -60.55 | X-H torsion
[ 11005 11000 10999 10996 ] final  155.21 input  -57.11 | X-H torsion

> <Gold.Protein.ActiveResidues>
 VAL166  LYS551  ARG553  GLY616  TRP617  ASP618  TYR619  PRO620  LYS621  CYS622 
 ASP623  PHE694  ASN695  SER759  ASP760  ASP761  ALA762  ILE779  LEU786  VAL792 
 PHE793  MET794  SER795  GLU796  ALA797  LYS798  CYS799  TRP800  GLU811  SER814 

> <Gold.Protein.RotatedAtoms>
  150.6955  134.1714  159.4213 H   0  0  0  0  0  0  0  0  0  0  0  0  # atno 6907 bound_to 6896
  151.9691  135.0083  160.0561 H   0  0  0  0  0  0  0  0  0  0  0  0  # atno 6908 bound_to 6896
  152.1857  133.4703  159.5018 H   0  0  0  0  0  0  0  0  0  0  0  0  # atno 6909 bound_to 6896
  146.0494  140.6502  142.9049 H   0  0  0  0  0  0  0  0  0  0  0  0  # atno 7974 bound_to 7965
  155.1250  140.0399  157.2760 H   0  0  0  0  0  0  0  0  0  0  0  0  # atno 8008 bound_to 7997
  154.6585  140.2585  155.7109 H   0  0  0  0  0  0  0  0  0  0  0  0  # atno 8009 bound_to 7997
  156.2609  140.2822  156.1048 H   0  0  0  0  0  0  0  0  0  0  0  0  # atno 8010 bound_to 7997
  139.5970  144.7045  151.3153 H   0  0  0  0  0  0  0  0  0  0  0  0  # atno 10167 bound_to 10162
  157.6960  131.0392  150.3667 H   0  0  0  0  0  0  0  0  0  0  0  0  # atno 10718 bound_to 10713
  154.7667  135.4893  153.9567 H   0  0  0  0  0  0  0  0  0  0  0  0  # atno 10763 bound_to 10752
  153.1316  135.6754  153.9177 H   0  0  0  0  0  0  0  0  0  0  0  0  # atno 10764 bound_to 10752
  153.8878  135.3124  155.3425 H   0  0  0  0  0  0  0  0  0  0  0  0  # atno 10765 bound_to 10752
  140.1560  134.8642  157.2515 H   0  0  0  0  0  0  0  0  0  0  0  0  # atno 11005 bound_to 11000
  144.7114  140.4054  143.7077 LP  0  0  0  0  0  0  0  0  0  0  0  0  # atno 17320 bound_to 7965
  145.6750  139.1607  143.2733 LP  0  0  0  0  0  0  0  0  0  0  0  0  # atno 17321 bound_to 7965
  140.7219  143.7110  150.7769 LP  0  0  0  0  0  0  0  0  0  0  0  0  # atno 17342 bound_to 10162
  140.0679  143.5090  152.2595 LP  0  0  0  0  0  0  0  0  0  0  0  0  # atno 17343 bound_to 10162
  156.4097  130.3931  149.6900 LP  0  0  0  0  0  0  0  0  0  0  0  0  # atno 17370 bound_to 10713
  156.4189  130.7759  151.2775 LP  0  0  0  0  0  0  0  0  0  0  0  0  # atno 17371 bound_to 10713
  140.2547  134.3642  155.7429 LP  0  0  0  0  0  0  0  0  0  0  0  0  # atno 17394 bound_to 11000
  141.2204  133.7336  156.8988 LP  0  0  0  0  0  0  0  0  0  0  0  0  # atno 17395 bound_to 11000

$$$$
