AV-unprocessed.smi:2772|AV-procd|sdf|10668|dock8
  -GOLD-   2272015113D 1   1.00000     0.00000
 Structure written by MMmdl.
 54 56  0  0  0  0  0  0  0  0  2 V2000
  153.0168  142.9802  162.7682 C   0  0  0  0  0  0  0  0  0  0  0  0
  152.5056  143.1168  161.3492 C   0  0  0  0  0  0  0  0  0  0  0  0
  152.2093  144.3832  160.8043 C   0  0  0  0  0  0  0  0  0  0  0  0
  151.7335  144.4521  159.4808 C   0  0  0  0  0  0  0  0  0  0  0  0
  151.5630  143.2505  158.7521 C   0  0  0  0  0  0  0  0  0  0  0  0
  151.1082  143.1923  157.4074 N   0  0  0  0  0  0  0  0  0  0  0  0
  150.2900  142.2874  156.8437 C   0  0  0  0  0  0  0  0  0  0  0  0
  149.8052  141.3116  157.4167 O   0  0  0  0  0  0  0  0  0  0  0  0
  150.0755  142.5677  155.5505 N   0  0  0  0  0  0  0  0  0  0  0  0
  149.2519  141.7740  154.6435 C   0  0  0  0  0  0  0  0  0  0  0  0
  147.7892  141.8155  155.0916 C   0  0  0  0  0  0  0  0  0  0  0  0
  146.9145  140.8959  154.2221 C   0  0  0  0  0  0  0  0  0  0  0  0
  147.3671  139.4945  154.2730 N   0  0  0  0  0  0  0  0  0  0  0  0
  146.4803  138.6035  153.4897 C   0  0  2  0  0  0  0  0  0  0  0  0
  146.7039  137.1086  153.8487 C   0  0  0  0  0  0  0  0  0  0  0  0
  145.9003  136.1509  152.9546 C   0  0  0  0  0  0  0  0  0  0  0  0
  146.2120  136.3688  151.5253 N   0  3  1  0  0  0  0  0  0  0  0  0
  145.5634  135.3713  150.6471 C   0  0  0  0  0  0  0  0  0  0  0  0
  145.9121  137.7601  151.1222 C   0  0  0  0  0  0  0  0  0  0  0  0
  146.7167  138.7649  151.9624 C   0  0  0  0  0  0  0  0  0  0  0  0
  148.7524  139.4476  153.7735 C   0  0  0  0  0  0  0  0  0  0  0  0
  149.7021  140.3084  154.6241 C   0  0  0  0  0  0  0  0  0  0  0  0
  151.9069  142.0399  159.3898 C   0  0  0  0  0  0  0  0  0  0  0  0
  152.3628  141.9652  160.6583 N   0  0  0  0  0  0  0  0  0  0  0  0
  153.0642  143.9487  163.2670 H   0  0  0  0  0  0  0  0  0  0  0  0
  154.0173  142.5470  162.7707 H   0  0  0  0  0  0  0  0  0  0  0  0
  152.3593  142.3320  163.3483 H   0  0  0  0  0  0  0  0  0  0  0  0
  152.3460  145.2849  161.3828 H   0  0  0  0  0  0  0  0  0  0  0  0
  151.5242  145.4187  159.0496 H   0  0  0  0  0  0  0  0  0  0  0  0
  151.4981  143.8873  156.7876 H   0  0  0  0  0  0  0  0  0  0  0  0
  150.5185  143.3876  155.1626 H   0  0  0  0  0  0  0  0  0  0  0  0
  149.3200  142.1887  153.6357 H   0  0  0  0  0  0  0  0  0  0  0  0
  147.7071  141.5099  156.1360 H   0  0  0  0  0  0  0  0  0  0  0  0
  147.4128  142.8378  155.0383 H   0  0  0  0  0  0  0  0  0  0  0  0
  145.9029  140.9953  154.6081 H   0  0  0  0  0  0  0  0  0  0  0  0
  146.9020  141.2482  153.1894 H   0  0  0  0  0  0  0  0  0  0  0  0
  145.4436  138.8621  153.7120 H   0  0  0  0  0  0  0  0  0  0  0  0
  147.7653  136.8653  153.7776 H   0  0  0  0  0  0  0  0  0  0  0  0
  146.3998  136.8959  154.8722 H   0  0  0  0  0  0  0  0  0  0  0  0
  146.1342  135.1206  153.2262 H   0  0  0  0  0  0  0  0  0  0  0  0
  144.8307  136.2880  153.1225 H   0  0  0  0  0  0  0  0  0  0  0  0
  144.4766  135.4446  150.7058 H   0  0  0  0  0  0  0  0  0  0  0  0
  145.8540  134.3600  150.9338 H   0  0  0  0  0  0  0  0  0  0  0  0
  145.8613  135.5199  149.6089 H   0  0  0  0  0  0  0  0  0  0  0  0
  146.1548  137.8945  150.0673 H   0  0  0  0  0  0  0  0  0  0  0  0
  144.8430  137.9516  151.2280 H   0  0  0  0  0  0  0  0  0  0  0  0
  146.4251  139.7545  151.6153 H   0  0  0  0  0  0  0  0  0  0  0  0
  147.7791  138.6544  151.7391 H   0  0  0  0  0  0  0  0  0  0  0  0
  149.1506  138.4366  153.8109 H   0  0  0  0  0  0  0  0  0  0  0  0
  148.7843  139.7670  152.7306 H   0  0  0  0  0  0  0  0  0  0  0  0
  150.7149  140.2320  154.2267 H   0  0  0  0  0  0  0  0  0  0  0  0
  149.7385  139.9127  155.6405 H   0  0  0  0  0  0  0  0  0  0  0  0
  151.8087  141.0987  158.8689 H   0  0  0  0  0  0  0  0  0  0  0  0
  147.2088  136.2419  151.4200 H   0  0  0  0  0  0  0  0  0  0  0  0
  1  2  1  0  0  0  0
  1 25  1  0  0  0  0
  1 26  1  0  0  0  0
  1 27  1  0  0  0  0
  2 24  1  0  0  0  0
  2  3  2  0  0  0  0
  3  4  1  0  0  0  0
  3 28  1  0  0  0  0
  4  5  2  0  0  0  0
  4 29  1  0  0  0  0
  5  6  1  0  0  0  0
  5 23  1  0  0  0  0
  6  7  1  0  0  0  0
  6 30  1  0  0  0  0
  7  8  2  0  0  0  0
  7  9  1  0  0  0  0
  9 10  1  0  0  0  0
  9 31  1  0  0  0  0
 10 22  1  0  0  0  0
 10 11  1  0  0  0  0
 10 32  1  0  0  0  0
 11 12  1  0  0  0  0
 11 33  1  0  0  0  0
 11 34  1  0  0  0  0
 12 13  1  0  0  0  0
 12 35  1  0  0  0  0
 12 36  1  0  0  0  0
 13 14  1  0  0  0  0
 13 21  1  0  0  0  0
 14 20  1  0  0  0  0
 14 15  1  0  0  0  0
 14 37  1  0  0  0  0
 15 16  1  0  0  0  0
 15 38  1  0  0  0  0
 15 39  1  0  0  0  0
 16 17  1  0  0  0  0
 16 40  1  0  0  0  0
 16 41  1  0  0  0  0
 17 18  1  0  0  0  0
 17 19  1  0  0  0  0
 17 54  1  0  0  0  0
 18 42  1  0  0  0  0
 18 43  1  0  0  0  0
 18 44  1  0  0  0  0
 19 20  1  0  0  0  0
 19 45  1  0  0  0  0
 19 46  1  0  0  0  0
 20 47  1  0  0  0  0
 20 48  1  0  0  0  0
 21 22  1  0  0  0  0
 21 49  1  0  0  0  0
 21 50  1  0  0  0  0
 22 51  1  0  0  0  0
 22 52  1  0  0  0  0
 23 24  2  0  0  0  0
 23 53  1  0  0  0  0
M  CHG  1  17   1
M  END
> <s_m_source_file>
AV-unprocessed.smi

> <i_m_source_file_index>
2772

> <i_lp_mmshare_version>
43012

> <i_f3d_flags>
0

> <s_epik_input>
W0NIM11jMVtjSF1bY0hdYyhbY0hdbjEpW05IXUMoPU8pW05IXVtDSF0yW0NIMl1bQ0gyXU4oW0NIMl1bQ0gyXTIpW0NIXTNbQ0gyXVtDSDJdTihbQ0gzXSlbQ0gyXVtDSDJdMw==

> <s_epik_cmdline>
J2VwaWtfcHl0aG9uJywgJy1waCcsICc3LjAnLCAnLXRuJywgJzgnLCAnLW1hJywgJzIwMCcsICctbWV0YWxfYmluZGluZycsICctaW1hZScsICc8aW5maWxlLm1hZT4nLCAnLW9tYWUnLCAnPG91dGZpbGUubWFlPic=

> <r_epik_Ionization_Penalty>
1.02952

> <r_epik_Ionization_Penalty_Charging>
0.000974969

> <r_epik_Ionization_Penalty_Neutral>
1.02854

> <r_epik_State_Penalty>
1.11259

> <r_epik_Charging_Adjusted_Penalty>
1.11356

> <i_epik_Tot_Q>
1

> <i_epik_Tot_abs_Q>
1

> <r_epik_Metal_State_Penalty>
1.1091

> <b_epik_Metal_Only>
0

> <s_lp_Force_Field>
OPLS_2005

> <r_lp_Energy>
33.5329

> <b_lp_Chiralities_Consistent>
1

> <s_lp_Variant>
AV-unprocessed.smi:2772-5

> <Gold.Version>
5.8.1

> <Gold.Id.Protein>
6NUR|6NUR_protein|mol2

> <Gold.PLP.Fitness>
50.4649

> <Gold.PLP.PLP>
-45.5583

> <Gold.PLP.part.hbond>
-2.3354

> <Gold.PLP.part.metal>
0.0000

> <Gold.PLP.part.buried>
2.9101

> <Gold.PLP.part.nonpolar>
-44.9084

> <Gold.PLP.part.repulsive>
0.4480

> <Gold.PLP.ligand.clash>
0.0000

> <Gold.PLP.ligand.torsion>
0.5474

> <Gold.PLP.Chemscore.Hbond>
2.0000

> <Gold.PLP.Chemscore.CHOScore>
0.0000

> <Gold.PLP.Chemscore.Metal>
0.0000

> <Gold.Chemscore.Hbonds>
donor molecule, donor type, donor heavy atom, donor atom, acceptor molecule, acceptor atom, score
      L1  H    17    54       P1  7948  2.00

> <Gold.PLP.Chemscore.Internal.Correction>
0.0013

> <Gold.Rescore>
     Score         DG    S(hbond)    S(metal)    S(lipo)     H(rot)  DE(clash)    DE(int)     intcor
     16.95     -21.41       1.00        0.00     133.66       1.20       1.68       2.78       ----

> <Gold.Chemscore.Fitness>
16.9499

> <Gold.Chemscore.DG>
-21.4067

> <Gold.Chemscore.ZeroCoef>
-5.4800

> <Gold.Chemscore.Hbond>
1.0040

> <Gold.Chemscore.Metal>
0.0000

> <Gold.Chemscore.Lipo>
133.6640

> <Gold.Chemscore.Internal_Hbond>
0.0000

> <Gold.Chemscore.DEClash>
1.6802

> <Gold.Chemscore.DEInternal>
2.7766

> <Gold.Chemscore.Rot>
1.1974

> <Gold.Chemscore.Internal.Correction>
   9.000000E+99

> <Gold.Chemscore.Hbonds>
donor molecule, donor type, donor heavy atom, donor atom, acceptor molecule, acceptor atom, score
      L1  H     9    31       P1  8028  0.02
      L1  H    17    54       P1  7948  1.00

> <Gold.Chemscore.Hbond.Weighted>
-3.3532

> <Gold.Chemscore.Metal.Weighted>
-0.0000

> <Gold.Chemscore.Lipo.Weighted>
-15.6387

> <Gold.Chemscore.Internal_Hbond.Weighted>
0.0000

> <Gold.Chemscore.DEClash.Weighted>
1.6802

> <Gold.Chemscore.DEInternal.Weighted>
2.7766

> <Gold.Chemscore.Rot.Weighted>
3.0652

> <Gold.Chemscore.Internal.Correction.Weighted>
   9.000000E+99

> <Gold.Protein.RotatedTorsions>
[ 6907 6896 6895 6894 ] final   69.49 input  -60.11 | X-H torsion
[ 7974 7965 7964 7962 ] final  -90.21 input  175.53 | X-H torsion
[ 8008 7997 7996 7995 ] final -178.36 input   59.86 | X-H torsion
[ 10167 10162 10161 10158 ] final  165.48 input  -65.29 | X-H torsion
[ 10718 10713 10712 10709 ] final  -15.24 input   66.30 | X-H torsion
[ 10763 10752 10751 10750 ] final   47.01 input  -60.55 | X-H torsion
[ 11005 11000 10999 10996 ] final -116.66 input  -57.11 | X-H torsion

> <Gold.Protein.ActiveResidues>
 VAL166  LYS551  ARG553  GLY616  TRP617  ASP618  TYR619  PRO620  LYS621  CYS622 
 ASP623  PHE694  ASN695  SER759  ASP760  ASP761  ALA762  ILE779  LEU786  VAL792 
 PHE793  MET794  SER795  GLU796  ALA797  LYS798  CYS799  TRP800  GLU811  SER814 

> <Gold.Protein.RotatedAtoms>
  152.4689  134.5008  159.9723 H   0  0  0  0  0  0  0  0  0  0  0  0  # atno 6907 bound_to 6896
  151.5039  133.3493  159.2881 H   0  0  0  0  0  0  0  0  0  0  0  0  # atno 6908 bound_to 6896
  150.8688  134.8086  159.7201 H   0  0  0  0  0  0  0  0  0  0  0  0  # atno 6909 bound_to 6896
  145.4295  140.9555  143.2136 H   0  0  0  0  0  0  0  0  0  0  0  0  # atno 7974 bound_to 7965
  156.0179  140.1254  157.0388 H   0  0  0  0  0  0  0  0  0  0  0  0  # atno 8008 bound_to 7997
  154.4300  140.1074  156.5991 H   0  0  0  0  0  0  0  0  0  0  0  0  # atno 8009 bound_to 7997
  155.5987  140.3470  155.4589 H   0  0  0  0  0  0  0  0  0  0  0  0  # atno 8010 bound_to 7997
  139.4907  144.4127  151.9280 H   0  0  0  0  0  0  0  0  0  0  0  0  # atno 10167 bound_to 10162
  156.6046  130.4833  149.6226 H   0  0  0  0  0  0  0  0  0  0  0  0  # atno 10718 bound_to 10713
  152.9804  135.5990  154.3693 H   0  0  0  0  0  0  0  0  0  0  0  0  # atno 10763 bound_to 10752
  154.3368  135.2768  155.2445 H   0  0  0  0  0  0  0  0  0  0  0  0  # atno 10764 bound_to 10752
  154.4544  135.5981  153.6269 H   0  0  0  0  0  0  0  0  0  0  0  0  # atno 10765 bound_to 10752
  141.0407  133.9840  157.2999 H   0  0  0  0  0  0  0  0  0  0  0  0  # atno 11005 bound_to 11000
  144.8192  139.5822  143.6994 LP  0  0  0  0  0  0  0  0  0  0  0  0  # atno 17320 bound_to 7965
  146.2615  139.6420  142.9359 LP  0  0  0  0  0  0  0  0  0  0  0  0  # atno 17321 bound_to 7965
  140.3569  144.3021  150.5940 LP  0  0  0  0  0  0  0  0  0  0  0  0  # atno 17342 bound_to 10162
  140.5437  143.2219  151.8043 LP  0  0  0  0  0  0  0  0  0  0  0  0  # atno 17343 bound_to 10162
  156.2440  130.6868  151.1583 LP  0  0  0  0  0  0  0  0  0  0  0  0  # atno 17370 bound_to 10713
  157.7270  131.0642  150.5882 LP  0  0  0  0  0  0  0  0  0  0  0  0  # atno 17371 bound_to 10713
  139.9273  135.0201  156.8280 LP  0  0  0  0  0  0  0  0  0  0  0  0  # atno 17394 bound_to 11000
  140.6240  133.9967  155.7631 LP  0  0  0  0  0  0  0  0  0  0  0  0  # atno 17395 bound_to 11000

$$$$
