AV-unprocessed.smi:1218|AV-procd|sdf|5108|dock10
  -GOLD-   22720 4163D 1   1.00000     0.00000
 Structure written by MMmdl.
 45 46  0  0  0  0  0  0  0  0  2 V2000
  144.8643  136.3596  155.3600 C   0  0  0  0  0  0  0  0  0  0  0  0
  145.6536  137.0725  154.2492 C   0  0  0  0  0  0  0  0  0  0  0  0
  145.8468  136.1383  153.0454 C   0  0  0  0  0  0  0  0  0  0  0  0
  147.0165  137.5947  154.7534 C   0  0  0  0  0  0  0  0  0  0  0  0
  147.8340  138.2274  153.6820 N   0  3  1  0  0  0  0  0  0  0  0  0
  147.1217  139.3033  152.9507 C   0  0  0  0  0  0  0  0  0  0  0  0
  147.0917  140.6063  153.7698 C   0  0  0  0  0  0  0  0  0  0  0  0
  148.4223  140.9935  154.0898 O   0  0  0  0  0  0  0  0  0  0  0  0
  149.0931  140.0281  154.8948 C   0  0  2  0  0  0  0  0  0  0  0  0
  150.4914  140.5702  155.2408 C   0  0  0  0  0  0  0  0  0  0  0  0
  150.5913  140.9770  156.6384 N   0  0  0  0  0  0  0  0  0  0  0  0
  151.5646  140.6005  157.4819 C   0  0  0  0  0  0  0  0  0  0  0  0
  152.4806  139.8441  157.1555 O   0  0  0  0  0  0  0  0  0  0  0  0
  151.4857  141.1742  158.9012 C   0  0  0  0  0  0  0  0  0  0  0  0
  151.7423  142.6046  158.9361 N   0  0  0  0  0  0  0  0  0  0  0  0
  152.0977  143.3867  160.0159 C   0  0  0  0  0  0  0  0  0  0  0  0
  152.2269  144.6690  159.5647 C   0  0  0  0  0  0  0  0  0  0  0  0
  151.9248  144.5710  158.1775 C   0  0  0  0  0  0  0  0  0  0  0  0
  151.6340  143.3351  157.8047 N   0  0  0  0  0  0  0  0  0  0  0  0
  149.1758  138.6984  154.1128 C   0  0  0  0  0  0  0  0  0  0  0  0
  145.4134  135.5019  155.7499 H   0  0  0  0  0  0  0  0  0  0  0  0
  143.9055  135.9971  154.9877 H   0  0  0  0  0  0  0  0  0  0  0  0
  144.6541  137.0286  156.1948 H   0  0  0  0  0  0  0  0  0  0  0  0
  145.0537  137.9113  153.8980 H   0  0  0  0  0  0  0  0  0  0  0  0
  146.4369  135.2613  153.3130 H   0  0  0  0  0  0  0  0  0  0  0  0
  146.3600  136.6484  152.2295 H   0  0  0  0  0  0  0  0  0  0  0  0
  144.8882  135.7896  152.6601 H   0  0  0  0  0  0  0  0  0  0  0  0
  146.8266  138.3258  155.5406 H   0  0  0  0  0  0  0  0  0  0  0  0
  147.5787  136.7897  155.2263 H   0  0  0  0  0  0  0  0  0  0  0  0
  147.6442  139.4821  152.0099 H   0  0  0  0  0  0  0  0  0  0  0  0
  146.1129  138.9875  152.6831 H   0  0  0  0  0  0  0  0  0  0  0  0
  146.6261  141.4024  153.1888 H   0  0  0  0  0  0  0  0  0  0  0  0
  146.5005  140.4915  154.6797 H   0  0  0  0  0  0  0  0  0  0  0  0
  148.5343  139.8783  155.8192 H   0  0  0  0  0  0  0  0  0  0  0  0
  151.2525  139.8172  155.0290 H   0  0  0  0  0  0  0  0  0  0  0  0
  150.7263  141.4308  154.6138 H   0  0  0  0  0  0  0  0  0  0  0  0
  149.8763  141.6004  156.9849 H   0  0  0  0  0  0  0  0  0  0  0  0
  150.4969  140.9715  159.3158 H   0  0  0  0  0  0  0  0  0  0  0  0
  152.2129  140.6808  159.5478 H   0  0  0  0  0  0  0  0  0  0  0  0
  152.2279  142.9695  161.0036 H   0  0  0  0  0  0  0  0  0  0  0  0
  152.4954  145.5441  160.1377 H   0  0  0  0  0  0  0  0  0  0  0  0
  151.9076  145.3555  157.4355 H   0  0  0  0  0  0  0  0  0  0  0  0
  149.6889  137.9392  154.7014 H   0  0  0  0  0  0  0  0  0  0  0  0
  149.7819  138.8448  153.2176 H   0  0  0  0  0  0  0  0  0  0  0  0
  147.9892  137.4927  153.0062 H   0  0  0  0  0  0  0  0  0  0  0  0
  1  2  1  0  0  0  0
  1 21  1  0  0  0  0
  1 22  1  0  0  0  0
  1 23  1  0  0  0  0
  2  3  1  0  0  0  0
  2  4  1  0  0  0  0
  2 24  1  0  0  0  0
  3 25  1  0  0  0  0
  3 26  1  0  0  0  0
  3 27  1  0  0  0  0
  4  5  1  0  0  0  0
  4 28  1  0  0  0  0
  4 29  1  0  0  0  0
  5 20  1  0  0  0  0
  5  6  1  0  0  0  0
  5 45  1  0  0  0  0
  6  7  1  0  0  0  0
  6 30  1  0  0  0  0
  6 31  1  0  0  0  0
  7  8  1  0  0  0  0
  7 32  1  0  0  0  0
  7 33  1  0  0  0  0
  8  9  1  0  0  0  0
  9 10  1  0  0  0  0
  9 20  1  0  0  0  0
  9 34  1  0  0  0  0
 10 11  1  0  0  0  0
 10 35  1  0  0  0  0
 10 36  1  0  0  0  0
 11 12  1  0  0  0  0
 11 37  1  0  0  0  0
 12 13  2  0  0  0  0
 12 14  1  0  0  0  0
 14 15  1  0  0  0  0
 14 38  1  0  0  0  0
 14 39  1  0  0  0  0
 15 19  1  0  0  0  0
 15 16  1  0  0  0  0
 16 17  2  0  0  0  0
 16 40  1  0  0  0  0
 17 18  1  0  0  0  0
 17 41  1  0  0  0  0
 18 19  2  0  0  0  0
 18 42  1  0  0  0  0
 20 43  1  0  0  0  0
 20 44  1  0  0  0  0
M  CHG  1   5   1
M  END
> <s_m_source_file>
AV-unprocessed.smi

> <i_m_source_file_index>
1218

> <i_lp_mmshare_version>
43012

> <i_f3d_flags>
0

> <s_epik_input>
W0NIM11bQ0hdKFtDSDNdKVtDSDJdTjFbQ0gyXVtDSDJdT1tDQEhdKFtDSDJdMSlbQ0gyXVtOSF1DKD1PKVtDSDJdbjJbY0hdW2NIXVtjSF1uMg==

> <s_epik_cmdline>
J2VwaWtfcHl0aG9uJywgJy1waCcsICc3LjAnLCAnLXRuJywgJzgnLCAnLW1hJywgJzIwMCcsICctbWV0YWxfYmluZGluZycsICctaW1hZScsICc8aW5maWxlLm1hZT4nLCAnLW9tYWUnLCAnPG91dGZpbGUubWFlPic=

> <r_lp_tautomer_probability>
1

> <r_epik_Ionization_Penalty>
0.0995066

> <r_epik_Ionization_Penalty_Charging>
0.0994921

> <r_epik_Ionization_Penalty_Neutral>
1.44634e-05

> <r_epik_State_Penalty>
0.0895432

> <r_epik_Charging_Adjusted_Penalty>
0.189035

> <i_epik_Tot_Q>
1

> <i_epik_Tot_abs_Q>
1

> <r_epik_Metal_State_Penalty>
0.0895432

> <b_epik_Metal_Only>
0

> <s_lp_Force_Field>
OPLS_2005

> <r_lp_Energy>
21.49

> <b_lp_Chiralities_Consistent>
1

> <s_lp_Variant>
AV-unprocessed.smi:1218-3

> <Gold.Version>
5.8.1

> <Gold.Id.Protein>
6NUR|6NUR_protein|mol2

> <Gold.PLP.Fitness>
40.7181

> <Gold.PLP.PLP>
-33.7440

> <Gold.PLP.part.hbond>
-2.0000

> <Gold.PLP.part.metal>
0.0000

> <Gold.PLP.part.buried>
-3.0535

> <Gold.PLP.part.nonpolar>
-28.4268

> <Gold.PLP.part.repulsive>
0.3119

> <Gold.PLP.ligand.clash>
0.0000

> <Gold.PLP.ligand.torsion>
1.0742

> <Gold.PLP.Chemscore.Hbond>
3.0000

> <Gold.PLP.Chemscore.CHOScore>
0.0000

> <Gold.PLP.Chemscore.Metal>
0.0000

> <Gold.Chemscore.Hbonds>
donor molecule, donor type, donor heavy atom, donor atom, acceptor molecule, acceptor atom, score
      L1  H     5    45       P1  7948  2.00
      P1  H  7997  8008       L1    13  1.00

> <Gold.PLP.Chemscore.Internal.Correction>
0.1225

> <Gold.Rescore>
     Score         DG    S(hbond)    S(metal)    S(lipo)     H(rot)  DE(clash)    DE(int)     intcor
     13.99     -17.10       1.98        0.00      85.71       1.96       0.70       2.41       ----

> <Gold.Chemscore.Fitness>
13.9937

> <Gold.Chemscore.DG>
-17.1013

> <Gold.Chemscore.ZeroCoef>
-5.4800

> <Gold.Chemscore.Hbond>
1.9812

> <Gold.Chemscore.Metal>
0.0000

> <Gold.Chemscore.Lipo>
85.7069

> <Gold.Chemscore.Internal_Hbond>
0.0000

> <Gold.Chemscore.DEClash>
0.6987

> <Gold.Chemscore.DEInternal>
2.4090

> <Gold.Chemscore.Rot>
1.9624

> <Gold.Chemscore.Internal.Correction>
   9.000000E+99

> <Gold.Chemscore.Hbonds>
donor molecule, donor type, donor heavy atom, donor atom, acceptor molecule, acceptor atom, score
      L1  H     5    45       P1  7948  0.98
      P1  H  7997  8008       L1    13  0.98

> <Gold.Chemscore.Hbond.Weighted>
-6.6173

> <Gold.Chemscore.Metal.Weighted>
-0.0000

> <Gold.Chemscore.Lipo.Weighted>
-10.0277

> <Gold.Chemscore.Internal_Hbond.Weighted>
0.0000

> <Gold.Chemscore.DEClash.Weighted>
0.6987

> <Gold.Chemscore.DEInternal.Weighted>
2.4090

> <Gold.Chemscore.Rot.Weighted>
5.0237

> <Gold.Chemscore.Internal.Correction.Weighted>
   9.000000E+99

> <Gold.Protein.RotatedTorsions>
[ 6907 6896 6895 6894 ] final -125.80 input  -60.11 | X-H torsion
[ 7974 7965 7964 7962 ] final   -0.03 input  175.53 | X-H torsion
[ 8008 7997 7996 7995 ] final  -64.22 input   59.86 | X-H torsion
[ 10167 10162 10161 10158 ] final  -85.57 input  -65.29 | X-H torsion
[ 10718 10713 10712 10709 ] final   55.02 input   66.30 | X-H torsion
[ 10763 10752 10751 10750 ] final -122.25 input  -60.55 | X-H torsion
[ 11005 11000 10999 10996 ] final -112.44 input  -57.11 | X-H torsion

> <Gold.Protein.ActiveResidues>
 VAL166  LYS551  ARG553  GLY616  TRP617  ASP618  TYR619  PRO620  LYS621  CYS622 
 ASP623  PHE694  ASN695  SER759  ASP760  ASP761  ALA762  ILE779  LEU786  VAL792 
 PHE793  MET794  SER795  GLU796  ALA797  LYS798  CYS799  TRP800  GLU811  SER814 

> <Gold.Protein.RotatedAtoms>
  150.8904  133.7251  159.2906 H   0  0  0  0  0  0  0  0  0  0  0  0  # atno 6907 bound_to 6896
  151.4803  135.1050  159.9785 H   0  0  0  0  0  0  0  0  0  0  0  0  # atno 6908 bound_to 6896
  152.4816  133.8222  159.7115 H   0  0  0  0  0  0  0  0  0  0  0  0  # atno 6909 bound_to 6896
  146.2431  140.1209  142.8340 H   0  0  0  0  0  0  0  0  0  0  0  0  # atno 7974 bound_to 7965
  154.4599  140.0958  156.6864 H   0  0  0  0  0  0  0  0  0  0  0  0  # atno 8008 bound_to 7997
  155.5025  140.3474  155.4355 H   0  0  0  0  0  0  0  0  0  0  0  0  # atno 8009 bound_to 7997
  156.0850  140.1383  156.9653 H   0  0  0  0  0  0  0  0  0  0  0  0  # atno 8010 bound_to 7997
  140.4025  143.2657  151.9124 H   0  0  0  0  0  0  0  0  0  0  0  0  # atno 10167 bound_to 10162
  157.5308  130.8629  149.8685 H   0  0  0  0  0  0  0  0  0  0  0  0  # atno 10718 bound_to 10713
  154.8685  135.4139  154.2751 H   0  0  0  0  0  0  0  0  0  0  0  0  # atno 10763 bound_to 10752
  153.3654  135.7005  153.6685 H   0  0  0  0  0  0  0  0  0  0  0  0  # atno 10764 bound_to 10752
  153.5568  135.3618  155.2755 H   0  0  0  0  0  0  0  0  0  0  0  0  # atno 10765 bound_to 10752
  141.0675  133.9435  157.2551 H   0  0  0  0  0  0  0  0  0  0  0  0  # atno 11005 bound_to 11000
  145.0407  140.8943  143.5054 LP  0  0  0  0  0  0  0  0  0  0  0  0  # atno 17320 bound_to 7965
  145.1289  139.2645  143.5549 LP  0  0  0  0  0  0  0  0  0  0  0  0  # atno 17321 bound_to 7965
  139.4784  144.5619  151.8225 LP  0  0  0  0  0  0  0  0  0  0  0  0  # atno 17342 bound_to 10162
  140.4725  144.1566  150.5920 LP  0  0  0  0  0  0  0  0  0  0  0  0  # atno 17343 bound_to 10162
  156.0421  130.3736  150.1409 LP  0  0  0  0  0  0  0  0  0  0  0  0  # atno 17370 bound_to 10713
  156.9594  130.9800  151.3482 LP  0  0  0  0  0  0  0  0  0  0  0  0  # atno 17371 bound_to 10713
  139.9490  135.0179  156.8938 LP  0  0  0  0  0  0  0  0  0  0  0  0  # atno 17394 bound_to 11000
  140.5744  134.0413  155.7441 LP  0  0  0  0  0  0  0  0  0  0  0  0  # atno 17395 bound_to 11000

$$$$
