AV-unprocessed.smi:1046|AV-procd|sdf|4554|dock4
  -GOLD-   22720 2583D 1   1.00000     0.00000
 Structure written by MMmdl.
 54 56  0  0  0  0  0  0  0  0  3 V2000
  153.0378  142.7177  160.2302 C   0  0  0  0  0  0  0  0  0  0  0  0
  152.3717  142.1726  158.9790 C   0  0  0  0  0  0  0  0  0  0  0  0
  152.9723  141.0906  158.2965 C   0  0  0  0  0  0  0  0  0  0  0  0
  152.3850  140.5555  157.1293 C   0  0  0  0  0  0  0  0  0  0  0  0
  152.7922  139.5138  156.3133 N   0  0  0  0  0  0  0  0  0  0  0  0
  151.8320  139.5013  155.3936 C   0  0  0  0  0  0  0  0  0  0  0  0
  150.8449  140.4091  155.5215 N   0  0  0  0  0  0  0  0  0  0  0  0
  149.6967  140.5877  154.6513 C   0  0  0  0  0  0  0  0  0  0  0  0
  149.1274  139.2469  154.1492 C   0  0  2  0  0  0  0  0  0  0  0  0
  149.9448  138.7554  153.1042 O   0  0  0  0  0  0  0  0  0  0  0  0
  147.6868  139.4008  153.6226 C   0  0  0  0  0  0  0  0  0  0  0  0
  147.1745  138.1659  152.9739 N   0  3  2  0  0  0  0  0  0  0  0  0
  146.4441  138.4532  151.7146 C   0  0  0  0  0  0  0  0  0  0  0  0
  146.0094  137.1555  151.0106 C   0  0  0  0  0  0  0  0  0  0  0  0
  145.1947  136.3029  151.9132 N   0  3  1  0  0  0  0  0  0  0  0  0
  144.6796  135.0707  151.2623 C   0  0  0  0  0  0  0  0  0  0  0  0
  145.7916  134.0511  150.9605 C   0  0  0  0  0  0  0  0  0  0  0  0
  145.3766  133.1738  149.9350 O   0  0  0  0  0  0  0  0  0  0  0  0
  145.9259  136.0141  153.1714 C   0  0  0  0  0  0  0  0  0  0  0  0
  146.3601  137.3118  153.8762 C   0  0  0  0  0  0  0  0  0  0  0  0
  151.1715  141.1373  156.6599 C   0  0  0  0  0  0  0  0  0  0  0  0
  150.5649  142.2147  157.3291 C   0  0  0  0  0  0  0  0  0  0  0  0
  151.1640  142.7364  158.4947 C   0  0  0  0  0  0  0  0  0  0  0  0
  150.5014  143.8995  159.2113 C   0  0  0  0  0  0  0  0  0  0  0  0
  153.9579  142.1792  160.4591 H   0  0  0  0  0  0  0  0  0  0  0  0
  152.3730  142.6234  161.0890 H   0  0  0  0  0  0  0  0  0  0  0  0
  153.2901  143.7705  160.1007 H   0  0  0  0  0  0  0  0  0  0  0  0
  153.8926  140.6616  158.6650 H   0  0  0  0  0  0  0  0  0  0  0  0
  151.8441  138.7876  154.5826 H   0  0  0  0  0  0  0  0  0  0  0  0
  148.9353  141.1371  155.2064 H   0  0  0  0  0  0  0  0  0  0  0  0
  149.9878  141.2205  153.8112 H   0  0  0  0  0  0  0  0  0  0  0  0
  149.1578  138.5306  154.9693 H   0  0  0  0  0  0  0  0  0  0  0  0
  149.4968  138.0345  152.6862 H   0  0  0  0  0  0  0  0  0  0  0  0
  147.0126  139.6898  154.4304 H   0  0  0  0  0  0  0  0  0  0  0  0
  147.6706  140.2232  152.9051 H   0  0  0  0  0  0  0  0  0  0  0  0
  145.5719  139.0718  151.9327 H   0  0  0  0  0  0  0  0  0  0  0  0
  147.0813  139.0293  151.0424 H   0  0  0  0  0  0  0  0  0  0  0  0
  145.4432  137.4107  150.1155 H   0  0  0  0  0  0  0  0  0  0  0  0
  146.8885  136.5998  150.6799 H   0  0  0  0  0  0  0  0  0  0  0  0
  143.9117  134.6193  151.8923 H   0  0  0  0  0  0  0  0  0  0  0  0
  144.1885  135.3274  150.3223 H   0  0  0  0  0  0  0  0  0  0  0  0
  146.7276  134.5316  150.6779 H   0  0  0  0  0  0  0  0  0  0  0  0
  145.9994  133.4592  151.8523 H   0  0  0  0  0  0  0  0  0  0  0  0
  145.2378  133.6760  149.1454 H   0  0  0  0  0  0  0  0  0  0  0  0
  145.2894  135.4364  153.8430 H   0  0  0  0  0  0  0  0  0  0  0  0
  146.7988  135.3968  152.9517 H   0  0  0  0  0  0  0  0  0  0  0  0
  146.9252  137.0529  154.7706 H   0  0  0  0  0  0  0  0  0  0  0  0
  145.4814  137.8670  154.2087 H   0  0  0  0  0  0  0  0  0  0  0  0
  149.6466  142.6366  156.9487 H   0  0  0  0  0  0  0  0  0  0  0  0
  149.5689  144.1880  158.7253 H   0  0  0  0  0  0  0  0  0  0  0  0
  151.1597  144.7686  159.2151 H   0  0  0  0  0  0  0  0  0  0  0  0
  150.2718  143.6338  160.2433 H   0  0  0  0  0  0  0  0  0  0  0  0
  147.9913  137.6309  152.7130 H   0  0  0  0  0  0  0  0  0  0  0  0
  144.3792  136.8390  152.1758 H   0  0  0  0  0  0  0  0  0  0  0  0
  1  2  1  0  0  0  0
  1 25  1  0  0  0  0
  1 26  1  0  0  0  0
  1 27  1  0  0  0  0
  2 23  1  0  0  0  0
  2  3  2  0  0  0  0
  3  4  1  0  0  0  0
  3 28  1  0  0  0  0
  4 21  2  0  0  0  0
  4  5  1  0  0  0  0
  5  6  2  0  0  0  0
  6  7  1  0  0  0  0
  6 29  1  0  0  0  0
  7  8  1  0  0  0  0
  7 21  1  0  0  0  0
  8  9  1  0  0  0  0
  8 30  1  0  0  0  0
  8 31  1  0  0  0  0
  9 10  1  0  0  0  0
  9 11  1  0  0  0  0
  9 32  1  0  0  0  0
 10 33  1  0  0  0  0
 11 12  1  0  0  0  0
 11 34  1  0  0  0  0
 11 35  1  0  0  0  0
 12 20  1  0  0  0  0
 12 13  1  0  0  0  0
 12 53  1  0  0  0  0
 13 14  1  0  0  0  0
 13 36  1  0  0  0  0
 13 37  1  0  0  0  0
 14 15  1  0  0  0  0
 14 38  1  0  0  0  0
 14 39  1  0  0  0  0
 15 16  1  0  0  0  0
 15 19  1  0  0  0  0
 15 54  1  0  0  0  0
 16 17  1  0  0  0  0
 16 40  1  0  0  0  0
 16 41  1  0  0  0  0
 17 18  1  0  0  0  0
 17 42  1  0  0  0  0
 17 43  1  0  0  0  0
 18 44  1  0  0  0  0
 19 20  1  0  0  0  0
 19 45  1  0  0  0  0
 19 46  1  0  0  0  0
 20 47  1  0  0  0  0
 20 48  1  0  0  0  0
 21 22  1  0  0  0  0
 22 23  2  0  0  0  0
 22 49  1  0  0  0  0
 23 24  1  0  0  0  0
 24 50  1  0  0  0  0
 24 51  1  0  0  0  0
 24 52  1  0  0  0  0
M  CHG  1  12   1
M  CHG  1  15   1
M  END
> <s_m_source_file>
AV-unprocessed.smi

> <i_m_source_file_index>
1046

> <i_lp_mmshare_version>
43012

> <i_f3d_flags>
0

> <s_epik_input>
W0NIM11jKFtjSF0xKWMoW0NIM10pW2NIXWMoYzEyKW4oW2NIXW4yKVtDSDJdW0NASF0oW09IXSlbQ0gyXU4zW0NIMl1bQ0gyXU4oW0NIMl1bQ0gyXTMpW0NIMl1bQ0gyXVtPSF0=

> <s_epik_cmdline>
J2VwaWtfcHl0aG9uJywgJy1waCcsICc3LjAnLCAnLXRuJywgJzgnLCAnLW1hJywgJzIwMCcsICctbWV0YWxfYmluZGluZycsICctaW1hZScsICc8aW5maWxlLm1hZT4nLCAnLW9tYWUnLCAnPG91dGZpbGUubWFlPic=

> <r_epik_Ionization_Penalty>
3.17398

> <r_epik_Ionization_Penalty_Charging>
3.09061

> <r_epik_Ionization_Penalty_Neutral>
0.0833726

> <r_epik_State_Penalty>
2.17606

> <r_epik_Charging_Adjusted_Penalty>
5.26667

> <i_epik_Tot_Q>
2

> <i_epik_Tot_abs_Q>
2

> <r_epik_Metal_State_Penalty>
2.08587

> <b_epik_Metal_Only>
0

> <s_lp_Force_Field>
OPLS_2005

> <r_lp_Energy>
27.9633

> <b_lp_Chiralities_Consistent>
1

> <s_lp_Variant>
AV-unprocessed.smi:1046-7

> <Gold.Version>
5.8.1

> <Gold.Id.Protein>
6NUR|6NUR_protein|mol2

> <Gold.PLP.Fitness>
58.2614

> <Gold.PLP.PLP>
-45.3640

> <Gold.PLP.part.hbond>
-4.7905

> <Gold.PLP.part.metal>
0.0000

> <Gold.PLP.part.buried>
1.5758

> <Gold.PLP.part.nonpolar>
-41.3016

> <Gold.PLP.part.repulsive>
0.0527

> <Gold.PLP.ligand.clash>
0.0000

> <Gold.PLP.ligand.torsion>
1.1883

> <Gold.PLP.Chemscore.Hbond>
4.9913

> <Gold.PLP.Chemscore.CHOScore>
0.0000

> <Gold.PLP.Chemscore.Metal>
0.0000

> <Gold.Chemscore.Hbonds>
donor molecule, donor type, donor heavy atom, donor atom, acceptor molecule, acceptor atom, score
      L1  H    10    33       P1  7948  1.00
      L1  H    12    53       P1  7948  2.00
      L1  H    18    44       P1  7921  0.79
      P1  H  7997  8010       L1     5  0.55

> <Gold.PLP.Chemscore.Internal.Correction>
0.3002

> <Gold.Rescore>
     Score         DG    S(hbond)    S(metal)    S(lipo)     H(rot)  DE(clash)    DE(int)     intcor
     16.04     -19.75       2.51        0.00     122.20       3.28       1.51       2.19       ----

> <Gold.Chemscore.Fitness>
16.0424

> <Gold.Chemscore.DG>
-19.7470

> <Gold.Chemscore.ZeroCoef>
-5.4800

> <Gold.Chemscore.Hbond>
2.5070

> <Gold.Chemscore.Metal>
0.0000

> <Gold.Chemscore.Lipo>
122.2014

> <Gold.Chemscore.Internal_Hbond>
0.0000

> <Gold.Chemscore.DEClash>
1.5148

> <Gold.Chemscore.DEInternal>
2.1898

> <Gold.Chemscore.Rot>
3.2828

> <Gold.Chemscore.Internal.Correction>
   9.000000E+99

> <Gold.Chemscore.Hbonds>
donor molecule, donor type, donor heavy atom, donor atom, acceptor molecule, acceptor atom, score
      L1  H    10    33       P1  7948  0.75
      L1  H    12    53       P1  7948  0.98
      L1  H    18    44       P1  7921  0.56
      P1  H  7997  8010       L1     5  0.03

> <Gold.Chemscore.Hbond.Weighted>
-8.3734

> <Gold.Chemscore.Metal.Weighted>
-0.0000

> <Gold.Chemscore.Lipo.Weighted>
-14.2976

> <Gold.Chemscore.Internal_Hbond.Weighted>
0.0000

> <Gold.Chemscore.DEClash.Weighted>
1.5148

> <Gold.Chemscore.DEInternal.Weighted>
2.1898

> <Gold.Chemscore.Rot.Weighted>
8.4039

> <Gold.Chemscore.Internal.Correction.Weighted>
   9.000000E+99

> <Gold.Protein.RotatedTorsions>
[ 6907 6896 6895 6894 ] final   43.34 input  -60.11 | X-H torsion
[ 7974 7965 7964 7962 ] final  104.87 input  175.53 | X-H torsion
[ 8008 7997 7996 7995 ] final   81.74 input   59.86 | X-H torsion
[ 10167 10162 10161 10158 ] final -144.57 input  -65.29 | X-H torsion
[ 10718 10713 10712 10709 ] final -179.22 input   66.30 | X-H torsion
[ 10763 10752 10751 10750 ] final  124.98 input  -60.55 | X-H torsion
[ 11005 11000 10999 10996 ] final   97.84 input  -57.11 | X-H torsion

> <Gold.Protein.ActiveResidues>
 VAL166  LYS551  ARG553  GLY616  TRP617  ASP618  TYR619  PRO620  LYS621  CYS622 
 ASP623  PHE694  ASN695  SER759  ASP760  ASP761  ALA762  ILE779  LEU786  VAL792 
 PHE793  MET794  SER795  GLU796  ALA797  LYS798  CYS799  TRP800  GLU811  SER814 

> <Gold.Protein.RotatedAtoms>
  152.2191  134.8430  160.0487 H   0  0  0  0  0  0  0  0  0  0  0  0  # atno 6907 bound_to 6896
  151.9220  133.3583  159.3908 H   0  0  0  0  0  0  0  0  0  0  0  0  # atno 6908 bound_to 6896
  150.6995  134.4550  159.5398 H   0  0  0  0  0  0  0  0  0  0  0  0  # atno 6909 bound_to 6896
  145.3270  139.2497  143.3681 H   0  0  0  0  0  0  0  0  0  0  0  0  # atno 7974 bound_to 7965
  155.9012  140.3433  155.6028 H   0  0  0  0  0  0  0  0  0  0  0  0  # atno 8008 bound_to 7997
  155.7497  140.0818  157.2226 H   0  0  0  0  0  0  0  0  0  0  0  0  # atno 8009 bound_to 7997
  154.4044  140.1555  156.2698 H   0  0  0  0  0  0  0  0  0  0  0  0  # atno 8010 bound_to 7997
  139.7886  143.7998  152.2647 H   0  0  0  0  0  0  0  0  0  0  0  0  # atno 10167 bound_to 10162
  156.8559  130.9735  151.3088 H   0  0  0  0  0  0  0  0  0  0  0  0  # atno 10718 bound_to 10713
  153.6701  135.3332  155.3151 H   0  0  0  0  0  0  0  0  0  0  0  0  # atno 10763 bound_to 10752
  154.8493  135.4384  154.1714 H   0  0  0  0  0  0  0  0  0  0  0  0  # atno 10764 bound_to 10752
  153.2703  135.6999  153.7563 H   0  0  0  0  0  0  0  0  0  0  0  0  # atno 10765 bound_to 10752
  139.8774  134.9020  156.4366 H   0  0  0  0  0  0  0  0  0  0  0  0  # atno 11005 bound_to 11000
  146.3060  140.3840  142.8687 LP  0  0  0  0  0  0  0  0  0  0  0  0  # atno 17320 bound_to 7965
  144.8894  140.7504  143.5936 LP  0  0  0  0  0  0  0  0  0  0  0  0  # atno 17321 bound_to 7965
  139.8082  144.7346  150.9733 LP  0  0  0  0  0  0  0  0  0  0  0  0  # atno 17342 bound_to 10162
  140.7820  143.4277  151.0743 LP  0  0  0  0  0  0  0  0  0  0  0  0  # atno 17343 bound_to 10162
  157.6277  130.8704  149.9218 LP  0  0  0  0  0  0  0  0  0  0  0  0  # atno 17370 bound_to 10713
  156.0803  130.3674  150.0595 LP  0  0  0  0  0  0  0  0  0  0  0  0  # atno 17371 bound_to 10713
  140.9029  133.7767  155.9701 LP  0  0  0  0  0  0  0  0  0  0  0  0  # atno 17394 bound_to 11000
  140.8631  134.2816  157.5225 LP  0  0  0  0  0  0  0  0  0  0  0  0  # atno 17395 bound_to 11000

$$$$
