AV-unprocessed.smi:814|AV-procd|sdf|3824|dock4
  -GOLD-   22720 1263D 1   1.00000     0.00000
 Structure written by MMmdl.
 36 37  0  0  0  0  0  0  0  0  1 V2000
  147.6843  138.5739  153.6570 C   0  0  0  0  0  0  0  0  0  0  0  0
  149.0132  138.9657  154.0865 N   0  0  0  0  0  0  0  0  0  0  0  0
  150.1045  138.1206  154.2384 C   0  0  0  0  0  0  0  0  0  0  0  0
  151.1506  138.9015  154.6673 C   0  0  0  0  0  0  0  0  0  0  0  0
  150.7246  140.2204  154.7842 N   0  0  0  0  0  0  0  0  0  0  0  0
  149.4472  140.1977  154.4159 C   0  0  0  0  0  0  0  0  0  0  0  0
  148.5641  141.4060  154.3995 C   0  0  0  0  0  0  0  0  0  0  0  0
  147.9997  141.7407  155.7899 C   0  0  0  0  0  0  0  0  0  0  0  0
  148.9845  142.4312  156.6141 N   0  0  0  0  0  0  0  0  0  0  0  0
  149.7088  141.8560  157.5866 C   0  0  0  0  0  0  0  0  0  0  0  0
  149.6208  140.6616  157.8745 O   0  0  0  0  0  0  0  0  0  0  0  0
  150.6772  142.7664  158.3533 C   0  0  1  0  0  0  0  0  0  0  0  0
  151.6834  143.4419  157.3929 C   0  0  0  0  0  0  0  0  0  0  0  0
  152.4767  144.5436  158.0728 C   0  0  0  0  0  0  0  0  0  0  0  0
  152.1218  145.0934  159.2467 C   0  0  0  0  0  0  0  0  0  0  0  0
  150.8856  144.6783  160.0245 C   0  0  0  0  0  0  0  0  0  0  0  0
  149.9205  143.8282  159.1765 C   0  0  0  0  0  0  0  0  0  0  0  0
  147.6076  137.4872  153.6163 H   0  0  0  0  0  0  0  0  0  0  0  0
  147.4836  138.9802  152.6657 H   0  0  0  0  0  0  0  0  0  0  0  0
  146.9392  138.9517  154.3576 H   0  0  0  0  0  0  0  0  0  0  0  0
  150.0479  137.0611  154.0366 H   0  0  0  0  0  0  0  0  0  0  0  0
  152.1668  138.6188  154.8994 H   0  0  0  0  0  0  0  0  0  0  0  0
  149.1432  142.2506  154.0243 H   0  0  0  0  0  0  0  0  0  0  0  0
  147.7572  141.2524  153.6823 H   0  0  0  0  0  0  0  0  0  0  0  0
  147.0978  142.3488  155.7015 H   0  0  0  0  0  0  0  0  0  0  0  0
  147.7057  140.8245  156.3026 H   0  0  0  0  0  0  0  0  0  0  0  0
  149.1196  143.4163  156.4380 H   0  0  0  0  0  0  0  0  0  0  0  0
  151.2426  142.1493  159.0545 H   0  0  0  0  0  0  0  0  0  0  0  0
  152.3820  142.6973  157.0093 H   0  0  0  0  0  0  0  0  0  0  0  0
  151.1786  143.8779  156.5296 H   0  0  0  0  0  0  0  0  0  0  0  0
  153.3599  144.8955  157.5602 H   0  0  0  0  0  0  0  0  0  0  0  0
  152.7364  145.8661  159.6850 H   0  0  0  0  0  0  0  0  0  0  0  0
  151.2119  144.1175  160.9008 H   0  0  0  0  0  0  0  0  0  0  0  0
  150.3732  145.5687  160.3892 H   0  0  0  0  0  0  0  0  0  0  0  0
  149.3668  144.4844  158.5027 H   0  0  0  0  0  0  0  0  0  0  0  0
  149.1796  143.3591  159.8255 H   0  0  0  0  0  0  0  0  0  0  0  0
  1  2  1  0  0  0  0
  1 18  1  0  0  0  0
  1 19  1  0  0  0  0
  1 20  1  0  0  0  0
  2  6  1  0  0  0  0
  2  3  1  0  0  0  0
  3  4  2  0  0  0  0
  3 21  1  0  0  0  0
  4  5  1  0  0  0  0
  4 22  1  0  0  0  0
  5  6  2  0  0  0  0
  6  7  1  0  0  0  0
  7  8  1  0  0  0  0
  7 23  1  0  0  0  0
  7 24  1  0  0  0  0
  8  9  1  0  0  0  0
  8 25  1  0  0  0  0
  8 26  1  0  0  0  0
  9 10  1  0  0  0  0
  9 27  1  0  0  0  0
 10 11  2  0  0  0  0
 10 12  1  0  0  0  0
 12 17  1  0  0  0  0
 12 13  1  0  0  0  0
 12 28  1  0  0  0  0
 13 14  1  0  0  0  0
 13 29  1  0  0  0  0
 13 30  1  0  0  0  0
 14 15  2  0  0  0  0
 14 31  1  0  0  0  0
 15 16  1  0  0  0  0
 15 32  1  0  0  0  0
 16 17  1  0  0  0  0
 16 33  1  0  0  0  0
 16 34  1  0  0  0  0
 17 35  1  0  0  0  0
 17 36  1  0  0  0  0
M  END
> <s_m_source_file>
AV-unprocessed.smi

> <i_m_source_file_index>
814

> <i_lp_mmshare_version>
43012

> <i_f3d_flags>
0

> <s_epik_input>
W0NIM11uMVtjSF1bY0hdbmMxW0NIMl1bQ0gyXVtOSF1DKD1PKVtDQEBIXTJbQ0gyXVtDSF09W0NIXVtDSDJdW0NIMl0y

> <s_epik_cmdline>
J2VwaWtfcHl0aG9uJywgJy1waCcsICc3LjAnLCAnLXRuJywgJzgnLCAnLW1hJywgJzIwMCcsICctbWV0YWxfYmluZGluZycsICctaW1hZScsICc8aW5maWxlLm1hZT4nLCAnLW9tYWUnLCAnPG91dGZpbGUubWFlPic=

> <r_lp_tautomer_probability>
1

> <r_epik_Ionization_Penalty>
1.21249

> <r_epik_Ionization_Penalty_Charging>
1.21249

> <r_epik_Ionization_Penalty_Neutral>
1.60917e-08

> <r_epik_State_Penalty>
1.27906

> <r_epik_Charging_Adjusted_Penalty>
2.49154

> <i_epik_Tot_Q>
0

> <i_epik_Tot_abs_Q>
0

> <r_epik_Metal_State_Penalty>
0.409603

> <b_epik_Metal_Only>
0

> <s_lp_Force_Field>
OPLS_2005

> <r_lp_Energy>
6.01065

> <b_lp_Chiralities_Consistent>
1

> <s_lp_Variant>
AV-unprocessed.smi:814-4

> <Gold.Version>
5.8.1

> <Gold.Id.Protein>
6NUR|6NUR_protein|mol2

> <Gold.PLP.Fitness>
44.5426

> <Gold.PLP.PLP>
-37.4707

> <Gold.PLP.part.hbond>
-1.7994

> <Gold.PLP.part.metal>
0.0000

> <Gold.PLP.part.buried>
-3.2874

> <Gold.PLP.part.nonpolar>
-33.0002

> <Gold.PLP.part.repulsive>
0.1046

> <Gold.PLP.ligand.clash>
0.0000

> <Gold.PLP.ligand.torsion>
0.5720

> <Gold.PLP.Chemscore.Hbond>
1.9413

> <Gold.PLP.Chemscore.CHOScore>
0.7881

> <Gold.PLP.Chemscore.Metal>
0.0000

> <Gold.Chemscore.Hbonds>
donor molecule, donor type, donor heavy atom, donor atom, acceptor molecule, acceptor atom, score
      L1  H     9    27       P1  8028  1.00
      P1  H  7989  7998       L1     5  0.90
      L1  C     3    21       P1  7948  0.79

> <Gold.PLP.Chemscore.Internal.Correction>
0.0279

> <Gold.Rescore>
     Score         DG    S(hbond)    S(metal)    S(lipo)     H(rot)  DE(clash)    DE(int)     intcor
     16.68     -17.79       1.64        0.00      92.89       1.58       0.38       0.73       ----

> <Gold.Chemscore.Fitness>
16.6764

> <Gold.Chemscore.DG>
-17.7865

> <Gold.Chemscore.ZeroCoef>
-5.4800

> <Gold.Chemscore.Hbond>
1.6425

> <Gold.Chemscore.Metal>
0.0000

> <Gold.Chemscore.Lipo>
92.8858

> <Gold.Chemscore.Internal_Hbond>
0.0000

> <Gold.Chemscore.DEClash>
0.3811

> <Gold.Chemscore.DEInternal>
0.7291

> <Gold.Chemscore.Rot>
1.5809

> <Gold.Chemscore.Internal.Correction>
   9.000000E+99

> <Gold.Chemscore.Hbonds>
donor molecule, donor type, donor heavy atom, donor atom, acceptor molecule, acceptor atom, score
      L1  H     9    27       P1  8028  0.91
      P1  H  7989  7998       L1     5  0.12

> <Gold.Chemscore.Hbond.Weighted>
-5.4861

> <Gold.Chemscore.Metal.Weighted>
-0.0000

> <Gold.Chemscore.Lipo.Weighted>
-10.8676

> <Gold.Chemscore.Internal_Hbond.Weighted>
0.0000

> <Gold.Chemscore.DEClash.Weighted>
0.3811

> <Gold.Chemscore.DEInternal.Weighted>
0.7291

> <Gold.Chemscore.Rot.Weighted>
4.0472

> <Gold.Chemscore.Internal.Correction.Weighted>
   9.000000E+99

> <Gold.Protein.RotatedTorsions>
[ 6907 6896 6895 6894 ] final -166.12 input  -60.11 | X-H torsion
[ 7974 7965 7964 7962 ] final  -60.42 input  175.53 | X-H torsion
[ 8008 7997 7996 7995 ] final  170.97 input   59.86 | X-H torsion
[ 10167 10162 10161 10158 ] final  -33.10 input  -65.29 | X-H torsion
[ 10718 10713 10712 10709 ] final   71.99 input   66.30 | X-H torsion
[ 10763 10752 10751 10750 ] final  146.65 input  -60.55 | X-H torsion
[ 11005 11000 10999 10996 ] final   71.40 input  -57.11 | X-H torsion

> <Gold.Protein.ActiveResidues>
 VAL166  LYS551  ARG553  GLY616  TRP617  ASP618  TYR619  PRO620  LYS621  CYS622 
 ASP623  PHE694  ASN695  SER759  ASP760  ASP761  ALA762  ILE779  LEU786  VAL792 
 PHE793  MET794  SER795  GLU796  ALA797  LYS798  CYS799  TRP800  GLU811  SER814 

> <Gold.Protein.RotatedAtoms>
  151.4385  133.3650  159.2778 H   0  0  0  0  0  0  0  0  0  0  0  0  # atno 6907 bound_to 6896
  150.9174  134.8593  159.7477 H   0  0  0  0  0  0  0  0  0  0  0  0  # atno 6908 bound_to 6896
  152.4964  134.4320  159.9567 H   0  0  0  0  0  0  0  0  0  0  0  0  # atno 6909 bound_to 6896
  145.8157  140.8571  143.0159 H   0  0  0  0  0  0  0  0  0  0  0  0  # atno 7974 bound_to 7965
  156.1316  140.1524  156.9057 H   0  0  0  0  0  0  0  0  0  0  0  0  # atno 8008 bound_to 7997
  154.4913  140.0850  156.7641 H   0  0  0  0  0  0  0  0  0  0  0  0  # atno 8009 bound_to 7997
  155.4246  140.3424  155.4276 H   0  0  0  0  0  0  0  0  0  0  0  0  # atno 8010 bound_to 7997
  140.7210  143.3645  151.1897 H   0  0  0  0  0  0  0  0  0  0  0  0  # atno 10167 bound_to 10162
  157.6479  130.9556  150.0866 H   0  0  0  0  0  0  0  0  0  0  0  0  # atno 10718 bound_to 10713
  154.0253  135.2902  155.3375 H   0  0  0  0  0  0  0  0  0  0  0  0  # atno 10763 bound_to 10752
  154.7021  135.5184  153.8545 H   0  0  0  0  0  0  0  0  0  0  0  0  # atno 10764 bound_to 10752
  153.0663  135.6632  154.0471 H   0  0  0  0  0  0  0  0  0  0  0  0  # atno 10765 bound_to 10752
  139.9546  134.7167  156.0784 H   0  0  0  0  0  0  0  0  0  0  0  0  # atno 11005 bound_to 11000
  144.6753  140.0460  143.7480 LP  0  0  0  0  0  0  0  0  0  0  0  0  # atno 17320 bound_to 7965
  145.9730  139.2883  143.1087 LP  0  0  0  0  0  0  0  0  0  0  0  0  # atno 17321 bound_to 7965
  139.7204  143.9233  152.2983 LP  0  0  0  0  0  0  0  0  0  0  0  0  # atno 17342 bound_to 10162
  139.8988  144.6924  150.8689 LP  0  0  0  0  0  0  0  0  0  0  0  0  # atno 17343 bound_to 10162
  156.1827  130.3651  149.9014 LP  0  0  0  0  0  0  0  0  0  0  0  0  # atno 17370 bound_to 10713
  156.6962  130.8915  151.3594 LP  0  0  0  0  0  0  0  0  0  0  0  0  # atno 17371 bound_to 10713
  141.1215  133.6611  156.3226 LP  0  0  0  0  0  0  0  0  0  0  0  0  # atno 17394 bound_to 11000
  140.5640  134.5906  157.5441 LP  0  0  0  0  0  0  0  0  0  0  0  0  # atno 17395 bound_to 11000

$$$$
