AV-unprocessed.smi:1978|AV-procd|sdf|8003|dock5
  -GOLD-   2272010193D 1   1.00000     0.00000
 Structure written by MMmdl.
 44 45  0  0  0  0  0  0  0  0  3 V2000
  145.0569  133.5942  162.0582 C   0  0  0  0  0  0  0  0  0  0  0  0
  145.7016  134.8194  161.5058 C   0  0  0  0  0  0  0  0  0  0  0  0
  146.9390  135.0588  160.9789 C   0  0  0  0  0  0  0  0  0  0  0  0
  146.8912  136.4419  160.6528 C   0  0  0  0  0  0  0  0  0  0  0  0
  147.8765  137.1565  160.0872 N   0  5  0  0  0  0  0  0  0  0  0  0
  148.7503  136.5632  159.2424 C   0  0  0  0  0  0  0  0  0  0  0  0
  148.8529  135.3537  159.0256 O   0  0  0  0  0  0  0  0  0  0  0  0
  149.5565  137.4289  158.6127 N   0  0  0  0  0  0  0  0  0  0  0  0
  150.6212  137.0872  157.6744 C   0  0  0  0  0  0  0  0  0  0  0  0
  151.3117  138.3577  157.1288 C   0  0  1  0  0  0  0  0  0  0  0  0
  152.7384  138.0779  156.6068 C   0  0  0  0  0  0  0  0  0  0  0  0
  150.4542  139.0646  156.1215 N   0  3  2  0  0  0  0  0  0  0  0  0
  150.1103  138.2323  154.9299 C   0  0  0  0  0  0  0  0  0  0  0  0
  149.0226  138.8959  154.0733 C   0  0  0  0  0  0  0  0  0  0  0  0
  149.4687  140.2875  153.6212 C   0  0  0  0  0  0  0  0  0  0  0  0
  149.8492  141.1274  154.8444 C   0  0  0  0  0  0  0  0  0  0  0  0
  150.9221  140.4321  155.7115 C   0  0  1  0  0  0  0  0  0  0  0  0
  151.2762  141.3521  156.8979 C   0  0  0  0  0  0  0  0  0  0  0  0
  145.7229  136.9895  160.9423 N   0  0  0  0  0  0  0  0  0  0  0  0
  144.9558  135.9568  161.4949 O   0  0  0  0  0  0  0  0  0  0  0  0
  144.8996  132.8550  161.2726 H   0  0  0  0  0  0  0  0  0  0  0  0
  144.0890  133.8249  162.5039 H   0  0  0  0  0  0  0  0  0  0  0  0
  145.6832  133.1429  162.8277 H   0  0  0  0  0  0  0  0  0  0  0  0
  147.7506  134.3587  160.8506 H   0  0  0  0  0  0  0  0  0  0  0  0
  149.4274  138.4085  158.8206 H   0  0  0  0  0  0  0  0  0  0  0  0
  151.3435  136.4394  158.1693 H   0  0  0  0  0  0  0  0  0  0  0  0
  150.1851  136.5121  156.8567 H   0  0  0  0  0  0  0  0  0  0  0  0
  151.4085  138.9975  158.0028 H   0  0  0  0  0  0  0  0  0  0  0  0
  153.3786  137.6898  157.3993 H   0  0  0  0  0  0  0  0  0  0  0  0
  153.2180  138.9818  156.2324 H   0  0  0  0  0  0  0  0  0  0  0  0
  152.7390  137.3390  155.8054 H   0  0  0  0  0  0  0  0  0  0  0  0
  151.0008  138.0678  154.3220 H   0  0  0  0  0  0  0  0  0  0  0  0
  149.7477  137.2496  155.2231 H   0  0  0  0  0  0  0  0  0  0  0  0
  148.8027  138.2758  153.2036 H   0  0  0  0  0  0  0  0  0  0  0  0
  148.0961  138.9697  154.6445 H   0  0  0  0  0  0  0  0  0  0  0  0
  150.3226  140.2041  152.9474 H   0  0  0  0  0  0  0  0  0  0  0  0
  148.6721  140.7765  153.0597 H   0  0  0  0  0  0  0  0  0  0  0  0
  150.2088  142.1017  154.5106 H   0  0  0  0  0  0  0  0  0  0  0  0
  148.9580  141.3187  155.4441 H   0  0  0  0  0  0  0  0  0  0  0  0
  151.8191  140.3170  155.1016 H   0  0  0  0  0  0  0  0  0  0  0  0
  151.4528  142.3733  156.5591 H   0  0  0  0  0  0  0  0  0  0  0  0
  152.1912  141.0400  157.4009 H   0  0  0  0  0  0  0  0  0  0  0  0
  150.4709  141.3852  157.6325 H   0  0  0  0  0  0  0  0  0  0  0  0
  149.5800  139.2227  156.6022 H   0  0  0  0  0  0  0  0  0  0  0  0
  1  2  1  0  0  0  0
  1 21  1  0  0  0  0
  1 22  1  0  0  0  0
  1 23  1  0  0  0  0
  2 20  1  0  0  0  0
  2  3  2  0  0  0  0
  3  4  1  0  0  0  0
  3 24  1  0  0  0  0
  4  5  1  0  0  0  0
  4 19  2  0  0  0  0
  5  6  1  0  0  0  0
  6  7  2  0  0  0  0
  6  8  1  0  0  0  0
  8  9  1  0  0  0  0
  8 25  1  0  0  0  0
  9 10  1  0  0  0  0
  9 26  1  0  0  0  0
  9 27  1  0  0  0  0
 10 11  1  0  0  0  0
 10 12  1  0  0  0  0
 10 28  1  0  0  0  0
 11 29  1  0  0  0  0
 11 30  1  0  0  0  0
 11 31  1  0  0  0  0
 12 17  1  0  0  0  0
 12 13  1  0  0  0  0
 12 44  1  0  0  0  0
 13 14  1  0  0  0  0
 13 32  1  0  0  0  0
 13 33  1  0  0  0  0
 14 15  1  0  0  0  0
 14 34  1  0  0  0  0
 14 35  1  0  0  0  0
 15 16  1  0  0  0  0
 15 36  1  0  0  0  0
 15 37  1  0  0  0  0
 16 17  1  0  0  0  0
 16 38  1  0  0  0  0
 16 39  1  0  0  0  0
 17 18  1  0  0  0  0
 17 40  1  0  0  0  0
 18 41  1  0  0  0  0
 18 42  1  0  0  0  0
 18 43  1  0  0  0  0
 19 20  1  0  0  0  0
M  CHG  1   5  -1
M  CHG  1  12   1
M  END
> <s_m_source_file>
AV-unprocessed.smi

> <i_m_source_file_index>
1978

> <i_lp_mmshare_version>
43012

> <i_f3d_flags>
0

> <s_epik_input>
W0NIM11jMVtjSF1jKG5vMSlbTkhdQyg9TylbTkhdW0NIMl1bQ0BIXShbQ0gzXSlOMltDSDJdW0NIMl1bQ0gyXVtDSDJdW0NASF0yW0NIM10=

> <s_epik_cmdline>
J2VwaWtfcHl0aG9uJywgJy1waCcsICc3LjAnLCAnLXRuJywgJzgnLCAnLW1hJywgJzIwMCcsICctbWV0YWxfYmluZGluZycsICctaW1hZScsICc8aW5maWxlLm1hZT4nLCAnLW9tYWUnLCAnPG91dGZpbGUubWFlPic=

> <r_epik_Ionization_Penalty>
6.22372

> <r_epik_Ionization_Penalty_Charging>
6.22362

> <r_epik_Ionization_Penalty_Neutral>
9.65074e-05

> <r_epik_State_Penalty>
6.22363

> <r_epik_Charging_Adjusted_Penalty>
12.4472

> <i_epik_Tot_Q>
0

> <i_epik_Tot_abs_Q>
2

> <r_epik_Metal_State_Penalty>
2.16675

> <b_epik_Metal_Only>
1

> <s_lp_Force_Field>
OPLS_2005

> <r_lp_Energy>
13.2836

> <b_lp_Chiralities_Consistent>
1

> <s_lp_Variant>
AV-unprocessed.smi:1978-12

> <Gold.Version>
5.8.1

> <Gold.Id.Protein>
6NUR|6NUR_protein|mol2

> <Gold.PLP.Fitness>
40.8772

> <Gold.PLP.PLP>
-29.4784

> <Gold.PLP.part.hbond>
-3.0000

> <Gold.PLP.part.metal>
0.0000

> <Gold.PLP.part.buried>
-2.6401

> <Gold.PLP.part.nonpolar>
-24.8244

> <Gold.PLP.part.repulsive>
0.2287

> <Gold.PLP.ligand.clash>
0.0000

> <Gold.PLP.ligand.torsion>
0.4329

> <Gold.PLP.Chemscore.Hbond>
4.0400

> <Gold.PLP.Chemscore.CHOScore>
0.0000

> <Gold.PLP.Chemscore.Metal>
0.0000

> <Gold.Chemscore.Hbonds>
donor molecule, donor type, donor heavy atom, donor atom, acceptor molecule, acceptor atom, score
      P1  H  6896  6908       L1     7  0.93
      P1  H  6931  6943       L1     5  0.09
      P1  H  6934  6947       L1     5  0.78

> <Gold.PLP.Chemscore.Internal.Correction>
0.1446

> <Gold.Rescore>
     Score         DG    S(hbond)    S(metal)    S(lipo)     H(rot)  DE(clash)    DE(int)     intcor
     13.23     -15.42       1.75        0.00      68.18       1.52       0.02       2.17       ----

> <Gold.Chemscore.Fitness>
13.2322

> <Gold.Chemscore.DG>
-15.4224

> <Gold.Chemscore.ZeroCoef>
-5.4800

> <Gold.Chemscore.Hbond>
1.7528

> <Gold.Chemscore.Metal>
0.0000

> <Gold.Chemscore.Lipo>
68.1775

> <Gold.Chemscore.Internal_Hbond>
0.0000

> <Gold.Chemscore.DEClash>
0.0231

> <Gold.Chemscore.DEInternal>
2.1671

> <Gold.Chemscore.Rot>
1.5190

> <Gold.Chemscore.Internal.Correction>
   9.000000E+99

> <Gold.Chemscore.Hbonds>
donor molecule, donor type, donor heavy atom, donor atom, acceptor molecule, acceptor atom, score
      P1  H  6896  6908       L1     7  0.66
      P1  H  6931  6943       L1     5  0.03
      P1  H  6934  6947       L1     5  0.04

> <Gold.Chemscore.Hbond.Weighted>
-5.8543

> <Gold.Chemscore.Metal.Weighted>
-0.0000

> <Gold.Chemscore.Lipo.Weighted>
-7.9768

> <Gold.Chemscore.Internal_Hbond.Weighted>
0.0000

> <Gold.Chemscore.DEClash.Weighted>
0.0231

> <Gold.Chemscore.DEInternal.Weighted>
2.1671

> <Gold.Chemscore.Rot.Weighted>
3.8886

> <Gold.Chemscore.Internal.Correction.Weighted>
   9.000000E+99

> <Gold.Protein.RotatedTorsions>
[ 6907 6896 6895 6894 ] final  176.84 input  -60.11 | X-H torsion
[ 7974 7965 7964 7962 ] final  -99.06 input  175.53 | X-H torsion
[ 8008 7997 7996 7995 ] final  -50.23 input   59.86 | X-H torsion
[ 10167 10162 10161 10158 ] final  -52.15 input  -65.29 | X-H torsion
[ 10718 10713 10712 10709 ] final -168.21 input   66.30 | X-H torsion
[ 10763 10752 10751 10750 ] final  -77.73 input  -60.55 | X-H torsion
[ 11005 11000 10999 10996 ] final -133.08 input  -57.11 | X-H torsion

> <Gold.Protein.ActiveResidues>
 VAL166  LYS551  ARG553  GLY616  TRP617  ASP618  TYR619  PRO620  LYS621  CYS622 
 ASP623  PHE694  ASN695  SER759  ASP760  ASP761  ALA762  ILE779  LEU786  VAL792 
 PHE793  MET794  SER795  GLU796  ALA797  LYS798  CYS799  TRP800  GLU811  SER814 

> <Gold.Protein.RotatedAtoms>
  151.7136  133.3313  159.3296 H   0  0  0  0  0  0  0  0  0  0  0  0  # atno 6907 bound_to 6896
  150.7683  134.6510  159.6297 H   0  0  0  0  0  0  0  0  0  0  0  0  # atno 6908 bound_to 6896
  152.3696  134.6757  160.0232 H   0  0  0  0  0  0  0  0  0  0  0  0  # atno 6909 bound_to 6896
  145.3125  140.9403  143.2761 H   0  0  0  0  0  0  0  0  0  0  0  0  # atno 7974 bound_to 7965
  154.4058  140.1277  156.4633 H   0  0  0  0  0  0  0  0  0  0  0  0  # atno 8008 bound_to 7997
  155.7252  140.3492  155.5014 H   0  0  0  0  0  0  0  0  0  0  0  0  # atno 8009 bound_to 7997
  155.9178  140.1047  157.1220 H   0  0  0  0  0  0  0  0  0  0  0  0  # atno 8010 bound_to 7997
  140.6552  143.2594  151.4606 H   0  0  0  0  0  0  0  0  0  0  0  0  # atno 10167 bound_to 10162
  156.6936  130.9169  151.3072 H   0  0  0  0  0  0  0  0  0  0  0  0  # atno 10718 bound_to 10713
  154.5167  135.5754  153.6648 H   0  0  0  0  0  0  0  0  0  0  0  0  # atno 10763 bound_to 10752
  152.9908  135.6172  154.2808 H   0  0  0  0  0  0  0  0  0  0  0  0  # atno 10764 bound_to 10752
  154.2726  135.2853  155.2711 H   0  0  0  0  0  0  0  0  0  0  0  0  # atno 10765 bound_to 10752
  140.9113  134.1564  157.4387 H   0  0  0  0  0  0  0  0  0  0  0  0  # atno 11005 bound_to 11000
  144.9004  139.4657  143.6635 LP  0  0  0  0  0  0  0  0  0  0  0  0  # atno 17320 bound_to 7965
  146.3112  139.7755  142.9018 LP  0  0  0  0  0  0  0  0  0  0  0  0  # atno 17321 bound_to 7965
  139.5773  144.1789  152.1921 LP  0  0  0  0  0  0  0  0  0  0  0  0  # atno 17342 bound_to 10162
  140.1103  144.5463  150.6929 LP  0  0  0  0  0  0  0  0  0  0  0  0  # atno 17343 bound_to 10162
  157.6999  130.9322  150.0756 LP  0  0  0  0  0  0  0  0  0  0  0  0  # atno 17370 bound_to 10713
  156.1779  130.3649  149.9075 LP  0  0  0  0  0  0  0  0  0  0  0  0  # atno 17371 bound_to 10713
  139.8758  134.9937  156.5656 LP  0  0  0  0  0  0  0  0  0  0  0  0  # atno 17394 bound_to 11000
  140.8106  133.8432  155.8807 LP  0  0  0  0  0  0  0  0  0  0  0  0  # atno 17395 bound_to 11000

$$$$
