AV-unprocessed.smi:240|AV-procd|sdf|1828|dock2
  -GOLD-   2262020433D 1   1.00000     0.00000
 Structure written by MMmdl.
 55 59  0  0  0  0  0  0  0  0  1 V2000
  145.8366  137.7324  160.8904 O   0  0  0  0  0  0  0  0  0  0  0  0
  145.9238  136.7339  161.8856 C   0  0  2  0  0  0  0  0  0  0  0  0
  147.3789  136.4862  162.2790 C   0  0  0  0  0  0  0  0  0  0  0  0
  147.3450  135.1067  162.9324 C   0  0  0  0  0  0  0  0  0  0  0  0
  146.2632  134.3225  162.1771 C   0  0  0  0  0  0  0  0  0  0  0  0
  145.4253  135.3581  161.3957 C   0  0  1  0  0  0  0  0  0  0  0  0
  143.8834  135.1075  161.4422 C   0  0  1  0  0  0  0  0  0  0  0  0
  143.3050  135.1292  162.8820 C   0  0  0  0  0  0  0  0  0  0  0  0
  141.9088  134.8632  162.8561 O   0  0  0  0  0  0  0  0  0  0  0  0
  141.2017  135.8673  162.1419 C   0  0  0  0  0  0  0  0  0  0  0  0
  141.6703  135.8600  160.6814 C   0  0  0  0  0  0  0  0  0  0  0  0
  143.1171  136.0390  160.5984 N   0  0  0  0  0  0  0  0  0  0  0  0
  143.4822  136.1538  159.2992 C   0  0  0  0  0  0  0  0  0  0  0  0
  144.5047  135.4068  158.8032 N   0  0  0  0  0  0  0  0  0  0  0  0
  144.8572  135.5253  157.5197 C   0  0  0  0  0  0  0  0  0  0  0  0
  144.3274  136.3087  156.5773 N   0  0  0  0  0  0  0  0  0  0  0  0
  143.2894  137.0448  157.0691 C   0  0  0  0  0  0  0  0  0  0  0  0
  142.8031  137.0233  158.4056 C   0  0  0  0  0  0  0  0  0  0  0  0
  141.7365  137.9020  158.5404 N   0  0  0  0  0  0  0  0  0  0  0  0
  141.6052  138.4230  157.3510 C   0  0  0  0  0  0  0  0  0  0  0  0
  142.4922  137.9604  156.4039 N   0  0  0  0  0  0  0  0  0  0  0  0
  142.5742  138.3714  155.0104 C   0  0  0  0  0  0  0  0  0  0  0  0
  141.8724  137.3985  154.0343 C   0  0  1  0  0  0  0  0  0  0  0  0
  141.6954  138.0492  152.7876 O   0  0  0  0  0  0  0  0  0  0  0  0
  142.6654  136.1196  153.7980 C   0  0  0  0  0  0  0  0  0  0  0  0
  141.5771  135.1067  153.4697 C   0  0  0  0  0  0  0  0  0  0  0  0
  140.5366  135.4554  154.3670 O   0  0  0  0  0  0  0  0  0  0  0  0
  140.5023  136.8727  154.5109 C   0  0  0  0  0  0  0  0  0  0  0  0
  144.9609  138.0873  160.8960 H   0  0  0  0  0  0  0  0  0  0  0  0
  145.3805  137.0671  162.7680 H   0  0  0  0  0  0  0  0  0  0  0  0
  148.0123  136.4517  161.3911 H   0  0  0  0  0  0  0  0  0  0  0  0
  147.7740  137.2563  162.9421 H   0  0  0  0  0  0  0  0  0  0  0  0
  148.3156  134.6104  162.9078 H   0  0  0  0  0  0  0  0  0  0  0  0
  147.0542  135.2094  163.9788 H   0  0  0  0  0  0  0  0  0  0  0  0
  146.7219  133.6202  161.4800 H   0  0  0  0  0  0  0  0  0  0  0  0
  145.6740  133.7245  162.8706 H   0  0  0  0  0  0  0  0  0  0  0  0
  145.7667  135.2543  160.3655 H   0  0  0  0  0  0  0  0  0  0  0  0
  143.7066  134.1060  161.0472 H   0  0  0  0  0  0  0  0  0  0  0  0
  143.7744  134.3728  163.5085 H   0  0  0  0  0  0  0  0  0  0  0  0
  143.4668  136.0876  163.3745 H   0  0  0  0  0  0  0  0  0  0  0  0
  140.1336  135.6569  162.1945 H   0  0  0  0  0  0  0  0  0  0  0  0
  141.3585  136.8453  162.6005 H   0  0  0  0  0  0  0  0  0  0  0  0
  141.3936  134.9152  160.2106 H   0  0  0  0  0  0  0  0  0  0  0  0
  141.1609  136.6537  160.1325 H   0  0  0  0  0  0  0  0  0  0  0  0
  145.6822  134.9045  157.2030 H   0  0  0  0  0  0  0  0  0  0  0  0
  140.8501  139.1634  157.1296 H   0  0  0  0  0  0  0  0  0  0  0  0
  142.1441  139.3701  154.9228 H   0  0  0  0  0  0  0  0  0  0  0  0
  143.6279  138.4702  154.7468 H   0  0  0  0  0  0  0  0  0  0  0  0
  142.3810  138.6916  152.6859 H   0  0  0  0  0  0  0  0  0  0  0  0
  143.4211  136.2076  153.0161 H   0  0  0  0  0  0  0  0  0  0  0  0
  143.1707  135.8122  154.7146 H   0  0  0  0  0  0  0  0  0  0  0  0
  141.2302  135.2228  152.4420 H   0  0  0  0  0  0  0  0  0  0  0  0
  141.9018  134.0757  153.6106 H   0  0  0  0  0  0  0  0  0  0  0  0
  140.3153  137.0965  155.5606 H   0  0  0  0  0  0  0  0  0  0  0  0
  139.6744  137.2907  153.9359 H   0  0  0  0  0  0  0  0  0  0  0  0
  1  2  1  0  0  0  0
  1 29  1  0  0  0  0
  2  6  1  0  0  0  0
  2  3  1  0  0  0  0
  2 30  1  0  0  0  0
  3  4  1  0  0  0  0
  3 31  1  0  0  0  0
  3 32  1  0  0  0  0
  4  5  1  0  0  0  0
  4 33  1  0  0  0  0
  4 34  1  0  0  0  0
  5  6  1  0  0  0  0
  5 35  1  0  0  0  0
  5 36  1  0  0  0  0
  6  7  1  0  0  0  0
  6 37  1  0  0  0  0
  7 12  1  0  0  0  0
  7  8  1  0  0  0  0
  7 38  1  0  0  0  0
  8  9  1  0  0  0  0
  8 39  1  0  0  0  0
  8 40  1  0  0  0  0
  9 10  1  0  0  0  0
 10 11  1  0  0  0  0
 10 41  1  0  0  0  0
 10 42  1  0  0  0  0
 11 12  1  0  0  0  0
 11 43  1  0  0  0  0
 11 44  1  0  0  0  0
 12 13  1  0  0  0  0
 13 18  1  0  0  0  0
 13 14  2  0  0  0  0
 14 15  1  0  0  0  0
 15 16  2  0  0  0  0
 15 45  1  0  0  0  0
 16 17  1  0  0  0  0
 17 21  1  0  0  0  0
 17 18  2  0  0  0  0
 18 19  1  0  0  0  0
 19 20  2  0  0  0  0
 20 21  1  0  0  0  0
 20 46  1  0  0  0  0
 21 22  1  0  0  0  0
 22 23  1  0  0  0  0
 22 47  1  0  0  0  0
 22 48  1  0  0  0  0
 23 28  1  0  0  0  0
 23 24  1  0  0  0  0
 23 25  1  0  0  0  0
 24 49  1  0  0  0  0
 25 26  1  0  0  0  0
 25 50  1  0  0  0  0
 25 51  1  0  0  0  0
 26 27  1  0  0  0  0
 26 52  1  0  0  0  0
 26 53  1  0  0  0  0
 27 28  1  0  0  0  0
 28 54  1  0  0  0  0
 28 55  1  0  0  0  0
M  END
> <s_m_source_file>
AV-unprocessed.smi

> <i_m_source_file_index>
240

> <i_lp_mmshare_version>
43012

> <i_f3d_flags>
0

> <s_epik_input>
W09IXVtDQEBIXTFbQ0gyXVtDSDJdW0NIMl1bQ0BIXTFbQ0BASF0yW0NIMl1PW0NIMl1bQ0gyXU4yYyhuW2NIXW4zKWMoYzM0KW5bY0hdbjRbQ0gyXVtDQEBdNShbT0hdKVtDSDJdW0NIMl1PW0NIMl01

> <s_epik_cmdline>
J2VwaWtfcHl0aG9uJywgJy1waCcsICc3LjAnLCAnLXRuJywgJzgnLCAnLW1hJywgJzIwMCcsICctbWV0YWxfYmluZGluZycsICctaW1hZScsICc8aW5maWxlLm1hZT4nLCAnLW9tYWUnLCAnPG91dGZpbGUubWFlPic=

> <r_lp_tautomer_probability>
1

> <r_epik_Ionization_Penalty>
0.000130618

> <r_epik_Ionization_Penalty_Charging>
0

> <r_epik_Ionization_Penalty_Neutral>
0.000130618

> <r_epik_State_Penalty>
-0

> <r_epik_Charging_Adjusted_Penalty>
0

> <i_epik_Tot_Q>
0

> <i_epik_Tot_abs_Q>
0

> <r_epik_Metal_State_Penalty>
-0

> <b_epik_Metal_Only>
0

> <s_lp_Force_Field>
OPLS_2005

> <r_lp_Energy>
59.9569

> <b_lp_Chiralities_Consistent>
1

> <s_lp_Variant>
AV-unprocessed.smi:240-5

> <Gold.Version>
5.8.1

> <Gold.Id.Protein>
6NUR|6NUR_protein|mol2

> <Gold.PLP.Fitness>
40.5151

> <Gold.PLP.PLP>
-32.8250

> <Gold.PLP.part.hbond>
-3.6519

> <Gold.PLP.part.metal>
0.0000

> <Gold.PLP.part.buried>
-6.8147

> <Gold.PLP.part.nonpolar>
-22.0167

> <Gold.PLP.part.repulsive>
0.1962

> <Gold.PLP.ligand.clash>
0.0000

> <Gold.PLP.ligand.torsion>
0.6248

> <Gold.PLP.Chemscore.Hbond>
2.9040

> <Gold.PLP.Chemscore.CHOScore>
0.0000

> <Gold.PLP.Chemscore.Metal>
0.0000

> <Gold.Chemscore.Hbonds>
donor molecule, donor type, donor heavy atom, donor atom, acceptor molecule, acceptor atom, score
      L1  H    24    49       P1 10175  0.73
      P1  H  6934  6947       L1     1  1.00
      P1  H 11000 11005       L1    27  1.00

> <Gold.PLP.Chemscore.Internal.Correction>
0.2276

> <Gold.Rescore>
     Score         DG    S(hbond)    S(metal)    S(lipo)     H(rot)  DE(clash)    DE(int)     intcor
     12.16     -15.71       2.77        0.00      74.15       3.00       0.00       3.55       ----

> <Gold.Chemscore.Fitness>
12.1586

> <Gold.Chemscore.DG>
-15.7079

> <Gold.Chemscore.ZeroCoef>
-5.4800

> <Gold.Chemscore.Hbond>
2.7671

> <Gold.Chemscore.Metal>
0.0000

> <Gold.Chemscore.Lipo>
74.1520

> <Gold.Chemscore.Internal_Hbond>
0.0000

> <Gold.Chemscore.DEClash>
0.0009

> <Gold.Chemscore.DEInternal>
3.5484

> <Gold.Chemscore.Rot>
3.0039

> <Gold.Chemscore.Internal.Correction>
   9.000000E+99

> <Gold.Chemscore.Hbonds>
donor molecule, donor type, donor heavy atom, donor atom, acceptor molecule, acceptor atom, score
      L1  H    24    49       P1 10175  0.73
      P1  H  6934  6947       L1     1  0.77
      P1  H 11000 11005       L1    27  0.90

> <Gold.Chemscore.Hbond.Weighted>
-9.2420

> <Gold.Chemscore.Metal.Weighted>
-0.0000

> <Gold.Chemscore.Lipo.Weighted>
-8.6758

> <Gold.Chemscore.Internal_Hbond.Weighted>
0.0000

> <Gold.Chemscore.DEClash.Weighted>
0.0009

> <Gold.Chemscore.DEInternal.Weighted>
3.5484

> <Gold.Chemscore.Rot.Weighted>
7.6899

> <Gold.Chemscore.Internal.Correction.Weighted>
   9.000000E+99

> <Gold.Protein.RotatedTorsions>
[ 6907 6896 6895 6894 ] final   48.40 input  -60.11 | X-H torsion
[ 7974 7965 7964 7962 ] final   79.15 input  175.53 | X-H torsion
[ 8008 7997 7996 7995 ] final  -15.26 input   59.86 | X-H torsion
[ 10167 10162 10161 10158 ] final  -79.50 input  -65.29 | X-H torsion
[ 10718 10713 10712 10709 ] final -164.12 input   66.30 | X-H torsion
[ 10763 10752 10751 10750 ] final  138.97 input  -60.55 | X-H torsion
[ 11005 11000 10999 10996 ] final   34.00 input  -57.11 | X-H torsion

> <Gold.Protein.ActiveResidues>
 VAL166  LYS551  ARG553  GLY616  TRP617  ASP618  TYR619  PRO620  LYS621  CYS622 
 ASP623  PHE694  ASN695  SER759  ASP760  ASP761  ALA762  ILE779  LEU786  VAL792 
 PHE793  MET794  SER795  GLU796  ALA797  LYS798  CYS799  TRP800  GLU811  SER814 

> <Gold.Protein.RotatedAtoms>
  152.2791  134.7849  160.0399 H   0  0  0  0  0  0  0  0  0  0  0  0  # atno 6907 bound_to 6896
  151.8435  133.3422  159.3658 H   0  0  0  0  0  0  0  0  0  0  0  0  # atno 6908 bound_to 6896
  150.7182  134.5297  159.5738 H   0  0  0  0  0  0  0  0  0  0  0  0  # atno 6909 bound_to 6896
  145.6679  139.2489  143.1885 H   0  0  0  0  0  0  0  0  0  0  0  0  # atno 7974 bound_to 7965
  154.5144  140.2201  155.9094 H   0  0  0  0  0  0  0  0  0  0  0  0  # atno 8008 bound_to 7997
  156.1590  140.3146  155.8741 H   0  0  0  0  0  0  0  0  0  0  0  0  # atno 8009 bound_to 7997
  155.3789  140.0471  157.3035 H   0  0  0  0  0  0  0  0  0  0  0  0  # atno 8010 bound_to 7997
  140.4588  143.2460  151.8380 H   0  0  0  0  0  0  0  0  0  0  0  0  # atno 10167 bound_to 10162
  156.6345  130.8943  151.2984 H   0  0  0  0  0  0  0  0  0  0  0  0  # atno 10718 bound_to 10713
  153.8984  135.3025  155.3448 H   0  0  0  0  0  0  0  0  0  0  0  0  # atno 10763 bound_to 10752
  154.7682  135.4899  153.9599 H   0  0  0  0  0  0  0  0  0  0  0  0  # atno 10764 bound_to 10752
  153.1258  135.6793  153.9359 H   0  0  0  0  0  0  0  0  0  0  0  0  # atno 10765 bound_to 10752
  140.2573  134.3233  155.7869 H   0  0  0  0  0  0  0  0  0  0  0  0  # atno 11005 bound_to 11000
  146.1070  140.7475  142.9521 LP  0  0  0  0  0  0  0  0  0  0  0  0  # atno 17320 bound_to 7965
  144.7067  140.3878  143.7113 LP  0  0  0  0  0  0  0  0  0  0  0  0  # atno 17321 bound_to 7965
  139.4804  144.5033  151.9032 LP  0  0  0  0  0  0  0  0  0  0  0  0  # atno 17342 bound_to 10162
  140.4119  144.2358  150.5888 LP  0  0  0  0  0  0  0  0  0  0  0  0  # atno 17343 bound_to 10162
  157.7190  130.9534  150.1364 LP  0  0  0  0  0  0  0  0  0  0  0  0  # atno 17370 bound_to 10713
  156.2208  130.3674  149.8558 LP  0  0  0  0  0  0  0  0  0  0  0  0  # atno 17371 bound_to 10713
  141.2194  133.7389  156.9132 LP  0  0  0  0  0  0  0  0  0  0  0  0  # atno 17394 bound_to 11000
  140.1499  134.9237  157.2578 LP  0  0  0  0  0  0  0  0  0  0  0  0  # atno 17395 bound_to 11000

$$$$
