AV-unprocessed.smi:1604|AV-procd|sdf|6448|dock3
  -GOLD-   22720 7103D 1   1.00000     0.00000
 Structure written by MMmdl.
 46 48  0  0  0  0  0  0  0  0  1 V2000
  145.5464  137.7758  153.4855 O   0  0  0  0  0  0  0  0  0  0  0  0
  146.6193  137.3648  153.0436 C   0  0  0  0  0  0  0  0  0  0  0  0
  147.7968  138.0032  153.1438 N   0  0  0  0  0  0  0  0  0  0  0  0
  148.0545  139.2962  153.6815 C   0  0  0  0  0  0  0  0  0  0  0  0
  147.0454  140.2834  153.7931 C   0  0  0  0  0  0  0  0  0  0  0  0
  147.3622  141.5281  154.3653 C   0  0  0  0  0  0  0  0  0  0  0  0
  148.6765  141.7390  154.8166 C   0  0  0  0  0  0  0  0  0  0  0  0
  149.6439  140.8037  154.7325 N   0  0  0  0  0  0  0  0  0  0  0  0
  149.3490  139.5989  154.1855 C   0  0  0  0  0  0  0  0  0  0  0  0
  150.3908  138.6511  154.0897 N   0  0  0  0  0  0  0  0  0  0  0  0
  151.7160  139.1901  154.3817 C   0  0  0  0  0  0  0  0  0  0  0  0
  152.5036  138.0596  155.0450 C   0  0  0  0  0  0  0  0  0  0  0  0
  151.4147  137.2385  155.7238 C   0  0  0  0  0  0  0  0  0  0  0  0
  150.2525  137.3469  154.7375 C   0  0  0  0  0  0  0  0  0  0  0  0
  146.7529  136.2092  152.3761 N   0  0  0  0  0  0  0  0  0  0  0  0
  145.6734  135.2603  152.0947 C   0  0  1  0  0  0  0  0  0  0  0  0
  146.1483  134.3438  150.9439 C   0  0  0  0  0  0  0  0  0  0  0  0
  145.0000  133.6669  150.1753 C   0  0  0  0  0  0  0  0  0  0  0  0
  144.1723  132.6662  150.9955 C   0  0  0  0  0  0  0  0  0  0  0  0
  143.4369  133.3021  152.1874 C   0  0  0  0  0  0  0  0  0  0  0  0
  144.3287  133.5536  153.3117 N   0  0  0  0  0  0  0  0  0  0  0  0
  145.3722  134.3964  153.3414 C   0  0  0  0  0  0  0  0  0  0  0  0
  146.0794  134.4740  154.3460 O   0  0  0  0  0  0  0  0  0  0  0  0
  148.5764  137.5726  152.6687 H   0  0  0  0  0  0  0  0  0  0  0  0
  146.0329  140.1024  153.4662 H   0  0  0  0  0  0  0  0  0  0  0  0
  146.6132  142.2999  154.4617 H   0  0  0  0  0  0  0  0  0  0  0  0
  148.9578  142.6815  155.2621 H   0  0  0  0  0  0  0  0  0  0  0  0
  152.2116  139.5370  153.4750 H   0  0  0  0  0  0  0  0  0  0  0  0
  151.6325  140.0382  155.0633 H   0  0  0  0  0  0  0  0  0  0  0  0
  152.9991  137.4561  154.2834 H   0  0  0  0  0  0  0  0  0  0  0  0
  153.2634  138.4216  155.7381 H   0  0  0  0  0  0  0  0  0  0  0  0
  151.7128  136.2080  155.9183 H   0  0  0  0  0  0  0  0  0  0  0  0
  151.1408  137.6995  156.6736 H   0  0  0  0  0  0  0  0  0  0  0  0
  149.2932  137.1791  155.2266 H   0  0  0  0  0  0  0  0  0  0  0  0
  150.3499  136.5837  153.9650 H   0  0  0  0  0  0  0  0  0  0  0  0
  147.6744  135.9519  152.0550 H   0  0  0  0  0  0  0  0  0  0  0  0
  144.7795  135.8098  151.7938 H   0  0  0  0  0  0  0  0  0  0  0  0
  146.7044  134.9425  150.2204 H   0  0  0  0  0  0  0  0  0  0  0  0
  146.8550  133.5946  151.3052 H   0  0  0  0  0  0  0  0  0  0  0  0
  144.3402  134.4315  149.7634 H   0  0  0  0  0  0  0  0  0  0  0  0
  145.4199  133.1444  149.3154 H   0  0  0  0  0  0  0  0  0  0  0  0
  143.4314  132.2175  150.3329 H   0  0  0  0  0  0  0  0  0  0  0  0
  144.8038  131.8446  151.3367 H   0  0  0  0  0  0  0  0  0  0  0  0
  142.9234  134.2186  151.8930 H   0  0  0  0  0  0  0  0  0  0  0  0
  142.6646  132.6172  152.5381 H   0  0  0  0  0  0  0  0  0  0  0  0
  144.1551  133.0121  154.1462 H   0  0  0  0  0  0  0  0  0  0  0  0
  1  2  2  0  0  0  0
  2  3  1  0  0  0  0
  2 15  1  0  0  0  0
  3  4  1  0  0  0  0
  3 24  1  0  0  0  0
  4  9  1  0  0  0  0
  4  5  2  0  0  0  0
  5  6  1  0  0  0  0
  5 25  1  0  0  0  0
  6  7  2  0  0  0  0
  6 26  1  0  0  0  0
  7  8  1  0  0  0  0
  7 27  1  0  0  0  0
  8  9  2  0  0  0  0
  9 10  1  0  0  0  0
 10 14  1  0  0  0  0
 10 11  1  0  0  0  0
 11 12  1  0  0  0  0
 11 28  1  0  0  0  0
 11 29  1  0  0  0  0
 12 13  1  0  0  0  0
 12 30  1  0  0  0  0
 12 31  1  0  0  0  0
 13 14  1  0  0  0  0
 13 32  1  0  0  0  0
 13 33  1  0  0  0  0
 14 34  1  0  0  0  0
 14 35  1  0  0  0  0
 15 16  1  0  0  0  0
 15 36  1  0  0  0  0
 16 22  1  0  0  0  0
 16 17  1  0  0  0  0
 16 37  1  0  0  0  0
 17 18  1  0  0  0  0
 17 38  1  0  0  0  0
 17 39  1  0  0  0  0
 18 19  1  0  0  0  0
 18 40  1  0  0  0  0
 18 41  1  0  0  0  0
 19 20  1  0  0  0  0
 19 42  1  0  0  0  0
 19 43  1  0  0  0  0
 20 21  1  0  0  0  0
 20 44  1  0  0  0  0
 20 45  1  0  0  0  0
 21 22  1  0  0  0  0
 21 46  1  0  0  0  0
 22 23  2  0  0  0  0
M  END
> <s_m_source_file>
AV-unprocessed.smi

> <i_m_source_file_index>
1604

> <i_lp_mmshare_version>
43012

> <i_f3d_flags>
0

> <s_epik_input>
Tz1DMVtOSF1bQ0gyXVtDSDJdW0NIMl1bQ0gyXVtDQEhdMVtOSF1DKD1PKVtOSF1jMltjSF1bY0hdW2NIXW5jMk4zW0NIMl1bQ0gyXVtDSDJdW0NIMl0z

> <s_epik_cmdline>
J2VwaWtfcHl0aG9uJywgJy1waCcsICc3LjAnLCAnLXRuJywgJzgnLCAnLW1hJywgJzIwMCcsICctbWV0YWxfYmluZGluZycsICctaW1hZScsICc8aW5maWxlLm1hZT4nLCAnLW9tYWUnLCAnPG91dGZpbGUubWFlPic=

> <r_lp_tautomer_probability>
1

> <r_epik_Ionization_Penalty>
0.0837267

> <r_epik_Ionization_Penalty_Charging>
0

> <r_epik_Ionization_Penalty_Neutral>
0.0837267

> <r_epik_State_Penalty>
0.0738331

> <r_epik_Charging_Adjusted_Penalty>
0.0738331

> <i_epik_Tot_Q>
0

> <i_epik_Tot_abs_Q>
0

> <r_epik_Metal_State_Penalty>
0.0646802

> <b_epik_Metal_Only>
0

> <s_lp_Force_Field>
OPLS_2005

> <r_lp_Energy>
39.7297

> <b_lp_Chiralities_Consistent>
1

> <s_lp_Variant>
AV-unprocessed.smi:1604-2

> <Gold.Version>
5.8.1

> <Gold.Id.Protein>
6NUR|6NUR_protein|mol2

> <Gold.PLP.Fitness>
44.1521

> <Gold.PLP.PLP>
-33.1660

> <Gold.PLP.part.hbond>
-3.4958

> <Gold.PLP.part.metal>
0.0000

> <Gold.PLP.part.buried>
0.1499

> <Gold.PLP.part.nonpolar>
-30.4996

> <Gold.PLP.part.repulsive>
1.1784

> <Gold.PLP.ligand.clash>
0.0000

> <Gold.PLP.ligand.torsion>
0.4975

> <Gold.PLP.Chemscore.Hbond>
2.9435

> <Gold.PLP.Chemscore.CHOScore>
1.0000

> <Gold.PLP.Chemscore.Metal>
0.0000

> <Gold.Chemscore.Hbonds>
donor molecule, donor type, donor heavy atom, donor atom, acceptor molecule, acceptor atom, score
      L1  H     3    24       P1  7948  0.83
      L1  H    15    36       P1  7948  0.42
      L1  H    21    46       P1 10957  0.69
      P1  H  7989  7998       L1     8  0.09
      L1  C     7    27       P1  8028  1.00

> <Gold.PLP.Chemscore.Internal.Correction>
0.1505

> <Gold.Rescore>
     Score         DG    S(hbond)    S(metal)    S(lipo)     H(rot)  DE(clash)    DE(int)     intcor
     19.06     -21.10       2.83        0.00      79.92       1.25       0.27       1.77       ----

> <Gold.Chemscore.Fitness>
19.0590

> <Gold.Chemscore.DG>
-21.1041

> <Gold.Chemscore.ZeroCoef>
-5.4800

> <Gold.Chemscore.Hbond>
2.8334

> <Gold.Chemscore.Metal>
0.0000

> <Gold.Chemscore.Lipo>
79.9190

> <Gold.Chemscore.Internal_Hbond>
0.0000

> <Gold.Chemscore.DEClash>
0.2730

> <Gold.Chemscore.DEInternal>
1.7721

> <Gold.Chemscore.Rot>
1.2461

> <Gold.Chemscore.Internal.Correction>
   9.000000E+99

> <Gold.Chemscore.Hbonds>
donor molecule, donor type, donor heavy atom, donor atom, acceptor molecule, acceptor atom, score
      L1  H     3    24       P1  7948  0.82
      L1  H    15    36       P1  7948  0.42
      L1  H    21    46       P1 10957  0.63

> <Gold.Chemscore.Hbond.Weighted>
-9.4634

> <Gold.Chemscore.Metal.Weighted>
-0.0000

> <Gold.Chemscore.Lipo.Weighted>
-9.3505

> <Gold.Chemscore.Internal_Hbond.Weighted>
0.0000

> <Gold.Chemscore.DEClash.Weighted>
0.2730

> <Gold.Chemscore.DEInternal.Weighted>
1.7721

> <Gold.Chemscore.Rot.Weighted>
3.1899

> <Gold.Chemscore.Internal.Correction.Weighted>
   9.000000E+99

> <Gold.Protein.RotatedTorsions>
[ 6907 6896 6895 6894 ] final  -85.08 input  -60.11 | X-H torsion
[ 7974 7965 7964 7962 ] final -173.63 input  175.53 | X-H torsion
[ 8008 7997 7996 7995 ] final -163.62 input   59.86 | X-H torsion
[ 10167 10162 10161 10158 ] final  -91.22 input  -65.29 | X-H torsion
[ 10718 10713 10712 10709 ] final -122.89 input   66.30 | X-H torsion
[ 10763 10752 10751 10750 ] final  -96.25 input  -60.55 | X-H torsion
[ 11005 11000 10999 10996 ] final   91.22 input  -57.11 | X-H torsion

> <Gold.Protein.ActiveResidues>
 VAL166  LYS551  ARG553  GLY616  TRP617  ASP618  TYR619  PRO620  LYS621  CYS622 
 ASP623  PHE694  ASN695  SER759  ASP760  ASP761  ALA762  ILE779  LEU786  VAL792 
 PHE793  MET794  SER795  GLU796  ALA797  LYS798  CYS799  TRP800  GLU811  SER814 

> <Gold.Protein.RotatedAtoms>
  150.6872  134.3260  159.4806 H   0  0  0  0  0  0  0  0  0  0  0  0  # atno 6907 bound_to 6896
  152.1130  134.9258  160.0575 H   0  0  0  0  0  0  0  0  0  0  0  0  # atno 6908 bound_to 6896
  152.0494  133.3977  159.4407 H   0  0  0  0  0  0  0  0  0  0  0  0  # atno 6909 bound_to 6896
  144.7136  140.1593  143.6377 H   0  0  0  0  0  0  0  0  0  0  0  0  # atno 7974 bound_to 7965
  155.8239  140.0923  157.1833 H   0  0  0  0  0  0  0  0  0  0  0  0  # atno 8008 bound_to 7997
  154.3979  140.1431  156.3593 H   0  0  0  0  0  0  0  0  0  0  0  0  # atno 8009 bound_to 7997
  155.8237  140.3445  155.5532 H   0  0  0  0  0  0  0  0  0  0  0  0  # atno 8010 bound_to 7997
  140.3471  143.2911  151.9769 H   0  0  0  0  0  0  0  0  0  0  0  0  # atno 10167 bound_to 10162
  156.1456  130.6497  150.9837 H   0  0  0  0  0  0  0  0  0  0  0  0  # atno 10718 bound_to 10713
  154.7223  135.5090  153.8831 H   0  0  0  0  0  0  0  0  0  0  0  0  # atno 10763 bound_to 10752
  153.0873  135.6649  153.9932 H   0  0  0  0  0  0  0  0  0  0  0  0  # atno 10764 bound_to 10752
  153.9752  135.3034  155.3404 H   0  0  0  0  0  0  0  0  0  0  0  0  # atno 10765 bound_to 10752
  139.8842  134.8661  156.3397 H   0  0  0  0  0  0  0  0  0  0  0  0  # atno 11005 bound_to 11000
  145.9045  139.2450  143.1474 LP  0  0  0  0  0  0  0  0  0  0  0  0  # atno 17320 bound_to 7965
  145.9778  140.8708  143.0130 LP  0  0  0  0  0  0  0  0  0  0  0  0  # atno 17321 bound_to 7965
  139.4832  144.6107  151.7438 LP  0  0  0  0  0  0  0  0  0  0  0  0  # atno 17342 bound_to 10162
  140.5254  144.0814  150.6036 LP  0  0  0  0  0  0  0  0  0  0  0  0  # atno 17343 bound_to 10162
  157.6613  131.0880  150.7831 LP  0  0  0  0  0  0  0  0  0  0  0  0  # atno 17370 bound_to 10713
  156.7903  130.4888  149.5386 LP  0  0  0  0  0  0  0  0  0  0  0  0  # atno 17371 bound_to 10713
  140.9667  133.7353  156.0477 LP  0  0  0  0  0  0  0  0  0  0  0  0  # atno 17394 bound_to 11000
  140.7922  134.3604  157.5461 LP  0  0  0  0  0  0  0  0  0  0  0  0  # atno 17395 bound_to 11000

$$$$
