AV-unprocessed.smi:463|AV-procd|sdf|2634|dock6
  -GOLD-   2262023 43D 1   1.00000     0.00000
 Structure written by MMmdl.
 42 44  0  0  0  0  0  0  0  0  1 V2000
  153.8272  142.0088  163.5896 C   0  0  0  0  0  0  0  0  0  0  0  0
  153.5160  142.5185  162.1976 C   0  0  0  0  0  0  0  0  0  0  0  0
  154.5059  143.1849  161.4487 C   0  0  0  0  0  0  0  0  0  0  0  0
  154.2088  143.6617  160.1585 C   0  0  0  0  0  0  0  0  0  0  0  0
  152.9239  143.4753  159.6126 C   0  0  0  0  0  0  0  0  0  0  0  0
  151.9203  142.8051  160.3564 C   0  0  0  0  0  0  0  0  0  0  0  0
  150.6402  142.5770  159.9016 O   0  0  0  0  0  0  0  0  0  0  0  0
  150.2851  143.0548  158.6110 C   0  0  0  0  0  0  0  0  0  0  0  0
  150.6158  141.9830  157.5636 C   0  0  0  0  0  0  0  0  0  0  0  0
  150.0723  142.3188  156.2551 N   0  0  0  0  0  0  0  0  0  0  0  0
  150.4069  143.3439  155.4290 C   0  0  0  0  0  0  0  0  0  0  0  0
  151.4714  144.3491  155.7631 C   0  0  0  0  0  0  0  0  0  0  0  0
  152.8664  143.7264  155.9320 C   0  0  0  0  0  0  0  0  0  0  0  0
  153.7718  144.6535  156.4932 O   0  0  0  0  0  0  0  0  0  0  0  0
  149.7304  143.4050  154.2807 N   0  0  0  0  0  0  0  0  0  0  0  0
  148.8725  142.3270  154.3730 C   0  0  0  0  0  0  0  0  0  0  0  0
  147.8913  141.8534  153.4724 C   0  0  0  0  0  0  0  0  0  0  0  0
  147.1221  140.7145  153.7892 C   0  0  0  0  0  0  0  0  0  0  0  0
  147.3222  140.0346  155.0081 C   0  0  0  0  0  0  0  0  0  0  0  0
  148.2953  140.4893  155.9186 C   0  0  0  0  0  0  0  0  0  0  0  0
  149.0608  141.6262  155.5973 C   0  0  0  0  0  0  0  0  0  0  0  0
  152.2310  142.3331  161.6482 C   0  0  0  0  0  0  0  0  0  0  0  0
  154.8886  141.7824  163.6947 H   0  0  0  0  0  0  0  0  0  0  0  0
  153.2652  141.0994  163.8038 H   0  0  0  0  0  0  0  0  0  0  0  0
  153.5608  142.7603  164.3329 H   0  0  0  0  0  0  0  0  0  0  0  0
  155.4933  143.3333  161.8603 H   0  0  0  0  0  0  0  0  0  0  0  0
  154.9682  144.1728  159.5854 H   0  0  0  0  0  0  0  0  0  0  0  0
  152.7335  143.8555  158.6207 H   0  0  0  0  0  0  0  0  0  0  0  0
  149.2194  143.2849  158.5753 H   0  0  0  0  0  0  0  0  0  0  0  0
  150.8359  143.9682  158.3804 H   0  0  0  0  0  0  0  0  0  0  0  0
  151.6924  141.8361  157.4927 H   0  0  0  0  0  0  0  0  0  0  0  0
  150.2015  141.0229  157.8723 H   0  0  0  0  0  0  0  0  0  0  0  0
  151.5099  145.0671  154.9432 H   0  0  0  0  0  0  0  0  0  0  0  0
  151.1973  144.9320  156.6416 H   0  0  0  0  0  0  0  0  0  0  0  0
  152.8236  142.8273  156.5476 H   0  0  0  0  0  0  0  0  0  0  0  0
  153.2564  143.4303  154.9580 H   0  0  0  0  0  0  0  0  0  0  0  0
  154.4219  144.1775  156.9872 H   0  0  0  0  0  0  0  0  0  0  0  0
  147.7293  142.3684  152.5371 H   0  0  0  0  0  0  0  0  0  0  0  0
  146.3742  140.3617  153.0941 H   0  0  0  0  0  0  0  0  0  0  0  0
  146.7282  139.1638  155.2439 H   0  0  0  0  0  0  0  0  0  0  0  0
  148.4505  139.9716  156.8535 H   0  0  0  0  0  0  0  0  0  0  0  0
  151.4709  141.8234  162.2222 H   0  0  0  0  0  0  0  0  0  0  0  0
  1  2  1  0  0  0  0
  1 23  1  0  0  0  0
  1 24  1  0  0  0  0
  1 25  1  0  0  0  0
  2 22  1  0  0  0  0
  2  3  2  0  0  0  0
  3  4  1  0  0  0  0
  3 26  1  0  0  0  0
  4  5  2  0  0  0  0
  4 27  1  0  0  0  0
  5  6  1  0  0  0  0
  5 28  1  0  0  0  0
  6  7  1  0  0  0  0
  6 22  2  0  0  0  0
  7  8  1  0  0  0  0
  8  9  1  0  0  0  0
  8 29  1  0  0  0  0
  8 30  1  0  0  0  0
  9 10  1  0  0  0  0
  9 31  1  0  0  0  0
  9 32  1  0  0  0  0
 10 21  1  0  0  0  0
 10 11  1  0  0  0  0
 11 12  1  0  0  0  0
 11 15  2  0  0  0  0
 12 13  1  0  0  0  0
 12 33  1  0  0  0  0
 12 34  1  0  0  0  0
 13 14  1  0  0  0  0
 13 35  1  0  0  0  0
 13 36  1  0  0  0  0
 14 37  1  0  0  0  0
 15 16  1  0  0  0  0
 16 21  2  0  0  0  0
 16 17  1  0  0  0  0
 17 18  2  0  0  0  0
 17 38  1  0  0  0  0
 18 19  1  0  0  0  0
 18 39  1  0  0  0  0
 19 20  2  0  0  0  0
 19 40  1  0  0  0  0
 20 21  1  0  0  0  0
 20 41  1  0  0  0  0
 22 42  1  0  0  0  0
M  END
> <s_m_source_file>
AV-unprocessed.smi

> <i_m_source_file_index>
463

> <i_lp_mmshare_version>
43012

> <i_f3d_flags>
0

> <s_epik_input>
W0NIM11jMVtjSF1bY0hdW2NIXWMoW2NIXTEpT1tDSDJdW0NIMl1uKGMobjIpW0NIMl1bQ0gyXVtPSF0pYyhjMjMpW2NIXVtjSF1bY0hdW2NIXTM=

> <s_epik_cmdline>
J2VwaWtfcHl0aG9uJywgJy1waCcsICc3LjAnLCAnLXRuJywgJzgnLCAnLW1hJywgJzIwMCcsICctbWV0YWxfYmluZGluZycsICctaW1hZScsICc8aW5maWxlLm1hZT4nLCAnLW9tYWUnLCAnPG91dGZpbGUubWFlPic=

> <r_lp_tautomer_probability>
1

> <r_epik_Ionization_Penalty>
0.206757

> <r_epik_Ionization_Penalty_Charging>
0

> <r_epik_Ionization_Penalty_Neutral>
0.206757

> <r_epik_State_Penalty>
0.196743

> <r_epik_Charging_Adjusted_Penalty>
0.196743

> <i_epik_Tot_Q>
0

> <i_epik_Tot_abs_Q>
0

> <r_epik_Metal_State_Penalty>
0.000233299

> <b_epik_Metal_Only>
0

> <s_lp_Force_Field>
OPLS_2005

> <r_lp_Energy>
15.5684

> <b_lp_Chiralities_Consistent>
1

> <s_lp_Variant>
AV-unprocessed.smi:463-1

> <Gold.Version>
5.8.1

> <Gold.Id.Protein>
6NUR|6NUR_protein|mol2

> <Gold.PLP.Fitness>
55.6220

> <Gold.PLP.PLP>
-50.6855

> <Gold.PLP.part.hbond>
-2.0000

> <Gold.PLP.part.metal>
0.0000

> <Gold.PLP.part.buried>
0.4309

> <Gold.PLP.part.nonpolar>
-47.7652

> <Gold.PLP.part.repulsive>
0.1237

> <Gold.PLP.ligand.clash>
0.0000

> <Gold.PLP.ligand.torsion>
0.2769

> <Gold.PLP.Chemscore.Hbond>
1.8000

> <Gold.PLP.Chemscore.CHOScore>
0.0000

> <Gold.PLP.Chemscore.Metal>
0.0000

> <Gold.Chemscore.Hbonds>
donor molecule, donor type, donor heavy atom, donor atom, acceptor molecule, acceptor atom, score
      P1  H  8022  8030       L1    15  1.00

> <Gold.PLP.Chemscore.Internal.Correction>
0.0903

> <Gold.Rescore>
     Score         DG    S(hbond)    S(metal)    S(lipo)     H(rot)  DE(clash)    DE(int)     intcor
     17.52     -18.28       0.83        0.00     135.69       2.28       0.31       0.44       ----

> <Gold.Chemscore.Fitness>
17.5192

> <Gold.Chemscore.DG>
-18.2757

> <Gold.Chemscore.ZeroCoef>
-5.4800

> <Gold.Chemscore.Hbond>
0.8268

> <Gold.Chemscore.Metal>
0.0000

> <Gold.Chemscore.Lipo>
135.6944

> <Gold.Chemscore.Internal_Hbond>
0.0000

> <Gold.Chemscore.DEClash>
0.3136

> <Gold.Chemscore.DEInternal>
0.4429

> <Gold.Chemscore.Rot>
2.2821

> <Gold.Chemscore.Internal.Correction>
   9.000000E+99

> <Gold.Chemscore.Hbonds>
donor molecule, donor type, donor heavy atom, donor atom, acceptor molecule, acceptor atom, score
      P1  H  8022  8030       L1    15  0.38

> <Gold.Chemscore.Hbond.Weighted>
-2.7615

> <Gold.Chemscore.Metal.Weighted>
-0.0000

> <Gold.Chemscore.Lipo.Weighted>
-15.8762

> <Gold.Chemscore.Internal_Hbond.Weighted>
0.0000

> <Gold.Chemscore.DEClash.Weighted>
0.3136

> <Gold.Chemscore.DEInternal.Weighted>
0.4429

> <Gold.Chemscore.Rot.Weighted>
5.8421

> <Gold.Chemscore.Internal.Correction.Weighted>
   9.000000E+99

> <Gold.Protein.RotatedTorsions>
[ 6907 6896 6895 6894 ] final   39.61 input  -60.11 | X-H torsion
[ 7974 7965 7964 7962 ] final  -13.44 input  175.53 | X-H torsion
[ 8008 7997 7996 7995 ] final  153.34 input   59.86 | X-H torsion
[ 10167 10162 10161 10158 ] final  125.33 input  -65.29 | X-H torsion
[ 10718 10713 10712 10709 ] final   28.69 input   66.30 | X-H torsion
[ 10763 10752 10751 10750 ] final   58.80 input  -60.55 | X-H torsion
[ 11005 11000 10999 10996 ] final   57.19 input  -57.11 | X-H torsion

> <Gold.Protein.ActiveResidues>
 VAL166  LYS551  ARG553  GLY616  TRP617  ASP618  TYR619  PRO620  LYS621  CYS622 
 ASP623  PHE694  ASN695  SER759  ASP760  ASP761  ALA762  ILE779  LEU786  VAL792 
 PHE793  MET794  SER795  GLU796  ALA797  LYS798  CYS799  TRP800  GLU811  SER814 

> <Gold.Protein.RotatedAtoms>
  152.1719  134.8827  160.0533 H   0  0  0  0  0  0  0  0  0  0  0  0  # atno 6907 bound_to 6896
  151.9784  133.3744  159.4106 H   0  0  0  0  0  0  0  0  0  0  0  0  # atno 6908 bound_to 6896
  150.6903  134.3988  159.5153 H   0  0  0  0  0  0  0  0  0  0  0  0  # atno 6909 bound_to 6896
  146.2114  140.3204  142.8390 H   0  0  0  0  0  0  0  0  0  0  0  0  # atno 7974 bound_to 7965
  156.2586  140.1996  156.6475 H   0  0  0  0  0  0  0  0  0  0  0  0  # atno 8008 bound_to 7997
  154.6562  140.0566  157.0036 H   0  0  0  0  0  0  0  0  0  0  0  0  # atno 8009 bound_to 7997
  155.1344  140.3236  155.4469 H   0  0  0  0  0  0  0  0  0  0  0  0  # atno 8010 bound_to 7997
  139.5691  144.6929  151.3827 H   0  0  0  0  0  0  0  0  0  0  0  0  # atno 10167 bound_to 10162
  157.2367  130.7049  149.6339 H   0  0  0  0  0  0  0  0  0  0  0  0  # atno 10718 bound_to 10713
  152.9879  135.5594  154.5610 H   0  0  0  0  0  0  0  0  0  0  0  0  # atno 10763 bound_to 10752
  154.5029  135.2798  155.1408 H   0  0  0  0  0  0  0  0  0  0  0  0  # atno 10764 bound_to 10752
  154.2831  135.6341  153.5408 H   0  0  0  0  0  0  0  0  0  0  0  0  # atno 10765 bound_to 10752
  140.0471  134.5789  155.9309 H   0  0  0  0  0  0  0  0  0  0  0  0  # atno 11005 bound_to 11000
  144.8924  140.7540  143.5918 LP  0  0  0  0  0  0  0  0  0  0  0  0  # atno 17320 bound_to 7965
  145.3127  139.1813  143.4630 LP  0  0  0  0  0  0  0  0  0  0  0  0  # atno 17321 bound_to 7965
  140.6976  143.7712  150.7351 LP  0  0  0  0  0  0  0  0  0  0  0  0  # atno 17342 bound_to 10162
  140.1212  143.4610  152.2311 LP  0  0  0  0  0  0  0  0  0  0  0  0  # atno 17343 bound_to 10162
  155.9672  130.4471  150.5568 LP  0  0  0  0  0  0  0  0  0  0  0  0  # atno 17370 bound_to 10713
  157.3421  131.0718  151.1779 LP  0  0  0  0  0  0  0  0  0  0  0  0  # atno 17371 bound_to 10713
  141.1912  133.6571  156.5447 LP  0  0  0  0  0  0  0  0  0  0  0  0  # atno 17394 bound_to 11000
  140.3976  134.7385  157.4760 LP  0  0  0  0  0  0  0  0  0  0  0  0  # atno 17395 bound_to 11000

$$$$
