AV-unprocessed.smi:1554|AV-procd|sdf|6255|dock5
  -GOLD-   22720 6443D 1   1.00000     0.00000
 Structure written by MMmdl.
 48 50  0  0  0  0  0  0  0  0  2 V2000
  152.0938  144.5221  160.9605 C   0  0  0  0  0  0  0  0  0  0  0  0
  151.8903  143.4483  159.9050 C   0  0  0  0  0  0  0  0  0  0  0  0
  151.0052  143.7130  158.8356 C   0  0  0  0  0  0  0  0  0  0  0  0
  150.8412  142.7119  157.8855 C   0  0  0  0  0  0  0  0  0  0  0  0
  150.0570  142.6676  156.7310 N   0  3  0  0  0  0  0  0  0  0  0  0
  150.2257  141.4661  156.1129 C   0  0  0  0  0  0  0  0  0  0  0  0
  151.1054  140.7416  156.8560 N   0  0  0  0  0  0  0  0  0  0  0  0
  151.6252  139.3842  156.6332 C   0  0  0  0  0  0  0  0  0  0  0  0
  150.9615  138.6756  155.4359 C   0  0  1  0  0  0  0  0  0  0  0  0
  151.2764  139.3671  154.2436 O   0  0  0  0  0  0  0  0  0  0  0  0
  151.4525  137.2208  155.2986 C   0  0  0  0  0  0  0  0  0  0  0  0
  150.5780  136.2009  155.8809 N   0  0  0  0  0  0  0  0  0  0  0  0
  150.3311  136.4100  157.3064 C   0  0  0  0  0  0  0  0  0  0  0  0
  149.4355  135.3093  157.9006 C   0  0  0  0  0  0  0  0  0  0  0  0
  150.0223  134.0338  157.6644 O   0  0  0  0  0  0  0  0  0  0  0  0
  150.2352  133.7672  156.2810 C   0  0  2  0  0  0  0  0  0  0  0  0
  150.8573  132.3730  156.1485 C   0  0  0  0  0  0  0  0  0  0  0  0
  151.1392  134.8672  155.6915 C   0  0  0  0  0  0  0  0  0  0  0  0
  151.5181  141.4798  157.9720 C   0  0  0  0  0  0  0  0  0  0  0  0
  152.3944  141.2038  159.0190 C   0  0  0  0  0  0  0  0  0  0  0  0
  152.5776  142.2101  159.9943 C   0  0  0  0  0  0  0  0  0  0  0  0
  153.5294  141.9369  161.1464 C   0  0  0  0  0  0  0  0  0  0  0  0
  151.4700  145.3952  160.7668 H   0  0  0  0  0  0  0  0  0  0  0  0
  153.1328  144.8517  160.9757 H   0  0  0  0  0  0  0  0  0  0  0  0
  151.8358  144.1423  161.9491 H   0  0  0  0  0  0  0  0  0  0  0  0
  150.4800  144.6540  158.7597 H   0  0  0  0  0  0  0  0  0  0  0  0
  149.7473  141.1456  155.1987 H   0  0  0  0  0  0  0  0  0  0  0  0
  152.7090  139.4267  156.5210 H   0  0  0  0  0  0  0  0  0  0  0  0
  151.4366  138.8183  157.5464 H   0  0  0  0  0  0  0  0  0  0  0  0
  149.8819  138.7074  155.5776 H   0  0  0  0  0  0  0  0  0  0  0  0
  151.1605  138.7725  153.5175 H   0  0  0  0  0  0  0  0  0  0  0  0
  151.5888  137.0121  154.2362 H   0  0  0  0  0  0  0  0  0  0  0  0
  152.4445  137.1339  155.7446 H   0  0  0  0  0  0  0  0  0  0  0  0
  151.2786  136.4347  157.8469 H   0  0  0  0  0  0  0  0  0  0  0  0
  149.8494  137.3720  157.4746 H   0  0  0  0  0  0  0  0  0  0  0  0
  149.3188  135.4538  158.9747 H   0  0  0  0  0  0  0  0  0  0  0  0
  148.4369  135.3451  157.4622 H   0  0  0  0  0  0  0  0  0  0  0  0
  149.2722  133.7716  155.7672 H   0  0  0  0  0  0  0  0  0  0  0  0
  151.0330  132.1188  155.1028 H   0  0  0  0  0  0  0  0  0  0  0  0
  150.2002  131.6118  156.5697 H   0  0  0  0  0  0  0  0  0  0  0  0
  151.8121  132.3163  156.6720 H   0  0  0  0  0  0  0  0  0  0  0  0
  151.2862  134.6778  154.6275 H   0  0  0  0  0  0  0  0  0  0  0  0
  152.1254  134.8135  156.1558 H   0  0  0  0  0  0  0  0  0  0  0  0
  152.9220  140.2639  159.0848 H   0  0  0  0  0  0  0  0  0  0  0  0
  154.0228  140.9707  161.0358 H   0  0  0  0  0  0  0  0  0  0  0  0
  152.9889  141.9296  162.0932 H   0  0  0  0  0  0  0  0  0  0  0  0
  154.3051  142.7014  161.1951 H   0  0  0  0  0  0  0  0  0  0  0  0
  149.4513  143.4020  156.3871 H   0  0  0  0  0  0  0  0  0  0  0  0
  1  2  1  0  0  0  0
  1 23  1  0  0  0  0
  1 24  1  0  0  0  0
  1 25  1  0  0  0  0
  2 21  1  0  0  0  0
  2  3  2  0  0  0  0
  3  4  1  0  0  0  0
  3 26  1  0  0  0  0
  4 19  2  0  0  0  0
  4  5  1  0  0  0  0
  5  6  2  0  0  0  0
  5 48  1  0  0  0  0
  6  7  1  0  0  0  0
  6 27  1  0  0  0  0
  7  8  1  0  0  0  0
  7 19  1  0  0  0  0
  8  9  1  0  0  0  0
  8 28  1  0  0  0  0
  8 29  1  0  0  0  0
  9 10  1  0  0  0  0
  9 11  1  0  0  0  0
  9 30  1  0  0  0  0
 10 31  1  0  0  0  0
 11 12  1  0  0  0  0
 11 32  1  0  0  0  0
 11 33  1  0  0  0  0
 12 18  1  0  0  0  0
 12 13  1  0  0  0  0
 13 14  1  0  0  0  0
 13 34  1  0  0  0  0
 13 35  1  0  0  0  0
 14 15  1  0  0  0  0
 14 36  1  0  0  0  0
 14 37  1  0  0  0  0
 15 16  1  0  0  0  0
 16 17  1  0  0  0  0
 16 18  1  0  0  0  0
 16 38  1  0  0  0  0
 17 39  1  0  0  0  0
 17 40  1  0  0  0  0
 17 41  1  0  0  0  0
 18 42  1  0  0  0  0
 18 43  1  0  0  0  0
 19 20  1  0  0  0  0
 20 21  2  0  0  0  0
 20 44  1  0  0  0  0
 21 22  1  0  0  0  0
 22 45  1  0  0  0  0
 22 46  1  0  0  0  0
 22 47  1  0  0  0  0
M  CHG  1   5   1
M  END
> <s_m_source_file>
AV-unprocessed.smi

> <i_m_source_file_index>
1554

> <i_lp_mmshare_version>
43012

> <i_f3d_flags>
0

> <s_epik_input>
W0NIM11jKFtjSF0xKWMoW0NIM10pW2NIXWMoYzEyKW4oW2NIXW4yKVtDSDJdW0NASF0oW09IXSlbQ0gyXU4zW0NIMl1bQ0gyXU9bQ0BASF0oW0NIM10pW0NIMl0z

> <s_epik_cmdline>
J2VwaWtfcHl0aG9uJywgJy1waCcsICc3LjAnLCAnLXRuJywgJzgnLCAnLW1hJywgJzIwMCcsICctbWV0YWxfYmluZGluZycsICctaW1hZScsICc8aW5maWxlLm1hZT4nLCAnLW9tYWUnLCAnPG91dGZpbGUubWFlPic=

> <r_epik_Ionization_Penalty>
1.42504

> <r_epik_Ionization_Penalty_Charging>
1.21068

> <r_epik_Ionization_Penalty_Neutral>
0.214359

> <r_epik_State_Penalty>
1.46962

> <r_epik_Charging_Adjusted_Penalty>
2.6803

> <i_epik_Tot_Q>
1

> <i_epik_Tot_abs_Q>
1

> <r_epik_Metal_State_Penalty>
5.48754

> <b_epik_Metal_Only>
0

> <s_lp_Force_Field>
OPLS_2005

> <r_lp_Energy>
34.6572

> <b_lp_Chiralities_Consistent>
1

> <s_lp_Variant>
AV-unprocessed.smi:1554-16

> <Gold.Version>
5.8.1

> <Gold.Id.Protein>
6NUR|6NUR_protein|mol2

> <Gold.PLP.Fitness>
51.7347

> <Gold.PLP.PLP>
-40.8431

> <Gold.PLP.part.hbond>
-3.0000

> <Gold.PLP.part.metal>
0.0000

> <Gold.PLP.part.buried>
-4.8961

> <Gold.PLP.part.nonpolar>
-34.4609

> <Gold.PLP.part.repulsive>
0.1236

> <Gold.PLP.ligand.clash>
0.0000

> <Gold.PLP.ligand.torsion>
0.5651

> <Gold.PLP.Chemscore.Hbond>
4.0000

> <Gold.PLP.Chemscore.CHOScore>
0.0000

> <Gold.PLP.Chemscore.Metal>
0.0000

> <Gold.Chemscore.Hbonds>
donor molecule, donor type, donor heavy atom, donor atom, acceptor molecule, acceptor atom, score
      L1  H     5    48       P1  8028  2.00
      P1  H  6896  6907       L1    15  0.88
      P1  H  7989  7998       L1    10  1.00

> <Gold.PLP.Chemscore.Internal.Correction>
0.0218

> <Gold.Rescore>
     Score         DG    S(hbond)    S(metal)    S(lipo)     H(rot)  DE(clash)    DE(int)     intcor
     21.27     -22.69       2.68        0.00     115.21       2.04       0.83       0.59       ----

> <Gold.Chemscore.Fitness>
21.2715

> <Gold.Chemscore.DG>
-22.6896

> <Gold.Chemscore.ZeroCoef>
-5.4800

> <Gold.Chemscore.Hbond>
2.6823

> <Gold.Chemscore.Metal>
0.0000

> <Gold.Chemscore.Lipo>
115.2149

> <Gold.Chemscore.Internal_Hbond>
0.0000

> <Gold.Chemscore.DEClash>
0.8282

> <Gold.Chemscore.DEInternal>
0.5900

> <Gold.Chemscore.Rot>
2.0427

> <Gold.Chemscore.Internal.Correction>
   9.000000E+99

> <Gold.Chemscore.Hbonds>
donor molecule, donor type, donor heavy atom, donor atom, acceptor molecule, acceptor atom, score
      L1  H     5    48       P1  8028  0.99
      P1  H  6896  6907       L1    15  0.17
      P1  H  7989  7998       L1    10  0.40

> <Gold.Chemscore.Hbond.Weighted>
-8.9589

> <Gold.Chemscore.Metal.Weighted>
-0.0000

> <Gold.Chemscore.Lipo.Weighted>
-13.4801

> <Gold.Chemscore.Internal_Hbond.Weighted>
0.0000

> <Gold.Chemscore.DEClash.Weighted>
0.8282

> <Gold.Chemscore.DEInternal.Weighted>
0.5900

> <Gold.Chemscore.Rot.Weighted>
5.2294

> <Gold.Chemscore.Internal.Correction.Weighted>
   9.000000E+99

> <Gold.Protein.RotatedTorsions>
[ 6907 6896 6895 6894 ] final -118.99 input  -60.11 | X-H torsion
[ 7974 7965 7964 7962 ] final    9.19 input  175.53 | X-H torsion
[ 8008 7997 7996 7995 ] final  -29.47 input   59.86 | X-H torsion
[ 10167 10162 10161 10158 ] final  139.88 input  -65.29 | X-H torsion
[ 10718 10713 10712 10709 ] final   60.75 input   66.30 | X-H torsion
[ 10763 10752 10751 10750 ] final  110.99 input  -60.55 | X-H torsion
[ 11005 11000 10999 10996 ] final  -59.36 input  -57.11 | X-H torsion

> <Gold.Protein.ActiveResidues>
 VAL166  LYS551  ARG553  GLY616  TRP617  ASP618  TYR619  PRO620  LYS621  CYS622 
 ASP623  PHE694  ASN695  SER759  ASP760  ASP761  ALA762  ILE779  LEU786  VAL792 
 PHE793  MET794  SER795  GLU796  ALA797  LYS798  CYS799  TRP800  GLU811  SER814 

> <Gold.Protein.RotatedAtoms>
  150.8267  133.8160  159.3115 H   0  0  0  0  0  0  0  0  0  0  0  0  # atno 6907 bound_to 6896
  151.5903  135.1052  160.0047 H   0  0  0  0  0  0  0  0  0  0  0  0  # atno 6908 bound_to 6896
  152.4351  133.7305  159.6641 H   0  0  0  0  0  0  0  0  0  0  0  0  # atno 6909 bound_to 6896
  146.2407  139.9820  142.8435 H   0  0  0  0  0  0  0  0  0  0  0  0  # atno 7974 bound_to 7965
  154.4289  140.1817  156.1252 H   0  0  0  0  0  0  0  0  0  0  0  0  # atno 8008 bound_to 7997
  156.0111  140.3350  155.6916 H   0  0  0  0  0  0  0  0  0  0  0  0  # atno 8009 bound_to 7997
  155.6109  140.0650  157.2697 H   0  0  0  0  0  0  0  0  0  0  0  0  # atno 8010 bound_to 7997
  139.5065  144.6268  151.5918 H   0  0  0  0  0  0  0  0  0  0  0  0  # atno 10167 bound_to 10162
  157.5776  130.8956  149.9374 H   0  0  0  0  0  0  0  0  0  0  0  0  # atno 10718 bound_to 10713
  153.4568  135.3731  155.2315 H   0  0  0  0  0  0  0  0  0  0  0  0  # atno 10763 bound_to 10752
  154.8757  135.3899  154.3972 H   0  0  0  0  0  0  0  0  0  0  0  0  # atno 10764 bound_to 10752
  153.4539  135.7086  153.6155 H   0  0  0  0  0  0  0  0  0  0  0  0  # atno 10765 bound_to 10752
  141.1245  133.6616  156.5060 H   0  0  0  0  0  0  0  0  0  0  0  0  # atno 11005 bound_to 11000
  145.1583  140.9659  143.4392 LP  0  0  0  0  0  0  0  0  0  0  0  0  # atno 17320 bound_to 7965
  145.0140  139.3484  143.6105 LP  0  0  0  0  0  0  0  0  0  0  0  0  # atno 17321 bound_to 7965
  140.5987  143.9649  150.6371 LP  0  0  0  0  0  0  0  0  0  0  0  0  # atno 17342 bound_to 10162
  140.2853  143.3361  152.1113 LP  0  0  0  0  0  0  0  0  0  0  0  0  # atno 17343 bound_to 10162
  156.0821  130.3672  150.0560 LP  0  0  0  0  0  0  0  0  0  0  0  0  # atno 17370 bound_to 10713
  156.8704  130.9522  151.3610 LP  0  0  0  0  0  0  0  0  0  0  0  0  # atno 17371 bound_to 10713
  140.4407  134.7018  157.4990 LP  0  0  0  0  0  0  0  0  0  0  0  0  # atno 17394 bound_to 11000
  140.0231  134.6517  155.9211 LP  0  0  0  0  0  0  0  0  0  0  0  0  # atno 17395 bound_to 11000

$$$$
