AV-unprocessed.smi:100|AV-procd|sdf|911|dock3
  -GOLD-   2262017413D 1   1.00000     0.00000
 Structure written by MMmdl.
 31 33  0  0  0  0  0  0  0  0  1 V2000
  144.0321  141.9483  154.9883 N   0  0  0  0  0  0  0  0  0  0  0  0
  145.2409  141.9716  155.5670 C   0  0  0  0  0  0  0  0  0  0  0  0
  145.3691  142.5927  156.7629 N   0  0  0  0  0  0  0  0  0  0  0  0
  146.5640  142.6283  157.3614 C   0  0  0  0  0  0  0  0  0  0  0  0
  147.7239  142.1157  156.9422 N   0  0  0  0  0  0  0  0  0  0  0  0
  147.5935  141.4888  155.7363 C   0  0  0  0  0  0  0  0  0  0  0  0
  146.3896  141.3765  154.9866 C   0  0  0  0  0  0  0  0  0  0  0  0
  146.6282  140.6807  153.8094 N   0  0  0  0  0  0  0  0  0  0  0  0
  147.9022  140.3985  153.8646 C   0  0  0  0  0  0  0  0  0  0  0  0
  148.5615  140.8470  154.9883 N   0  0  0  0  0  0  0  0  0  0  0  0
  150.0119  140.6722  155.3197 C   0  0  2  0  0  0  0  0  0  0  0  0
  150.6347  139.9269  154.3194 O   0  0  0  0  0  0  0  0  0  0  0  0
  151.5830  139.0176  154.8802 C   0  0  2  0  0  0  0  0  0  0  0  0
  151.1675  137.5872  154.4978 C   0  0  0  0  0  0  0  0  0  0  0  0
  152.1895  136.9625  153.7496 O   0  0  0  0  0  0  0  0  0  0  0  0
  151.5802  139.2760  156.3944 C   0  0  1  0  0  0  0  0  0  0  0  0
  152.5628  140.1256  156.6997 F   0  0  0  0  0  0  0  0  0  0  0  0
  150.2460  139.9495  156.6524 C   0  0  2  0  0  0  0  0  0  0  0  0
  149.2431  139.0097  156.9934 O   0  0  0  0  0  0  0  0  0  0  0  0
  143.9098  141.4909  154.0964 H   0  0  0  0  0  0  0  0  0  0  0  0
  143.2452  142.3829  155.4481 H   0  0  0  0  0  0  0  0  0  0  0  0
  146.5959  143.1398  158.3121 H   0  0  0  0  0  0  0  0  0  0  0  0
  148.4015  139.8508  153.0785 H   0  0  0  0  0  0  0  0  0  0  0  0
  150.4283  141.6809  155.3138 H   0  0  0  0  0  0  0  0  0  0  0  0
  152.5635  139.2340  154.4532 H   0  0  0  0  0  0  0  0  0  0  0  0
  150.9421  136.9890  155.3807 H   0  0  0  0  0  0  0  0  0  0  0  0
  150.2652  137.6106  153.8860 H   0  0  0  0  0  0  0  0  0  0  0  0
  151.8824  136.8436  152.8638 H   0  0  0  0  0  0  0  0  0  0  0  0
  151.7431  138.3809  156.9963 H   0  0  0  0  0  0  0  0  0  0  0  0
  150.3040  140.6815  157.4588 H   0  0  0  0  0  0  0  0  0  0  0  0
  148.4694  139.2013  156.4856 H   0  0  0  0  0  0  0  0  0  0  0  0
  1  2  1  0  0  0  0
  1 20  1  0  0  0  0
  1 21  1  0  0  0  0
  2  7  1  0  0  0  0
  2  3  2  0  0  0  0
  3  4  1  0  0  0  0
  4  5  2  0  0  0  0
  4 22  1  0  0  0  0
  5  6  1  0  0  0  0
  6 10  1  0  0  0  0
  6  7  2  0  0  0  0
  7  8  1  0  0  0  0
  8  9  2  0  0  0  0
  9 10  1  0  0  0  0
  9 23  1  0  0  0  0
 10 11  1  0  0  0  0
 11 18  1  0  0  0  0
 11 12  1  0  0  0  0
 11 24  1  0  0  0  0
 12 13  1  0  0  0  0
 13 14  1  0  0  0  0
 13 16  1  0  0  0  0
 13 25  1  0  0  0  0
 14 15  1  0  0  0  0
 14 26  1  0  0  0  0
 14 27  1  0  0  0  0
 15 28  1  0  0  0  0
 16 17  1  0  0  0  0
 16 18  1  0  0  0  0
 16 29  1  0  0  0  0
 18 19  1  0  0  0  0
 18 30  1  0  0  0  0
 19 31  1  0  0  0  0
M  END
> <s_m_source_file>
AV-unprocessed.smi

> <i_m_source_file_index>
100

> <i_lp_mmshare_version>
43012

> <i_f3d_flags>
0

> <s_epik_input>
bjFbY0hdbmMoW05IMl0pYyhjMTIpbltjSF1uMltDQEBIXTNPW0NAQEhdKFtDSDJdW09IXSlbQ0BIXShGKVtDQEhdM1tPSF0=

> <s_epik_cmdline>
J2VwaWtfcHl0aG9uJywgJy1waCcsICc3LjAnLCAnLXRuJywgJzgnLCAnLW1hJywgJzIwMCcsICctbWV0YWxfYmluZGluZycsICctaW1hZScsICc8aW5maWxlLm1hZT4nLCAnLW9tYWUnLCAnPG91dGZpbGUubWFlPic=

> <r_lp_tautomer_probability>
1

> <r_epik_Ionization_Penalty>
0.000750324

> <r_epik_Ionization_Penalty_Charging>
0

> <r_epik_Ionization_Penalty_Neutral>
0.000750324

> <r_epik_State_Penalty>
-0

> <r_epik_Charging_Adjusted_Penalty>
0

> <i_epik_Tot_Q>
0

> <i_epik_Tot_abs_Q>
0

> <r_epik_Metal_State_Penalty>
-0

> <b_epik_Metal_Only>
0

> <s_epik_Chemistry_Notes>
This compound contains an acetal/aminal-like group ( X-CH(R)-Y where X, Y are N, S, or O) that may be acid/base labile, releasing an aldehyde.

> <s_lp_Force_Field>
OPLS_2005

> <r_lp_Energy>
38.301

> <b_lp_Chiralities_Consistent>
1

> <s_lp_Variant>
AV-unprocessed.smi:100-15

> <Gold.Version>
5.8.1

> <Gold.Id.Protein>
6NUR|6NUR_protein|mol2

> <Gold.PLP.Fitness>
36.0909

> <Gold.PLP.PLP>
-23.0536

> <Gold.PLP.part.hbond>
-4.3992

> <Gold.PLP.part.metal>
0.0000

> <Gold.PLP.part.buried>
-3.3211

> <Gold.PLP.part.nonpolar>
-17.3987

> <Gold.PLP.part.repulsive>
0.5149

> <Gold.PLP.ligand.clash>
0.0000

> <Gold.PLP.ligand.torsion>
0.7571

> <Gold.PLP.Chemscore.Hbond>
3.8500

> <Gold.PLP.Chemscore.CHOScore>
1.0000

> <Gold.PLP.Chemscore.Metal>
0.0000

> <Gold.Chemscore.Hbonds>
donor molecule, donor type, donor heavy atom, donor atom, acceptor molecule, acceptor atom, score
      L1  H     1    20       P1 10175  0.90
      L1  H    15    28       P1  7949  1.00
      P1  H  7989  7998       L1    12  1.00
      P1  H 10752 10765       L1    15  0.99
      L1  C     9    23       P1  7957  1.00

> <Gold.PLP.Chemscore.Internal.Correction>
0.0014

> <Gold.Rescore>
     Score         DG    S(hbond)    S(metal)    S(lipo)     H(rot)  DE(clash)    DE(int)     intcor
      7.07      -8.34       2.27        0.00      29.40       3.19       0.52       0.75       ----

> <Gold.Chemscore.Fitness>
7.0740

> <Gold.Chemscore.DG>
-8.3449

> <Gold.Chemscore.ZeroCoef>
-5.4800

> <Gold.Chemscore.Hbond>
2.2730

> <Gold.Chemscore.Metal>
0.0000

> <Gold.Chemscore.Lipo>
29.4004

> <Gold.Chemscore.Internal_Hbond>
0.0000

> <Gold.Chemscore.DEClash>
0.5242

> <Gold.Chemscore.DEInternal>
0.7467

> <Gold.Chemscore.Rot>
3.1901

> <Gold.Chemscore.Internal.Correction>
   9.000000E+99

> <Gold.Chemscore.Hbonds>
donor molecule, donor type, donor heavy atom, donor atom, acceptor molecule, acceptor atom, score
      L1  H     1    20       P1 10175  0.18
      L1  H    15    28       P1  7949  0.99
      P1  H  7989  7998       L1    12  0.19
      P1  H 10752 10765       L1    15  0.36

> <Gold.Chemscore.Hbond.Weighted>
-7.5918

> <Gold.Chemscore.Metal.Weighted>
-0.0000

> <Gold.Chemscore.Lipo.Weighted>
-3.4398

> <Gold.Chemscore.Internal_Hbond.Weighted>
0.0000

> <Gold.Chemscore.DEClash.Weighted>
0.5242

> <Gold.Chemscore.DEInternal.Weighted>
0.7467

> <Gold.Chemscore.Rot.Weighted>
8.1667

> <Gold.Chemscore.Internal.Correction.Weighted>
   9.000000E+99

> <Gold.Protein.RotatedTorsions>
[ 6907 6896 6895 6894 ] final  -51.12 input  -60.11 | X-H torsion
[ 7974 7965 7964 7962 ] final   72.97 input  175.53 | X-H torsion
[ 8008 7997 7996 7995 ] final  -46.09 input   59.86 | X-H torsion
[ 10167 10162 10161 10158 ] final   54.87 input  -65.29 | X-H torsion
[ 10718 10713 10712 10709 ] final  -94.22 input   66.30 | X-H torsion
[ 10763 10752 10751 10750 ] final  142.56 input  -60.55 | X-H torsion
[ 11005 11000 10999 10996 ] final  -99.01 input  -57.11 | X-H torsion

> <Gold.Protein.ActiveResidues>
 VAL166  LYS551  ARG553  GLY616  TRP617  ASP618  TYR619  PRO620  LYS621  CYS622 
 ASP623  PHE694  ASN695  SER759  ASP760  ASP761  ALA762  ILE779  LEU786  VAL792 
 PHE793  MET794  SER795  GLU796  ALA797  LYS798  CYS799  TRP800  GLU811  SER814 

> <Gold.Protein.RotatedAtoms>
  150.8642  134.8001  159.7105 H   0  0  0  0  0  0  0  0  0  0  0  0  # atno 6907 bound_to 6896
  152.4669  134.5051  159.9746 H   0  0  0  0  0  0  0  0  0  0  0  0  # atno 6908 bound_to 6896
  151.5150  133.3439  159.2927 H   0  0  0  0  0  0  0  0  0  0  0  0  # atno 6909 bound_to 6896
  145.7467  139.2743  143.1455 H   0  0  0  0  0  0  0  0  0  0  0  0  # atno 7974 bound_to 7965
  154.4005  140.1380  156.3954 H   0  0  0  0  0  0  0  0  0  0  0  0  # atno 8008 bound_to 7997
  155.7875  140.3480  155.5310 H   0  0  0  0  0  0  0  0  0  0  0  0  # atno 8009 bound_to 7997
  155.8613  140.0957  157.1602 H   0  0  0  0  0  0  0  0  0  0  0  0  # atno 8010 bound_to 7997
  140.2255  144.3743  150.6434 H   0  0  0  0  0  0  0  0  0  0  0  0  # atno 10167 bound_to 10162
  156.0024  130.5059  150.5894 H   0  0  0  0  0  0  0  0  0  0  0  0  # atno 10718 bound_to 10713
  153.9578  135.2963  155.3435 H   0  0  0  0  0  0  0  0  0  0  0  0  # atno 10763 bound_to 10752
  154.7391  135.5033  153.9096 H   0  0  0  0  0  0  0  0  0  0  0  0  # atno 10764 bound_to 10752
  153.0962  135.6721  153.9869 H   0  0  0  0  0  0  0  0  0  0  0  0  # atno 10765 bound_to 10752
  141.1324  133.8289  157.0916 H   0  0  0  0  0  0  0  0  0  0  0  0  # atno 11005 bound_to 11000
  146.0396  140.8178  142.9835 LP  0  0  0  0  0  0  0  0  0  0  0  0  # atno 17320 bound_to 7965
  144.6858  140.2891  143.7281 LP  0  0  0  0  0  0  0  0  0  0  0  0  # atno 17321 bound_to 7965
  140.6224  143.2177  151.6667 LP  0  0  0  0  0  0  0  0  0  0  0  0  # atno 17342 bound_to 10162
  139.5129  144.3462  152.0695 LP  0  0  0  0  0  0  0  0  0  0  0  0  # atno 17343 bound_to 10162
  157.3761  131.0773  151.1516 LP  0  0  0  0  0  0  0  0  0  0  0  0  # atno 17370 bound_to 10713
  157.2254  130.6500  149.5828 LP  0  0  0  0  0  0  0  0  0  0  0  0  # atno 17371 bound_to 10713
  140.0389  134.9864  157.0924 LP  0  0  0  0  0  0  0  0  0  0  0  0  # atno 17394 bound_to 11000
  140.4167  134.1924  155.7163 LP  0  0  0  0  0  0  0  0  0  0  0  0  # atno 17395 bound_to 11000

$$$$
