AV-unprocessed.smi:1545|AV-procd|sdf|6215|dock4
  -GOLD-   22720 6383D 1   1.00000     0.00000
 Structure written by MMmdl.
 42 44  0  0  0  0  0  0  0  0  2 V2000
  146.9794  138.3922  151.0135 O   0  0  0  0  0  0  0  0  0  0  0  0
  146.6843  138.9355  152.2819 C   0  0  0  0  0  0  0  0  0  0  0  0
  146.7078  137.8300  153.3453 C   0  0  0  0  0  0  0  0  0  0  0  0
  145.4569  137.0898  153.3793 N   0  0  0  0  0  0  0  0  0  0  0  0
  145.3631  135.8817  152.6806 C   0  0  0  0  0  0  0  0  0  0  0  0
  146.3961  135.2102  152.1051 N   0  3  0  0  0  0  0  0  0  0  0  0
  145.8876  134.0596  151.4958 C   0  0  0  0  0  0  0  0  0  0  0  0
  146.5278  133.0530  150.7795 C   0  0  0  0  0  0  0  0  0  0  0  0
  145.7143  132.0134  150.2827 C   0  0  0  0  0  0  0  0  0  0  0  0
  144.3217  131.9991  150.5039 C   0  0  0  0  0  0  0  0  0  0  0  0
  143.6808  133.0230  151.2319 C   0  0  0  0  0  0  0  0  0  0  0  0
  144.4900  134.0476  151.7210 C   0  0  0  0  0  0  0  0  0  0  0  0
  144.2079  135.2001  152.4644 N   0  0  0  0  0  0  0  0  0  0  0  0
  142.8213  135.4958  152.8557 C   0  0  0  0  0  0  0  0  0  0  0  0
  142.5055  137.0038  152.8079 C   0  0  1  0  0  0  0  0  0  0  0  0
  143.0309  137.5256  151.6053 O   0  0  0  0  0  0  0  0  0  0  0  0
  141.0167  137.2826  152.9598 C   0  0  0  0  0  0  0  0  0  0  0  0
  140.1133  136.2382  153.2574 C   0  0  0  0  0  0  0  0  0  0  0  0
  138.7418  136.5121  153.4220 C   0  0  0  0  0  0  0  0  0  0  0  0
  138.2663  137.8314  153.2960 C   0  0  0  0  0  0  0  0  0  0  0  0
  139.1626  138.8769  153.0045 C   0  0  0  0  0  0  0  0  0  0  0  0
  138.7080  140.1473  152.8913 F   0  0  0  0  0  0  0  0  0  0  0  0
  140.5333  138.6029  152.8343 C   0  0  0  0  0  0  0  0  0  0  0  0
  147.7199  137.8112  151.1002 H   0  0  0  0  0  0  0  0  0  0  0  0
  147.4535  139.6748  152.5063 H   0  0  0  0  0  0  0  0  0  0  0  0
  145.7290  139.4617  152.2626 H   0  0  0  0  0  0  0  0  0  0  0  0
  147.5512  137.1561  153.1874 H   0  0  0  0  0  0  0  0  0  0  0  0
  146.8448  138.2874  154.3259 H   0  0  0  0  0  0  0  0  0  0  0  0
  144.6203  137.5505  153.7089 H   0  0  0  0  0  0  0  0  0  0  0  0
  147.5941  133.0607  150.6071 H   0  0  0  0  0  0  0  0  0  0  0  0
  146.1680  131.2106  149.7198 H   0  0  0  0  0  0  0  0  0  0  0  0
  143.7321  131.1854  150.1069 H   0  0  0  0  0  0  0  0  0  0  0  0
  142.6133  133.0029  151.3950 H   0  0  0  0  0  0  0  0  0  0  0  0
  142.1565  134.9357  152.1970 H   0  0  0  0  0  0  0  0  0  0  0  0
  142.6621  135.0999  153.8596 H   0  0  0  0  0  0  0  0  0  0  0  0
  143.0361  137.5067  153.6172 H   0  0  0  0  0  0  0  0  0  0  0  0
  143.4070  138.3740  151.7849 H   0  0  0  0  0  0  0  0  0  0  0  0
  140.4697  135.2244  153.3672 H   0  0  0  0  0  0  0  0  0  0  0  0
  138.0549  135.7113  153.6523 H   0  0  0  0  0  0  0  0  0  0  0  0
  137.2153  138.0417  153.4282 H   0  0  0  0  0  0  0  0  0  0  0  0
  141.2151  139.4125  152.6185 H   0  0  0  0  0  0  0  0  0  0  0  0
  147.3606  135.5147  152.1247 H   0  0  0  0  0  0  0  0  0  0  0  0
  1  2  1  0  0  0  0
  1 24  1  0  0  0  0
  2  3  1  0  0  0  0
  2 25  1  0  0  0  0
  2 26  1  0  0  0  0
  3  4  1  0  0  0  0
  3 27  1  0  0  0  0
  3 28  1  0  0  0  0
  4  5  1  0  0  0  0
  4 29  1  0  0  0  0
  5 13  1  0  0  0  0
  5  6  2  0  0  0  0
  6  7  1  0  0  0  0
  6 42  1  0  0  0  0
  7 12  2  0  0  0  0
  7  8  1  0  0  0  0
  8  9  2  0  0  0  0
  8 30  1  0  0  0  0
  9 10  1  0  0  0  0
  9 31  1  0  0  0  0
 10 11  2  0  0  0  0
 10 32  1  0  0  0  0
 11 12  1  0  0  0  0
 11 33  1  0  0  0  0
 12 13  1  0  0  0  0
 13 14  1  0  0  0  0
 14 15  1  0  0  0  0
 14 34  1  0  0  0  0
 14 35  1  0  0  0  0
 15 16  1  0  0  0  0
 15 17  1  0  0  0  0
 15 36  1  0  0  0  0
 16 37  1  0  0  0  0
 17 23  1  0  0  0  0
 17 18  2  0  0  0  0
 18 19  1  0  0  0  0
 18 38  1  0  0  0  0
 19 20  2  0  0  0  0
 19 39  1  0  0  0  0
 20 21  1  0  0  0  0
 20 40  1  0  0  0  0
 21 22  1  0  0  0  0
 21 23  2  0  0  0  0
 23 41  1  0  0  0  0
M  CHG  1   6   1
M  END
> <s_m_source_file>
AV-unprocessed.smi

> <i_m_source_file_index>
1545

> <i_lp_mmshare_version>
43012

> <i_f3d_flags>
0

> <s_epik_input>
W09IXVtDSDJdW0NIMl1bTkhdYyhuMSluKGMoYzEyKVtjSF1bY0hdW2NIXVtjSF0yKVtDSDJdW0NASF0oW09IXSljM1tjSF1bY0hdW2NIXWMoRilbY0hdMw==

> <s_epik_cmdline>
J2VwaWtfcHl0aG9uJywgJy1waCcsICc3LjAnLCAnLXRuJywgJzgnLCAnLW1hJywgJzIwMCcsICctbWV0YWxfYmluZGluZycsICctaW1hZScsICc8aW5maWxlLm1hZT4nLCAnLW9tYWUnLCAnPG91dGZpbGUubWFlPic=

> <r_epik_Ionization_Penalty>
0.0688114

> <r_epik_Ionization_Penalty_Charging>
0.0688055

> <r_epik_Ionization_Penalty_Neutral>
5.85933e-06

> <r_epik_State_Penalty>
0.0602293

> <r_epik_Charging_Adjusted_Penalty>
0.129035

> <i_epik_Tot_Q>
1

> <i_epik_Tot_abs_Q>
1

> <r_epik_Metal_State_Penalty>
2.77411

> <b_epik_Metal_Only>
0

> <s_lp_Force_Field>
OPLS_2005

> <r_lp_Energy>
23.1511

> <b_lp_Chiralities_Consistent>
1

> <s_lp_Variant>
AV-unprocessed.smi:1545-2

> <Gold.Version>
5.8.1

> <Gold.Id.Protein>
6NUR|6NUR_protein|mol2

> <Gold.PLP.Fitness>
57.5595

> <Gold.PLP.PLP>
-47.2997

> <Gold.PLP.part.hbond>
-5.8803

> <Gold.PLP.part.metal>
0.0000

> <Gold.PLP.part.buried>
-5.5121

> <Gold.PLP.part.nonpolar>
-36.5445

> <Gold.PLP.part.repulsive>
0.0289

> <Gold.PLP.ligand.clash>
0.2090

> <Gold.PLP.ligand.torsion>
0.7848

> <Gold.PLP.Chemscore.Hbond>
4.0000

> <Gold.PLP.Chemscore.CHOScore>
0.0000

> <Gold.PLP.Chemscore.Metal>
0.0000

> <Gold.Chemscore.Hbonds>
donor molecule, donor type, donor heavy atom, donor atom, acceptor molecule, acceptor atom, score
      L1  H     1    24       P1  7948  0.84
      L1  H     6    42       P1  7948  2.00
      L1  H    16    37       P1 10175  0.65

> <Gold.PLP.Chemscore.Internal.Correction>
0.0385

> <Gold.Rescore>
     Score         DG    S(hbond)    S(metal)    S(lipo)     H(rot)  DE(clash)    DE(int)     intcor
     19.04     -19.58       2.98        0.00     104.33       3.15       0.05       0.49       ----

> <Gold.Chemscore.Fitness>
19.0442

> <Gold.Chemscore.DG>
-19.5845

> <Gold.Chemscore.ZeroCoef>
-5.4800

> <Gold.Chemscore.Hbond>
2.9828

> <Gold.Chemscore.Metal>
0.0000

> <Gold.Chemscore.Lipo>
104.3332

> <Gold.Chemscore.Internal_Hbond>
0.0000

> <Gold.Chemscore.DEClash>
0.0507

> <Gold.Chemscore.DEInternal>
0.4896

> <Gold.Chemscore.Rot>
3.1505

> <Gold.Chemscore.Internal.Correction>
   9.000000E+99

> <Gold.Chemscore.Hbonds>
donor molecule, donor type, donor heavy atom, donor atom, acceptor molecule, acceptor atom, score
      L1  H     1    24       P1  7948  0.82
      L1  H     6    42       P1  7948  1.00
      L1  H    16    37       P1 10175  0.64

> <Gold.Chemscore.Hbond.Weighted>
-9.9626

> <Gold.Chemscore.Metal.Weighted>
-0.0000

> <Gold.Chemscore.Lipo.Weighted>
-12.2070

> <Gold.Chemscore.Internal_Hbond.Weighted>
0.0000

> <Gold.Chemscore.DEClash.Weighted>
0.0507

> <Gold.Chemscore.DEInternal.Weighted>
0.4896

> <Gold.Chemscore.Rot.Weighted>
8.0652

> <Gold.Chemscore.Internal.Correction.Weighted>
   9.000000E+99

> <Gold.Protein.RotatedTorsions>
[ 6907 6896 6895 6894 ] final  105.37 input  -60.11 | X-H torsion
[ 7974 7965 7964 7962 ] final   58.38 input  175.53 | X-H torsion
[ 8008 7997 7996 7995 ] final  178.79 input   59.86 | X-H torsion
[ 10167 10162 10161 10158 ] final   69.62 input  -65.29 | X-H torsion
[ 10718 10713 10712 10709 ] final   18.82 input   66.30 | X-H torsion
[ 10763 10752 10751 10750 ] final   11.72 input  -60.55 | X-H torsion
[ 11005 11000 10999 10996 ] final   53.35 input  -57.11 | X-H torsion

> <Gold.Protein.ActiveResidues>
 VAL166  LYS551  ARG553  GLY616  TRP617  ASP618  TYR619  PRO620  LYS621  CYS622 
 ASP623  PHE694  ASN695  SER759  ASP760  ASP761  ALA762  ILE779  LEU786  VAL792 
 PHE793  MET794  SER795  GLU796  ALA797  LYS798  CYS799  TRP800  GLU811  SER814 

> <Gold.Protein.RotatedAtoms>
  152.5233  133.9539  159.7684 H   0  0  0  0  0  0  0  0  0  0  0  0  # atno 6907 bound_to 6896
  150.9843  133.6205  159.2725 H   0  0  0  0  0  0  0  0  0  0  0  0  # atno 6908 bound_to 6896
  151.3371  135.0861  159.9411 H   0  0  0  0  0  0  0  0  0  0  0  0  # atno 6909 bound_to 6896
  145.9188  139.3712  143.0491 H   0  0  0  0  0  0  0  0  0  0  0  0  # atno 7974 bound_to 7965
  156.0507  140.1325  157.0053 H   0  0  0  0  0  0  0  0  0  0  0  0  # atno 8008 bound_to 7997
  154.4434  140.1011  156.6443 H   0  0  0  0  0  0  0  0  0  0  0  0  # atno 8009 bound_to 7997
  155.5527  140.3463  155.4474 H   0  0  0  0  0  0  0  0  0  0  0  0  # atno 8010 bound_to 7997
  140.0658  144.5194  150.7262 H   0  0  0  0  0  0  0  0  0  0  0  0  # atno 10167 bound_to 10162
  157.1017  130.6471  149.5874 H   0  0  0  0  0  0  0  0  0  0  0  0  # atno 10718 bound_to 10713
  153.1897  135.6840  153.8369 H   0  0  0  0  0  0  0  0  0  0  0  0  # atno 10763 bound_to 10752
  153.7672  135.3201  155.3347 H   0  0  0  0  0  0  0  0  0  0  0  0  # atno 10764 bound_to 10752
  154.8110  135.4717  154.0613 H   0  0  0  0  0  0  0  0  0  0  0  0  # atno 10765 bound_to 10752
  140.0774  134.5385  155.8982 H   0  0  0  0  0  0  0  0  0  0  0  0  # atno 11005 bound_to 11000
  145.8577  140.9493  143.0716 LP  0  0  0  0  0  0  0  0  0  0  0  0  # atno 17320 bound_to 7965
  144.6750  140.0489  143.7479 LP  0  0  0  0  0  0  0  0  0  0  0  0  # atno 17321 bound_to 7965
  140.7150  143.2536  151.4463 LP  0  0  0  0  0  0  0  0  0  0  0  0  # atno 17342 bound_to 10162
  139.5866  144.1591  152.2036 LP  0  0  0  0  0  0  0  0  0  0  0  0  # atno 17343 bound_to 10162
  155.9872  130.4910  150.7114 LP  0  0  0  0  0  0  0  0  0  0  0  0  # atno 17370 bound_to 10713
  157.4635  131.0885  151.0720 LP  0  0  0  0  0  0  0  0  0  0  0  0  # atno 17371 bound_to 10713
  141.2034  133.6632  156.6063 LP  0  0  0  0  0  0  0  0  0  0  0  0  # atno 17394 bound_to 11000
  140.3537  134.7746  157.4485 LP  0  0  0  0  0  0  0  0  0  0  0  0  # atno 17395 bound_to 11000

$$$$
