AV-unprocessed.smi:89|AV-procd|sdf|826|dock7
  -GOLD-   2262017243D 1   1.00000     0.00000
 Structure written by MMmdl.
 54 56  0  0  0  0  0  0  0  0  1 V2000
  147.8804  138.4049  154.8027 C   0  0  0  0  0  0  0  0  0  0  0  0
  146.9702  138.5789  156.0308 C   0  0  0  0  0  0  0  0  0  0  0  0
  146.6217  137.3202  156.6943 N   0  0  0  0  0  0  0  0  0  0  0  0
  146.1714  136.3222  155.8867 C   0  0  0  0  0  0  0  0  0  0  0  0
  146.4280  135.0264  156.2058 N   0  0  0  0  0  0  0  0  0  0  0  0
  145.9953  134.0363  155.4206 C   0  0  0  0  0  0  0  0  0  0  0  0
  145.2977  134.1162  154.2866 N   0  0  0  0  0  0  0  0  0  0  0  0
  145.0391  135.4136  153.9563 C   0  0  0  0  0  0  0  0  0  0  0  0
  145.4425  136.5665  154.6880 C   0  0  0  0  0  0  0  0  0  0  0  0
  144.9951  137.7132  154.0428 N   0  0  0  0  0  0  0  0  0  0  0  0
  144.3641  137.2650  152.9927 C   0  0  0  0  0  0  0  0  0  0  0  0
  144.3326  135.8947  152.8680 N   0  0  0  0  0  0  0  0  0  0  0  0
  143.6884  135.1325  151.8095 C   0  0  0  0  0  0  0  0  0  0  0  0
  144.6902  134.5232  150.8013 C   0  0  2  0  0  0  0  0  0  0  0  0
  145.0821  135.5258  149.8791 O   0  0  0  0  0  0  0  0  0  0  0  0
  144.1431  133.3326  150.0190 C   0  0  0  0  0  0  0  0  0  0  0  0
  145.3861  132.4893  149.7736 C   0  0  0  0  0  0  0  0  0  0  0  0
  146.0886  132.6118  150.9987 O   0  0  0  0  0  0  0  0  0  0  0  0
  145.9588  133.9513  151.4652 C   0  0  0  0  0  0  0  0  0  0  0  0
  147.1806  137.0426  158.0281 C   0  0  2  0  0  0  0  0  0  0  0  0
  148.4629  136.1899  157.9805 C   0  0  0  0  0  0  0  0  0  0  0  0
  146.1547  136.4888  159.0459 C   0  0  0  0  0  0  0  0  0  0  0  0
  146.7181  136.7097  160.7934 S   0  0  0  0  0  0  0  0  0  0  0  0
  148.1863  136.7999  160.7874 O   0  0  0  0  0  0  0  0  0  0  0  0
  145.9279  137.7842  161.4126 O   0  0  0  0  0  0  0  0  0  0  0  0
  146.2215  135.1136  161.5777 C   0  0  0  0  0  0  0  0  0  0  0  0
  147.3828  134.4446  162.3229 C   0  0  0  0  0  0  0  0  0  0  0  0
  148.1537  139.3763  154.3908 H   0  0  0  0  0  0  0  0  0  0  0  0
  147.3833  137.8445  154.0105 H   0  0  0  0  0  0  0  0  0  0  0  0
  148.8026  137.8820  155.0525 H   0  0  0  0  0  0  0  0  0  0  0  0
  147.4741  139.2268  156.7482 H   0  0  0  0  0  0  0  0  0  0  0  0
  146.0626  139.1111  155.7493 H   0  0  0  0  0  0  0  0  0  0  0  0
  146.2424  133.0376  155.7487 H   0  0  0  0  0  0  0  0  0  0  0  0
  143.8914  137.9256  152.2805 H   0  0  0  0  0  0  0  0  0  0  0  0
  143.0860  134.3474  152.2686 H   0  0  0  0  0  0  0  0  0  0  0  0
  142.9890  135.7904  151.2918 H   0  0  0  0  0  0  0  0  0  0  0  0
  145.5956  135.1206  149.1970 H   0  0  0  0  0  0  0  0  0  0  0  0
  143.4524  132.7598  150.6385 H   0  0  0  0  0  0  0  0  0  0  0  0
  143.6176  133.6081  149.1033 H   0  0  0  0  0  0  0  0  0  0  0  0
  145.1534  131.4491  149.5448 H   0  0  0  0  0  0  0  0  0  0  0  0
  145.9862  132.8988  148.9594 H   0  0  0  0  0  0  0  0  0  0  0  0
  146.8530  134.5191  151.2025 H   0  0  0  0  0  0  0  0  0  0  0  0
  145.8888  133.9413  152.5534 H   0  0  0  0  0  0  0  0  0  0  0  0
  147.4877  138.0113  158.4237 H   0  0  0  0  0  0  0  0  0  0  0  0
  148.8868  136.0745  158.9781 H   0  0  0  0  0  0  0  0  0  0  0  0
  149.2295  136.6580  157.3642 H   0  0  0  0  0  0  0  0  0  0  0  0
  148.2813  135.1898  157.5890 H   0  0  0  0  0  0  0  0  0  0  0  0
  145.1653  136.9302  158.9393 H   0  0  0  0  0  0  0  0  0  0  0  0
  146.0361  135.4188  158.8830 H   0  0  0  0  0  0  0  0  0  0  0  0
  145.4096  135.3283  162.2726 H   0  0  0  0  0  0  0  0  0  0  0  0
  145.8230  134.4584  160.8030 H   0  0  0  0  0  0  0  0  0  0  0  0
  147.0458  133.5349  162.8201 H   0  0  0  0  0  0  0  0  0  0  0  0
  147.7956  135.1041  163.0862 H   0  0  0  0  0  0  0  0  0  0  0  0
  148.1891  134.1661  161.6458 H   0  0  0  0  0  0  0  0  0  0  0  0
  1  2  1  0  0  0  0
  1 28  1  0  0  0  0
  1 29  1  0  0  0  0
  1 30  1  0  0  0  0
  2  3  1  0  0  0  0
  2 31  1  0  0  0  0
  2 32  1  0  0  0  0
  3  4  1  0  0  0  0
  3 20  1  0  0  0  0
  4  9  1  0  0  0  0
  4  5  2  0  0  0  0
  5  6  1  0  0  0  0
  6  7  2  0  0  0  0
  6 33  1  0  0  0  0
  7  8  1  0  0  0  0
  8 12  1  0  0  0  0
  8  9  2  0  0  0  0
  9 10  1  0  0  0  0
 10 11  2  0  0  0  0
 11 12  1  0  0  0  0
 11 34  1  0  0  0  0
 12 13  1  0  0  0  0
 13 14  1  0  0  0  0
 13 35  1  0  0  0  0
 13 36  1  0  0  0  0
 14 19  1  0  0  0  0
 14 15  1  0  0  0  0
 14 16  1  0  0  0  0
 15 37  1  0  0  0  0
 16 17  1  0  0  0  0
 16 38  1  0  0  0  0
 16 39  1  0  0  0  0
 17 18  1  0  0  0  0
 17 40  1  0  0  0  0
 17 41  1  0  0  0  0
 18 19  1  0  0  0  0
 19 42  1  0  0  0  0
 19 43  1  0  0  0  0
 20 21  1  0  0  0  0
 20 22  1  0  0  0  0
 20 44  1  0  0  0  0
 21 45  1  0  0  0  0
 21 46  1  0  0  0  0
 21 47  1  0  0  0  0
 22 23  1  0  0  0  0
 22 48  1  0  0  0  0
 22 49  1  0  0  0  0
 23 24  2  0  0  0  0
 23 25  2  0  0  0  0
 23 26  1  0  0  0  0
 26 27  1  0  0  0  0
 26 50  1  0  0  0  0
 26 51  1  0  0  0  0
 27 52  1  0  0  0  0
 27 53  1  0  0  0  0
 27 54  1  0  0  0  0
M  END
> <s_m_source_file>
AV-unprocessed.smi

> <i_m_source_file_index>
89

> <i_lp_mmshare_version>
43012

> <i_f3d_flags>
0

> <s_epik_input>
W0NIM11bQ0gyXVMoPU8pKD1PKVtDSDJdW0NAQEhdKFtDSDNdKU4oW0NIMl1bQ0gzXSljKG5bY0hdbjEpYyhjMTIpbltjSF1uMltDSDJdW0NAQF0zKFtPSF0pW0NIMl1bQ0gyXU9bQ0gyXTM=

> <s_epik_cmdline>
J2VwaWtfcHl0aG9uJywgJy1waCcsICc3LjAnLCAnLXRuJywgJzgnLCAnLW1hJywgJzIwMCcsICctbWV0YWxfYmluZGluZycsICctaW1hZScsICc8aW5maWxlLm1hZT4nLCAnLW9tYWUnLCAnPG91dGZpbGUubWFlPic=

> <r_lp_tautomer_probability>
1

> <r_epik_Ionization_Penalty>
0.00103773

> <r_epik_Ionization_Penalty_Charging>
0

> <r_epik_Ionization_Penalty_Neutral>
0.00103773

> <r_epik_State_Penalty>
0.000558914

> <r_epik_Charging_Adjusted_Penalty>
0.000558914

> <i_epik_Tot_Q>
0

> <i_epik_Tot_abs_Q>
0

> <r_epik_Metal_State_Penalty>
-0

> <b_epik_Metal_Only>
0

> <s_lp_Force_Field>
OPLS_2005

> <r_lp_Energy>
26.3336

> <b_lp_Chiralities_Consistent>
1

> <s_lp_Variant>
AV-unprocessed.smi:89-2

> <Gold.Version>
5.8.1

> <Gold.Id.Protein>
6NUR|6NUR_protein|mol2

> <Gold.PLP.Fitness>
42.1190

> <Gold.PLP.PLP>
-29.4219

> <Gold.PLP.part.hbond>
-2.8847

> <Gold.PLP.part.metal>
0.0000

> <Gold.PLP.part.buried>
-7.5150

> <Gold.PLP.part.nonpolar>
-19.9006

> <Gold.PLP.part.repulsive>
0.3361

> <Gold.PLP.ligand.clash>
0.0000

> <Gold.PLP.ligand.torsion>
1.7014

> <Gold.PLP.Chemscore.Hbond>
2.9920

> <Gold.PLP.Chemscore.CHOScore>
1.9930

> <Gold.PLP.Chemscore.Metal>
0.0000

> <Gold.Chemscore.Hbonds>
donor molecule, donor type, donor heavy atom, donor atom, acceptor molecule, acceptor atom, score
      L1  H    15    37       P1  7921  1.00
      P1  H  6931  6943       L1    24  1.00
      P1  H  6934  6947       L1    25  0.56
      L1  C    11    34       P1 10171  0.96
      L1  C    11    34       P1 10175  0.95

> <Gold.PLP.Chemscore.Internal.Correction>
1.1448

> <Gold.Rescore>
     Score         DG    S(hbond)    S(metal)    S(lipo)     H(rot)  DE(clash)    DE(int)     intcor
      7.42     -11.22       2.01        0.00      60.47       3.14       0.07       3.74       ----

> <Gold.Chemscore.Fitness>
7.4180

> <Gold.Chemscore.DG>
-11.2189

> <Gold.Chemscore.ZeroCoef>
-5.4800

> <Gold.Chemscore.Hbond>
2.0058

> <Gold.Chemscore.Metal>
0.0000

> <Gold.Chemscore.Lipo>
60.4665

> <Gold.Chemscore.Internal_Hbond>
0.0000

> <Gold.Chemscore.DEClash>
0.0650

> <Gold.Chemscore.DEInternal>
3.7358

> <Gold.Chemscore.Rot>
3.1386

> <Gold.Chemscore.Internal.Correction>
   9.000000E+99

> <Gold.Chemscore.Hbonds>
donor molecule, donor type, donor heavy atom, donor atom, acceptor molecule, acceptor atom, score
      L1  H    15    37       P1  7921  0.99
      P1  H  6931  6943       L1    24  0.87
      P1  H  6934  6947       L1    25  0.04

> <Gold.Chemscore.Hbond.Weighted>
-6.6992

> <Gold.Chemscore.Metal.Weighted>
-0.0000

> <Gold.Chemscore.Lipo.Weighted>
-7.0746

> <Gold.Chemscore.Internal_Hbond.Weighted>
0.0000

> <Gold.Chemscore.DEClash.Weighted>
0.0650

> <Gold.Chemscore.DEInternal.Weighted>
3.7358

> <Gold.Chemscore.Rot.Weighted>
8.0349

> <Gold.Chemscore.Internal.Correction.Weighted>
   9.000000E+99

> <Gold.Protein.RotatedTorsions>
[ 6907 6896 6895 6894 ] final -131.31 input  -60.11 | X-H torsion
[ 7974 7965 7964 7962 ] final -138.39 input  175.53 | X-H torsion
[ 8008 7997 7996 7995 ] final  134.81 input   59.86 | X-H torsion
[ 10167 10162 10161 10158 ] final   11.76 input  -65.29 | X-H torsion
[ 10718 10713 10712 10709 ] final  128.98 input   66.30 | X-H torsion
[ 10763 10752 10751 10750 ] final -120.95 input  -60.55 | X-H torsion
[ 11005 11000 10999 10996 ] final -140.68 input  -57.11 | X-H torsion

> <Gold.Protein.ActiveResidues>
 VAL166  LYS551  ARG553  GLY616  TRP617  ASP618  TYR619  PRO620  LYS621  CYS622 
 ASP623  PHE694  ASN695  SER759  ASP760  ASP761  ALA762  ILE779  LEU786  VAL792 
 PHE793  MET794  SER795  GLU796  ALA797  LYS798  CYS799  TRP800  GLU811  SER814 

> <Gold.Protein.RotatedAtoms>
  150.9496  133.6565  159.2774 H   0  0  0  0  0  0  0  0  0  0  0  0  # atno 6907 bound_to 6896
  151.3925  135.0957  159.9540 H   0  0  0  0  0  0  0  0  0  0  0  0  # atno 6908 bound_to 6896
  152.5104  133.9007  159.7494 H   0  0  0  0  0  0  0  0  0  0  0  0  # atno 6909 bound_to 6896
  144.8762  140.6440  143.5235 H   0  0  0  0  0  0  0  0  0  0  0  0  # atno 7974 bound_to 7965
  156.3001  140.2486  156.3479 H   0  0  0  0  0  0  0  0  0  0  0  0  # atno 8008 bound_to 7997
  154.8994  140.0406  157.1903 H   0  0  0  0  0  0  0  0  0  0  0  0  # atno 8009 bound_to 7997
  154.8516  140.2907  155.5598 H   0  0  0  0  0  0  0  0  0  0  0  0  # atno 8010 bound_to 7997
  140.6111  143.8405  150.7067 H   0  0  0  0  0  0  0  0  0  0  0  0  # atno 10167 bound_to 10162
  157.5196  131.1098  150.9173 H   0  0  0  0  0  0  0  0  0  0  0  0  # atno 10718 bound_to 10713
  154.8657  135.4185  154.2542 H   0  0  0  0  0  0  0  0  0  0  0  0  # atno 10763 bound_to 10752
  153.3483  135.6997  153.6815 H   0  0  0  0  0  0  0  0  0  0  0  0  # atno 10764 bound_to 10752
  153.5766  135.3581  155.2831 H   0  0  0  0  0  0  0  0  0  0  0  0  # atno 10765 bound_to 10752
  140.8399  134.2415  157.4815 H   0  0  0  0  0  0  0  0  0  0  0  0  # atno 11005 bound_to 11000
  145.4038  139.1592  143.4163 LP  0  0  0  0  0  0  0  0  0  0  0  0  # atno 17320 bound_to 7965
  146.2964  140.4137  142.8720 LP  0  0  0  0  0  0  0  0  0  0  0  0  # atno 17321 bound_to 7965
  140.1974  143.3987  152.1817 LP  0  0  0  0  0  0  0  0  0  0  0  0  # atno 17342 bound_to 10162
  139.5362  144.7212  151.4885 LP  0  0  0  0  0  0  0  0  0  0  0  0  # atno 17343 bound_to 10162
  156.9788  130.5519  149.5295 LP  0  0  0  0  0  0  0  0  0  0  0  0  # atno 17370 bound_to 10713
  156.0344  130.5433  150.8616 LP  0  0  0  0  0  0  0  0  0  0  0  0  # atno 17371 bound_to 10713
  139.8703  134.9630  156.4447 LP  0  0  0  0  0  0  0  0  0  0  0  0  # atno 17394 bound_to 11000
  140.8907  133.7850  155.9568 LP  0  0  0  0  0  0  0  0  0  0  0  0  # atno 17395 bound_to 11000

$$$$
