AV-unprocessed.smi:199|AV-procd|sdf|1569|dock5
  -GOLD-   2262019443D 1   1.00000     0.00000
 Structure written by MMmdl.
 51 55  0  0  0  0  0  0  0  0  1 V2000
  149.0746  126.8198  151.0760 C   0  0  0  0  0  0  0  0  0  0  0  0
  148.9891  126.1369  152.4506 C   0  0  1  0  0  0  0  0  0  0  0  0
  149.7941  124.9672  152.4789 O   0  0  0  0  0  0  0  0  0  0  0  0
  149.9768  124.6230  153.8402 C   0  0  0  0  0  0  0  0  0  0  0  0
  150.2756  125.9683  154.4912 C   0  0  0  0  0  0  0  0  0  0  0  0
  149.4408  126.9662  153.6822 C   0  0  1  0  0  0  0  0  0  0  0  0
  150.2838  128.0441  153.3093 O   0  0  0  0  0  0  0  0  0  0  0  0
  148.2579  127.5381  154.5025 C   0  0  0  0  0  0  0  0  0  0  0  0
  147.3562  128.3684  153.7180 N   0  0  0  0  0  0  0  0  0  0  0  0
  146.4257  127.9368  152.8008 C   0  0  0  0  0  0  0  0  0  0  0  0
  145.7239  128.8797  152.2358 N   0  0  0  0  0  0  0  0  0  0  0  0
  146.2161  130.0561  152.7896 C   0  0  0  0  0  0  0  0  0  0  0  0
  145.9094  131.4391  152.6307 C   0  0  0  0  0  0  0  0  0  0  0  0
  144.9481  131.9098  151.7894 N   0  0  0  0  0  0  0  0  0  0  0  0
  144.4611  133.2793  151.8972 C   0  0  1  0  0  0  0  0  0  0  0  0
  145.6030  134.1331  151.3069 C   0  0  0  0  0  0  0  0  0  0  0  0
  146.1512  133.1906  150.2254 C   0  0  0  0  0  0  0  0  0  0  0  0
  145.1936  131.9859  150.3568 C   0  0  2  0  0  0  0  0  0  0  0  0
  143.7781  132.3163  149.8281 C   0  0  2  0  0  0  0  0  0  0  0  0
  143.6651  132.8431  148.3852 C   0  0  0  0  0  0  0  0  0  0  0  0
  143.7177  134.2538  148.3731 O   0  0  0  0  0  0  0  0  0  0  0  0
  143.2794  133.2902  150.9113 C   0  0  0  0  0  0  0  0  0  0  0  0
  146.6071  132.3216  153.3948 N   0  0  0  0  0  0  0  0  0  0  0  0
  147.5555  131.8935  154.2317 C   0  0  0  0  0  0  0  0  0  0  0  0
  147.9555  130.6438  154.4691 N   0  0  0  0  0  0  0  0  0  0  0  0
  147.2460  129.7484  153.7248 C   0  0  0  0  0  0  0  0  0  0  0  0
  148.4720  127.7279  151.0486 H   0  0  0  0  0  0  0  0  0  0  0  0
  148.7066  126.1567  150.2933 H   0  0  0  0  0  0  0  0  0  0  0  0
  150.1010  127.0866  150.8235 H   0  0  0  0  0  0  0  0  0  0  0  0
  147.9646  125.7958  152.6024 H   0  0  0  0  0  0  0  0  0  0  0  0
  149.0580  124.1889  154.2381 H   0  0  0  0  0  0  0  0  0  0  0  0
  150.7847  123.9028  153.9700 H   0  0  0  0  0  0  0  0  0  0  0  0
  150.0455  125.9703  155.5572 H   0  0  0  0  0  0  0  0  0  0  0  0
  151.3422  126.1762  154.3899 H   0  0  0  0  0  0  0  0  0  0  0  0
  150.7901  127.7823  152.5557 H   0  0  0  0  0  0  0  0  0  0  0  0
  147.6793  126.7230  154.9391 H   0  0  0  0  0  0  0  0  0  0  0  0
  148.6258  128.1311  155.3410 H   0  0  0  0  0  0  0  0  0  0  0  0
  146.2743  126.8925  152.5700 H   0  0  0  0  0  0  0  0  0  0  0  0
  144.1669  133.5849  152.9020 H   0  0  0  0  0  0  0  0  0  0  0  0
  145.2526  135.0833  150.9024 H   0  0  0  0  0  0  0  0  0  0  0  0
  146.3680  134.3473  152.0540 H   0  0  0  0  0  0  0  0  0  0  0  0
  146.1705  133.6360  149.2321 H   0  0  0  0  0  0  0  0  0  0  0  0
  147.1729  132.8933  150.4664 H   0  0  0  0  0  0  0  0  0  0  0  0
  145.5895  131.0791  149.9037 H   0  0  0  0  0  0  0  0  0  0  0  0
  143.1796  131.4056  149.8957 H   0  0  0  0  0  0  0  0  0  0  0  0
  144.4954  132.4643  147.7887 H   0  0  0  0  0  0  0  0  0  0  0  0
  142.7529  132.5053  147.8948 H   0  0  0  0  0  0  0  0  0  0  0  0
  144.4968  134.5217  147.9103 H   0  0  0  0  0  0  0  0  0  0  0  0
  142.3730  132.9062  151.3812 H   0  0  0  0  0  0  0  0  0  0  0  0
  143.0633  134.2898  150.5319 H   0  0  0  0  0  0  0  0  0  0  0  0
  148.0654  132.6626  154.7927 H   0  0  0  0  0  0  0  0  0  0  0  0
  1  2  1  0  0  0  0
  1 27  1  0  0  0  0
  1 28  1  0  0  0  0
  1 29  1  0  0  0  0
  2  6  1  0  0  0  0
  2  3  1  0  0  0  0
  2 30  1  0  0  0  0
  3  4  1  0  0  0  0
  4  5  1  0  0  0  0
  4 31  1  0  0  0  0
  4 32  1  0  0  0  0
  5  6  1  0  0  0  0
  5 33  1  0  0  0  0
  5 34  1  0  0  0  0
  6  7  1  0  0  0  0
  6  8  1  0  0  0  0
  7 35  1  0  0  0  0
  8  9  1  0  0  0  0
  8 36  1  0  0  0  0
  8 37  1  0  0  0  0
  9 26  1  0  0  0  0
  9 10  1  0  0  0  0
 10 11  2  0  0  0  0
 10 38  1  0  0  0  0
 11 12  1  0  0  0  0
 12 26  2  0  0  0  0
 12 13  1  0  0  0  0
 13 14  1  0  0  0  0
 13 23  2  0  0  0  0
 14 18  1  0  0  0  0
 14 15  1  0  0  0  0
 15 22  1  0  0  0  0
 15 16  1  0  0  0  0
 15 39  1  0  0  0  0
 16 17  1  0  0  0  0
 16 40  1  0  0  0  0
 16 41  1  0  0  0  0
 17 18  1  0  0  0  0
 17 42  1  0  0  0  0
 17 43  1  0  0  0  0
 18 19  1  0  0  0  0
 18 44  1  0  0  0  0
 19 20  1  0  0  0  0
 19 22  1  0  0  0  0
 19 45  1  0  0  0  0
 20 21  1  0  0  0  0
 20 46  1  0  0  0  0
 20 47  1  0  0  0  0
 21 48  1  0  0  0  0
 22 49  1  0  0  0  0
 22 50  1  0  0  0  0
 23 24  1  0  0  0  0
 24 25  2  0  0  0  0
 24 51  1  0  0  0  0
 25 26  1  0  0  0  0
M  END
> <s_m_source_file>
AV-unprocessed.smi

> <i_m_source_file_index>
199

> <i_lp_mmshare_version>
43012

> <i_f3d_flags>
0

> <s_epik_input>
W0NIMl0xW0NIMl1PW0NAQEhdKFtDSDNdKVtDQEBdMShbT0hdKVtDSDJdbihbY0hdbjIpYyhjMjMpbltjSF1uYzNOKFtDQEBIXTQ1KVtDQEhdKFtDSDJdW0NIMl00KVtDQEhdKFtDSDJdNSlbQ0gyXVtPSF0=

> <s_epik_cmdline>
J2VwaWtfcHl0aG9uJywgJy1waCcsICc3LjAnLCAnLXRuJywgJzgnLCAnLW1hJywgJzIwMCcsICctbWV0YWxfYmluZGluZycsICctaW1hZScsICc8aW5maWxlLm1hZT4nLCAnLW9tYWUnLCAnPG91dGZpbGUubWFlPic=

> <r_lp_tautomer_probability>
1

> <r_epik_Ionization_Penalty>
0.00583903

> <r_epik_Ionization_Penalty_Charging>
0

> <r_epik_Ionization_Penalty_Neutral>
0.00583903

> <r_epik_State_Penalty>
-0

> <r_epik_Charging_Adjusted_Penalty>
0

> <i_epik_Tot_Q>
0

> <i_epik_Tot_abs_Q>
0

> <r_epik_Metal_State_Penalty>
-0

> <b_epik_Metal_Only>
0

> <s_lp_Force_Field>
OPLS_2005

> <r_lp_Energy>
83.7467

> <b_lp_Chiralities_Consistent>
1

> <s_lp_Variant>
AV-unprocessed.smi:199-10

> <Gold.Version>
5.8.1

> <Gold.Id.Protein>
6NUR|6NUR_protein|mol2

> <Gold.PLP.Fitness>
42.5772

> <Gold.PLP.PLP>
-37.6318

> <Gold.PLP.part.hbond>
-2.6580

> <Gold.PLP.part.metal>
0.0000

> <Gold.PLP.part.buried>
-4.8475

> <Gold.PLP.part.nonpolar>
-31.8887

> <Gold.PLP.part.repulsive>
0.4776

> <Gold.PLP.ligand.clash>
0.0000

> <Gold.PLP.ligand.torsion>
1.0229

> <Gold.PLP.Chemscore.Hbond>
2.3185

> <Gold.PLP.Chemscore.CHOScore>
0.0000

> <Gold.PLP.Chemscore.Metal>
0.0000

> <Gold.Chemscore.Hbonds>
donor molecule, donor type, donor heavy atom, donor atom, acceptor molecule, acceptor atom, score
      L1  H     7    35       P1 10737  0.94
      L1  H    21    48       P1  7921  1.00
      P1  H 10192 10197       L1    21  0.37

> <Gold.PLP.Chemscore.Internal.Correction>
0.0356

> <Gold.Rescore>
     Score         DG    S(hbond)    S(metal)    S(lipo)     H(rot)  DE(clash)    DE(int)     intcor
     12.47     -15.06       2.03        0.00      91.14       3.07       0.47       2.13       ----

> <Gold.Chemscore.Fitness>
12.4683

> <Gold.Chemscore.DG>
-15.0613

> <Gold.Chemscore.ZeroCoef>
-5.4800

> <Gold.Chemscore.Hbond>
2.0314

> <Gold.Chemscore.Metal>
0.0000

> <Gold.Chemscore.Lipo>
91.1392

> <Gold.Chemscore.Internal_Hbond>
0.0000

> <Gold.Chemscore.DEClash>
0.4657

> <Gold.Chemscore.DEInternal>
2.1273

> <Gold.Chemscore.Rot>
3.0729

> <Gold.Chemscore.Internal.Correction>
   9.000000E+99

> <Gold.Chemscore.Hbonds>
donor molecule, donor type, donor heavy atom, donor atom, acceptor molecule, acceptor atom, score
      L1  H     7    35       P1 10737  0.88
      L1  H    21    48       P1  7921  0.99
      P1  H 10192 10197       L1    21  0.14

> <Gold.Chemscore.Hbond.Weighted>
-6.7847

> <Gold.Chemscore.Metal.Weighted>
-0.0000

> <Gold.Chemscore.Lipo.Weighted>
-10.6633

> <Gold.Chemscore.Internal_Hbond.Weighted>
0.0000

> <Gold.Chemscore.DEClash.Weighted>
0.4657

> <Gold.Chemscore.DEInternal.Weighted>
2.1273

> <Gold.Chemscore.Rot.Weighted>
7.8667

> <Gold.Chemscore.Internal.Correction.Weighted>
   9.000000E+99

> <Gold.Protein.RotatedTorsions>
[ 6907 6896 6895 6894 ] final -107.87 input  -60.11 | X-H torsion
[ 7974 7965 7964 7962 ] final -176.24 input  175.53 | X-H torsion
[ 8008 7997 7996 7995 ] final -107.19 input   59.86 | X-H torsion
[ 10167 10162 10161 10158 ] final -172.81 input  -65.29 | X-H torsion
[ 10718 10713 10712 10709 ] final  170.12 input   66.30 | X-H torsion
[ 10763 10752 10751 10750 ] final  144.29 input  -60.55 | X-H torsion
[ 11005 11000 10999 10996 ] final  104.97 input  -57.11 | X-H torsion

> <Gold.Protein.ActiveResidues>
 VAL166  LYS551  ARG553  GLY616  TRP617  ASP618  TYR619  PRO620  LYS621  CYS622 
 ASP623  PHE694  ASN695  SER759  ASP760  ASP761  ALA762  ILE779  LEU786  VAL792 
 PHE793  MET794  SER795  GLU796  ALA797  LYS798  CYS799  TRP800  GLU811  SER814 

> <Gold.Protein.RotatedAtoms>
  150.7469  133.9762  159.3561 H   0  0  0  0  0  0  0  0  0  0  0  0  # atno 6907 bound_to 6896
  151.7700  135.0787  160.0368 H   0  0  0  0  0  0  0  0  0  0  0  0  # atno 6908 bound_to 6896
  152.3345  133.5959  159.5869 H   0  0  0  0  0  0  0  0  0  0  0  0  # atno 6909 bound_to 6896
  144.7127  140.1200  143.6406 H   0  0  0  0  0  0  0  0  0  0  0  0  # atno 7974 bound_to 7965
  154.9257  140.0406  157.2021 H   0  0  0  0  0  0  0  0  0  0  0  0  # atno 8008 bound_to 7997
  154.8210  140.2883  155.5765 H   0  0  0  0  0  0  0  0  0  0  0  0  # atno 8009 bound_to 7997
  156.2980  140.2519  156.3117 H   0  0  0  0  0  0  0  0  0  0  0  0  # atno 8010 bound_to 7997
  139.5724  144.1611  152.1402 H   0  0  0  0  0  0  0  0  0  0  0  0  # atno 10167 bound_to 10162
  157.0127  131.0209  151.2798 H   0  0  0  0  0  0  0  0  0  0  0  0  # atno 10718 bound_to 10713
  153.9865  135.2936  155.3416 H   0  0  0  0  0  0  0  0  0  0  0  0  # atno 10763 bound_to 10752
  154.7239  135.5097  153.8858 H   0  0  0  0  0  0  0  0  0  0  0  0  # atno 10764 bound_to 10752
  153.0830  135.6684  154.0122 H   0  0  0  0  0  0  0  0  0  0  0  0  # atno 10765 bound_to 10752
  139.8797  134.9319  156.5442 H   0  0  0  0  0  0  0  0  0  0  0  0  # atno 11005 bound_to 11000
  145.9379  139.2649  143.1286 LP  0  0  0  0  0  0  0  0  0  0  0  0  # atno 17320 bound_to 7965
  145.9454  140.8948  143.0286 LP  0  0  0  0  0  0  0  0  0  0  0  0  # atno 17321 bound_to 7965
  140.1147  144.5426  150.6902 LP  0  0  0  0  0  0  0  0  0  0  0  0  # atno 17342 bound_to 10162
  140.7008  143.2433  151.4871 LP  0  0  0  0  0  0  0  0  0  0  0  0  # atno 17343 bound_to 10162
  157.5308  130.8057  149.7915 LP  0  0  0  0  0  0  0  0  0  0  0  0  # atno 17370 bound_to 10713
  156.0130  130.3825  150.2201 LP  0  0  0  0  0  0  0  0  0  0  0  0  # atno 17371 bound_to 10713
  140.8288  133.8295  155.8964 LP  0  0  0  0  0  0  0  0  0  0  0  0  # atno 17394 bound_to 11000
  140.9349  134.1975  157.4838 LP  0  0  0  0  0  0  0  0  0  0  0  0  # atno 17395 bound_to 11000

$$$$
