AV-unprocessed.smi:877|AV-procd|sdf|4029|dock5
  -GOLD-   22720 1523D 1   1.00000     0.00000
 Structure written by MMmdl.
 44 46  0  0  0  0  0  0  0  0  2 V2000
  144.3213  133.2028  151.0068 C   0  0  0  0  0  0  0  0  0  0  0  0
  144.2760  134.0611  152.1373 O   0  0  0  0  0  0  0  0  0  0  0  0
  144.9003  135.2866  152.0468 C   0  0  0  0  0  0  0  0  0  0  0  0
  144.8622  136.1108  153.1902 C   0  0  0  0  0  0  0  0  0  0  0  0
  145.4677  137.3817  153.1848 C   0  0  0  0  0  0  0  0  0  0  0  0
  146.1248  137.8465  152.0283 C   0  0  0  0  0  0  0  0  0  0  0  0
  146.7669  139.2216  152.0100 C   0  0  0  0  0  0  0  0  0  0  0  0
  147.7043  139.4404  153.1576 C   0  0  0  0  0  0  0  0  0  0  0  0
  148.7561  138.6398  153.4964 N   0  3  0  0  0  0  0  0  0  0  0  0
  149.3950  139.1479  154.6271 C   0  0  0  0  0  0  0  0  0  0  0  0
  150.4944  138.6805  155.3403 C   0  0  0  0  0  0  0  0  0  0  0  0
  150.8933  139.4420  156.4584 C   0  0  0  0  0  0  0  0  0  0  0  0
  150.2084  140.6178  156.8281 C   0  0  0  0  0  0  0  0  0  0  0  0
  149.0948  141.0816  156.0965 C   0  0  0  0  0  0  0  0  0  0  0  0
  148.7065  140.3219  154.9934 C   0  0  0  0  0  0  0  0  0  0  0  0
  147.6748  140.4656  154.0588 N   0  0  0  0  0  0  0  0  0  0  0  0
  146.7626  141.6149  154.1747 C   0  0  0  0  0  0  0  0  0  0  0  0
  145.9006  141.5692  155.4525 C   0  0  2  0  0  0  0  0  0  0  0  0
  145.0399  140.4479  155.3892 O   0  0  0  0  0  0  0  0  0  0  0  0
  145.0512  142.8416  155.6134 C   0  0  0  0  0  0  0  0  0  0  0  0
  144.2935  142.7791  156.8031 O   0  0  0  0  0  0  0  0  0  0  0  0
  146.1748  137.0284  150.8816 C   0  0  0  0  0  0  0  0  0  0  0  0
  145.5666  135.7580  150.8874 C   0  0  0  0  0  0  0  0  0  0  0  0
  143.7751  132.2863  151.2293 H   0  0  0  0  0  0  0  0  0  0  0  0
  145.3460  132.9240  150.7580 H   0  0  0  0  0  0  0  0  0  0  0  0
  143.8504  133.6638  150.1374 H   0  0  0  0  0  0  0  0  0  0  0  0
  144.3598  135.7650  154.0817 H   0  0  0  0  0  0  0  0  0  0  0  0
  145.4221  137.9977  154.0710 H   0  0  0  0  0  0  0  0  0  0  0  0
  147.3119  139.3705  151.0774 H   0  0  0  0  0  0  0  0  0  0  0  0
  145.9753  139.9705  152.0314 H   0  0  0  0  0  0  0  0  0  0  0  0
  151.0198  137.7794  155.0593 H   0  0  0  0  0  0  0  0  0  0  0  0
  151.7411  139.1176  157.0445 H   0  0  0  0  0  0  0  0  0  0  0  0
  150.5428  141.1752  157.6911 H   0  0  0  0  0  0  0  0  0  0  0  0
  148.5750  141.9814  156.3902 H   0  0  0  0  0  0  0  0  0  0  0  0
  147.3567  142.5287  154.1396 H   0  0  0  0  0  0  0  0  0  0  0  0
  146.1303  141.6331  153.2866 H   0  0  0  0  0  0  0  0  0  0  0  0
  146.5554  141.4541  156.3174 H   0  0  0  0  0  0  0  0  0  0  0  0
  144.5907  140.4602  154.5579 H   0  0  0  0  0  0  0  0  0  0  0  0
  145.6964  143.7179  155.6860 H   0  0  0  0  0  0  0  0  0  0  0  0
  144.3948  142.9963  154.7562 H   0  0  0  0  0  0  0  0  0  0  0  0
  144.8566  142.9948  157.5308 H   0  0  0  0  0  0  0  0  0  0  0  0
  146.6755  137.3766  149.9897 H   0  0  0  0  0  0  0  0  0  0  0  0
  145.6244  135.1640  149.9880 H   0  0  0  0  0  0  0  0  0  0  0  0
  149.0079  137.7996  152.9916 H   0  0  0  0  0  0  0  0  0  0  0  0
  1  2  1  0  0  0  0
  1 24  1  0  0  0  0
  1 25  1  0  0  0  0
  1 26  1  0  0  0  0
  2  3  1  0  0  0  0
  3 23  1  0  0  0  0
  3  4  2  0  0  0  0
  4  5  1  0  0  0  0
  4 27  1  0  0  0  0
  5  6  2  0  0  0  0
  5 28  1  0  0  0  0
  6  7  1  0  0  0  0
  6 22  1  0  0  0  0
  7  8  1  0  0  0  0
  7 29  1  0  0  0  0
  7 30  1  0  0  0  0
  8 16  1  0  0  0  0
  8  9  2  0  0  0  0
  9 10  1  0  0  0  0
  9 44  1  0  0  0  0
 10 15  2  0  0  0  0
 10 11  1  0  0  0  0
 11 12  2  0  0  0  0
 11 31  1  0  0  0  0
 12 13  1  0  0  0  0
 12 32  1  0  0  0  0
 13 14  2  0  0  0  0
 13 33  1  0  0  0  0
 14 15  1  0  0  0  0
 14 34  1  0  0  0  0
 15 16  1  0  0  0  0
 16 17  1  0  0  0  0
 17 18  1  0  0  0  0
 17 35  1  0  0  0  0
 17 36  1  0  0  0  0
 18 19  1  0  0  0  0
 18 20  1  0  0  0  0
 18 37  1  0  0  0  0
 19 38  1  0  0  0  0
 20 21  1  0  0  0  0
 20 39  1  0  0  0  0
 20 40  1  0  0  0  0
 21 41  1  0  0  0  0
 22 23  2  0  0  0  0
 22 42  1  0  0  0  0
 23 43  1  0  0  0  0
M  CHG  1   9   1
M  END
> <s_m_source_file>
AV-unprocessed.smi

> <i_m_source_file_index>
877

> <i_lp_mmshare_version>
43012

> <i_f3d_flags>
0

> <s_epik_input>
W0NIM11PYzFbY0hdW2NIXWMoW2NIXVtjSF0xKVtDSDJdYyhuMiluKFtDSDJdW0NASF0oW09IXSlbQ0gyXVtPSF0pYyhjMjMpW2NIXVtjSF1bY0hdW2NIXTM=

> <s_epik_cmdline>
J2VwaWtfcHl0aG9uJywgJy1waCcsICc3LjAnLCAnLXRuJywgJzgnLCAnLW1hJywgJzIwMCcsICctbWV0YWxfYmluZGluZycsICctaW1hZScsICc8aW5maWxlLm1hZT4nLCAnLW9tYWUnLCAnPG91dGZpbGUubWFlPic=

> <r_lp_tautomer_probability>
1

> <r_epik_Ionization_Penalty>
1.37112

> <r_epik_Ionization_Penalty_Charging>
1.37111

> <r_epik_Ionization_Penalty_Neutral>
4.48252e-07

> <r_epik_State_Penalty>
1.45083

> <r_epik_Charging_Adjusted_Penalty>
2.82194

> <i_epik_Tot_Q>
1

> <i_epik_Tot_abs_Q>
1

> <r_epik_Metal_State_Penalty>
5.49009

> <b_epik_Metal_Only>
0

> <s_lp_Force_Field>
OPLS_2005

> <r_lp_Energy>
22.2712

> <b_lp_Chiralities_Consistent>
1

> <s_lp_Variant>
AV-unprocessed.smi:877-3

> <Gold.Version>
5.8.1

> <Gold.Id.Protein>
6NUR|6NUR_protein|mol2

> <Gold.PLP.Fitness>
50.8135

> <Gold.PLP.PLP>
-42.0044

> <Gold.PLP.part.hbond>
-3.0000

> <Gold.PLP.part.metal>
0.0000

> <Gold.PLP.part.buried>
5.9071

> <Gold.PLP.part.nonpolar>
-46.3461

> <Gold.PLP.part.repulsive>
0.1940

> <Gold.PLP.ligand.clash>
0.0000

> <Gold.PLP.ligand.torsion>
0.1404

> <Gold.PLP.Chemscore.Hbond>
3.0000

> <Gold.PLP.Chemscore.CHOScore>
0.0000

> <Gold.PLP.Chemscore.Metal>
0.0000

> <Gold.Chemscore.Hbonds>
donor molecule, donor type, donor heavy atom, donor atom, acceptor molecule, acceptor atom, score
      L1  H     9    44       P1  7948  2.00
      L1  H    19    38       P1 10175  0.44

> <Gold.PLP.Chemscore.Internal.Correction>
0.0900

> <Gold.Rescore>
     Score         DG    S(hbond)    S(metal)    S(lipo)     H(rot)  DE(clash)    DE(int)     intcor
     13.58     -16.62       1.99        0.00     109.19       3.23       2.51       0.53       ----

> <Gold.Chemscore.Fitness>
13.5759

> <Gold.Chemscore.DG>
-16.6161

> <Gold.Chemscore.ZeroCoef>
-5.4800

> <Gold.Chemscore.Hbond>
1.9860

> <Gold.Chemscore.Metal>
0.0000

> <Gold.Chemscore.Lipo>
109.1930

> <Gold.Chemscore.Internal_Hbond>
0.0000

> <Gold.Chemscore.DEClash>
2.5062

> <Gold.Chemscore.DEInternal>
0.5339

> <Gold.Chemscore.Rot>
3.2315

> <Gold.Chemscore.Internal.Correction>
   9.000000E+99

> <Gold.Chemscore.Hbonds>
donor molecule, donor type, donor heavy atom, donor atom, acceptor molecule, acceptor atom, score
      L1  H     9    44       P1  7948  1.00
      L1  H    19    38       P1 10175  0.44

> <Gold.Chemscore.Hbond.Weighted>
-6.6332

> <Gold.Chemscore.Metal.Weighted>
-0.0000

> <Gold.Chemscore.Lipo.Weighted>
-12.7756

> <Gold.Chemscore.Internal_Hbond.Weighted>
0.0000

> <Gold.Chemscore.DEClash.Weighted>
2.5062

> <Gold.Chemscore.DEInternal.Weighted>
0.5339

> <Gold.Chemscore.Rot.Weighted>
8.2727

> <Gold.Chemscore.Internal.Correction.Weighted>
   9.000000E+99

> <Gold.Protein.RotatedTorsions>
[ 6907 6896 6895 6894 ] final -121.46 input  -60.11 | X-H torsion
[ 7974 7965 7964 7962 ] final -127.86 input  175.53 | X-H torsion
[ 8008 7997 7996 7995 ] final   37.75 input   59.86 | X-H torsion
[ 10167 10162 10161 10158 ] final   79.54 input  -65.29 | X-H torsion
[ 10718 10713 10712 10709 ] final -168.74 input   66.30 | X-H torsion
[ 10763 10752 10751 10750 ] final  -53.93 input  -60.55 | X-H torsion
[ 11005 11000 10999 10996 ] final  164.53 input  -57.11 | X-H torsion

> <Gold.Protein.ActiveResidues>
 VAL166  LYS551  ARG553  GLY616  TRP617  ASP618  TYR619  PRO620  LYS621  CYS622 
 ASP623  PHE694  ASN695  SER759  ASP760  ASP761  ALA762  ILE779  LEU786  VAL792 
 PHE793  MET794  SER795  GLU796  ALA797  LYS798  CYS799  TRP800  GLU811  SER814 

> <Gold.Protein.RotatedAtoms>
  150.8485  133.7824  159.3033 H   0  0  0  0  0  0  0  0  0  0  0  0  # atno 6907 bound_to 6896
  151.5503  135.1066  159.9957 H   0  0  0  0  0  0  0  0  0  0  0  0  # atno 6908 bound_to 6896
  152.4533  133.7630  159.6813 H   0  0  0  0  0  0  0  0  0  0  0  0  # atno 6909 bound_to 6896
  144.9729  140.7563  143.4660 H   0  0  0  0  0  0  0  0  0  0  0  0  # atno 7974 bound_to 7965
  155.2088  140.3322  155.4332 H   0  0  0  0  0  0  0  0  0  0  0  0  # atno 8008 bound_to 7997
  156.2378  140.1880  156.7120 H   0  0  0  0  0  0  0  0  0  0  0  0  # atno 8009 bound_to 7997
  154.6092  140.0611  156.9456 H   0  0  0  0  0  0  0  0  0  0  0  0  # atno 8010 bound_to 7997
  139.9592  144.5972  150.8088 H   0  0  0  0  0  0  0  0  0  0  0  0  # atno 10167 bound_to 10162
  156.7013  130.9198  151.3080 H   0  0  0  0  0  0  0  0  0  0  0  0  # atno 10718 bound_to 10713
  154.1667  135.6466  153.4999 H   0  0  0  0  0  0  0  0  0  0  0  0  # atno 10763 bound_to 10752
  153.0095  135.5373  154.6655 H   0  0  0  0  0  0  0  0  0  0  0  0  # atno 10764 bound_to 10752
  154.5983  135.2941  155.0535 H   0  0  0  0  0  0  0  0  0  0  0  0  # atno 10765 bound_to 10752
  140.2468  134.8008  157.3464 H   0  0  0  0  0  0  0  0  0  0  0  0  # atno 11005 bound_to 11000
  145.2533  139.2022  143.4931 LP  0  0  0  0  0  0  0  0  0  0  0  0  # atno 17320 bound_to 7965
  146.3387  140.2450  142.8597 LP  0  0  0  0  0  0  0  0  0  0  0  0  # atno 17321 bound_to 7965
  140.7558  143.3054  151.2975 LP  0  0  0  0  0  0  0  0  0  0  0  0  # atno 17342 bound_to 10162
  139.6567  144.0263  152.2664 LP  0  0  0  0  0  0  0  0  0  0  0  0  # atno 17343 bound_to 10162
  157.6972  130.9294  150.0678 LP  0  0  0  0  0  0  0  0  0  0  0  0  # atno 17370 bound_to 10713
  156.1726  130.3647  149.9143 LP  0  0  0  0  0  0  0  0  0  0  0  0  # atno 17371 bound_to 10713
  140.1598  134.4743  155.7903 LP  0  0  0  0  0  0  0  0  0  0  0  0  # atno 17394 bound_to 11000
  141.2205  133.6896  156.7524 LP  0  0  0  0  0  0  0  0  0  0  0  0  # atno 17395 bound_to 11000

$$$$
