AV-unprocessed.smi:1772|AV-procd|sdf|7161|dock3
  -GOLD-   22720 8403D 1   1.00000     0.00000
 Structure written by MMmdl.
 34 35  0  0  0  0  0  0  0  0  2 V2000
  145.5161  129.3491  152.4254 O   0  0  0  0  0  0  0  0  0  0  0  0
  146.4922  129.7595  151.7980 C   0  0  0  0  0  0  0  0  0  0  0  0
  147.7167  129.2244  151.9036 N   0  0  0  0  0  0  0  0  0  0  0  0
  148.0657  128.0939  152.7582 C   0  0  0  0  0  0  0  0  0  0  0  0
  148.8189  126.9887  151.9912 C   0  0  2  0  0  0  0  0  0  0  0  0
  148.4447  126.9143  150.4956 C   0  0  0  0  0  0  0  0  0  0  0  0
  149.0076  125.6150  149.9130 C   0  0  0  0  0  0  0  0  0  0  0  0
  148.9023  124.3842  151.2639 S   0  0  0  0  0  0  0  0  0  0  0  0
  147.6985  123.5592  151.0808 O   0  0  0  0  0  0  0  0  0  0  0  0
  150.2230  123.7659  151.4532 O   0  0  0  0  0  0  0  0  0  0  0  0
  148.5925  125.5972  152.6038 C   0  0  0  0  0  0  0  0  0  0  0  0
  146.4864  130.7999  150.9464 N   0  0  0  0  0  0  0  0  0  0  0  0
  145.3876  131.6055  150.5416 C   0  0  0  0  0  0  0  0  0  0  0  0
  144.4422  131.9670  151.5271 C   0  0  0  0  0  0  0  0  0  0  0  0
  143.3462  132.7808  151.1748 C   0  0  0  0  0  0  0  0  0  0  0  0
  143.2140  133.2167  149.9037 N   0  3  0  0  0  0  0  0  0  0  0  0
  144.0991  132.9103  148.9308 C   0  0  0  0  0  0  0  0  0  0  0  0
  145.2144  132.0989  149.2233 C   0  0  0  0  0  0  0  0  0  0  0  0
  148.4635  129.6254  151.3551 H   0  0  0  0  0  0  0  0  0  0  0  0
  148.6613  128.4393  153.6049 H   0  0  0  0  0  0  0  0  0  0  0  0
  147.1422  127.6937  153.1781 H   0  0  0  0  0  0  0  0  0  0  0  0
  149.8897  127.1913  152.0469 H   0  0  0  0  0  0  0  0  0  0  0  0
  147.3583  126.9022  150.3980 H   0  0  0  0  0  0  0  0  0  0  0  0
  148.8046  127.7816  149.9412 H   0  0  0  0  0  0  0  0  0  0  0  0
  148.4606  125.2647  149.0374 H   0  0  0  0  0  0  0  0  0  0  0  0
  150.0579  125.7340  149.6459 H   0  0  0  0  0  0  0  0  0  0  0  0
  149.2493  125.3963  153.4504 H   0  0  0  0  0  0  0  0  0  0  0  0
  147.5598  125.4721  152.9308 H   0  0  0  0  0  0  0  0  0  0  0  0
  147.3853  131.0769  150.5797 H   0  0  0  0  0  0  0  0  0  0  0  0
  144.5492  131.6214  152.5453 H   0  0  0  0  0  0  0  0  0  0  0  0
  142.5788  133.0963  151.8668 H   0  0  0  0  0  0  0  0  0  0  0  0
  143.8941  133.3258  147.9550 H   0  0  0  0  0  0  0  0  0  0  0  0
  145.9202  131.8836  148.4355 H   0  0  0  0  0  0  0  0  0  0  0  0
  142.4150  133.8067  149.6693 H   0  0  0  0  0  0  0  0  0  0  0  0
  1  2  2  0  0  0  0
  2  3  1  0  0  0  0
  2 12  1  0  0  0  0
  3  4  1  0  0  0  0
  3 19  1  0  0  0  0
  4  5  1  0  0  0  0
  4 20  1  0  0  0  0
  4 21  1  0  0  0  0
  5 11  1  0  0  0  0
  5  6  1  0  0  0  0
  5 22  1  0  0  0  0
  6  7  1  0  0  0  0
  6 23  1  0  0  0  0
  6 24  1  0  0  0  0
  7  8  1  0  0  0  0
  7 25  1  0  0  0  0
  7 26  1  0  0  0  0
  8  9  2  0  0  0  0
  8 10  2  0  0  0  0
  8 11  1  0  0  0  0
 11 27  1  0  0  0  0
 11 28  1  0  0  0  0
 12 13  1  0  0  0  0
 12 29  1  0  0  0  0
 13 18  1  0  0  0  0
 13 14  2  0  0  0  0
 14 15  1  0  0  0  0
 14 30  1  0  0  0  0
 15 16  2  0  0  0  0
 15 31  1  0  0  0  0
 16 17  1  0  0  0  0
 16 34  1  0  0  0  0
 17 18  2  0  0  0  0
 17 32  1  0  0  0  0
 18 33  1  0  0  0  0
M  CHG  1  16   1
M  END
> <s_m_source_file>
AV-unprocessed.smi

> <i_m_source_file_index>
1772

> <i_lp_mmshare_version>
43012

> <i_f3d_flags>
0

> <s_epik_input>
W2NIXTFbY0hdbltjSF1bY0hdYzFbTkhdQyg9TylbTkhdW0NIMl1bQ0BASF0oW0NIMl0yKVtDSDJdW0NIMl1TMig9Tyk9Tw==

> <s_epik_cmdline>
J2VwaWtfcHl0aG9uJywgJy1waCcsICc3LjAnLCAnLXRuJywgJzgnLCAnLW1hJywgJzIwMCcsICctbWV0YWxfYmluZGluZycsICctaW1hZScsICc8aW5maWxlLm1hZT4nLCAnLW9tYWUnLCAnPG91dGZpbGUubWFlPic=

> <r_epik_Ionization_Penalty>
1.04917

> <r_epik_Ionization_Penalty_Charging>
1.04915

> <r_epik_Ionization_Penalty_Neutral>
1.90771e-05

> <r_epik_State_Penalty>
1.10185

> <r_epik_Charging_Adjusted_Penalty>
2.151

> <i_epik_Tot_Q>
1

> <i_epik_Tot_abs_Q>
1

> <r_epik_Metal_State_Penalty>
1.19638

> <b_epik_Metal_Only>
0

> <s_lp_Force_Field>
OPLS_2005

> <r_lp_Energy>
16.4165

> <b_lp_Chiralities_Consistent>
1

> <s_lp_Variant>
AV-unprocessed.smi:1772-3

> <Gold.Version>
5.8.1

> <Gold.Id.Protein>
6NUR|6NUR_protein|mol2

> <Gold.PLP.Fitness>
47.8719

> <Gold.PLP.PLP>
-37.2607

> <Gold.PLP.part.hbond>
-3.4339

> <Gold.PLP.part.metal>
0.0000

> <Gold.PLP.part.buried>
-4.2524

> <Gold.PLP.part.nonpolar>
-29.2024

> <Gold.PLP.part.repulsive>
0.4404

> <Gold.PLP.ligand.clash>
0.0000

> <Gold.PLP.ligand.torsion>
0.6969

> <Gold.PLP.Chemscore.Hbond>
4.0000

> <Gold.PLP.Chemscore.CHOScore>
0.0000

> <Gold.PLP.Chemscore.Metal>
0.0000

> <Gold.Chemscore.Hbonds>
donor molecule, donor type, donor heavy atom, donor atom, acceptor molecule, acceptor atom, score
      L1  H     3    19       P1 10747  1.00
      L1  H    12    29       P1 10747  1.00
      L1  H    16    34       P1 10186  2.00

> <Gold.PLP.Chemscore.Internal.Correction>
0.0049

> <Gold.Rescore>
     Score         DG    S(hbond)    S(metal)    S(lipo)     H(rot)  DE(clash)    DE(int)     intcor
     18.98     -20.91       2.45        0.00      90.63       1.32       0.25       1.68       ----

> <Gold.Chemscore.Fitness>
18.9807

> <Gold.Chemscore.DG>
-20.9126

> <Gold.Chemscore.ZeroCoef>
-5.4800

> <Gold.Chemscore.Hbond>
2.4540

> <Gold.Chemscore.Metal>
0.0000

> <Gold.Chemscore.Lipo>
90.6286

> <Gold.Chemscore.Internal_Hbond>
0.0000

> <Gold.Chemscore.DEClash>
0.2487

> <Gold.Chemscore.DEInternal>
1.6832

> <Gold.Chemscore.Rot>
1.3153

> <Gold.Chemscore.Internal.Correction>
   9.000000E+99

> <Gold.Chemscore.Hbonds>
donor molecule, donor type, donor heavy atom, donor atom, acceptor molecule, acceptor atom, score
      L1  H     3    19       P1 10747  0.24
      L1  H    12    29       P1 10747  0.97
      L1  H    16    34       P1 10186  0.94

> <Gold.Chemscore.Hbond.Weighted>
-8.1963

> <Gold.Chemscore.Metal.Weighted>
-0.0000

> <Gold.Chemscore.Lipo.Weighted>
-10.6035

> <Gold.Chemscore.Internal_Hbond.Weighted>
0.0000

> <Gold.Chemscore.DEClash.Weighted>
0.2487

> <Gold.Chemscore.DEInternal.Weighted>
1.6832

> <Gold.Chemscore.Rot.Weighted>
3.3673

> <Gold.Chemscore.Internal.Correction.Weighted>
   9.000000E+99

> <Gold.Protein.RotatedTorsions>
[ 6907 6896 6895 6894 ] final   83.06 input  -60.11 | X-H torsion
[ 7974 7965 7964 7962 ] final  -29.54 input  175.53 | X-H torsion
[ 8008 7997 7996 7995 ] final   23.57 input   59.86 | X-H torsion
[ 10167 10162 10161 10158 ] final -139.27 input  -65.29 | X-H torsion
[ 10718 10713 10712 10709 ] final   11.82 input   66.30 | X-H torsion
[ 10763 10752 10751 10750 ] final  172.68 input  -60.55 | X-H torsion
[ 11005 11000 10999 10996 ] final   16.38 input  -57.11 | X-H torsion

> <Gold.Protein.ActiveResidues>
 VAL166  LYS551  ARG553  GLY616  TRP617  ASP618  TYR619  PRO620  LYS621  CYS622 
 ASP623  PHE694  ASN695  SER759  ASP760  ASP761  ALA762  ILE779  LEU786  VAL792 
 PHE793  MET794  SER795  GLU796  ALA797  LYS798  CYS799  TRP800  GLU811  SER814 

> <Gold.Protein.RotatedAtoms>
  152.5317  134.2954  159.9058 H   0  0  0  0  0  0  0  0  0  0  0  0  # atno 6907 bound_to 6896
  151.2905  133.4161  159.2640 H   0  0  0  0  0  0  0  0  0  0  0  0  # atno 6908 bound_to 6896
  151.0204  134.9481  159.8113 H   0  0  0  0  0  0  0  0  0  0  0  0  # atno 6909 bound_to 6896
  146.1209  140.5425  142.8736 H   0  0  0  0  0  0  0  0  0  0  0  0  # atno 7974 bound_to 7965
  154.9829  140.3104  155.4938 H   0  0  0  0  0  0  0  0  0  0  0  0  # atno 8008 bound_to 7997
  156.2951  140.2263  156.4869 H   0  0  0  0  0  0  0  0  0  0  0  0  # atno 8009 bound_to 7997
  154.7773  140.0448  157.1087 H   0  0  0  0  0  0  0  0  0  0  0  0  # atno 8010 bound_to 7997
  139.8396  143.7339  152.2663 H   0  0  0  0  0  0  0  0  0  0  0  0  # atno 10167 bound_to 10162
  157.0011  130.6080  149.5696 H   0  0  0  0  0  0  0  0  0  0  0  0  # atno 10718 bound_to 10713
  154.4295  135.2759  155.1922 H   0  0  0  0  0  0  0  0  0  0  0  0  # atno 10763 bound_to 10752
  154.3833  135.6082  153.5806 H   0  0  0  0  0  0  0  0  0  0  0  0  # atno 10764 bound_to 10752
  152.9835  135.5886  154.4604 H   0  0  0  0  0  0  0  0  0  0  0  0  # atno 10765 bound_to 10752
  140.4477  134.1256  155.7698 H   0  0  0  0  0  0  0  0  0  0  0  0  # atno 11005 bound_to 11000
  144.7596  140.5390  143.6745 LP  0  0  0  0  0  0  0  0  0  0  0  0  # atno 17320 bound_to 7965
  145.5468  139.1476  143.3416 LP  0  0  0  0  0  0  0  0  0  0  0  0  # atno 17321 bound_to 7965
  139.7572  144.7517  151.0418 LP  0  0  0  0  0  0  0  0  0  0  0  0  # atno 17342 bound_to 10162
  140.7799  143.4792  151.0041 LP  0  0  0  0  0  0  0  0  0  0  0  0  # atno 17343 bound_to 10162
  156.0171  130.5265  150.8165 LP  0  0  0  0  0  0  0  0  0  0  0  0  # atno 17370 bound_to 10713
  157.5389  131.0940  150.9854 LP  0  0  0  0  0  0  0  0  0  0  0  0  # atno 17371 bound_to 10713
  141.1678  133.8669  157.1663 LP  0  0  0  0  0  0  0  0  0  0  0  0  # atno 17394 bound_to 11000
  140.0027  135.0021  157.0226 LP  0  0  0  0  0  0  0  0  0  0  0  0  # atno 17395 bound_to 11000

$$$$
