AV-unprocessed.smi:633|AV-procd|sdf|3130|dock8
  -GOLD-   22720 0 53D 1   1.00000     0.00000
 Structure written by MMmdl.
 53 56  0  0  0  0  0  0  0  0  1 V2000
  152.0892  144.9137  158.3677 C   0  0  0  0  0  0  0  0  0  0  0  0
  152.4624  143.4303  158.4576 C   0  0  2  0  0  0  0  0  0  0  0  0
  151.4698  142.5415  157.6871 C   0  0  0  0  0  0  0  0  0  0  0  0
  151.7808  141.1307  157.8983 N   0  0  0  0  0  0  0  0  0  0  0  0
  151.1718  140.1823  157.0492 C   0  0  0  0  0  0  0  0  0  0  0  0
  151.2961  140.3051  155.6455 C   0  0  0  0  0  0  0  0  0  0  0  0
  150.6855  139.3479  154.8126 C   0  0  0  0  0  0  0  0  0  0  0  0
  149.9557  138.2909  155.4046 C   0  0  0  0  0  0  0  0  0  0  0  0
  149.3162  137.2509  154.6770 N   0  0  0  0  0  0  0  0  0  0  0  0
  148.5655  136.2395  155.1458 C   0  0  0  0  0  0  0  0  0  0  0  0
  148.3370  136.0171  156.3343 O   0  0  0  0  0  0  0  0  0  0  0  0
  148.1046  135.4774  154.1419 N   0  0  0  0  0  0  0  0  0  0  0  0
  147.2654  134.2863  154.2618 C   0  0  0  0  0  0  0  0  0  0  0  0
  148.0472  133.0057  154.5163 C   0  0  0  0  0  0  0  0  0  0  0  0
  149.5128  133.0416  154.8789 C   0  0  0  0  0  0  0  0  0  0  0  0
  149.0784  132.5112  153.5308 C   0  0  0  0  0  0  0  0  0  0  0  0
  146.2871  134.1064  153.1101 C   0  0  0  0  0  0  0  0  0  0  0  0
  145.6235  132.7754  152.8506 C   0  0  0  0  0  0  0  0  0  0  0  0
  146.6592  133.3060  151.8847 C   0  0  0  0  0  0  0  0  0  0  0  0
  149.8948  138.2482  156.8115 C   0  0  0  0  0  0  0  0  0  0  0  0
  150.4758  139.1650  157.6132 N   0  0  0  0  0  0  0  0  0  0  0  0
  151.8423  140.7607  159.3093 C   0  0  0  0  0  0  0  0  0  0  0  0
  152.7972  141.6898  160.0847 C   0  0  1  0  0  0  0  0  0  0  0  0
  154.2848  141.3918  159.8254 C   0  0  0  0  0  0  0  0  0  0  0  0
  152.4680  143.0584  159.8354 O   0  0  0  0  0  0  0  0  0  0  0  0
  152.0842  145.2551  157.3323 H   0  0  0  0  0  0  0  0  0  0  0  0
  152.8025  145.5286  158.9168 H   0  0  0  0  0  0  0  0  0  0  0  0
  151.0992  145.0977  158.7860 H   0  0  0  0  0  0  0  0  0  0  0  0
  153.4621  143.3089  158.0401 H   0  0  0  0  0  0  0  0  0  0  0  0
  150.4495  142.7377  158.0198 H   0  0  0  0  0  0  0  0  0  0  0  0
  151.5187  142.7827  156.6243 H   0  0  0  0  0  0  0  0  0  0  0  0
  151.8426  141.1234  155.2005 H   0  0  0  0  0  0  0  0  0  0  0  0
  150.8010  139.4387  153.7440 H   0  0  0  0  0  0  0  0  0  0  0  0
  149.4874  137.2521  153.6821 H   0  0  0  0  0  0  0  0  0  0  0  0
  148.3567  135.7468  153.2023 H   0  0  0  0  0  0  0  0  0  0  0  0
  146.6659  134.4686  155.1547 H   0  0  0  0  0  0  0  0  0  0  0  0
  147.4673  132.2322  155.0165 H   0  0  0  0  0  0  0  0  0  0  0  0
  150.0113  134.0085  154.8975 H   0  0  0  0  0  0  0  0  0  0  0  0
  149.8649  132.3213  155.6144 H   0  0  0  0  0  0  0  0  0  0  0  0
  149.1409  131.4373  153.3675 H   0  0  0  0  0  0  0  0  0  0  0  0
  149.2840  133.1284  152.6583 H   0  0  0  0  0  0  0  0  0  0  0  0
  145.6710  134.9833  152.9194 H   0  0  0  0  0  0  0  0  0  0  0  0
  145.9079  131.9355  153.4814 H   0  0  0  0  0  0  0  0  0  0  0  0
  144.5835  132.7874  152.5310 H   0  0  0  0  0  0  0  0  0  0  0  0
  146.3093  133.6711  150.9214 H   0  0  0  0  0  0  0  0  0  0  0  0
  147.6288  132.8126  151.8716 H   0  0  0  0  0  0  0  0  0  0  0  0
  149.3591  137.4556  157.3133 H   0  0  0  0  0  0  0  0  0  0  0  0
  150.8371  140.8425  159.7249 H   0  0  0  0  0  0  0  0  0  0  0  0
  152.1521  139.7255  159.4478 H   0  0  0  0  0  0  0  0  0  0  0  0
  152.6253  141.5264  161.1490 H   0  0  0  0  0  0  0  0  0  0  0  0
  154.5382  140.3832  160.1522 H   0  0  0  0  0  0  0  0  0  0  0  0
  154.9223  142.0855  160.3738 H   0  0  0  0  0  0  0  0  0  0  0  0
  154.5431  141.4621  158.7691 H   0  0  0  0  0  0  0  0  0  0  0  0
  1  2  1  0  0  0  0
  1 26  1  0  0  0  0
  1 27  1  0  0  0  0
  1 28  1  0  0  0  0
  2 25  1  0  0  0  0
  2  3  1  0  0  0  0
  2 29  1  0  0  0  0
  3  4  1  0  0  0  0
  3 30  1  0  0  0  0
  3 31  1  0  0  0  0
  4  5  1  0  0  0  0
  4 22  1  0  0  0  0
  5 21  1  0  0  0  0
  5  6  2  0  0  0  0
  6  7  1  0  0  0  0
  6 32  1  0  0  0  0
  7  8  2  0  0  0  0
  7 33  1  0  0  0  0
  8  9  1  0  0  0  0
  8 20  1  0  0  0  0
  9 10  1  0  0  0  0
  9 34  1  0  0  0  0
 10 11  2  0  0  0  0
 10 12  1  0  0  0  0
 12 13  1  0  0  0  0
 12 35  1  0  0  0  0
 13 14  1  0  0  0  0
 13 17  1  0  0  0  0
 13 36  1  0  0  0  0
 14 16  1  0  0  0  0
 14 15  1  0  0  0  0
 14 37  1  0  0  0  0
 15 16  1  0  0  0  0
 15 38  1  0  0  0  0
 15 39  1  0  0  0  0
 16 40  1  0  0  0  0
 16 41  1  0  0  0  0
 17 19  1  0  0  0  0
 17 18  1  0  0  0  0
 17 42  1  0  0  0  0
 18 19  1  0  0  0  0
 18 43  1  0  0  0  0
 18 44  1  0  0  0  0
 19 45  1  0  0  0  0
 19 46  1  0  0  0  0
 20 21  2  0  0  0  0
 20 47  1  0  0  0  0
 22 23  1  0  0  0  0
 22 48  1  0  0  0  0
 22 49  1  0  0  0  0
 23 24  1  0  0  0  0
 23 25  1  0  0  0  0
 23 50  1  0  0  0  0
 24 51  1  0  0  0  0
 24 52  1  0  0  0  0
 24 53  1  0  0  0  0
M  END
> <s_m_source_file>
AV-unprocessed.smi

> <i_m_source_file_index>
633

> <i_lp_mmshare_version>
43012

> <i_f3d_flags>
0

> <s_epik_input>
W0NIM11bQ0BASF0xW0NIMl1OKFtDSDJdW0NASF0oTzEpW0NIM10pYzJbY0hdW2NIXWMoW2NIXW4yKVtOSF1DKD1PKVtOSF1bQ0hdKFtDSF0zW0NIMl1bQ0gyXTMpW0NIXTRbQ0gyXVtDSDJdNA==

> <s_epik_cmdline>
J2VwaWtfcHl0aG9uJywgJy1waCcsICc3LjAnLCAnLXRuJywgJzgnLCAnLW1hJywgJzIwMCcsICctbWV0YWxfYmluZGluZycsICctaW1hZScsICc8aW5maWxlLm1hZT4nLCAnLW9tYWUnLCAnPG91dGZpbGUubWFlPic=

> <r_lp_tautomer_probability>
1

> <r_epik_Ionization_Penalty>
0.00291159

> <r_epik_Ionization_Penalty_Charging>
0

> <r_epik_Ionization_Penalty_Neutral>
0.00291159

> <r_epik_State_Penalty>
0.00200877

> <r_epik_Charging_Adjusted_Penalty>
0.00200877

> <i_epik_Tot_Q>
0

> <i_epik_Tot_abs_Q>
0

> <r_epik_Metal_State_Penalty>
-0

> <b_epik_Metal_Only>
0

> <s_lp_Force_Field>
OPLS_2005

> <r_lp_Energy>
43.7528

> <b_lp_Chiralities_Consistent>
1

> <s_lp_Variant>
AV-unprocessed.smi:633-1

> <Gold.Version>
5.8.1

> <Gold.Id.Protein>
6NUR|6NUR_protein|mol2

> <Gold.PLP.Fitness>
46.9056

> <Gold.PLP.PLP>
-42.8445

> <Gold.PLP.part.hbond>
-1.9884

> <Gold.PLP.part.metal>
0.0000

> <Gold.PLP.part.buried>
-5.3800

> <Gold.PLP.part.nonpolar>
-34.8133

> <Gold.PLP.part.repulsive>
0.0243

> <Gold.PLP.ligand.clash>
0.0000

> <Gold.PLP.ligand.torsion>
1.7053

> <Gold.PLP.Chemscore.Hbond>
1.6511

> <Gold.PLP.Chemscore.CHOScore>
0.0000

> <Gold.PLP.Chemscore.Metal>
0.0000

> <Gold.Chemscore.Hbonds>
donor molecule, donor type, donor heavy atom, donor atom, acceptor molecule, acceptor atom, score
      L1  H     9    34       P1  7948  0.66
      L1  H    12    35       P1  7948  1.00

> <Gold.PLP.Chemscore.Internal.Correction>
2.5182

> <Gold.Rescore>
     Score         DG    S(hbond)    S(metal)    S(lipo)     H(rot)  DE(clash)    DE(int)     intcor
     18.09     -21.16       1.74        0.00     115.07       1.40       0.03       3.04       ----

> <Gold.Chemscore.Fitness>
18.0875

> <Gold.Chemscore.DG>
-21.1630

> <Gold.Chemscore.ZeroCoef>
-5.4800

> <Gold.Chemscore.Hbond>
1.7394

> <Gold.Chemscore.Metal>
0.0000

> <Gold.Chemscore.Lipo>
115.0704

> <Gold.Chemscore.Internal_Hbond>
0.0000

> <Gold.Chemscore.DEClash>
0.0333

> <Gold.Chemscore.DEInternal>
3.0423

> <Gold.Chemscore.Rot>
1.4022

> <Gold.Chemscore.Internal.Correction>
   9.000000E+99

> <Gold.Chemscore.Hbonds>
donor molecule, donor type, donor heavy atom, donor atom, acceptor molecule, acceptor atom, score
      L1  H     9    34       P1  7948  0.59
      L1  H    12    35       P1  7948  0.93

> <Gold.Chemscore.Hbond.Weighted>
-5.8095

> <Gold.Chemscore.Metal.Weighted>
-0.0000

> <Gold.Chemscore.Lipo.Weighted>
-13.4632

> <Gold.Chemscore.Internal_Hbond.Weighted>
0.0000

> <Gold.Chemscore.DEClash.Weighted>
0.0333

> <Gold.Chemscore.DEInternal.Weighted>
3.0423

> <Gold.Chemscore.Rot.Weighted>
3.5897

> <Gold.Chemscore.Internal.Correction.Weighted>
   9.000000E+99

> <Gold.Protein.RotatedTorsions>
[ 6907 6896 6895 6894 ] final   52.74 input  -60.11 | X-H torsion
[ 7974 7965 7964 7962 ] final -146.32 input  175.53 | X-H torsion
[ 8008 7997 7996 7995 ] final   17.60 input   59.86 | X-H torsion
[ 10167 10162 10161 10158 ] final   -4.95 input  -65.29 | X-H torsion
[ 10718 10713 10712 10709 ] final   35.36 input   66.30 | X-H torsion
[ 10763 10752 10751 10750 ] final  -79.25 input  -60.55 | X-H torsion
[ 11005 11000 10999 10996 ] final  -35.69 input  -57.11 | X-H torsion

> <Gold.Protein.ActiveResidues>
 VAL166  LYS551  ARG553  GLY616  TRP617  ASP618  TYR619  PRO620  LYS621  CYS622 
 ASP623  PHE694  ASN695  SER759  ASP760  ASP761  ALA762  ILE779  LEU786  VAL792 
 PHE793  MET794  SER795  GLU796  ALA797  LYS798  CYS799  TRP800  GLU811  SER814 

> <Gold.Protein.RotatedAtoms>
  152.3264  134.7315  160.0300 H   0  0  0  0  0  0  0  0  0  0  0  0  # atno 6907 bound_to 6896
  151.7746  133.3339  159.3462 H   0  0  0  0  0  0  0  0  0  0  0  0  # atno 6908 bound_to 6896
  150.7398  134.5918  159.6036 H   0  0  0  0  0  0  0  0  0  0  0  0  # atno 6909 bound_to 6896
  144.8167  140.5471  143.5605 H   0  0  0  0  0  0  0  0  0  0  0  0  # atno 7974 bound_to 7965
  154.8938  140.2990  155.5356 H   0  0  0  0  0  0  0  0  0  0  0  0  # atno 8008 bound_to 7997
  156.3020  140.2419  156.3891 H   0  0  0  0  0  0  0  0  0  0  0  0  # atno 8009 bound_to 7997
  154.8591  140.0406  157.1643 H   0  0  0  0  0  0  0  0  0  0  0  0  # atno 8010 bound_to 7997
  140.6946  143.6365  150.8475 H   0  0  0  0  0  0  0  0  0  0  0  0  # atno 10167 bound_to 10162
  157.3217  130.7451  149.6789 H   0  0  0  0  0  0  0  0  0  0  0  0  # atno 10718 bound_to 10713
  154.5363  135.5702  153.6801 H   0  0  0  0  0  0  0  0  0  0  0  0  # atno 10763 bound_to 10752
  152.9952  135.6217  154.2562 H   0  0  0  0  0  0  0  0  0  0  0  0  # atno 10764 bound_to 10752
  154.2491  135.2860  155.2803 H   0  0  0  0  0  0  0  0  0  0  0  0  # atno 10765 bound_to 10752
  140.9816  133.7053  156.1694 H   0  0  0  0  0  0  0  0  0  0  0  0  # atno 11005 bound_to 11000
  145.5197  139.1477  143.3559 LP  0  0  0  0  0  0  0  0  0  0  0  0  # atno 17320 bound_to 7965
  146.2471  140.5338  142.8909 LP  0  0  0  0  0  0  0  0  0  0  0  0  # atno 17321 bound_to 7965
  140.0081  143.5671  152.2849 LP  0  0  0  0  0  0  0  0  0  0  0  0  # atno 17342 bound_to 10162
  139.6385  144.7652  151.2387 LP  0  0  0  0  0  0  0  0  0  0  0  0  # atno 17343 bound_to 10162
  155.9686  130.4221  150.4501 LP  0  0  0  0  0  0  0  0  0  0  0  0  # atno 17370 bound_to 10713
  157.2518  131.0548  151.2374 LP  0  0  0  0  0  0  0  0  0  0  0  0  # atno 17371 bound_to 10713
  140.7177  134.4392  157.5577 LP  0  0  0  0  0  0  0  0  0  0  0  0  # atno 17394 bound_to 11000
  139.8953  134.8687  156.2139 LP  0  0  0  0  0  0  0  0  0  0  0  0  # atno 17395 bound_to 11000

$$$$
