AV-unprocessed.smi:148|AV-procd|sdf|1218|dock8
  -GOLD-   2262018403D 1   1.00000     0.00000
 Structure written by MMmdl.
 63 67  0  0  0  0  0  0  0  0  1 V2000
  147.0225  134.7961  153.3304 O   0  0  0  0  0  0  0  0  0  0  0  0
  146.3229  133.9782  152.4161 C   0  0  0  0  0  0  0  0  0  0  0  0
  145.5554  132.8504  153.1468 C   0  0  2  0  0  0  0  0  0  0  0  0
  146.4677  132.0659  154.1270 C   0  0  0  0  0  0  0  0  0  0  0  0
  146.3936  132.5719  155.4863 N   0  0  0  0  0  0  0  0  0  0  0  0
  145.3244  133.2175  156.0639 C   0  0  0  0  0  0  0  0  0  0  0  0
  145.5022  133.5882  157.3026 N   0  0  0  0  0  0  0  0  0  0  0  0
  146.7920  133.1648  157.6009 C   0  0  0  0  0  0  0  0  0  0  0  0
  147.6274  133.2482  158.7507 C   0  0  0  0  0  0  0  0  0  0  0  0
  147.2810  133.8392  159.9169 N   0  0  0  0  0  0  0  0  0  0  0  0
  147.9978  135.1057  160.0644 C   0  0  0  0  0  0  0  0  0  0  0  0
  147.4518  135.9242  161.2407 C   0  0  0  0  0  0  0  0  0  0  0  0
  147.4917  135.0945  162.5274 C   0  0  0  0  0  0  0  0  0  0  0  0
  146.7185  133.7835  162.3299 C   0  0  0  0  0  0  0  0  0  0  0  0
  147.2486  132.9783  161.1141 C   0  0  1  0  0  0  0  0  0  0  0  0
  146.4835  131.6373  160.8785 C   0  0  2  0  0  0  0  0  0  0  0  0
  144.9504  131.7394  160.7577 C   0  0  0  0  0  0  0  0  0  0  0  0
  144.3851  130.4036  161.2683 C   0  0  0  0  0  0  0  0  0  0  0  0
  145.5940  129.5332  161.6256 C   0  0  0  0  0  0  0  0  0  0  0  0
  146.7080  130.5354  161.9244 C   0  0  1  0  0  0  0  0  0  0  0  0
  147.9837  129.9400  161.8070 O   0  0  0  0  0  0  0  0  0  0  0  0
  148.8617  132.6918  158.6831 N   0  0  0  0  0  0  0  0  0  0  0  0
  149.2688  132.1062  157.5529 C   0  0  0  0  0  0  0  0  0  0  0  0
  148.6106  131.9672  156.3999 N   0  0  0  0  0  0  0  0  0  0  0  0
  147.3628  132.5135  156.4720 C   0  0  0  0  0  0  0  0  0  0  0  0
  144.7838  131.9329  152.1563 C   0  0  1  0  0  0  0  0  0  0  0  0
  143.6821  132.6203  151.3450 C   0  0  0  0  0  0  0  0  0  0  0  0
  143.8968  132.1047  149.9253 C   0  0  0  0  0  0  0  0  0  0  0  0
  145.2971  131.8956  149.8688 O   0  0  0  0  0  0  0  0  0  0  0  0
  145.6629  131.2646  151.0860 C   0  0  0  0  0  0  0  0  0  0  0  0
  147.7262  135.2275  152.8697 H   0  0  0  0  0  0  0  0  0  0  0  0
  145.6454  134.5937  151.8242 H   0  0  0  0  0  0  0  0  0  0  0  0
  147.0617  133.5705  151.7267 H   0  0  0  0  0  0  0  0  0  0  0  0
  144.7972  133.3393  153.7612 H   0  0  0  0  0  0  0  0  0  0  0  0
  146.1961  131.0112  154.1581 H   0  0  0  0  0  0  0  0  0  0  0  0
  147.5087  132.1008  153.8082 H   0  0  0  0  0  0  0  0  0  0  0  0
  144.4050  133.4119  155.5310 H   0  0  0  0  0  0  0  0  0  0  0  0
  149.0590  134.9034  160.2173 H   0  0  0  0  0  0  0  0  0  0  0  0
  147.9155  135.6910  159.1470 H   0  0  0  0  0  0  0  0  0  0  0  0
  148.0349  136.8373  161.3636 H   0  0  0  0  0  0  0  0  0  0  0  0
  146.4267  136.2325  161.0313 H   0  0  0  0  0  0  0  0  0  0  0  0
  148.5263  134.8771  162.7958 H   0  0  0  0  0  0  0  0  0  0  0  0
  147.0656  135.6623  163.3548 H   0  0  0  0  0  0  0  0  0  0  0  0
  146.7992  133.2019  163.2465 H   0  0  0  0  0  0  0  0  0  0  0  0
  145.6623  134.0186  162.2040 H   0  0  0  0  0  0  0  0  0  0  0  0
  148.2820  132.7200  161.3452 H   0  0  0  0  0  0  0  0  0  0  0  0
  146.8297  131.2067  159.9378 H   0  0  0  0  0  0  0  0  0  0  0  0
  144.5451  132.5560  161.3534 H   0  0  0  0  0  0  0  0  0  0  0  0
  144.6553  131.9254  159.7248 H   0  0  0  0  0  0  0  0  0  0  0  0
  143.7792  130.5800  162.1578 H   0  0  0  0  0  0  0  0  0  0  0  0
  143.7463  129.9186  160.5295 H   0  0  0  0  0  0  0  0  0  0  0  0
  145.3963  128.8621  162.4620 H   0  0  0  0  0  0  0  0  0  0  0  0
  145.8632  128.9191  160.7643 H   0  0  0  0  0  0  0  0  0  0  0  0
  146.5738  130.9096  162.9382 H   0  0  0  0  0  0  0  0  0  0  0  0
  148.0128  129.1801  162.3682 H   0  0  0  0  0  0  0  0  0  0  0  0
  150.2658  131.6916  157.5751 H   0  0  0  0  0  0  0  0  0  0  0  0
  144.3291  131.1244  152.7301 H   0  0  0  0  0  0  0  0  0  0  0  0
  142.6839  132.3890  151.7183 H   0  0  0  0  0  0  0  0  0  0  0  0
  143.7866  133.7037  151.3557 H   0  0  0  0  0  0  0  0  0  0  0  0
  143.3779  131.1572  149.7703 H   0  0  0  0  0  0  0  0  0  0  0  0
  143.5620  132.8103  149.1646 H   0  0  0  0  0  0  0  0  0  0  0  0
  146.7326  131.3483  151.2770 H   0  0  0  0  0  0  0  0  0  0  0  0
  145.4287  130.2014  151.0133 H   0  0  0  0  0  0  0  0  0  0  0  0
  1  2  1  0  0  0  0
  1 31  1  0  0  0  0
  2  3  1  0  0  0  0
  2 32  1  0  0  0  0
  2 33  1  0  0  0  0
  3  4  1  0  0  0  0
  3 26  1  0  0  0  0
  3 34  1  0  0  0  0
  4  5  1  0  0  0  0
  4 35  1  0  0  0  0
  4 36  1  0  0  0  0
  5 25  1  0  0  0  0
  5  6  1  0  0  0  0
  6  7  2  0  0  0  0
  6 37  1  0  0  0  0
  7  8  1  0  0  0  0
  8 25  2  0  0  0  0
  8  9  1  0  0  0  0
  9 10  1  0  0  0  0
  9 22  2  0  0  0  0
 10 15  1  0  0  0  0
 10 11  1  0  0  0  0
 11 12  1  0  0  0  0
 11 38  1  0  0  0  0
 11 39  1  0  0  0  0
 12 13  1  0  0  0  0
 12 40  1  0  0  0  0
 12 41  1  0  0  0  0
 13 14  1  0  0  0  0
 13 42  1  0  0  0  0
 13 43  1  0  0  0  0
 14 15  1  0  0  0  0
 14 44  1  0  0  0  0
 14 45  1  0  0  0  0
 15 16  1  0  0  0  0
 15 46  1  0  0  0  0
 16 20  1  0  0  0  0
 16 17  1  0  0  0  0
 16 47  1  0  0  0  0
 17 18  1  0  0  0  0
 17 48  1  0  0  0  0
 17 49  1  0  0  0  0
 18 19  1  0  0  0  0
 18 50  1  0  0  0  0
 18 51  1  0  0  0  0
 19 20  1  0  0  0  0
 19 52  1  0  0  0  0
 19 53  1  0  0  0  0
 20 21  1  0  0  0  0
 20 54  1  0  0  0  0
 21 55  1  0  0  0  0
 22 23  1  0  0  0  0
 23 24  2  0  0  0  0
 23 56  1  0  0  0  0
 24 25  1  0  0  0  0
 26 30  1  0  0  0  0
 26 27  1  0  0  0  0
 26 57  1  0  0  0  0
 27 28  1  0  0  0  0
 27 58  1  0  0  0  0
 27 59  1  0  0  0  0
 28 29  1  0  0  0  0
 28 60  1  0  0  0  0
 28 61  1  0  0  0  0
 29 30  1  0  0  0  0
 30 62  1  0  0  0  0
 30 63  1  0  0  0  0
M  END
> <s_m_source_file>
AV-unprocessed.smi

> <i_m_source_file_index>
148

> <i_lp_mmshare_version>
43012

> <i_f3d_flags>
0

> <s_epik_input>
W0NIMl0xT1tDSDJdW0NIMl1bQ0BIXTFbQ0BIXShbQ0gyXVtPSF0pW0NIMl1uKFtjSF1uMiljKGMyMyluW2NIXW5jM040W0NIMl1bQ0gyXVtDSDJdW0NIMl1bQ0BIXTRbQ0BASF01W0NIMl1bQ0gyXVtDSDJdW0NASF01W09IXQ==

> <s_epik_cmdline>
J2VwaWtfcHl0aG9uJywgJy1waCcsICc3LjAnLCAnLXRuJywgJzgnLCAnLW1hJywgJzIwMCcsICctbWV0YWxfYmluZGluZycsICctaW1hZScsICc8aW5maWxlLm1hZT4nLCAnLW9tYWUnLCAnPG91dGZpbGUubWFlPic=

> <r_lp_tautomer_probability>
1

> <r_epik_Ionization_Penalty>
0.00556303

> <r_epik_Ionization_Penalty_Charging>
0

> <r_epik_Ionization_Penalty_Neutral>
0.00556303

> <r_epik_State_Penalty>
0.00401767

> <r_epik_Charging_Adjusted_Penalty>
0.00401767

> <i_epik_Tot_Q>
0

> <i_epik_Tot_abs_Q>
0

> <r_epik_Metal_State_Penalty>
-0

> <b_epik_Metal_Only>
0

> <s_lp_Force_Field>
OPLS_2005

> <r_lp_Energy>
68.3578

> <b_lp_Chiralities_Consistent>
1

> <s_lp_Variant>
AV-unprocessed.smi:148-17

> <Gold.Version>
5.8.1

> <Gold.Id.Protein>
6NUR|6NUR_protein|mol2

> <Gold.PLP.Fitness>
45.0888

> <Gold.PLP.PLP>
-38.2601

> <Gold.PLP.part.hbond>
-2.0000

> <Gold.PLP.part.metal>
0.0000

> <Gold.PLP.part.buried>
-6.4813

> <Gold.PLP.part.nonpolar>
-30.3156

> <Gold.PLP.part.repulsive>
0.1962

> <Gold.PLP.ligand.clash>
0.0000

> <Gold.PLP.ligand.torsion>
1.2662

> <Gold.PLP.Chemscore.Hbond>
2.0000

> <Gold.PLP.Chemscore.CHOScore>
0.9734

> <Gold.PLP.Chemscore.Metal>
0.0000

> <Gold.Chemscore.Hbonds>
donor molecule, donor type, donor heavy atom, donor atom, acceptor molecule, acceptor atom, score
      L1  H     1    31       P1  7948  1.00
      P1  H  6896  6909       L1    22  0.39
      L1  C     6    37       P1 10957  0.95

> <Gold.PLP.Chemscore.Internal.Correction>
0.4408

> <Gold.Rescore>
     Score         DG    S(hbond)    S(metal)    S(lipo)     H(rot)  DE(clash)    DE(int)     intcor
     13.29     -14.45       1.81        0.00      97.74       3.32       0.00       1.16       ----

> <Gold.Chemscore.Fitness>
13.2916

> <Gold.Chemscore.DG>
-14.4548

> <Gold.Chemscore.ZeroCoef>
-5.4800

> <Gold.Chemscore.Hbond>
1.8081

> <Gold.Chemscore.Metal>
0.0000

> <Gold.Chemscore.Lipo>
97.7402

> <Gold.Chemscore.Internal_Hbond>
0.0000

> <Gold.Chemscore.DEClash>
0.0038

> <Gold.Chemscore.DEInternal>
1.1593

> <Gold.Chemscore.Rot>
3.3203

> <Gold.Chemscore.Internal.Correction>
   9.000000E+99

> <Gold.Chemscore.Hbonds>
donor molecule, donor type, donor heavy atom, donor atom, acceptor molecule, acceptor atom, score
      L1  H     1    31       P1  7948  1.00
      P1  H  6896  6909       L1    22  0.11

> <Gold.Chemscore.Hbond.Weighted>
-6.0391

> <Gold.Chemscore.Metal.Weighted>
-0.0000

> <Gold.Chemscore.Lipo.Weighted>
-11.4356

> <Gold.Chemscore.Internal_Hbond.Weighted>
0.0000

> <Gold.Chemscore.DEClash.Weighted>
0.0038

> <Gold.Chemscore.DEInternal.Weighted>
1.1593

> <Gold.Chemscore.Rot.Weighted>
8.5000

> <Gold.Chemscore.Internal.Correction.Weighted>
   9.000000E+99

> <Gold.Protein.RotatedTorsions>
[ 6907 6896 6895 6894 ] final    0.84 input  -60.11 | X-H torsion
[ 7974 7965 7964 7962 ] final -127.22 input  175.53 | X-H torsion
[ 8008 7997 7996 7995 ] final   47.82 input   59.86 | X-H torsion
[ 10167 10162 10161 10158 ] final  -50.40 input  -65.29 | X-H torsion
[ 10718 10713 10712 10709 ] final  -81.70 input   66.30 | X-H torsion
[ 10763 10752 10751 10750 ] final   52.43 input  -60.55 | X-H torsion
[ 11005 11000 10999 10996 ] final   -7.24 input  -57.11 | X-H torsion

> <Gold.Protein.ActiveResidues>
 VAL166  LYS551  ARG553  GLY616  TRP617  ASP618  TYR619  PRO620  LYS621  CYS622 
 ASP623  PHE694  ASN695  SER759  ASP760  ASP761  ALA762  ILE779  LEU786  VAL792 
 PHE793  MET794  SER795  GLU796  ALA797  LYS798  CYS799  TRP800  GLU811  SER814 

> <Gold.Protein.RotatedAtoms>
  151.5829  135.1057  160.0021 H   0  0  0  0  0  0  0  0  0  0  0  0  # atno 6907 bound_to 6896
  152.4345  133.7332  159.6610 H   0  0  0  0  0  0  0  0  0  0  0  0  # atno 6908 bound_to 6896
  150.8241  133.8132  159.3149 H   0  0  0  0  0  0  0  0  0  0  0  0  # atno 6909 bound_to 6896
  144.9793  140.7624  143.4622 H   0  0  0  0  0  0  0  0  0  0  0  0  # atno 7974 bound_to 7965
  155.3755  140.3426  155.4245 H   0  0  0  0  0  0  0  0  0  0  0  0  # atno 8008 bound_to 7997
  156.1639  140.1610  156.8598 H   0  0  0  0  0  0  0  0  0  0  0  0  # atno 8009 bound_to 7997
  154.5166  140.0777  156.8075 H   0  0  0  0  0  0  0  0  0  0  0  0  # atno 8010 bound_to 7997
  140.6639  143.2659  151.4354 H   0  0  0  0  0  0  0  0  0  0  0  0  # atno 10167 bound_to 10162
  156.0045  130.4612  150.3993 H   0  0  0  0  0  0  0  0  0  0  0  0  # atno 10718 bound_to 10713
  152.9789  135.5812  154.4577 H   0  0  0  0  0  0  0  0  0  0  0  0  # atno 10763 bound_to 10752
  154.4158  135.2771  155.2010 H   0  0  0  0  0  0  0  0  0  0  0  0  # atno 10764 bound_to 10752
  154.3780  135.6153  153.5829 H   0  0  0  0  0  0  0  0  0  0  0  0  # atno 10765 bound_to 10752
  140.7106  133.8912  155.8748 H   0  0  0  0  0  0  0  0  0  0  0  0  # atno 11005 bound_to 11000
  145.2445  139.2058  143.4975 LP  0  0  0  0  0  0  0  0  0  0  0  0  # atno 17320 bound_to 7965
  146.3404  140.2346  142.8594 LP  0  0  0  0  0  0  0  0  0  0  0  0  # atno 17321 bound_to 7965
  139.5881  144.1559  152.2055 LP  0  0  0  0  0  0  0  0  0  0  0  0  # atno 17342 bound_to 10162
  140.0905  144.5625  150.7058 LP  0  0  0  0  0  0  0  0  0  0  0  0  # atno 17343 bound_to 10162
  157.2063  131.0450  151.2623 LP  0  0  0  0  0  0  0  0  0  0  0  0  # atno 17370 bound_to 10713
  157.3930  130.7292  149.6711 LP  0  0  0  0  0  0  0  0  0  0  0  0  # atno 17371 bound_to 10713
  141.0087  134.1050  157.4243 LP  0  0  0  0  0  0  0  0  0  0  0  0  # atno 17394 bound_to 11000
  139.8872  135.0088  156.6549 LP  0  0  0  0  0  0  0  0  0  0  0  0  # atno 17395 bound_to 11000

$$$$
