AV-unprocessed.smi:609|AV-procd|sdf|3047|dock3
  -GOLD-   2262023563D 1   1.00000     0.00000
 Structure written by MMmdl.
 42 44  0  0  0  0  0  0  0  0  1 V2000
  152.8596  142.8227  160.9597 C   0  0  0  0  0  0  0  0  0  0  0  0
  152.2331  142.4333  159.6324 C   0  0  0  0  0  0  0  0  0  0  0  0
  152.7011  141.2797  158.9637 C   0  0  0  0  0  0  0  0  0  0  0  0
  152.1429  140.8813  157.7293 C   0  0  0  0  0  0  0  0  0  0  0  0
  152.4415  139.8032  156.9140 N   0  0  0  0  0  0  0  0  0  0  0  0
  151.5807  139.9766  155.9150 C   0  0  0  0  0  0  0  0  0  0  0  0
  150.7597  141.0421  155.9866 N   0  0  0  0  0  0  0  0  0  0  0  0
  149.7461  141.4356  155.0246 C   0  0  0  0  0  0  0  0  0  0  0  0
  148.9143  140.2400  154.5230 C   0  0  2  0  0  0  0  0  0  0  0  0
  149.6920  139.4625  153.6322 O   0  0  0  0  0  0  0  0  0  0  0  0
  147.6304  140.6927  153.8101 C   0  0  0  0  0  0  0  0  0  0  0  0
  147.3975  142.4950  153.9021 S   0  0  0  0  0  0  0  0  0  0  0  0
  145.8676  142.5623  154.7866 C   0  0  0  0  0  0  0  0  0  0  0  0
  145.5443  141.7885  155.8203 N   0  0  0  0  0  0  0  0  0  0  0  0
  144.2655  142.1917  156.1886 C   0  0  0  0  0  0  0  0  0  0  0  0
  143.8528  143.2050  155.3589 C   0  0  0  0  0  0  0  0  0  0  0  0
  144.8911  143.4322  154.4652 N   0  0  0  0  0  0  0  0  0  0  0  0
  144.9003  144.4175  153.4015 C   0  0  0  0  0  0  0  0  0  0  0  0
  151.0965  141.6762  157.1770 C   0  0  0  0  0  0  0  0  0  0  0  0
  150.6231  142.8269  157.8316 C   0  0  0  0  0  0  0  0  0  0  0  0
  151.1904  143.2094  159.0652 C   0  0  0  0  0  0  0  0  0  0  0  0
  150.6692  144.4510  159.7670 C   0  0  0  0  0  0  0  0  0  0  0  0
  153.6658  142.1419  161.2347 H   0  0  0  0  0  0  0  0  0  0  0  0
  152.1141  142.7979  161.7547 H   0  0  0  0  0  0  0  0  0  0  0  0
  153.2769  143.8286  160.9067 H   0  0  0  0  0  0  0  0  0  0  0  0
  153.4946  140.6876  159.3956 H   0  0  0  0  0  0  0  0  0  0  0  0
  151.5420  139.2882  155.0834 H   0  0  0  0  0  0  0  0  0  0  0  0
  149.0979  142.1733  155.4993 H   0  0  0  0  0  0  0  0  0  0  0  0
  150.2330  141.9399  154.1885 H   0  0  0  0  0  0  0  0  0  0  0  0
  148.6458  139.6118  155.3734 H   0  0  0  0  0  0  0  0  0  0  0  0
  149.6192  139.8375  152.7677 H   0  0  0  0  0  0  0  0  0  0  0  0
  147.6778  140.4096  152.7580 H   0  0  0  0  0  0  0  0  0  0  0  0
  146.7626  140.1908  154.2404 H   0  0  0  0  0  0  0  0  0  0  0  0
  143.7474  141.7258  157.0139 H   0  0  0  0  0  0  0  0  0  0  0  0
  142.9315  143.7683  155.3313 H   0  0  0  0  0  0  0  0  0  0  0  0
  143.9616  144.9726  153.3935 H   0  0  0  0  0  0  0  0  0  0  0  0
  145.0242  143.9204  152.4390 H   0  0  0  0  0  0  0  0  0  0  0  0
  145.7227  145.1171  153.5534 H   0  0  0  0  0  0  0  0  0  0  0  0
  149.8279  143.4077  157.3880 H   0  0  0  0  0  0  0  0  0  0  0  0
  149.8766  144.9306  159.1914 H   0  0  0  0  0  0  0  0  0  0  0  0
  151.4698  145.1784  159.9030 H   0  0  0  0  0  0  0  0  0  0  0  0
  150.2635  144.1935  160.7456 H   0  0  0  0  0  0  0  0  0  0  0  0
  1  2  1  0  0  0  0
  1 23  1  0  0  0  0
  1 24  1  0  0  0  0
  1 25  1  0  0  0  0
  2 21  1  0  0  0  0
  2  3  2  0  0  0  0
  3  4  1  0  0  0  0
  3 26  1  0  0  0  0
  4 19  2  0  0  0  0
  4  5  1  0  0  0  0
  5  6  2  0  0  0  0
  6  7  1  0  0  0  0
  6 27  1  0  0  0  0
  7  8  1  0  0  0  0
  7 19  1  0  0  0  0
  8  9  1  0  0  0  0
  8 28  1  0  0  0  0
  8 29  1  0  0  0  0
  9 10  1  0  0  0  0
  9 11  1  0  0  0  0
  9 30  1  0  0  0  0
 10 31  1  0  0  0  0
 11 12  1  0  0  0  0
 11 32  1  0  0  0  0
 11 33  1  0  0  0  0
 12 13  1  0  0  0  0
 13 17  1  0  0  0  0
 13 14  2  0  0  0  0
 14 15  1  0  0  0  0
 15 16  2  0  0  0  0
 15 34  1  0  0  0  0
 16 17  1  0  0  0  0
 16 35  1  0  0  0  0
 17 18  1  0  0  0  0
 18 36  1  0  0  0  0
 18 37  1  0  0  0  0
 18 38  1  0  0  0  0
 19 20  1  0  0  0  0
 20 21  2  0  0  0  0
 20 39  1  0  0  0  0
 21 22  1  0  0  0  0
 22 40  1  0  0  0  0
 22 41  1  0  0  0  0
 22 42  1  0  0  0  0
M  END
> <s_m_source_file>
AV-unprocessed.smi

> <i_m_source_file_index>
609

> <i_lp_mmshare_version>
43012

> <i_f3d_flags>
0

> <s_epik_input>
W0NIM11jKFtjSF0xKWMoW0NIM10pW2NIXWMoYzEyKW4oW2NIXW4yKVtDSDJdW0NASF0oW09IXSlbQ0gyXVNjM25bY0hdW2NIXW4zW0NIM10=

> <s_epik_cmdline>
J2VwaWtfcHl0aG9uJywgJy1waCcsICc3LjAnLCAnLXRuJywgJzgnLCAnLW1hJywgJzIwMCcsICctbWV0YWxfYmluZGluZycsICctaW1hZScsICc8aW5maWxlLm1hZT4nLCAnLW9tYWUnLCAnPG91dGZpbGUubWFlPic=

> <r_lp_tautomer_probability>
1

> <r_epik_Ionization_Penalty>
1.15618

> <r_epik_Ionization_Penalty_Charging>
1.04908

> <r_epik_Ionization_Penalty_Neutral>
0.107097

> <r_epik_State_Penalty>
1.19446

> <r_epik_Charging_Adjusted_Penalty>
2.24354

> <i_epik_Tot_Q>
0

> <i_epik_Tot_abs_Q>
0

> <r_epik_Metal_State_Penalty>
0.487262

> <b_epik_Metal_Only>
0

> <s_lp_Force_Field>
OPLS_2005

> <r_lp_Energy>
8.2554

> <b_lp_Chiralities_Consistent>
1

> <s_lp_Variant>
AV-unprocessed.smi:609-3

> <Gold.Version>
5.8.1

> <Gold.Id.Protein>
6NUR|6NUR_protein|mol2

> <Gold.PLP.Fitness>
50.8720

> <Gold.PLP.PLP>
-48.2143

> <Gold.PLP.part.hbond>
-2.3856

> <Gold.PLP.part.metal>
0.0000

> <Gold.PLP.part.buried>
-4.0761

> <Gold.PLP.part.nonpolar>
-41.1927

> <Gold.PLP.part.repulsive>
0.1093

> <Gold.PLP.ligand.clash>
0.0000

> <Gold.PLP.ligand.torsion>
1.6868

> <Gold.PLP.Chemscore.Hbond>
2.0000

> <Gold.PLP.Chemscore.CHOScore>
0.0000

> <Gold.PLP.Chemscore.Metal>
0.0000

> <Gold.Chemscore.Hbonds>
donor molecule, donor type, donor heavy atom, donor atom, acceptor molecule, acceptor atom, score
      L1  H    10    31       P1  7957  1.00
      P1  H  7997  8008       L1     5  1.00

> <Gold.PLP.Chemscore.Internal.Correction>
0.0313

> <Gold.Rescore>
     Score         DG    S(hbond)    S(metal)    S(lipo)     H(rot)  DE(clash)    DE(int)     intcor
     15.81     -18.49       1.89        0.00     109.99       2.41       0.44       2.25       ----

> <Gold.Chemscore.Fitness>
15.8085

> <Gold.Chemscore.DG>
-18.4941

> <Gold.Chemscore.ZeroCoef>
-5.4800

> <Gold.Chemscore.Hbond>
1.8886

> <Gold.Chemscore.Metal>
0.0000

> <Gold.Chemscore.Lipo>
109.9927

> <Gold.Chemscore.Internal_Hbond>
0.0000

> <Gold.Chemscore.DEClash>
0.4384

> <Gold.Chemscore.DEInternal>
2.2472

> <Gold.Chemscore.Rot>
2.4074

> <Gold.Chemscore.Internal.Correction>
   9.000000E+99

> <Gold.Chemscore.Hbonds>
donor molecule, donor type, donor heavy atom, donor atom, acceptor molecule, acceptor atom, score
      L1  H    10    31       P1  7957  0.99
      P1  H  7997  8008       L1     5  0.33

> <Gold.Chemscore.Hbond.Weighted>
-6.3080

> <Gold.Chemscore.Metal.Weighted>
-0.0000

> <Gold.Chemscore.Lipo.Weighted>
-12.8691

> <Gold.Chemscore.Internal_Hbond.Weighted>
0.0000

> <Gold.Chemscore.DEClash.Weighted>
0.4384

> <Gold.Chemscore.DEInternal.Weighted>
2.2472

> <Gold.Chemscore.Rot.Weighted>
6.1630

> <Gold.Chemscore.Internal.Correction.Weighted>
   9.000000E+99

> <Gold.Protein.RotatedTorsions>
[ 6907 6896 6895 6894 ] final  -83.13 input  -60.11 | X-H torsion
[ 7974 7965 7964 7962 ] final  -98.46 input  175.53 | X-H torsion
[ 8008 7997 7996 7995 ] final  -54.22 input   59.86 | X-H torsion
[ 10167 10162 10161 10158 ] final  -79.36 input  -65.29 | X-H torsion
[ 10718 10713 10712 10709 ] final  -28.86 input   66.30 | X-H torsion
[ 10763 10752 10751 10750 ] final  -92.59 input  -60.55 | X-H torsion
[ 11005 11000 10999 10996 ] final   22.86 input  -57.11 | X-H torsion

> <Gold.Protein.ActiveResidues>
 VAL166  LYS551  ARG553  GLY616  TRP617  ASP618  TYR619  PRO620  LYS621  CYS622 
 ASP623  PHE694  ASN695  SER759  ASP760  ASP761  ALA762  ILE779  LEU786  VAL792 
 PHE793  MET794  SER795  GLU796  ALA797  LYS798  CYS799  TRP800  GLU811  SER814 

> <Gold.Protein.RotatedAtoms>
  150.6889  134.3559  159.4928 H   0  0  0  0  0  0  0  0  0  0  0  0  # atno 6907 bound_to 6896
  152.1394  134.9071  160.0564 H   0  0  0  0  0  0  0  0  0  0  0  0  # atno 6908 bound_to 6896
  152.0211  133.3864  159.4295 H   0  0  0  0  0  0  0  0  0  0  0  0  # atno 6909 bound_to 6896
  145.3204  140.9420  143.2719 H   0  0  0  0  0  0  0  0  0  0  0  0  # atno 7974 bound_to 7965
  154.4156  140.1181  156.5280 H   0  0  0  0  0  0  0  0  0  0  0  0  # atno 8008 bound_to 7997
  155.6634  140.3496  155.4772 H   0  0  0  0  0  0  0  0  0  0  0  0  # atno 8009 bound_to 7997
  155.9694  140.1138  157.0816 H   0  0  0  0  0  0  0  0  0  0  0  0  # atno 8010 bound_to 7997
  140.4600  143.2456  151.8363 H   0  0  0  0  0  0  0  0  0  0  0  0  # atno 10167 bound_to 10162
  156.4199  130.4424  149.7191 H   0  0  0  0  0  0  0  0  0  0  0  0  # atno 10718 bound_to 10713
  154.6876  135.5225  153.8348 H   0  0  0  0  0  0  0  0  0  0  0  0  # atno 10763 bound_to 10752
  153.0609  135.6568  154.0475 H   0  0  0  0  0  0  0  0  0  0  0  0  # atno 10764 bound_to 10752
  154.0354  135.2982  155.3342 H   0  0  0  0  0  0  0  0  0  0  0  0  # atno 10765 bound_to 10752
  140.3759  134.1972  155.7665 H   0  0  0  0  0  0  0  0  0  0  0  0  # atno 11005 bound_to 11000
  144.8944  139.4732  143.6662 LP  0  0  0  0  0  0  0  0  0  0  0  0  # atno 17320 bound_to 7965
  146.3084  139.7661  142.9038 LP  0  0  0  0  0  0  0  0  0  0  0  0  # atno 17321 bound_to 7965
  139.4805  144.5019  151.9048 LP  0  0  0  0  0  0  0  0  0  0  0  0  # atno 17342 bound_to 10162
  140.4105  144.2375  150.5889 LP  0  0  0  0  0  0  0  0  0  0  0  0  # atno 17343 bound_to 10162
  156.4136  130.7734  151.2748 LP  0  0  0  0  0  0  0  0  0  0  0  0  # atno 17370 bound_to 10713
  157.7508  131.0204  150.3706 LP  0  0  0  0  0  0  0  0  0  0  0  0  # atno 17371 bound_to 10713
  141.1939  133.8140  157.0778 LP  0  0  0  0  0  0  0  0  0  0  0  0  # atno 17394 bound_to 11000
  140.0515  134.9803  157.1145 LP  0  0  0  0  0  0  0  0  0  0  0  0  # atno 17395 bound_to 11000

$$$$
