AV-unprocessed.smi:213|AV-procd|sdf|1639|dock9
  -GOLD-   2262020 03D 1   1.00000     0.00000
 Structure written by MMmdl.
 59 62  0  0  0  0  0  0  0  0  2 V2000
  146.1435  136.8230  155.0696 C   0  0  0  0  0  0  0  0  0  0  0  0
  147.4020  136.1917  154.4521 C   0  0  2  0  0  0  0  0  0  0  0  0
  147.1242  134.7530  153.9532 C   0  0  0  0  0  0  0  0  0  0  0  0
  146.6122  134.7092  152.5598 N   0  3  0  0  0  0  0  0  0  0  0  0
  146.7153  133.3660  151.9450 C   0  0  0  0  0  0  0  0  0  0  0  0
  146.2589  133.4190  150.4773 C   0  0  0  0  0  0  0  0  0  0  0  0
  144.9303  133.9226  150.4065 O   0  0  0  0  0  0  0  0  0  0  0  0
  144.8317  135.2441  150.9237 C   0  0  0  0  0  0  0  0  0  0  0  0
  145.2384  135.2474  152.4066 C   0  0  0  0  0  0  0  0  0  0  0  0
  148.5460  136.2592  155.3742 N   0  0  0  0  0  0  0  0  0  0  0  0
  149.3444  135.0591  155.6220 C   0  0  0  0  0  0  0  0  0  0  0  0
  149.1926  137.4526  155.4518 C   0  0  0  0  0  0  0  0  0  0  0  0
  149.0318  138.3634  154.4538 N   0  0  0  0  0  0  0  0  0  0  0  0
  149.6187  139.5611  154.5294 C   0  0  0  0  0  0  0  0  0  0  0  0
  150.3905  140.0507  155.5007 N   0  0  0  0  0  0  0  0  0  0  0  0
  150.5675  139.1388  156.4989 C   0  0  0  0  0  0  0  0  0  0  0  0
  150.0124  137.8290  156.5536 C   0  0  0  0  0  0  0  0  0  0  0  0
  150.4188  137.1937  157.7215 N   0  0  0  0  0  0  0  0  0  0  0  0
  151.1692  138.0765  158.3224 C   0  0  0  0  0  0  0  0  0  0  0  0
  151.3107  139.2728  157.6578 N   0  0  0  0  0  0  0  0  0  0  0  0
  152.0895  140.4194  158.0908 C   0  0  0  0  0  0  0  0  0  0  0  0
  151.3899  141.7563  157.7755 C   0  0  1  0  0  0  0  0  0  0  0  0
  150.0319  141.7186  158.1719 O   0  0  0  0  0  0  0  0  0  0  0  0
  152.1024  142.9685  158.4091 C   0  0  1  0  0  0  0  0  0  0  0  0
  151.5617  144.3511  158.0319 C   0  0  0  0  0  0  0  0  0  0  0  0
  152.0172  145.1796  159.2120 C   0  0  0  0  0  0  0  0  0  0  0  0
  151.8269  144.2027  160.3694 C   0  0  0  0  0  0  0  0  0  0  0  0
  152.0875  142.9082  159.8337 O   0  0  0  0  0  0  0  0  0  0  0  0
  145.3383  136.8767  154.3367 H   0  0  0  0  0  0  0  0  0  0  0  0
  146.3426  137.8397  155.4102 H   0  0  0  0  0  0  0  0  0  0  0  0
  145.7703  136.2509  155.9190 H   0  0  0  0  0  0  0  0  0  0  0  0
  147.6215  136.7957  153.5744 H   0  0  0  0  0  0  0  0  0  0  0  0
  148.0516  134.1814  154.0103 H   0  0  0  0  0  0  0  0  0  0  0  0
  146.4179  134.2484  154.6141 H   0  0  0  0  0  0  0  0  0  0  0  0
  147.7462  133.0133  151.9937 H   0  0  0  0  0  0  0  0  0  0  0  0
  146.1044  132.6567  152.5057 H   0  0  0  0  0  0  0  0  0  0  0  0
  146.9289  134.0439  149.8841 H   0  0  0  0  0  0  0  0  0  0  0  0
  146.2832  132.4207  150.0401 H   0  0  0  0  0  0  0  0  0  0  0  0
  145.4608  135.9227  150.3455 H   0  0  0  0  0  0  0  0  0  0  0  0
  143.8045  135.5923  150.8139 H   0  0  0  0  0  0  0  0  0  0  0  0
  144.5396  134.6440  152.9877 H   0  0  0  0  0  0  0  0  0  0  0  0
  145.1789  136.2649  152.7916 H   0  0  0  0  0  0  0  0  0  0  0  0
  149.9698  135.1878  156.5065 H   0  0  0  0  0  0  0  0  0  0  0  0
  149.9923  134.8402  154.7725 H   0  0  0  0  0  0  0  0  0  0  0  0
  148.7118  134.1900  155.7971 H   0  0  0  0  0  0  0  0  0  0  0  0
  149.4395  140.2248  153.6961 H   0  0  0  0  0  0  0  0  0  0  0  0
  151.6462  137.8769  159.2712 H   0  0  0  0  0  0  0  0  0  0  0  0
  152.2793  140.3256  159.1608 H   0  0  0  0  0  0  0  0  0  0  0  0
  153.0615  140.3784  157.5977 H   0  0  0  0  0  0  0  0  0  0  0  0
  151.3908  141.8973  156.6939 H   0  0  0  0  0  0  0  0  0  0  0  0
  149.9213  142.2979  158.9105 H   0  0  0  0  0  0  0  0  0  0  0  0
  153.1548  142.9352  158.1222 H   0  0  0  0  0  0  0  0  0  0  0  0
  151.9486  144.7136  157.0793 H   0  0  0  0  0  0  0  0  0  0  0  0
  150.4725  144.3599  157.9812 H   0  0  0  0  0  0  0  0  0  0  0  0
  153.0717  145.4368  159.1051 H   0  0  0  0  0  0  0  0  0  0  0  0
  151.4493  146.1021  159.3346 H   0  0  0  0  0  0  0  0  0  0  0  0
  152.4783  144.4241  161.2147 H   0  0  0  0  0  0  0  0  0  0  0  0
  150.7948  144.2290  160.7212 H   0  0  0  0  0  0  0  0  0  0  0  0
  147.2213  135.3078  152.0194 H   0  0  0  0  0  0  0  0  0  0  0  0
  1  2  1  0  0  0  0
  1 29  1  0  0  0  0
  1 30  1  0  0  0  0
  1 31  1  0  0  0  0
  2  3  1  0  0  0  0
  2 10  1  0  0  0  0
  2 32  1  0  0  0  0
  3  4  1  0  0  0  0
  3 33  1  0  0  0  0
  3 34  1  0  0  0  0
  4  9  1  0  0  0  0
  4  5  1  0  0  0  0
  4 59  1  0  0  0  0
  5  6  1  0  0  0  0
  5 35  1  0  0  0  0
  5 36  1  0  0  0  0
  6  7  1  0  0  0  0
  6 37  1  0  0  0  0
  6 38  1  0  0  0  0
  7  8  1  0  0  0  0
  8  9  1  0  0  0  0
  8 39  1  0  0  0  0
  8 40  1  0  0  0  0
  9 41  1  0  0  0  0
  9 42  1  0  0  0  0
 10 11  1  0  0  0  0
 10 12  1  0  0  0  0
 11 43  1  0  0  0  0
 11 44  1  0  0  0  0
 11 45  1  0  0  0  0
 12 17  1  0  0  0  0
 12 13  2  0  0  0  0
 13 14  1  0  0  0  0
 14 15  2  0  0  0  0
 14 46  1  0  0  0  0
 15 16  1  0  0  0  0
 16 20  1  0  0  0  0
 16 17  2  0  0  0  0
 17 18  1  0  0  0  0
 18 19  2  0  0  0  0
 19 20  1  0  0  0  0
 19 47  1  0  0  0  0
 20 21  1  0  0  0  0
 21 22  1  0  0  0  0
 21 48  1  0  0  0  0
 21 49  1  0  0  0  0
 22 23  1  0  0  0  0
 22 24  1  0  0  0  0
 22 50  1  0  0  0  0
 23 51  1  0  0  0  0
 24 28  1  0  0  0  0
 24 25  1  0  0  0  0
 24 52  1  0  0  0  0
 25 26  1  0  0  0  0
 25 53  1  0  0  0  0
 25 54  1  0  0  0  0
 26 27  1  0  0  0  0
 26 55  1  0  0  0  0
 26 56  1  0  0  0  0
 27 28  1  0  0  0  0
 27 57  1  0  0  0  0
 27 58  1  0  0  0  0
M  CHG  1   4   1
M  END
> <s_m_source_file>
AV-unprocessed.smi

> <i_m_source_file_index>
213

> <i_lp_mmshare_version>
43012

> <i_f3d_flags>
0

> <s_epik_input>
W0NIMl0xW0NIMl1PW0NIMl1bQ0gyXU4xW0NIMl1bQ0BASF0oW0NIM10pTihbQ0gzXSljKG5bY0hdbjIpYyhjMjMpbltjSF1uM1tDSDJdW0NASF0oW09IXSlbQ0BASF00W0NIMl1bQ0gyXVtDSDJdTzQ=

> <s_epik_cmdline>
J2VwaWtfcHl0aG9uJywgJy1waCcsICc3LjAnLCAnLXRuJywgJzgnLCAnLW1hJywgJzIwMCcsICctbWV0YWxfYmluZGluZycsICctaW1hZScsICc8aW5maWxlLm1hZT4nLCAnLW9tYWUnLCAnPG91dGZpbGUubWFlPic=

> <r_lp_tautomer_probability>
1

> <r_epik_Ionization_Penalty>
0.399679

> <r_epik_Ionization_Penalty_Charging>
0.399433

> <r_epik_Ionization_Penalty_Neutral>
0.000246213

> <r_epik_State_Penalty>
0.286032

> <r_epik_Charging_Adjusted_Penalty>
0.685465

> <i_epik_Tot_Q>
1

> <i_epik_Tot_abs_Q>
1

> <r_epik_Metal_State_Penalty>
0.286072

> <b_epik_Metal_Only>
0

> <s_lp_Force_Field>
OPLS_2005

> <r_lp_Energy>
47.0923

> <b_lp_Chiralities_Consistent>
1

> <s_lp_Variant>
AV-unprocessed.smi:213-7

> <Gold.Version>
5.8.1

> <Gold.Id.Protein>
6NUR|6NUR_protein|mol2

> <Gold.PLP.Fitness>
46.5369

> <Gold.PLP.PLP>
-39.7291

> <Gold.PLP.part.hbond>
-1.0000

> <Gold.PLP.part.metal>
0.0000

> <Gold.PLP.part.buried>
-7.4746

> <Gold.PLP.part.nonpolar>
-32.2681

> <Gold.PLP.part.repulsive>
0.9214

> <Gold.PLP.ligand.clash>
0.0000

> <Gold.PLP.ligand.torsion>
1.7450

> <Gold.PLP.Chemscore.Hbond>
2.0000

> <Gold.PLP.Chemscore.CHOScore>
1.0000

> <Gold.PLP.Chemscore.Metal>
0.0000

> <Gold.Chemscore.Hbonds>
donor molecule, donor type, donor heavy atom, donor atom, acceptor molecule, acceptor atom, score
      L1  H     4    59       P1  7948  1.95
      L1  C    14    46       P1  7957  0.96

> <Gold.PLP.Chemscore.Internal.Correction>
1.2978

> <Gold.Rescore>
     Score         DG    S(hbond)    S(metal)    S(lipo)     H(rot)  DE(clash)    DE(int)     intcor
     10.97     -12.98       1.00        0.00      97.50       2.83       0.09       1.91       ----

> <Gold.Chemscore.Fitness>
10.9716

> <Gold.Chemscore.DG>
-12.9801

> <Gold.Chemscore.ZeroCoef>
-5.4800

> <Gold.Chemscore.Hbond>
0.9958

> <Gold.Chemscore.Metal>
0.0000

> <Gold.Chemscore.Lipo>
97.4964

> <Gold.Chemscore.Internal_Hbond>
0.0000

> <Gold.Chemscore.DEClash>
0.0942

> <Gold.Chemscore.DEInternal>
1.9143

> <Gold.Chemscore.Rot>
2.8254

> <Gold.Chemscore.Internal.Correction>
   9.000000E+99

> <Gold.Chemscore.Hbonds>
donor molecule, donor type, donor heavy atom, donor atom, acceptor molecule, acceptor atom, score
      L1  H     4    59       P1  7948  0.93

> <Gold.Chemscore.Hbond.Weighted>
-3.3259

> <Gold.Chemscore.Metal.Weighted>
-0.0000

> <Gold.Chemscore.Lipo.Weighted>
-11.4071

> <Gold.Chemscore.Internal_Hbond.Weighted>
0.0000

> <Gold.Chemscore.DEClash.Weighted>
0.0942

> <Gold.Chemscore.DEInternal.Weighted>
1.9143

> <Gold.Chemscore.Rot.Weighted>
7.2330

> <Gold.Chemscore.Internal.Correction.Weighted>
   9.000000E+99

> <Gold.Protein.RotatedTorsions>
[ 6907 6896 6895 6894 ] final  -42.38 input  -60.11 | X-H torsion
[ 7974 7965 7964 7962 ] final  -82.70 input  175.53 | X-H torsion
[ 8008 7997 7996 7995 ] final  108.07 input   59.86 | X-H torsion
[ 10167 10162 10161 10158 ] final  -76.95 input  -65.29 | X-H torsion
[ 10718 10713 10712 10709 ] final -123.00 input   66.30 | X-H torsion
[ 10763 10752 10751 10750 ] final  -98.73 input  -60.55 | X-H torsion
[ 11005 11000 10999 10996 ] final  164.65 input  -57.11 | X-H torsion

> <Gold.Protein.ActiveResidues>
 VAL166  LYS551  ARG553  GLY616  TRP617  ASP618  TYR619  PRO620  LYS621  CYS622 
 ASP623  PHE694  ASN695  SER759  ASP760  ASP761  ALA762  ILE779  LEU786  VAL792 
 PHE793  MET794  SER795  GLU796  ALA797  LYS798  CYS799  TRP800  GLU811  SER814 

> <Gold.Protein.RotatedAtoms>
  150.9559  134.8953  159.7700 H   0  0  0  0  0  0  0  0  0  0  0  0  # atno 6907 bound_to 6896
  152.5137  134.3741  159.9338 H   0  0  0  0  0  0  0  0  0  0  0  0  # atno 6908 bound_to 6896
  151.3755  133.3799  159.2739 H   0  0  0  0  0  0  0  0  0  0  0  0  # atno 6909 bound_to 6896
  145.5297  140.9522  143.1609 H   0  0  0  0  0  0  0  0  0  0  0  0  # atno 7974 bound_to 7965
  156.1874  140.3083  155.9265 H   0  0  0  0  0  0  0  0  0  0  0  0  # atno 8008 bound_to 7997
  155.3250  140.0458  157.3057 H   0  0  0  0  0  0  0  0  0  0  0  0  # atno 8009 bound_to 7997
  154.5412  140.2262  155.8648 H   0  0  0  0  0  0  0  0  0  0  0  0  # atno 8010 bound_to 7997
  140.4812  143.2402  151.8054 H   0  0  0  0  0  0  0  0  0  0  0  0  # atno 10167 bound_to 10162
  156.1465  130.6504  150.9851 H   0  0  0  0  0  0  0  0  0  0  0  0  # atno 10718 bound_to 10713
  154.7439  135.4998  153.9170 H   0  0  0  0  0  0  0  0  0  0  0  0  # atno 10763 bound_to 10752
  153.1071  135.6700  153.9574 H   0  0  0  0  0  0  0  0  0  0  0  0  # atno 10764 bound_to 10752
  153.9344  135.3074  155.3424 H   0  0  0  0  0  0  0  0  0  0  0  0  # atno 10765 bound_to 10752
  140.2481  134.7999  157.3475 H   0  0  0  0  0  0  0  0  0  0  0  0  # atno 11005 bound_to 11000
  144.7632  139.6907  143.7226 LP  0  0  0  0  0  0  0  0  0  0  0  0  # atno 17320 bound_to 7965
  146.2052  139.5371  142.9717 LP  0  0  0  0  0  0  0  0  0  0  0  0  # atno 17321 bound_to 7965
  139.4834  144.4769  151.9355 LP  0  0  0  0  0  0  0  0  0  0  0  0  # atno 17342 bound_to 10162
  140.3855  144.2682  150.5904 LP  0  0  0  0  0  0  0  0  0  0  0  0  # atno 17343 bound_to 10162
  157.6621  131.0879  150.7814 LP  0  0  0  0  0  0  0  0  0  0  0  0  # atno 17370 bound_to 10713
  156.7885  130.4882  149.5389 LP  0  0  0  0  0  0  0  0  0  0  0  0  # atno 17371 bound_to 10713
  140.1586  134.4758  155.7910 LP  0  0  0  0  0  0  0  0  0  0  0  0  # atno 17394 bound_to 11000
  141.2204  133.6892  156.7504 LP  0  0  0  0  0  0  0  0  0  0  0  0  # atno 17395 bound_to 11000

$$$$
