AV-unprocessed.smi:2026|AV-procd|sdf|8204|dock10
  -GOLD-   2272010463D 1   1.00000     0.00000
 Structure written by MMmdl.
 47 49  0  0  0  0  0  0  0  0  2 V2000
  151.8445  144.6982  160.6609 C   0  0  0  0  0  0  0  0  0  0  0  0
  151.7781  143.5974  159.6162 C   0  0  0  0  0  0  0  0  0  0  0  0
  150.9666  143.7976  158.4768 C   0  0  0  0  0  0  0  0  0  0  0  0
  150.9245  142.7719  157.5399 C   0  0  0  0  0  0  0  0  0  0  0  0
  150.2332  142.6676  156.3312 N   0  3  0  0  0  0  0  0  0  0  0  0
  150.5072  141.4653  155.7537 C   0  0  0  0  0  0  0  0  0  0  0  0
  151.3618  140.7992  156.5766 N   0  0  0  0  0  0  0  0  0  0  0  0
  151.9666  139.4689  156.4161 C   0  0  0  0  0  0  0  0  0  0  0  0
  150.9276  138.3327  156.4854 C   0  0  1  0  0  0  0  0  0  0  0  0
  149.9081  138.7009  157.3941 O   0  0  0  0  0  0  0  0  0  0  0  0
  150.2878  138.0602  155.1087 C   0  0  0  0  0  0  0  0  0  0  0  0
  149.5649  136.7846  155.0858 N   0  0  0  0  0  0  0  0  0  0  0  0
  148.2418  136.6658  154.8776 C   0  0  0  0  0  0  0  0  0  0  0  0
  147.4500  137.5813  154.6586 O   0  0  0  0  0  0  0  0  0  0  0  0
  147.9194  135.3678  154.9527 N   0  0  0  0  0  0  0  0  0  0  0  0
  149.0606  134.5170  155.2331 C   0  0  0  0  0  0  0  0  0  0  0  0
  148.8895  133.7965  156.5824 C   0  0  0  0  0  0  0  0  0  0  0  0
  149.3131  133.5353  154.0748 C   0  0  0  0  0  0  0  0  0  0  0  0
  150.1344  135.5919  155.3050 C   0  0  0  0  0  0  0  0  0  0  0  0
  151.3220  135.3671  155.5400 O   0  0  0  0  0  0  0  0  0  0  0  0
  151.6522  141.5770  157.7042 C   0  0  0  0  0  0  0  0  0  0  0  0
  152.4591  141.3658  158.8204 C   0  0  0  0  0  0  0  0  0  0  0  0
  152.5170  142.3976  159.7843 C   0  0  0  0  0  0  0  0  0  0  0  0
  153.3918  142.1953  161.0099 C   0  0  0  0  0  0  0  0  0  0  0  0
  151.1835  145.5278  160.4087 H   0  0  0  0  0  0  0  0  0  0  0  0
  152.8586  145.0910  160.7381 H   0  0  0  0  0  0  0  0  0  0  0  0
  151.5436  144.3193  161.6378 H   0  0  0  0  0  0  0  0  0  0  0  0
  150.4036  144.7094  158.3404 H   0  0  0  0  0  0  0  0  0  0  0  0
  150.1190  141.1061  154.8115 H   0  0  0  0  0  0  0  0  0  0  0  0
  152.5356  139.4338  155.4869 H   0  0  0  0  0  0  0  0  0  0  0  0
  152.6930  139.3535  157.2215 H   0  0  0  0  0  0  0  0  0  0  0  0
  151.4193  137.4336  156.8597 H   0  0  0  0  0  0  0  0  0  0  0  0
  149.6773  139.6039  157.2382 H   0  0  0  0  0  0  0  0  0  0  0  0
  149.6425  138.8880  154.8086 H   0  0  0  0  0  0  0  0  0  0  0  0
  151.0676  138.0180  154.3461 H   0  0  0  0  0  0  0  0  0  0  0  0
  146.9832  135.0073  154.8385 H   0  0  0  0  0  0  0  0  0  0  0  0
  149.7517  133.1672  156.8061 H   0  0  0  0  0  0  0  0  0  0  0  0
  148.0078  133.1550  156.5747 H   0  0  0  0  0  0  0  0  0  0  0  0
  148.7742  134.5027  157.4061 H   0  0  0  0  0  0  0  0  0  0  0  0
  150.1824  132.9066  154.2718 H   0  0  0  0  0  0  0  0  0  0  0  0
  149.4902  134.0570  153.1331 H   0  0  0  0  0  0  0  0  0  0  0  0
  148.4575  132.8753  153.9278 H   0  0  0  0  0  0  0  0  0  0  0  0
  153.0250  140.4556  158.9498 H   0  0  0  0  0  0  0  0  0  0  0  0
  153.9316  141.2489  160.9637 H   0  0  0  0  0  0  0  0  0  0  0  0
  152.7851  142.1894  161.9158 H   0  0  0  0  0  0  0  0  0  0  0  0
  154.1296  142.9939  161.0912 H   0  0  0  0  0  0  0  0  0  0  0  0
  149.6215  143.3648  155.9268 H   0  0  0  0  0  0  0  0  0  0  0  0
  1  2  1  0  0  0  0
  1 25  1  0  0  0  0
  1 26  1  0  0  0  0
  1 27  1  0  0  0  0
  2 23  1  0  0  0  0
  2  3  2  0  0  0  0
  3  4  1  0  0  0  0
  3 28  1  0  0  0  0
  4 21  2  0  0  0  0
  4  5  1  0  0  0  0
  5  6  2  0  0  0  0
  5 47  1  0  0  0  0
  6  7  1  0  0  0  0
  6 29  1  0  0  0  0
  7  8  1  0  0  0  0
  7 21  1  0  0  0  0
  8  9  1  0  0  0  0
  8 30  1  0  0  0  0
  8 31  1  0  0  0  0
  9 10  1  0  0  0  0
  9 11  1  0  0  0  0
  9 32  1  0  0  0  0
 10 33  1  0  0  0  0
 11 12  1  0  0  0  0
 11 34  1  0  0  0  0
 11 35  1  0  0  0  0
 12 19  1  0  0  0  0
 12 13  1  0  0  0  0
 13 14  2  0  0  0  0
 13 15  1  0  0  0  0
 15 16  1  0  0  0  0
 15 36  1  0  0  0  0
 16 17  1  0  0  0  0
 16 18  1  0  0  0  0
 16 19  1  0  0  0  0
 17 37  1  0  0  0  0
 17 38  1  0  0  0  0
 17 39  1  0  0  0  0
 18 40  1  0  0  0  0
 18 41  1  0  0  0  0
 18 42  1  0  0  0  0
 19 20  2  0  0  0  0
 21 22  1  0  0  0  0
 22 23  2  0  0  0  0
 22 43  1  0  0  0  0
 23 24  1  0  0  0  0
 24 44  1  0  0  0  0
 24 45  1  0  0  0  0
 24 46  1  0  0  0  0
M  CHG  1   5   1
M  END
> <s_m_source_file>
AV-unprocessed.smi

> <i_m_source_file_index>
2026

> <i_lp_mmshare_version>
43012

> <i_f3d_flags>
0

> <s_epik_input>
W0NIM11jKFtjSF0xKWMoW0NIM10pW2NIXWMoYzEyKW4oW2NIXW4yKVtDSDJdW0NASF0oW09IXSlbQ0gyXU4oQzM9TylDKD1PKVtOSF1DMyhbQ0gzXSlbQ0gzXQ==

> <s_epik_cmdline>
J2VwaWtfcHl0aG9uJywgJy1waCcsICc3LjAnLCAnLXRuJywgJzgnLCAnLW1hJywgJzIwMCcsICctbWV0YWxfYmluZGluZycsICctaW1hZScsICc8aW5maWxlLm1hZT4nLCAnLW9tYWUnLCAnPG91dGZpbGUubWFlPic=

> <r_lp_tautomer_probability>
1

> <r_epik_Ionization_Penalty>
1.08255

> <r_epik_Ionization_Penalty_Charging>
1.08249

> <r_epik_Ionization_Penalty_Neutral>
6.65731e-05

> <r_epik_State_Penalty>
1.13805

> <r_epik_Charging_Adjusted_Penalty>
2.22054

> <i_epik_Tot_Q>
1

> <i_epik_Tot_abs_Q>
1

> <r_epik_Metal_State_Penalty>
1.29676

> <b_epik_Metal_Only>
0

> <s_lp_Force_Field>
OPLS_2005

> <r_lp_Energy>
29.7067

> <b_lp_Chiralities_Consistent>
1

> <s_lp_Variant>
AV-unprocessed.smi:2026-4

> <Gold.Version>
5.8.1

> <Gold.Id.Protein>
6NUR|6NUR_protein|mol2

> <Gold.PLP.Fitness>
50.0163

> <Gold.PLP.PLP>
-41.8904

> <Gold.PLP.part.hbond>
-1.9926

> <Gold.PLP.part.metal>
0.0000

> <Gold.PLP.part.buried>
-5.3637

> <Gold.PLP.part.nonpolar>
-35.1253

> <Gold.PLP.part.repulsive>
0.2478

> <Gold.PLP.ligand.clash>
0.0000

> <Gold.PLP.ligand.torsion>
0.4503

> <Gold.PLP.Chemscore.Hbond>
3.0000

> <Gold.PLP.Chemscore.CHOScore>
0.0000

> <Gold.PLP.Chemscore.Metal>
0.0000

> <Gold.Chemscore.Hbonds>
donor molecule, donor type, donor heavy atom, donor atom, acceptor molecule, acceptor atom, score
      L1  H     5    47       P1  8028  2.00
      P1  H 10752 10763       L1    20  1.00

> <Gold.PLP.Chemscore.Internal.Correction>
0.0266

> <Gold.Rescore>
     Score         DG    S(hbond)    S(metal)    S(lipo)     H(rot)  DE(clash)    DE(int)     intcor
     18.20     -18.67       1.95        0.00     111.62       2.49       0.08       0.39       ----

> <Gold.Chemscore.Fitness>
18.1964

> <Gold.Chemscore.DG>
-18.6692

> <Gold.Chemscore.ZeroCoef>
-5.4800

> <Gold.Chemscore.Hbond>
1.9495

> <Gold.Chemscore.Metal>
0.0000

> <Gold.Chemscore.Lipo>
111.6220

> <Gold.Chemscore.Internal_Hbond>
0.0000

> <Gold.Chemscore.DEClash>
0.0845

> <Gold.Chemscore.DEInternal>
0.3883

> <Gold.Chemscore.Rot>
2.4929

> <Gold.Chemscore.Internal.Correction>
   9.000000E+99

> <Gold.Chemscore.Hbonds>
donor molecule, donor type, donor heavy atom, donor atom, acceptor molecule, acceptor atom, score
      L1  H     5    47       P1  8028  0.97
      P1  H 10752 10763       L1    20  0.98

> <Gold.Chemscore.Hbond.Weighted>
-6.5113

> <Gold.Chemscore.Metal.Weighted>
-0.0000

> <Gold.Chemscore.Lipo.Weighted>
-13.0598

> <Gold.Chemscore.Internal_Hbond.Weighted>
0.0000

> <Gold.Chemscore.DEClash.Weighted>
0.0845

> <Gold.Chemscore.DEInternal.Weighted>
0.3883

> <Gold.Chemscore.Rot.Weighted>
6.3819

> <Gold.Chemscore.Internal.Correction.Weighted>
   9.000000E+99

> <Gold.Protein.RotatedTorsions>
[ 6907 6896 6895 6894 ] final  -38.25 input  -60.11 | X-H torsion
[ 7974 7965 7964 7962 ] final  -21.59 input  175.53 | X-H torsion
[ 8008 7997 7996 7995 ] final  128.76 input   59.86 | X-H torsion
[ 10167 10162 10161 10158 ] final -126.41 input  -65.29 | X-H torsion
[ 10718 10713 10712 10709 ] final   60.28 input   66.30 | X-H torsion
[ 10763 10752 10751 10750 ] final   69.87 input  -60.55 | X-H torsion
[ 11005 11000 10999 10996 ] final   34.12 input  -57.11 | X-H torsion

> <Gold.Protein.ActiveResidues>
 VAL166  LYS551  ARG553  GLY616  TRP617  ASP618  TYR619  PRO620  LYS621  CYS622 
 ASP623  PHE694  ASN695  SER759  ASP760  ASP761  ALA762  ILE779  LEU786  VAL792 
 PHE793  MET794  SER795  GLU796  ALA797  LYS798  CYS799  TRP800  GLU811  SER814 

> <Gold.Protein.RotatedAtoms>
  151.0047  134.9350  159.7973 H   0  0  0  0  0  0  0  0  0  0  0  0  # atno 6907 bound_to 6896
  152.5287  134.3107  159.9122 H   0  0  0  0  0  0  0  0  0  0  0  0  # atno 6908 bound_to 6896
  151.3113  133.4038  159.2681 H   0  0  0  0  0  0  0  0  0  0  0  0  # atno 6909 bound_to 6896
  146.1724  140.4362  142.8527 H   0  0  0  0  0  0  0  0  0  0  0  0  # atno 7974 bound_to 7965
  156.2922  140.2637  156.2488 H   0  0  0  0  0  0  0  0  0  0  0  0  # atno 8008 bound_to 7997
  154.9903  140.0389  157.2335 H   0  0  0  0  0  0  0  0  0  0  0  0  # atno 8009 bound_to 7997
  154.7692  140.2775  155.6156 H   0  0  0  0  0  0  0  0  0  0  0  0  # atno 8010 bound_to 7997
  139.9717  143.5838  152.2410 H   0  0  0  0  0  0  0  0  0  0  0  0  # atno 10167 bound_to 10162
  157.5741  130.8930  149.9316 H   0  0  0  0  0  0  0  0  0  0  0  0  # atno 10718 bound_to 10713
  153.0310  135.5194  154.7355 H   0  0  0  0  0  0  0  0  0  0  0  0  # atno 10763 bound_to 10752
  154.6370  135.2907  155.0151 H   0  0  0  0  0  0  0  0  0  0  0  0  # atno 10764 bound_to 10752
  154.1083  135.6626  153.4933 H   0  0  0  0  0  0  0  0  0  0  0  0  # atno 10765 bound_to 10752
  140.2561  134.3247  155.7873 H   0  0  0  0  0  0  0  0  0  0  0  0  # atno 11005 bound_to 11000
  144.8184  140.6507  143.6369 LP  0  0  0  0  0  0  0  0  0  0  0  0  # atno 17320 bound_to 7965
  145.4303  139.1550  143.4026 LP  0  0  0  0  0  0  0  0  0  0  0  0  # atno 17321 bound_to 7965
  139.6476  144.7659  151.2212 LP  0  0  0  0  0  0  0  0  0  0  0  0  # atno 17342 bound_to 10162
  140.7519  143.6213  150.8510 LP  0  0  0  0  0  0  0  0  0  0  0  0  # atno 17343 bound_to 10162
  156.0785  130.3676  150.0628 LP  0  0  0  0  0  0  0  0  0  0  0  0  # atno 17370 bound_to 10713
  156.8777  130.9546  151.3603 LP  0  0  0  0  0  0  0  0  0  0  0  0  # atno 17371 bound_to 10713
  141.2196  133.7382  156.9113 LP  0  0  0  0  0  0  0  0  0  0  0  0  # atno 17394 bound_to 11000
  140.1511  134.9230  157.2593 LP  0  0  0  0  0  0  0  0  0  0  0  0  # atno 17395 bound_to 11000

$$$$
