AV-unprocessed.smi:1986|AV-procd|sdf|8051|dock6
  -GOLD-   2272010253D 1   1.00000     0.00000
 Structure written by MMmdl.
 47 48  0  0  0  0  0  0  0  0  1 V2000
  150.7068  135.7489  155.8755 C   0  0  0  0  0  0  0  0  0  0  0  0
  149.8863  136.8145  155.1261 C   0  0  0  0  0  0  0  0  0  0  0  0
  150.1487  138.2934  155.5545 C   0  0  2  0  0  0  0  0  0  0  0  0
  151.6660  138.5476  155.3408 C   0  0  0  0  0  0  0  0  0  0  0  0
  149.8262  138.4238  157.0795 C   0  0  0  0  0  0  0  0  0  0  0  0
  148.7747  137.5174  157.5420 N   0  0  0  0  0  0  0  0  0  0  0  0
  148.8943  136.6184  158.5310 C   0  0  0  0  0  0  0  0  0  0  0  0
  149.9209  136.4826  159.1981 O   0  0  0  0  0  0  0  0  0  0  0  0
  147.6596  135.7459  158.7986 C   0  0  0  0  0  0  0  0  0  0  0  0
  147.5865  135.2700  160.1873 N   0  0  0  0  0  0  0  0  0  0  0  0
  147.6051  133.8884  160.3068 N   0  0  0  0  0  0  0  0  0  0  0  0
  147.5744  133.3409  161.4744 C   0  0  0  0  0  0  0  0  0  0  0  0
  147.5992  131.9696  161.5459 O   0  0  0  0  0  0  0  0  0  0  0  0
  147.5148  134.1439  162.6761 C   0  0  0  0  0  0  0  0  0  0  0  0
  147.4940  135.4888  162.5496 C   0  0  0  0  0  0  0  0  0  0  0  0
  147.5332  136.1428  161.2402 C   0  0  0  0  0  0  0  0  0  0  0  0
  147.5249  137.3652  161.0984 O   0  0  0  0  0  0  0  0  0  0  0  0
  149.3446  139.2405  154.7305 N   0  0  0  0  0  0  0  0  0  0  0  0
  149.4178  140.6472  155.1438 C   0  0  0  0  0  0  0  0  0  0  0  0
  148.6833  141.5750  154.1610 C   0  0  0  0  0  0  0  0  0  0  0  0
  147.3283  141.1617  154.0327 O   0  0  0  0  0  0  0  0  0  0  0  0
  147.2113  139.8186  153.5791 C   0  0  0  0  0  0  0  0  0  0  0  0
  147.9328  138.8773  154.5583 C   0  0  0  0  0  0  0  0  0  0  0  0
  148.3098  131.7004  160.9847 H   0  0  0  0  0  0  0  0  0  0  0  0
  150.4683  134.7531  155.5020 H   0  0  0  0  0  0  0  0  0  0  0  0
  150.4945  135.7522  156.9444 H   0  0  0  0  0  0  0  0  0  0  0  0
  151.7791  135.8956  155.7455 H   0  0  0  0  0  0  0  0  0  0  0  0
  150.0527  136.6960  154.0555 H   0  0  0  0  0  0  0  0  0  0  0  0
  148.8332  136.5679  155.2649 H   0  0  0  0  0  0  0  0  0  0  0  0
  152.2782  137.7307  155.7243 H   0  0  0  0  0  0  0  0  0  0  0  0
  152.0036  139.4500  155.8510 H   0  0  0  0  0  0  0  0  0  0  0  0
  151.9115  138.6611  154.2846 H   0  0  0  0  0  0  0  0  0  0  0  0
  150.7219  138.2813  157.6842 H   0  0  0  0  0  0  0  0  0  0  0  0
  149.4758  139.4297  157.3082 H   0  0  0  0  0  0  0  0  0  0  0  0
  147.8931  137.5628  157.0518 H   0  0  0  0  0  0  0  0  0  0  0  0
  146.7663  136.3107  158.5274 H   0  0  0  0  0  0  0  0  0  0  0  0
  147.6747  134.8878  158.1235 H   0  0  0  0  0  0  0  0  0  0  0  0
  147.4872  133.6715  163.6469 H   0  0  0  0  0  0  0  0  0  0  0  0
  147.4494  136.1011  163.4384 H   0  0  0  0  0  0  0  0  0  0  0  0
  148.9829  140.7748  156.1348 H   0  0  0  0  0  0  0  0  0  0  0  0
  150.4512  140.9834  155.2057 H   0  0  0  0  0  0  0  0  0  0  0  0
  148.7100  142.6038  154.5200 H   0  0  0  0  0  0  0  0  0  0  0  0
  149.1690  141.5647  153.1840 H   0  0  0  0  0  0  0  0  0  0  0  0
  146.1556  139.5566  153.5110 H   0  0  0  0  0  0  0  0  0  0  0  0
  147.6299  139.7272  152.5755 H   0  0  0  0  0  0  0  0  0  0  0  0
  147.8328  137.8620  154.1793 H   0  0  0  0  0  0  0  0  0  0  0  0
  147.4145  138.9101  155.5166 H   0  0  0  0  0  0  0  0  0  0  0  0
  1  2  1  0  0  0  0
  1 25  1  0  0  0  0
  1 26  1  0  0  0  0
  1 27  1  0  0  0  0
  2  3  1  0  0  0  0
  2 28  1  0  0  0  0
  2 29  1  0  0  0  0
  3  4  1  0  0  0  0
  3  5  1  0  0  0  0
  3 18  1  0  0  0  0
  4 30  1  0  0  0  0
  4 31  1  0  0  0  0
  4 32  1  0  0  0  0
  5  6  1  0  0  0  0
  5 33  1  0  0  0  0
  5 34  1  0  0  0  0
  6  7  1  0  0  0  0
  6 35  1  0  0  0  0
  7  8  2  0  0  0  0
  7  9  1  0  0  0  0
  9 36  1  0  0  0  0
  9 37  1  0  0  0  0
  9 10  1  0  0  0  0
 10 11  1  0  0  0  0
 10 16  1  0  0  0  0
 11 12  2  0  0  0  0
 12 13  1  0  0  0  0
 12 14  1  0  0  0  0
 13 24  1  0  0  0  0
 14 38  1  0  0  0  0
 14 15  2  0  0  0  0
 15 39  1  0  0  0  0
 15 16  1  0  0  0  0
 16 17  2  0  0  0  0
 18 23  1  0  0  0  0
 18 19  1  0  0  0  0
 19 20  1  0  0  0  0
 19 40  1  0  0  0  0
 19 41  1  0  0  0  0
 20 21  1  0  0  0  0
 20 42  1  0  0  0  0
 20 43  1  0  0  0  0
 21 22  1  0  0  0  0
 22 23  1  0  0  0  0
 22 44  1  0  0  0  0
 22 45  1  0  0  0  0
 23 46  1  0  0  0  0
 23 47  1  0  0  0  0
M  END
> <s_m_source_file>
AV-unprocessed.smi

> <i_m_source_file_index>
1986

> <i_lp_mmshare_version>
43012

> <i_f3d_flags>
0

> <s_epik_input>
W0NIMl0xW0NIMl1PW0NIMl1bQ0gyXU4xW0NAQF0oW0NIM10pKFtDSDJdW0NIM10pW0NIMl1bTkhdQyg9TylbQ0gyXW4yW25IXWMoPU8pW2NIXVtjSF1jMj1P

> <s_epik_cmdline>
J2VwaWtfcHl0aG9uJywgJy1waCcsICc3LjAnLCAnLXRuJywgJzgnLCAnLW1hJywgJzIwMCcsICctbWV0YWxfYmluZGluZycsICctaW1hZScsICc8aW5maWxlLm1hZT4nLCAnLW9tYWUnLCAnPG91dGZpbGUubWFlPic=

> <r_epik_Ionization_Penalty>
2.44436

> <r_epik_Ionization_Penalty_Charging>
3.63754e-08

> <r_epik_Ionization_Penalty_Neutral>
2.44436

> <r_epik_State_Penalty>
2.04701

> <r_epik_Charging_Adjusted_Penalty>
2.04701

> <i_epik_Tot_Q>
0

> <i_epik_Tot_abs_Q>
0

> <r_epik_Metal_State_Penalty>
2.04701

> <b_epik_Metal_Only>
0

> <s_lp_Force_Field>
OPLS_2005

> <r_lp_Energy>
53.8062

> <b_lp_Chiralities_Consistent>
1

> <s_lp_Variant>
AV-unprocessed.smi:1986-6

> <Gold.Version>
5.8.1

> <Gold.Id.Protein>
6NUR|6NUR_protein|mol2

> <Gold.PLP.Fitness>
40.7961

> <Gold.PLP.PLP>
-34.5975

> <Gold.PLP.part.hbond>
-3.0000

> <Gold.PLP.part.metal>
0.0000

> <Gold.PLP.part.buried>
-4.7693

> <Gold.PLP.part.nonpolar>
-27.6440

> <Gold.PLP.part.repulsive>
0.3009

> <Gold.PLP.ligand.clash>
0.0000

> <Gold.PLP.ligand.torsion>
1.1845

> <Gold.PLP.Chemscore.Hbond>
2.7840

> <Gold.PLP.Chemscore.CHOScore>
0.0000

> <Gold.PLP.Chemscore.Metal>
0.0000

> <Gold.Chemscore.Hbonds>
donor molecule, donor type, donor heavy atom, donor atom, acceptor molecule, acceptor atom, score
      P1  H  6896  6907       L1     8  1.00
      P1  H  6931  6943       L1    17  0.80
      P1  H  6934  6947       L1    17  0.94

> <Gold.PLP.Chemscore.Internal.Correction>
0.2156

> <Gold.Rescore>
     Score         DG    S(hbond)    S(metal)    S(lipo)     H(rot)  DE(clash)    DE(int)     intcor
     11.97     -14.84       2.78        0.00      67.65       3.06       0.21       2.67       ----

> <Gold.Chemscore.Fitness>
11.9653

> <Gold.Chemscore.DG>
-14.8373

> <Gold.Chemscore.ZeroCoef>
-5.4800

> <Gold.Chemscore.Hbond>
2.7788

> <Gold.Chemscore.Metal>
0.0000

> <Gold.Chemscore.Lipo>
67.6472

> <Gold.Chemscore.Internal_Hbond>
0.0000

> <Gold.Chemscore.DEClash>
0.2060

> <Gold.Chemscore.DEInternal>
2.6660

> <Gold.Chemscore.Rot>
3.0620

> <Gold.Chemscore.Internal.Correction>
   9.000000E+99

> <Gold.Chemscore.Hbonds>
donor molecule, donor type, donor heavy atom, donor atom, acceptor molecule, acceptor atom, score
      P1  H  6896  6907       L1     8  1.00
      P1  H  6931  6943       L1    17  0.70
      P1  H  6934  6947       L1    17  0.91

> <Gold.Chemscore.Hbond.Weighted>
-9.2812

> <Gold.Chemscore.Metal.Weighted>
-0.0000

> <Gold.Chemscore.Lipo.Weighted>
-7.9147

> <Gold.Chemscore.Internal_Hbond.Weighted>
0.0000

> <Gold.Chemscore.DEClash.Weighted>
0.2060

> <Gold.Chemscore.DEInternal.Weighted>
2.6660

> <Gold.Chemscore.Rot.Weighted>
7.8387

> <Gold.Chemscore.Internal.Correction.Weighted>
   9.000000E+99

> <Gold.Protein.RotatedTorsions>
[ 6907 6896 6895 6894 ] final  -44.72 input  -60.11 | X-H torsion
[ 7974 7965 7964 7962 ] final   79.32 input  175.53 | X-H torsion
[ 8008 7997 7996 7995 ] final  133.28 input   59.86 | X-H torsion
[ 10167 10162 10161 10158 ] final  133.99 input  -65.29 | X-H torsion
[ 10718 10713 10712 10709 ] final -117.98 input   66.30 | X-H torsion
[ 10763 10752 10751 10750 ] final  -54.31 input  -60.55 | X-H torsion
[ 11005 11000 10999 10996 ] final   59.53 input  -57.11 | X-H torsion

> <Gold.Protein.ActiveResidues>
 VAL166  LYS551  ARG553  GLY616  TRP617  ASP618  TYR619  PRO620  LYS621  CYS622 
 ASP623  PHE694  ASN695  SER759  ASP760  ASP761  ALA762  ILE779  LEU786  VAL792 
 PHE793  MET794  SER795  GLU796  ALA797  LYS798  CYS799  TRP800  GLU811  SER814 

> <Gold.Protein.RotatedAtoms>
  150.9297  134.8712  159.7542 H   0  0  0  0  0  0  0  0  0  0  0  0  # atno 6907 bound_to 6896
  152.5032  134.4097  159.9454 H   0  0  0  0  0  0  0  0  0  0  0  0  # atno 6908 bound_to 6896
  151.4125  133.3683  159.2781 H   0  0  0  0  0  0  0  0  0  0  0  0  # atno 6909 bound_to 6896
  145.6657  139.2483  143.1897 H   0  0  0  0  0  0  0  0  0  0  0  0  # atno 7974 bound_to 7965
  156.2991  140.2525  156.3227 H   0  0  0  0  0  0  0  0  0  0  0  0  # atno 8008 bound_to 7997
  154.9220  140.0400  157.2022 H   0  0  0  0  0  0  0  0  0  0  0  0  # atno 8009 bound_to 7997
  154.8302  140.2874  155.5732 H   0  0  0  0  0  0  0  0  0  0  0  0  # atno 8010 bound_to 7997
  139.5274  144.6589  151.5076 H   0  0  0  0  0  0  0  0  0  0  0  0  # atno 10167 bound_to 10162
  156.1073  130.6220  150.9233 H   0  0  0  0  0  0  0  0  0  0  0  0  # atno 10718 bound_to 10713
  154.1728  135.6456  153.5014 H   0  0  0  0  0  0  0  0  0  0  0  0  # atno 10763 bound_to 10752
  153.0079  135.5387  154.6594 H   0  0  0  0  0  0  0  0  0  0  0  0  # atno 10764 bound_to 10752
  154.5938  135.2937  155.0580 H   0  0  0  0  0  0  0  0  0  0  0  0  # atno 10765 bound_to 10752
  140.0297  134.6030  155.9523 H   0  0  0  0  0  0  0  0  0  0  0  0  # atno 11005 bound_to 11000
  146.1088  140.7454  142.9513 LP  0  0  0  0  0  0  0  0  0  0  0  0  # atno 17320 bound_to 7965
  144.7074  140.3905  143.7107 LP  0  0  0  0  0  0  0  0  0  0  0  0  # atno 17321 bound_to 7965
  140.6428  143.8855  150.6708 LP  0  0  0  0  0  0  0  0  0  0  0  0  # atno 17342 bound_to 10162
  140.2195  143.3820  152.1654 LP  0  0  0  0  0  0  0  0  0  0  0  0  # atno 17343 bound_to 10162
  157.6251  131.0926  150.8549 LP  0  0  0  0  0  0  0  0  0  0  0  0  # atno 17370 bound_to 10713
  156.8666  130.5131  149.5300 LP  0  0  0  0  0  0  0  0  0  0  0  0  # atno 17371 bound_to 10713
  141.1824  133.6549  156.5074 LP  0  0  0  0  0  0  0  0  0  0  0  0  # atno 17394 bound_to 11000
  140.4246  134.7157  157.4909 LP  0  0  0  0  0  0  0  0  0  0  0  0  # atno 17395 bound_to 11000

$$$$
