AV-unprocessed.smi:1843|AV-procd|sdf|7505|dock8
  -GOLD-   22720 9213D 1   1.00000     0.00000
 Structure written by MMmdl.
 36 38  0  0  0  0  0  0  0  0  2 V2000
  146.1744  139.1525  153.9297 O   0  0  0  0  0  0  0  0  0  0  0  0
  146.8478  138.5699  153.0767 C   0  0  0  0  0  0  0  0  0  0  0  0
  146.3879  138.0224  151.9290 N   0  5  0  0  0  0  0  0  0  0  0  0
  145.6461  136.9032  151.9687 C   0  0  0  0  0  0  0  0  0  0  0  0
  144.8618  136.5957  153.0115 N   0  0  0  0  0  0  0  0  0  0  0  0
  144.1870  135.3943  152.8493 N   0  0  0  0  0  0  0  0  0  0  0  0
  144.4781  134.8059  151.6867 C   0  0  0  0  0  0  0  0  0  0  0  0
  143.8783  133.5025  151.2771 C   0  0  0  0  0  0  0  0  0  0  0  0
  144.7112  132.2427  151.1809 C   0  0  0  0  0  0  0  0  0  0  0  0
  144.1901  132.8979  149.9273 C   0  0  0  0  0  0  0  0  0  0  0  0
  145.6233  135.6893  150.6902 S   0  0  0  0  0  0  0  0  0  0  0  0
  148.1723  138.4418  153.2411 N   0  0  0  0  0  0  0  0  0  0  0  0
  148.9573  138.9537  154.3634 C   0  0  1  0  0  0  0  0  0  0  0  0
  150.3956  138.4034  154.3042 C   0  0  0  0  0  0  0  0  0  0  0  0
  151.2414  138.9258  155.4767 C   0  0  0  0  0  0  0  0  0  0  0  0
  151.2462  140.4620  155.5208 C   0  0  0  0  0  0  0  0  0  0  0  0
  149.8151  141.0277  155.5722 C   0  0  0  0  0  0  0  0  0  0  0  0
  148.9382  140.5017  154.4192 C   0  0  1  0  0  0  0  0  0  0  0  0
  149.3957  141.0562  153.1993 O   0  0  0  0  0  0  0  0  0  0  0  0
  142.8612  133.4126  151.6537 H   0  0  0  0  0  0  0  0  0  0  0  0
  145.7801  132.3149  151.3714 H   0  0  0  0  0  0  0  0  0  0  0  0
  144.2452  131.3101  151.4918 H   0  0  0  0  0  0  0  0  0  0  0  0
  143.3776  132.4020  149.4002 H   0  0  0  0  0  0  0  0  0  0  0  0
  144.9091  133.4158  149.2955 H   0  0  0  0  0  0  0  0  0  0  0  0
  148.6806  137.9539  152.5181 H   0  0  0  0  0  0  0  0  0  0  0  0
  148.5072  138.5765  155.2840 H   0  0  0  0  0  0  0  0  0  0  0  0
  150.3777  137.3131  154.3245 H   0  0  0  0  0  0  0  0  0  0  0  0
  150.8662  138.6855  153.3612 H   0  0  0  0  0  0  0  0  0  0  0  0
  150.8463  138.5349  156.4151 H   0  0  0  0  0  0  0  0  0  0  0  0
  152.2626  138.5531  155.3920 H   0  0  0  0  0  0  0  0  0  0  0  0
  151.8115  140.8071  156.3868 H   0  0  0  0  0  0  0  0  0  0  0  0
  151.7641  140.8500  154.6427 H   0  0  0  0  0  0  0  0  0  0  0  0
  149.3576  140.7472  156.5219 H   0  0  0  0  0  0  0  0  0  0  0  0
  149.8426  142.1179  155.5593 H   0  0  0  0  0  0  0  0  0  0  0  0
  147.9162  140.8518  154.5689 H   0  0  0  0  0  0  0  0  0  0  0  0
  149.4251  140.3645  152.5553 H   0  0  0  0  0  0  0  0  0  0  0  0
  1  2  2  0  0  0  0
  2  3  1  0  0  0  0
  2 12  1  0  0  0  0
  3  4  1  0  0  0  0
  4 11  1  0  0  0  0
  4  5  2  0  0  0  0
  5  6  1  0  0  0  0
  6  7  2  0  0  0  0
  7  8  1  0  0  0  0
  7 11  1  0  0  0  0
  8 10  1  0  0  0  0
  8  9  1  0  0  0  0
  8 20  1  0  0  0  0
  9 10  1  0  0  0  0
  9 21  1  0  0  0  0
  9 22  1  0  0  0  0
 10 23  1  0  0  0  0
 10 24  1  0  0  0  0
 12 13  1  0  0  0  0
 12 25  1  0  0  0  0
 13 18  1  0  0  0  0
 13 14  1  0  0  0  0
 13 26  1  0  0  0  0
 14 15  1  0  0  0  0
 14 27  1  0  0  0  0
 14 28  1  0  0  0  0
 15 16  1  0  0  0  0
 15 29  1  0  0  0  0
 15 30  1  0  0  0  0
 16 17  1  0  0  0  0
 16 31  1  0  0  0  0
 16 32  1  0  0  0  0
 17 18  1  0  0  0  0
 17 33  1  0  0  0  0
 17 34  1  0  0  0  0
 18 19  1  0  0  0  0
 18 35  1  0  0  0  0
 19 36  1  0  0  0  0
M  CHG  1   3  -1
M  END
> <s_m_source_file>
AV-unprocessed.smi

> <i_m_source_file_index>
1843

> <i_lp_mmshare_version>
43012

> <i_f3d_flags>
0

> <s_epik_input>
W09IXVtDQEBIXTFbQ0gyXVtDSDJdW0NIMl1bQ0gyXVtDQEhdMVtOSF1DKD1PKVtOSF1jMm5uYyhzMilbQ0hdM1tDSDJdW0NIMl0z

> <s_epik_cmdline>
J2VwaWtfcHl0aG9uJywgJy1waCcsICc3LjAnLCAnLXRuJywgJzgnLCAnLW1hJywgJzIwMCcsICctbWV0YWxfYmluZGluZycsICctaW1hZScsICc8aW5maWxlLm1hZT4nLCAnLW9tYWUnLCAnPG91dGZpbGUubWFlPic=

> <r_lp_tautomer_probability>
1

> <r_epik_Ionization_Penalty>
4.7996

> <r_epik_Ionization_Penalty_Charging>
4.64516

> <r_epik_Ionization_Penalty_Neutral>
0.154442

> <r_epik_State_Penalty>
4.64493

> <r_epik_Charging_Adjusted_Penalty>
9.29009

> <i_epik_Tot_Q>
-1

> <i_epik_Tot_abs_Q>
1

> <r_epik_Metal_State_Penalty>
0.896144

> <b_epik_Metal_Only>
1

> <s_lp_Force_Field>
OPLS_2005

> <r_lp_Energy>
9.18757

> <b_lp_Chiralities_Consistent>
1

> <s_lp_Variant>
AV-unprocessed.smi:1843-6

> <Gold.Version>
5.8.1

> <Gold.Id.Protein>
6NUR|6NUR_protein|mol2

> <Gold.PLP.Fitness>
42.9545

> <Gold.PLP.PLP>
-36.3733

> <Gold.PLP.part.hbond>
-4.4110

> <Gold.PLP.part.metal>
0.0000

> <Gold.PLP.part.buried>
-6.2649

> <Gold.PLP.part.nonpolar>
-28.3912

> <Gold.PLP.part.repulsive>
0.6824

> <Gold.PLP.ligand.clash>
0.0000

> <Gold.PLP.ligand.torsion>
0.9868

> <Gold.PLP.Chemscore.Hbond>
2.8014

> <Gold.PLP.Chemscore.CHOScore>
0.0000

> <Gold.PLP.Chemscore.Metal>
0.0000

> <Gold.Chemscore.Hbonds>
donor molecule, donor type, donor heavy atom, donor atom, acceptor molecule, acceptor atom, score
      L1  H    12    25       P1  7948  0.85
      L1  H    19    36       P1  7957  0.70
      P1  H  7989  7998       L1    19  0.04
      P1  H  8011  8017       L1    19  1.00

> <Gold.PLP.Chemscore.Internal.Correction>
0.1505

> <Gold.Rescore>
     Score         DG    S(hbond)    S(metal)    S(lipo)     H(rot)  DE(clash)    DE(int)     intcor
     16.18     -17.27       2.20        0.00      75.65       1.72       0.01       1.08       ----

> <Gold.Chemscore.Fitness>
16.1815

> <Gold.Chemscore.DG>
-17.2740

> <Gold.Chemscore.ZeroCoef>
-5.4800

> <Gold.Chemscore.Hbond>
2.1965

> <Gold.Chemscore.Metal>
0.0000

> <Gold.Chemscore.Lipo>
75.6472

> <Gold.Chemscore.Internal_Hbond>
0.0000

> <Gold.Chemscore.DEClash>
0.0096

> <Gold.Chemscore.DEInternal>
1.0829

> <Gold.Chemscore.Rot>
1.7160

> <Gold.Chemscore.Internal.Correction>
   9.000000E+99

> <Gold.Chemscore.Hbonds>
donor molecule, donor type, donor heavy atom, donor atom, acceptor molecule, acceptor atom, score
      L1  H    12    25       P1  7948  0.83
      L1  H    19    36       P1  7957  0.68
      P1  H  8011  8017       L1    19  0.39

> <Gold.Chemscore.Hbond.Weighted>
-7.3363

> <Gold.Chemscore.Metal.Weighted>
-0.0000

> <Gold.Chemscore.Lipo.Weighted>
-8.8507

> <Gold.Chemscore.Internal_Hbond.Weighted>
0.0000

> <Gold.Chemscore.DEClash.Weighted>
0.0096

> <Gold.Chemscore.DEInternal.Weighted>
1.0829

> <Gold.Chemscore.Rot.Weighted>
4.3930

> <Gold.Chemscore.Internal.Correction.Weighted>
   9.000000E+99

> <Gold.Protein.RotatedTorsions>
[ 6907 6896 6895 6894 ] final   68.73 input  -60.11 | X-H torsion
[ 7974 7965 7964 7962 ] final  128.72 input  175.53 | X-H torsion
[ 8008 7997 7996 7995 ] final   22.25 input   59.86 | X-H torsion
[ 10167 10162 10161 10158 ] final -170.98 input  -65.29 | X-H torsion
[ 10718 10713 10712 10709 ] final    5.92 input   66.30 | X-H torsion
[ 10763 10752 10751 10750 ] final   26.18 input  -60.55 | X-H torsion
[ 11005 11000 10999 10996 ] final  -34.94 input  -57.11 | X-H torsion

> <Gold.Protein.ActiveResidues>
 VAL166  LYS551  ARG553  GLY616  TRP617  ASP618  TYR619  PRO620  LYS621  CYS622 
 ASP623  PHE694  ASN695  SER759  ASP760  ASP761  ALA762  ILE779  LEU786  VAL792 
 PHE793  MET794  SER795  GLU796  ALA797  LYS798  CYS799  TRP800  GLU811  SER814 

> <Gold.Protein.RotatedAtoms>
  152.4640  134.5119  159.9756 H   0  0  0  0  0  0  0  0  0  0  0  0  # atno 6907 bound_to 6896
  151.5161  133.3469  159.2901 H   0  0  0  0  0  0  0  0  0  0  0  0  # atno 6908 bound_to 6896
  150.8615  134.7997  159.7149 H   0  0  0  0  0  0  0  0  0  0  0  0  # atno 6909 bound_to 6896
  145.0364  139.4001  143.5124 H   0  0  0  0  0  0  0  0  0  0  0  0  # atno 7974 bound_to 7965
  154.9628  140.3080  155.5023 H   0  0  0  0  0  0  0  0  0  0  0  0  # atno 8008 bound_to 7997
  156.2975  140.2298  156.4653 H   0  0  0  0  0  0  0  0  0  0  0  0  # atno 8009 bound_to 7997
  154.7949  140.0437  157.1217 H   0  0  0  0  0  0  0  0  0  0  0  0  # atno 8010 bound_to 7997
  139.5829  144.1383  152.1538 H   0  0  0  0  0  0  0  0  0  0  0  0  # atno 10167 bound_to 10162
  156.9145  130.5768  149.5647 H   0  0  0  0  0  0  0  0  0  0  0  0  # atno 10718 bound_to 10713
  153.0640  135.6566  154.0397 H   0  0  0  0  0  0  0  0  0  0  0  0  # atno 10763 bound_to 10752
  154.0058  135.2933  155.3399 H   0  0  0  0  0  0  0  0  0  0  0  0  # atno 10764 bound_to 10752
  154.6990  135.5252  153.8568 H   0  0  0  0  0  0  0  0  0  0  0  0  # atno 10765 bound_to 10752
  140.9757  133.7084  156.1598 H   0  0  0  0  0  0  0  0  0  0  0  0  # atno 11005 bound_to 11000
  146.3504  139.9942  142.8682 LP  0  0  0  0  0  0  0  0  0  0  0  0  # atno 17320 bound_to 7965
  145.1703  140.9718  143.4325 LP  0  0  0  0  0  0  0  0  0  0  0  0  # atno 17321 bound_to 7965
  140.0940  144.5596  150.7035 LP  0  0  0  0  0  0  0  0  0  0  0  0  # atno 17342 bound_to 10162
  140.7105  143.2501  151.4596 LP  0  0  0  0  0  0  0  0  0  0  0  0  # atno 17343 bound_to 10162
  156.0520  130.5588  150.9010 LP  0  0  0  0  0  0  0  0  0  0  0  0  # atno 17370 bound_to 10713
  157.5946  131.0943  150.9062 LP  0  0  0  0  0  0  0  0  0  0  0  0  # atno 17371 bound_to 10713
  140.7263  134.4304  157.5570 LP  0  0  0  0  0  0  0  0  0  0  0  0  # atno 17394 bound_to 11000
  139.8929  134.8742  156.2247 LP  0  0  0  0  0  0  0  0  0  0  0  0  # atno 17395 bound_to 11000

$$$$
