AV-unprocessed.smi:1417|AV-procd|sdf|5772|dock5
  -GOLD-   22720 5413D 1   1.00000     0.00000
 Structure written by MMmdl.
 39 40  0  0  0  0  0  0  0  0  3 V2000
  153.1976  141.6951  160.6947 C   0  0  0  0  0  0  0  0  0  0  0  0
  152.4146  142.2412  159.5504 C   0  0  0  0  0  0  0  0  0  0  0  0
  151.4695  141.6982  158.7267 C   0  0  0  0  0  0  0  0  0  0  0  0
  151.1432  142.7806  157.8588 C   0  0  0  0  0  0  0  0  0  0  0  0
  150.2036  142.7515  156.7961 N   0  0  0  0  0  0  0  0  0  0  0  0
  149.6663  141.6815  156.1867 C   0  0  0  0  0  0  0  0  0  0  0  0
  149.9014  140.5067  156.4688 O   0  0  0  0  0  0  0  0  0  0  0  0
  148.8207  142.0518  155.2136 N   0  0  0  0  0  0  0  0  0  0  0  0
  148.0538  141.1396  154.3654 C   0  0  2  0  0  0  0  0  0  0  0  0
  147.3519  141.8789  153.2085 C   0  0  0  0  0  0  0  0  0  0  0  0
  146.1902  142.7562  153.7060 C   0  0  0  0  0  0  0  0  0  0  0  0
  145.2110  141.9535  154.4862 N   0  3  2  0  0  0  0  0  0  0  0  0
  143.9961  142.7179  154.8677 C   0  0  0  0  0  0  0  0  0  0  0  0
  142.9943  141.8109  155.5902 C   0  0  0  0  0  0  0  0  0  0  0  0
  142.6027  140.7695  154.8284 N   0  5  0  0  0  0  0  0  0  0  0  0
  142.6424  142.0848  156.7351 O   0  0  0  0  0  0  0  0  0  0  0  0
  145.8496  141.2856  155.6482 C   0  0  0  0  0  0  0  0  0  0  0  0
  147.0105  140.3777  155.2011 C   0  0  0  0  0  0  0  0  0  0  0  0
  151.8330  143.8738  158.1267 N   0  0  0  0  0  0  0  0  0  0  0  0
  152.6484  143.5380  159.2136 O   0  0  0  0  0  0  0  0  0  0  0  0
  152.9750  140.6394  160.8507 H   0  0  0  0  0  0  0  0  0  0  0  0
  152.9611  142.2299  161.6146 H   0  0  0  0  0  0  0  0  0  0  0  0
  154.2680  141.7913  160.5120 H   0  0  0  0  0  0  0  0  0  0  0  0
  151.0872  140.6891  158.7551 H   0  0  0  0  0  0  0  0  0  0  0  0
  149.8970  143.6559  156.4695 H   0  0  0  0  0  0  0  0  0  0  0  0
  148.6848  143.0399  155.0578 H   0  0  0  0  0  0  0  0  0  0  0  0
  148.7489  140.4099  153.9460 H   0  0  0  0  0  0  0  0  0  0  0  0
  148.0640  142.4846  152.6472 H   0  0  0  0  0  0  0  0  0  0  0  0
  146.9623  141.1451  152.5018 H   0  0  0  0  0  0  0  0  0  0  0  0
  146.5690  143.5727  154.3227 H   0  0  0  0  0  0  0  0  0  0  0  0
  145.7009  143.2148  152.8464 H   0  0  0  0  0  0  0  0  0  0  0  0
  144.2555  143.5376  155.5402 H   0  0  0  0  0  0  0  0  0  0  0  0
  143.5389  143.1721  153.9871 H   0  0  0  0  0  0  0  0  0  0  0  0
  142.8341  140.7676  153.8279 H   0  0  0  0  0  0  0  0  0  0  0  0
  146.2030  142.0391  156.3538 H   0  0  0  0  0  0  0  0  0  0  0  0
  145.1099  140.6817  156.1752 H   0  0  0  0  0  0  0  0  0  0  0  0
  146.6075  139.5571  154.6056 H   0  0  0  0  0  0  0  0  0  0  0  0
  147.4829  139.9168  156.0696 H   0  0  0  0  0  0  0  0  0  0  0  0
  144.8828  141.2165  153.8772 H   0  0  0  0  0  0  0  0  0  0  0  0
  1  2  1  0  0  0  0
  1 21  1  0  0  0  0
  1 22  1  0  0  0  0
  1 23  1  0  0  0  0
  2 20  1  0  0  0  0
  2  3  2  0  0  0  0
  3  4  1  0  0  0  0
  3 24  1  0  0  0  0
  4  5  1  0  0  0  0
  4 19  2  0  0  0  0
  5  6  1  0  0  0  0
  5 25  1  0  0  0  0
  6  7  2  0  0  0  0
  6  8  1  0  0  0  0
  8  9  1  0  0  0  0
  8 26  1  0  0  0  0
  9 18  1  0  0  0  0
  9 10  1  0  0  0  0
  9 27  1  0  0  0  0
 10 11  1  0  0  0  0
 10 28  1  0  0  0  0
 10 29  1  0  0  0  0
 11 12  1  0  0  0  0
 11 30  1  0  0  0  0
 11 31  1  0  0  0  0
 12 13  1  0  0  0  0
 12 17  1  0  0  0  0
 12 39  1  0  0  0  0
 13 14  1  0  0  0  0
 13 32  1  0  0  0  0
 13 33  1  0  0  0  0
 14 15  1  0  0  0  0
 14 16  2  0  0  0  0
 15 34  1  0  0  0  0
 17 18  1  0  0  0  0
 17 35  1  0  0  0  0
 17 36  1  0  0  0  0
 18 37  1  0  0  0  0
 18 38  1  0  0  0  0
 19 20  1  0  0  0  0
M  CHG  1  12   1
M  CHG  1  15  -1
M  END
> <s_m_source_file>
AV-unprocessed.smi

> <i_m_source_file_index>
1417

> <i_lp_mmshare_version>
43012

> <i_f3d_flags>
0

> <s_epik_input>
W0NIM11jMVtjSF1jKG5vMSlbTkhdQyg9TylbTkhdW0NIXTJbQ0gyXVtDSDJdTihbQ0gyXVtDSDJdMilbQ0gyXUMoPU8pW05IMl0=

> <s_epik_cmdline>
J2VwaWtfcHl0aG9uJywgJy1waCcsICc3LjAnLCAnLXRuJywgJzgnLCAnLW1hJywgJzIwMCcsICctbWV0YWxfYmluZGluZycsICctaW1hZScsICc8aW5maWxlLm1hZT4nLCAnLW9tYWUnLCAnPG91dGZpbGUubWFlPic=

> <r_epik_Ionization_Penalty>
5.73218

> <r_epik_Ionization_Penalty_Charging>
5.73215

> <r_epik_Ionization_Penalty_Neutral>
3.37968e-05

> <r_epik_State_Penalty>
6.58009

> <r_epik_Charging_Adjusted_Penalty>
12.3122

> <i_epik_Tot_Q>
0

> <i_epik_Tot_abs_Q>
2

> <r_epik_Metal_State_Penalty>
2.55295

> <b_epik_Metal_Only>
1

> <s_lp_Force_Field>
OPLS_2005

> <r_lp_Energy>
7.04924

> <b_lp_Chiralities_Consistent>
1

> <s_lp_Variant>
AV-unprocessed.smi:1417-8

> <Gold.Version>
5.8.1

> <Gold.Id.Protein>
6NUR|6NUR_protein|mol2

> <Gold.PLP.Fitness>
44.2532

> <Gold.PLP.PLP>
-29.5441

> <Gold.PLP.part.hbond>
-4.0000

> <Gold.PLP.part.metal>
0.0000

> <Gold.PLP.part.buried>
-6.7983

> <Gold.PLP.part.nonpolar>
-20.0108

> <Gold.PLP.part.repulsive>
0.3420

> <Gold.PLP.ligand.clash>
0.0000

> <Gold.PLP.ligand.torsion>
0.1321

> <Gold.PLP.Chemscore.Hbond>
4.9825

> <Gold.PLP.Chemscore.CHOScore>
0.0000

> <Gold.PLP.Chemscore.Metal>
0.0000

> <Gold.Chemscore.Hbonds>
donor molecule, donor type, donor heavy atom, donor atom, acceptor molecule, acceptor atom, score
      L1  H     5    25       P1  8028  1.00
      L1  H     8    26       P1  8028  0.99
      L1  H    12    39       P1 10175  2.00
      L1  H    15    34       P1 10175  1.00

> <Gold.PLP.Chemscore.Internal.Correction>
0.0258

> <Gold.Rescore>
     Score         DG    S(hbond)    S(metal)    S(lipo)     H(rot)  DE(clash)    DE(int)     intcor
     17.17     -19.29       3.67        0.00      57.52       2.02       0.99       1.13       ----

> <Gold.Chemscore.Fitness>
17.1699

> <Gold.Chemscore.DG>
-19.2892

> <Gold.Chemscore.ZeroCoef>
-5.4800

> <Gold.Chemscore.Hbond>
3.6658

> <Gold.Chemscore.Metal>
0.0000

> <Gold.Chemscore.Lipo>
57.5247

> <Gold.Chemscore.Internal_Hbond>
0.0000

> <Gold.Chemscore.DEClash>
0.9892

> <Gold.Chemscore.DEInternal>
1.1301

> <Gold.Chemscore.Rot>
2.0176

> <Gold.Chemscore.Internal.Correction>
   9.000000E+99

> <Gold.Chemscore.Hbonds>
donor molecule, donor type, donor heavy atom, donor atom, acceptor molecule, acceptor atom, score
      L1  H     5    25       P1  8028  0.98
      L1  H     8    26       P1  8028  0.94
      L1  H    12    39       P1 10175  0.52
      L1  H    15    34       P1 10175  0.48

> <Gold.Chemscore.Hbond.Weighted>
-12.2439

> <Gold.Chemscore.Metal.Weighted>
-0.0000

> <Gold.Chemscore.Lipo.Weighted>
-6.7304

> <Gold.Chemscore.Internal_Hbond.Weighted>
0.0000

> <Gold.Chemscore.DEClash.Weighted>
0.9892

> <Gold.Chemscore.DEInternal.Weighted>
1.1301

> <Gold.Chemscore.Rot.Weighted>
5.1651

> <Gold.Chemscore.Internal.Correction.Weighted>
   9.000000E+99

> <Gold.Protein.RotatedTorsions>
[ 6907 6896 6895 6894 ] final  164.14 input  -60.11 | X-H torsion
[ 7974 7965 7964 7962 ] final  -58.15 input  175.53 | X-H torsion
[ 8008 7997 7996 7995 ] final -170.39 input   59.86 | X-H torsion
[ 10167 10162 10161 10158 ] final    6.74 input  -65.29 | X-H torsion
[ 10718 10713 10712 10709 ] final   16.32 input   66.30 | X-H torsion
[ 10763 10752 10751 10750 ] final   56.02 input  -60.55 | X-H torsion
[ 11005 11000 10999 10996 ] final -175.04 input  -57.11 | X-H torsion

> <Gold.Protein.ActiveResidues>
 VAL166  LYS551  ARG553  GLY616  TRP617  ASP618  TYR619  PRO620  LYS621  CYS622 
 ASP623  PHE694  ASN695  SER759  ASP760  ASP761  ALA762  ILE779  LEU786  VAL792 
 PHE793  MET794  SER795  GLU796  ALA797  LYS798  CYS799  TRP800  GLU811  SER814 

> <Gold.Protein.RotatedAtoms>
  151.9144  133.3569  159.3874 H   0  0  0  0  0  0  0  0  0  0  0  0  # atno 6907 bound_to 6896
  150.7051  134.4699  159.5430 H   0  0  0  0  0  0  0  0  0  0  0  0  # atno 6908 bound_to 6896
  152.2311  134.8321  160.0524 H   0  0  0  0  0  0  0  0  0  0  0  0  # atno 6909 bound_to 6896
  145.8427  140.8406  143.0026 H   0  0  0  0  0  0  0  0  0  0  0  0  # atno 7974 bound_to 7965
  155.9178  140.1068  157.1230 H   0  0  0  0  0  0  0  0  0  0  0  0  # atno 8008 bound_to 7997
  154.4049  140.1262  156.4705 H   0  0  0  0  0  0  0  0  0  0  0  0  # atno 8009 bound_to 7997
  155.7233  140.3469  155.5028 H   0  0  0  0  0  0  0  0  0  0  0  0  # atno 8010 bound_to 7997
  140.6411  143.7773  150.7429 H   0  0  0  0  0  0  0  0  0  0  0  0  # atno 10167 bound_to 10162
  157.0662  130.6329  149.5796 H   0  0  0  0  0  0  0  0  0  0  0  0  # atno 10718 bound_to 10713
  152.9825  135.5691  154.5161 H   0  0  0  0  0  0  0  0  0  0  0  0  # atno 10763 bound_to 10752
  154.4657  135.2783  155.1682 H   0  0  0  0  0  0  0  0  0  0  0  0  # atno 10764 bound_to 10752
  154.3251  135.6261  153.5579 H   0  0  0  0  0  0  0  0  0  0  0  0  # atno 10765 bound_to 10752
  140.4677  134.6195  157.4869 H   0  0  0  0  0  0  0  0  0  0  0  0  # atno 11005 bound_to 11000
  144.6732  140.0836  143.7468 LP  0  0  0  0  0  0  0  0  0  0  0  0  # atno 17320 bound_to 7965
  145.9447  139.2692  143.1248 LP  0  0  0  0  0  0  0  0  0  0  0  0  # atno 17321 bound_to 7965
  140.1404  143.4446  152.2197 LP  0  0  0  0  0  0  0  0  0  0  0  0  # atno 17342 bound_to 10162
  139.5620  144.7411  151.4129 LP  0  0  0  0  0  0  0  0  0  0  0  0  # atno 17343 bound_to 10162
  155.9964  130.5033  150.7494 LP  0  0  0  0  0  0  0  0  0  0  0  0  # atno 17370 bound_to 10713
  157.4915  131.0911  151.0421 LP  0  0  0  0  0  0  0  0  0  0  0  0  # atno 17371 bound_to 10713
  139.9905  134.6993  155.9698 LP  0  0  0  0  0  0  0  0  0  0  0  0  # atno 17394 bound_to 11000
  141.1591  133.6540  156.4260 LP  0  0  0  0  0  0  0  0  0  0  0  0  # atno 17395 bound_to 11000

$$$$
