AV-unprocessed.smi:697|AV-procd|sdf|3389|dock9
  -GOLD-   22720 0373D 1   1.00000     0.00000
 Structure written by MMmdl.
 44 45  0  0  0  0  0  0  0  0  1 V2000
  150.9773  142.0971  156.1640 C   0  0  0  0  0  0  0  0  0  0  0  0
  150.6615  140.9828  155.3396 O   0  0  0  0  0  0  0  0  0  0  0  0
  151.0770  139.7027  155.8188 C   0  0  1  0  0  0  0  0  0  0  0  0
  152.3533  139.2576  155.0874 C   0  0  0  0  0  0  0  0  0  0  0  0
  151.0626  139.6212  157.3564 C   0  0  0  0  0  0  0  0  0  0  0  0
  150.4173  138.2474  157.1885 C   0  0  1  0  0  0  0  0  0  0  0  0
  149.4197  137.9644  158.2145 N   0  0  0  0  0  0  0  0  0  0  0  0
  149.3021  136.7918  158.8513 C   0  0  0  0  0  0  0  0  0  0  0  0
  150.0385  135.8303  158.6326 O   0  0  0  0  0  0  0  0  0  0  0  0
  148.2999  136.8316  159.7482 N   0  0  0  0  0  0  0  0  0  0  0  0
  147.8331  135.8230  160.6084 C   0  0  0  0  0  0  0  0  0  0  0  0
  147.9229  134.4891  160.3652 C   0  0  0  0  0  0  0  0  0  0  0  0
  147.4084  133.4985  161.2964 C   0  0  0  0  0  0  0  0  0  0  0  0
  147.5817  132.0077  161.0510 C   0  0  0  0  0  0  0  0  0  0  0  0
  148.3812  131.4568  161.9654 F   0  0  0  0  0  0  0  0  0  0  0  0
  146.3985  131.3987  161.1141 F   0  0  0  0  0  0  0  0  0  0  0  0
  148.1032  131.7778  159.8460 F   0  0  0  0  0  0  0  0  0  0  0  0
  146.8461  133.9701  162.4243 C   0  0  0  0  0  0  0  0  0  0  0  0
  146.7312  135.3396  162.6723 N   0  0  0  0  0  0  0  0  0  0  0  0
  147.1820  136.3035  161.8385 C   0  0  0  0  0  0  0  0  0  0  0  0
  147.0378  137.4911  162.1269 O   0  0  0  0  0  0  0  0  0  0  0  0
  149.8420  138.7438  155.8373 C   0  0  0  0  0  0  0  0  0  0  0  0
  148.4564  139.4201  155.8786 C   0  0  0  0  0  0  0  0  0  0  0  0
  149.7625  137.6972  154.7215 C   0  0  0  0  0  0  0  0  0  0  0  0
  146.2803  135.6136  163.5333 H   0  0  0  0  0  0  0  0  0  0  0  0
  150.5323  142.9943  155.7341 H   0  0  0  0  0  0  0  0  0  0  0  0
  152.0518  142.2668  156.2253 H   0  0  0  0  0  0  0  0  0  0  0  0
  150.5809  141.9843  157.1732 H   0  0  0  0  0  0  0  0  0  0  0  0
  152.6210  138.2288  155.3276 H   0  0  0  0  0  0  0  0  0  0  0  0
  153.2132  139.8681  155.3606 H   0  0  0  0  0  0  0  0  0  0  0  0
  152.2324  139.3191  154.0057 H   0  0  0  0  0  0  0  0  0  0  0  0
  152.0482  139.6031  157.8225 H   0  0  0  0  0  0  0  0  0  0  0  0
  150.4110  140.3580  157.8300 H   0  0  0  0  0  0  0  0  0  0  0  0
  151.1658  137.4604  157.0717 H   0  0  0  0  0  0  0  0  0  0  0  0
  148.7805  138.7086  158.4528 H   0  0  0  0  0  0  0  0  0  0  0  0
  147.8305  137.7194  159.8538 H   0  0  0  0  0  0  0  0  0  0  0  0
  148.3650  134.1189  159.4549 H   0  0  0  0  0  0  0  0  0  0  0  0
  146.4503  133.3473  163.2129 H   0  0  0  0  0  0  0  0  0  0  0  0
  147.6624  138.7005  156.0812 H   0  0  0  0  0  0  0  0  0  0  0  0
  148.2194  139.9010  154.9290 H   0  0  0  0  0  0  0  0  0  0  0  0
  148.3933  140.1888  156.6486 H   0  0  0  0  0  0  0  0  0  0  0  0
  148.9184  137.0221  154.8650 H   0  0  0  0  0  0  0  0  0  0  0  0
  150.6555  137.0740  154.6811 H   0  0  0  0  0  0  0  0  0  0  0  0
  149.6471  138.1655  153.7436 H   0  0  0  0  0  0  0  0  0  0  0  0
  1  2  1  0  0  0  0
  1 26  1  0  0  0  0
  1 27  1  0  0  0  0
  1 28  1  0  0  0  0
  2  3  1  0  0  0  0
  3 22  1  0  0  0  0
  3  4  1  0  0  0  0
  3  5  1  0  0  0  0
  4 29  1  0  0  0  0
  4 30  1  0  0  0  0
  4 31  1  0  0  0  0
  5  6  1  0  0  0  0
  5 32  1  0  0  0  0
  5 33  1  0  0  0  0
  6  7  1  0  0  0  0
  6 22  1  0  0  0  0
  6 34  1  0  0  0  0
  7  8  1  0  0  0  0
  7 35  1  0  0  0  0
  8  9  2  0  0  0  0
  8 10  1  0  0  0  0
 10 11  1  0  0  0  0
 10 36  1  0  0  0  0
 11 20  1  0  0  0  0
 11 12  2  0  0  0  0
 12 13  1  0  0  0  0
 12 37  1  0  0  0  0
 13 14  1  0  0  0  0
 13 18  2  0  0  0  0
 14 15  1  0  0  0  0
 14 16  1  0  0  0  0
 14 17  1  0  0  0  0
 18 19  1  0  0  0  0
 18 38  1  0  0  0  0
 19 25  1  0  0  0  0
 19 20  1  0  0  0  0
 20 21  2  0  0  0  0
 22 23  1  0  0  0  0
 22 24  1  0  0  0  0
 23 39  1  0  0  0  0
 23 40  1  0  0  0  0
 23 41  1  0  0  0  0
 24 42  1  0  0  0  0
 24 43  1  0  0  0  0
 24 44  1  0  0  0  0
M  END
> <s_m_source_file>
AV-unprocessed.smi

> <i_m_source_file_index>
697

> <i_lp_mmshare_version>
43012

> <i_f3d_flags>
0

> <s_epik_input>
W0NIM11PW0NAQF0xKFtDSDNdKVtDSDJdW0NASF0oQzEoW0NIM10pW0NIM10pW05IXUMoPU8pW05IXWMyW2NIXWMoQyhGKShGKUYpW2NIXVtuSF1jMj1P

> <s_epik_cmdline>
J2VwaWtfcHl0aG9uJywgJy1waCcsICc3LjAnLCAnLXRuJywgJzgnLCAnLW1hJywgJzIwMCcsICctbWV0YWxfYmluZGluZycsICctaW1hZScsICc8aW5maWxlLm1hZT4nLCAnLW9tYWUnLCAnPG91dGZpbGUubWFlPic=

> <r_lp_tautomer_probability>
1

> <r_epik_Ionization_Penalty>
0.0036482

> <r_epik_Ionization_Penalty_Charging>
0.00362828

> <r_epik_Ionization_Penalty_Neutral>
1.99208e-05

> <r_epik_State_Penalty>
-0

> <r_epik_Charging_Adjusted_Penalty>
0.00362828

> <i_epik_Tot_Q>
0

> <i_epik_Tot_abs_Q>
0

> <r_epik_Metal_State_Penalty>
0.369362

> <b_epik_Metal_Only>
0

> <s_lp_Force_Field>
OPLS_2005

> <r_lp_Energy>
34.4926

> <b_lp_Chiralities_Consistent>
1

> <s_lp_Variant>
AV-unprocessed.smi:697-1

> <Gold.Version>
5.8.1

> <Gold.Id.Protein>
6NUR|6NUR_protein|mol2

> <Gold.PLP.Fitness>
43.2191

> <Gold.PLP.PLP>
-36.7000

> <Gold.PLP.part.hbond>
-4.0000

> <Gold.PLP.part.metal>
0.0000

> <Gold.PLP.part.buried>
-4.1741

> <Gold.PLP.part.nonpolar>
-27.7390

> <Gold.PLP.part.repulsive>
0.5386

> <Gold.PLP.ligand.clash>
0.0250

> <Gold.PLP.ligand.torsion>
1.1787

> <Gold.PLP.Chemscore.Hbond>
2.8330

> <Gold.PLP.Chemscore.CHOScore>
0.0000

> <Gold.PLP.Chemscore.Metal>
0.0000

> <Gold.Chemscore.Hbonds>
donor molecule, donor type, donor heavy atom, donor atom, acceptor molecule, acceptor atom, score
      P1  H  6896  6909       L1     9  1.00
      P1  H  6931  6943       L1    21  0.49
      P1  H  6934  6947       L1    21  0.67
      P1  H  7989  7998       L1     2  0.56

> <Gold.PLP.Chemscore.Internal.Correction>
0.4025

> <Gold.Rescore>
     Score         DG    S(hbond)    S(metal)    S(lipo)     H(rot)  DE(clash)    DE(int)     intcor
     14.77     -17.96       2.18        0.00      72.96       1.31       1.23       1.96       ----

> <Gold.Chemscore.Fitness>
14.7671

> <Gold.Chemscore.DG>
-17.9573

> <Gold.Chemscore.ZeroCoef>
-5.4800

> <Gold.Chemscore.Hbond>
2.1810

> <Gold.Chemscore.Metal>
0.0000

> <Gold.Chemscore.Lipo>
72.9640

> <Gold.Chemscore.Internal_Hbond>
0.0000

> <Gold.Chemscore.DEClash>
1.2336

> <Gold.Chemscore.DEInternal>
1.9566

> <Gold.Chemscore.Rot>
1.3062

> <Gold.Chemscore.Internal.Correction>
   9.000000E+99

> <Gold.Chemscore.Hbonds>
donor molecule, donor type, donor heavy atom, donor atom, acceptor molecule, acceptor atom, score
      P1  H  6896  6909       L1     9  0.98
      P1  H  6931  6943       L1    21  0.20
      P1  H  6934  6947       L1    21  0.68
      P1  H  7989  7998       L1     2  0.09

> <Gold.Chemscore.Hbond.Weighted>
-7.2845

> <Gold.Chemscore.Metal.Weighted>
-0.0000

> <Gold.Chemscore.Lipo.Weighted>
-8.5368

> <Gold.Chemscore.Internal_Hbond.Weighted>
0.0000

> <Gold.Chemscore.DEClash.Weighted>
1.2336

> <Gold.Chemscore.DEInternal.Weighted>
1.9566

> <Gold.Chemscore.Rot.Weighted>
3.3440

> <Gold.Chemscore.Internal.Correction.Weighted>
   9.000000E+99

> <Gold.Protein.RotatedTorsions>
[ 6907 6896 6895 6894 ] final   62.28 input  -60.11 | X-H torsion
[ 7974 7965 7964 7962 ] final -149.78 input  175.53 | X-H torsion
[ 8008 7997 7996 7995 ] final -141.00 input   59.86 | X-H torsion
[ 10167 10162 10161 10158 ] final   88.48 input  -65.29 | X-H torsion
[ 10718 10713 10712 10709 ] final  -21.61 input   66.30 | X-H torsion
[ 10763 10752 10751 10750 ] final -177.63 input  -60.55 | X-H torsion
[ 11005 11000 10999 10996 ] final -115.95 input  -57.11 | X-H torsion

> <Gold.Protein.ActiveResidues>
 VAL166  LYS551  ARG553  GLY616  TRP617  ASP618  TYR619  PRO620  LYS621  CYS622 
 ASP623  PHE694  ASN695  SER759  ASP760  ASP761  ALA762  ILE779  LEU786  VAL792 
 PHE793  MET794  SER795  GLU796  ALA797  LYS798  CYS799  TRP800  GLU811  SER814 

> <Gold.Protein.RotatedAtoms>
  152.4159  134.6042  160.0007 H   0  0  0  0  0  0  0  0  0  0  0  0  # atno 6907 bound_to 6896
  151.6205  133.3334  159.3095 H   0  0  0  0  0  0  0  0  0  0  0  0  # atno 6908 bound_to 6896
  150.8048  134.7205  159.6700 H   0  0  0  0  0  0  0  0  0  0  0  0  # atno 6909 bound_to 6896
  144.7947  140.5019  143.5748 H   0  0  0  0  0  0  0  0  0  0  0  0  # atno 7974 bound_to 7965
  155.4707  140.0552  157.2980 H   0  0  0  0  0  0  0  0  0  0  0  0  # atno 8008 bound_to 7997
  154.4700  140.2036  155.9974 H   0  0  0  0  0  0  0  0  0  0  0  0  # atno 8009 bound_to 7997
  156.1039  140.3215  155.7984 H   0  0  0  0  0  0  0  0  0  0  0  0  # atno 8010 bound_to 7997
  139.8668  144.6514  150.8995 H   0  0  0  0  0  0  0  0  0  0  0  0  # atno 10167 bound_to 10162
  156.5158  130.4620  149.6623 H   0  0  0  0  0  0  0  0  0  0  0  0  # atno 10718 bound_to 10713
  154.5578  135.2817  155.0948 H   0  0  0  0  0  0  0  0  0  0  0  0  # atno 10763 bound_to 10752
  154.2369  135.6364  153.5198 H   0  0  0  0  0  0  0  0  0  0  0  0  # atno 10764 bound_to 10752
  153.0020  135.5550  154.6163 H   0  0  0  0  0  0  0  0  0  0  0  0  # atno 10765 bound_to 10752
  141.0454  133.9771  157.2926 H   0  0  0  0  0  0  0  0  0  0  0  0  # atno 11005 bound_to 11000
  145.5705  139.1483  143.3291 LP  0  0  0  0  0  0  0  0  0  0  0  0  # atno 17320 bound_to 7965
  146.2211  140.5838  142.9017 LP  0  0  0  0  0  0  0  0  0  0  0  0  # atno 17321 bound_to 7965
  140.7767  143.3697  151.1672 LP  0  0  0  0  0  0  0  0  0  0  0  0  # atno 17342 bound_to 10162
  139.7321  143.9056  152.3023 LP  0  0  0  0  0  0  0  0  0  0  0  0  # atno 17343 bound_to 10162
  156.3197  130.7274  151.2183 LP  0  0  0  0  0  0  0  0  0  0  0  0  # atno 17370 bound_to 10713
  157.7444  131.0459  150.4866 LP  0  0  0  0  0  0  0  0  0  0  0  0  # atno 17371 bound_to 10713
  139.9308  135.0200  156.8392 LP  0  0  0  0  0  0  0  0  0  0  0  0  # atno 17394 bound_to 11000
  140.6156  134.0041  155.7596 LP  0  0  0  0  0  0  0  0  0  0  0  0  # atno 17395 bound_to 11000

$$$$
