AV-unprocessed.smi:2390|AV-procd|sdf|9473|dock4
  -GOLD-   2272013103D 1   1.00000     0.00000
 Structure written by MMmdl.
 45 46  0  0  0  0  0  0  0  0  1 V2000
  153.6425  142.1845  160.6814 C   0  0  0  0  0  0  0  0  0  0  0  0
  152.7147  143.0715  159.8779 C   0  0  0  0  0  0  0  0  0  0  0  0
  152.5760  144.4400  160.1813 C   0  0  0  0  0  0  0  0  0  0  0  0
  151.6982  145.2071  159.3944 C   0  0  0  0  0  0  0  0  0  0  0  0
  150.9991  144.5786  158.3456 C   0  0  0  0  0  0  0  0  0  0  0  0
  151.1918  143.1985  158.1108 C   0  0  0  0  0  0  0  0  0  0  0  0
  150.4364  142.6570  157.0365 N   0  0  0  0  0  0  0  0  0  0  0  0
  150.4194  141.3880  156.5912 C   0  0  0  0  0  0  0  0  0  0  0  0
  151.1011  140.4678  157.0438 O   0  0  0  0  0  0  0  0  0  0  0  0
  149.5499  141.2414  155.5805 N   0  0  0  0  0  0  0  0  0  0  0  0
  149.2265  139.9865  154.9001 C   0  0  2  0  0  0  0  0  0  0  0  0
  150.5082  139.3960  154.2854 C   0  0  0  0  0  0  0  0  0  0  0  0
  148.0678  140.1889  153.8703 C   0  0  2  0  0  0  0  0  0  0  0  0
  146.9893  141.1249  154.4769 C   0  0  0  0  0  0  0  0  0  0  0  0
  147.4980  138.9215  153.3467 N   0  0  0  0  0  0  0  0  0  0  0  0
  146.6289  139.1170  152.1794 C   0  0  0  0  0  0  0  0  0  0  0  0
  146.0412  137.7982  151.6485 C   0  0  0  0  0  0  0  0  0  0  0  0
  145.3202  137.1437  152.6832 O   0  0  0  0  0  0  0  0  0  0  0  0
  146.1382  136.8707  153.8123 C   0  0  0  0  0  0  0  0  0  0  0  0
  146.7283  138.1837  154.3553 C   0  0  0  0  0  0  0  0  0  0  0  0
  152.0425  142.4683  158.8743 N   0  0  0  0  0  0  0  0  0  0  0  0
  154.2797  142.7745  161.3406 H   0  0  0  0  0  0  0  0  0  0  0  0
  154.2854  141.6046  160.0183 H   0  0  0  0  0  0  0  0  0  0  0  0
  153.0651  141.4913  161.2935 H   0  0  0  0  0  0  0  0  0  0  0  0
  153.1263  144.8919  160.9934 H   0  0  0  0  0  0  0  0  0  0  0  0
  151.5622  146.2601  159.5918 H   0  0  0  0  0  0  0  0  0  0  0  0
  150.3204  145.1541  157.7329 H   0  0  0  0  0  0  0  0  0  0  0  0
  149.8220  143.3060  156.5677 H   0  0  0  0  0  0  0  0  0  0  0  0
  149.0384  142.0575  155.2785 H   0  0  0  0  0  0  0  0  0  0  0  0
  148.9386  139.2357  155.6326 H   0  0  0  0  0  0  0  0  0  0  0  0
  150.2894  138.4957  153.7106 H   0  0  0  0  0  0  0  0  0  0  0  0
  151.2149  139.1174  155.0680 H   0  0  0  0  0  0  0  0  0  0  0  0
  151.0230  140.0974  153.6299 H   0  0  0  0  0  0  0  0  0  0  0  0
  148.4990  140.7235  153.0225 H   0  0  0  0  0  0  0  0  0  0  0  0
  147.4184  142.0116  154.9386 H   0  0  0  0  0  0  0  0  0  0  0  0
  146.3955  140.6140  155.2355 H   0  0  0  0  0  0  0  0  0  0  0  0
  146.3058  141.5039  153.7180 H   0  0  0  0  0  0  0  0  0  0  0  0
  145.8170  139.8002  152.4324 H   0  0  0  0  0  0  0  0  0  0  0  0
  147.1727  139.5665  151.3529 H   0  0  0  0  0  0  0  0  0  0  0  0
  145.3674  137.9926  150.8140 H   0  0  0  0  0  0  0  0  0  0  0  0
  146.8327  137.1464  151.2749 H   0  0  0  0  0  0  0  0  0  0  0  0
  145.5358  136.3806  154.5772 H   0  0  0  0  0  0  0  0  0  0  0  0
  146.9332  136.1756  153.5374 H   0  0  0  0  0  0  0  0  0  0  0  0
  147.3577  137.9203  155.2037 H   0  0  0  0  0  0  0  0  0  0  0  0
  145.9234  138.8120  154.7395 H   0  0  0  0  0  0  0  0  0  0  0  0
  1  2  1  0  0  0  0
  1 22  1  0  0  0  0
  1 23  1  0  0  0  0
  1 24  1  0  0  0  0
  2 21  1  0  0  0  0
  2  3  2  0  0  0  0
  3  4  1  0  0  0  0
  3 25  1  0  0  0  0
  4  5  2  0  0  0  0
  4 26  1  0  0  0  0
  5  6  1  0  0  0  0
  5 27  1  0  0  0  0
  6  7  1  0  0  0  0
  6 21  2  0  0  0  0
  7  8  1  0  0  0  0
  7 28  1  0  0  0  0
  8  9  2  0  0  0  0
  8 10  1  0  0  0  0
 10 11  1  0  0  0  0
 10 29  1  0  0  0  0
 11 12  1  0  0  0  0
 11 13  1  0  0  0  0
 11 30  1  0  0  0  0
 12 31  1  0  0  0  0
 12 32  1  0  0  0  0
 12 33  1  0  0  0  0
 13 14  1  0  0  0  0
 13 15  1  0  0  0  0
 13 34  1  0  0  0  0
 14 35  1  0  0  0  0
 14 36  1  0  0  0  0
 14 37  1  0  0  0  0
 15 20  1  0  0  0  0
 15 16  1  0  0  0  0
 16 17  1  0  0  0  0
 16 38  1  0  0  0  0
 16 39  1  0  0  0  0
 17 18  1  0  0  0  0
 17 40  1  0  0  0  0
 17 41  1  0  0  0  0
 18 19  1  0  0  0  0
 19 20  1  0  0  0  0
 19 42  1  0  0  0  0
 19 43  1  0  0  0  0
 20 44  1  0  0  0  0
 20 45  1  0  0  0  0
M  END
> <s_m_source_file>
AV-unprocessed.smi

> <i_m_source_file_index>
2390

> <i_lp_mmshare_version>
43012

> <i_f3d_flags>
0

> <s_epik_input>
W0NIM11jMVtjSF1bY0hdW2NIXWMobjEpW05IXUMoPU8pW05IXVtDQEhdKFtDSDNdKVtDQEhdKFtDSDNdKU4yW0NIMl1bQ0gyXU9bQ0gyXVtDSDJdMg==

> <s_epik_cmdline>
J2VwaWtfcHl0aG9uJywgJy1waCcsICc3LjAnLCAnLXRuJywgJzgnLCAnLW1hJywgJzIwMCcsICctbWV0YWxfYmluZGluZycsICctaW1hZScsICc8aW5maWxlLm1hZT4nLCAnLW9tYWUnLCAnPG91dGZpbGUubWFlPic=

> <r_epik_Ionization_Penalty>
0.266074

> <r_epik_Ionization_Penalty_Charging>
0

> <r_epik_Ionization_Penalty_Neutral>
0.266074

> <r_epik_State_Penalty>
0.257924

> <r_epik_Charging_Adjusted_Penalty>
0.257924

> <i_epik_Tot_Q>
0

> <i_epik_Tot_abs_Q>
0

> <r_epik_Metal_State_Penalty>
0.257919

> <b_epik_Metal_Only>
0

> <s_lp_Force_Field>
OPLS_2005

> <r_lp_Energy>
37.1524

> <b_lp_Chiralities_Consistent>
1

> <s_lp_Variant>
AV-unprocessed.smi:2390-1

> <Gold.Version>
5.8.1

> <Gold.Id.Protein>
6NUR|6NUR_protein|mol2

> <Gold.PLP.Fitness>
42.3927

> <Gold.PLP.PLP>
-39.8756

> <Gold.PLP.part.hbond>
-1.0000

> <Gold.PLP.part.metal>
0.0000

> <Gold.PLP.part.buried>
-0.9893

> <Gold.PLP.part.nonpolar>
-38.5385

> <Gold.PLP.part.repulsive>
0.6488

> <Gold.PLP.ligand.clash>
0.0000

> <Gold.PLP.ligand.torsion>
0.2924

> <Gold.PLP.Chemscore.Hbond>
1.0000

> <Gold.PLP.Chemscore.CHOScore>
0.0000

> <Gold.PLP.Chemscore.Metal>
0.0000

> <Gold.Chemscore.Hbonds>
donor molecule, donor type, donor heavy atom, donor atom, acceptor molecule, acceptor atom, score
      L1  H     7    28       P1  8028  1.00

> <Gold.PLP.Chemscore.Internal.Correction>
0.1020

> <Gold.Rescore>
     Score         DG    S(hbond)    S(metal)    S(lipo)     H(rot)  DE(clash)    DE(int)     intcor
     15.27     -17.10       1.00        0.00     102.36       1.44       0.11       1.72       ----

> <Gold.Chemscore.Fitness>
15.2695

> <Gold.Chemscore.DG>
-17.0953

> <Gold.Chemscore.ZeroCoef>
-5.4800

> <Gold.Chemscore.Hbond>
0.9954

> <Gold.Chemscore.Metal>
0.0000

> <Gold.Chemscore.Lipo>
102.3611

> <Gold.Chemscore.Internal_Hbond>
0.0000

> <Gold.Chemscore.DEClash>
0.1097

> <Gold.Chemscore.DEInternal>
1.7161

> <Gold.Chemscore.Rot>
1.4396

> <Gold.Chemscore.Internal.Correction>
   9.000000E+99

> <Gold.Chemscore.Hbonds>
donor molecule, donor type, donor heavy atom, donor atom, acceptor molecule, acceptor atom, score
      L1  H     7    28       P1  8028  1.00

> <Gold.Chemscore.Hbond.Weighted>
-3.3245

> <Gold.Chemscore.Metal.Weighted>
-0.0000

> <Gold.Chemscore.Lipo.Weighted>
-11.9763

> <Gold.Chemscore.Internal_Hbond.Weighted>
0.0000

> <Gold.Chemscore.DEClash.Weighted>
0.1097

> <Gold.Chemscore.DEInternal.Weighted>
1.7161

> <Gold.Chemscore.Rot.Weighted>
3.6855

> <Gold.Chemscore.Internal.Correction.Weighted>
   9.000000E+99

> <Gold.Protein.RotatedTorsions>
[ 6907 6896 6895 6894 ] final  -30.30 input  -60.11 | X-H torsion
[ 7974 7965 7964 7962 ] final   71.40 input  175.53 | X-H torsion
[ 8008 7997 7996 7995 ] final   33.95 input   59.86 | X-H torsion
[ 10167 10162 10161 10158 ] final  121.18 input  -65.29 | X-H torsion
[ 10718 10713 10712 10709 ] final  -10.30 input   66.30 | X-H torsion
[ 10763 10752 10751 10750 ] final -124.15 input  -60.55 | X-H torsion
[ 11005 11000 10999 10996 ] final -160.88 input  -57.11 | X-H torsion

> <Gold.Protein.ActiveResidues>
 VAL166  LYS551  ARG553  GLY616  TRP617  ASP618  TYR619  PRO620  LYS621  CYS622 
 ASP623  PHE694  ASN695  SER759  ASP760  ASP761  ALA762  ILE779  LEU786  VAL792 
 PHE793  MET794  SER795  GLU796  ALA797  LYS798  CYS799  TRP800  GLU811  SER814 

> <Gold.Protein.RotatedAtoms>
  151.1074  135.0007  159.8477 H   0  0  0  0  0  0  0  0  0  0  0  0  # atno 6907 bound_to 6896
  152.5441  134.1877  159.8671 H   0  0  0  0  0  0  0  0  0  0  0  0  # atno 6908 bound_to 6896
  151.1924  133.4614  159.2628 H   0  0  0  0  0  0  0  0  0  0  0  0  # atno 6909 bound_to 6896
  145.7662  139.2823  143.1347 H   0  0  0  0  0  0  0  0  0  0  0  0  # atno 7974 bound_to 7965
  155.1470  140.3271  155.4439 H   0  0  0  0  0  0  0  0  0  0  0  0  # atno 8008 bound_to 7997
  156.2586  140.1983  156.6533 H   0  0  0  0  0  0  0  0  0  0  0  0  # atno 8009 bound_to 7997
  154.6501  140.0559  156.9932 H   0  0  0  0  0  0  0  0  0  0  0  0  # atno 8010 bound_to 7997
  139.5936  144.7034  151.3231 H   0  0  0  0  0  0  0  0  0  0  0  0  # atno 10167 bound_to 10162
  156.6755  130.5022  149.5987 H   0  0  0  0  0  0  0  0  0  0  0  0  # atno 10718 bound_to 10713
  154.8719  135.4073  154.3059 H   0  0  0  0  0  0  0  0  0  0  0  0  # atno 10763 bound_to 10752
  153.3911  135.7015  153.6500 H   0  0  0  0  0  0  0  0  0  0  0  0  # atno 10764 bound_to 10752
  153.5282  135.3673  155.2635 H   0  0  0  0  0  0  0  0  0  0  0  0  # atno 10765 bound_to 10752
  140.6266  134.4695  157.5227 H   0  0  0  0  0  0  0  0  0  0  0  0  # atno 11005 bound_to 11000
  146.0215  140.8344  142.9921 LP  0  0  0  0  0  0  0  0  0  0  0  0  # atno 17320 bound_to 7965
  144.6821  140.2635  143.7315 LP  0  0  0  0  0  0  0  0  0  0  0  0  # atno 17321 bound_to 7965
  140.7193  143.7179  150.7718 LP  0  0  0  0  0  0  0  0  0  0  0  0  # atno 17342 bound_to 10162
  140.0741  143.5033  152.2565 LP  0  0  0  0  0  0  0  0  0  0  0  0  # atno 17343 bound_to 10162
  156.1906  130.6557  151.1057 LP  0  0  0  0  0  0  0  0  0  0  0  0  # atno 17370 bound_to 10713
  157.7062  131.0755  150.6658 LP  0  0  0  0  0  0  0  0  0  0  0  0  # atno 17371 bound_to 10713
  139.9132  134.8300  156.1455 LP  0  0  0  0  0  0  0  0  0  0  0  0  # atno 17394 bound_to 11000
  141.0705  133.6799  156.2131 LP  0  0  0  0  0  0  0  0  0  0  0  0  # atno 17395 bound_to 11000

$$$$
