AV-unprocessed.smi:1833|AV-procd|sdf|7465|dock4
  -GOLD-   22720 9153D 1   1.00000     0.00000
 Structure written by MMmdl.
 42 43  0  0  0  0  0  0  0  0  2 V2000
  145.8645  131.8158  150.3466 C   0  0  0  0  0  0  0  0  0  0  0  0
  145.3135  131.4192  151.7241 C   0  0  0  0  0  0  0  0  0  0  0  0
  146.3145  131.5835  152.8083 N   0  3  1  0  0  0  0  0  0  0  0  0
  147.2546  130.4345  152.8815 C   0  0  0  0  0  0  0  0  0  0  0  0
  148.1917  130.5569  154.0947 C   0  0  0  0  0  0  0  0  0  0  0  0
  148.9566  131.8864  154.0697 C   0  0  0  0  0  0  0  0  0  0  0  0
  147.9672  133.0575  153.9635 C   0  0  1  0  0  0  0  0  0  0  0  0
  148.6909  134.3217  153.8582 N   0  0  0  0  0  0  0  0  0  0  0  0
  149.4836  134.8474  154.8031 C   0  0  0  0  0  0  0  0  0  0  0  0
  149.7025  134.3221  155.8945 O   0  0  0  0  0  0  0  0  0  0  0  0
  150.0081  136.0182  154.4158 N   0  0  0  0  0  0  0  0  0  0  0  0
  150.8948  136.8444  155.2269 C   0  0  0  0  0  0  0  0  0  0  0  0
  151.3233  138.1200  154.4840 C   0  0  0  0  0  0  0  0  0  0  0  0
  151.0539  139.3553  155.2757 C   0  0  0  0  0  0  0  0  0  0  0  0
  150.4115  140.4192  154.7855 N   0  0  0  0  0  0  0  0  0  0  0  0
  150.3163  141.4599  155.7127 C   0  0  0  0  0  0  0  0  0  0  0  0
  150.9108  141.1769  156.9162 C   0  0  0  0  0  0  0  0  0  0  0  0
  151.6156  139.5836  156.9288 S   0  0  0  0  0  0  0  0  0  0  0  0
  147.0428  132.8792  152.7447 C   0  0  0  0  0  0  0  0  0  0  0  0
  145.0763  131.7765  149.5944 H   0  0  0  0  0  0  0  0  0  0  0  0
  146.6587  131.1487  150.0133 H   0  0  0  0  0  0  0  0  0  0  0  0
  146.2588  132.8324  150.3570 H   0  0  0  0  0  0  0  0  0  0  0  0
  144.4536  132.0575  151.9314 H   0  0  0  0  0  0  0  0  0  0  0  0
  144.9404  130.3941  151.7097 H   0  0  0  0  0  0  0  0  0  0  0  0
  146.6938  129.5022  152.9578 H   0  0  0  0  0  0  0  0  0  0  0  0
  147.8365  130.3797  151.9601 H   0  0  0  0  0  0  0  0  0  0  0  0
  147.6100  130.4868  155.0150 H   0  0  0  0  0  0  0  0  0  0  0  0
  148.8944  129.7234  154.1096 H   0  0  0  0  0  0  0  0  0  0  0  0
  149.5664  131.9838  154.9689 H   0  0  0  0  0  0  0  0  0  0  0  0
  149.6437  131.8973  153.2222 H   0  0  0  0  0  0  0  0  0  0  0  0
  147.3406  133.0580  154.8578 H   0  0  0  0  0  0  0  0  0  0  0  0
  148.5824  134.8364  152.9961 H   0  0  0  0  0  0  0  0  0  0  0  0
  149.7724  136.3692  153.4990 H   0  0  0  0  0  0  0  0  0  0  0  0
  150.3638  137.1092  156.1416 H   0  0  0  0  0  0  0  0  0  0  0  0
  151.7694  136.2665  155.5317 H   0  0  0  0  0  0  0  0  0  0  0  0
  152.3876  138.0844  154.2474 H   0  0  0  0  0  0  0  0  0  0  0  0
  150.7950  138.1964  153.5331 H   0  0  0  0  0  0  0  0  0  0  0  0
  149.8095  142.3708  155.4301 H   0  0  0  0  0  0  0  0  0  0  0  0
  150.9787  141.8070  157.7906 H   0  0  0  0  0  0  0  0  0  0  0  0
  147.6187  132.9265  151.8187 H   0  0  0  0  0  0  0  0  0  0  0  0
  146.3341  133.7064  152.7179 H   0  0  0  0  0  0  0  0  0  0  0  0
  145.7980  131.5793  153.6764 H   0  0  0  0  0  0  0  0  0  0  0  0
  1  2  1  0  0  0  0
  1 20  1  0  0  0  0
  1 21  1  0  0  0  0
  1 22  1  0  0  0  0
  2  3  1  0  0  0  0
  2 23  1  0  0  0  0
  2 24  1  0  0  0  0
  3 19  1  0  0  0  0
  3  4  1  0  0  0  0
  3 42  1  0  0  0  0
  4  5  1  0  0  0  0
  4 25  1  0  0  0  0
  4 26  1  0  0  0  0
  5  6  1  0  0  0  0
  5 27  1  0  0  0  0
  5 28  1  0  0  0  0
  6  7  1  0  0  0  0
  6 29  1  0  0  0  0
  6 30  1  0  0  0  0
  7  8  1  0  0  0  0
  7 19  1  0  0  0  0
  7 31  1  0  0  0  0
  8  9  1  0  0  0  0
  8 32  1  0  0  0  0
  9 10  2  0  0  0  0
  9 11  1  0  0  0  0
 11 12  1  0  0  0  0
 11 33  1  0  0  0  0
 12 13  1  0  0  0  0
 12 34  1  0  0  0  0
 12 35  1  0  0  0  0
 13 14  1  0  0  0  0
 13 36  1  0  0  0  0
 13 37  1  0  0  0  0
 14 18  1  0  0  0  0
 14 15  2  0  0  0  0
 15 16  1  0  0  0  0
 16 17  2  0  0  0  0
 16 38  1  0  0  0  0
 17 18  1  0  0  0  0
 17 39  1  0  0  0  0
 19 40  1  0  0  0  0
 19 41  1  0  0  0  0
M  CHG  1   3   1
M  END
> <s_m_source_file>
AV-unprocessed.smi

> <i_m_source_file_index>
1833

> <i_lp_mmshare_version>
43012

> <i_f3d_flags>
0

> <s_epik_input>
W0NIM11bQ0gyXU4xW0NIMl1bQ0gyXVtDSDJdW0NASF0oW0NIMl0xKVtOSF1DKD1PKVtOSF1bQ0gyXVtDSDJdYzJuW2NIXVtjSF1zMg==

> <s_epik_cmdline>
J2VwaWtfcHl0aG9uJywgJy1waCcsICc3LjAnLCAnLXRuJywgJzgnLCAnLW1hJywgJzIwMCcsICctbWV0YWxfYmluZGluZycsICctaW1hZScsICc8aW5maWxlLm1hZT4nLCAnLW9tYWUnLCAnPG91dGZpbGUubWFlPic=

> <r_lp_tautomer_probability>
1

> <r_epik_Ionization_Penalty>
0.00269629

> <r_epik_Ionization_Penalty_Charging>
0.00233899

> <r_epik_Ionization_Penalty_Neutral>
0.000357304

> <r_epik_State_Penalty>
-0

> <r_epik_Charging_Adjusted_Penalty>
0.00233899

> <i_epik_Tot_Q>
1

> <i_epik_Tot_abs_Q>
1

> <r_epik_Metal_State_Penalty>
-0

> <b_epik_Metal_Only>
0

> <s_lp_Force_Field>
OPLS_2005

> <r_lp_Energy>
7.28856

> <b_lp_Chiralities_Consistent>
1

> <s_lp_Variant>
AV-unprocessed.smi:1833-1

> <Gold.Version>
5.8.1

> <Gold.Id.Protein>
6NUR|6NUR_protein|mol2

> <Gold.PLP.Fitness>
45.1372

> <Gold.PLP.PLP>
-34.4914

> <Gold.PLP.part.hbond>
-3.7490

> <Gold.PLP.part.metal>
0.0000

> <Gold.PLP.part.buried>
-2.1169

> <Gold.PLP.part.nonpolar>
-27.8042

> <Gold.PLP.part.repulsive>
0.1763

> <Gold.PLP.ligand.clash>
0.0000

> <Gold.PLP.ligand.torsion>
0.6201

> <Gold.PLP.Chemscore.Hbond>
2.9500

> <Gold.PLP.Chemscore.CHOScore>
0.9927

> <Gold.PLP.Chemscore.Metal>
0.0000

> <Gold.Chemscore.Hbonds>
donor molecule, donor type, donor heavy atom, donor atom, acceptor molecule, acceptor atom, score
      L1  H     8    32       P1  7948  1.00
      L1  H    11    33       P1  7948  1.00
      P1  H  7989  7998       L1    15  0.90
      L1  C    16    38       P1  8028  1.00

> <Gold.PLP.Chemscore.Internal.Correction>
0.0579

> <Gold.Rescore>
     Score         DG    S(hbond)    S(metal)    S(lipo)     H(rot)  DE(clash)    DE(int)     intcor
     16.58     -17.12       1.95        0.00      81.42       1.71       0.06       0.47       ----

> <Gold.Chemscore.Fitness>
16.5799

> <Gold.Chemscore.DG>
-17.1181

> <Gold.Chemscore.ZeroCoef>
-5.4800

> <Gold.Chemscore.Hbond>
1.9467

> <Gold.Chemscore.Metal>
0.0000

> <Gold.Chemscore.Lipo>
81.4173

> <Gold.Chemscore.Internal_Hbond>
0.0000

> <Gold.Chemscore.DEClash>
0.0641

> <Gold.Chemscore.DEInternal>
0.4740

> <Gold.Chemscore.Rot>
1.7147

> <Gold.Chemscore.Internal.Correction>
   9.000000E+99

> <Gold.Chemscore.Hbonds>
donor molecule, donor type, donor heavy atom, donor atom, acceptor molecule, acceptor atom, score
      L1  H     8    32       P1  7948  0.39
      L1  H    11    33       P1  7948  0.25
      P1  H  7989  7998       L1    15  0.12

> <Gold.Chemscore.Hbond.Weighted>
-6.5019

> <Gold.Chemscore.Metal.Weighted>
-0.0000

> <Gold.Chemscore.Lipo.Weighted>
-9.5258

> <Gold.Chemscore.Internal_Hbond.Weighted>
0.0000

> <Gold.Chemscore.DEClash.Weighted>
0.0641

> <Gold.Chemscore.DEInternal.Weighted>
0.4740

> <Gold.Chemscore.Rot.Weighted>
4.3896

> <Gold.Chemscore.Internal.Correction.Weighted>
   9.000000E+99

> <Gold.Protein.RotatedTorsions>
[ 6907 6896 6895 6894 ] final   60.12 input  -60.11 | X-H torsion
[ 7974 7965 7964 7962 ] final  173.69 input  175.53 | X-H torsion
[ 8008 7997 7996 7995 ] final -127.73 input   59.86 | X-H torsion
[ 10167 10162 10161 10158 ] final   32.27 input  -65.29 | X-H torsion
[ 10718 10713 10712 10709 ] final   60.07 input   66.30 | X-H torsion
[ 10763 10752 10751 10750 ] final  116.86 input  -60.55 | X-H torsion
[ 11005 11000 10999 10996 ] final -116.64 input  -57.11 | X-H torsion

> <Gold.Protein.ActiveResidues>
 VAL166  LYS551  ARG553  GLY616  TRP617  ASP618  TYR619  PRO620  LYS621  CYS622 
 ASP623  PHE694  ASN695  SER759  ASP760  ASP761  ALA762  ILE779  LEU786  VAL792 
 PHE793  MET794  SER795  GLU796  ALA797  LYS798  CYS799  TRP800  GLU811  SER814 

> <Gold.Protein.RotatedAtoms>
  152.3975  134.6341  160.0082 H   0  0  0  0  0  0  0  0  0  0  0  0  # atno 6907 bound_to 6896
  151.6556  133.3313  159.3170 H   0  0  0  0  0  0  0  0  0  0  0  0  # atno 6908 bound_to 6896
  150.7880  134.6924  159.6549 H   0  0  0  0  0  0  0  0  0  0  0  0  # atno 6909 bound_to 6896
  144.7238  139.9684  143.6436 H   0  0  0  0  0  0  0  0  0  0  0  0  # atno 7974 bound_to 7965
  155.2511  140.0432  157.2986 H   0  0  0  0  0  0  0  0  0  0  0  0  # atno 8008 bound_to 7997
  154.5769  140.2389  155.8080 H   0  0  0  0  0  0  0  0  0  0  0  0  # atno 8009 bound_to 7997
  156.2164  140.2983  155.9858 H   0  0  0  0  0  0  0  0  0  0  0  0  # atno 8010 bound_to 7997
  140.4513  144.1043  150.6192 H   0  0  0  0  0  0  0  0  0  0  0  0  # atno 10167 bound_to 10162
  157.5724  130.8918  149.9290 H   0  0  0  0  0  0  0  0  0  0  0  0  # atno 10718 bound_to 10713
  153.5436  135.3554  155.2729 H   0  0  0  0  0  0  0  0  0  0  0  0  # atno 10763 bound_to 10752
  154.8715  135.4097  154.3016 H   0  0  0  0  0  0  0  0  0  0  0  0  # atno 10764 bound_to 10752
  153.3728  135.7065  153.6693 H   0  0  0  0  0  0  0  0  0  0  0  0  # atno 10765 bound_to 10752
  141.0408  133.9838  157.2997 H   0  0  0  0  0  0  0  0  0  0  0  0  # atno 11005 bound_to 11000
  146.0582  139.3577  143.0598 LP  0  0  0  0  0  0  0  0  0  0  0  0  # atno 17320 bound_to 7965
  145.8127  140.9718  143.0940 LP  0  0  0  0  0  0  0  0  0  0  0  0  # atno 17321 bound_to 7965
  140.4203  143.2614  151.9723 LP  0  0  0  0  0  0  0  0  0  0  0  0  # atno 17342 bound_to 10162
  139.4797  144.5836  151.7890 LP  0  0  0  0  0  0  0  0  0  0  0  0  # atno 17343 bound_to 10162
  156.0769  130.3678  150.0658 LP  0  0  0  0  0  0  0  0  0  0  0  0  # atno 17370 bound_to 10713
  156.8809  130.9556  151.3599 LP  0  0  0  0  0  0  0  0  0  0  0  0  # atno 17371 bound_to 10713
  139.9274  135.0201  156.8284 LP  0  0  0  0  0  0  0  0  0  0  0  0  # atno 17394 bound_to 11000
  140.6237  133.9970  155.7630 LP  0  0  0  0  0  0  0  0  0  0  0  0  # atno 17395 bound_to 11000

$$$$
