AV-unprocessed.smi:327|AV-procd|sdf|2346|dock4
  -GOLD-   2262022253D 1   1.00000     0.00000
 Structure written by MMmdl.
 47 48  0  0  0  0  0  0  0  0  1 V2000
  144.8759  144.5004  153.4459 C   0  0  0  0  0  0  0  0  0  0  0  0
  145.1796  143.5664  154.4666 O   0  0  0  0  0  0  0  0  0  0  0  0
  146.3497  142.8157  154.1870 C   0  0  0  0  0  0  0  0  0  0  0  0
  146.8452  142.1218  155.4662 C   0  0  0  0  0  0  0  0  0  0  0  0
  147.9275  141.1709  155.1873 N   0  0  0  0  0  0  0  0  0  0  0  0
  149.0662  141.3791  155.9481 N   0  0  0  0  0  0  0  0  0  0  0  0
  150.1010  140.6175  155.7935 C   0  0  0  0  0  0  0  0  0  0  0  0
  151.3481  140.8179  156.5823 C   0  0  0  0  0  0  0  0  0  0  0  0
  152.3445  140.1125  156.4150 O   0  0  0  0  0  0  0  0  0  0  0  0
  151.3064  141.8241  157.4747 N   0  0  0  0  0  0  0  0  0  0  0  0
  152.4039  142.2492  158.3402 C   0  0  0  0  0  0  0  0  0  0  0  0
  152.2728  141.5378  159.7047 C   0  0  0  0  0  0  0  0  0  0  0  0
  153.1978  142.0600  160.8224 C   0  0  0  0  0  0  0  0  0  0  0  0
  152.5020  142.9683  161.8571 C   0  0  0  0  0  0  0  0  0  0  0  0
  152.0567  144.3639  161.3741 C   0  0  0  0  0  0  0  0  0  0  0  0
  150.8869  144.3576  160.3690 C   0  0  0  0  0  0  0  0  0  0  0  0
  151.2812  144.5720  158.8950 C   0  0  0  0  0  0  0  0  0  0  0  0
  152.5080  143.7920  158.3817 C   0  0  0  0  0  0  0  0  0  0  0  0
  150.0872  139.5306  154.8292 C   0  0  0  0  0  0  0  0  0  0  0  0
  148.9716  139.3427  154.0907 C   0  0  0  0  0  0  0  0  0  0  0  0
  147.7908  140.1950  154.2392 C   0  0  0  0  0  0  0  0  0  0  0  0
  146.7688  140.0474  153.5699 O   0  0  0  0  0  0  0  0  0  0  0  0
  143.9674  145.0436  153.7054 H   0  0  0  0  0  0  0  0  0  0  0  0
  144.7081  144.0007  152.4909 H   0  0  0  0  0  0  0  0  0  0  0  0
  145.6798  145.2275  153.3247 H   0  0  0  0  0  0  0  0  0  0  0  0
  146.1543  142.0796  153.4054 H   0  0  0  0  0  0  0  0  0  0  0  0
  147.1268  143.4844  153.8139 H   0  0  0  0  0  0  0  0  0  0  0  0
  147.2129  142.8794  156.1605 H   0  0  0  0  0  0  0  0  0  0  0  0
  146.0109  141.6438  155.9821 H   0  0  0  0  0  0  0  0  0  0  0  0
  150.4469  142.3495  157.5453 H   0  0  0  0  0  0  0  0  0  0  0  0
  153.3377  141.8903  157.9034 H   0  0  0  0  0  0  0  0  0  0  0  0
  151.2389  141.5275  160.0470 H   0  0  0  0  0  0  0  0  0  0  0  0
  152.5083  140.4855  159.5393 H   0  0  0  0  0  0  0  0  0  0  0  0
  153.5716  141.1925  161.3676 H   0  0  0  0  0  0  0  0  0  0  0  0
  154.0889  142.5372  160.4150 H   0  0  0  0  0  0  0  0  0  0  0  0
  151.6475  142.4430  162.2851 H   0  0  0  0  0  0  0  0  0  0  0  0
  153.1949  143.1134  162.6867 H   0  0  0  0  0  0  0  0  0  0  0  0
  151.7245  144.9107  162.2572 H   0  0  0  0  0  0  0  0  0  0  0  0
  152.9033  144.9357  160.9944 H   0  0  0  0  0  0  0  0  0  0  0  0
  150.2897  143.4542  160.4814 H   0  0  0  0  0  0  0  0  0  0  0  0
  150.2037  145.1648  160.6365 H   0  0  0  0  0  0  0  0  0  0  0  0
  150.4186  144.3661  158.2603 H   0  0  0  0  0  0  0  0  0  0  0  0
  151.4925  145.6332  158.7585 H   0  0  0  0  0  0  0  0  0  0  0  0
  153.3973  144.0926  158.9330 H   0  0  0  0  0  0  0  0  0  0  0  0
  152.7052  144.1374  157.3660 H   0  0  0  0  0  0  0  0  0  0  0  0
  150.9439  138.8853  154.6987 H   0  0  0  0  0  0  0  0  0  0  0  0
  148.9483  138.5397  153.3688 H   0  0  0  0  0  0  0  0  0  0  0  0
  1  2  1  0  0  0  0
  1 23  1  0  0  0  0
  1 24  1  0  0  0  0
  1 25  1  0  0  0  0
  2  3  1  0  0  0  0
  3  4  1  0  0  0  0
  3 26  1  0  0  0  0
  3 27  1  0  0  0  0
  4  5  1  0  0  0  0
  4 28  1  0  0  0  0
  4 29  1  0  0  0  0
  5 21  1  0  0  0  0
  5  6  1  0  0  0  0
  6  7  2  0  0  0  0
  7  8  1  0  0  0  0
  7 19  1  0  0  0  0
  8  9  2  0  0  0  0
  8 10  1  0  0  0  0
 10 11  1  0  0  0  0
 10 30  1  0  0  0  0
 11 18  1  0  0  0  0
 11 12  1  0  0  0  0
 11 31  1  0  0  0  0
 12 13  1  0  0  0  0
 12 32  1  0  0  0  0
 12 33  1  0  0  0  0
 13 14  1  0  0  0  0
 13 34  1  0  0  0  0
 13 35  1  0  0  0  0
 14 15  1  0  0  0  0
 14 36  1  0  0  0  0
 14 37  1  0  0  0  0
 15 16  1  0  0  0  0
 15 38  1  0  0  0  0
 15 39  1  0  0  0  0
 16 17  1  0  0  0  0
 16 40  1  0  0  0  0
 16 41  1  0  0  0  0
 17 18  1  0  0  0  0
 17 42  1  0  0  0  0
 17 43  1  0  0  0  0
 18 44  1  0  0  0  0
 18 45  1  0  0  0  0
 19 20  2  0  0  0  0
 19 46  1  0  0  0  0
 20 21  1  0  0  0  0
 20 47  1  0  0  0  0
 21 22  2  0  0  0  0
M  END
> <s_m_source_file>
AV-unprocessed.smi

> <i_m_source_file_index>
327

> <i_lp_mmshare_version>
43012

> <i_f3d_flags>
0

> <s_epik_input>
W0NIM11PW0NIMl1bQ0gyXW4xbmMoW2NIXVtjSF1jMT1PKUMoPU8pW05IXVtDSF0yW0NIMl1bQ0gyXVtDSDJdW0NIMl1bQ0gyXVtDSDJdW0NIMl0y

> <s_epik_cmdline>
J2VwaWtfcHl0aG9uJywgJy1waCcsICc3LjAnLCAnLXRuJywgJzgnLCAnLW1hJywgJzIwMCcsICctbWV0YWxfYmluZGluZycsICctaW1hZScsICc8aW5maWxlLm1hZT4nLCAnLW9tYWUnLCAnPG91dGZpbGUubWFlPic=

> <r_lp_tautomer_probability>
1

> <r_epik_Ionization_Penalty>
5.81787e-07

> <r_epik_Ionization_Penalty_Charging>
6.75108e-09

> <r_epik_Ionization_Penalty_Neutral>
5.75036e-07

> <r_epik_State_Penalty>
-0

> <r_epik_Charging_Adjusted_Penalty>
6.75108e-09

> <i_epik_Tot_Q>
0

> <i_epik_Tot_abs_Q>
0

> <r_epik_Metal_State_Penalty>
-0

> <b_epik_Metal_Only>
0

> <s_lp_Force_Field>
OPLS_2005

> <r_lp_Energy>
41.0284

> <b_lp_Chiralities_Consistent>
1

> <s_lp_Variant>
AV-unprocessed.smi:327-1

> <Gold.Version>
5.8.1

> <Gold.Id.Protein>
6NUR|6NUR_protein|mol2

> <Gold.PLP.Fitness>
49.8422

> <Gold.PLP.PLP>
-47.6279

> <Gold.PLP.part.hbond>
-1.0000

> <Gold.PLP.part.metal>
0.0000

> <Gold.PLP.part.buried>
-4.9830

> <Gold.PLP.part.nonpolar>
-42.5774

> <Gold.PLP.part.repulsive>
0.5445

> <Gold.PLP.ligand.clash>
0.0000

> <Gold.PLP.ligand.torsion>
0.4177

> <Gold.PLP.Chemscore.Hbond>
1.0000

> <Gold.PLP.Chemscore.CHOScore>
0.0000

> <Gold.PLP.Chemscore.Metal>
0.0000

> <Gold.Chemscore.Hbonds>
donor molecule, donor type, donor heavy atom, donor atom, acceptor molecule, acceptor atom, score
      P1  H  7997  8009       L1     9  1.00

> <Gold.PLP.Chemscore.Internal.Correction>
0.0498

> <Gold.Rescore>
     Score         DG    S(hbond)    S(metal)    S(lipo)     H(rot)  DE(clash)    DE(int)     intcor
     18.23     -20.16       0.99        0.00     130.71       1.53       0.37       1.56       ----

> <Gold.Chemscore.Fitness>
18.2304

> <Gold.Chemscore.DG>
-20.1612

> <Gold.Chemscore.ZeroCoef>
-5.4800

> <Gold.Chemscore.Hbond>
0.9883

> <Gold.Chemscore.Metal>
0.0000

> <Gold.Chemscore.Lipo>
130.7058

> <Gold.Chemscore.Internal_Hbond>
0.0000

> <Gold.Chemscore.DEClash>
0.3738

> <Gold.Chemscore.DEInternal>
1.5570

> <Gold.Chemscore.Rot>
1.5283

> <Gold.Chemscore.Internal.Correction>
   9.000000E+99

> <Gold.Chemscore.Hbonds>
donor molecule, donor type, donor heavy atom, donor atom, acceptor molecule, acceptor atom, score
      P1  H  7997  8009       L1     9  0.93

> <Gold.Chemscore.Hbond.Weighted>
-3.3010

> <Gold.Chemscore.Metal.Weighted>
-0.0000

> <Gold.Chemscore.Lipo.Weighted>
-15.2926

> <Gold.Chemscore.Internal_Hbond.Weighted>
0.0000

> <Gold.Chemscore.DEClash.Weighted>
0.3738

> <Gold.Chemscore.DEInternal.Weighted>
1.5570

> <Gold.Chemscore.Rot.Weighted>
3.9124

> <Gold.Chemscore.Internal.Correction.Weighted>
   9.000000E+99

> <Gold.Protein.RotatedTorsions>
[ 6907 6896 6895 6894 ] final  -82.93 input  -60.11 | X-H torsion
[ 7974 7965 7964 7962 ] final -148.82 input  175.53 | X-H torsion
[ 8008 7997 7996 7995 ] final -154.37 input   59.86 | X-H torsion
[ 10167 10162 10161 10158 ] final -163.06 input  -65.29 | X-H torsion
[ 10718 10713 10712 10709 ] final   85.89 input   66.30 | X-H torsion
[ 10763 10752 10751 10750 ] final  174.14 input  -60.55 | X-H torsion
[ 11005 11000 10999 10996 ] final  140.85 input  -57.11 | X-H torsion

> <Gold.Protein.ActiveResidues>
 VAL166  LYS551  ARG553  GLY616  TRP617  ASP618  TYR619  PRO620  LYS621  CYS622 
 ASP623  PHE694  ASN695  SER759  ASP760  ASP761  ALA762  ILE779  LEU786  VAL792 
 PHE793  MET794  SER795  GLU796  ALA797  LYS798  CYS799  TRP800  GLU811  SER814 

> <Gold.Protein.RotatedAtoms>
  150.6891  134.3589  159.4941 H   0  0  0  0  0  0  0  0  0  0  0  0  # atno 6907 bound_to 6896
  152.1421  134.9052  160.0562 H   0  0  0  0  0  0  0  0  0  0  0  0  # atno 6908 bound_to 6896
  152.0182  133.3853  159.4284 H   0  0  0  0  0  0  0  0  0  0  0  0  # atno 6909 bound_to 6896
  144.8005  140.5146  143.5710 H   0  0  0  0  0  0  0  0  0  0  0  0  # atno 7974 bound_to 7965
  155.6853  140.0749  157.2469 H   0  0  0  0  0  0  0  0  0  0  0  0  # atno 8008 bound_to 7997
  154.4098  140.1674  156.2079 H   0  0  0  0  0  0  0  0  0  0  0  0  # atno 8009 bound_to 7997
  155.9499  140.3378  155.6402 H   0  0  0  0  0  0  0  0  0  0  0  0  # atno 8010 bound_to 7997
  139.6348  144.0371  152.2045 H   0  0  0  0  0  0  0  0  0  0  0  0  # atno 10167 bound_to 10162
  157.6921  131.0193  150.2890 H   0  0  0  0  0  0  0  0  0  0  0  0  # atno 10718 bound_to 10713
  154.4498  135.2764  155.1789 H   0  0  0  0  0  0  0  0  0  0  0  0  # atno 10763 bound_to 10752
  154.3621  135.6127  153.5699 H   0  0  0  0  0  0  0  0  0  0  0  0  # atno 10764 bound_to 10752
  152.9846  135.5837  154.4840 H   0  0  0  0  0  0  0  0  0  0  0  0  # atno 10765 bound_to 10752
  140.0358  134.9329  157.0749 H   0  0  0  0  0  0  0  0  0  0  0  0  # atno 11005 bound_to 11000
  145.5564  139.1478  143.3365 LP  0  0  0  0  0  0  0  0  0  0  0  0  # atno 17320 bound_to 7965
  146.2286  140.5701  142.8985 LP  0  0  0  0  0  0  0  0  0  0  0  0  # atno 17321 bound_to 7965
  140.0046  144.6268  150.7700 LP  0  0  0  0  0  0  0  0  0  0  0  0  # atno 17342 bound_to 10162
  140.7459  143.2882  151.3403 LP  0  0  0  0  0  0  0  0  0  0  0  0  # atno 17343 bound_to 10162
  156.3424  130.3817  149.7398 LP  0  0  0  0  0  0  0  0  0  0  0  0  # atno 17370 bound_to 10713
  156.4902  130.8081  151.3091 LP  0  0  0  0  0  0  0  0  0  0  0  0  # atno 17371 bound_to 10713
  140.4150  134.1941  155.7163 LP  0  0  0  0  0  0  0  0  0  0  0  0  # atno 17394 bound_to 11000
  141.1856  133.8319  157.1097 LP  0  0  0  0  0  0  0  0  0  0  0  0  # atno 17395 bound_to 11000

$$$$
