AV-unprocessed.smi:1760|AV-procd|sdf|7089|dock7
  -GOLD-   22720 8303D 1   1.00000     0.00000
 Structure written by MMmdl.
 44 46  0  0  0  0  0  0  0  0  2 V2000
  150.4608  134.5180  155.8089 O   0  0  0  0  0  0  0  0  0  0  0  0
  150.0316  135.0403  154.7807 C   0  0  0  0  0  0  0  0  0  0  0  0
  149.2940  134.4277  153.8362 N   0  0  0  0  0  0  0  0  0  0  0  0
  148.8861  133.0852  153.7613 C   0  0  0  0  0  0  0  0  0  0  0  0
  149.5700  132.0366  154.2893 C   0  0  0  0  0  0  0  0  0  0  0  0
  149.1002  130.6672  154.1631 C   0  0  0  0  0  0  0  0  0  0  0  0
  149.8317  129.5106  154.8261 C   0  0  0  0  0  0  0  0  0  0  0  0
  149.1044  128.9786  155.8094 F   0  0  0  0  0  0  0  0  0  0  0  0
  150.0769  128.5568  153.9287 F   0  0  0  0  0  0  0  0  0  0  0  0
  150.9968  129.9098  155.3364 F   0  0  0  0  0  0  0  0  0  0  0  0
  147.9425  130.4883  153.5009 C   0  0  0  0  0  0  0  0  0  0  0  0
  147.2443  131.5583  152.9367 N   0  0  0  0  0  0  0  0  0  0  0  0
  147.6375  132.8493  153.0175 C   0  0  0  0  0  0  0  0  0  0  0  0
  146.9670  133.7375  152.4920 O   0  0  0  0  0  0  0  0  0  0  0  0
  150.2302  136.3294  154.4687 N   0  0  0  0  0  0  0  0  0  0  0  0
  150.9595  137.3024  155.2785 C   0  0  2  0  0  0  0  0  0  0  0  0
  150.3375  137.3874  156.6823 C   0  0  0  0  0  0  0  0  0  0  0  0
  151.0119  138.4848  157.5220 C   0  0  0  0  0  0  0  0  0  0  0  0
  150.9426  139.7984  156.8350 N   0  3  1  0  0  0  0  0  0  0  0  0
  151.4777  140.8932  157.6729 C   0  0  0  0  0  0  0  0  0  0  0  0
  150.4156  141.6312  158.4540 C   0  0  0  0  0  0  0  0  0  0  0  0
  151.0370  142.2693  157.2313 C   0  0  0  0  0  0  0  0  0  0  0  0
  151.5811  139.7522  155.4960 C   0  0  0  0  0  0  0  0  0  0  0  0
  150.9206  138.6853  154.6065 C   0  0  0  0  0  0  0  0  0  0  0  0
  146.3913  131.3399  152.4422 H   0  0  0  0  0  0  0  0  0  0  0  0
  148.9480  135.0109  153.0880 H   0  0  0  0  0  0  0  0  0  0  0  0
  150.5046  132.1869  154.8043 H   0  0  0  0  0  0  0  0  0  0  0  0
  147.4659  129.5296  153.3581 H   0  0  0  0  0  0  0  0  0  0  0  0
  149.8357  136.6666  153.6025 H   0  0  0  0  0  0  0  0  0  0  0  0
  152.0047  137.0060  155.3857 H   0  0  0  0  0  0  0  0  0  0  0  0
  149.2694  137.5968  156.6044 H   0  0  0  0  0  0  0  0  0  0  0  0
  150.4281  136.4266  157.1908 H   0  0  0  0  0  0  0  0  0  0  0  0
  150.5214  138.5527  158.4938 H   0  0  0  0  0  0  0  0  0  0  0  0
  152.0549  138.2261  157.7115 H   0  0  0  0  0  0  0  0  0  0  0  0
  152.4690  140.7397  158.0959 H   0  0  0  0  0  0  0  0  0  0  0  0
  149.3849  141.2904  158.3732 H   0  0  0  0  0  0  0  0  0  0  0  0
  150.6961  142.0355  159.4245 H   0  0  0  0  0  0  0  0  0  0  0  0
  151.7275  143.0938  157.3960 H   0  0  0  0  0  0  0  0  0  0  0  0
  150.4192  142.3517  156.3388 H   0  0  0  0  0  0  0  0  0  0  0  0
  151.4981  140.7281  155.0159 H   0  0  0  0  0  0  0  0  0  0  0  0
  152.6465  139.5438  155.6062 H   0  0  0  0  0  0  0  0  0  0  0  0
  151.4261  138.6465  153.6406 H   0  0  0  0  0  0  0  0  0  0  0  0
  149.8876  138.9724  154.4041 H   0  0  0  0  0  0  0  0  0  0  0  0
  149.9641  139.9999  156.6860 H   0  0  0  0  0  0  0  0  0  0  0  0
  1  2  2  0  0  0  0
  2  3  1  0  0  0  0
  2 15  1  0  0  0  0
  3  4  1  0  0  0  0
  3 26  1  0  0  0  0
  4 13  1  0  0  0  0
  4  5  2  0  0  0  0
  5  6  1  0  0  0  0
  5 27  1  0  0  0  0
  6  7  1  0  0  0  0
  6 11  2  0  0  0  0
  7  8  1  0  0  0  0
  7  9  1  0  0  0  0
  7 10  1  0  0  0  0
 11 12  1  0  0  0  0
 11 28  1  0  0  0  0
 12 25  1  0  0  0  0
 12 13  1  0  0  0  0
 13 14  2  0  0  0  0
 15 16  1  0  0  0  0
 15 29  1  0  0  0  0
 16 24  1  0  0  0  0
 16 17  1  0  0  0  0
 16 30  1  0  0  0  0
 17 18  1  0  0  0  0
 17 31  1  0  0  0  0
 17 32  1  0  0  0  0
 18 19  1  0  0  0  0
 18 33  1  0  0  0  0
 18 34  1  0  0  0  0
 19 20  1  0  0  0  0
 19 23  1  0  0  0  0
 19 44  1  0  0  0  0
 20 22  1  0  0  0  0
 20 21  1  0  0  0  0
 20 35  1  0  0  0  0
 21 22  1  0  0  0  0
 21 36  1  0  0  0  0
 21 37  1  0  0  0  0
 22 38  1  0  0  0  0
 22 39  1  0  0  0  0
 23 24  1  0  0  0  0
 23 40  1  0  0  0  0
 23 41  1  0  0  0  0
 24 42  1  0  0  0  0
 24 43  1  0  0  0  0
M  CHG  1  19   1
M  END
> <s_m_source_file>
AV-unprocessed.smi

> <i_m_source_file_index>
1760

> <i_lp_mmshare_version>
43012

> <i_f3d_flags>
0

> <s_epik_input>
W0NIMl0xW0NIMl1bQ0hdMU4oW0NIMl1bQ0gyXTIpW0NIMl1bQ0gyXVtDSF0yW05IXUMoPU8pW05IXWMzW2NIXWMoQyhGKShGKUYpW2NIXVtuSF1jMz1P

> <s_epik_cmdline>
J2VwaWtfcHl0aG9uJywgJy1waCcsICc3LjAnLCAnLXRuJywgJzgnLCAnLW1hJywgJzIwMCcsICctbWV0YWxfYmluZGluZycsICctaW1hZScsICc8aW5maWxlLm1hZT4nLCAnLW9tYWUnLCAnPG91dGZpbGUubWFlPic=

> <r_lp_tautomer_probability>
0.999

> <r_epik_Ionization_Penalty>
0.131122

> <r_epik_Ionization_Penalty_Charging>
0.131104

> <r_epik_Ionization_Penalty_Neutral>
1.84439e-05

> <r_epik_State_Penalty>
0.116042

> <r_epik_Charging_Adjusted_Penalty>
0.247146

> <i_epik_Tot_Q>
1

> <i_epik_Tot_abs_Q>
1

> <r_epik_Metal_State_Penalty>
0.492282

> <b_epik_Metal_Only>
0

> <s_lp_Force_Field>
OPLS_2005

> <r_lp_Energy>
37.3321

> <b_lp_Chiralities_Consistent>
1

> <s_lp_Variant>
AV-unprocessed.smi:1760-1

> <Gold.Version>
5.8.1

> <Gold.Id.Protein>
6NUR|6NUR_protein|mol2

> <Gold.PLP.Fitness>
41.2412

> <Gold.PLP.PLP>
-36.1166

> <Gold.PLP.part.hbond>
-2.9627

> <Gold.PLP.part.metal>
0.0000

> <Gold.PLP.part.buried>
-1.5777

> <Gold.PLP.part.nonpolar>
-32.0460

> <Gold.PLP.part.repulsive>
0.3372

> <Gold.PLP.ligand.clash>
0.0000

> <Gold.PLP.ligand.torsion>
0.9516

> <Gold.PLP.Chemscore.Hbond>
1.9100

> <Gold.PLP.Chemscore.CHOScore>
0.0000

> <Gold.PLP.Chemscore.Metal>
0.0000

> <Gold.Chemscore.Hbonds>
donor molecule, donor type, donor heavy atom, donor atom, acceptor molecule, acceptor atom, score
      L1  H     3    26       P1  7948  0.95
      L1  H    15    29       P1  7948  0.96

> <Gold.PLP.Chemscore.Internal.Correction>
1.2977

> <Gold.Rescore>
     Score         DG    S(hbond)    S(metal)    S(lipo)     H(rot)  DE(clash)    DE(int)     intcor
     12.13     -15.16       1.36        0.00      72.01       1.29       0.11       2.92       ----

> <Gold.Chemscore.Fitness>
12.1292

> <Gold.Chemscore.DG>
-15.1555

> <Gold.Chemscore.ZeroCoef>
-5.4800

> <Gold.Chemscore.Hbond>
1.3612

> <Gold.Chemscore.Metal>
0.0000

> <Gold.Chemscore.Lipo>
72.0080

> <Gold.Chemscore.Internal_Hbond>
0.0000

> <Gold.Chemscore.DEClash>
0.1060

> <Gold.Chemscore.DEInternal>
2.9203

> <Gold.Chemscore.Rot>
1.2875

> <Gold.Chemscore.Internal.Correction>
   9.000000E+99

> <Gold.Chemscore.Hbonds>
donor molecule, donor type, donor heavy atom, donor atom, acceptor molecule, acceptor atom, score
      L1  H     3    26       P1  7948  0.21
      L1  H    15    29       P1  7948  0.36

> <Gold.Chemscore.Hbond.Weighted>
-4.5466

> <Gold.Chemscore.Metal.Weighted>
-0.0000

> <Gold.Chemscore.Lipo.Weighted>
-8.4249

> <Gold.Chemscore.Internal_Hbond.Weighted>
0.0000

> <Gold.Chemscore.DEClash.Weighted>
0.1060

> <Gold.Chemscore.DEInternal.Weighted>
2.9203

> <Gold.Chemscore.Rot.Weighted>
3.2960

> <Gold.Chemscore.Internal.Correction.Weighted>
   9.000000E+99

> <Gold.Protein.RotatedTorsions>
[ 6907 6896 6895 6894 ] final   91.85 input  -60.11 | X-H torsion
[ 7974 7965 7964 7962 ] final  -67.24 input  175.53 | X-H torsion
[ 8008 7997 7996 7995 ] final   96.64 input   59.86 | X-H torsion
[ 10167 10162 10161 10158 ] final   42.07 input  -65.29 | X-H torsion
[ 10718 10713 10712 10709 ] final  148.81 input   66.30 | X-H torsion
[ 10763 10752 10751 10750 ] final   48.59 input  -60.55 | X-H torsion
[ 11005 11000 10999 10996 ] final  162.02 input  -57.11 | X-H torsion

> <Gold.Protein.ActiveResidues>
 VAL166  LYS551  ARG553  GLY616  TRP617  ASP618  TYR619  PRO620  LYS621  CYS622 
 ASP623  PHE694  ASN695  SER759  ASP760  ASP761  ALA762  ILE779  LEU786  VAL792 
 PHE793  MET794  SER795  GLU796  ALA797  LYS798  CYS799  TRP800  GLU811  SER814 

> <Gold.Protein.RotatedAtoms>
  152.5451  134.1593  159.8550 H   0  0  0  0  0  0  0  0  0  0  0  0  # atno 6907 bound_to 6896
  151.1612  133.4837  159.2602 H   0  0  0  0  0  0  0  0  0  0  0  0  # atno 6908 bound_to 6896
  151.1371  135.0171  159.8664 H   0  0  0  0  0  0  0  0  0  0  0  0  # atno 6909 bound_to 6896
  145.7317  140.8994  143.0577 H   0  0  0  0  0  0  0  0  0  0  0  0  # atno 7974 bound_to 7965
  156.0817  140.3270  155.7702 H   0  0  0  0  0  0  0  0  0  0  0  0  # atno 8008 bound_to 7997
  155.5141  140.0579  157.2935 H   0  0  0  0  0  0  0  0  0  0  0  0  # atno 8009 bound_to 7997
  154.4586  140.1955  156.0325 H   0  0  0  0  0  0  0  0  0  0  0  0  # atno 8010 bound_to 7997
  140.3581  144.2264  150.6140 H   0  0  0  0  0  0  0  0  0  0  0  0  # atno 10167 bound_to 10162
  157.3040  131.0876  151.1368 H   0  0  0  0  0  0  0  0  0  0  0  0  # atno 10718 bound_to 10713
  152.9791  135.5939  154.3950 H   0  0  0  0  0  0  0  0  0  0  0  0  # atno 10763 bound_to 10752
  154.3602  135.2767  155.2326 H   0  0  0  0  0  0  0  0  0  0  0  0  # atno 10764 bound_to 10752
  154.4327  135.6032  153.6134 H   0  0  0  0  0  0  0  0  0  0  0  0  # atno 10765 bound_to 10752
  140.2216  134.8192  157.3226 H   0  0  0  0  0  0  0  0  0  0  0  0  # atno 11005 bound_to 11000
  144.6891  139.9340  143.7473 LP  0  0  0  0  0  0  0  0  0  0  0  0  # atno 17320 bound_to 7965
  146.0531  139.3531  143.0627 LP  0  0  0  0  0  0  0  0  0  0  0  0  # atno 17321 bound_to 7965
  140.5154  143.2279  151.8471 LP  0  0  0  0  0  0  0  0  0  0  0  0  # atno 17342 bound_to 10162
  139.4817  144.4900  151.9197 LP  0  0  0  0  0  0  0  0  0  0  0  0  # atno 17343 bound_to 10162
  157.2716  130.6707  149.6022 LP  0  0  0  0  0  0  0  0  0  0  0  0  # atno 17370 bound_to 10713
  155.9673  130.4477  150.5592 LP  0  0  0  0  0  0  0  0  0  0  0  0  # atno 17371 bound_to 10713
  140.1844  134.4450  155.7753 LP  0  0  0  0  0  0  0  0  0  0  0  0  # atno 17394 bound_to 11000
  141.2222  133.6998  156.7922 LP  0  0  0  0  0  0  0  0  0  0  0  0  # atno 17395 bound_to 11000

$$$$
