AV-unprocessed.smi:3261|AV-procd|sdf|12479|dock3
  -GOLD-   2272018383D 1   1.00000     0.00000
 Structure written by MMmdl.
 30 31  0  0  0  0  0  0  0  0  1 V2000
  144.7542  136.3571  153.1016 O   0  0  0  0  0  0  0  0  0  0  0  0
  145.9161  136.2767  152.7095 C   0  0  0  0  0  0  0  0  0  0  0  0
  146.4067  135.2753  151.9518 N   0  0  0  0  0  0  0  0  0  0  0  0
  145.7307  134.1564  151.3937 C   0  0  0  0  0  0  0  0  0  0  0  0
  146.5207  133.0902  150.9162 C   0  0  0  0  0  0  0  0  0  0  0  0
  145.8810  131.9746  150.3405 C   0  0  0  0  0  0  0  0  0  0  0  0
  144.5416  131.8727  150.2124 N   0  0  0  0  0  0  0  0  0  0  0  0
  143.7871  132.8991  150.6584 C   0  0  0  0  0  0  0  0  0  0  0  0
  144.3254  134.0594  151.2500 C   0  0  0  0  0  0  0  0  0  0  0  0
  146.8268  137.2066  153.0502 N   0  0  0  0  0  0  0  0  0  0  0  0
  146.6332  138.4125  153.8572 C   0  0  1  0  0  0  0  0  0  0  0  0
  147.5838  138.4240  155.0687 C   0  0  0  0  0  0  0  0  0  0  0  0
  147.5995  139.8358  155.6678 C   0  0  0  0  0  0  0  0  0  0  0  0
  147.3081  140.9857  154.2700 S   0  0  0  0  0  0  0  0  0  0  0  0
  146.1089  141.7877  154.5553 O   0  0  0  0  0  0  0  0  0  0  0  0
  148.5742  141.6267  153.8839 O   0  0  0  0  0  0  0  0  0  0  0  0
  146.8948  139.6898  153.0430 C   0  0  0  0  0  0  0  0  0  0  0  0
  147.4010  135.3033  151.7808 H   0  0  0  0  0  0  0  0  0  0  0  0
  147.5980  133.1201  150.9908 H   0  0  0  0  0  0  0  0  0  0  0  0
  146.4618  131.1424  149.9708 H   0  0  0  0  0  0  0  0  0  0  0  0
  142.7192  132.7964  150.5346 H   0  0  0  0  0  0  0  0  0  0  0  0
  143.6549  134.8439  151.5640 H   0  0  0  0  0  0  0  0  0  0  0  0
  147.7714  137.0411  152.7331 H   0  0  0  0  0  0  0  0  0  0  0  0
  145.6139  138.4445  154.2465 H   0  0  0  0  0  0  0  0  0  0  0  0
  147.3023  137.6784  155.8131 H   0  0  0  0  0  0  0  0  0  0  0  0
  148.5931  138.1757  154.7366 H   0  0  0  0  0  0  0  0  0  0  0  0
  146.7853  139.9618  156.3819 H   0  0  0  0  0  0  0  0  0  0  0  0
  148.5389  140.0766  156.1655 H   0  0  0  0  0  0  0  0  0  0  0  0
  147.7569  139.5689  152.3860 H   0  0  0  0  0  0  0  0  0  0  0  0
  146.0404  140.0020  152.4421 H   0  0  0  0  0  0  0  0  0  0  0  0
  1  2  2  0  0  0  0
  2  3  1  0  0  0  0
  2 10  1  0  0  0  0
  3  4  1  0  0  0  0
  3 18  1  0  0  0  0
  4  9  1  0  0  0  0
  4  5  2  0  0  0  0
  5  6  1  0  0  0  0
  5 19  1  0  0  0  0
  6  7  2  0  0  0  0
  6 20  1  0  0  0  0
  7  8  1  0  0  0  0
  8  9  2  0  0  0  0
  8 21  1  0  0  0  0
  9 22  1  0  0  0  0
 10 11  1  0  0  0  0
 10 23  1  0  0  0  0
 11 17  1  0  0  0  0
 11 12  1  0  0  0  0
 11 24  1  0  0  0  0
 12 13  1  0  0  0  0
 12 25  1  0  0  0  0
 12 26  1  0  0  0  0
 13 14  1  0  0  0  0
 13 27  1  0  0  0  0
 13 28  1  0  0  0  0
 14 15  2  0  0  0  0
 14 16  2  0  0  0  0
 14 17  1  0  0  0  0
 17 29  1  0  0  0  0
 17 30  1  0  0  0  0
M  END
> <s_m_source_file>
AV-unprocessed.smi

> <i_m_source_file_index>
3261

> <i_lp_mmshare_version>
43012

> <i_f3d_flags>
0

> <s_epik_input>
Tz1TMSg9TylbQ0gyXVtDSDJdW0NASF0oW0NIMl0xKVtOSF1DKD1PKVtOSF1jMltjSF1bY0hdbltjSF1bY0hdMg==

> <s_epik_cmdline>
J2VwaWtfcHl0aG9uJywgJy1waCcsICc3LjAnLCAnLXRuJywgJzgnLCAnLW1hJywgJzIwMCcsICctbWV0YWxfYmluZGluZycsICctaW1hZScsICc8aW5maWxlLm1hZT4nLCAnLW9tYWUnLCAnPG91dGZpbGUubWFlPic=

> <r_epik_Ionization_Penalty>
0.0999693

> <r_epik_Ionization_Penalty_Charging>
0

> <r_epik_Ionization_Penalty_Neutral>
0.0999693

> <r_epik_State_Penalty>
0.0899812

> <r_epik_Charging_Adjusted_Penalty>
0.0899812

> <i_epik_Tot_Q>
0

> <i_epik_Tot_abs_Q>
0

> <r_epik_Metal_State_Penalty>
0.0778619

> <b_epik_Metal_Only>
0

> <s_lp_Force_Field>
OPLS_2005

> <r_lp_Energy>
18.6703

> <b_lp_Chiralities_Consistent>
1

> <s_lp_Variant>
AV-unprocessed.smi:3261-2

> <Gold.Version>
5.8.1

> <Gold.Id.Protein>
6NUR|6NUR_protein|mol2

> <Gold.PLP.Fitness>
37.6201

> <Gold.PLP.PLP>
-24.1231

> <Gold.PLP.part.hbond>
-3.0000

> <Gold.PLP.part.metal>
0.0000

> <Gold.PLP.part.buried>
-4.7143

> <Gold.PLP.part.nonpolar>
-17.4940

> <Gold.PLP.part.repulsive>
0.6951

> <Gold.PLP.ligand.clash>
0.0000

> <Gold.PLP.ligand.torsion>
0.0676

> <Gold.PLP.Chemscore.Hbond>
2.6160

> <Gold.PLP.Chemscore.CHOScore>
1.9279

> <Gold.PLP.Chemscore.Metal>
0.0000

> <Gold.Chemscore.Hbonds>
donor molecule, donor type, donor heavy atom, donor atom, acceptor molecule, acceptor atom, score
      L1  H     3    18       P1  7948  1.00
      L1  H    10    23       P1  7948  1.00
      P1  H  8011  8017       L1    16  0.47
      L1  C     6    20       P1 10747  0.91
      L1  C     8    21       P1 10186  0.94

> <Gold.PLP.Chemscore.Internal.Correction>
0.0006

> <Gold.Rescore>
     Score         DG    S(hbond)    S(metal)    S(lipo)     H(rot)  DE(clash)    DE(int)     intcor
     16.16     -17.39       2.56        0.00      50.75       1.00       0.01       1.23       ----

> <Gold.Chemscore.Fitness>
16.1556

> <Gold.Chemscore.DG>
-17.3937

> <Gold.Chemscore.ZeroCoef>
-5.4800

> <Gold.Chemscore.Hbond>
2.5557

> <Gold.Chemscore.Metal>
0.0000

> <Gold.Chemscore.Lipo>
50.7498

> <Gold.Chemscore.Internal_Hbond>
0.0000

> <Gold.Chemscore.DEClash>
0.0092

> <Gold.Chemscore.DEInternal>
1.2289

> <Gold.Chemscore.Rot>
1.0000

> <Gold.Chemscore.Internal.Correction>
   9.000000E+99

> <Gold.Chemscore.Hbonds>
donor molecule, donor type, donor heavy atom, donor atom, acceptor molecule, acceptor atom, score
      L1  H     3    18       P1  7948  0.91
      L1  H    10    23       P1  7948  0.97
      P1  H  8011  8017       L1    16  0.48

> <Gold.Chemscore.Hbond.Weighted>
-8.5360

> <Gold.Chemscore.Metal.Weighted>
-0.0000

> <Gold.Chemscore.Lipo.Weighted>
-5.9377

> <Gold.Chemscore.Internal_Hbond.Weighted>
0.0000

> <Gold.Chemscore.DEClash.Weighted>
0.0092

> <Gold.Chemscore.DEInternal.Weighted>
1.2289

> <Gold.Chemscore.Rot.Weighted>
2.5600

> <Gold.Chemscore.Internal.Correction.Weighted>
   9.000000E+99

> <Gold.Protein.RotatedTorsions>
[ 6907 6896 6895 6894 ] final  163.33 input  -60.11 | X-H torsion
[ 7974 7965 7964 7962 ] final   58.50 input  175.53 | X-H torsion
[ 8008 7997 7996 7995 ] final  171.78 input   59.86 | X-H torsion
[ 10167 10162 10161 10158 ] final  133.48 input  -65.29 | X-H torsion
[ 10718 10713 10712 10709 ] final -118.82 input   66.30 | X-H torsion
[ 10763 10752 10751 10750 ] final  162.78 input  -60.55 | X-H torsion
[ 11005 11000 10999 10996 ] final -135.37 input  -57.11 | X-H torsion

> <Gold.Protein.ActiveResidues>
 VAL166  LYS551  ARG553  GLY616  TRP617  ASP618  TYR619  PRO620  LYS621  CYS622 
 ASP623  PHE694  ASN695  SER759  ASP760  ASP761  ALA762  ILE779  LEU786  VAL792 
 PHE793  MET794  SER795  GLU796  ALA797  LYS798  CYS799  TRP800  GLU811  SER814 

> <Gold.Protein.RotatedAtoms>
  151.9268  133.3600  159.3916 H   0  0  0  0  0  0  0  0  0  0  0  0  # atno 6907 bound_to 6896
  150.7025  134.4579  159.5376 H   0  0  0  0  0  0  0  0  0  0  0  0  # atno 6908 bound_to 6896
  152.2212  134.8411  160.0536 H   0  0  0  0  0  0  0  0  0  0  0  0  # atno 6909 bound_to 6896
  145.9174  139.3702  143.0499 H   0  0  0  0  0  0  0  0  0  0  0  0  # atno 7974 bound_to 7965
  156.1238  140.1503  156.9165 H   0  0  0  0  0  0  0  0  0  0  0  0  # atno 8008 bound_to 7997
  154.4856  140.0866  156.7520 H   0  0  0  0  0  0  0  0  0  0  0  0  # atno 8009 bound_to 7997
  155.4380  140.3430  155.4289 H   0  0  0  0  0  0  0  0  0  0  0  0  # atno 8010 bound_to 7997
  139.5295  144.6613  151.5002 H   0  0  0  0  0  0  0  0  0  0  0  0  # atno 10167 bound_to 10162
  156.1134  130.6267  150.9339 H   0  0  0  0  0  0  0  0  0  0  0  0  # atno 10718 bound_to 10713
  154.2836  135.2762  155.2686 H   0  0  0  0  0  0  0  0  0  0  0  0  # atno 10763 bound_to 10752
  154.5196  135.5760  153.6673 H   0  0  0  0  0  0  0  0  0  0  0  0  # atno 10764 bound_to 10752
  152.9925  135.6201  154.2997 H   0  0  0  0  0  0  0  0  0  0  0  0  # atno 10765 bound_to 10752
  140.8904  134.1818  157.4531 H   0  0  0  0  0  0  0  0  0  0  0  0  # atno 11005 bound_to 11000
  145.8593  140.9484  143.0708 LP  0  0  0  0  0  0  0  0  0  0  0  0  # atno 17320 bound_to 7965
  144.6749  140.0510  143.7478 LP  0  0  0  0  0  0  0  0  0  0  0  0  # atno 17321 bound_to 7965
  140.6463  143.8787  150.6741 LP  0  0  0  0  0  0  0  0  0  0  0  0  # atno 17342 bound_to 10162
  140.2138  143.3863  152.1697 LP  0  0  0  0  0  0  0  0  0  0  0  0  # atno 17343 bound_to 10162
  157.6317  131.0920  150.8429 LP  0  0  0  0  0  0  0  0  0  0  0  0  # atno 17370 bound_to 10713
  156.8536  130.5089  149.5309 LP  0  0  0  0  0  0  0  0  0  0  0  0  # atno 17371 bound_to 10713
  139.8729  134.9856  156.5289 LP  0  0  0  0  0  0  0  0  0  0  0  0  # atno 17394 bound_to 11000
  140.8353  133.8247  155.9023 LP  0  0  0  0  0  0  0  0  0  0  0  0  # atno 17395 bound_to 11000

$$$$
