AV-unprocessed.smi:1219|AV-procd|sdf|5113|dock9
  -GOLD-   22720 4173D 1   1.00000     0.00000
 Structure written by MMmdl.
 43 44  0  0  0  0  0  0  0  0  2 V2000
  151.1755  140.4451  155.0987 O   0  0  0  0  0  0  0  0  0  0  0  0
  151.4487  139.6940  156.0351 C   0  0  0  0  0  0  0  0  0  0  0  0
  151.4830  138.3579  155.9240 N   0  0  0  0  0  0  0  0  0  0  0  0
  151.2083  137.6035  154.7039 C   0  0  0  0  0  0  0  0  0  0  0  0
  150.8772  136.1190  154.9708 C   0  0  1  0  0  0  0  0  0  0  0  0
  151.6943  135.6768  156.0355 O   0  0  0  0  0  0  0  0  0  0  0  0
  149.4008  135.8718  155.3503 C   0  0  0  0  0  0  0  0  0  0  0  0
  148.7159  134.9861  154.3746 N   0  3  0  0  0  0  0  0  0  0  0  0
  149.4069  133.6814  154.2073 C   0  0  0  0  0  0  0  0  0  0  0  0
  148.7580  132.8494  153.0876 C   0  0  0  0  0  0  0  0  0  0  0  0
  147.2597  132.6457  153.3483 C   0  0  0  0  0  0  0  0  0  0  0  0
  146.5744  134.0026  153.5559 C   0  0  0  0  0  0  0  0  0  0  0  0
  147.2686  134.8039  154.6695 C   0  0  0  0  0  0  0  0  0  0  0  0
  151.7436  140.0862  157.2866 N   0  0  0  0  0  0  0  0  0  0  0  0
  151.7461  141.4048  157.8144 C   0  0  0  0  0  0  0  0  0  0  0  0
  152.4186  141.5547  159.0483 C   0  0  0  0  0  0  0  0  0  0  0  0
  152.4716  142.8228  159.6590 C   0  0  0  0  0  0  0  0  0  0  0  0
  151.8482  143.9092  159.0197 C   0  0  0  0  0  0  0  0  0  0  0  0
  151.1992  143.6740  157.7937 C   0  0  0  0  0  0  0  0  0  0  0  0
  151.1469  142.4594  157.2070 N   0  0  0  0  0  0  0  0  0  0  0  0
  151.7271  137.8210  156.7434 H   0  0  0  0  0  0  0  0  0  0  0  0
  150.3894  138.0836  154.1654 H   0  0  0  0  0  0  0  0  0  0  0  0
  152.0867  137.6808  154.0621 H   0  0  0  0  0  0  0  0  0  0  0  0
  151.1497  135.5348  154.0931 H   0  0  0  0  0  0  0  0  0  0  0  0
  151.1617  135.5893  156.8117 H   0  0  0  0  0  0  0  0  0  0  0  0
  149.3662  135.4356  156.3501 H   0  0  0  0  0  0  0  0  0  0  0  0
  148.8454  136.8083  155.4146 H   0  0  0  0  0  0  0  0  0  0  0  0
  150.4566  133.8492  153.9624 H   0  0  0  0  0  0  0  0  0  0  0  0
  149.3838  133.1317  155.1498 H   0  0  0  0  0  0  0  0  0  0  0  0
  148.8976  133.3530  152.1301 H   0  0  0  0  0  0  0  0  0  0  0  0
  149.2561  131.8830  153.0040 H   0  0  0  0  0  0  0  0  0  0  0  0
  146.7997  132.1142  152.5146 H   0  0  0  0  0  0  0  0  0  0  0  0
  147.1196  132.0226  154.2326 H   0  0  0  0  0  0  0  0  0  0  0  0
  146.5969  134.5725  152.6260 H   0  0  0  0  0  0  0  0  0  0  0  0
  145.5226  133.8549  153.8029 H   0  0  0  0  0  0  0  0  0  0  0  0
  147.1530  134.2902  155.6253 H   0  0  0  0  0  0  0  0  0  0  0  0
  146.7739  135.7691  154.7731 H   0  0  0  0  0  0  0  0  0  0  0  0
  151.9773  139.3565  157.9437 H   0  0  0  0  0  0  0  0  0  0  0  0
  152.8920  140.7093  159.5263 H   0  0  0  0  0  0  0  0  0  0  0  0
  152.9808  142.9582  160.6016 H   0  0  0  0  0  0  0  0  0  0  0  0
  151.8668  144.8965  159.4571 H   0  0  0  0  0  0  0  0  0  0  0  0
  150.7078  144.4807  157.2704 H   0  0  0  0  0  0  0  0  0  0  0  0
  148.7794  135.4529  153.4807 H   0  0  0  0  0  0  0  0  0  0  0  0
  1  2  2  0  0  0  0
  2  3  1  0  0  0  0
  2 14  1  0  0  0  0
  3  4  1  0  0  0  0
  3 21  1  0  0  0  0
  4  5  1  0  0  0  0
  4 22  1  0  0  0  0
  4 23  1  0  0  0  0
  5  6  1  0  0  0  0
  5  7  1  0  0  0  0
  5 24  1  0  0  0  0
  6 25  1  0  0  0  0
  7  8  1  0  0  0  0
  7 26  1  0  0  0  0
  7 27  1  0  0  0  0
  8 13  1  0  0  0  0
  8  9  1  0  0  0  0
  8 43  1  0  0  0  0
  9 10  1  0  0  0  0
  9 28  1  0  0  0  0
  9 29  1  0  0  0  0
 10 11  1  0  0  0  0
 10 30  1  0  0  0  0
 10 31  1  0  0  0  0
 11 12  1  0  0  0  0
 11 32  1  0  0  0  0
 11 33  1  0  0  0  0
 12 13  1  0  0  0  0
 12 34  1  0  0  0  0
 12 35  1  0  0  0  0
 13 36  1  0  0  0  0
 13 37  1  0  0  0  0
 14 15  1  0  0  0  0
 14 38  1  0  0  0  0
 15 20  1  0  0  0  0
 15 16  2  0  0  0  0
 16 17  1  0  0  0  0
 16 39  1  0  0  0  0
 17 18  2  0  0  0  0
 17 40  1  0  0  0  0
 18 19  1  0  0  0  0
 18 41  1  0  0  0  0
 19 20  2  0  0  0  0
 19 42  1  0  0  0  0
M  CHG  1   8   1
M  END
> <s_m_source_file>
AV-unprocessed.smi

> <i_m_source_file_index>
1219

> <i_lp_mmshare_version>
43012

> <i_f3d_flags>
0

> <s_epik_input>
bjFbY0hdW2NIXVtjSF1bY0hdYzFbTkhdQyg9TylbTkhdW0NIMl1bQ0BIXShbT0hdKVtDSDJdTjJbQ0gyXVtDSDJdW0NIMl1bQ0gyXVtDSDJdMg==

> <s_epik_cmdline>
J2VwaWtfcHl0aG9uJywgJy1waCcsICc3LjAnLCAnLXRuJywgJzgnLCAnLW1hJywgJzIwMCcsICctbWV0YWxfYmluZGluZycsICctaW1hZScsICc8aW5maWxlLm1hZT4nLCAnLW9tYWUnLCAnPG91dGZpbGUubWFlPic=

> <r_epik_Ionization_Penalty>
0.00510026

> <r_epik_Ionization_Penalty_Charging>
0.00506051

> <r_epik_Ionization_Penalty_Neutral>
3.97538e-05

> <r_epik_State_Penalty>
0.00368188

> <r_epik_Charging_Adjusted_Penalty>
0.0087424

> <i_epik_Tot_Q>
1

> <i_epik_Tot_abs_Q>
1

> <r_epik_Metal_State_Penalty>
-0

> <b_epik_Metal_Only>
0

> <s_lp_Force_Field>
OPLS_2005

> <r_lp_Energy>
19.3775

> <b_lp_Chiralities_Consistent>
1

> <s_lp_Variant>
AV-unprocessed.smi:1219-2

> <Gold.Version>
5.8.1

> <Gold.Id.Protein>
6NUR|6NUR_protein|mol2

> <Gold.PLP.Fitness>
48.1793

> <Gold.PLP.PLP>
-35.4917

> <Gold.PLP.part.hbond>
-3.0000

> <Gold.PLP.part.metal>
0.0000

> <Gold.PLP.part.buried>
-2.9652

> <Gold.PLP.part.nonpolar>
-29.9686

> <Gold.PLP.part.repulsive>
0.3295

> <Gold.PLP.ligand.clash>
0.0000

> <Gold.PLP.ligand.torsion>
1.1808

> <Gold.PLP.Chemscore.Hbond>
4.0000

> <Gold.PLP.Chemscore.CHOScore>
1.0000

> <Gold.PLP.Chemscore.Metal>
0.0000

> <Gold.Chemscore.Hbonds>
donor molecule, donor type, donor heavy atom, donor atom, acceptor molecule, acceptor atom, score
      L1  H     8    43       P1  7948  2.00
      P1  H  7989  7998       L1     1  1.00
      P1  H 10752 10764       L1     6  0.75
      L1  C    19    42       P1  8028  1.00

> <Gold.PLP.Chemscore.Internal.Correction>
0.0492

> <Gold.Rescore>
     Score         DG    S(hbond)    S(metal)    S(lipo)     H(rot)  DE(clash)    DE(int)     intcor
     15.72     -18.21       2.79        0.00      81.69       2.41       0.11       2.38       ----

> <Gold.Chemscore.Fitness>
15.7203

> <Gold.Chemscore.DG>
-18.2100

> <Gold.Chemscore.ZeroCoef>
-5.4800

> <Gold.Chemscore.Hbond>
2.7945

> <Gold.Chemscore.Metal>
0.0000

> <Gold.Chemscore.Lipo>
81.6878

> <Gold.Chemscore.Internal_Hbond>
0.0000

> <Gold.Chemscore.DEClash>
0.1086

> <Gold.Chemscore.DEInternal>
2.3811

> <Gold.Chemscore.Rot>
2.4067

> <Gold.Chemscore.Internal.Correction>
   9.000000E+99

> <Gold.Chemscore.Hbonds>
donor molecule, donor type, donor heavy atom, donor atom, acceptor molecule, acceptor atom, score
      L1  H     8    43       P1  7948  0.88
      P1  H  7989  7998       L1     1  0.94
      P1  H 10752 10764       L1     6  0.09

> <Gold.Chemscore.Hbond.Weighted>
-9.3337

> <Gold.Chemscore.Metal.Weighted>
-0.0000

> <Gold.Chemscore.Lipo.Weighted>
-9.5575

> <Gold.Chemscore.Internal_Hbond.Weighted>
0.0000

> <Gold.Chemscore.DEClash.Weighted>
0.1086

> <Gold.Chemscore.DEInternal.Weighted>
2.3811

> <Gold.Chemscore.Rot.Weighted>
6.1612

> <Gold.Chemscore.Internal.Correction.Weighted>
   9.000000E+99

> <Gold.Protein.RotatedTorsions>
[ 6907 6896 6895 6894 ] final  176.66 input  -60.11 | X-H torsion
[ 7974 7965 7964 7962 ] final  -25.79 input  175.53 | X-H torsion
[ 8008 7997 7996 7995 ] final -139.23 input   59.86 | X-H torsion
[ 10167 10162 10161 10158 ] final -119.34 input  -65.29 | X-H torsion
[ 10718 10713 10712 10709 ] final  164.44 input   66.30 | X-H torsion
[ 10763 10752 10751 10750 ] final  -29.52 input  -60.55 | X-H torsion
[ 11005 11000 10999 10996 ] final  -43.48 input  -57.11 | X-H torsion

> <Gold.Protein.ActiveResidues>
 VAL166  LYS551  ARG553  GLY616  TRP617  ASP618  TYR619  PRO620  LYS621  CYS622 
 ASP623  PHE694  ASN695  SER759  ASP760  ASP761  ALA762  ILE779  LEU786  VAL792 
 PHE793  MET794  SER795  GLU796  ALA797  LYS798  CYS799  TRP800  GLU811  SER814 

> <Gold.Protein.RotatedAtoms>
  151.7166  133.3313  159.3304 H   0  0  0  0  0  0  0  0  0  0  0  0  # atno 6907 bound_to 6896
  150.7671  134.6485  159.6284 H   0  0  0  0  0  0  0  0  0  0  0  0  # atno 6908 bound_to 6896
  152.3678  134.6781  160.0238 H   0  0  0  0  0  0  0  0  0  0  0  0  # atno 6909 bound_to 6896
  146.1468  140.4934  142.8628 H   0  0  0  0  0  0  0  0  0  0  0  0  # atno 7974 bound_to 7965
  155.4415  140.0532  157.3010 H   0  0  0  0  0  0  0  0  0  0  0  0  # atno 8008 bound_to 7997
  154.4816  140.2084  155.9707 H   0  0  0  0  0  0  0  0  0  0  0  0  # atno 8009 bound_to 7997
  156.1214  140.3187  155.8218 H   0  0  0  0  0  0  0  0  0  0  0  0  # atno 8010 bound_to 7997
  140.0477  143.5090  152.2098 H   0  0  0  0  0  0  0  0  0  0  0  0  # atno 10167 bound_to 10162
  157.0943  131.0426  151.2524 H   0  0  0  0  0  0  0  0  0  0  0  0  # atno 10718 bound_to 10713
  153.7660  135.6916  153.4916 H   0  0  0  0  0  0  0  0  0  0  0  0  # atno 10763 bound_to 10752
  153.1906  135.4472  155.0143 H   0  0  0  0  0  0  0  0  0  0  0  0  # atno 10764 bound_to 10752
  154.8135  135.3388  154.7172 H   0  0  0  0  0  0  0  0  0  0  0  0  # atno 10765 bound_to 10752
  141.0387  133.6789  156.2739 H   0  0  0  0  0  0  0  0  0  0  0  0  # atno 11005 bound_to 11000
  144.7856  140.5929  143.6576 LP  0  0  0  0  0  0  0  0  0  0  0  0  # atno 17320 bound_to 7965
  145.4919  139.1488  143.3705 LP  0  0  0  0  0  0  0  0  0  0  0  0  # atno 17321 bound_to 7965
  139.5973  144.7571  151.3256 LP  0  0  0  0  0  0  0  0  0  0  0  0  # atno 17342 bound_to 10162
  140.7231  143.7080  150.7792 LP  0  0  0  0  0  0  0  0  0  0  0  0  # atno 17343 bound_to 10162
  157.4694  130.7700  149.7310 LP  0  0  0  0  0  0  0  0  0  0  0  0  # atno 17370 bound_to 10713
  155.9890  130.3955  150.3094 LP  0  0  0  0  0  0  0  0  0  0  0  0  # atno 17371 bound_to 10713
  140.6275  134.5298  157.5555 LP  0  0  0  0  0  0  0  0  0  0  0  0  # atno 17394 bound_to 11000
  139.9259  134.8056  156.1070 LP  0  0  0  0  0  0  0  0  0  0  0  0  # atno 17395 bound_to 11000

$$$$
