AV-unprocessed.smi:37|AV-procd|sdf|310|dock9
  -GOLD-   2262016123D 1   1.00000     0.00000
 Structure written by MMmdl.
 44 45  0  0  0  0  0  0  0  0  1 V2000
  147.5016  134.0634  162.3722 C   0  0  0  0  0  0  0  0  0  0  0  0
  147.5444  134.6981  160.9755 C   0  0  0  0  0  0  0  0  0  0  0  0
  148.3686  135.9833  160.9506 C   0  0  0  0  0  0  0  0  0  0  0  0
  148.1797  136.8830  161.7695 O   0  0  0  0  0  0  0  0  0  0  0  0
  149.2850  135.9918  159.9699 O   0  0  0  0  0  0  0  0  0  0  0  0
  150.1997  137.0704  159.8754 C   0  0  0  0  0  0  0  0  0  0  0  0
  150.2814  137.5342  158.4157 C   0  0  1  0  0  0  0  0  0  0  0  0
  149.3474  138.5742  158.1491 O   0  0  0  0  0  0  0  0  0  0  0  0
  149.7980  139.3567  157.0813 C   0  0  2  0  0  0  0  0  0  0  0  0
  148.8535  139.2175  155.9085 N   0  0  0  0  0  0  0  0  0  0  0  0
  147.7277  138.4035  155.9548 C   0  0  0  0  0  0  0  0  0  0  0  0
  146.8770  138.2665  154.9101 C   0  0  0  0  0  0  0  0  0  0  0  0
  145.8099  137.4581  155.0260 F   0  0  0  0  0  0  0  0  0  0  0  0
  147.1096  138.9842  153.6600 C   0  0  0  0  0  0  0  0  0  0  0  0
  146.3958  138.9249  152.6606 O   0  0  0  0  0  0  0  0  0  0  0  0
  148.2542  139.7872  153.6592 N   0  0  0  0  0  0  0  0  0  0  0  0
  149.1400  139.9359  154.7274 C   0  0  0  0  0  0  0  0  0  0  0  0
  150.1270  140.6620  154.6165 O   0  0  0  0  0  0  0  0  0  0  0  0
  151.2408  138.9112  156.7537 C   0  0  2  0  0  0  0  0  0  0  0  0
  151.3583  137.6495  155.2061 Br  0  0  0  0  0  0  0  0  0  0  0  0
  151.6230  138.1481  158.0103 C   0  0  1  0  0  0  0  0  0  0  0  0
  152.0777  139.0370  159.0257 O   0  0  0  0  0  0  0  0  0  0  0  0
  153.2997  139.5938  158.9466 C   0  0  0  0  0  0  0  0  0  0  0  0
  154.1428  139.3638  158.0798 O   0  0  0  0  0  0  0  0  0  0  0  0
  153.5624  140.5965  160.0678 C   0  0  0  0  0  0  0  0  0  0  0  0
  152.8047  141.9146  159.8565 C   0  0  0  0  0  0  0  0  0  0  0  0
  148.4581  140.2993  152.8134 H   0  0  0  0  0  0  0  0  0  0  0  0
  146.9175  133.1433  162.3573 H   0  0  0  0  0  0  0  0  0  0  0  0
  147.0445  134.7316  163.1031 H   0  0  0  0  0  0  0  0  0  0  0  0
  148.5033  133.8128  162.7235 H   0  0  0  0  0  0  0  0  0  0  0  0
  147.9677  133.9924  160.2604 H   0  0  0  0  0  0  0  0  0  0  0  0
  146.5328  134.9232  160.6368 H   0  0  0  0  0  0  0  0  0  0  0  0
  149.8959  137.8921  160.5254 H   0  0  0  0  0  0  0  0  0  0  0  0
  151.1807  136.7299  160.2098 H   0  0  0  0  0  0  0  0  0  0  0  0
  150.0681  136.6954  157.7508 H   0  0  0  0  0  0  0  0  0  0  0  0
  149.7324  140.3984  157.4018 H   0  0  0  0  0  0  0  0  0  0  0  0
  147.5057  137.8403  156.8491 H   0  0  0  0  0  0  0  0  0  0  0  0
  151.8795  139.7687  156.5389 H   0  0  0  0  0  0  0  0  0  0  0  0
  152.3696  137.3763  157.8178 H   0  0  0  0  0  0  0  0  0  0  0  0
  153.2671  140.1490  161.0172 H   0  0  0  0  0  0  0  0  0  0  0  0
  154.6343  140.7864  160.1267 H   0  0  0  0  0  0  0  0  0  0  0  0
  152.9797  142.5951  160.6899 H   0  0  0  0  0  0  0  0  0  0  0  0
  151.7293  141.7472  159.7874 H   0  0  0  0  0  0  0  0  0  0  0  0
  153.1259  142.4210  158.9456 H   0  0  0  0  0  0  0  0  0  0  0  0
  1  2  1  0  0  0  0
  1 28  1  0  0  0  0
  1 29  1  0  0  0  0
  1 30  1  0  0  0  0
  2  3  1  0  0  0  0
  2 31  1  0  0  0  0
  2 32  1  0  0  0  0
  3  4  2  0  0  0  0
  3  5  1  0  0  0  0
  5  6  1  0  0  0  0
  6  7  1  0  0  0  0
  6 33  1  0  0  0  0
  6 34  1  0  0  0  0
  7 21  1  0  0  0  0
  7  8  1  0  0  0  0
  7 35  1  0  0  0  0
  8  9  1  0  0  0  0
  9 10  1  0  0  0  0
  9 19  1  0  0  0  0
  9 36  1  0  0  0  0
 10 17  1  0  0  0  0
 10 11  1  0  0  0  0
 11 12  2  0  0  0  0
 11 37  1  0  0  0  0
 12 13  1  0  0  0  0
 12 14  1  0  0  0  0
 14 15  2  0  0  0  0
 14 16  1  0  0  0  0
 16 27  1  0  0  0  0
 16 17  1  0  0  0  0
 17 18  2  0  0  0  0
 19 20  1  0  0  0  0
 19 21  1  0  0  0  0
 19 38  1  0  0  0  0
 21 22  1  0  0  0  0
 21 39  1  0  0  0  0
 22 23  1  0  0  0  0
 23 24  2  0  0  0  0
 23 25  1  0  0  0  0
 25 26  1  0  0  0  0
 25 40  1  0  0  0  0
 25 41  1  0  0  0  0
 26 42  1  0  0  0  0
 26 43  1  0  0  0  0
 26 44  1  0  0  0  0
M  END
> <s_m_source_file>
AV-unprocessed.smi

> <i_m_source_file_index>
37

> <i_lp_mmshare_version>
43012

> <i_f3d_flags>
0

> <s_epik_input>
W0NIM11bQ0gyXUMoPU8pT1tDSDJdW0NAQEhdMU9bQ0BASF0objJbY0hdYyhGKWMoPU8pW25IXWMyPU8pW0NAQEhdKEJyKVtDQEhdMU9DKD1PKVtDSDJdW0NIM10=

> <s_epik_cmdline>
J2VwaWtfcHl0aG9uJywgJy1waCcsICc3LjAnLCAnLXRuJywgJzgnLCAnLW1hJywgJzIwMCcsICctbWV0YWxfYmluZGluZycsICctaW1hZScsICc8aW5maWxlLm1hZT4nLCAnLW9tYWUnLCAnPG91dGZpbGUubWFlPic=

> <r_lp_tautomer_probability>
0.999537

> <r_epik_Ionization_Penalty>
0.104106

> <r_epik_Ionization_Penalty_Charging>
0.104106

> <r_epik_Ionization_Penalty_Neutral>
3.94675e-16

> <r_epik_State_Penalty>
0.0940182

> <r_epik_Charging_Adjusted_Penalty>
0.198124

> <i_epik_Tot_Q>
0

> <i_epik_Tot_abs_Q>
0

> <r_epik_Metal_State_Penalty>
3.05314

> <b_epik_Metal_Only>
0

> <s_epik_Chemistry_Notes>
This compound has an ester and may undergo hydrolysis at high or low pH. This compound contains an acetal/aminal-like group ( X-CH(R)-Y where X, Y are N, S, or O) that may be acid/base labile, releasing an aldehyde.

> <s_lp_Force_Field>
OPLS_2005

> <r_lp_Energy>
24.0333

> <b_lp_Chiralities_Consistent>
1

> <s_lp_Variant>
AV-unprocessed.smi:37-8

> <Gold.Version>
5.8.1

> <Gold.Id.Protein>
6NUR|6NUR_protein|mol2

> <Gold.PLP.Fitness>
46.1522

> <Gold.PLP.PLP>
-34.0769

> <Gold.PLP.part.hbond>
-4.7084

> <Gold.PLP.part.metal>
0.0000

> <Gold.PLP.part.buried>
-4.3118

> <Gold.PLP.part.nonpolar>
-24.7521

> <Gold.PLP.part.repulsive>
0.5598

> <Gold.PLP.ligand.clash>
0.0000

> <Gold.PLP.ligand.torsion>
1.0813

> <Gold.PLP.Chemscore.Hbond>
4.6953

> <Gold.PLP.Chemscore.CHOScore>
0.0000

> <Gold.PLP.Chemscore.Metal>
0.0000

> <Gold.Chemscore.Hbonds>
donor molecule, donor type, donor heavy atom, donor atom, acceptor molecule, acceptor atom, score
      L1  H    16    27       P1  7957  0.75
      P1  H  6931  6943       L1     4  1.00
      P1  H  7989  7998       L1    18  0.83
      P1  H  7997  8008       L1    24  0.44

> <Gold.PLP.Chemscore.Internal.Correction>
0.1520

> <Gold.Rescore>
     Score         DG    S(hbond)    S(metal)    S(lipo)     H(rot)  DE(clash)    DE(int)     intcor
     15.36     -16.41       3.81        0.00      57.53       3.33       0.17       0.89       ----

> <Gold.Chemscore.Fitness>
15.3569

> <Gold.Chemscore.DG>
-16.4107

> <Gold.Chemscore.ZeroCoef>
-5.4800

> <Gold.Chemscore.Hbond>
3.8099

> <Gold.Chemscore.Metal>
0.0000

> <Gold.Chemscore.Lipo>
57.5319

> <Gold.Chemscore.Internal_Hbond>
0.0000

> <Gold.Chemscore.DEClash>
0.1678

> <Gold.Chemscore.DEInternal>
0.8859

> <Gold.Chemscore.Rot>
3.3303

> <Gold.Chemscore.Internal.Correction>
   9.000000E+99

> <Gold.Chemscore.Hbonds>
donor molecule, donor type, donor heavy atom, donor atom, acceptor molecule, acceptor atom, score
      L1  H    16    27       P1  7957  0.71
      P1  H  6931  6943       L1     4  0.99
      P1  H  6934  6947       L1     4  0.01
      P1  H  7989  7998       L1    18  0.83
      P1  H  7997  8008       L1    24  0.43

> <Gold.Chemscore.Hbond.Weighted>
-12.7250

> <Gold.Chemscore.Metal.Weighted>
-0.0000

> <Gold.Chemscore.Lipo.Weighted>
-6.7312

> <Gold.Chemscore.Internal_Hbond.Weighted>
0.0000

> <Gold.Chemscore.DEClash.Weighted>
0.1678

> <Gold.Chemscore.DEInternal.Weighted>
0.8859

> <Gold.Chemscore.Rot.Weighted>
8.5256

> <Gold.Chemscore.Internal.Correction.Weighted>
   9.000000E+99

> <Gold.Protein.RotatedTorsions>
[ 6907 6896 6895 6894 ] final   29.63 input  -60.11 | X-H torsion
[ 7974 7965 7964 7962 ] final  -63.17 input  175.53 | X-H torsion
[ 8008 7997 7996 7995 ] final -111.36 input   59.86 | X-H torsion
[ 10167 10162 10161 10158 ] final   -7.25 input  -65.29 | X-H torsion
[ 10718 10713 10712 10709 ] final  -78.92 input   66.30 | X-H torsion
[ 10763 10752 10751 10750 ] final  150.49 input  -60.55 | X-H torsion
[ 11005 11000 10999 10996 ] final  -76.40 input  -57.11 | X-H torsion

> <Gold.Protein.ActiveResidues>
 VAL166  LYS551  ARG553  GLY616  TRP617  ASP618  TYR619  PRO620  LYS621  CYS622 
 ASP623  PHE694  ASN695  SER759  ASP760  ASP761  ALA762  ILE779  LEU786  VAL792 
 PHE793  MET794  SER795  GLU796  ALA797  LYS798  CYS799  TRP800  GLU811  SER814 

> <Gold.Protein.RotatedAtoms>
  152.0343  134.9749  160.0572 H   0  0  0  0  0  0  0  0  0  0  0  0  # atno 6907 bound_to 6896
  152.1213  133.4350  159.4685 H   0  0  0  0  0  0  0  0  0  0  0  0  # atno 6908 bound_to 6896
  150.6849  134.2450  159.4531 H   0  0  0  0  0  0  0  0  0  0  0  0  # atno 6909 bound_to 6896
  145.7824  140.8755  143.0323 H   0  0  0  0  0  0  0  0  0  0  0  0  # atno 7974 bound_to 7965
  154.9887  140.0395  157.2310 H   0  0  0  0  0  0  0  0  0  0  0  0  # atno 8008 bound_to 7997
  154.7648  140.2791  155.6162 H   0  0  0  0  0  0  0  0  0  0  0  0  # atno 8009 bound_to 7997
  156.2910  140.2621  156.2436 H   0  0  0  0  0  0  0  0  0  0  0  0  # atno 8010 bound_to 7997
  140.7023  143.6102  150.8712 H   0  0  0  0  0  0  0  0  0  0  0  0  # atno 10167 bound_to 10162
  156.0105  130.4531  150.3570 H   0  0  0  0  0  0  0  0  0  0  0  0  # atno 10718 bound_to 10713
  154.0883  135.2854  155.3277 H   0  0  0  0  0  0  0  0  0  0  0  0  # atno 10763 bound_to 10752
  154.6637  135.5325  153.8054 H   0  0  0  0  0  0  0  0  0  0  0  0  # atno 10764 bound_to 10752
  153.0423  135.6540  154.1053 H   0  0  0  0  0  0  0  0  0  0  0  0  # atno 10765 bound_to 10752
  141.1653  133.6982  156.7663 H   0  0  0  0  0  0  0  0  0  0  0  0  # atno 11005 bound_to 11000
  144.6794  140.0007  143.7484 LP  0  0  0  0  0  0  0  0  0  0  0  0  # atno 17320 bound_to 7965
  146.0061  139.3131  143.0898 LP  0  0  0  0  0  0  0  0  0  0  0  0  # atno 17321 bound_to 7965
  139.9825  143.5936  152.2938 LP  0  0  0  0  0  0  0  0  0  0  0  0  # atno 17342 bound_to 10162
  139.6562  144.7662  151.2052 LP  0  0  0  0  0  0  0  0  0  0  0  0  # atno 17343 bound_to 10162
  157.1660  131.0357  151.2818 LP  0  0  0  0  0  0  0  0  0  0  0  0  # atno 17370 bound_to 10713
  157.4270  130.7469  149.6959 LP  0  0  0  0  0  0  0  0  0  0  0  0  # atno 17371 bound_to 10713
  140.2496  134.8550  157.3655 LP  0  0  0  0  0  0  0  0  0  0  0  0  # atno 17394 bound_to 11000
  140.1715  134.4602  155.7828 LP  0  0  0  0  0  0  0  0  0  0  0  0  # atno 17395 bound_to 11000

$$$$
