AV-unprocessed.smi:2831|AV-procd|sdf|10910|dock4
  -GOLD-   2272015353D 1   1.00000     0.00000
 Structure written by MMmdl.
 29 30  0  0  0  0  0  0  0  0  2 V2000
  145.6351  134.6252  162.2834 C   0  0  0  0  0  0  0  0  0  0  0  0
  146.6382  135.3253  161.4321 C   0  0  0  0  0  0  0  0  0  0  0  0
  146.8185  136.6478  161.4666 N   0  0  0  0  0  0  0  0  0  0  0  0
  147.8045  137.0640  160.5834 N   0  0  0  0  0  0  0  0  0  0  0  0
  148.3464  136.0546  159.8869 C   0  0  0  0  0  0  0  0  0  0  0  0
  149.3192  136.2445  158.9800 N   0  5  0  0  0  0  0  0  0  0  0  0
  149.6139  137.4948  158.5565 C   0  0  0  0  0  0  0  0  0  0  0  0
  149.0185  138.5269  158.8721 O   0  0  0  0  0  0  0  0  0  0  0  0
  150.6605  137.5405  157.7145 N   0  0  0  0  0  0  0  0  0  0  0  0
  151.2757  138.6990  157.0508 C   0  0  1  0  0  0  0  0  0  0  0  0
  151.6919  139.6921  158.1520 C   0  0  0  0  0  0  0  0  0  0  0  0
  152.4886  138.3268  156.1793 C   0  0  0  0  0  0  0  0  0  0  0  0
  152.0724  138.7244  154.7642 C   0  0  0  0  0  0  0  0  0  0  0  0
  151.1499  139.7789  154.9758 O   0  0  0  0  0  0  0  0  0  0  0  0
  150.3152  139.3783  156.0513 C   0  0  0  0  0  0  0  0  0  0  0  0
  147.6766  134.4766  160.2997 S   0  0  0  0  0  0  0  0  0  0  0  0
  144.6430  134.7162  161.8409 H   0  0  0  0  0  0  0  0  0  0  0  0
  145.6168  135.0608  163.2827 H   0  0  0  0  0  0  0  0  0  0  0  0
  145.8852  133.5677  162.3699 H   0  0  0  0  0  0  0  0  0  0  0  0
  151.0895  136.6500  157.5096 H   0  0  0  0  0  0  0  0  0  0  0  0
  152.1326  140.5952  157.7281 H   0  0  0  0  0  0  0  0  0  0  0  0
  152.4270  139.2502  158.8258 H   0  0  0  0  0  0  0  0  0  0  0  0
  150.8354  139.9978  158.7542 H   0  0  0  0  0  0  0  0  0  0  0  0
  153.3657  138.9067  156.4695 H   0  0  0  0  0  0  0  0  0  0  0  0
  152.7759  137.2764  156.2383 H   0  0  0  0  0  0  0  0  0  0  0  0
  152.9155  139.0439  154.1518 H   0  0  0  0  0  0  0  0  0  0  0  0
  151.5728  137.8993  154.2542 H   0  0  0  0  0  0  0  0  0  0  0  0
  149.5596  138.6947  155.6625 H   0  0  0  0  0  0  0  0  0  0  0  0
  149.7884  140.2327  156.4774 H   0  0  0  0  0  0  0  0  0  0  0  0
  1  2  1  0  0  0  0
  1 17  1  0  0  0  0
  1 18  1  0  0  0  0
  1 19  1  0  0  0  0
  2 16  1  0  0  0  0
  2  3  2  0  0  0  0
  3  4  1  0  0  0  0
  4  5  2  0  0  0  0
  5  6  1  0  0  0  0
  5 16  1  0  0  0  0
  6  7  1  0  0  0  0
  7  8  2  0  0  0  0
  7  9  1  0  0  0  0
  9 10  1  0  0  0  0
  9 20  1  0  0  0  0
 10 15  1  0  0  0  0
 10 11  1  0  0  0  0
 10 12  1  0  0  0  0
 11 21  1  0  0  0  0
 11 22  1  0  0  0  0
 11 23  1  0  0  0  0
 12 13  1  0  0  0  0
 12 24  1  0  0  0  0
 12 25  1  0  0  0  0
 13 14  1  0  0  0  0
 13 26  1  0  0  0  0
 13 27  1  0  0  0  0
 14 15  1  0  0  0  0
 15 28  1  0  0  0  0
 15 29  1  0  0  0  0
M  CHG  1   6  -1
M  END
> <s_m_source_file>
AV-unprocessed.smi

> <i_m_source_file_index>
2831

> <i_lp_mmshare_version>
43012

> <i_f3d_flags>
0

> <s_epik_input>
W0NIM11jMW5uYyhzMSlbTkhdQyg9TylbTkhdW0NAQF0yKFtDSDNdKVtDSDJdW0NIMl1PW0NIMl0y

> <s_epik_cmdline>
J2VwaWtfcHl0aG9uJywgJy1waCcsICc3LjAnLCAnLXRuJywgJzgnLCAnLW1hJywgJzIwMCcsICctbWV0YWxfYmluZGluZycsICctaW1hZScsICc8aW5maWxlLm1hZT4nLCAnLW9tYWUnLCAnPG91dGZpbGUubWFlPic=

> <r_lp_tautomer_probability>
1

> <r_epik_Ionization_Penalty>
3.33648

> <r_epik_Ionization_Penalty_Charging>
3.18522

> <r_epik_Ionization_Penalty_Neutral>
0.151254

> <r_epik_State_Penalty>
3.18248

> <r_epik_Charging_Adjusted_Penalty>
6.3677

> <i_epik_Tot_Q>
-1

> <i_epik_Tot_abs_Q>
1

> <r_epik_Metal_State_Penalty>
0.469716

> <b_epik_Metal_Only>
1

> <s_lp_Force_Field>
OPLS_2005

> <r_lp_Energy>
14.581

> <b_lp_Chiralities_Consistent>
1

> <s_lp_Variant>
AV-unprocessed.smi:2831-3

> <Gold.Version>
5.8.1

> <Gold.Id.Protein>
6NUR|6NUR_protein|mol2

> <Gold.PLP.Fitness>
37.0325

> <Gold.PLP.PLP>
-24.7287

> <Gold.PLP.part.hbond>
-5.7037

> <Gold.PLP.part.metal>
0.0000

> <Gold.PLP.part.buried>
-4.2577

> <Gold.PLP.part.nonpolar>
-16.4646

> <Gold.PLP.part.repulsive>
0.1071

> <Gold.PLP.ligand.clash>
0.0000

> <Gold.PLP.ligand.torsion>
0.0542

> <Gold.PLP.Chemscore.Hbond>
4.1348

> <Gold.PLP.Chemscore.CHOScore>
0.0000

> <Gold.PLP.Chemscore.Metal>
0.0000

> <Gold.Chemscore.Hbonds>
donor molecule, donor type, donor heavy atom, donor atom, acceptor molecule, acceptor atom, score
      P1  H  6896  6907       L1     6  1.27
      P1  H  6931  6943       L1     4  0.57
      P1  H  6934  6947       L1     4  0.31
      P1  H  7989  7998       L1    14  0.90

> <Gold.PLP.Chemscore.Internal.Correction>
0.0077

> <Gold.Rescore>
     Score         DG    S(hbond)    S(metal)    S(lipo)     H(rot)  DE(clash)    DE(int)     intcor
     12.23     -14.12       1.72        0.00      46.66       1.00       0.12       1.77       ----

> <Gold.Chemscore.Fitness>
12.2278

> <Gold.Chemscore.DG>
-14.1207

> <Gold.Chemscore.ZeroCoef>
-5.4800

> <Gold.Chemscore.Hbond>
1.7190

> <Gold.Chemscore.Metal>
0.0000

> <Gold.Chemscore.Lipo>
46.6599

> <Gold.Chemscore.Internal_Hbond>
0.0000

> <Gold.Chemscore.DEClash>
0.1214

> <Gold.Chemscore.DEInternal>
1.7714

> <Gold.Chemscore.Rot>
1.0000

> <Gold.Chemscore.Internal.Correction>
   9.000000E+99

> <Gold.Chemscore.Hbonds>
donor molecule, donor type, donor heavy atom, donor atom, acceptor molecule, acceptor atom, score
      P1  H  6896  6907       L1     6  0.19
      P1  H  6931  6943       L1     4  0.17
      P1  H  6934  6947       L1     4  0.01
      P1  H  7989  7998       L1    14  0.18

> <Gold.Chemscore.Hbond.Weighted>
-5.7415

> <Gold.Chemscore.Metal.Weighted>
-0.0000

> <Gold.Chemscore.Lipo.Weighted>
-5.4592

> <Gold.Chemscore.Internal_Hbond.Weighted>
0.0000

> <Gold.Chemscore.DEClash.Weighted>
0.1214

> <Gold.Chemscore.DEInternal.Weighted>
1.7714

> <Gold.Chemscore.Rot.Weighted>
2.5600

> <Gold.Chemscore.Internal.Correction.Weighted>
   9.000000E+99

> <Gold.Protein.RotatedTorsions>
[ 6907 6896 6895 6894 ] final  -46.92 input  -60.11 | X-H torsion
[ 7974 7965 7964 7962 ] final  129.10 input  175.53 | X-H torsion
[ 8008 7997 7996 7995 ] final -137.33 input   59.86 | X-H torsion
[ 10167 10162 10161 10158 ] final  163.16 input  -65.29 | X-H torsion
[ 10718 10713 10712 10709 ] final   30.86 input   66.30 | X-H torsion
[ 10763 10752 10751 10750 ] final   51.18 input  -60.55 | X-H torsion
[ 11005 11000 10999 10996 ] final  -58.46 input  -57.11 | X-H torsion

> <Gold.Protein.ActiveResidues>
 VAL166  LYS551  ARG553  GLY616  TRP617  ASP618  TYR619  PRO620  LYS621  CYS622 
 ASP623  PHE694  ASN695  SER759  ASP760  ASP761  ALA762  ILE779  LEU786  VAL792 
 PHE793  MET794  SER795  GLU796  ALA797  LYS798  CYS799  TRP800  GLU811  SER814 

> <Gold.Protein.RotatedAtoms>
  150.9062  134.8477  159.7393 H   0  0  0  0  0  0  0  0  0  0  0  0  # atno 6907 bound_to 6896
  152.4920  134.4427  159.9559 H   0  0  0  0  0  0  0  0  0  0  0  0  # atno 6908 bound_to 6896
  151.4474  133.3587  159.2825 H   0  0  0  0  0  0  0  0  0  0  0  0  # atno 6909 bound_to 6896
  145.0323  139.4035  143.5143 H   0  0  0  0  0  0  0  0  0  0  0  0  # atno 7974 bound_to 7965
  155.4099  140.0511  157.3032 H   0  0  0  0  0  0  0  0  0  0  0  0  # atno 8008 bound_to 7997
  154.4951  140.2135  155.9425 H   0  0  0  0  0  0  0  0  0  0  0  0  # atno 8009 bound_to 7997
  156.1394  140.3157  155.8477 H   0  0  0  0  0  0  0  0  0  0  0  0  # atno 8010 bound_to 7997
  139.4870  144.4365  151.9005 H   0  0  0  0  0  0  0  0  0  0  0  0  # atno 10167 bound_to 10162
  157.2650  130.7180  149.6474 H   0  0  0  0  0  0  0  0  0  0  0  0  # atno 10718 bound_to 10713
  152.9785  135.5854  154.4373 H   0  0  0  0  0  0  0  0  0  0  0  0  # atno 10763 bound_to 10752
  154.3979  135.2768  155.2117 H   0  0  0  0  0  0  0  0  0  0  0  0  # atno 10764 bound_to 10752
  154.3960  135.6114  153.5924 H   0  0  0  0  0  0  0  0  0  0  0  0  # atno 10765 bound_to 10752
  141.1208  133.6612  156.4924 H   0  0  0  0  0  0  0  0  0  0  0  0  # atno 11005 bound_to 11000
  146.3500  139.9880  142.8688 LP  0  0  0  0  0  0  0  0  0  0  0  0  # atno 17320 bound_to 7965
  145.1754  140.9741  143.4297 LP  0  0  0  0  0  0  0  0  0  0  0  0  # atno 17321 bound_to 7965
  140.3815  144.2730  150.5908 LP  0  0  0  0  0  0  0  0  0  0  0  0  # atno 17342 bound_to 10162
  140.5229  143.2261  151.8360 LP  0  0  0  0  0  0  0  0  0  0  0  0  # atno 17343 bound_to 10162
  155.9663  130.4385  150.5221 LP  0  0  0  0  0  0  0  0  0  0  0  0  # atno 17370 bound_to 10713
  157.3134  131.0668  151.1984 LP  0  0  0  0  0  0  0  0  0  0  0  0  # atno 17371 bound_to 10713
  140.4512  134.6926  157.5040 LP  0  0  0  0  0  0  0  0  0  0  0  0  # atno 17394 bound_to 11000
  140.0164  134.6613  155.9303 LP  0  0  0  0  0  0  0  0  0  0  0  0  # atno 17395 bound_to 11000

$$$$
