AV-unprocessed.smi:3200|AV-procd|sdf|12236|dock1
  -GOLD-   2272018 73D 1   1.00000     0.00000
 Structure written by MMmdl.
 38 39  0  0  0  0  0  0  0  0  2 V2000
  147.1070  142.2419  154.4420 C   0  0  0  0  0  0  0  0  0  0  0  0
  148.4079  141.5300  154.5951 C   0  0  0  0  0  0  0  0  0  0  0  0
  149.0145  140.9690  153.5560 N   0  0  0  0  0  0  0  0  0  0  0  0
  150.1791  140.4247  154.1159 O   0  0  0  0  0  0  0  0  0  0  0  0
  150.1198  140.7092  155.4388 C   0  0  0  0  0  0  0  0  0  0  0  0
  151.2563  140.3026  156.3153 C   0  0  0  0  0  0  0  0  0  0  0  0
  151.0475  140.7285  157.7736 C   0  0  0  0  0  0  0  0  0  0  0  0
  151.4631  142.1304  157.9815 N   0  3  0  0  0  0  0  0  0  0  0  0
  151.5518  142.5475  159.3989 C   0  0  1  0  0  0  0  0  0  0  0  0
  152.7526  141.9417  160.1403 C   0  0  0  0  0  0  0  0  0  0  0  0
  153.0770  142.9268  161.2709 C   0  0  0  0  0  0  0  0  0  0  0  0
  152.1846  144.1556  161.0422 C   0  0  0  0  0  0  0  0  0  0  0  0
  151.6951  144.0734  159.5851 C   0  0  0  0  0  0  0  0  0  0  0  0
  152.7495  144.6978  158.6414 C   0  0  0  0  0  0  0  0  0  0  0  0
  150.3498  144.8023  159.4092 C   0  0  0  0  0  0  0  0  0  0  0  0
  149.0472  141.4130  155.7914 N   0  0  0  0  0  0  0  0  0  0  0  0
  146.9604  142.5644  153.4106 H   0  0  0  0  0  0  0  0  0  0  0  0
  147.0778  143.1232  155.0834 H   0  0  0  0  0  0  0  0  0  0  0  0
  146.2838  141.5835  154.7201 H   0  0  0  0  0  0  0  0  0  0  0  0
  151.3731  139.2200  156.2521 H   0  0  0  0  0  0  0  0  0  0  0  0
  152.1738  140.7411  155.9207 H   0  0  0  0  0  0  0  0  0  0  0  0
  149.9967  140.6201  158.0465 H   0  0  0  0  0  0  0  0  0  0  0  0
  151.6214  140.0760  158.4327 H   0  0  0  0  0  0  0  0  0  0  0  0
  152.3631  142.2759  157.5466 H   0  0  0  0  0  0  0  0  0  0  0  0
  150.6410  142.2250  159.9076 H   0  0  0  0  0  0  0  0  0  0  0  0
  152.5366  140.9423  160.5196 H   0  0  0  0  0  0  0  0  0  0  0  0
  153.6128  141.8578  159.4746 H   0  0  0  0  0  0  0  0  0  0  0  0
  152.8907  142.4888  162.2521 H   0  0  0  0  0  0  0  0  0  0  0  0
  154.1310  143.2042  161.2334 H   0  0  0  0  0  0  0  0  0  0  0  0
  151.3336  144.0968  161.7224 H   0  0  0  0  0  0  0  0  0  0  0  0
  152.7012  145.0900  161.2649 H   0  0  0  0  0  0  0  0  0  0  0  0
  152.9107  145.7501  158.8776 H   0  0  0  0  0  0  0  0  0  0  0  0
  152.4356  144.6503  157.5984 H   0  0  0  0  0  0  0  0  0  0  0  0
  153.7158  144.1990  158.7171 H   0  0  0  0  0  0  0  0  0  0  0  0
  150.4459  145.8646  159.6367 H   0  0  0  0  0  0  0  0  0  0  0  0
  149.5815  144.3955  160.0679 H   0  0  0  0  0  0  0  0  0  0  0  0
  149.9836  144.7162  158.3858 H   0  0  0  0  0  0  0  0  0  0  0  0
  150.7862  142.7254  157.5252 H   0  0  0  0  0  0  0  0  0  0  0  0
  1  2  1  0  0  0  0
  1 17  1  0  0  0  0
  1 18  1  0  0  0  0
  1 19  1  0  0  0  0
  2 16  1  0  0  0  0
  2  3  2  0  0  0  0
  3  4  1  0  0  0  0
  4  5  1  0  0  0  0
  5  6  1  0  0  0  0
  5 16  2  0  0  0  0
  6  7  1  0  0  0  0
  6 20  1  0  0  0  0
  6 21  1  0  0  0  0
  7  8  1  0  0  0  0
  7 22  1  0  0  0  0
  7 23  1  0  0  0  0
  8  9  1  0  0  0  0
  8 24  1  0  0  0  0
  8 38  1  0  0  0  0
  9 13  1  0  0  0  0
  9 10  1  0  0  0  0
  9 25  1  0  0  0  0
 10 11  1  0  0  0  0
 10 26  1  0  0  0  0
 10 27  1  0  0  0  0
 11 12  1  0  0  0  0
 11 28  1  0  0  0  0
 11 29  1  0  0  0  0
 12 13  1  0  0  0  0
 12 30  1  0  0  0  0
 12 31  1  0  0  0  0
 13 14  1  0  0  0  0
 13 15  1  0  0  0  0
 14 32  1  0  0  0  0
 14 33  1  0  0  0  0
 14 34  1  0  0  0  0
 15 35  1  0  0  0  0
 15 36  1  0  0  0  0
 15 37  1  0  0  0  0
M  CHG  1   8   1
M  END
> <s_m_source_file>
AV-unprocessed.smi

> <i_m_source_file_index>
3200

> <i_lp_mmshare_version>
43012

> <i_f3d_flags>
0

> <s_epik_input>
W0NIM11jMW5vYyhuMSlbQ0gyXVtDSDJdW05IXVtDQEBIXShDMihbQ0gzXSlbQ0gzXSlbQ0gyXVtDSDJdW0NIMl0y

> <s_epik_cmdline>
J2VwaWtfcHl0aG9uJywgJy1waCcsICc3LjAnLCAnLXRuJywgJzgnLCAnLW1hJywgJzIwMCcsICctbWV0YWxfYmluZGluZycsICctaW1hZScsICc8aW5maWxlLm1hZT4nLCAnLW9tYWUnLCAnPG91dGZpbGUubWFlPic=

> <r_lp_tautomer_probability>
1

> <r_epik_Ionization_Penalty>
0.000953161

> <r_epik_Ionization_Penalty_Charging>
0.000953161

> <r_epik_Ionization_Penalty_Neutral>
4.23223e-13

> <r_epik_State_Penalty>
0.000619331

> <r_epik_Charging_Adjusted_Penalty>
0.00157249

> <i_epik_Tot_Q>
1

> <i_epik_Tot_abs_Q>
1

> <r_epik_Metal_State_Penalty>
-0

> <b_epik_Metal_Only>
0

> <s_lp_Force_Field>
OPLS_2005

> <r_lp_Energy>
25.6419

> <b_lp_Chiralities_Consistent>
1

> <s_lp_Variant>
AV-unprocessed.smi:3200-2

> <Gold.Version>
5.8.1

> <Gold.Id.Protein>
6NUR|6NUR_protein|mol2

> <Gold.PLP.Fitness>
42.3609

> <Gold.PLP.PLP>
-37.2751

> <Gold.PLP.part.hbond>
-2.5224

> <Gold.PLP.part.metal>
0.0000

> <Gold.PLP.part.buried>
-5.7731

> <Gold.PLP.part.nonpolar>
-32.1803

> <Gold.PLP.part.repulsive>
4.1990

> <Gold.PLP.ligand.clash>
0.0000

> <Gold.PLP.ligand.torsion>
0.2369

> <Gold.PLP.Chemscore.Hbond>
1.8320

> <Gold.PLP.Chemscore.CHOScore>
0.0000

> <Gold.PLP.Chemscore.Metal>
0.0000

> <Gold.Chemscore.Hbonds>
donor molecule, donor type, donor heavy atom, donor atom, acceptor molecule, acceptor atom, score
      P1  H  7989  7998       L1     4  0.85
      P1  H  8011  8017       L1     3  0.96

> <Gold.PLP.Chemscore.Internal.Correction>
0.0637

> <Gold.Rescore>
     Score         DG    S(hbond)    S(metal)    S(lipo)     H(rot)  DE(clash)    DE(int)     intcor
     14.17     -14.42       0.82        0.00      92.17       1.79       0.05       0.20       ----

> <Gold.Chemscore.Fitness>
14.1677

> <Gold.Chemscore.DG>
-14.4164

> <Gold.Chemscore.ZeroCoef>
-5.4800

> <Gold.Chemscore.Hbond>
0.8169

> <Gold.Chemscore.Metal>
0.0000

> <Gold.Chemscore.Lipo>
92.1660

> <Gold.Chemscore.Internal_Hbond>
0.0000

> <Gold.Chemscore.DEClash>
0.0528

> <Gold.Chemscore.DEInternal>
0.1959

> <Gold.Chemscore.Rot>
1.7872

> <Gold.Chemscore.Internal.Correction>
   9.000000E+99

> <Gold.Chemscore.Hbonds>
donor molecule, donor type, donor heavy atom, donor atom, acceptor molecule, acceptor atom, score
      P1  H  7989  7998       L1     4  0.61
      P1  H  8011  8017       L1     3  0.20

> <Gold.Chemscore.Hbond.Weighted>
-2.7283

> <Gold.Chemscore.Metal.Weighted>
-0.0000

> <Gold.Chemscore.Lipo.Weighted>
-10.7834

> <Gold.Chemscore.Internal_Hbond.Weighted>
0.0000

> <Gold.Chemscore.DEClash.Weighted>
0.0528

> <Gold.Chemscore.DEInternal.Weighted>
0.1959

> <Gold.Chemscore.Rot.Weighted>
4.5753

> <Gold.Chemscore.Internal.Correction.Weighted>
   9.000000E+99

> <Gold.Protein.RotatedTorsions>
[ 6907 6896 6895 6894 ] final   69.69 input  -60.11 | X-H torsion
[ 7974 7965 7964 7962 ] final -152.25 input  175.53 | X-H torsion
[ 8008 7997 7996 7995 ] final -106.65 input   59.86 | X-H torsion
[ 10167 10162 10161 10158 ] final   58.30 input  -65.29 | X-H torsion
[ 10718 10713 10712 10709 ] final   39.63 input   66.30 | X-H torsion
[ 10763 10752 10751 10750 ] final -178.25 input  -60.55 | X-H torsion
[ 11005 11000 10999 10996 ] final -125.62 input  -57.11 | X-H torsion

> <Gold.Protein.ActiveResidues>
 VAL166  LYS551  ARG553  GLY616  TRP617  ASP618  TYR619  PRO620  LYS621  CYS622 
 ASP623  PHE694  ASN695  SER759  ASP760  ASP761  ALA762  ILE779  LEU786  VAL792 
 PHE793  MET794  SER795  GLU796  ALA797  LYS798  CYS799  TRP800  GLU811  SER814 

> <Gold.Protein.RotatedAtoms>
  152.4702  134.4978  159.9714 H   0  0  0  0  0  0  0  0  0  0  0  0  # atno 6907 bound_to 6896
  151.5006  133.3499  159.2876 H   0  0  0  0  0  0  0  0  0  0  0  0  # atno 6908 bound_to 6896
  150.8708  134.8110  159.7215 H   0  0  0  0  0  0  0  0  0  0  0  0  # atno 6909 bound_to 6896
  144.7805  140.4688  143.5843 H   0  0  0  0  0  0  0  0  0  0  0  0  # atno 7974 bound_to 7965
  154.9177  140.0408  157.1981 H   0  0  0  0  0  0  0  0  0  0  0  0  # atno 8008 bound_to 7997
  154.8285  140.2895  155.5717 H   0  0  0  0  0  0  0  0  0  0  0  0  # atno 8009 bound_to 7997
  156.2985  140.2505  156.3205 H   0  0  0  0  0  0  0  0  0  0  0  0  # atno 8010 bound_to 7997
  140.1887  144.4107  150.6581 H   0  0  0  0  0  0  0  0  0  0  0  0  # atno 10167 bound_to 10162
  157.3727  130.7710  149.7132 H   0  0  0  0  0  0  0  0  0  0  0  0  # atno 10718 bound_to 10713
  154.5500  135.2812  155.1017 H   0  0  0  0  0  0  0  0  0  0  0  0  # atno 10763 bound_to 10752
  154.2467  135.6347  153.5229 H   0  0  0  0  0  0  0  0  0  0  0  0  # atno 10764 bound_to 10752
  153.0000  135.5573  154.6063 H   0  0  0  0  0  0  0  0  0  0  0  0  # atno 10765 bound_to 10752
  140.9747  134.0757  157.3831 H   0  0  0  0  0  0  0  0  0  0  0  0  # atno 11005 bound_to 11000
  145.6065  139.1509  143.3100 LP  0  0  0  0  0  0  0  0  0  0  0  0  # atno 17320 bound_to 7965
  146.2010  140.6183  142.9102 LP  0  0  0  0  0  0  0  0  0  0  0  0  # atno 17321 bound_to 7965
  140.6470  143.2216  151.6163 LP  0  0  0  0  0  0  0  0  0  0  0  0  # atno 17342 bound_to 10162
  139.5265  144.3044  152.1046 LP  0  0  0  0  0  0  0  0  0  0  0  0  # atno 17343 bound_to 10162
  155.9759  130.4083  150.3817 LP  0  0  0  0  0  0  0  0  0  0  0  0  # atno 17370 bound_to 10713
  157.1911  131.0415  151.2700 LP  0  0  0  0  0  0  0  0  0  0  0  0  # atno 17371 bound_to 10713
  139.8926  135.0125  156.6853 LP  0  0  0  0  0  0  0  0  0  0  0  0  # atno 17394 bound_to 11000
  140.7277  133.9086  155.8189 LP  0  0  0  0  0  0  0  0  0  0  0  0  # atno 17395 bound_to 11000

$$$$
