AV-unprocessed.smi:2471|AV-procd|sdf|9737|dock6
  -GOLD-   2272013373D 1   1.00000     0.00000
 Structure written by MMmdl.
 40 41  0  0  0  0  0  0  0  0  1 V2000
  152.7861  142.2768  161.6170 C   0  0  0  0  0  0  0  0  0  0  0  0
  152.2042  143.2975  160.6619 C   0  0  0  0  0  0  0  0  0  0  0  0
  152.1800  144.6671  160.9910 C   0  0  0  0  0  0  0  0  0  0  0  0
  151.6309  145.5635  160.0570 C   0  0  0  0  0  0  0  0  0  0  0  0
  151.1311  145.0570  158.8415 C   0  0  0  0  0  0  0  0  0  0  0  0
  151.1903  143.6678  158.5904 C   0  0  0  0  0  0  0  0  0  0  0  0
  150.6575  143.2597  157.3388 N   0  0  0  0  0  0  0  0  0  0  0  0
  150.5792  142.0161  156.8331 C   0  0  0  0  0  0  0  0  0  0  0  0
  150.9633  140.9909  157.3970 O   0  0  0  0  0  0  0  0  0  0  0  0
  150.0193  142.0235  155.6148 N   0  0  0  0  0  0  0  0  0  0  0  0
  149.7812  140.8404  154.7932 C   0  0  0  0  0  0  0  0  0  0  0  0
  148.2822  140.6167  154.4772 C   0  0  2  0  0  0  0  0  0  0  0  0
  147.3820  141.0479  155.6590 C   0  0  0  0  0  0  0  0  0  0  0  0
  145.8927  140.8050  155.3708 C   0  0  0  0  0  0  0  0  0  0  0  0
  145.6309  139.3358  155.0138 C   0  0  0  0  0  0  0  0  0  0  0  0
  146.4968  138.9028  153.8230 C   0  0  0  0  0  0  0  0  0  0  0  0
  147.9929  139.1429  154.0988 C   0  0  1  0  0  0  0  0  0  0  0  0
  148.7112  138.7823  152.9358 O   0  0  0  0  0  0  0  0  0  0  0  0
  151.7244  142.8116  159.4970 N   0  0  0  0  0  0  0  0  0  0  0  0
  153.0345  142.7299  162.5772 H   0  0  0  0  0  0  0  0  0  0  0  0
  153.6947  141.8436  161.1981 H   0  0  0  0  0  0  0  0  0  0  0  0
  152.0723  141.4723  161.7960 H   0  0  0  0  0  0  0  0  0  0  0  0
  152.5722  145.0241  161.9321 H   0  0  0  0  0  0  0  0  0  0  0  0
  151.5935  146.6219  160.2677 H   0  0  0  0  0  0  0  0  0  0  0  0
  150.7060  145.7325  158.1133 H   0  0  0  0  0  0  0  0  0  0  0  0
  150.2902  144.0018  156.7621 H   0  0  0  0  0  0  0  0  0  0  0  0
  149.7346  142.9108  155.2265 H   0  0  0  0  0  0  0  0  0  0  0  0
  150.3631  140.9272  153.8742 H   0  0  0  0  0  0  0  0  0  0  0  0
  150.1810  139.9760  155.3241 H   0  0  0  0  0  0  0  0  0  0  0  0
  148.0184  141.2373  153.6191 H   0  0  0  0  0  0  0  0  0  0  0  0
  147.6697  140.5003  156.5576 H   0  0  0  0  0  0  0  0  0  0  0  0
  147.5273  142.1048  155.8835 H   0  0  0  0  0  0  0  0  0  0  0  0
  145.2957  141.0888  156.2379 H   0  0  0  0  0  0  0  0  0  0  0  0
  145.5699  141.4459  154.5495 H   0  0  0  0  0  0  0  0  0  0  0  0
  145.8478  138.7029  155.8752 H   0  0  0  0  0  0  0  0  0  0  0  0
  144.5757  139.1913  154.7801 H   0  0  0  0  0  0  0  0  0  0  0  0
  146.3207  137.8485  153.6060 H   0  0  0  0  0  0  0  0  0  0  0  0
  146.1893  139.4570  152.9347 H   0  0  0  0  0  0  0  0  0  0  0  0
  148.3159  138.4888  154.9099 H   0  0  0  0  0  0  0  0  0  0  0  0
  148.6415  137.8473  152.8174 H   0  0  0  0  0  0  0  0  0  0  0  0
  1  2  1  0  0  0  0
  1 20  1  0  0  0  0
  1 21  1  0  0  0  0
  1 22  1  0  0  0  0
  2 19  1  0  0  0  0
  2  3  2  0  0  0  0
  3  4  1  0  0  0  0
  3 23  1  0  0  0  0
  4  5  2  0  0  0  0
  4 24  1  0  0  0  0
  5  6  1  0  0  0  0
  5 25  1  0  0  0  0
  6  7  1  0  0  0  0
  6 19  2  0  0  0  0
  7  8  1  0  0  0  0
  7 26  1  0  0  0  0
  8  9  2  0  0  0  0
  8 10  1  0  0  0  0
 10 11  1  0  0  0  0
 10 27  1  0  0  0  0
 11 12  1  0  0  0  0
 11 28  1  0  0  0  0
 11 29  1  0  0  0  0
 12 17  1  0  0  0  0
 12 13  1  0  0  0  0
 12 30  1  0  0  0  0
 13 14  1  0  0  0  0
 13 31  1  0  0  0  0
 13 32  1  0  0  0  0
 14 15  1  0  0  0  0
 14 33  1  0  0  0  0
 14 34  1  0  0  0  0
 15 16  1  0  0  0  0
 15 35  1  0  0  0  0
 15 36  1  0  0  0  0
 16 17  1  0  0  0  0
 16 37  1  0  0  0  0
 16 38  1  0  0  0  0
 17 18  1  0  0  0  0
 17 39  1  0  0  0  0
 18 40  1  0  0  0  0
M  END
> <s_m_source_file>
AV-unprocessed.smi

> <i_m_source_file_index>
2471

> <i_lp_mmshare_version>
43012

> <i_f3d_flags>
0

> <s_epik_input>
W0NIM11jMVtjSF1bY0hdW2NIXWMobjEpW05IXUMoPU8pW05IXVtDSDJdW0NAQEhdMltDSDJdW0NIMl1bQ0gyXVtDSDJdW0NASF0yW09IXQ==

> <s_epik_cmdline>
J2VwaWtfcHl0aG9uJywgJy1waCcsICc3LjAnLCAnLXRuJywgJzgnLCAnLW1hJywgJzIwMCcsICctbWV0YWxfYmluZGluZycsICctaW1hZScsICc8aW5maWxlLm1hZT4nLCAnLW9tYWUnLCAnPG91dGZpbGUubWFlPic=

> <r_lp_tautomer_probability>
1

> <r_epik_Ionization_Penalty>
8.52237e-05

> <r_epik_Ionization_Penalty_Charging>
0

> <r_epik_Ionization_Penalty_Neutral>
8.52237e-05

> <r_epik_State_Penalty>
-0

> <r_epik_Charging_Adjusted_Penalty>
0

> <i_epik_Tot_Q>
0

> <i_epik_Tot_abs_Q>
0

> <r_epik_Metal_State_Penalty>
-0

> <b_epik_Metal_Only>
0

> <s_lp_Force_Field>
OPLS_2005

> <r_lp_Energy>
13.6744

> <b_lp_Chiralities_Consistent>
1

> <s_lp_Variant>
AV-unprocessed.smi:2471-1

> <Gold.Version>
5.8.1

> <Gold.Id.Protein>
6NUR|6NUR_protein|mol2

> <Gold.PLP.Fitness>
46.7402

> <Gold.PLP.PLP>
-38.4501

> <Gold.PLP.part.hbond>
-3.2959

> <Gold.PLP.part.metal>
0.0000

> <Gold.PLP.part.buried>
-5.6346

> <Gold.PLP.part.nonpolar>
-29.3080

> <Gold.PLP.part.repulsive>
0.1824

> <Gold.PLP.ligand.clash>
0.0000

> <Gold.PLP.ligand.torsion>
0.2496

> <Gold.PLP.Chemscore.Hbond>
2.9280

> <Gold.PLP.Chemscore.CHOScore>
0.0000

> <Gold.PLP.Chemscore.Metal>
0.0000

> <Gold.Chemscore.Hbonds>
donor molecule, donor type, donor heavy atom, donor atom, acceptor molecule, acceptor atom, score
      L1  H     7    26       P1  8028  1.00
      L1  H    10    27       P1  8028  0.89
      L1  H    18    40       P1  7948  1.00

> <Gold.PLP.Chemscore.Internal.Correction>
0.0053

> <Gold.Rescore>
     Score         DG    S(hbond)    S(metal)    S(lipo)     H(rot)  DE(clash)    DE(int)     intcor
     19.18     -20.77       2.93        0.00      84.97       1.73       0.14       1.45       ----

> <Gold.Chemscore.Fitness>
19.1764

> <Gold.Chemscore.DG>
-20.7684

> <Gold.Chemscore.ZeroCoef>
-5.4800

> <Gold.Chemscore.Hbond>
2.9297

> <Gold.Chemscore.Metal>
0.0000

> <Gold.Chemscore.Lipo>
84.9739

> <Gold.Chemscore.Internal_Hbond>
0.0000

> <Gold.Chemscore.DEClash>
0.1398

> <Gold.Chemscore.DEInternal>
1.4522

> <Gold.Chemscore.Rot>
1.7339

> <Gold.Chemscore.Internal.Correction>
   9.000000E+99

> <Gold.Chemscore.Hbonds>
donor molecule, donor type, donor heavy atom, donor atom, acceptor molecule, acceptor atom, score
      L1  H     7    26       P1  8028  0.95
      L1  H    10    27       P1  8028  0.81
      L1  H    18    40       P1  7948  0.96

> <Gold.Chemscore.Hbond.Weighted>
-9.7851

> <Gold.Chemscore.Metal.Weighted>
-0.0000

> <Gold.Chemscore.Lipo.Weighted>
-9.9419

> <Gold.Chemscore.Internal_Hbond.Weighted>
0.0000

> <Gold.Chemscore.DEClash.Weighted>
0.1398

> <Gold.Chemscore.DEInternal.Weighted>
1.4522

> <Gold.Chemscore.Rot.Weighted>
4.4387

> <Gold.Chemscore.Internal.Correction.Weighted>
   9.000000E+99

> <Gold.Protein.RotatedTorsions>
[ 6907 6896 6895 6894 ] final  -87.20 input  -60.11 | X-H torsion
[ 7974 7965 7964 7962 ] final  154.45 input  175.53 | X-H torsion
[ 8008 7997 7996 7995 ] final    0.42 input   59.86 | X-H torsion
[ 10167 10162 10161 10158 ] final  -52.84 input  -65.29 | X-H torsion
[ 10718 10713 10712 10709 ] final  133.02 input   66.30 | X-H torsion
[ 10763 10752 10751 10750 ] final  158.52 input  -60.55 | X-H torsion
[ 11005 11000 10999 10996 ] final  143.35 input  -57.11 | X-H torsion

> <Gold.Protein.ActiveResidues>
 VAL166  LYS551  ARG553  GLY616  TRP617  ASP618  TYR619  PRO620  LYS621  CYS622 
 ASP623  PHE694  ASN695  SER759  ASP760  ASP761  ALA762  ILE779  LEU786  VAL792 
 PHE793  MET794  SER795  GLU796  ALA797  LYS798  CYS799  TRP800  GLU811  SER814 

> <Gold.Protein.RotatedAtoms>
  150.6866  134.2934  159.4675 H   0  0  0  0  0  0  0  0  0  0  0  0  # atno 6907 bound_to 6896
  152.0836  134.9452  160.0582 H   0  0  0  0  0  0  0  0  0  0  0  0  # atno 6908 bound_to 6896
  152.0795  133.4111  159.4531 H   0  0  0  0  0  0  0  0  0  0  0  0  # atno 6909 bound_to 6896
  144.8088  139.6936  143.6150 H   0  0  0  0  0  0  0  0  0  0  0  0  # atno 7974 bound_to 7965
  154.6679  140.2605  155.7038 H   0  0  0  0  0  0  0  0  0  0  0  0  # atno 8008 bound_to 7997
  156.2646  140.2835  156.1098 H   0  0  0  0  0  0  0  0  0  0  0  0  # atno 8009 bound_to 7997
  155.1212  140.0377  157.2740 H   0  0  0  0  0  0  0  0  0  0  0  0  # atno 8010 bound_to 7997
  140.6516  143.2570  151.4705 H   0  0  0  0  0  0  0  0  0  0  0  0  # atno 10167 bound_to 10162
  157.4814  131.1086  150.9677 H   0  0  0  0  0  0  0  0  0  0  0  0  # atno 10718 bound_to 10713
  154.2174  135.2783  155.2937 H   0  0  0  0  0  0  0  0  0  0  0  0  # atno 10763 bound_to 10752
  154.5729  135.5613  153.7115 H   0  0  0  0  0  0  0  0  0  0  0  0  # atno 10764 bound_to 10752
  153.0049  135.6326  154.2314 H   0  0  0  0  0  0  0  0  0  0  0  0  # atno 10765 bound_to 10752
  140.0547  134.9237  157.1080 H   0  0  0  0  0  0  0  0  0  0  0  0  # atno 11005 bound_to 11000
  146.2383  139.5950  142.9508 LP  0  0  0  0  0  0  0  0  0  0  0  0  # atno 17320 bound_to 7965
  145.5374  141.0423  143.2349 LP  0  0  0  0  0  0  0  0  0  0  0  0  # atno 17321 bound_to 7965
  139.5732  144.1879  152.1867 LP  0  0  0  0  0  0  0  0  0  0  0  0  # atno 17342 bound_to 10162
  140.1181  144.5397  150.6880 LP  0  0  0  0  0  0  0  0  0  0  0  0  # atno 17343 bound_to 10162
  157.0409  130.5748  149.5356 LP  0  0  0  0  0  0  0  0  0  0  0  0  # atno 17370 bound_to 10713
  156.0123  130.5216  150.8028 LP  0  0  0  0  0  0  0  0  0  0  0  0  # atno 17371 bound_to 10713
  140.3862  134.2234  155.7168 LP  0  0  0  0  0  0  0  0  0  0  0  0  # atno 17394 bound_to 11000
  141.1947  133.8123  157.0748 LP  0  0  0  0  0  0  0  0  0  0  0  0  # atno 17395 bound_to 11000

$$$$
