AV-unprocessed.smi:2134|AV-procd|sdf|8695|dock1
  -GOLD-   2272011453D 1   1.00000     0.00000
 Structure written by MMmdl.
 36 37  0  0  0  0  0  0  0  0  2 V2000
  150.3548  130.4894  155.7220 C   0  0  0  0  0  0  0  0  0  0  0  0
  149.8564  131.6552  154.9950 N   0  0  0  0  0  0  0  0  0  0  0  0
  150.4798  132.8449  155.3109 N   0  0  0  0  0  0  0  0  0  0  0  0
  150.0105  133.9907  154.9273 C   0  0  0  0  0  0  0  0  0  0  0  0
  150.7071  135.2462  155.3136 C   0  0  0  0  0  0  0  0  0  0  0  0
  151.4026  135.2991  156.3285 O   0  0  0  0  0  0  0  0  0  0  0  0
  150.5413  136.2920  154.4818 N   0  0  0  0  0  0  0  0  0  0  0  0
  151.1613  137.6066  154.6298 C   0  0  0  0  0  0  0  0  0  0  0  0
  150.2139  138.7499  154.2175 C   0  0  0  0  0  0  0  0  0  0  0  0
  150.2605  139.9464  155.1525 C   0  0  0  0  0  0  0  0  0  0  0  0
  151.1163  139.9516  156.2767 C   0  0  0  0  0  0  0  0  0  0  0  0
  151.1130  141.0644  157.1431 C   0  0  0  0  0  0  0  0  0  0  0  0
  150.2547  142.1477  156.8654 C   0  0  0  0  0  0  0  0  0  0  0  0
  149.4524  142.1088  155.7791 N   0  3  0  0  0  0  0  0  0  0  0  0
  149.4271  141.0628  154.9245 C   0  0  0  0  0  0  0  0  0  0  0  0
  148.7324  134.0684  154.1164 C   0  0  0  0  0  0  0  0  0  0  0  0
  148.4863  132.7858  153.2974 C   0  0  0  0  0  0  0  0  0  0  0  0
  148.8745  131.5211  154.0689 C   0  0  0  0  0  0  0  0  0  0  0  0
  148.3167  130.4541  153.8129 O   0  0  0  0  0  0  0  0  0  0  0  0
  150.7656  129.7523  155.0308 H   0  0  0  0  0  0  0  0  0  0  0  0
  149.5508  130.0160  156.2874 H   0  0  0  0  0  0  0  0  0  0  0  0
  151.1435  130.7530  156.4285 H   0  0  0  0  0  0  0  0  0  0  0  0
  149.9470  136.1587  153.6758 H   0  0  0  0  0  0  0  0  0  0  0  0
  151.4465  137.7298  155.6748 H   0  0  0  0  0  0  0  0  0  0  0  0
  152.0883  137.6603  154.0564 H   0  0  0  0  0  0  0  0  0  0  0  0
  150.4548  139.0771  153.2051 H   0  0  0  0  0  0  0  0  0  0  0  0
  149.1890  138.3789  154.1786 H   0  0  0  0  0  0  0  0  0  0  0  0
  151.7608  139.1092  156.4810 H   0  0  0  0  0  0  0  0  0  0  0  0
  151.7571  141.0846  158.0100 H   0  0  0  0  0  0  0  0  0  0  0  0
  150.1853  143.0366  157.4752 H   0  0  0  0  0  0  0  0  0  0  0  0
  148.7362  141.1442  154.0979 H   0  0  0  0  0  0  0  0  0  0  0  0
  147.8918  134.2485  154.7874 H   0  0  0  0  0  0  0  0  0  0  0  0
  148.7642  134.9153  153.4295 H   0  0  0  0  0  0  0  0  0  0  0  0
  147.4431  132.7295  152.9844 H   0  0  0  0  0  0  0  0  0  0  0  0
  149.0864  132.8112  152.3872 H   0  0  0  0  0  0  0  0  0  0  0  0
  148.8364  142.9018  155.5976 H   0  0  0  0  0  0  0  0  0  0  0  0
  1  2  1  0  0  0  0
  1 20  1  0  0  0  0
  1 21  1  0  0  0  0
  1 22  1  0  0  0  0
  2 18  1  0  0  0  0
  2  3  1  0  0  0  0
  3  4  2  0  0  0  0
  4  5  1  0  0  0  0
  4 16  1  0  0  0  0
  5  6  2  0  0  0  0
  5  7  1  0  0  0  0
  7  8  1  0  0  0  0
  7 23  1  0  0  0  0
  8  9  1  0  0  0  0
  8 24  1  0  0  0  0
  8 25  1  0  0  0  0
  9 10  1  0  0  0  0
  9 26  1  0  0  0  0
  9 27  1  0  0  0  0
 10 15  1  0  0  0  0
 10 11  2  0  0  0  0
 11 12  1  0  0  0  0
 11 28  1  0  0  0  0
 12 13  2  0  0  0  0
 12 29  1  0  0  0  0
 13 14  1  0  0  0  0
 13 30  1  0  0  0  0
 14 15  2  0  0  0  0
 14 36  1  0  0  0  0
 15 31  1  0  0  0  0
 16 17  1  0  0  0  0
 16 32  1  0  0  0  0
 16 33  1  0  0  0  0
 17 18  1  0  0  0  0
 17 34  1  0  0  0  0
 17 35  1  0  0  0  0
 18 19  2  0  0  0  0
M  CHG  1  14   1
M  END
> <s_m_source_file>
AV-unprocessed.smi

> <i_m_source_file_index>
2134

> <i_lp_mmshare_version>
43012

> <i_f3d_flags>
0

> <s_epik_input>
Tz1DMVtDSDJdW0NIMl1DKD1OTjFbQ0gzXSlDKD1PKVtOSF1bQ0gyXVtDSDJdYzJbY0hdW2NIXVtjSF1uW2NIXTI=

> <s_epik_cmdline>
J2VwaWtfcHl0aG9uJywgJy1waCcsICc3LjAnLCAnLXRuJywgJzgnLCAnLW1hJywgJzIwMCcsICctbWV0YWxfYmluZGluZycsICctaW1hZScsICc8aW5maWxlLm1hZT4nLCAnLW9tYWUnLCAnPG91dGZpbGUubWFlPic=

> <r_epik_Ionization_Penalty>
2.46483

> <r_epik_Ionization_Penalty_Charging>
2.46471

> <r_epik_Ionization_Penalty_Neutral>
0.00011851

> <r_epik_State_Penalty>
2.62717

> <r_epik_Charging_Adjusted_Penalty>
5.09187

> <i_epik_Tot_Q>
1

> <i_epik_Tot_abs_Q>
1

> <r_epik_Metal_State_Penalty>
2.80118

> <b_epik_Metal_Only>
0

> <s_epik_Chemistry_Notes>
This compound has an imine and may undergo hydrolysis.

> <s_lp_Force_Field>
OPLS_2005

> <r_lp_Energy>
23.6794

> <b_lp_Chiralities_Consistent>
1

> <s_lp_Variant>
AV-unprocessed.smi:2134-2

> <Gold.Version>
5.8.1

> <Gold.Id.Protein>
6NUR|6NUR_protein|mol2

> <Gold.PLP.Fitness>
46.9555

> <Gold.PLP.PLP>
-36.4446

> <Gold.PLP.part.hbond>
-4.0000

> <Gold.PLP.part.metal>
0.0000

> <Gold.PLP.part.buried>
-1.5600

> <Gold.PLP.part.nonpolar>
-31.3012

> <Gold.PLP.part.repulsive>
0.2999

> <Gold.PLP.ligand.clash>
0.0000

> <Gold.PLP.ligand.torsion>
0.7684

> <Gold.PLP.Chemscore.Hbond>
4.0000

> <Gold.PLP.Chemscore.CHOScore>
0.0000

> <Gold.PLP.Chemscore.Metal>
0.0000

> <Gold.Chemscore.Hbonds>
donor molecule, donor type, donor heavy atom, donor atom, acceptor molecule, acceptor atom, score
      L1  H     7    23       P1  7948  0.80
      L1  H    14    36       P1  8028  1.60
      P1  H 10752 10763       L1     6  0.36

> <Gold.PLP.Chemscore.Internal.Correction>
0.0477

> <Gold.Rescore>
     Score         DG    S(hbond)    S(metal)    S(lipo)     H(rot)  DE(clash)    DE(int)     intcor
     17.04     -18.01       2.56        0.00      67.23       1.52       0.07       0.90       ----

> <Gold.Chemscore.Fitness>
17.0430

> <Gold.Chemscore.DG>
-18.0098

> <Gold.Chemscore.ZeroCoef>
-5.4800

> <Gold.Chemscore.Hbond>
2.5580

> <Gold.Chemscore.Metal>
0.0000

> <Gold.Chemscore.Lipo>
67.2329

> <Gold.Chemscore.Internal_Hbond>
0.0000

> <Gold.Chemscore.DEClash>
0.0708

> <Gold.Chemscore.DEInternal>
0.8960

> <Gold.Chemscore.Rot>
1.5157

> <Gold.Chemscore.Internal.Correction>
   9.000000E+99

> <Gold.Chemscore.Hbonds>
donor molecule, donor type, donor heavy atom, donor atom, acceptor molecule, acceptor atom, score
      L1  H     7    23       P1  7948  0.11
      L1  H    14    36       P1  8028  0.80
      P1  H 10752 10763       L1     6  0.02

> <Gold.Chemscore.Hbond.Weighted>
-8.5436

> <Gold.Chemscore.Metal.Weighted>
-0.0000

> <Gold.Chemscore.Lipo.Weighted>
-7.8662

> <Gold.Chemscore.Internal_Hbond.Weighted>
0.0000

> <Gold.Chemscore.DEClash.Weighted>
0.0708

> <Gold.Chemscore.DEInternal.Weighted>
0.8960

> <Gold.Chemscore.Rot.Weighted>
3.8801

> <Gold.Chemscore.Internal.Correction.Weighted>
   9.000000E+99

> <Gold.Protein.RotatedTorsions>
[ 6907 6896 6895 6894 ] final  122.15 input  -60.11 | X-H torsion
[ 7974 7965 7964 7962 ] final   -9.91 input  175.53 | X-H torsion
[ 8008 7997 7996 7995 ] final   86.10 input   59.86 | X-H torsion
[ 10167 10162 10161 10158 ] final   75.62 input  -65.29 | X-H torsion
[ 10718 10713 10712 10709 ] final -160.80 input   66.30 | X-H torsion
[ 10763 10752 10751 10750 ] final   97.30 input  -60.55 | X-H torsion
[ 11005 11000 10999 10996 ] final -123.90 input  -57.11 | X-H torsion

> <Gold.Protein.ActiveResidues>
 VAL166  LYS551  ARG553  GLY616  TRP617  ASP618  TYR619  PRO620  LYS621  CYS622 
 ASP623  PHE694  ASN695  SER759  ASP760  ASP761  ALA762  ILE779  LEU786  VAL792 
 PHE793  MET794  SER795  GLU796  ALA797  LYS798  CYS799  TRP800  GLU811  SER814 

> <Gold.Protein.RotatedAtoms>
  152.4266  133.7205  159.6530 H   0  0  0  0  0  0  0  0  0  0  0  0  # atno 6907 bound_to 6896
  150.8142  133.8356  159.3174 H   0  0  0  0  0  0  0  0  0  0  0  0  # atno 6908 bound_to 6896
  151.6057  135.1046  160.0121 H   0  0  0  0  0  0  0  0  0  0  0  0  # atno 6909 bound_to 6896
  146.2237  140.2686  142.8355 H   0  0  0  0  0  0  0  0  0  0  0  0  # atno 7974 bound_to 7965
  155.9585  140.3395  155.6470 H   0  0  0  0  0  0  0  0  0  0  0  0  # atno 8008 bound_to 7997
  155.6828  140.0740  157.2496 H   0  0  0  0  0  0  0  0  0  0  0  0  # atno 8009 bound_to 7997
  154.4138  140.1671  156.1989 H   0  0  0  0  0  0  0  0  0  0  0  0  # atno 8010 bound_to 7997
  140.0011  144.5686  150.7737 H   0  0  0  0  0  0  0  0  0  0  0  0  # atno 10167 bound_to 10162
  156.5873  130.8755  151.2880 H   0  0  0  0  0  0  0  0  0  0  0  0  # atno 10718 bound_to 10713
  153.2753  135.4188  155.1027 H   0  0  0  0  0  0  0  0  0  0  0  0  # atno 10763 bound_to 10752
  154.8470  135.3482  154.6187 H   0  0  0  0  0  0  0  0  0  0  0  0  # atno 10764 bound_to 10752
  153.6607  135.7048  153.5236 H   0  0  0  0  0  0  0  0  0  0  0  0  # atno 10765 bound_to 10752
  140.9883  134.0575  157.3685 H   0  0  0  0  0  0  0  0  0  0  0  0  # atno 11005 bound_to 11000
  144.9285  140.7948  143.5704 LP  0  0  0  0  0  0  0  0  0  0  0  0  # atno 17320 bound_to 7965
  145.2628  139.1985  143.4883 LP  0  0  0  0  0  0  0  0  0  0  0  0  # atno 17321 bound_to 7965
  140.7418  143.2824  151.3561 LP  0  0  0  0  0  0  0  0  0  0  0  0  # atno 17342 bound_to 10162
  139.6271  144.0792  152.2444 LP  0  0  0  0  0  0  0  0  0  0  0  0  # atno 17343 bound_to 10162
  157.7312  130.9697  150.1869 LP  0  0  0  0  0  0  0  0  0  0  0  0  # atno 17370 bound_to 10713
  156.2580  130.3707  149.8161 LP  0  0  0  0  0  0  0  0  0  0  0  0  # atno 17371 bound_to 10713
  139.8980  135.0153  156.7130 LP  0  0  0  0  0  0  0  0  0  0  0  0  # atno 17394 bound_to 11000
  140.7080  133.9248  155.8066 LP  0  0  0  0  0  0  0  0  0  0  0  0  # atno 17395 bound_to 11000

$$$$
