AV-unprocessed.smi:2083|AV-procd|sdf|8497|dock1
  -GOLD-   2272011203D 1   1.00000     0.00000
 Structure written by MMmdl.
 45 46  0  0  0  0  0  0  0  0  2 V2000
  149.8569  142.3224  157.6384 C   0  0  0  0  0  0  0  0  0  0  0  0
  149.9131  141.5018  156.3958 C   0  0  0  0  0  0  0  0  0  0  0  0
  148.9528  141.0543  155.5326 C   0  0  0  0  0  0  0  0  0  0  0  0
  149.7016  140.3261  154.5707 C   0  0  0  0  0  0  0  0  0  0  0  0
  149.0581  139.6863  153.4809 N   0  0  0  0  0  0  0  0  0  0  0  0
  147.7934  139.2351  153.4270 C   0  0  0  0  0  0  0  0  0  0  0  0
  146.9739  139.3077  154.3429 O   0  0  0  0  0  0  0  0  0  0  0  0
  147.5236  138.6823  152.2349 N   0  0  0  0  0  0  0  0  0  0  0  0
  146.2331  138.1316  151.8266 C   0  0  0  0  0  0  0  0  0  0  0  0
  145.7305  137.0036  152.7701 C   0  0  1  0  0  0  0  0  0  0  0  0
  144.1887  136.9089  152.7377 C   0  0  0  0  0  0  0  0  0  0  0  0
  146.3201  135.6521  152.4876 N   0  3  2  0  0  0  0  0  0  0  0  0
  145.6570  134.9880  151.3288 C   0  0  0  0  0  0  0  0  0  0  0  0
  146.3955  133.7086  150.9102 C   0  0  0  0  0  0  0  0  0  0  0  0
  146.4822  132.7276  152.0824 C   0  0  0  0  0  0  0  0  0  0  0  0
  147.1482  133.4103  153.2856 C   0  0  2  0  0  0  0  0  0  0  0  0
  147.2331  132.4608  154.4894 C   0  0  0  0  0  0  0  0  0  0  0  0
  146.4107  134.7168  153.6485 C   0  0  0  0  0  0  0  0  0  0  0  0
  151.0019  140.3307  154.8214 N   0  0  0  0  0  0  0  0  0  0  0  0
  151.1439  141.0839  155.9930 O   0  0  0  0  0  0  0  0  0  0  0  0
  148.8815  142.7968  157.7479 H   0  0  0  0  0  0  0  0  0  0  0  0
  150.6136  143.1070  157.6198 H   0  0  0  0  0  0  0  0  0  0  0  0
  150.0324  141.7029  158.5179 H   0  0  0  0  0  0  0  0  0  0  0  0
  147.8872  141.2212  155.5859 H   0  0  0  0  0  0  0  0  0  0  0  0
  149.6206  139.5653  152.6520 H   0  0  0  0  0  0  0  0  0  0  0  0
  148.2617  138.6642  151.5461 H   0  0  0  0  0  0  0  0  0  0  0  0
  145.4843  138.9214  151.7429 H   0  0  0  0  0  0  0  0  0  0  0  0
  146.3934  137.7458  150.8199 H   0  0  0  0  0  0  0  0  0  0  0  0
  146.0331  137.2881  153.7794 H   0  0  0  0  0  0  0  0  0  0  0  0
  143.7197  137.8410  153.0517 H   0  0  0  0  0  0  0  0  0  0  0  0
  143.8006  136.1387  153.4020 H   0  0  0  0  0  0  0  0  0  0  0  0
  143.8319  136.6830  151.7321 H   0  0  0  0  0  0  0  0  0  0  0  0
  144.6247  134.7503  151.5902 H   0  0  0  0  0  0  0  0  0  0  0  0
  145.6106  135.6552  150.4696 H   0  0  0  0  0  0  0  0  0  0  0  0
  145.8811  133.2391  150.0710 H   0  0  0  0  0  0  0  0  0  0  0  0
  147.3977  133.9581  150.5596 H   0  0  0  0  0  0  0  0  0  0  0  0
  145.4819  132.3853  152.3519 H   0  0  0  0  0  0  0  0  0  0  0  0
  147.0470  131.8429  151.7862 H   0  0  0  0  0  0  0  0  0  0  0  0
  148.1693  133.6700  153.0017 H   0  0  0  0  0  0  0  0  0  0  0  0
  146.2415  132.1565  154.8261 H   0  0  0  0  0  0  0  0  0  0  0  0
  147.7390  132.9353  155.3306 H   0  0  0  0  0  0  0  0  0  0  0  0
  147.7904  131.5577  154.2387 H   0  0  0  0  0  0  0  0  0  0  0  0
  146.9672  135.1758  154.4648 H   0  0  0  0  0  0  0  0  0  0  0  0
  145.4078  134.4982  154.0190 H   0  0  0  0  0  0  0  0  0  0  0  0
  147.2766  135.8262  152.2135 H   0  0  0  0  0  0  0  0  0  0  0  0
  1  2  1  0  0  0  0
  1 21  1  0  0  0  0
  1 22  1  0  0  0  0
  1 23  1  0  0  0  0
  2 20  1  0  0  0  0
  2  3  2  0  0  0  0
  3  4  1  0  0  0  0
  3 24  1  0  0  0  0
  4  5  1  0  0  0  0
  4 19  2  0  0  0  0
  5  6  1  0  0  0  0
  5 25  1  0  0  0  0
  6  7  2  0  0  0  0
  6  8  1  0  0  0  0
  8  9  1  0  0  0  0
  8 26  1  0  0  0  0
  9 10  1  0  0  0  0
  9 27  1  0  0  0  0
  9 28  1  0  0  0  0
 10 11  1  0  0  0  0
 10 12  1  0  0  0  0
 10 29  1  0  0  0  0
 11 30  1  0  0  0  0
 11 31  1  0  0  0  0
 11 32  1  0  0  0  0
 12 18  1  0  0  0  0
 12 13  1  0  0  0  0
 12 45  1  0  0  0  0
 13 14  1  0  0  0  0
 13 33  1  0  0  0  0
 13 34  1  0  0  0  0
 14 15  1  0  0  0  0
 14 35  1  0  0  0  0
 14 36  1  0  0  0  0
 15 16  1  0  0  0  0
 15 37  1  0  0  0  0
 15 38  1  0  0  0  0
 16 17  1  0  0  0  0
 16 18  1  0  0  0  0
 16 39  1  0  0  0  0
 17 40  1  0  0  0  0
 17 41  1  0  0  0  0
 17 42  1  0  0  0  0
 18 43  1  0  0  0  0
 18 44  1  0  0  0  0
 19 20  1  0  0  0  0
M  CHG  1  12   1
M  END
> <s_m_source_file>
AV-unprocessed.smi

> <i_m_source_file_index>
2083

> <i_lp_mmshare_version>
43012

> <i_f3d_flags>
0

> <s_epik_input>
W0NIM11jMVtjSF1jKG5vMSlbTkhdQyg9TylbTkhdW0NIMl1bQ0BIXShbQ0gzXSlOMltDSDJdW0NIMl1bQ0gyXVtDQEBIXShbQ0gzXSlbQ0gyXTI=

> <s_epik_cmdline>
J2VwaWtfcHl0aG9uJywgJy1waCcsICc3LjAnLCAnLXRuJywgJzgnLCAnLW1hJywgJzIwMCcsICctbWV0YWxfYmluZGluZycsICctaW1hZScsICc8aW5maWxlLm1hZT4nLCAnLW9tYWUnLCAnPG91dGZpbGUubWFlPic=

> <r_epik_Ionization_Penalty>
0.00216453

> <r_epik_Ionization_Penalty_Charging>
0.00212879

> <r_epik_Ionization_Penalty_Neutral>
3.57418e-05

> <r_epik_State_Penalty>
0.00146033

> <r_epik_Charging_Adjusted_Penalty>
0.00358912

> <i_epik_Tot_Q>
1

> <i_epik_Tot_abs_Q>
1

> <r_epik_Metal_State_Penalty>
0.0215827

> <b_epik_Metal_Only>
0

> <s_lp_Force_Field>
OPLS_2005

> <r_lp_Energy>
20.5585

> <b_lp_Chiralities_Consistent>
1

> <s_lp_Variant>
AV-unprocessed.smi:2083-8

> <Gold.Version>
5.8.1

> <Gold.Id.Protein>
6NUR|6NUR_protein|mol2

> <Gold.PLP.Fitness>
44.0542

> <Gold.PLP.PLP>
-31.8198

> <Gold.PLP.part.hbond>
-5.0000

> <Gold.PLP.part.metal>
0.0000

> <Gold.PLP.part.buried>
-5.3936

> <Gold.PLP.part.nonpolar>
-22.3784

> <Gold.PLP.part.repulsive>
0.4334

> <Gold.PLP.ligand.clash>
0.0000

> <Gold.PLP.ligand.torsion>
0.8342

> <Gold.PLP.Chemscore.Hbond>
4.6000

> <Gold.PLP.Chemscore.CHOScore>
0.0000

> <Gold.PLP.Chemscore.Metal>
0.0000

> <Gold.Chemscore.Hbonds>
donor molecule, donor type, donor heavy atom, donor atom, acceptor molecule, acceptor atom, score
      L1  H     5    25       P1  7957  0.77
      L1  H     8    26       P1  7957  0.61
      L1  H    12    45       P1  7948  2.00
      P1  H  7989  7998       L1    19  1.00

> <Gold.PLP.Chemscore.Internal.Correction>
0.1027

> <Gold.Rescore>
     Score         DG    S(hbond)    S(metal)    S(lipo)     H(rot)  DE(clash)    DE(int)     intcor
     18.00     -20.09       3.53        0.00      58.00       1.55       0.02       2.07       ----

> <Gold.Chemscore.Fitness>
18.0022

> <Gold.Chemscore.DG>
-20.0946

> <Gold.Chemscore.ZeroCoef>
-5.4800

> <Gold.Chemscore.Hbond>
3.5300

> <Gold.Chemscore.Metal>
0.0000

> <Gold.Chemscore.Lipo>
57.9957

> <Gold.Chemscore.Internal_Hbond>
0.0000

> <Gold.Chemscore.DEClash>
0.0217

> <Gold.Chemscore.DEInternal>
2.0707

> <Gold.Chemscore.Rot>
1.5474

> <Gold.Chemscore.Internal.Correction>
   9.000000E+99

> <Gold.Chemscore.Hbonds>
donor molecule, donor type, donor heavy atom, donor atom, acceptor molecule, acceptor atom, score
      L1  H     5    25       P1  7957  0.75
      L1  H     8    26       P1  7957  0.27
      L1  H    12    45       P1  7948  1.00
      P1  H  7989  7998       L1    19  0.41

> <Gold.Chemscore.Hbond.Weighted>
-11.7904

> <Gold.Chemscore.Metal.Weighted>
-0.0000

> <Gold.Chemscore.Lipo.Weighted>
-6.7855

> <Gold.Chemscore.Internal_Hbond.Weighted>
0.0000

> <Gold.Chemscore.DEClash.Weighted>
0.0217

> <Gold.Chemscore.DEInternal.Weighted>
2.0707

> <Gold.Chemscore.Rot.Weighted>
3.9612

> <Gold.Chemscore.Internal.Correction.Weighted>
   9.000000E+99

> <Gold.Protein.RotatedTorsions>
[ 6907 6896 6895 6894 ] final  117.60 input  -60.11 | X-H torsion
[ 7974 7965 7964 7962 ] final -115.82 input  175.53 | X-H torsion
[ 8008 7997 7996 7995 ] final -118.05 input   59.86 | X-H torsion
[ 10167 10162 10161 10158 ] final  -25.02 input  -65.29 | X-H torsion
[ 10718 10713 10712 10709 ] final   95.77 input   66.30 | X-H torsion
[ 10763 10752 10751 10750 ] final   54.84 input  -60.55 | X-H torsion
[ 11005 11000 10999 10996 ] final  -32.22 input  -57.11 | X-H torsion

> <Gold.Protein.ActiveResidues>
 VAL166  LYS551  ARG553  GLY616  TRP617  ASP618  TYR619  PRO620  LYS621  CYS622 
 ASP623  PHE694  ASN695  SER759  ASP760  ASP761  ALA762  ILE779  LEU786  VAL792 
 PHE793  MET794  SER795  GLU796  ALA797  LYS798  CYS799  TRP800  GLU811  SER814 

> <Gold.Protein.RotatedAtoms>
  152.4601  133.7804  159.6847 H   0  0  0  0  0  0  0  0  0  0  0  0  # atno 6907 bound_to 6896
  150.8542  133.7731  159.3021 H   0  0  0  0  0  0  0  0  0  0  0  0  # atno 6908 bound_to 6896
  151.5317  135.1071  159.9956 H   0  0  0  0  0  0  0  0  0  0  0  0  # atno 6909 bound_to 6896
  145.1040  140.8569  143.3909 H   0  0  0  0  0  0  0  0  0  0  0  0  # atno 7974 bound_to 7965
  155.0935  140.0395  157.2675 H   0  0  0  0  0  0  0  0  0  0  0  0  # atno 8008 bound_to 7997
  154.6813  140.2633  155.6880 H   0  0  0  0  0  0  0  0  0  0  0  0  # atno 8009 bound_to 7997
  156.2696  140.2778  156.1359 H   0  0  0  0  0  0  0  0  0  0  0  0  # atno 8010 bound_to 7997
  140.7287  143.4301  151.0815 H   0  0  0  0  0  0  0  0  0  0  0  0  # atno 10167 bound_to 10162
  157.6935  131.0556  150.4390 H   0  0  0  0  0  0  0  0  0  0  0  0  # atno 10718 bound_to 10713
  152.9809  135.5731  154.4969 H   0  0  0  0  0  0  0  0  0  0  0  0  # atno 10763 bound_to 10752
  154.4495  135.2778  155.1793 H   0  0  0  0  0  0  0  0  0  0  0  0  # atno 10764 bound_to 10752
  154.3427  135.6226  153.5658 H   0  0  0  0  0  0  0  0  0  0  0  0  # atno 10765 bound_to 10752
  140.9533  133.7207  156.1255 H   0  0  0  0  0  0  0  0  0  0  0  0  # atno 11005 bound_to 11000
  145.0923  139.2881  143.5728 LP  0  0  0  0  0  0  0  0  0  0  0  0  # atno 17320 bound_to 7965
  146.3529  140.0464  142.8639 LP  0  0  0  0  0  0  0  0  0  0  0  0  # atno 17321 bound_to 7965
  139.7957  143.8155  152.3157 LP  0  0  0  0  0  0  0  0  0  0  0  0  # atno 17342 bound_to 10162
  139.8154  144.7318  150.9642 LP  0  0  0  0  0  0  0  0  0  0  0  0  # atno 17343 bound_to 10162
  156.4750  130.4061  149.6495 LP  0  0  0  0  0  0  0  0  0  0  0  0  # atno 17370 bound_to 10713
  156.3561  130.7457  151.2423 LP  0  0  0  0  0  0  0  0  0  0  0  0  # atno 17371 bound_to 10713
  140.7571  134.3980  157.5532 LP  0  0  0  0  0  0  0  0  0  0  0  0  # atno 17394 bound_to 11000
  139.8854  134.8937  156.2643 LP  0  0  0  0  0  0  0  0  0  0  0  0  # atno 17395 bound_to 11000

$$$$
