AV-unprocessed.smi:2473|AV-procd|sdf|9745|dock4
  -GOLD-   2272013383D 1   1.00000     0.00000
 Structure written by MMmdl.
 48 49  0  0  0  0  0  0  0  0  2 V2000
  153.6189  141.4765  161.7463 C   0  0  0  0  0  0  0  0  0  0  0  0
  152.6338  141.8780  160.6388 C   0  0  2  0  0  0  0  0  0  0  0  0
  152.6601  140.8694  159.4766 C   0  0  0  0  0  0  0  0  0  0  0  0
  151.6686  141.2668  158.3655 C   0  0  2  0  0  0  0  0  0  0  0  0
  151.7007  140.2698  157.2000 C   0  0  0  0  0  0  0  0  0  0  0  0
  152.7616  140.0011  156.6358 O   0  0  0  0  0  0  0  0  0  0  0  0
  150.5212  139.7494  156.8297 N   0  0  0  0  0  0  0  0  0  0  0  0
  150.3155  138.8585  155.6919 C   0  0  0  0  0  0  0  0  0  0  0  0
  150.5517  139.5545  154.3358 C   0  0  0  0  0  0  0  0  0  0  0  0
  149.3316  139.6203  153.4627 C   0  0  0  0  0  0  0  0  0  0  0  0
  148.9215  138.6466  152.6410 N   0  3  0  0  0  0  0  0  0  0  0  0
  147.7710  139.0148  151.9990 C   0  0  0  0  0  0  0  0  0  0  0  0
  147.4652  140.2732  152.4455 C   0  0  0  0  0  0  0  0  0  0  0  0
  148.4426  140.6220  153.3422 N   0  0  0  0  0  0  0  0  0  0  0  0
  148.5349  141.8885  154.0718 C   0  0  0  0  0  0  0  0  0  0  0  0
  151.9760  142.6928  157.8582 C   0  0  0  0  0  0  0  0  0  0  0  0
  151.9819  143.7600  158.9796 C   0  0  0  0  0  0  0  0  0  0  0  0
  152.5121  145.0852  158.3983 C   0  0  0  0  0  0  0  0  0  0  0  0
  150.5524  144.0161  159.5059 C   0  0  0  0  0  0  0  0  0  0  0  0
  152.9230  143.3037  160.1227 C   0  0  0  0  0  0  0  0  0  0  0  0
  154.6451  141.4594  161.3779 H   0  0  0  0  0  0  0  0  0  0  0  0
  153.3888  140.4846  162.1361 H   0  0  0  0  0  0  0  0  0  0  0  0
  153.5771  142.1757  162.5818 H   0  0  0  0  0  0  0  0  0  0  0  0
  151.6368  141.8630  161.0788 H   0  0  0  0  0  0  0  0  0  0  0  0
  153.6730  140.8105  159.0740 H   0  0  0  0  0  0  0  0  0  0  0  0
  152.4184  139.8730  159.8497 H   0  0  0  0  0  0  0  0  0  0  0  0
  150.6632  141.2496  158.7882 H   0  0  0  0  0  0  0  0  0  0  0  0
  149.7019  140.0151  157.3570 H   0  0  0  0  0  0  0  0  0  0  0  0
  150.9472  137.9737  155.7830 H   0  0  0  0  0  0  0  0  0  0  0  0
  149.2845  138.5070  155.7423 H   0  0  0  0  0  0  0  0  0  0  0  0
  150.9160  140.5700  154.4877 H   0  0  0  0  0  0  0  0  0  0  0  0
  151.3188  139.0289  153.7666 H   0  0  0  0  0  0  0  0  0  0  0  0
  147.2705  138.3710  151.2903 H   0  0  0  0  0  0  0  0  0  0  0  0
  146.6451  140.9310  152.1953 H   0  0  0  0  0  0  0  0  0  0  0  0
  147.6653  142.5056  153.8446 H   0  0  0  0  0  0  0  0  0  0  0  0
  149.4406  142.4143  153.7686 H   0  0  0  0  0  0  0  0  0  0  0  0
  148.5630  141.6925  155.1431 H   0  0  0  0  0  0  0  0  0  0  0  0
  152.9509  142.6895  157.3671 H   0  0  0  0  0  0  0  0  0  0  0  0
  151.2563  142.9753  157.0879 H   0  0  0  0  0  0  0  0  0  0  0  0
  152.5409  145.8685  159.1566 H   0  0  0  0  0  0  0  0  0  0  0  0
  151.8829  145.4412  157.5817 H   0  0  0  0  0  0  0  0  0  0  0  0
  153.5238  144.9744  158.0062 H   0  0  0  0  0  0  0  0  0  0  0  0
  150.5495  144.7855  160.2787 H   0  0  0  0  0  0  0  0  0  0  0  0
  150.0971  143.1269  159.9390 H   0  0  0  0  0  0  0  0  0  0  0  0
  149.8941  144.3570  158.7062 H   0  0  0  0  0  0  0  0  0  0  0  0
  152.8678  144.0121  160.9505 H   0  0  0  0  0  0  0  0  0  0  0  0
  153.9553  143.3390  159.7704 H   0  0  0  0  0  0  0  0  0  0  0  0
  149.3975  137.7621  152.5151 H   0  0  0  0  0  0  0  0  0  0  0  0
  1  2  1  0  0  0  0
  1 21  1  0  0  0  0
  1 22  1  0  0  0  0
  1 23  1  0  0  0  0
  2 20  1  0  0  0  0
  2  3  1  0  0  0  0
  2 24  1  0  0  0  0
  3  4  1  0  0  0  0
  3 25  1  0  0  0  0
  3 26  1  0  0  0  0
  4  5  1  0  0  0  0
  4 16  1  0  0  0  0
  4 27  1  0  0  0  0
  5  6  2  0  0  0  0
  5  7  1  0  0  0  0
  7  8  1  0  0  0  0
  7 28  1  0  0  0  0
  8  9  1  0  0  0  0
  8 29  1  0  0  0  0
  8 30  1  0  0  0  0
  9 10  1  0  0  0  0
  9 31  1  0  0  0  0
  9 32  1  0  0  0  0
 10 14  1  0  0  0  0
 10 11  2  0  0  0  0
 11 12  1  0  0  0  0
 11 48  1  0  0  0  0
 12 13  2  0  0  0  0
 12 33  1  0  0  0  0
 13 14  1  0  0  0  0
 13 34  1  0  0  0  0
 14 15  1  0  0  0  0
 15 35  1  0  0  0  0
 15 36  1  0  0  0  0
 15 37  1  0  0  0  0
 16 17  1  0  0  0  0
 16 38  1  0  0  0  0
 16 39  1  0  0  0  0
 17 18  1  0  0  0  0
 17 19  1  0  0  0  0
 17 20  1  0  0  0  0
 18 40  1  0  0  0  0
 18 41  1  0  0  0  0
 18 42  1  0  0  0  0
 19 43  1  0  0  0  0
 19 44  1  0  0  0  0
 19 45  1  0  0  0  0
 20 46  1  0  0  0  0
 20 47  1  0  0  0  0
M  CHG  1  11   1
M  END
> <s_m_source_file>
AV-unprocessed.smi

> <i_m_source_file_index>
2473

> <i_lp_mmshare_version>
43012

> <i_f3d_flags>
0

> <s_epik_input>
W0NIM11bQ0BASF0oW0NIMl0xKVtDSDJdW0NASF0oW0NIMl1DMShbQ0gzXSlbQ0gzXSlDKD1PKVtOSF1bQ0gyXVtDSDJdYzJuW2NIXVtjSF1uMltDSDNd

> <s_epik_cmdline>
J2VwaWtfcHl0aG9uJywgJy1waCcsICc3LjAnLCAnLXRuJywgJzgnLCAnLW1hJywgJzIwMCcsICctbWV0YWxfYmluZGluZycsICctaW1hZScsICc8aW5maWxlLm1hZT4nLCAnLW9tYWUnLCAnPG91dGZpbGUubWFlPic=

> <r_lp_tautomer_probability>
1

> <r_epik_Ionization_Penalty>
0.0796112

> <r_epik_Ionization_Penalty_Charging>
0

> <r_epik_Ionization_Penalty_Neutral>
0.0796112

> <r_epik_State_Penalty>
0.0704541

> <r_epik_Charging_Adjusted_Penalty>
0.0704541

> <i_epik_Tot_Q>
1

> <i_epik_Tot_abs_Q>
1

> <r_epik_Metal_State_Penalty>
0.409899

> <b_epik_Metal_Only>
0

> <s_lp_Force_Field>
OPLS_2005

> <r_lp_Energy>
16.1806

> <b_lp_Chiralities_Consistent>
1

> <s_lp_Variant>
AV-unprocessed.smi:2473-3

> <Gold.Version>
5.8.1

> <Gold.Id.Protein>
6NUR|6NUR_protein|mol2

> <Gold.PLP.Fitness>
54.7383

> <Gold.PLP.PLP>
-44.4987

> <Gold.PLP.part.hbond>
-3.0000

> <Gold.PLP.part.metal>
0.0000

> <Gold.PLP.part.buried>
0.3612

> <Gold.PLP.part.nonpolar>
-41.1361

> <Gold.PLP.part.repulsive>
0.0655

> <Gold.PLP.ligand.clash>
0.0000

> <Gold.PLP.ligand.torsion>
0.8676

> <Gold.PLP.Chemscore.Hbond>
2.9840

> <Gold.PLP.Chemscore.CHOScore>
1.0000

> <Gold.PLP.Chemscore.Metal>
0.0000

> <Gold.Chemscore.Hbonds>
donor molecule, donor type, donor heavy atom, donor atom, acceptor molecule, acceptor atom, score
      L1  H    11    48       P1  7948  1.44
      P1  H  7997  8009       L1     6  1.00

> <Gold.PLP.Chemscore.Internal.Correction>
0.0228

> <Gold.Rescore>
     Score         DG    S(hbond)    S(metal)    S(lipo)     H(rot)  DE(clash)    DE(int)     intcor
     18.13     -23.04       1.83        0.00     132.44       1.58       3.84       1.06       ----

> <Gold.Chemscore.Fitness>
18.1299

> <Gold.Chemscore.DG>
-23.0358

> <Gold.Chemscore.ZeroCoef>
-5.4800

> <Gold.Chemscore.Hbond>
1.8294

> <Gold.Chemscore.Metal>
0.0000

> <Gold.Chemscore.Lipo>
132.4378

> <Gold.Chemscore.Internal_Hbond>
0.0000

> <Gold.Chemscore.DEClash>
3.8422

> <Gold.Chemscore.DEInternal>
1.0637

> <Gold.Chemscore.Rot>
1.5818

> <Gold.Chemscore.Internal.Correction>
   9.000000E+99

> <Gold.Chemscore.Hbonds>
donor molecule, donor type, donor heavy atom, donor atom, acceptor molecule, acceptor atom, score
      L1  H    11    48       P1  7948  0.56
      P1  H  7997  8009       L1     6  0.96

> <Gold.Chemscore.Hbond.Weighted>
-6.1100

> <Gold.Chemscore.Metal.Weighted>
-0.0000

> <Gold.Chemscore.Lipo.Weighted>
-15.4952

> <Gold.Chemscore.Internal_Hbond.Weighted>
0.0000

> <Gold.Chemscore.DEClash.Weighted>
3.8422

> <Gold.Chemscore.DEInternal.Weighted>
1.0637

> <Gold.Chemscore.Rot.Weighted>
4.0495

> <Gold.Chemscore.Internal.Correction.Weighted>
   9.000000E+99

> <Gold.Protein.RotatedTorsions>
[ 6907 6896 6895 6894 ] final    8.00 input  -60.11 | X-H torsion
[ 7974 7965 7964 7962 ] final -107.92 input  175.53 | X-H torsion
[ 8008 7997 7996 7995 ] final  177.44 input   59.86 | X-H torsion
[ 10167 10162 10161 10158 ] final -169.29 input  -65.29 | X-H torsion
[ 10718 10713 10712 10709 ] final  134.52 input   66.30 | X-H torsion
[ 10763 10752 10751 10750 ] final  149.00 input  -60.55 | X-H torsion
[ 11005 11000 10999 10996 ] final   62.50 input  -57.11 | X-H torsion

> <Gold.Protein.ActiveResidues>
 VAL166  LYS551  ARG553  GLY616  TRP617  ASP618  TYR619  PRO620  LYS621  CYS622 
 ASP623  PHE694  ASN695  SER759  ASP760  ASP761  ALA762  ILE779  LEU786  VAL792 
 PHE793  MET794  SER795  GLU796  ALA797  LYS798  CYS799  TRP800  GLU811  SER814 

> <Gold.Protein.RotatedAtoms>
  151.6990  135.0933  160.0247 H   0  0  0  0  0  0  0  0  0  0  0  0  # atno 6907 bound_to 6896
  152.3732  133.6442  159.6112 H   0  0  0  0  0  0  0  0  0  0  0  0  # atno 6908 bound_to 6896
  150.7689  133.9152  159.3423 H   0  0  0  0  0  0  0  0  0  0  0  0  # atno 6909 bound_to 6896
  145.1993  140.9049  143.3379 H   0  0  0  0  0  0  0  0  0  0  0  0  # atno 7974 bound_to 7965
  156.0657  140.1358  156.9889 H   0  0  0  0  0  0  0  0  0  0  0  0  # atno 8008 bound_to 7997
  154.4505  140.0982  156.6654 H   0  0  0  0  0  0  0  0  0  0  0  0  # atno 8009 bound_to 7997
  155.5308  140.3458  155.4428 H   0  0  0  0  0  0  0  0  0  0  0  0  # atno 8010 bound_to 7997
  139.5932  144.1169  152.1658 H   0  0  0  0  0  0  0  0  0  0  0  0  # atno 10167 bound_to 10162
  157.4664  131.1077  150.9857 H   0  0  0  0  0  0  0  0  0  0  0  0  # atno 10718 bound_to 10713
  154.0639  135.2872  155.3320 H   0  0  0  0  0  0  0  0  0  0  0  0  # atno 10763 bound_to 10752
  154.6790  135.5270  153.8241 H   0  0  0  0  0  0  0  0  0  0  0  0  # atno 10764 bound_to 10752
  153.0512  135.6577  154.0825 H   0  0  0  0  0  0  0  0  0  0  0  0  # atno 10765 bound_to 10752
  140.0088  134.6328  155.9813 H   0  0  0  0  0  0  0  0  0  0  0  0  # atno 11005 bound_to 11000
  144.9964  139.3640  143.6189 LP  0  0  0  0  0  0  0  0  0  0  0  0  # atno 17320 bound_to 7965
  146.3421  139.9168  142.8772 LP  0  0  0  0  0  0  0  0  0  0  0  0  # atno 17321 bound_to 7965
  140.0748  144.5750  150.7165 LP  0  0  0  0  0  0  0  0  0  0  0  0  # atno 17342 bound_to 10162
  140.7190  143.2571  151.4340 LP  0  0  0  0  0  0  0  0  0  0  0  0  # atno 17343 bound_to 10162
  157.0636  130.5835  149.5390 LP  0  0  0  0  0  0  0  0  0  0  0  0  # atno 17370 bound_to 10713
  156.0052  130.5138  150.7806 LP  0  0  0  0  0  0  0  0  0  0  0  0  # atno 17371 bound_to 10713
  141.1696  133.6537  156.4603 LP  0  0  0  0  0  0  0  0  0  0  0  0  # atno 17394 bound_to 11000
  140.4593  134.6856  157.5077 LP  0  0  0  0  0  0  0  0  0  0  0  0  # atno 17395 bound_to 11000

$$$$
