AV-unprocessed.smi:2802|AV-procd|sdf|10805|dock8
  -GOLD-   2272015243D 1   1.00000     0.00000
 Structure written by MMmdl.
 47 48  0  0  0  0  0  0  0  0  1 V2000
  146.6268  143.3275  153.5729 C   0  0  0  0  0  0  0  0  0  0  0  0
  146.9172  141.9826  154.2554 C   0  0  2  0  0  0  0  0  0  0  0  0
  145.9174  141.7110  155.3922 C   0  0  0  0  0  0  0  0  0  0  0  0
  146.1431  140.3554  156.0984 C   0  0  0  0  0  0  0  0  0  0  0  0
  145.2874  140.3288  157.3829 C   0  0  0  0  0  0  0  0  0  0  0  0
  145.6535  139.1843  155.2175 C   0  0  0  0  0  0  0  0  0  0  0  0
  147.6349  140.1977  156.5109 C   0  0  0  0  0  0  0  0  0  0  0  0
  148.7353  140.5903  155.4734 C   0  0  2  0  0  0  0  0  0  0  0  0
  148.9796  139.4775  154.4119 C   0  0  0  0  0  0  0  0  0  0  0  0
  150.1098  139.7469  153.6039 O   0  0  0  0  0  0  0  0  0  0  0  0
  149.9838  140.8524  156.2101 N   0  0  0  0  0  0  0  0  0  0  0  0
  150.2173  141.7748  157.1610 C   0  0  0  0  0  0  0  0  0  0  0  0
  149.3649  142.5628  157.5732 O   0  0  0  0  0  0  0  0  0  0  0  0
  151.6407  141.7949  157.7298 C   0  0  0  0  0  0  0  0  0  0  0  0
  151.8358  142.9285  158.7231 C   0  0  0  0  0  0  0  0  0  0  0  0
  151.8276  144.2731  158.2979 C   0  0  0  0  0  0  0  0  0  0  0  0
  152.0238  145.2881  159.2538 C   0  0  0  0  0  0  0  0  0  0  0  0
  152.2207  144.9142  160.5982 C   0  0  0  0  0  0  0  0  0  0  0  0
  152.2281  143.6305  161.0176 N   0  0  0  0  0  0  0  0  0  0  0  0
  152.0393  142.6632  160.0944 C   0  0  0  0  0  0  0  0  0  0  0  0
  148.3558  141.9345  154.7997 C   0  0  0  0  0  0  0  0  0  0  0  0
  146.7196  144.1582  154.2730 H   0  0  0  0  0  0  0  0  0  0  0  0
  145.6167  143.3491  153.1626 H   0  0  0  0  0  0  0  0  0  0  0  0
  147.3186  143.5070  152.7494 H   0  0  0  0  0  0  0  0  0  0  0  0
  146.8042  141.2159  153.4905 H   0  0  0  0  0  0  0  0  0  0  0  0
  146.0008  142.5172  156.1228 H   0  0  0  0  0  0  0  0  0  0  0  0
  144.8973  141.7616  155.0086 H   0  0  0  0  0  0  0  0  0  0  0  0
  145.4119  139.3898  157.9238 H   0  0  0  0  0  0  0  0  0  0  0  0
  144.2257  140.4402  157.1588 H   0  0  0  0  0  0  0  0  0  0  0  0
  145.5582  141.1352  158.0655 H   0  0  0  0  0  0  0  0  0  0  0  0
  145.8940  138.2212  155.6691 H   0  0  0  0  0  0  0  0  0  0  0  0
  146.0729  139.1916  154.2161 H   0  0  0  0  0  0  0  0  0  0  0  0
  144.5710  139.2181  155.0898 H   0  0  0  0  0  0  0  0  0  0  0  0
  147.7863  140.8317  157.3867 H   0  0  0  0  0  0  0  0  0  0  0  0
  147.8010  139.1818  156.8712 H   0  0  0  0  0  0  0  0  0  0  0  0
  149.1176  138.5051  154.8840 H   0  0  0  0  0  0  0  0  0  0  0  0
  148.1365  139.3695  153.7368 H   0  0  0  0  0  0  0  0  0  0  0  0
  149.8750  139.5977  152.7008 H   0  0  0  0  0  0  0  0  0  0  0  0
  150.7604  140.2560  155.9645 H   0  0  0  0  0  0  0  0  0  0  0  0
  151.8438  140.8383  158.2126 H   0  0  0  0  0  0  0  0  0  0  0  0
  152.3635  141.9018  156.9195 H   0  0  0  0  0  0  0  0  0  0  0  0
  151.6783  144.5236  157.2578 H   0  0  0  0  0  0  0  0  0  0  0  0
  152.0255  146.3282  158.9634 H   0  0  0  0  0  0  0  0  0  0  0  0
  152.3766  145.6670  161.3568 H   0  0  0  0  0  0  0  0  0  0  0  0
  152.0561  141.6468  160.4598 H   0  0  0  0  0  0  0  0  0  0  0  0
  149.0605  142.1678  154.0005 H   0  0  0  0  0  0  0  0  0  0  0  0
  148.4642  142.7418  155.5267 H   0  0  0  0  0  0  0  0  0  0  0  0
  1  2  1  0  0  0  0
  1 22  1  0  0  0  0
  1 23  1  0  0  0  0
  1 24  1  0  0  0  0
  2 21  1  0  0  0  0
  2  3  1  0  0  0  0
  2 25  1  0  0  0  0
  3  4  1  0  0  0  0
  3 26  1  0  0  0  0
  3 27  1  0  0  0  0
  4  5  1  0  0  0  0
  4  6  1  0  0  0  0
  4  7  1  0  0  0  0
  5 28  1  0  0  0  0
  5 29  1  0  0  0  0
  5 30  1  0  0  0  0
  6 31  1  0  0  0  0
  6 32  1  0  0  0  0
  6 33  1  0  0  0  0
  7  8  1  0  0  0  0
  7 34  1  0  0  0  0
  7 35  1  0  0  0  0
  8  9  1  0  0  0  0
  8 11  1  0  0  0  0
  8 21  1  0  0  0  0
  9 10  1  0  0  0  0
  9 36  1  0  0  0  0
  9 37  1  0  0  0  0
 10 38  1  0  0  0  0
 11 12  1  0  0  0  0
 11 39  1  0  0  0  0
 12 13  2  0  0  0  0
 12 14  1  0  0  0  0
 14 15  1  0  0  0  0
 14 40  1  0  0  0  0
 14 41  1  0  0  0  0
 15 20  1  0  0  0  0
 15 16  2  0  0  0  0
 16 17  1  0  0  0  0
 16 42  1  0  0  0  0
 17 18  2  0  0  0  0
 17 43  1  0  0  0  0
 18 19  1  0  0  0  0
 18 44  1  0  0  0  0
 19 20  2  0  0  0  0
 20 45  1  0  0  0  0
 21 46  1  0  0  0  0
 21 47  1  0  0  0  0
M  END
> <s_m_source_file>
AV-unprocessed.smi

> <i_m_source_file_index>
2802

> <i_lp_mmshare_version>
43012

> <i_f3d_flags>
0

> <s_epik_input>
W0NIM11DMShbQ0gzXSlbQ0gyXVtDQEBIXShbQ0gzXSlbQ0gyXVtDQF0oW0NIMl0xKShbQ0gyXVtPSF0pW05IXUMoPU8pW0NIMl1jMltjSF1bY0hdW2NIXW5bY0hdMg==

> <s_epik_cmdline>
J2VwaWtfcHl0aG9uJywgJy1waCcsICc3LjAnLCAnLXRuJywgJzgnLCAnLW1hJywgJzIwMCcsICctbWV0YWxfYmluZGluZycsICctaW1hZScsICc8aW5maWxlLm1hZT4nLCAnLW9tYWUnLCAnPG91dGZpbGUubWFlPic=

> <r_epik_Ionization_Penalty>
0.004793

> <r_epik_Ionization_Penalty_Charging>
0

> <r_epik_Ionization_Penalty_Neutral>
0.004793

> <r_epik_State_Penalty>
0.00347421

> <r_epik_Charging_Adjusted_Penalty>
0.00347421

> <i_epik_Tot_Q>
0

> <i_epik_Tot_abs_Q>
0

> <r_epik_Metal_State_Penalty>
-0

> <b_epik_Metal_Only>
0

> <s_lp_Force_Field>
OPLS_2005

> <r_lp_Energy>
22.6418

> <b_lp_Chiralities_Consistent>
1

> <s_lp_Variant>
AV-unprocessed.smi:2802-3

> <Gold.Version>
5.8.1

> <Gold.Id.Protein>
6NUR|6NUR_protein|mol2

> <Gold.PLP.Fitness>
42.3422

> <Gold.PLP.PLP>
-37.1193

> <Gold.PLP.part.hbond>
-2.0000

> <Gold.PLP.part.metal>
0.0000

> <Gold.PLP.part.buried>
-5.9163

> <Gold.PLP.part.nonpolar>
-29.8200

> <Gold.PLP.part.repulsive>
0.3033

> <Gold.PLP.ligand.clash>
0.0000

> <Gold.PLP.ligand.torsion>
0.1433

> <Gold.PLP.Chemscore.Hbond>
1.8320

> <Gold.PLP.Chemscore.CHOScore>
0.0000

> <Gold.PLP.Chemscore.Metal>
0.0000

> <Gold.Chemscore.Hbonds>
donor molecule, donor type, donor heavy atom, donor atom, acceptor molecule, acceptor atom, score
      L1  H    10    38       P1  7957  1.00
      P1  H  7989  7998       L1    10  0.80

> <Gold.PLP.Chemscore.Internal.Correction>
0.0135

> <Gold.Rescore>
     Score         DG    S(hbond)    S(metal)    S(lipo)     H(rot)  DE(clash)    DE(int)     intcor
     15.68     -16.90       1.48        0.00      99.16       2.00       0.10       1.11       ----

> <Gold.Chemscore.Fitness>
15.6829

> <Gold.Chemscore.DG>
-16.8995

> <Gold.Chemscore.ZeroCoef>
-5.4800

> <Gold.Chemscore.Hbond>
1.4803

> <Gold.Chemscore.Metal>
0.0000

> <Gold.Chemscore.Lipo>
99.1629

> <Gold.Chemscore.Internal_Hbond>
0.0000

> <Gold.Chemscore.DEClash>
0.1036

> <Gold.Chemscore.DEInternal>
1.1129

> <Gold.Chemscore.Rot>
2.0026

> <Gold.Chemscore.Internal.Correction>
   9.000000E+99

> <Gold.Chemscore.Hbonds>
donor molecule, donor type, donor heavy atom, donor atom, acceptor molecule, acceptor atom, score
      L1  H    10    38       P1  7957  0.97
      P1  H  7989  7998       L1    10  0.28

> <Gold.Chemscore.Hbond.Weighted>
-4.9440

> <Gold.Chemscore.Metal.Weighted>
-0.0000

> <Gold.Chemscore.Lipo.Weighted>
-11.6021

> <Gold.Chemscore.Internal_Hbond.Weighted>
0.0000

> <Gold.Chemscore.DEClash.Weighted>
0.1036

> <Gold.Chemscore.DEInternal.Weighted>
1.1129

> <Gold.Chemscore.Rot.Weighted>
5.1267

> <Gold.Chemscore.Internal.Correction.Weighted>
   9.000000E+99

> <Gold.Protein.RotatedTorsions>
[ 6907 6896 6895 6894 ] final  -99.88 input  -60.11 | X-H torsion
[ 7974 7965 7964 7962 ] final   -7.69 input  175.53 | X-H torsion
[ 8008 7997 7996 7995 ] final -150.31 input   59.86 | X-H torsion
[ 10167 10162 10161 10158 ] final   94.83 input  -65.29 | X-H torsion
[ 10718 10713 10712 10709 ] final   82.66 input   66.30 | X-H torsion
[ 10763 10752 10751 10750 ] final  -43.60 input  -60.55 | X-H torsion
[ 11005 11000 10999 10996 ] final  164.22 input  -57.11 | X-H torsion

> <Gold.Protein.ActiveResidues>
 VAL166  LYS551  ARG553  GLY616  TRP617  ASP618  TYR619  PRO620  LYS621  CYS622 
 ASP623  PHE694  ASN695  SER759  ASP760  ASP761  ALA762  ILE779  LEU786  VAL792 
 PHE793  MET794  SER795  GLU796  ALA797  LYS798  CYS799  TRP800  GLU811  SER814 

> <Gold.Protein.RotatedAtoms>
  150.7095  134.0973  159.3952 H   0  0  0  0  0  0  0  0  0  0  0  0  # atno 6907 bound_to 6896
  151.8959  135.0395  160.0511 H   0  0  0  0  0  0  0  0  0  0  0  0  # atno 6908 bound_to 6896
  152.2453  133.5134  159.5330 H   0  0  0  0  0  0  0  0  0  0  0  0  # atno 6909 bound_to 6896
  146.2300  140.2356  142.8341 H   0  0  0  0  0  0  0  0  0  0  0  0  # atno 7974 bound_to 7965
  155.6215  140.0682  157.2676 H   0  0  0  0  0  0  0  0  0  0  0  0  # atno 8008 bound_to 7997
  154.4228  140.1783  156.1425 H   0  0  0  0  0  0  0  0  0  0  0  0  # atno 8009 bound_to 7997
  156.0006  140.3336  155.6845 H   0  0  0  0  0  0  0  0  0  0  0  0  # atno 8010 bound_to 7997
  139.8046  144.6799  150.9719 H   0  0  0  0  0  0  0  0  0  0  0  0  # atno 10167 bound_to 10162
  157.6862  131.0057  150.2408 H   0  0  0  0  0  0  0  0  0  0  0  0  # atno 10718 bound_to 10713
  153.9982  135.6697  153.4757 H   0  0  0  0  0  0  0  0  0  0  0  0  # atno 10763 bound_to 10752
  153.0674  135.4993  154.8227 H   0  0  0  0  0  0  0  0  0  0  0  0  # atno 10764 bound_to 10752
  154.7069  135.3089  154.9220 H   0  0  0  0  0  0  0  0  0  0  0  0  # atno 10765 bound_to 10752
  140.2437  134.8031  157.3436 H   0  0  0  0  0  0  0  0  0  0  0  0  # atno 11005 bound_to 11000
  144.9524  140.8192  143.5564 LP  0  0  0  0  0  0  0  0  0  0  0  0  # atno 17320 bound_to 7965
  145.2318  139.2111  143.5038 LP  0  0  0  0  0  0  0  0  0  0  0  0  # atno 17321 bound_to 7965
  140.7819  143.4246  151.0788 LP  0  0  0  0  0  0  0  0  0  0  0  0  # atno 17342 bound_to 10162
  139.7916  143.8210  152.3152 LP  0  0  0  0  0  0  0  0  0  0  0  0  # atno 17343 bound_to 10162
  156.3023  130.3760  149.7739 LP  0  0  0  0  0  0  0  0  0  0  0  0  # atno 17370 bound_to 10713
  156.5365  130.8281  151.3255 LP  0  0  0  0  0  0  0  0  0  0  0  0  # atno 17371 bound_to 10713
  140.1627  134.4708  155.7884 LP  0  0  0  0  0  0  0  0  0  0  0  0  # atno 17394 bound_to 11000
  141.2208  133.6908  156.7572 LP  0  0  0  0  0  0  0  0  0  0  0  0  # atno 17395 bound_to 11000

$$$$
