AV-unprocessed.smi:2648|AV-procd|sdf|10287|dock5
  -GOLD-   2272014303D 1   1.00000     0.00000
 Structure written by MMmdl.
 31 32  0  0  0  0  0  0  0  0  2 V2000
  144.7823  137.1508  152.0792 O   0  0  0  0  0  0  0  0  0  0  0  0
  145.9800  136.8943  151.9576 C   0  0  0  0  0  0  0  0  0  0  0  0
  146.9542  137.7826  152.2003 N   0  0  0  0  0  0  0  0  0  0  0  0
  146.7399  139.1551  152.6411 C   0  0  0  0  0  0  0  0  0  0  0  0
  147.0827  139.3265  154.1319 C   0  0  0  0  0  0  0  0  0  0  0  0
  148.5304  139.2699  154.3505 N   0  0  0  0  0  0  0  0  0  0  0  0
  149.1953  138.1651  154.7015 C   0  0  0  0  0  0  0  0  0  0  0  0
  148.7382  137.0410  154.9103 O   0  0  0  0  0  0  0  0  0  0  0  0
  150.6597  138.5257  154.7947 C   0  0  0  0  0  0  0  0  0  0  0  0
  150.6553  139.9276  154.4425 N   0  5  0  0  0  0  0  0  0  0  0  0
  149.3795  140.3028  154.1894 C   0  0  0  0  0  0  0  0  0  0  0  0
  148.9963  141.4220  153.8500 O   0  0  0  0  0  0  0  0  0  0  0  0
  146.4883  135.7044  151.5922 N   0  0  0  0  0  0  0  0  0  0  0  0
  145.7965  134.5134  151.2410 C   0  0  0  0  0  0  0  0  0  0  0  0
  146.5673  133.3774  150.9179 C   0  0  0  0  0  0  0  0  0  0  0  0
  145.9050  132.1888  150.5508 C   0  0  0  0  0  0  0  0  0  0  0  0
  144.5617  132.0796  150.4812 N   0  0  0  0  0  0  0  0  0  0  0  0
  143.8258  133.1720  150.7763 C   0  0  0  0  0  0  0  0  0  0  0  0
  144.3873  134.4078  151.1552 C   0  0  0  0  0  0  0  0  0  0  0  0
  147.9121  137.4880  152.0806 H   0  0  0  0  0  0  0  0  0  0  0  0
  147.3723  139.8056  152.0360 H   0  0  0  0  0  0  0  0  0  0  0  0
  145.7092  139.4566  152.4460 H   0  0  0  0  0  0  0  0  0  0  0  0
  146.6885  140.2736  154.5043 H   0  0  0  0  0  0  0  0  0  0  0  0
  146.5883  138.5515  154.7202 H   0  0  0  0  0  0  0  0  0  0  0  0
  151.0249  138.3360  155.8044 H   0  0  0  0  0  0  0  0  0  0  0  0
  151.2384  137.9102  154.1051 H   0  0  0  0  0  0  0  0  0  0  0  0
  147.4943  135.6267  151.6200 H   0  0  0  0  0  0  0  0  0  0  0  0
  147.6465  133.4093  150.9545 H   0  0  0  0  0  0  0  0  0  0  0  0
  146.4704  131.3024  150.3042 H   0  0  0  0  0  0  0  0  0  0  0  0
  142.7542  133.0604  150.7018 H   0  0  0  0  0  0  0  0  0  0  0  0
  143.7325  135.2412  151.3574 H   0  0  0  0  0  0  0  0  0  0  0  0
  1  2  2  0  0  0  0
  2  3  1  0  0  0  0
  2 13  1  0  0  0  0
  3  4  1  0  0  0  0
  3 20  1  0  0  0  0
  4  5  1  0  0  0  0
  4 21  1  0  0  0  0
  4 22  1  0  0  0  0
  5  6  1  0  0  0  0
  5 23  1  0  0  0  0
  5 24  1  0  0  0  0
  6 11  1  0  0  0  0
  6  7  1  0  0  0  0
  7  8  2  0  0  0  0
  7  9  1  0  0  0  0
  9 10  1  0  0  0  0
  9 25  1  0  0  0  0
  9 26  1  0  0  0  0
 10 11  1  0  0  0  0
 11 12  2  0  0  0  0
 13 14  1  0  0  0  0
 13 27  1  0  0  0  0
 14 19  1  0  0  0  0
 14 15  2  0  0  0  0
 15 16  1  0  0  0  0
 15 28  1  0  0  0  0
 16 17  2  0  0  0  0
 16 29  1  0  0  0  0
 17 18  1  0  0  0  0
 18 19  2  0  0  0  0
 18 30  1  0  0  0  0
 19 31  1  0  0  0  0
M  CHG  1  10  -1
M  END
> <s_m_source_file>
AV-unprocessed.smi

> <i_m_source_file_index>
2648

> <i_lp_mmshare_version>
43012

> <i_f3d_flags>
0

> <s_epik_input>
W2NIXTFbY0hdbltjSF1bY0hdYzFbTkhdQyg9TylbTkhdW0NIMl1bQ0gyXU4yQyg9TylbQ0gyXVtOSF1DMj1P

> <s_epik_cmdline>
J2VwaWtfcHl0aG9uJywgJy1waCcsICc3LjAnLCAnLXRuJywgJzgnLCAnLW1hJywgJzIwMCcsICctbWV0YWxfYmluZGluZycsICctaW1hZScsICc8aW5maWxlLm1hZT4nLCAnLW9tYWUnLCAnPG91dGZpbGUubWFlPic=

> <r_lp_tautomer_probability>
1

> <r_epik_Ionization_Penalty>
5.93063

> <r_epik_Ionization_Penalty_Charging>
5.82164

> <r_epik_Ionization_Penalty_Neutral>
0.10899

> <r_epik_State_Penalty>
5.92035

> <r_epik_Charging_Adjusted_Penalty>
11.742

> <i_epik_Tot_Q>
-1

> <i_epik_Tot_abs_Q>
1

> <r_epik_Metal_State_Penalty>
1.97767

> <b_epik_Metal_Only>
1

> <s_lp_Force_Field>
OPLS_2005

> <r_lp_Energy>
14.3233

> <b_lp_Chiralities_Consistent>
1

> <s_lp_Variant>
AV-unprocessed.smi:2648-3

> <Gold.Version>
5.8.1

> <Gold.Id.Protein>
6NUR|6NUR_protein|mol2

> <Gold.PLP.Fitness>
45.7879

> <Gold.PLP.PLP>
-29.5248

> <Gold.PLP.part.hbond>
-4.3889

> <Gold.PLP.part.metal>
0.0000

> <Gold.PLP.part.buried>
-4.5794

> <Gold.PLP.part.nonpolar>
-24.1943

> <Gold.PLP.part.repulsive>
2.9748

> <Gold.PLP.ligand.clash>
0.0000

> <Gold.PLP.ligand.torsion>
0.4608

> <Gold.PLP.Chemscore.Hbond>
3.7280

> <Gold.PLP.Chemscore.CHOScore>
1.9973

> <Gold.PLP.Chemscore.Metal>
0.0000

> <Gold.Chemscore.Hbonds>
donor molecule, donor type, donor heavy atom, donor atom, acceptor molecule, acceptor atom, score
      L1  H     3    20       P1  7948  0.96
      L1  H    13    27       P1  7948  1.00
      P1  H  7989  7998       L1    10  1.00
      P1  H  8011  8017       L1    12  0.77
      L1  C    16    29       P1 10747  0.99
      L1  C    18    30       P1 10186  1.00

> <Gold.PLP.Chemscore.Internal.Correction>
0.0086

> <Gold.Rescore>
     Score         DG    S(hbond)    S(metal)    S(lipo)     H(rot)  DE(clash)    DE(int)     intcor
     15.29     -18.82       3.47        0.00      56.55       1.90       1.86       1.66       ----

> <Gold.Chemscore.Fitness>
15.2894

> <Gold.Chemscore.DG>
-18.8180

> <Gold.Chemscore.ZeroCoef>
-5.4800

> <Gold.Chemscore.Hbond>
3.4665

> <Gold.Chemscore.Metal>
0.0000

> <Gold.Chemscore.Lipo>
56.5465

> <Gold.Chemscore.Internal_Hbond>
0.0000

> <Gold.Chemscore.DEClash>
1.8642

> <Gold.Chemscore.DEInternal>
1.6644

> <Gold.Chemscore.Rot>
1.8969

> <Gold.Chemscore.Internal.Correction>
   9.000000E+99

> <Gold.Chemscore.Hbonds>
donor molecule, donor type, donor heavy atom, donor atom, acceptor molecule, acceptor atom, score
      L1  H     3    20       P1  7948  0.92
      L1  H    13    27       P1  7948  0.92
      P1  H  7989  7998       L1    10  0.60
      P1  H  8011  8017       L1    12  0.74

> <Gold.Chemscore.Hbond.Weighted>
-11.5782

> <Gold.Chemscore.Metal.Weighted>
-0.0000

> <Gold.Chemscore.Lipo.Weighted>
-6.6159

> <Gold.Chemscore.Internal_Hbond.Weighted>
0.0000

> <Gold.Chemscore.DEClash.Weighted>
1.8642

> <Gold.Chemscore.DEInternal.Weighted>
1.6644

> <Gold.Chemscore.Rot.Weighted>
4.8561

> <Gold.Chemscore.Internal.Correction.Weighted>
   9.000000E+99

> <Gold.Protein.RotatedTorsions>
[ 6907 6896 6895 6894 ] final   -4.77 input  -60.11 | X-H torsion
[ 7974 7965 7964 7962 ] final  165.53 input  175.53 | X-H torsion
[ 8008 7997 7996 7995 ] final  -67.03 input   59.86 | X-H torsion
[ 10167 10162 10161 10158 ] final  101.32 input  -65.29 | X-H torsion
[ 10718 10713 10712 10709 ] final  174.27 input   66.30 | X-H torsion
[ 10763 10752 10751 10750 ] final -110.91 input  -60.55 | X-H torsion
[ 11005 11000 10999 10996 ] final   31.15 input  -57.11 | X-H torsion

> <Gold.Protein.ActiveResidues>
 VAL166  LYS551  ARG553  GLY616  TRP617  ASP618  TYR619  PRO620  LYS621  CYS622 
 ASP623  PHE694  ASN695  SER759  ASP760  ASP761  ALA762  ILE779  LEU786  VAL792 
 PHE793  MET794  SER795  GLU796  ALA797  LYS798  CYS799  TRP800  GLU811  SER814 

> <Gold.Protein.RotatedAtoms>
  151.4923  135.1058  159.9806 H   0  0  0  0  0  0  0  0  0  0  0  0  # atno 6907 bound_to 6896
  152.4736  133.8081  159.6999 H   0  0  0  0  0  0  0  0  0  0  0  0  # atno 6908 bound_to 6896
  150.8759  133.7377  159.2973 H   0  0  0  0  0  0  0  0  0  0  0  0  # atno 6909 bound_to 6896
  144.7499  139.8484  143.6370 H   0  0  0  0  0  0  0  0  0  0  0  0  # atno 7974 bound_to 7965
  154.4773  140.0901  156.7293 H   0  0  0  0  0  0  0  0  0  0  0  0  # atno 8008 bound_to 7997
  155.4563  140.3459  155.4289 H   0  0  0  0  0  0  0  0  0  0  0  0  # atno 8009 bound_to 7997
  156.1136  140.1454  156.9292 H   0  0  0  0  0  0  0  0  0  0  0  0  # atno 8010 bound_to 7997
  139.7449  144.7001  151.0520 H   0  0  0  0  0  0  0  0  0  0  0  0  # atno 10167 bound_to 10162
  156.9521  131.0034  151.2946 H   0  0  0  0  0  0  0  0  0  0  0  0  # atno 10718 bound_to 10713
  154.8273  135.4547  154.0958 H   0  0  0  0  0  0  0  0  0  0  0  0  # atno 10763 bound_to 10752
  153.2261  135.6900  153.7950 H   0  0  0  0  0  0  0  0  0  0  0  0  # atno 10764 bound_to 10752
  153.7349  135.3321  155.3269 H   0  0  0  0  0  0  0  0  0  0  0  0  # atno 10765 bound_to 10752
  140.2870  134.2908  155.7786 H   0  0  0  0  0  0  0  0  0  0  0  0  # atno 11005 bound_to 11000
  146.1433  139.4496  143.0095 LP  0  0  0  0  0  0  0  0  0  0  0  0  # atno 17320 bound_to 7965
  145.6984  141.0143  143.1518 LP  0  0  0  0  0  0  0  0  0  0  0  0  # atno 17321 bound_to 7965
  140.7791  143.4879  150.9931 LP  0  0  0  0  0  0  0  0  0  0  0  0  # atno 17342 bound_to 10162
  139.8567  143.7367  152.3175 LP  0  0  0  0  0  0  0  0  0  0  0  0  # atno 17343 bound_to 10162
  157.5715  130.8313  149.8398 LP  0  0  0  0  0  0  0  0  0  0  0  0  # atno 17370 bound_to 10713
  156.0358  130.3752  150.1564 LP  0  0  0  0  0  0  0  0  0  0  0  0  # atno 17371 bound_to 10713
  141.2153  133.7561  156.9566 LP  0  0  0  0  0  0  0  0  0  0  0  0  # atno 17394 bound_to 11000
  140.1231  134.9404  157.2231 LP  0  0  0  0  0  0  0  0  0  0  0  0  # atno 17395 bound_to 11000

$$$$
