AV-unprocessed.smi:861|AV-procd|sdf|3974|dock4
  -GOLD-   22720 1453D 1   1.00000     0.00000
 Structure written by MMmdl.
 45 46  0  0  0  0  0  0  0  0  3 V2000
  145.2426  130.0954  151.6496 C   0  0  0  0  0  0  0  0  0  0  0  0
  145.5064  131.5747  151.3206 C   0  0  0  0  0  0  0  0  0  0  0  0
  146.0881  132.2959  152.5467 C   0  0  0  0  0  0  0  0  0  0  0  0
  144.2470  132.3027  150.8062 C   0  0  0  0  0  0  0  0  0  0  0  0
  144.5314  133.6736  150.1610 C   0  0  0  0  0  0  0  0  0  0  0  0
  143.6735  134.7496  150.7264 N   0  3  1  0  0  0  0  0  0  0  0  0
  143.2890  134.5545  152.1479 C   0  0  0  0  0  0  0  0  0  0  0  0
  144.4385  134.9335  153.1008 C   0  0  0  0  0  0  0  0  0  0  0  0
  144.8645  136.2642  152.8338 O   0  0  0  0  0  0  0  0  0  0  0  0
  145.3614  136.4244  151.5086 C   0  0  2  0  0  0  0  0  0  0  0  0
  145.8635  137.8682  151.3575 C   0  0  0  0  0  0  0  0  0  0  0  0
  147.2090  138.0298  151.8881 N   0  0  0  0  0  0  0  0  0  0  0  0
  147.5982  139.2329  152.4922 C   0  0  0  0  0  0  0  0  0  0  0  0
  148.8839  139.4699  153.0316 C   0  0  0  0  0  0  0  0  0  0  0  0
  149.1425  140.7237  153.6109 C   0  0  0  0  0  0  0  0  0  0  0  0
  148.0999  141.6672  153.6155 C   0  0  0  0  0  0  0  0  0  0  0  0
  146.8774  141.4214  153.0943 N   0  0  0  0  0  0  0  0  0  0  0  0
  146.6606  140.2120  152.5479 N   0  3  0  0  0  0  0  0  0  0  0  0
  144.2154  136.1162  150.5213 C   0  0  0  0  0  0  0  0  0  0  0  0
  144.4585  129.9896  152.4000 H   0  0  0  0  0  0  0  0  0  0  0  0
  146.1407  129.6171  152.0416 H   0  0  0  0  0  0  0  0  0  0  0  0
  144.9416  129.5305  150.7679 H   0  0  0  0  0  0  0  0  0  0  0  0
  146.2641  131.6140  150.5367 H   0  0  0  0  0  0  0  0  0  0  0  0
  145.3831  132.2955  153.3788 H   0  0  0  0  0  0  0  0  0  0  0  0
  146.3315  133.3336  152.3169 H   0  0  0  0  0  0  0  0  0  0  0  0
  147.0052  131.8149  152.8883 H   0  0  0  0  0  0  0  0  0  0  0  0
  143.7213  131.6644  150.0945 H   0  0  0  0  0  0  0  0  0  0  0  0
  143.5673  132.4363  151.6472 H   0  0  0  0  0  0  0  0  0  0  0  0
  145.5862  133.9317  150.2551 H   0  0  0  0  0  0  0  0  0  0  0  0
  144.3304  133.5974  149.0928 H   0  0  0  0  0  0  0  0  0  0  0  0
  142.4299  135.1935  152.3565 H   0  0  0  0  0  0  0  0  0  0  0  0
  142.9580  133.5339  152.3354 H   0  0  0  0  0  0  0  0  0  0  0  0
  144.0979  134.8764  154.1347 H   0  0  0  0  0  0  0  0  0  0  0  0
  145.2780  134.2433  153.0103 H   0  0  0  0  0  0  0  0  0  0  0  0
  146.1927  135.7378  151.3376 H   0  0  0  0  0  0  0  0  0  0  0  0
  145.8770  138.1375  150.3008 H   0  0  0  0  0  0  0  0  0  0  0  0
  145.1830  138.5573  151.8594 H   0  0  0  0  0  0  0  0  0  0  0  0
  147.8116  137.2209  151.9442 H   0  0  0  0  0  0  0  0  0  0  0  0
  149.6605  138.7199  153.0104 H   0  0  0  0  0  0  0  0  0  0  0  0
  150.1068  140.9562  154.0383 H   0  0  0  0  0  0  0  0  0  0  0  0
  148.2489  142.6454  154.0487 H   0  0  0  0  0  0  0  0  0  0  0  0
  144.5432  136.2452  149.4890 H   0  0  0  0  0  0  0  0  0  0  0  0
  143.4039  136.8299  150.6722 H   0  0  0  0  0  0  0  0  0  0  0  0
  142.8189  134.7108  150.1887 H   0  0  0  0  0  0  0  0  0  0  0  0
  145.7395  140.0206  152.1529 H   0  0  0  0  0  0  0  0  0  0  0  0
  1  2  1  0  0  0  0
  1 20  1  0  0  0  0
  1 21  1  0  0  0  0
  1 22  1  0  0  0  0
  2  3  1  0  0  0  0
  2  4  1  0  0  0  0
  2 23  1  0  0  0  0
  3 24  1  0  0  0  0
  3 25  1  0  0  0  0
  3 26  1  0  0  0  0
  4  5  1  0  0  0  0
  4 27  1  0  0  0  0
  4 28  1  0  0  0  0
  5  6  1  0  0  0  0
  5 29  1  0  0  0  0
  5 30  1  0  0  0  0
  6 19  1  0  0  0  0
  6  7  1  0  0  0  0
  6 44  1  0  0  0  0
  7  8  1  0  0  0  0
  7 31  1  0  0  0  0
  7 32  1  0  0  0  0
  8  9  1  0  0  0  0
  8 33  1  0  0  0  0
  8 34  1  0  0  0  0
  9 10  1  0  0  0  0
 10 11  1  0  0  0  0
 10 19  1  0  0  0  0
 10 35  1  0  0  0  0
 11 12  1  0  0  0  0
 11 36  1  0  0  0  0
 11 37  1  0  0  0  0
 12 13  1  0  0  0  0
 12 38  1  0  0  0  0
 13 18  1  0  0  0  0
 13 14  2  0  0  0  0
 14 15  1  0  0  0  0
 14 39  1  0  0  0  0
 15 16  2  0  0  0  0
 15 40  1  0  0  0  0
 16 17  1  0  0  0  0
 16 41  1  0  0  0  0
 17 18  2  0  0  0  0
 18 45  1  0  0  0  0
 19 42  1  0  0  0  0
 19 43  1  0  0  0  0
M  CHG  1   6   1
M  CHG  1  18   1
M  END
> <s_m_source_file>
AV-unprocessed.smi

> <i_m_source_file_index>
861

> <i_lp_mmshare_version>
43012

> <i_f3d_flags>
0

> <s_epik_input>
W0NIM11bQ0hdKFtDSDNdKVtDSDJdW0NIMl1OMVtDSDJdW0NIMl1PW0NASF0oW0NIMl0xKVtDSDJdW05IXWMyW2NIXVtjSF1bY0hdbm4y

> <s_epik_cmdline>
J2VwaWtfcHl0aG9uJywgJy1waCcsICc3LjAnLCAnLXRuJywgJzgnLCAnLW1hJywgJzIwMCcsICctbWV0YWxfYmluZGluZycsICctaW1hZScsICc8aW5maWxlLm1hZT4nLCAnLW9tYWUnLCAnPG91dGZpbGUubWFlPic=

> <r_lp_tautomer_probability>
0.966961

> <r_epik_Ionization_Penalty>
2.478

> <r_epik_Ionization_Penalty_Charging>
2.47799

> <r_epik_Ionization_Penalty_Neutral>
3.15286e-06

> <r_epik_State_Penalty>
2.10794

> <r_epik_Charging_Adjusted_Penalty>
4.58594

> <i_epik_Tot_Q>
2

> <i_epik_Tot_abs_Q>
2

> <r_epik_Metal_State_Penalty>
2.11378

> <b_epik_Metal_Only>
0

> <s_lp_Force_Field>
OPLS_2005

> <r_lp_Energy>
35.7333

> <b_lp_Chiralities_Consistent>
1

> <s_lp_Variant>
AV-unprocessed.smi:861-9

> <Gold.Version>
5.8.1

> <Gold.Id.Protein>
6NUR|6NUR_protein|mol2

> <Gold.PLP.Fitness>
48.5427

> <Gold.PLP.PLP>
-30.0304

> <Gold.PLP.part.hbond>
-3.0000

> <Gold.PLP.part.metal>
0.0000

> <Gold.PLP.part.buried>
2.2450

> <Gold.PLP.part.nonpolar>
-30.1207

> <Gold.PLP.part.repulsive>
0.3504

> <Gold.PLP.ligand.clash>
0.1107

> <Gold.PLP.ligand.torsion>
1.1034

> <Gold.PLP.Chemscore.Hbond>
5.9200

> <Gold.PLP.Chemscore.CHOScore>
1.0000

> <Gold.PLP.Chemscore.Metal>
0.0000

> <Gold.Chemscore.Hbonds>
donor molecule, donor type, donor heavy atom, donor atom, acceptor molecule, acceptor atom, score
      L1  H     6    44       P1 10186  2.00
      L1  H    12    38       P1  7948  1.79
      L1  H    18    45       P1 10175  1.30
      L1  C    16    41       P1  8028  0.66

> <Gold.PLP.Chemscore.Internal.Correction>
0.0697

> <Gold.Rescore>
     Score         DG    S(hbond)    S(metal)    S(lipo)     H(rot)  DE(clash)    DE(int)     intcor
     15.61     -17.52       2.12        0.00      81.35       1.78       1.09       0.82       ----

> <Gold.Chemscore.Fitness>
15.6092

> <Gold.Chemscore.DG>
-17.5200

> <Gold.Chemscore.ZeroCoef>
-5.4800

> <Gold.Chemscore.Hbond>
2.1162

> <Gold.Chemscore.Metal>
0.0000

> <Gold.Chemscore.Lipo>
81.3519

> <Gold.Chemscore.Internal_Hbond>
0.0000

> <Gold.Chemscore.DEClash>
1.0900

> <Gold.Chemscore.DEInternal>
0.8208

> <Gold.Chemscore.Rot>
1.7759

> <Gold.Chemscore.Internal.Correction>
   9.000000E+99

> <Gold.Chemscore.Hbonds>
donor molecule, donor type, donor heavy atom, donor atom, acceptor molecule, acceptor atom, score
      L1  H     6    44       P1 10186  0.50
      L1  H    12    38       P1  7948  0.87
      L1  H    18    45       P1 10175  0.44

> <Gold.Chemscore.Hbond.Weighted>
-7.0681

> <Gold.Chemscore.Metal.Weighted>
-0.0000

> <Gold.Chemscore.Lipo.Weighted>
-9.5182

> <Gold.Chemscore.Internal_Hbond.Weighted>
0.0000

> <Gold.Chemscore.DEClash.Weighted>
1.0900

> <Gold.Chemscore.DEInternal.Weighted>
0.8208

> <Gold.Chemscore.Rot.Weighted>
4.5462

> <Gold.Chemscore.Internal.Correction.Weighted>
   9.000000E+99

> <Gold.Protein.RotatedTorsions>
[ 6907 6896 6895 6894 ] final -133.63 input  -60.11 | X-H torsion
[ 7974 7965 7964 7962 ] final  156.17 input  175.53 | X-H torsion
[ 8008 7997 7996 7995 ] final -162.64 input   59.86 | X-H torsion
[ 10167 10162 10161 10158 ] final    3.43 input  -65.29 | X-H torsion
[ 10718 10713 10712 10709 ] final  -91.70 input   66.30 | X-H torsion
[ 10763 10752 10751 10750 ] final  -80.39 input  -60.55 | X-H torsion
[ 11005 11000 10999 10996 ] final  113.94 input  -57.11 | X-H torsion

> <Gold.Protein.ActiveResidues>
 VAL166  LYS551  ARG553  GLY616  TRP617  ASP618  TYR619  PRO620  LYS621  CYS622 
 ASP623  PHE694  ASN695  SER759  ASP760  ASP761  ALA762  ILE779  LEU786  VAL792 
 PHE793  MET794  SER795  GLU796  ALA797  LYS798  CYS799  TRP800  GLU811  SER814 

> <Gold.Protein.RotatedAtoms>
  150.9763  133.6292  159.2729 H   0  0  0  0  0  0  0  0  0  0  0  0  # atno 6907 bound_to 6896
  151.3563  135.0894  159.9429 H   0  0  0  0  0  0  0  0  0  0  0  0  # atno 6908 bound_to 6896
  152.5200  133.9345  159.7651 H   0  0  0  0  0  0  0  0  0  0  0  0  # atno 6909 bound_to 6896
  144.7979  139.7167  143.6194 H   0  0  0  0  0  0  0  0  0  0  0  0  # atno 7974 bound_to 7965
  155.8098  140.0904  157.1910 H   0  0  0  0  0  0  0  0  0  0  0  0  # atno 8008 bound_to 7997
  154.3980  140.1457  156.3432 H   0  0  0  0  0  0  0  0  0  0  0  0  # atno 8009 bound_to 7997
  155.8377  140.3440  155.5614 H   0  0  0  0  0  0  0  0  0  0  0  0  # atno 8010 bound_to 7997
  140.6586  143.7362  150.7698 H   0  0  0  0  0  0  0  0  0  0  0  0  # atno 10167 bound_to 10162
  155.9996  130.4958  150.5514 H   0  0  0  0  0  0  0  0  0  0  0  0  # atno 10718 bound_to 10713
  154.5506  135.5662  153.6919 H   0  0  0  0  0  0  0  0  0  0  0  0  # atno 10763 bound_to 10752
  152.9989  135.6250  154.2378 H   0  0  0  0  0  0  0  0  0  0  0  0  # atno 10764 bound_to 10752
  154.2313  135.2866  155.2868 H   0  0  0  0  0  0  0  0  0  0  0  0  # atno 10765 bound_to 10752
  139.8966  134.9559  156.6816 H   0  0  0  0  0  0  0  0  0  0  0  0  # atno 11005 bound_to 11000
  146.2253  139.5711  142.9591 LP  0  0  0  0  0  0  0  0  0  0  0  0  # atno 17320 bound_to 7965
  145.5626  141.0403  143.2218 LP  0  0  0  0  0  0  0  0  0  0  0  0  # atno 17321 bound_to 7965
  140.1027  143.4773  152.2416 LP  0  0  0  0  0  0  0  0  0  0  0  0  # atno 17342 bound_to 10162
  139.5814  144.7512  151.3629 LP  0  0  0  0  0  0  0  0  0  0  0  0  # atno 17343 bound_to 10162
  157.3437  131.0721  151.1768 LP  0  0  0  0  0  0  0  0  0  0  0  0  # atno 17370 bound_to 10713
  157.2608  130.6658  149.5973 LP  0  0  0  0  0  0  0  0  0  0  0  0  # atno 17371 bound_to 10713
  140.7295  133.9071  155.8201 LP  0  0  0  0  0  0  0  0  0  0  0  0  # atno 17394 bound_to 11000
  141.0164  134.0949  157.4167 LP  0  0  0  0  0  0  0  0  0  0  0  0  # atno 17395 bound_to 11000

$$$$
