AV-unprocessed.smi:2510|AV-procd|sdf|9882|dock2
  -GOLD-   2272013513D 1   1.00000     0.00000
 Structure written by MMmdl.
 48 49  0  0  0  0  0  0  0  0  1 V2000
  147.4758  141.6762  154.2562 C   0  0  0  0  0  0  0  0  0  0  0  0
  148.6215  140.7627  153.7845 C   0  0  0  0  0  0  0  0  0  0  0  0
  149.2914  139.8513  154.8519 C   0  0  0  0  0  0  0  0  0  0  0  0
  149.5430  140.7431  156.0925 C   0  0  0  0  0  0  0  0  0  0  0  0
  150.6283  141.8190  155.9101 C   0  0  0  0  0  0  0  0  0  0  0  0
  148.6189  138.4877  155.1942 C   0  0  1  0  0  0  0  0  0  0  0  0
  147.8376  137.9183  154.0984 N   0  0  0  0  0  0  0  0  0  0  0  0
  146.5131  138.0541  153.9314 C   0  0  0  0  0  0  0  0  0  0  0  0
  145.8026  138.7153  154.6879 O   0  0  0  0  0  0  0  0  0  0  0  0
  145.8915  137.3586  152.7149 C   0  0  0  0  0  0  0  0  0  0  0  0
  144.4433  137.0367  152.9251 C   0  0  0  0  0  0  0  0  0  0  0  0
  143.7928  135.8426  153.0662 C   0  0  0  0  0  0  0  0  0  0  0  0
  142.4200  136.2021  153.2024 C   0  0  0  0  0  0  0  0  0  0  0  0
  141.2381  135.2952  153.3792 C   0  0  0  0  0  0  0  0  0  0  0  0
  142.2337  137.5128  153.1560 N   0  0  0  0  0  0  0  0  0  0  0  0
  143.4726  138.0110  152.9899 N   0  0  0  0  0  0  0  0  0  0  0  0
  150.0108  137.8367  155.2931 C   0  0  1  0  0  0  0  0  0  0  0  0
  150.2200  136.3893  154.8495 C   0  0  0  0  0  0  0  0  0  0  0  0
  150.5102  138.9907  154.4107 C   0  0  2  0  0  0  0  0  0  0  0  0
  151.7518  139.5586  154.8021 O   0  0  0  0  0  0  0  0  0  0  0  0
  152.8205  138.6285  154.7923 C   0  0  0  0  0  0  0  0  0  0  0  0
  143.6386  139.0053  152.9206 H   0  0  0  0  0  0  0  0  0  0  0  0
  147.1215  142.2943  153.4312 H   0  0  0  0  0  0  0  0  0  0  0  0
  147.7798  142.3508  155.0553 H   0  0  0  0  0  0  0  0  0  0  0  0
  146.6238  141.0938  154.6078 H   0  0  0  0  0  0  0  0  0  0  0  0
  148.2129  140.1599  152.9727 H   0  0  0  0  0  0  0  0  0  0  0  0
  149.3817  141.3872  153.3143 H   0  0  0  0  0  0  0  0  0  0  0  0
  148.6243  141.2518  156.3855 H   0  0  0  0  0  0  0  0  0  0  0  0
  149.8030  140.1254  156.9531 H   0  0  0  0  0  0  0  0  0  0  0  0
  150.7153  142.4282  156.8100 H   0  0  0  0  0  0  0  0  0  0  0  0
  150.3989  142.4911  155.0838 H   0  0  0  0  0  0  0  0  0  0  0  0
  151.6083  141.3812  155.7219 H   0  0  0  0  0  0  0  0  0  0  0  0
  148.0996  138.4714  156.1533 H   0  0  0  0  0  0  0  0  0  0  0  0
  148.3423  137.3604  153.4247 H   0  0  0  0  0  0  0  0  0  0  0  0
  146.0011  137.9995  151.8391 H   0  0  0  0  0  0  0  0  0  0  0  0
  146.4565  136.4487  152.5090 H   0  0  0  0  0  0  0  0  0  0  0  0
  144.2319  134.8558  153.0623 H   0  0  0  0  0  0  0  0  0  0  0  0
  141.5322  134.2475  153.3138 H   0  0  0  0  0  0  0  0  0  0  0  0
  140.4849  135.4761  152.6118 H   0  0  0  0  0  0  0  0  0  0  0  0
  140.7687  135.4478  154.3513 H   0  0  0  0  0  0  0  0  0  0  0  0
  150.3812  137.9712  156.3107 H   0  0  0  0  0  0  0  0  0  0  0  0
  150.0296  136.2600  153.7836 H   0  0  0  0  0  0  0  0  0  0  0  0
  149.5541  135.7136  155.3867 H   0  0  0  0  0  0  0  0  0  0  0  0
  151.2412  136.0600  155.0396 H   0  0  0  0  0  0  0  0  0  0  0  0
  150.4955  138.7101  153.3569 H   0  0  0  0  0  0  0  0  0  0  0  0
  153.7472  139.1366  155.0588 H   0  0  0  0  0  0  0  0  0  0  0  0
  152.9521  138.1869  153.8037 H   0  0  0  0  0  0  0  0  0  0  0  0
  152.6596  137.8297  155.5159 H   0  0  0  0  0  0  0  0  0  0  0  0
  1  2  1  0  0  0  0
  1 23  1  0  0  0  0
  1 24  1  0  0  0  0
  1 25  1  0  0  0  0
  2  3  1  0  0  0  0
  2 26  1  0  0  0  0
  2 27  1  0  0  0  0
  3 19  1  0  0  0  0
  3  4  1  0  0  0  0
  3  6  1  0  0  0  0
  4  5  1  0  0  0  0
  4 28  1  0  0  0  0
  4 29  1  0  0  0  0
  5 30  1  0  0  0  0
  5 31  1  0  0  0  0
  5 32  1  0  0  0  0
  6  7  1  0  0  0  0
  6 17  1  0  0  0  0
  6 33  1  0  0  0  0
  7  8  1  0  0  0  0
  7 34  1  0  0  0  0
  8  9  2  0  0  0  0
  8 10  1  0  0  0  0
 10 35  1  0  0  0  0
 10 36  1  0  0  0  0
 10 11  1  0  0  0  0
 11 16  1  0  0  0  0
 11 12  2  0  0  0  0
 12 13  1  0  0  0  0
 12 37  1  0  0  0  0
 13 14  1  0  0  0  0
 13 15  2  0  0  0  0
 14 38  1  0  0  0  0
 14 39  1  0  0  0  0
 14 40  1  0  0  0  0
 15 16  1  0  0  0  0
 16 22  1  0  0  0  0
 17 18  1  0  0  0  0
 17 19  1  0  0  0  0
 17 41  1  0  0  0  0
 18 42  1  0  0  0  0
 18 43  1  0  0  0  0
 18 44  1  0  0  0  0
 19 20  1  0  0  0  0
 19 45  1  0  0  0  0
 20 21  1  0  0  0  0
 21 46  1  0  0  0  0
 21 47  1  0  0  0  0
 21 48  1  0  0  0  0
M  END
> <s_m_source_file>
AV-unprocessed.smi

> <i_m_source_file_index>
2510

> <i_lp_mmshare_version>
43012

> <i_f3d_flags>
0

> <s_epik_input>
W0NIM11PW0NAQEhdMVtDQEhdKFtDSDNdKVtDQEBIXShDMShbQ0gyXVtDSDNdKVtDSDJdW0NIM10pW05IXUMoPU8pW0NIMl1jMltjSF1jKFtDSDNdKVtuSF1uMg==

> <s_epik_cmdline>
J2VwaWtfcHl0aG9uJywgJy1waCcsICc3LjAnLCAnLXRuJywgJzgnLCAnLW1hJywgJzIwMCcsICctbWV0YWxfYmluZGluZycsICctaW1hZScsICc8aW5maWxlLm1hZT4nLCAnLW9tYWUnLCAnPG91dGZpbGUubWFlPic=

> <r_lp_tautomer_probability>
0.5

> <r_epik_Ionization_Penalty>
0.000134763

> <r_epik_Ionization_Penalty_Charging>
0

> <r_epik_Ionization_Penalty_Neutral>
0.000134763

> <r_epik_State_Penalty>
0.41068

> <r_epik_Charging_Adjusted_Penalty>
0.41068

> <i_epik_Tot_Q>
0

> <i_epik_Tot_abs_Q>
0

> <r_epik_Metal_State_Penalty>
0.410661

> <b_epik_Metal_Only>
0

> <s_lp_Force_Field>
OPLS_2005

> <r_lp_Energy>
26.4004

> <b_lp_Chiralities_Consistent>
1

> <s_lp_Variant>
AV-unprocessed.smi:2510-13

> <Gold.Version>
5.8.1

> <Gold.Id.Protein>
6NUR|6NUR_protein|mol2

> <Gold.PLP.Fitness>
40.0308

> <Gold.PLP.PLP>
-33.3697

> <Gold.PLP.part.hbond>
-3.0131

> <Gold.PLP.part.metal>
0.0000

> <Gold.PLP.part.buried>
-4.7995

> <Gold.PLP.part.nonpolar>
-27.1819

> <Gold.PLP.part.repulsive>
0.3577

> <Gold.PLP.ligand.clash>
0.0000

> <Gold.PLP.ligand.torsion>
1.0958

> <Gold.PLP.Chemscore.Hbond>
2.7500

> <Gold.PLP.Chemscore.CHOScore>
0.0000

> <Gold.PLP.Chemscore.Metal>
0.0000

> <Gold.Chemscore.Hbonds>
donor molecule, donor type, donor heavy atom, donor atom, acceptor molecule, acceptor atom, score
      L1  H     7    34       P1  7948  1.00
      L1  H    16    22       P1 10175  0.93
      P1  H  7989  7998       L1    20  0.65

> <Gold.PLP.Chemscore.Internal.Correction>
0.6028

> <Gold.Rescore>
     Score         DG    S(hbond)    S(metal)    S(lipo)     H(rot)  DE(clash)    DE(int)     intcor
     15.23     -18.60       2.33        0.00      85.11       1.81       1.05       2.32       ----

> <Gold.Chemscore.Fitness>
15.2282

> <Gold.Chemscore.DG>
-18.5979

> <Gold.Chemscore.ZeroCoef>
-5.4800

> <Gold.Chemscore.Hbond>
2.3337

> <Gold.Chemscore.Metal>
0.0000

> <Gold.Chemscore.Lipo>
85.1065

> <Gold.Chemscore.Internal_Hbond>
0.0000

> <Gold.Chemscore.DEClash>
1.0460

> <Gold.Chemscore.DEInternal>
2.3237

> <Gold.Chemscore.Rot>
1.8102

> <Gold.Chemscore.Internal.Correction>
   9.000000E+99

> <Gold.Chemscore.Hbonds>
donor molecule, donor type, donor heavy atom, donor atom, acceptor molecule, acceptor atom, score
      L1  H     7    34       P1  7948  0.94
      L1  H    16    22       P1 10175  0.88
      P1  H  7989  7998       L1    20  0.05

> <Gold.Chemscore.Hbond.Weighted>
-7.7945

> <Gold.Chemscore.Metal.Weighted>
-0.0000

> <Gold.Chemscore.Lipo.Weighted>
-9.9575

> <Gold.Chemscore.Internal_Hbond.Weighted>
0.0000

> <Gold.Chemscore.DEClash.Weighted>
1.0460

> <Gold.Chemscore.DEInternal.Weighted>
2.3237

> <Gold.Chemscore.Rot.Weighted>
4.6341

> <Gold.Chemscore.Internal.Correction.Weighted>
   9.000000E+99

> <Gold.Protein.RotatedTorsions>
[ 6907 6896 6895 6894 ] final  -75.17 input  -60.11 | X-H torsion
[ 7974 7965 7964 7962 ] final   62.90 input  175.53 | X-H torsion
[ 8008 7997 7996 7995 ] final  151.77 input   59.86 | X-H torsion
[ 10167 10162 10161 10158 ] final   94.59 input  -65.29 | X-H torsion
[ 10718 10713 10712 10709 ] final  141.62 input   66.30 | X-H torsion
[ 10763 10752 10751 10750 ] final  -42.78 input  -60.55 | X-H torsion
[ 11005 11000 10999 10996 ] final  -93.96 input  -57.11 | X-H torsion

> <Gold.Protein.ActiveResidues>
 VAL166  LYS551  ARG553  GLY616  TRP617  ASP618  TYR619  PRO620  LYS621  CYS622 
 ASP623  PHE694  ASN695  SER759  ASP760  ASP761  ALA762  ILE779  LEU786  VAL792 
 PHE793  MET794  SER795  GLU796  ALA797  LYS798  CYS799  TRP800  GLU811  SER814 

> <Gold.Protein.RotatedAtoms>
  150.7068  134.4760  159.5447 H   0  0  0  0  0  0  0  0  0  0  0  0  # atno 6907 bound_to 6896
  152.2407  134.8228  160.0470 H   0  0  0  0  0  0  0  0  0  0  0  0  # atno 6908 bound_to 6896
  151.9011  133.3503  159.3868 H   0  0  0  0  0  0  0  0  0  0  0  0  # atno 6909 bound_to 6896
  145.8681  139.3359  143.0779 H   0  0  0  0  0  0  0  0  0  0  0  0  # atno 7974 bound_to 7965
  156.2659  140.2039  156.6228 H   0  0  0  0  0  0  0  0  0  0  0  0  # atno 8008 bound_to 7997
  154.6744  140.0546  157.0224 H   0  0  0  0  0  0  0  0  0  0  0  0  # atno 8009 bound_to 7997
  155.1091  140.3213  155.4529 H   0  0  0  0  0  0  0  0  0  0  0  0  # atno 8010 bound_to 7997
  139.8069  144.6790  150.9691 H   0  0  0  0  0  0  0  0  0  0  0  0  # atno 10167 bound_to 10162
  157.3900  131.1003  151.0656 H   0  0  0  0  0  0  0  0  0  0  0  0  # atno 10718 bound_to 10713
  153.9846  135.6713  153.4751 H   0  0  0  0  0  0  0  0  0  0  0  0  # atno 10763 bound_to 10752
  153.0732  135.4962  154.8346 H   0  0  0  0  0  0  0  0  0  0  0  0  # atno 10764 bound_to 10752
  154.7144  135.3104  154.9108 H   0  0  0  0  0  0  0  0  0  0  0  0  # atno 10765 bound_to 10752
  141.1483  133.7923  157.0232 H   0  0  0  0  0  0  0  0  0  0  0  0  # atno 11005 bound_to 11000
  145.9170  140.9141  143.0425 LP  0  0  0  0  0  0  0  0  0  0  0  0  # atno 17320 bound_to 7965
  144.6726  140.1237  143.7448 LP  0  0  0  0  0  0  0  0  0  0  0  0  # atno 17321 bound_to 7965
  140.7819  143.4225  151.0820 LP  0  0  0  0  0  0  0  0  0  0  0  0  # atno 17342 bound_to 10162
  139.7893  143.8241  152.3149 LP  0  0  0  0  0  0  0  0  0  0  0  0  # atno 17343 bound_to 10162
  157.1693  130.6260  149.5635 LP  0  0  0  0  0  0  0  0  0  0  0  0  # atno 17370 bound_to 10713
  155.9796  130.4790  150.6724 LP  0  0  0  0  0  0  0  0  0  0  0  0  # atno 17371 bound_to 10713
  140.0802  134.9652  157.1611 LP  0  0  0  0  0  0  0  0  0  0  0  0  # atno 17394 bound_to 11000
  140.3588  134.2518  155.7189 LP  0  0  0  0  0  0  0  0  0  0  0  0  # atno 17395 bound_to 11000

$$$$
