AV-unprocessed.smi:355|AV-procd|sdf|2407|dock5
  -GOLD-   2262022343D 1   1.00000     0.00000
 Structure written by MMmdl.
 39 40  0  0  0  0  0  0  0  0  1 V2000
  151.7120  145.5547  159.8559 C   0  0  0  0  0  0  0  0  0  0  0  0
  151.9625  144.0661  159.9834 C   0  0  0  0  0  0  0  0  0  0  0  0
  152.5543  143.5455  161.1513 C   0  0  0  0  0  0  0  0  0  0  0  0
  152.7853  142.1623  161.2655 C   0  0  0  0  0  0  0  0  0  0  0  0
  152.4268  141.2991  160.2130 C   0  0  0  0  0  0  0  0  0  0  0  0
  151.8376  141.8035  159.0357 C   0  0  0  0  0  0  0  0  0  0  0  0
  151.5195  140.8877  158.0565 O   0  0  0  0  0  0  0  0  0  0  0  0
  150.9375  141.3619  156.8504 C   0  0  0  0  0  0  0  0  0  0  0  0
  151.1620  140.3425  155.7155 C   0  0  0  0  0  0  0  0  0  0  0  0
  149.9438  139.5513  155.4160 N   0  0  0  0  0  0  0  0  0  0  0  0
  149.8571  138.1849  155.8333 C   0  0  0  0  0  0  0  0  0  0  0  0
  151.0595  137.5247  156.5251 C   0  0  0  0  0  0  0  0  0  0  0  0
  150.8218  136.2375  156.7809 F   0  0  0  0  0  0  0  0  0  0  0  0
  152.1385  137.5681  155.7428 F   0  0  0  0  0  0  0  0  0  0  0  0
  151.3429  138.0970  157.6943 F   0  0  0  0  0  0  0  0  0  0  0  0
  148.7282  137.4875  155.6087 C   0  0  0  0  0  0  0  0  0  0  0  0
  147.6150  138.1070  154.9454 C   0  0  0  0  0  0  0  0  0  0  0  0
  147.6913  139.3877  154.5182 C   0  0  0  0  0  0  0  0  0  0  0  0
  146.5709  140.0682  153.8286 C   0  0  0  0  0  0  0  0  0  0  0  0
  145.5949  139.2467  153.4221 N   0  0  0  0  0  0  0  0  0  0  0  0
  146.4611  141.2734  153.6028 O   0  0  0  0  0  0  0  0  0  0  0  0
  148.9272  140.1836  154.7355 C   0  0  0  0  0  0  0  0  0  0  0  0
  149.0694  141.3463  154.3458 O   0  0  0  0  0  0  0  0  0  0  0  0
  151.6077  143.1988  158.9292 C   0  0  0  0  0  0  0  0  0  0  0  0
  151.6349  146.0248  160.8369 H   0  0  0  0  0  0  0  0  0  0  0  0
  150.7833  145.7454  159.3172 H   0  0  0  0  0  0  0  0  0  0  0  0
  152.5290  146.0282  159.3113 H   0  0  0  0  0  0  0  0  0  0  0  0
  152.8323  144.2034  161.9617 H   0  0  0  0  0  0  0  0  0  0  0  0
  153.2383  141.7621  162.1605 H   0  0  0  0  0  0  0  0  0  0  0  0
  152.6079  140.2385  160.3085 H   0  0  0  0  0  0  0  0  0  0  0  0
  149.8645  141.4922  156.9985 H   0  0  0  0  0  0  0  0  0  0  0  0
  151.3594  142.3316  156.5841 H   0  0  0  0  0  0  0  0  0  0  0  0
  151.5338  140.8610  154.8301 H   0  0  0  0  0  0  0  0  0  0  0  0
  152.0020  139.7070  155.9768 H   0  0  0  0  0  0  0  0  0  0  0  0
  148.6418  136.4541  155.9100 H   0  0  0  0  0  0  0  0  0  0  0  0
  146.7284  137.5063  154.8061 H   0  0  0  0  0  0  0  0  0  0  0  0
  144.7874  139.6182  152.9439 H   0  0  0  0  0  0  0  0  0  0  0  0
  145.6710  138.2554  153.5988 H   0  0  0  0  0  0  0  0  0  0  0  0
  151.1576  143.6264  158.0462 H   0  0  0  0  0  0  0  0  0  0  0  0
  1  2  1  0  0  0  0
  1 25  1  0  0  0  0
  1 26  1  0  0  0  0
  1 27  1  0  0  0  0
  2 24  1  0  0  0  0
  2  3  2  0  0  0  0
  3  4  1  0  0  0  0
  3 28  1  0  0  0  0
  4  5  2  0  0  0  0
  4 29  1  0  0  0  0
  5  6  1  0  0  0  0
  5 30  1  0  0  0  0
  6  7  1  0  0  0  0
  6 24  2  0  0  0  0
  7  8  1  0  0  0  0
  8  9  1  0  0  0  0
  8 31  1  0  0  0  0
  8 32  1  0  0  0  0
  9 10  1  0  0  0  0
  9 33  1  0  0  0  0
  9 34  1  0  0  0  0
 10 22  1  0  0  0  0
 10 11  1  0  0  0  0
 11 12  1  0  0  0  0
 11 16  2  0  0  0  0
 12 13  1  0  0  0  0
 12 14  1  0  0  0  0
 12 15  1  0  0  0  0
 16 17  1  0  0  0  0
 16 35  1  0  0  0  0
 17 18  2  0  0  0  0
 17 36  1  0  0  0  0
 18 19  1  0  0  0  0
 18 22  1  0  0  0  0
 19 20  1  0  0  0  0
 19 21  2  0  0  0  0
 20 37  1  0  0  0  0
 20 38  1  0  0  0  0
 22 23  2  0  0  0  0
 24 39  1  0  0  0  0
M  END
> <s_m_source_file>
AV-unprocessed.smi

> <i_m_source_file_index>
355

> <i_lp_mmshare_version>
43012

> <i_f3d_flags>
0

> <s_epik_input>
W0NIM11jMVtjSF1bY0hdW2NIXWMoW2NIXTEpT1tDSDJdW0NIMl1uMmMoQyhGKShGKUYpW2NIXVtjSF1jKGMyPU8pQyg9TylbTkgyXQ==

> <s_epik_cmdline>
J2VwaWtfcHl0aG9uJywgJy1waCcsICc3LjAnLCAnLXRuJywgJzgnLCAnLW1hJywgJzIwMCcsICctbWV0YWxfYmluZGluZycsICctaW1hZScsICc8aW5maWxlLm1hZT4nLCAnLW9tYWUnLCAnPG91dGZpbGUubWFlPic=

> <r_lp_tautomer_probability>
1

> <r_epik_Ionization_Penalty>
1.75992e-06

> <r_epik_Ionization_Penalty_Charging>
1.13667e-09

> <r_epik_Ionization_Penalty_Neutral>
1.75878e-06

> <r_epik_State_Penalty>
-0

> <r_epik_Charging_Adjusted_Penalty>
1.13667e-09

> <i_epik_Tot_Q>
0

> <i_epik_Tot_abs_Q>
0

> <r_epik_Metal_State_Penalty>
-0

> <b_epik_Metal_Only>
0

> <s_lp_Force_Field>
OPLS_2005

> <r_lp_Energy>
35.0119

> <b_lp_Chiralities_Consistent>
1

> <s_lp_Variant>
AV-unprocessed.smi:355-1

> <Gold.Version>
5.8.1

> <Gold.Id.Protein>
6NUR|6NUR_protein|mol2

> <Gold.PLP.Fitness>
46.9549

> <Gold.PLP.PLP>
-43.1850

> <Gold.PLP.part.hbond>
-3.0000

> <Gold.PLP.part.metal>
0.0000

> <Gold.PLP.part.buried>
-1.3327

> <Gold.PLP.part.nonpolar>
-38.6799

> <Gold.PLP.part.repulsive>
0.4008

> <Gold.PLP.ligand.clash>
3.5925

> <Gold.PLP.ligand.torsion>
0.6886

> <Gold.PLP.Chemscore.Hbond>
1.6995

> <Gold.PLP.Chemscore.CHOScore>
0.0000

> <Gold.PLP.Chemscore.Metal>
0.0000

> <Gold.Chemscore.Hbonds>
donor molecule, donor type, donor heavy atom, donor atom, acceptor molecule, acceptor atom, score
      L1  H    20    37       P1 10175  0.86
      P1  H  8011  8017       L1    23  0.07

> <Gold.PLP.Chemscore.Internal.Correction>
3.6412

> <Gold.Rescore>
     Score         DG    S(hbond)    S(metal)    S(lipo)     H(rot)  DE(clash)    DE(int)     intcor
     13.34     -19.79       1.76        0.00     112.26       1.84       1.40       5.05       ----

> <Gold.Chemscore.Fitness>
13.3392

> <Gold.Chemscore.DG>
-19.7946

> <Gold.Chemscore.ZeroCoef>
-5.4800

> <Gold.Chemscore.Hbond>
1.7644

> <Gold.Chemscore.Metal>
0.0000

> <Gold.Chemscore.Lipo>
112.2649

> <Gold.Chemscore.Internal_Hbond>
0.0000

> <Gold.Chemscore.DEClash>
1.4040

> <Gold.Chemscore.DEInternal>
5.0513

> <Gold.Chemscore.Rot>
1.8412

> <Gold.Chemscore.Internal.Correction>
   9.000000E+99

> <Gold.Chemscore.Hbonds>
donor molecule, donor type, donor heavy atom, donor atom, acceptor molecule, acceptor atom, score
      L1  H    20    37       P1 10175  0.84
      P1  H  8011  8017       L1    23  0.09

> <Gold.Chemscore.Hbond.Weighted>
-5.8930

> <Gold.Chemscore.Metal.Weighted>
-0.0000

> <Gold.Chemscore.Lipo.Weighted>
-13.1350

> <Gold.Chemscore.Internal_Hbond.Weighted>
0.0000

> <Gold.Chemscore.DEClash.Weighted>
1.4040

> <Gold.Chemscore.DEInternal.Weighted>
5.0513

> <Gold.Chemscore.Rot.Weighted>
4.7134

> <Gold.Chemscore.Internal.Correction.Weighted>
   9.000000E+99

> <Gold.Protein.RotatedTorsions>
[ 6907 6896 6895 6894 ] final  -98.13 input  -60.11 | X-H torsion
[ 7974 7965 7964 7962 ] final  167.93 input  175.53 | X-H torsion
[ 8008 7997 7996 7995 ] final   96.17 input   59.86 | X-H torsion
[ 10167 10162 10161 10158 ] final   23.27 input  -65.29 | X-H torsion
[ 10718 10713 10712 10709 ] final -155.28 input   66.30 | X-H torsion
[ 10763 10752 10751 10750 ] final  165.35 input  -60.55 | X-H torsion
[ 11005 11000 10999 10996 ] final -110.24 input  -57.11 | X-H torsion

> <Gold.Protein.ActiveResidues>
 VAL166  LYS551  ARG553  GLY616  TRP617  ASP618  TYR619  PRO620  LYS621  CYS622 
 ASP623  PHE694  ASN695  SER759  ASP760  ASP761  ALA762  ILE779  LEU786  VAL792 
 PHE793  MET794  SER795  GLU796  ALA797  LYS798  CYS799  TRP800  GLU811  SER814 

> <Gold.Protein.RotatedAtoms>
  150.7037  134.1241  159.4045 H   0  0  0  0  0  0  0  0  0  0  0  0  # atno 6907 bound_to 6896
  151.9227  135.0289  160.0532 H   0  0  0  0  0  0  0  0  0  0  0  0  # atno 6908 bound_to 6896
  152.2242  133.4972  159.5216 H   0  0  0  0  0  0  0  0  0  0  0  0  # atno 6909 bound_to 6896
  144.7406  139.8833  143.6398 H   0  0  0  0  0  0  0  0  0  0  0  0  # atno 7974 bound_to 7965
  156.0767  140.3276  155.7643 H   0  0  0  0  0  0  0  0  0  0  0  0  # atno 8008 bound_to 7997
  155.5218  140.0586  157.2922 H   0  0  0  0  0  0  0  0  0  0  0  0  # atno 8009 bound_to 7997
  154.4559  140.1942  156.0398 H   0  0  0  0  0  0  0  0  0  0  0  0  # atno 8010 bound_to 7997
  140.5282  143.9887  150.6451 H   0  0  0  0  0  0  0  0  0  0  0  0  # atno 10167 bound_to 10162
  156.5107  130.8433  151.2645 H   0  0  0  0  0  0  0  0  0  0  0  0  # atno 10718 bound_to 10713
  154.3227  135.2755  155.2511 H   0  0  0  0  0  0  0  0  0  0  0  0  # atno 10763 bound_to 10752
  154.4858  135.5846  153.6426 H   0  0  0  0  0  0  0  0  0  0  0  0  # atno 10764 bound_to 10752
  152.9875  135.6122  154.3413 H   0  0  0  0  0  0  0  0  0  0  0  0  # atno 10765 bound_to 10752
  141.0803  133.9231  157.2303 H   0  0  0  0  0  0  0  0  0  0  0  0  # atno 11005 bound_to 11000
  146.1195  139.4211  143.0237 LP  0  0  0  0  0  0  0  0  0  0  0  0  # atno 17320 bound_to 7965
  145.7325  141.0037  143.1344 LP  0  0  0  0  0  0  0  0  0  0  0  0  # atno 17321 bound_to 7965
  140.3254  143.3110  152.0741 LP  0  0  0  0  0  0  0  0  0  0  0  0  # atno 17342 bound_to 10162
  139.4945  144.6545  151.6602 LP  0  0  0  0  0  0  0  0  0  0  0  0  # atno 17343 bound_to 10162
  157.7451  130.9950  150.2730 LP  0  0  0  0  0  0  0  0  0  0  0  0  # atno 17370 bound_to 10713
  156.3243  130.3790  149.7547 LP  0  0  0  0  0  0  0  0  0  0  0  0  # atno 17371 bound_to 10713
  139.9617  135.0152  156.9277 LP  0  0  0  0  0  0  0  0  0  0  0  0  # atno 17394 bound_to 11000
  140.5483  134.0652  155.7361 LP  0  0  0  0  0  0  0  0  0  0  0  0  # atno 17395 bound_to 11000

$$$$
