AV-unprocessed.smi:552|AV-procd|sdf|2903|dock2
  -GOLD-   2262023393D 1   1.00000     0.00000
 Structure written by MMmdl.
 42 43  0  0  0  0  0  0  0  0  1 V2000
  145.9610  134.4003  151.1074 C   0  0  0  0  0  0  0  0  0  0  0  0
  145.0869  135.6591  151.0092 C   0  0  0  0  0  0  0  0  0  0  0  0
  145.0847  136.5185  152.2884 C   0  0  1  0  0  0  0  0  0  0  0  0
  144.4168  135.7861  153.4603 C   0  0  0  0  0  0  0  0  0  0  0  0
  146.4501  136.8848  152.6639 N   0  0  0  0  0  0  0  0  0  0  0  0
  146.7978  137.7148  153.6587 C   0  0  0  0  0  0  0  0  0  0  0  0
  145.9872  138.2767  154.3949 O   0  0  0  0  0  0  0  0  0  0  0  0
  148.1323  137.8646  153.7195 N   0  0  0  0  0  0  0  0  0  0  0  0
  148.8888  138.6536  154.6272 C   0  0  0  0  0  0  0  0  0  0  0  0
  148.5750  138.8058  155.9986 C   0  0  0  0  0  0  0  0  0  0  0  0
  149.4119  139.6017  156.8037 C   0  0  0  0  0  0  0  0  0  0  0  0
  150.5386  140.2137  156.2180 C   0  0  0  0  0  0  0  0  0  0  0  0
  151.3707  141.0096  157.0174 N   0  0  0  0  0  0  0  0  0  0  0  0
  151.9274  140.3017  158.1634 C   0  0  0  0  0  0  0  0  0  0  0  0
  152.9273  141.2067  158.9040 C   0  0  0  0  0  0  0  0  0  0  0  0
  152.2863  142.4238  159.2763 O   0  0  0  0  0  0  0  0  0  0  0  0
  151.8073  143.1447  158.1442 C   0  0  0  0  0  0  0  0  0  0  0  0
  150.7779  142.2893  157.3854 C   0  0  0  0  0  0  0  0  0  0  0  0
  150.8539  140.0607  154.9101 N   0  0  0  0  0  0  0  0  0  0  0  0
  150.0480  139.2954  154.1440 C   0  0  0  0  0  0  0  0  0  0  0  0
  145.9710  133.8623  150.1594 H   0  0  0  0  0  0  0  0  0  0  0  0
  145.5928  133.7137  151.8698 H   0  0  0  0  0  0  0  0  0  0  0  0
  146.9915  134.6555  151.3554 H   0  0  0  0  0  0  0  0  0  0  0  0
  145.4449  136.2638  150.1751 H   0  0  0  0  0  0  0  0  0  0  0  0
  144.0661  135.3698  150.7558 H   0  0  0  0  0  0  0  0  0  0  0  0
  144.4948  137.4148  152.0895 H   0  0  0  0  0  0  0  0  0  0  0  0
  143.3881  135.5174  153.2187 H   0  0  0  0  0  0  0  0  0  0  0  0
  144.3907  136.4131  154.3521 H   0  0  0  0  0  0  0  0  0  0  0  0
  144.9498  134.8685  153.7125 H   0  0  0  0  0  0  0  0  0  0  0  0
  147.1909  136.4775  152.1123 H   0  0  0  0  0  0  0  0  0  0  0  0
  148.6647  137.4109  152.9918 H   0  0  0  0  0  0  0  0  0  0  0  0
  147.7234  138.3210  156.4500 H   0  0  0  0  0  0  0  0  0  0  0  0
  149.1923  139.7347  157.8530 H   0  0  0  0  0  0  0  0  0  0  0  0
  151.1249  140.0053  158.8405 H   0  0  0  0  0  0  0  0  0  0  0  0
  152.4230  139.3892  157.8298 H   0  0  0  0  0  0  0  0  0  0  0  0
  153.2930  140.7081  159.8016 H   0  0  0  0  0  0  0  0  0  0  0  0
  153.7968  141.4183  158.2795 H   0  0  0  0  0  0  0  0  0  0  0  0
  151.3487  144.0742  158.4816 H   0  0  0  0  0  0  0  0  0  0  0  0
  152.6406  143.4173  157.4944 H   0  0  0  0  0  0  0  0  0  0  0  0
  150.4422  142.8128  156.4892 H   0  0  0  0  0  0  0  0  0  0  0  0
  149.9001  142.1241  158.0118 H   0  0  0  0  0  0  0  0  0  0  0  0
  150.3373  139.1979  153.1078 H   0  0  0  0  0  0  0  0  0  0  0  0
  1  2  1  0  0  0  0
  1 21  1  0  0  0  0
  1 22  1  0  0  0  0
  1 23  1  0  0  0  0
  2  3  1  0  0  0  0
  2 24  1  0  0  0  0
  2 25  1  0  0  0  0
  3  4  1  0  0  0  0
  3  5  1  0  0  0  0
  3 26  1  0  0  0  0
  4 27  1  0  0  0  0
  4 28  1  0  0  0  0
  4 29  1  0  0  0  0
  5  6  1  0  0  0  0
  5 30  1  0  0  0  0
  6  7  2  0  0  0  0
  6  8  1  0  0  0  0
  8  9  1  0  0  0  0
  8 31  1  0  0  0  0
  9 20  1  0  0  0  0
  9 10  2  0  0  0  0
 10 11  1  0  0  0  0
 10 32  1  0  0  0  0
 11 12  2  0  0  0  0
 11 33  1  0  0  0  0
 12 13  1  0  0  0  0
 12 19  1  0  0  0  0
 13 18  1  0  0  0  0
 13 14  1  0  0  0  0
 14 15  1  0  0  0  0
 14 34  1  0  0  0  0
 14 35  1  0  0  0  0
 15 16  1  0  0  0  0
 15 36  1  0  0  0  0
 15 37  1  0  0  0  0
 16 17  1  0  0  0  0
 17 18  1  0  0  0  0
 17 38  1  0  0  0  0
 17 39  1  0  0  0  0
 18 40  1  0  0  0  0
 18 41  1  0  0  0  0
 19 20  2  0  0  0  0
 20 42  1  0  0  0  0
M  END
> <s_m_source_file>
AV-unprocessed.smi

> <i_m_source_file_index>
552

> <i_lp_mmshare_version>
43012

> <i_f3d_flags>
0

> <s_epik_input>
W0NIM11bQ0gyXVtDQEhdKFtDSDNdKVtOSF1DKD1PKVtOSF1jMVtjSF1bY0hdYyhuW2NIXTEpTjJbQ0gyXVtDSDJdT1tDSDJdW0NIMl0y

> <s_epik_cmdline>
J2VwaWtfcHl0aG9uJywgJy1waCcsICc3LjAnLCAnLXRuJywgJzgnLCAnLW1hJywgJzIwMCcsICctbWV0YWxfYmluZGluZycsICctaW1hZScsICc8aW5maWxlLm1hZT4nLCAnLW9tYWUnLCAnPG91dGZpbGUubWFlPic=

> <r_lp_tautomer_probability>
1

> <r_epik_Ionization_Penalty>
0.00215965

> <r_epik_Ionization_Penalty_Charging>
0

> <r_epik_Ionization_Penalty_Neutral>
0.00215965

> <r_epik_State_Penalty>
0.00145276

> <r_epik_Charging_Adjusted_Penalty>
0.00145276

> <i_epik_Tot_Q>
0

> <i_epik_Tot_abs_Q>
0

> <r_epik_Metal_State_Penalty>
-0

> <b_epik_Metal_Only>
0

> <s_lp_Force_Field>
OPLS_2005

> <r_lp_Energy>
22.6914

> <b_lp_Chiralities_Consistent>
1

> <s_lp_Variant>
AV-unprocessed.smi:552-2

> <Gold.Version>
5.8.1

> <Gold.Id.Protein>
6NUR|6NUR_protein|mol2

> <Gold.PLP.Fitness>
38.5196

> <Gold.PLP.PLP>
-28.0305

> <Gold.PLP.part.hbond>
-3.0000

> <Gold.PLP.part.metal>
0.0000

> <Gold.PLP.part.buried>
-4.6510

> <Gold.PLP.part.nonpolar>
-21.2095

> <Gold.PLP.part.repulsive>
0.2348

> <Gold.PLP.ligand.clash>
0.0000

> <Gold.PLP.ligand.torsion>
0.4468

> <Gold.PLP.Chemscore.Hbond>
2.7500

> <Gold.PLP.Chemscore.CHOScore>
1.0000

> <Gold.PLP.Chemscore.Metal>
0.0000

> <Gold.Chemscore.Hbonds>
donor molecule, donor type, donor heavy atom, donor atom, acceptor molecule, acceptor atom, score
      L1  H     5    30       P1  7948  0.99
      L1  H     8    31       P1  7948  1.00
      P1  H  7989  7998       L1    19  0.70
      L1  C    20    42       P1  7957  1.00

> <Gold.PLP.Chemscore.Internal.Correction>
0.1327

> <Gold.Rescore>
     Score         DG    S(hbond)    S(metal)    S(lipo)     H(rot)  DE(clash)    DE(int)     intcor
     16.58     -17.15       2.24        0.00      65.35       1.35       0.04       0.53       ----

> <Gold.Chemscore.Fitness>
16.5807

> <Gold.Chemscore.DG>
-17.1475

> <Gold.Chemscore.ZeroCoef>
-5.4800

> <Gold.Chemscore.Hbond>
2.2412

> <Gold.Chemscore.Metal>
0.0000

> <Gold.Chemscore.Lipo>
65.3467

> <Gold.Chemscore.Internal_Hbond>
0.0000

> <Gold.Chemscore.DEClash>
0.0358

> <Gold.Chemscore.DEInternal>
0.5310

> <Gold.Chemscore.Rot>
1.3530

> <Gold.Chemscore.Internal.Correction>
   9.000000E+99

> <Gold.Chemscore.Hbonds>
donor molecule, donor type, donor heavy atom, donor atom, acceptor molecule, acceptor atom, score
      L1  H     5    30       P1  7948  0.94
      L1  H     8    31       P1  7948  0.98
      P1  H  7989  7998       L1    19  0.07

> <Gold.Chemscore.Hbond.Weighted>
-7.4857

> <Gold.Chemscore.Metal.Weighted>
-0.0000

> <Gold.Chemscore.Lipo.Weighted>
-7.6456

> <Gold.Chemscore.Internal_Hbond.Weighted>
0.0000

> <Gold.Chemscore.DEClash.Weighted>
0.0358

> <Gold.Chemscore.DEInternal.Weighted>
0.5310

> <Gold.Chemscore.Rot.Weighted>
3.4638

> <Gold.Chemscore.Internal.Correction.Weighted>
   9.000000E+99

> <Gold.Protein.RotatedTorsions>
[ 6907 6896 6895 6894 ] final  168.03 input  -60.11 | X-H torsion
[ 7974 7965 7964 7962 ] final  -58.70 input  175.53 | X-H torsion
[ 8008 7997 7996 7995 ] final    1.66 input   59.86 | X-H torsion
[ 10167 10162 10161 10158 ] final -165.64 input  -65.29 | X-H torsion
[ 10718 10713 10712 10709 ] final   43.50 input   66.30 | X-H torsion
[ 10763 10752 10751 10750 ] final -115.52 input  -60.55 | X-H torsion
[ 11005 11000 10999 10996 ] final  -56.25 input  -57.11 | X-H torsion

> <Gold.Protein.ActiveResidues>
 VAL166  LYS551  ARG553  GLY616  TRP617  ASP618  TYR619  PRO620  LYS621  CYS622 
 ASP623  PHE694  ASN695  SER759  ASP760  ASP761  ALA762  ILE779  LEU786  VAL792 
 PHE793  MET794  SER795  GLU796  ALA797  LYS798  CYS799  TRP800  GLU811  SER814 

> <Gold.Protein.RotatedAtoms>
  151.8540  133.3445  159.3682 H   0  0  0  0  0  0  0  0  0  0  0  0  # atno 6907 bound_to 6896
  150.7198  134.5271  159.5691 H   0  0  0  0  0  0  0  0  0  0  0  0  # atno 6908 bound_to 6896
  152.2771  134.7870  160.0454 H   0  0  0  0  0  0  0  0  0  0  0  0  # atno 6909 bound_to 6896
  145.8363  140.8447  143.0058 H   0  0  0  0  0  0  0  0  0  0  0  0  # atno 7974 bound_to 7965
  154.6824  140.2635  155.6895 H   0  0  0  0  0  0  0  0  0  0  0  0  # atno 8008 bound_to 7997
  156.2702  140.2807  156.1296 H   0  0  0  0  0  0  0  0  0  0  0  0  # atno 8009 bound_to 7997
  155.1012  140.0374  157.2687 H   0  0  0  0  0  0  0  0  0  0  0  0  # atno 8010 bound_to 7997
  139.6168  144.0703  152.1895 H   0  0  0  0  0  0  0  0  0  0  0  0  # atno 10167 bound_to 10162
  157.4166  130.7945  149.7477 H   0  0  0  0  0  0  0  0  0  0  0  0  # atno 10718 bound_to 10713
  154.8484  135.4378  154.1676 H   0  0  0  0  0  0  0  0  0  0  0  0  # atno 10763 bound_to 10752
  153.2797  135.6952  153.7403 H   0  0  0  0  0  0  0  0  0  0  0  0  # atno 10764 bound_to 10752
  153.6612  135.3434  155.3102 H   0  0  0  0  0  0  0  0  0  0  0  0  # atno 10765 bound_to 10752
  141.1111  133.6610  156.4591 H   0  0  0  0  0  0  0  0  0  0  0  0  # atno 11005 bound_to 11000
  144.6736  140.0746  143.7471 LP  0  0  0  0  0  0  0  0  0  0  0  0  # atno 17320 bound_to 7965
  145.9515  139.2737  143.1209 LP  0  0  0  0  0  0  0  0  0  0  0  0  # atno 17321 bound_to 7965
  140.0335  144.6062  150.7468 LP  0  0  0  0  0  0  0  0  0  0  0  0  # atno 17342 bound_to 10162
  140.7356  143.2743  151.3790 LP  0  0  0  0  0  0  0  0  0  0  0  0  # atno 17343 bound_to 10162
  155.9867  130.3972  150.3200 LP  0  0  0  0  0  0  0  0  0  0  0  0  # atno 17370 bound_to 10713
  157.1343  131.0280  151.2955 LP  0  0  0  0  0  0  0  0  0  0  0  0  # atno 17371 bound_to 10713
  140.4771  134.6699  157.5155 LP  0  0  0  0  0  0  0  0  0  0  0  0  # atno 17394 bound_to 11000
  140.0006  134.6842  155.9536 LP  0  0  0  0  0  0  0  0  0  0  0  0  # atno 17395 bound_to 11000

$$$$
