AV-unprocessed.smi:2881|AV-procd|sdf|11058|dock3
  -GOLD-   2272015523D 1   1.00000     0.00000
 Structure written by MMmdl.
 40 42  0  0  0  0  0  0  0  0  1 V2000
  150.5593  135.2847  155.6217 C   0  0  0  0  0  0  0  0  0  0  0  0
  150.7284  136.7372  155.3299 C   0  0  0  0  0  0  0  0  0  0  0  0
  151.2652  137.7488  156.0749 C   0  0  0  0  0  0  0  0  0  0  0  0
  151.1473  138.9021  155.2433 C   0  0  0  0  0  0  0  0  0  0  0  0
  151.6038  140.3074  155.5391 C   0  0  0  0  0  0  0  0  0  0  0  0
  152.0396  140.4213  157.0013 C   0  0  0  0  0  0  0  0  0  0  0  0
  152.7849  139.5739  157.4919 O   0  0  0  0  0  0  0  0  0  0  0  0
  151.5471  141.4637  157.6891 N   0  0  0  0  0  0  0  0  0  0  0  0
  151.7240  141.7044  159.1200 C   0  0  1  0  0  0  0  0  0  0  0  0
  153.2089  141.9937  159.4278 C   0  0  2  0  0  0  0  0  0  0  0  0
  153.4403  141.8835  160.9458 C   0  0  0  0  0  0  0  0  0  0  0  0
  152.7384  143.1454  161.4830 C   0  0  0  0  0  0  0  0  0  0  0  0
  152.1960  143.8088  160.2014 C   0  0  1  0  0  0  0  0  0  0  0  0
  153.3078  143.4984  159.2073 C   0  0  0  0  0  0  0  0  0  0  0  0
  151.0056  142.9806  159.6576 C   0  0  1  0  0  0  0  0  0  0  0  0
  150.1359  143.7557  158.6393 C   0  0  0  0  0  0  0  0  0  0  0  0
  149.5775  144.9057  159.2389 O   0  0  0  0  0  0  0  0  0  0  0  0
  150.5736  138.6275  154.0798 N   0  0  0  0  0  0  0  0  0  0  0  0
  150.3256  137.3065  154.1437 N   0  0  0  0  0  0  0  0  0  0  0  0
  149.8847  136.8128  153.3806 H   0  0  0  0  0  0  0  0  0  0  0  0
  151.5288  134.8038  155.7523 H   0  0  0  0  0  0  0  0  0  0  0  0
  150.0373  134.7753  154.8111 H   0  0  0  0  0  0  0  0  0  0  0  0
  149.9842  135.1393  156.5363 H   0  0  0  0  0  0  0  0  0  0  0  0
  151.6901  137.6759  157.0652 H   0  0  0  0  0  0  0  0  0  0  0  0
  152.4303  140.5914  154.8861 H   0  0  0  0  0  0  0  0  0  0  0  0
  150.7990  141.0187  155.3514 H   0  0  0  0  0  0  0  0  0  0  0  0
  150.9501  142.1110  157.1946 H   0  0  0  0  0  0  0  0  0  0  0  0
  151.3991  140.8211  159.6734 H   0  0  0  0  0  0  0  0  0  0  0  0
  153.9089  141.3949  158.8434 H   0  0  0  0  0  0  0  0  0  0  0  0
  153.0284  140.9652  161.3654 H   0  0  0  0  0  0  0  0  0  0  0  0
  154.5053  141.9091  161.1792 H   0  0  0  0  0  0  0  0  0  0  0  0
  151.9488  142.9119  162.1979 H   0  0  0  0  0  0  0  0  0  0  0  0
  153.4562  143.7975  161.9822 H   0  0  0  0  0  0  0  0  0  0  0  0
  151.9813  144.8701  160.3294 H   0  0  0  0  0  0  0  0  0  0  0  0
  154.2745  143.9148  159.4954 H   0  0  0  0  0  0  0  0  0  0  0  0
  153.0798  143.8053  158.1856 H   0  0  0  0  0  0  0  0  0  0  0  0
  150.3541  142.6936  160.4846 H   0  0  0  0  0  0  0  0  0  0  0  0
  150.7110  144.0550  157.7629 H   0  0  0  0  0  0  0  0  0  0  0  0
  149.3103  143.1356  158.2897 H   0  0  0  0  0  0  0  0  0  0  0  0
  149.0622  145.3614  158.5908 H   0  0  0  0  0  0  0  0  0  0  0  0
  1  2  1  0  0  0  0
  1 21  1  0  0  0  0
  1 22  1  0  0  0  0
  1 23  1  0  0  0  0
  2 19  1  0  0  0  0
  2  3  2  0  0  0  0
  3  4  1  0  0  0  0
  3 24  1  0  0  0  0
  4  5  1  0  0  0  0
  4 18  2  0  0  0  0
  5  6  1  0  0  0  0
  5 25  1  0  0  0  0
  5 26  1  0  0  0  0
  6  7  2  0  0  0  0
  6  8  1  0  0  0  0
  8  9  1  0  0  0  0
  8 27  1  0  0  0  0
  9 15  1  0  0  0  0
  9 10  1  0  0  0  0
  9 28  1  0  0  0  0
 10 14  1  0  0  0  0
 10 11  1  0  0  0  0
 10 29  1  0  0  0  0
 11 12  1  0  0  0  0
 11 30  1  0  0  0  0
 11 31  1  0  0  0  0
 12 13  1  0  0  0  0
 12 32  1  0  0  0  0
 12 33  1  0  0  0  0
 13 14  1  0  0  0  0
 13 15  1  0  0  0  0
 13 34  1  0  0  0  0
 14 35  1  0  0  0  0
 14 36  1  0  0  0  0
 15 16  1  0  0  0  0
 15 37  1  0  0  0  0
 16 17  1  0  0  0  0
 16 38  1  0  0  0  0
 16 39  1  0  0  0  0
 17 40  1  0  0  0  0
 18 19  1  0  0  0  0
 19 20  1  0  0  0  0
M  END
> <s_m_source_file>
AV-unprocessed.smi

> <i_m_source_file_index>
2881

> <i_lp_mmshare_version>
43012

> <i_f3d_flags>
0

> <s_epik_input>
W0NIM11jMVtjSF1jKG5bbkhdMSlbQ0gyXUMoPU8pW05IXVtDQEhdKFtDQEBIXTIzKVtDQEhdKFtDSDJdW09IXSlbQ0BASF0oW0NIMl0zKVtDSDJdW0NIMl0y

> <s_epik_cmdline>
J2VwaWtfcHl0aG9uJywgJy1waCcsICc3LjAnLCAnLXRuJywgJzgnLCAnLW1hJywgJzIwMCcsICctbWV0YWxfYmluZGluZycsICctaW1hZScsICc8aW5maWxlLm1hZT4nLCAnLW9tYWUnLCAnPG91dGZpbGUubWFlPic=

> <r_lp_tautomer_probability>
0.5

> <r_epik_Ionization_Penalty>
9.4349e-05

> <r_epik_Ionization_Penalty_Charging>
0

> <r_epik_Ionization_Penalty_Neutral>
9.4349e-05

> <r_epik_State_Penalty>
0.41068

> <r_epik_Charging_Adjusted_Penalty>
0.41068

> <i_epik_Tot_Q>
0

> <i_epik_Tot_abs_Q>
0

> <r_epik_Metal_State_Penalty>
0.4107

> <b_epik_Metal_Only>
0

> <s_lp_Force_Field>
OPLS_2005

> <r_lp_Energy>
47.5678

> <b_lp_Chiralities_Consistent>
1

> <s_lp_Variant>
AV-unprocessed.smi:2881-4

> <Gold.Version>
5.8.1

> <Gold.Id.Protein>
6NUR|6NUR_protein|mol2

> <Gold.PLP.Fitness>
44.8662

> <Gold.PLP.PLP>
-36.3064

> <Gold.PLP.part.hbond>
-3.9634

> <Gold.PLP.part.metal>
0.0000

> <Gold.PLP.part.buried>
-2.2085

> <Gold.PLP.part.nonpolar>
-30.4597

> <Gold.PLP.part.repulsive>
0.3569

> <Gold.PLP.ligand.clash>
0.0000

> <Gold.PLP.ligand.torsion>
0.2309

> <Gold.PLP.Chemscore.Hbond>
3.0000

> <Gold.PLP.Chemscore.CHOScore>
0.0000

> <Gold.PLP.Chemscore.Metal>
0.0000

> <Gold.Chemscore.Hbonds>
donor molecule, donor type, donor heavy atom, donor atom, acceptor molecule, acceptor atom, score
      L1  H    17    40       P1  8029  1.00
      L1  H    19    20       P1  7948  1.00
      P1  H  7997  8009       L1     7  0.85

> <Gold.PLP.Chemscore.Internal.Correction>
0.0217

> <Gold.Rescore>
     Score         DG    S(hbond)    S(metal)    S(lipo)     H(rot)  DE(clash)    DE(int)     intcor
     19.24     -21.56       2.69        0.00     110.58       2.28       0.52       1.80       ----

> <Gold.Chemscore.Fitness>
19.2363

> <Gold.Chemscore.DG>
-21.5603

> <Gold.Chemscore.ZeroCoef>
-5.4800

> <Gold.Chemscore.Hbond>
2.6851

> <Gold.Chemscore.Metal>
0.0000

> <Gold.Chemscore.Lipo>
110.5765

> <Gold.Chemscore.Internal_Hbond>
0.0000

> <Gold.Chemscore.DEClash>
0.5209

> <Gold.Chemscore.DEInternal>
1.8031

> <Gold.Chemscore.Rot>
2.2755

> <Gold.Chemscore.Internal.Correction>
   9.000000E+99

> <Gold.Chemscore.Hbonds>
donor molecule, donor type, donor heavy atom, donor atom, acceptor molecule, acceptor atom, score
      L1  H    17    40       P1  8029  0.98
      L1  H    19    20       P1  7948  0.26
      P1  H  7997  8009       L1     7  0.15

> <Gold.Chemscore.Hbond.Weighted>
-8.9681

> <Gold.Chemscore.Metal.Weighted>
-0.0000

> <Gold.Chemscore.Lipo.Weighted>
-12.9374

> <Gold.Chemscore.Internal_Hbond.Weighted>
0.0000

> <Gold.Chemscore.DEClash.Weighted>
0.5209

> <Gold.Chemscore.DEInternal.Weighted>
1.8031

> <Gold.Chemscore.Rot.Weighted>
5.8252

> <Gold.Chemscore.Internal.Correction.Weighted>
   9.000000E+99

> <Gold.Protein.RotatedTorsions>
[ 6907 6896 6895 6894 ] final  111.51 input  -60.11 | X-H torsion
[ 7974 7965 7964 7962 ] final  162.83 input  175.53 | X-H torsion
[ 8008 7997 7996 7995 ] final -176.19 input   59.86 | X-H torsion
[ 10167 10162 10161 10158 ] final  108.01 input  -65.29 | X-H torsion
[ 10718 10713 10712 10709 ] final   84.46 input   66.30 | X-H torsion
[ 10763 10752 10751 10750 ] final   86.37 input  -60.55 | X-H torsion
[ 11005 11000 10999 10996 ] final  132.52 input  -57.11 | X-H torsion

> <Gold.Protein.ActiveResidues>
 VAL166  LYS551  ARG553  GLY616  TRP617  ASP618  TYR619  PRO620  LYS621  CYS622 
 ASP623  PHE694  ASN695  SER759  ASP760  ASP761  ALA762  ILE779  LEU786  VAL792 
 PHE793  MET794  SER795  GLU796  ALA797  LYS798  CYS799  TRP800  GLU811  SER814 

> <Gold.Protein.RotatedAtoms>
  152.4965  133.8648  159.7268 H   0  0  0  0  0  0  0  0  0  0  0  0  # atno 6907 bound_to 6896
  150.9150  133.6942  159.2852 H   0  0  0  0  0  0  0  0  0  0  0  0  # atno 6908 bound_to 6896
  151.4338  135.1017  159.9702 H   0  0  0  0  0  0  0  0  0  0  0  0  # atno 6909 bound_to 6896
  144.7618  139.8095  143.6330 H   0  0  0  0  0  0  0  0  0  0  0  0  # atno 7974 bound_to 7965
  155.9918  140.1202  157.0631 H   0  0  0  0  0  0  0  0  0  0  0  0  # atno 8008 bound_to 7997
  154.4214  140.1124  156.5644 H   0  0  0  0  0  0  0  0  0  0  0  0  # atno 8009 bound_to 7997
  155.6332  140.3473  155.4692 H   0  0  0  0  0  0  0  0  0  0  0  0  # atno 8010 bound_to 7997
  139.6880  144.7111  151.1397 H   0  0  0  0  0  0  0  0  0  0  0  0  # atno 10167 bound_to 10162
  157.6898  131.0134  150.2677 H   0  0  0  0  0  0  0  0  0  0  0  0  # atno 10718 bound_to 10713
  153.1563  135.4583  154.9709 H   0  0  0  0  0  0  0  0  0  0  0  0  # atno 10763 bound_to 10752
  154.7864  135.3205  154.7879 H   0  0  0  0  0  0  0  0  0  0  0  0  # atno 10764 bound_to 10752
  153.8376  135.6933  153.4861 H   0  0  0  0  0  0  0  0  0  0  0  0  # atno 10765 bound_to 10752
  139.9795  134.9553  156.9593 H   0  0  0  0  0  0  0  0  0  0  0  0  # atno 11005 bound_to 11000
  146.1688  139.4830  142.9941 LP  0  0  0  0  0  0  0  0  0  0  0  0  # atno 17320 bound_to 7965
  145.6595  141.0244  143.1716 LP  0  0  0  0  0  0  0  0  0  0  0  0  # atno 17321 bound_to 7965
  140.7674  143.5600  150.9109 LP  0  0  0  0  0  0  0  0  0  0  0  0  # atno 17342 bound_to 10162
  139.9276  143.6531  152.3083 LP  0  0  0  0  0  0  0  0  0  0  0  0  # atno 17343 bound_to 10162
  156.3245  130.3791  149.7546 LP  0  0  0  0  0  0  0  0  0  0  0  0  # atno 17370 bound_to 10713
  156.5105  130.8170  151.3167 LP  0  0  0  0  0  0  0  0  0  0  0  0  # atno 17371 bound_to 10713
  140.5126  134.0987  155.7273 LP  0  0  0  0  0  0  0  0  0  0  0  0  # atno 17394 bound_to 11000
  141.1468  133.9040  157.2195 LP  0  0  0  0  0  0  0  0  0  0  0  0  # atno 17395 bound_to 11000

$$$$
