AV-unprocessed.smi:168|AV-procd|sdf|1396|dock5
  -GOLD-   2262019143D 1   1.00000     0.00000
 Structure written by MMmdl.
 62 66  0  0  0  0  0  0  0  0  1 V2000
  150.4996  140.4019  154.9783 C   0  0  0  0  0  0  0  0  0  0  0  0
  151.8705  140.1072  155.6120 C   0  0  0  0  0  0  0  0  0  0  0  0
  152.4406  138.8207  154.9910 C   0  0  0  0  0  0  0  0  0  0  0  0
  151.7873  139.9985  157.1437 C   0  0  2  0  0  0  0  0  0  0  0  0
  150.4426  139.7214  157.6415 N   0  0  0  0  0  0  0  0  0  0  0  0
  150.1102  138.3540  157.8424 C   0  0  0  0  0  0  0  0  0  0  0  0
  149.9483  137.9588  159.1303 N   0  0  0  0  0  0  0  0  0  0  0  0
  149.6243  136.6989  159.4322 C   0  0  0  0  0  0  0  0  0  0  0  0
  149.4214  135.6712  158.6084 N   0  0  0  0  0  0  0  0  0  0  0  0
  149.5914  136.0451  157.3089 C   0  0  0  0  0  0  0  0  0  0  0  0
  149.9263  137.3499  156.8432 C   0  0  0  0  0  0  0  0  0  0  0  0
  149.9956  137.3431  155.4542 N   0  0  0  0  0  0  0  0  0  0  0  0
  149.7106  136.1147  155.1207 C   0  0  0  0  0  0  0  0  0  0  0  0
  149.4853  135.2592  156.1741 N   0  0  0  0  0  0  0  0  0  0  0  0
  149.1190  133.8749  156.0911 C   0  0  0  0  0  0  0  0  0  0  0  0
  150.0372  132.8528  155.4105 C   0  0  0  0  0  0  0  0  0  0  0  0
  148.8066  132.1179  154.8319 C   0  0  0  0  0  0  0  0  0  0  0  0
  148.8933  131.7051  153.3505 C   0  0  0  0  0  0  0  0  0  0  0  0
  147.6558  131.2602  152.8306 O   0  0  0  0  0  0  0  0  0  0  0  0
  148.3612  130.8431  155.5787 C   0  0  0  0  0  0  0  0  0  0  0  0
  149.2581  129.7613  155.4285 O   0  0  0  0  0  0  0  0  0  0  0  0
  148.0097  133.4061  155.1413 C   0  0  0  0  0  0  0  0  0  0  0  0
  150.7171  140.4527  158.8680 C   0  0  0  0  0  0  0  0  0  0  0  0
  151.7660  141.2416  158.0672 C   0  0  0  0  0  0  0  0  0  0  0  0
  151.2624  142.5786  157.4758 C   0  0  0  0  0  0  0  0  0  0  0  0
  151.0717  143.6692  158.5440 C   0  0  0  0  0  0  0  0  0  0  0  0
  152.3699  143.9146  159.3237 C   0  0  0  0  0  0  0  0  0  0  0  0
  152.9304  142.6059  159.8955 C   0  0  0  0  0  0  0  0  0  0  0  0
  153.0846  141.5394  158.7984 C   0  0  0  0  0  0  0  0  0  0  0  0
  149.7643  139.6455  155.2544 H   0  0  0  0  0  0  0  0  0  0  0  0
  150.5651  140.4209  153.8901 H   0  0  0  0  0  0  0  0  0  0  0  0
  150.1129  141.3713  155.2898 H   0  0  0  0  0  0  0  0  0  0  0  0
  152.5410  140.9242  155.3429 H   0  0  0  0  0  0  0  0  0  0  0  0
  151.7955  137.9663  155.1974 H   0  0  0  0  0  0  0  0  0  0  0  0
  153.4299  138.5807  155.3751 H   0  0  0  0  0  0  0  0  0  0  0  0
  152.5302  138.9138  153.9084 H   0  0  0  0  0  0  0  0  0  0  0  0
  152.5091  139.2777  157.5282 H   0  0  0  0  0  0  0  0  0  0  0  0
  149.5137  136.4840  160.4848 H   0  0  0  0  0  0  0  0  0  0  0  0
  149.6642  135.7971  154.0893 H   0  0  0  0  0  0  0  0  0  0  0  0
  148.9006  133.5678  157.1145 H   0  0  0  0  0  0  0  0  0  0  0  0
  150.6708  133.3111  154.6501 H   0  0  0  0  0  0  0  0  0  0  0  0
  150.6372  132.2633  156.1045 H   0  0  0  0  0  0  0  0  0  0  0  0
  149.2302  132.5400  152.7350 H   0  0  0  0  0  0  0  0  0  0  0  0
  149.6181  130.9018  153.2139 H   0  0  0  0  0  0  0  0  0  0  0  0
  147.7754  131.0342  151.9207 H   0  0  0  0  0  0  0  0  0  0  0  0
  148.2564  131.0378  156.6466 H   0  0  0  0  0  0  0  0  0  0  0  0
  147.3840  130.5118  155.2254 H   0  0  0  0  0  0  0  0  0  0  0  0
  149.0203  129.0858  156.0451 H   0  0  0  0  0  0  0  0  0  0  0  0
  147.0474  133.2428  155.6277 H   0  0  0  0  0  0  0  0  0  0  0  0
  147.8965  134.0650  154.2795 H   0  0  0  0  0  0  0  0  0  0  0  0
  149.8703  141.0420  159.2197 H   0  0  0  0  0  0  0  0  0  0  0  0
  151.1473  139.8458  159.6656 H   0  0  0  0  0  0  0  0  0  0  0  0
  151.9568  142.9527  156.7254 H   0  0  0  0  0  0  0  0  0  0  0  0
  150.3169  142.4335  156.9521 H   0  0  0  0  0  0  0  0  0  0  0  0
  150.7406  144.5959  158.0748 H   0  0  0  0  0  0  0  0  0  0  0  0
  150.2806  143.3757  159.2344 H   0  0  0  0  0  0  0  0  0  0  0  0
  153.1095  144.3657  158.6610 H   0  0  0  0  0  0  0  0  0  0  0  0
  152.1955  144.6312  160.1269 H   0  0  0  0  0  0  0  0  0  0  0  0
  153.8934  142.7916  160.3720 H   0  0  0  0  0  0  0  0  0  0  0  0
  152.2662  142.2337  160.6763 H   0  0  0  0  0  0  0  0  0  0  0  0
  153.4808  140.6281  159.2477 H   0  0  0  0  0  0  0  0  0  0  0  0
  153.8418  141.8661  158.0847 H   0  0  0  0  0  0  0  0  0  0  0  0
  1  2  1  0  0  0  0
  1 30  1  0  0  0  0
  1 31  1  0  0  0  0
  1 32  1  0  0  0  0
  2  3  1  0  0  0  0
  2  4  1  0  0  0  0
  2 33  1  0  0  0  0
  3 34  1  0  0  0  0
  3 35  1  0  0  0  0
  3 36  1  0  0  0  0
  4 24  1  0  0  0  0
  4  5  1  0  0  0  0
  4 37  1  0  0  0  0
  5  6  1  0  0  0  0
  5 23  1  0  0  0  0
  6 11  1  0  0  0  0
  6  7  2  0  0  0  0
  7  8  1  0  0  0  0
  8  9  2  0  0  0  0
  8 38  1  0  0  0  0
  9 10  1  0  0  0  0
 10 14  1  0  0  0  0
 10 11  2  0  0  0  0
 11 12  1  0  0  0  0
 12 13  2  0  0  0  0
 13 14  1  0  0  0  0
 13 39  1  0  0  0  0
 14 15  1  0  0  0  0
 15 22  1  0  0  0  0
 15 16  1  0  0  0  0
 15 40  1  0  0  0  0
 16 17  1  0  0  0  0
 16 41  1  0  0  0  0
 16 42  1  0  0  0  0
 17 18  1  0  0  0  0
 17 20  1  0  0  0  0
 17 22  1  0  0  0  0
 18 19  1  0  0  0  0
 18 43  1  0  0  0  0
 18 44  1  0  0  0  0
 19 45  1  0  0  0  0
 20 21  1  0  0  0  0
 20 46  1  0  0  0  0
 20 47  1  0  0  0  0
 21 48  1  0  0  0  0
 22 49  1  0  0  0  0
 22 50  1  0  0  0  0
 23 24  1  0  0  0  0
 23 51  1  0  0  0  0
 23 52  1  0  0  0  0
 24 29  1  0  0  0  0
 24 25  1  0  0  0  0
 25 26  1  0  0  0  0
 25 53  1  0  0  0  0
 25 54  1  0  0  0  0
 26 27  1  0  0  0  0
 26 55  1  0  0  0  0
 26 56  1  0  0  0  0
 27 28  1  0  0  0  0
 27 57  1  0  0  0  0
 27 58  1  0  0  0  0
 28 29  1  0  0  0  0
 28 59  1  0  0  0  0
 28 60  1  0  0  0  0
 29 61  1  0  0  0  0
 29 62  1  0  0  0  0
M  END
> <s_m_source_file>
AV-unprocessed.smi

> <i_m_source_file_index>
168

> <i_lp_mmshare_version>
43012

> <i_f3d_flags>
0

> <s_epik_input>
W0NIMl0xW0NIMl1bQ0gyXVtDSDJdW0NIMl1DMTJbQ0BIXShbQ0hdKFtDSDNdKVtDSDNdKU4oW0NIMl0yKWMobltjSF1uMyljKGMzNCluW2NIXW40W0NIXShbQ0gyXTUpW0NIMl1DNShbQ0gyXVtPSF0pW0NIMl1bT0hd

> <s_epik_cmdline>
J2VwaWtfcHl0aG9uJywgJy1waCcsICc3LjAnLCAnLXRuJywgJzgnLCAnLW1hJywgJzIwMCcsICctbWV0YWxfYmluZGluZycsICctaW1hZScsICc8aW5maWxlLm1hZT4nLCAnLW9tYWUnLCAnPG91dGZpbGUubWFlPic=

> <r_lp_tautomer_probability>
1

> <r_epik_Ionization_Penalty>
0.00324652

> <r_epik_Ionization_Penalty_Charging>
0

> <r_epik_Ionization_Penalty_Neutral>
0.00324652

> <r_epik_State_Penalty>
0.00223464

> <r_epik_Charging_Adjusted_Penalty>
0.00223464

> <i_epik_Tot_Q>
0

> <i_epik_Tot_abs_Q>
0

> <r_epik_Metal_State_Penalty>
-0

> <b_epik_Metal_Only>
0

> <s_lp_Force_Field>
OPLS_2005

> <r_lp_Energy>
66.0346

> <b_lp_Chiralities_Consistent>
1

> <s_lp_Variant>
AV-unprocessed.smi:168-1

> <Gold.Version>
5.8.1

> <Gold.Id.Protein>
6NUR|6NUR_protein|mol2

> <Gold.PLP.Fitness>
47.8518

> <Gold.PLP.PLP>
-40.3011

> <Gold.PLP.part.hbond>
-2.9458

> <Gold.PLP.part.metal>
0.0000

> <Gold.PLP.part.buried>
-2.3102

> <Gold.PLP.part.nonpolar>
-35.7290

> <Gold.PLP.part.repulsive>
0.0840

> <Gold.PLP.ligand.clash>
0.0000

> <Gold.PLP.ligand.torsion>
1.1433

> <Gold.PLP.Chemscore.Hbond>
2.0000

> <Gold.PLP.Chemscore.CHOScore>
0.9928

> <Gold.PLP.Chemscore.Metal>
0.0000

> <Gold.Chemscore.Hbonds>
donor molecule, donor type, donor heavy atom, donor atom, acceptor molecule, acceptor atom, score
      L1  H    19    45       P1 10747  0.97
      P1  H  6896  6907       L1     9  0.90
      L1  C    13    39       P1  7948  1.00

> <Gold.PLP.Chemscore.Internal.Correction>
0.8590

> <Gold.Rescore>
     Score         DG    S(hbond)    S(metal)    S(lipo)     H(rot)  DE(clash)    DE(int)     intcor
     12.86     -15.56       1.28        0.00     117.79       3.12       0.19       2.51       ----

> <Gold.Chemscore.Fitness>
12.8576

> <Gold.Chemscore.DG>
-15.5645

> <Gold.Chemscore.ZeroCoef>
-5.4800

> <Gold.Chemscore.Hbond>
1.2831

> <Gold.Chemscore.Metal>
0.0000

> <Gold.Chemscore.Lipo>
117.7881

> <Gold.Chemscore.Internal_Hbond>
0.0000

> <Gold.Chemscore.DEClash>
0.1932

> <Gold.Chemscore.DEInternal>
2.5137

> <Gold.Chemscore.Rot>
3.1181

> <Gold.Chemscore.Internal.Correction>
   9.000000E+99

> <Gold.Chemscore.Hbonds>
donor molecule, donor type, donor heavy atom, donor atom, acceptor molecule, acceptor atom, score
      L1  H    19    45       P1 10747  0.87
      P1  H  6896  6907       L1     9  0.17

> <Gold.Chemscore.Hbond.Weighted>
-4.2856

> <Gold.Chemscore.Metal.Weighted>
-0.0000

> <Gold.Chemscore.Lipo.Weighted>
-13.7812

> <Gold.Chemscore.Internal_Hbond.Weighted>
0.0000

> <Gold.Chemscore.DEClash.Weighted>
0.1932

> <Gold.Chemscore.DEInternal.Weighted>
2.5137

> <Gold.Chemscore.Rot.Weighted>
7.9823

> <Gold.Chemscore.Internal.Correction.Weighted>
   9.000000E+99

> <Gold.Protein.RotatedTorsions>
[ 6907 6896 6895 6894 ] final  -84.13 input  -60.11 | X-H torsion
[ 7974 7965 7964 7962 ] final  100.14 input  175.53 | X-H torsion
[ 8008 7997 7996 7995 ] final  -47.40 input   59.86 | X-H torsion
[ 10167 10162 10161 10158 ] final  149.78 input  -65.29 | X-H torsion
[ 10718 10713 10712 10709 ] final -122.49 input   66.30 | X-H torsion
[ 10763 10752 10751 10750 ] final   50.43 input  -60.55 | X-H torsion
[ 11005 11000 10999 10996 ] final   93.07 input  -57.11 | X-H torsion

> <Gold.Protein.ActiveResidues>
 VAL166  LYS551  ARG553  GLY616  TRP617  ASP618  TYR619  PRO620  LYS621  CYS622 
 ASP623  PHE694  ASN695  SER759  ASP760  ASP761  ALA762  ILE779  LEU786  VAL792 
 PHE793  MET794  SER795  GLU796  ALA797  LYS798  CYS799  TRP800  GLU811  SER814 

> <Gold.Protein.RotatedAtoms>
  150.6879  134.3406  159.4865 H   0  0  0  0  0  0  0  0  0  0  0  0  # atno 6907 bound_to 6896
  152.1259  134.9168  160.0570 H   0  0  0  0  0  0  0  0  0  0  0  0  # atno 6908 bound_to 6896
  152.0356  133.3921  159.4352 H   0  0  0  0  0  0  0  0  0  0  0  0  # atno 6909 bound_to 6896
  145.3896  139.2365  143.3359 H   0  0  0  0  0  0  0  0  0  0  0  0  # atno 7974 bound_to 7965
  154.4016  140.1347  156.4168 H   0  0  0  0  0  0  0  0  0  0  0  0  # atno 8008 bound_to 7997
  155.7680  140.3484  155.5212 H   0  0  0  0  0  0  0  0  0  0  0  0  # atno 8009 bound_to 7997
  155.8794  140.0985  157.1486 H   0  0  0  0  0  0  0  0  0  0  0  0  # atno 8010 bound_to 7997
  139.4857  144.5575  151.7291 H   0  0  0  0  0  0  0  0  0  0  0  0  # atno 10167 bound_to 10162
  156.1423  130.6474  150.9789 H   0  0  0  0  0  0  0  0  0  0  0  0  # atno 10718 bound_to 10713
  152.9785  135.5879  154.4251 H   0  0  0  0  0  0  0  0  0  0  0  0  # atno 10763 bound_to 10752
  154.3871  135.2767  155.2179 H   0  0  0  0  0  0  0  0  0  0  0  0  # atno 10764 bound_to 10752
  154.4067  135.6091  153.5983 H   0  0  0  0  0  0  0  0  0  0  0  0  # atno 10765 bound_to 10752
  139.8815  134.8769  156.3664 H   0  0  0  0  0  0  0  0  0  0  0  0  # atno 11005 bound_to 11000
  146.2804  140.4576  142.8779 LP  0  0  0  0  0  0  0  0  0  0  0  0  # atno 17320 bound_to 7965
  144.8450  140.6915  143.6205 LP  0  0  0  0  0  0  0  0  0  0  0  0  # atno 17321 bound_to 7965
  140.5139  144.0983  150.6003 LP  0  0  0  0  0  0  0  0  0  0  0  0  # atno 17342 bound_to 10162
  140.3918  143.2748  152.0051 LP  0  0  0  0  0  0  0  0  0  0  0  0  # atno 17343 bound_to 10162
  157.6586  131.0885  150.7890 LP  0  0  0  0  0  0  0  0  0  0  0  0  # atno 17370 bound_to 10713
  156.7965  130.4907  149.5376 LP  0  0  0  0  0  0  0  0  0  0  0  0  # atno 17371 bound_to 10713
  140.9494  133.7461  156.0252 LP  0  0  0  0  0  0  0  0  0  0  0  0  # atno 17394 bound_to 11000
  140.8124  134.3384  157.5407 LP  0  0  0  0  0  0  0  0  0  0  0  0  # atno 17395 bound_to 11000

$$$$
