AV-unprocessed.smi:2448|AV-procd|sdf|9659|dock7
  -GOLD-   2272013293D 1   1.00000     0.00000
 Structure written by MMmdl.
 38 39  0  0  0  0  0  0  0  0  2 V2000
  151.2607  144.1467  156.9257 O   0  0  0  0  0  0  0  0  0  0  0  0
  150.8721  143.1198  157.8214 C   0  0  1  0  0  0  0  0  0  0  0  0
  150.3567  141.9270  156.9900 C   0  0  0  0  0  0  0  0  0  0  0  0
  149.1859  142.2833  156.1858 N   0  0  0  0  0  0  0  0  0  0  0  0
  148.4405  141.1704  155.5789 C   0  0  2  0  0  0  0  0  0  0  0  0
  149.1347  140.5901  154.3186 C   0  0  0  0  0  0  0  0  0  0  0  0
  150.2023  139.5405  154.5840 C   0  0  0  0  0  0  0  0  0  0  0  0
  151.4774  139.9227  155.0588 C   0  0  0  0  0  0  0  0  0  0  0  0
  152.4522  138.9317  155.2931 C   0  0  0  0  0  0  0  0  0  0  0  0
  152.1618  137.6336  155.0576 N   0  3  0  0  0  0  0  0  0  0  0  0
  150.9600  137.2250  154.5952 C   0  0  0  0  0  0  0  0  0  0  0  0
  149.9463  138.1716  154.3420 C   0  0  0  0  0  0  0  0  0  0  0  0
  147.0041  141.6332  155.2548 C   0  0  0  0  0  0  0  0  0  0  0  0
  147.0245  142.4950  154.2372 F   0  0  0  0  0  0  0  0  0  0  0  0
  146.2361  140.5941  154.9248 F   0  0  0  0  0  0  0  0  0  0  0  0
  146.4691  142.2505  156.3084 F   0  0  0  0  0  0  0  0  0  0  0  0
  152.1096  142.7385  158.6509 C   0  0  0  0  0  0  0  0  0  0  0  0
  152.3604  143.8585  159.6659 C   0  0  0  0  0  0  0  0  0  0  0  0
  150.7492  144.5217  160.1555 S   0  0  0  0  0  0  0  0  0  0  0  0
  149.8492  143.6645  158.8356 C   0  0  0  0  0  0  0  0  0  0  0  0
  150.4882  144.4862  156.5010 H   0  0  0  0  0  0  0  0  0  0  0  0
  151.1635  141.5576  156.3604 H   0  0  0  0  0  0  0  0  0  0  0  0
  150.0918  141.1145  157.6675 H   0  0  0  0  0  0  0  0  0  0  0  0
  148.5516  142.8476  156.7431 H   0  0  0  0  0  0  0  0  0  0  0  0
  148.3347  140.3757  156.3180 H   0  0  0  0  0  0  0  0  0  0  0  0
  148.3928  140.1082  153.6818 H   0  0  0  0  0  0  0  0  0  0  0  0
  149.5506  141.4017  153.7201 H   0  0  0  0  0  0  0  0  0  0  0  0
  151.7072  140.9617  155.2465 H   0  0  0  0  0  0  0  0  0  0  0  0
  153.4481  139.1371  155.6576 H   0  0  0  0  0  0  0  0  0  0  0  0
  150.8476  136.1619  154.4405 H   0  0  0  0  0  0  0  0  0  0  0  0
  148.9866  137.8472  153.9666 H   0  0  0  0  0  0  0  0  0  0  0  0
  151.9086  141.8152  159.1962 H   0  0  0  0  0  0  0  0  0  0  0  0
  152.9870  142.5526  158.0299 H   0  0  0  0  0  0  0  0  0  0  0  0
  152.9201  143.5088  160.5336 H   0  0  0  0  0  0  0  0  0  0  0  0
  152.9330  144.6633  159.2040 H   0  0  0  0  0  0  0  0  0  0  0  0
  149.1089  144.3213  158.3770 H   0  0  0  0  0  0  0  0  0  0  0  0
  149.3087  142.8385  159.2991 H   0  0  0  0  0  0  0  0  0  0  0  0
  152.8822  136.9324  155.2327 H   0  0  0  0  0  0  0  0  0  0  0  0
  1  2  1  0  0  0  0
  1 21  1  0  0  0  0
  2 20  1  0  0  0  0
  2  3  1  0  0  0  0
  2 17  1  0  0  0  0
  3  4  1  0  0  0  0
  3 22  1  0  0  0  0
  3 23  1  0  0  0  0
  4  5  1  0  0  0  0
  4 24  1  0  0  0  0
  5  6  1  0  0  0  0
  5 13  1  0  0  0  0
  5 25  1  0  0  0  0
  6  7  1  0  0  0  0
  6 26  1  0  0  0  0
  6 27  1  0  0  0  0
  7 12  1  0  0  0  0
  7  8  2  0  0  0  0
  8  9  1  0  0  0  0
  8 28  1  0  0  0  0
  9 10  2  0  0  0  0
  9 29  1  0  0  0  0
 10 11  1  0  0  0  0
 10 38  1  0  0  0  0
 11 12  2  0  0  0  0
 11 30  1  0  0  0  0
 12 31  1  0  0  0  0
 13 14  1  0  0  0  0
 13 15  1  0  0  0  0
 13 16  1  0  0  0  0
 17 18  1  0  0  0  0
 17 32  1  0  0  0  0
 17 33  1  0  0  0  0
 18 19  1  0  0  0  0
 18 34  1  0  0  0  0
 18 35  1  0  0  0  0
 19 20  1  0  0  0  0
 20 36  1  0  0  0  0
 20 37  1  0  0  0  0
M  CHG  1  10   1
M  END
> <s_m_source_file>
AV-unprocessed.smi

> <i_m_source_file_index>
2448

> <i_lp_mmshare_version>
43012

> <i_f3d_flags>
0

> <s_epik_input>
W0NIMl0xU1tDSDJdW0NIMl1bQ0BAXTEoW09IXSlbQ0gyXVtOSF1bQ0BASF0oQyhGKShGKUYpW0NIMl1jMltjSF1bY0hdbltjSF1bY0hdMg==

> <s_epik_cmdline>
J2VwaWtfcHl0aG9uJywgJy1waCcsICc3LjAnLCAnLXRuJywgJzgnLCAnLW1hJywgJzIwMCcsICctbWV0YWxfYmluZGluZycsICctaW1hZScsICc8aW5maWxlLm1hZT4nLCAnLW9tYWUnLCAnPG91dGZpbGUubWFlPic=

> <r_epik_Ionization_Penalty>
1.11129

> <r_epik_Ionization_Penalty_Charging>
1.08366

> <r_epik_Ionization_Penalty_Neutral>
0.0276276

> <r_epik_State_Penalty>
1.93785

> <r_epik_Charging_Adjusted_Penalty>
3.02151

> <i_epik_Tot_Q>
1

> <i_epik_Tot_abs_Q>
1

> <r_epik_Metal_State_Penalty>
5.97911

> <b_epik_Metal_Only>
0

> <s_lp_Force_Field>
OPLS_2005

> <r_lp_Energy>
39.4187

> <b_lp_Chiralities_Consistent>
1

> <s_lp_Variant>
AV-unprocessed.smi:2448-9

> <Gold.Version>
5.8.1

> <Gold.Id.Protein>
6NUR|6NUR_protein|mol2

> <Gold.PLP.Fitness>
43.0995

> <Gold.PLP.PLP>
-41.1948

> <Gold.PLP.part.hbond>
-1.9380

> <Gold.PLP.part.metal>
0.0000

> <Gold.PLP.part.buried>
-3.4168

> <Gold.PLP.part.nonpolar>
-38.5538

> <Gold.PLP.part.repulsive>
0.9762

> <Gold.PLP.ligand.clash>
0.0000

> <Gold.PLP.ligand.torsion>
0.8431

> <Gold.PLP.Chemscore.Hbond>
1.0398

> <Gold.PLP.Chemscore.CHOScore>
0.0000

> <Gold.PLP.Chemscore.Metal>
0.0000

> <Gold.Chemscore.Hbonds>
donor molecule, donor type, donor heavy atom, donor atom, acceptor molecule, acceptor atom, score
      L1  H     1    21       P1  8028  1.00

> <Gold.PLP.Chemscore.Internal.Correction>
0.4716

> <Gold.Rescore>
     Score         DG    S(hbond)    S(metal)    S(lipo)     H(rot)  DE(clash)    DE(int)     intcor
     13.57     -15.55       1.09        0.00     108.04       2.42       0.32       1.65       ----

> <Gold.Chemscore.Fitness>
13.5729

> <Gold.Chemscore.DG>
-15.5494

> <Gold.Chemscore.ZeroCoef>
-5.4800

> <Gold.Chemscore.Hbond>
1.0887

> <Gold.Chemscore.Metal>
0.0000

> <Gold.Chemscore.Lipo>
108.0362

> <Gold.Chemscore.Internal_Hbond>
0.0000

> <Gold.Chemscore.DEClash>
0.3232

> <Gold.Chemscore.DEInternal>
1.6532

> <Gold.Chemscore.Rot>
2.4247

> <Gold.Chemscore.Internal.Correction>
   9.000000E+99

> <Gold.Chemscore.Hbonds>
donor molecule, donor type, donor heavy atom, donor atom, acceptor molecule, acceptor atom, score
      L1  H     1    21       P1  8028  0.99
      L1  H     4    24       P1  8028  0.02

> <Gold.Chemscore.Hbond.Weighted>
-3.6364

> <Gold.Chemscore.Metal.Weighted>
-0.0000

> <Gold.Chemscore.Lipo.Weighted>
-12.6402

> <Gold.Chemscore.Internal_Hbond.Weighted>
0.0000

> <Gold.Chemscore.DEClash.Weighted>
0.3232

> <Gold.Chemscore.DEInternal.Weighted>
1.6532

> <Gold.Chemscore.Rot.Weighted>
6.2072

> <Gold.Chemscore.Internal.Correction.Weighted>
   9.000000E+99

> <Gold.Protein.RotatedTorsions>
[ 6907 6896 6895 6894 ] final  -92.63 input  -60.11 | X-H torsion
[ 7974 7965 7964 7962 ] final -150.34 input  175.53 | X-H torsion
[ 8008 7997 7996 7995 ] final  -68.74 input   59.86 | X-H torsion
[ 10167 10162 10161 10158 ] final -119.68 input  -65.29 | X-H torsion
[ 10718 10713 10712 10709 ] final  -12.02 input   66.30 | X-H torsion
[ 10763 10752 10751 10750 ] final -136.27 input  -60.55 | X-H torsion
[ 11005 11000 10999 10996 ] final -140.02 input  -57.11 | X-H torsion

> <Gold.Protein.ActiveResidues>
 VAL166  LYS551  ARG553  GLY616  TRP617  ASP618  TYR619  PRO620  LYS621  CYS622 
 ASP623  PHE694  ASN695  SER759  ASP760  ASP761  ALA762  ILE779  LEU786  VAL792 
 PHE793  MET794  SER795  GLU796  ALA797  LYS798  CYS799  TRP800  GLU811  SER814 

> <Gold.Protein.RotatedAtoms>
  150.6909  134.2092  159.4352 H   0  0  0  0  0  0  0  0  0  0  0  0  # atno 6907 bound_to 6896
  152.0055  134.9903  160.0576 H   0  0  0  0  0  0  0  0  0  0  0  0  # atno 6908 bound_to 6896
  152.1538  133.4504  159.4864 H   0  0  0  0  0  0  0  0  0  0  0  0  # atno 6909 bound_to 6896
  144.7913  140.4945  143.5770 H   0  0  0  0  0  0  0  0  0  0  0  0  # atno 7974 bound_to 7965
  154.4889  140.0867  156.7550 H   0  0  0  0  0  0  0  0  0  0  0  0  # atno 8008 bound_to 7997
  155.4280  140.3448  155.4259 H   0  0  0  0  0  0  0  0  0  0  0  0  # atno 8009 bound_to 7997
  156.1301  140.1499  156.9065 H   0  0  0  0  0  0  0  0  0  0  0  0  # atno 8010 bound_to 7997
  140.0441  143.5125  152.2115 H   0  0  0  0  0  0  0  0  0  0  0  0  # atno 10167 bound_to 10162
  156.6507  130.4954  149.6063 H   0  0  0  0  0  0  0  0  0  0  0  0  # atno 10718 bound_to 10713
  154.8687  135.3677  154.5034 H   0  0  0  0  0  0  0  0  0  0  0  0  # atno 10763 bound_to 10752
  153.5674  135.7021  153.5525 H   0  0  0  0  0  0  0  0  0  0  0  0  # atno 10764 bound_to 10752
  153.3573  135.4056  155.1655 H   0  0  0  0  0  0  0  0  0  0  0  0  # atno 10765 bound_to 10752
  140.8464  134.2340  157.4784 H   0  0  0  0  0  0  0  0  0  0  0  0  # atno 11005 bound_to 11000
  145.5786  139.1487  143.3248 LP  0  0  0  0  0  0  0  0  0  0  0  0  # atno 17320 bound_to 7965
  146.2166  140.5917  142.9036 LP  0  0  0  0  0  0  0  0  0  0  0  0  # atno 17321 bound_to 7965
  139.5995  144.7578  151.3205 LP  0  0  0  0  0  0  0  0  0  0  0  0  # atno 17342 bound_to 10162
  140.7247  143.7037  150.7824 LP  0  0  0  0  0  0  0  0  0  0  0  0  # atno 17343 bound_to 10162
  156.2087  130.6665  151.1246 LP  0  0  0  0  0  0  0  0  0  0  0  0  # atno 17370 bound_to 10713
  157.7142  131.0718  150.6390 LP  0  0  0  0  0  0  0  0  0  0  0  0  # atno 17371 bound_to 10713
  139.8703  134.9661  156.4551 LP  0  0  0  0  0  0  0  0  0  0  0  0  # atno 17394 bound_to 11000
  140.8839  133.7897  155.9497 LP  0  0  0  0  0  0  0  0  0  0  0  0  # atno 17395 bound_to 11000

$$$$
