AV-unprocessed.smi:3295|AV-procd|sdf|12635|dock7
  -GOLD-   2272018573D 1   1.00000     0.00000
 Structure written by MMmdl.
 37 38  0  0  0  0  0  0  0  0  1 V2000
  147.7169  132.9555  152.2386 C   0  0  0  0  0  0  0  0  0  0  0  0
  146.4389  133.1129  151.4332 C   0  0  0  0  0  0  0  0  0  0  0  0
  145.8406  131.9823  150.8361 C   0  0  0  0  0  0  0  0  0  0  0  0
  144.7053  132.0346  150.1099 N   0  0  0  0  0  0  0  0  0  0  0  0
  144.1136  133.2365  149.9555 C   0  0  0  0  0  0  0  0  0  0  0  0
  144.6229  134.4287  150.5061 C   0  0  0  0  0  0  0  0  0  0  0  0
  145.8233  134.3763  151.2557 C   0  0  0  0  0  0  0  0  0  0  0  0
  146.4159  135.5167  151.8698 N   0  0  0  0  0  0  0  0  0  0  0  0
  145.8213  136.5364  152.5137 C   0  0  0  0  0  0  0  0  0  0  0  0
  144.6097  136.6611  152.6903 O   0  0  0  0  0  0  0  0  0  0  0  0
  146.7262  137.4310  152.9349 N   0  0  0  0  0  0  0  0  0  0  0  0
  146.4243  138.6488  153.6826 C   0  0  0  0  0  0  0  0  0  0  0  0
  147.2163  139.8840  153.1814 C   0  0  0  0  0  0  0  0  0  0  0  0
  146.9674  140.0427  151.7981 O   0  0  0  0  0  0  0  0  0  0  0  0
  146.9391  141.1847  153.9526 C   0  0  0  0  0  0  0  0  0  0  0  0
  147.8227  141.0954  155.2008 C   0  0  0  0  0  0  0  0  0  0  0  0
  149.0094  140.1984  154.8153 C   0  0  0  0  0  0  0  0  0  0  0  0
  148.7253  139.6939  153.3931 C   0  0  0  0  0  0  0  0  0  0  0  0
  148.0497  131.9173  152.2549 H   0  0  0  0  0  0  0  0  0  0  0  0
  147.5596  133.2749  153.2691 H   0  0  0  0  0  0  0  0  0  0  0  0
  148.5158  133.5590  151.8070 H   0  0  0  0  0  0  0  0  0  0  0  0
  146.2843  131.0034  150.9440 H   0  0  0  0  0  0  0  0  0  0  0  0
  143.2002  133.2484  149.3793 H   0  0  0  0  0  0  0  0  0  0  0  0
  144.0783  135.3473  150.3530 H   0  0  0  0  0  0  0  0  0  0  0  0
  147.4140  135.5988  151.7457 H   0  0  0  0  0  0  0  0  0  0  0  0
  147.6997  137.2508  152.7391 H   0  0  0  0  0  0  0  0  0  0  0  0
  145.3557  138.8230  153.5543 H   0  0  0  0  0  0  0  0  0  0  0  0
  146.5700  138.5024  154.7545 H   0  0  0  0  0  0  0  0  0  0  0  0
  147.7913  140.1847  151.3580 H   0  0  0  0  0  0  0  0  0  0  0  0
  147.2650  142.0394  153.3574 H   0  0  0  0  0  0  0  0  0  0  0  0
  145.8883  141.3504  154.1903 H   0  0  0  0  0  0  0  0  0  0  0  0
  148.1436  142.0804  155.5409 H   0  0  0  0  0  0  0  0  0  0  0  0
  147.2650  140.6340  156.0166 H   0  0  0  0  0  0  0  0  0  0  0  0
  149.9551  140.7401  154.8561 H   0  0  0  0  0  0  0  0  0  0  0  0
  149.0843  139.3614  155.5104 H   0  0  0  0  0  0  0  0  0  0  0  0
  149.0509  138.6642  153.2396 H   0  0  0  0  0  0  0  0  0  0  0  0
  149.2826  140.3143  152.6890 H   0  0  0  0  0  0  0  0  0  0  0  0
  1  2  1  0  0  0  0
  1 19  1  0  0  0  0
  1 20  1  0  0  0  0
  1 21  1  0  0  0  0
  2  7  1  0  0  0  0
  2  3  2  0  0  0  0
  3  4  1  0  0  0  0
  3 22  1  0  0  0  0
  4  5  2  0  0  0  0
  5  6  1  0  0  0  0
  5 23  1  0  0  0  0
  6  7  2  0  0  0  0
  6 24  1  0  0  0  0
  7  8  1  0  0  0  0
  8  9  1  0  0  0  0
  8 25  1  0  0  0  0
  9 10  2  0  0  0  0
  9 11  1  0  0  0  0
 11 12  1  0  0  0  0
 11 26  1  0  0  0  0
 12 13  1  0  0  0  0
 12 27  1  0  0  0  0
 12 28  1  0  0  0  0
 13 18  1  0  0  0  0
 13 14  1  0  0  0  0
 13 15  1  0  0  0  0
 14 29  1  0  0  0  0
 15 16  1  0  0  0  0
 15 30  1  0  0  0  0
 15 31  1  0  0  0  0
 16 17  1  0  0  0  0
 16 32  1  0  0  0  0
 16 33  1  0  0  0  0
 17 18  1  0  0  0  0
 17 34  1  0  0  0  0
 17 35  1  0  0  0  0
 18 36  1  0  0  0  0
 18 37  1  0  0  0  0
M  END
> <s_m_source_file>
AV-unprocessed.smi

> <i_m_source_file_index>
3295

> <i_lp_mmshare_version>
43012

> <i_f3d_flags>
0

> <s_epik_input>
W0NIM11jMVtjSF1uW2NIXVtjSF1jMVtOSF1DKD1PKVtOSF1bQ0gyXUMyKFtPSF0pW0NIMl1bQ0gyXVtDSDJdW0NIMl0y

> <s_epik_cmdline>
J2VwaWtfcHl0aG9uJywgJy1waCcsICc3LjAnLCAnLXRuJywgJzgnLCAnLW1hJywgJzIwMCcsICctbWV0YWxfYmluZGluZycsICctaW1hZScsICc8aW5maWxlLm1hZT4nLCAnLW9tYWUnLCAnPG91dGZpbGUubWFlPic=

> <r_epik_Ionization_Penalty>
0.224243

> <r_epik_Ionization_Penalty_Charging>
0

> <r_epik_Ionization_Penalty_Neutral>
0.224243

> <r_epik_State_Penalty>
0.214648

> <r_epik_Charging_Adjusted_Penalty>
0.214648

> <i_epik_Tot_Q>
0

> <i_epik_Tot_abs_Q>
0

> <r_epik_Metal_State_Penalty>
0.155078

> <b_epik_Metal_Only>
0

> <s_lp_Force_Field>
OPLS_2005

> <r_lp_Energy>
30.8814

> <b_lp_Chiralities_Consistent>
1

> <s_lp_Variant>
AV-unprocessed.smi:3295-1

> <Gold.Version>
5.8.1

> <Gold.Id.Protein>
6NUR|6NUR_protein|mol2

> <Gold.PLP.Fitness>
42.3264

> <Gold.PLP.PLP>
-30.0958

> <Gold.PLP.part.hbond>
-3.3240

> <Gold.PLP.part.metal>
0.0000

> <Gold.PLP.part.buried>
0.3201

> <Gold.PLP.part.nonpolar>
-27.5018

> <Gold.PLP.part.repulsive>
0.3900

> <Gold.PLP.ligand.clash>
0.0000

> <Gold.PLP.ligand.torsion>
0.4462

> <Gold.PLP.Chemscore.Hbond>
2.9600

> <Gold.PLP.Chemscore.CHOScore>
1.4111

> <Gold.PLP.Chemscore.Metal>
0.0000

> <Gold.Chemscore.Hbonds>
donor molecule, donor type, donor heavy atom, donor atom, acceptor molecule, acceptor atom, score
      L1  H     8    25       P1  7948  1.00
      L1  H    11    26       P1  7948  0.96
      L1  H    14    29       P1  7957  1.00
      L1  C     3    22       P1 10747  0.28
      L1  C     5    23       P1 10186  1.00

> <Gold.PLP.Chemscore.Internal.Correction>
0.0097

> <Gold.Rescore>
     Score         DG    S(hbond)    S(metal)    S(lipo)     H(rot)  DE(clash)    DE(int)     intcor
     18.02     -20.20       2.94        0.00      79.41       1.71       1.70       0.48       ----

> <Gold.Chemscore.Fitness>
18.0168

> <Gold.Chemscore.DG>
-20.2033

> <Gold.Chemscore.ZeroCoef>
-5.4800

> <Gold.Chemscore.Hbond>
2.9375

> <Gold.Chemscore.Metal>
0.0000

> <Gold.Chemscore.Lipo>
79.4059

> <Gold.Chemscore.Internal_Hbond>
0.0000

> <Gold.Chemscore.DEClash>
1.7047

> <Gold.Chemscore.DEInternal>
0.4818

> <Gold.Chemscore.Rot>
1.7103

> <Gold.Chemscore.Internal.Correction>
   9.000000E+99

> <Gold.Chemscore.Hbonds>
donor molecule, donor type, donor heavy atom, donor atom, acceptor molecule, acceptor atom, score
      L1  H     8    25       P1  7948  0.99
      L1  H    11    26       P1  7948  0.92
      L1  H    14    29       P1  7957  0.98

> <Gold.Chemscore.Hbond.Weighted>
-9.8113

> <Gold.Chemscore.Metal.Weighted>
-0.0000

> <Gold.Chemscore.Lipo.Weighted>
-9.2905

> <Gold.Chemscore.Internal_Hbond.Weighted>
0.0000

> <Gold.Chemscore.DEClash.Weighted>
1.7047

> <Gold.Chemscore.DEInternal.Weighted>
0.4818

> <Gold.Chemscore.Rot.Weighted>
4.3785

> <Gold.Chemscore.Internal.Correction.Weighted>
   9.000000E+99

> <Gold.Protein.RotatedTorsions>
[ 6907 6896 6895 6894 ] final  145.33 input  -60.11 | X-H torsion
[ 7974 7965 7964 7962 ] final   10.27 input  175.53 | X-H torsion
[ 8008 7997 7996 7995 ] final  -61.71 input   59.86 | X-H torsion
[ 10167 10162 10161 10158 ] final -136.60 input  -65.29 | X-H torsion
[ 10718 10713 10712 10709 ] final  104.99 input   66.30 | X-H torsion
[ 10763 10752 10751 10750 ] final -169.28 input  -60.55 | X-H torsion
[ 11005 11000 10999 10996 ] final   91.98 input  -57.11 | X-H torsion

> <Gold.Protein.ActiveResidues>
 VAL166  LYS551  ARG553  GLY616  TRP617  ASP618  TYR619  PRO620  LYS621  CYS622 
 ASP623  PHE694  ASN695  SER759  ASP760  ASP761  ALA762  ILE779  LEU786  VAL792 
 PHE793  MET794  SER795  GLU796  ALA797  LYS798  CYS799  TRP800  GLU811  SER814 

> <Gold.Protein.RotatedAtoms>
  152.1822  133.4715  159.4963 H   0  0  0  0  0  0  0  0  0  0  0  0  # atno 6907 bound_to 6896
  150.6936  134.1819  159.4261 H   0  0  0  0  0  0  0  0  0  0  0  0  # atno 6908 bound_to 6896
  151.9730  135.0066  160.0604 H   0  0  0  0  0  0  0  0  0  0  0  0  # atno 6909 bound_to 6896
  146.2391  139.9658  142.8453 H   0  0  0  0  0  0  0  0  0  0  0  0  # atno 7974 bound_to 7965
  154.4462  140.1012  156.6473 H   0  0  0  0  0  0  0  0  0  0  0  0  # atno 8008 bound_to 7997
  155.5436  140.3484  155.4434 H   0  0  0  0  0  0  0  0  0  0  0  0  # atno 8009 bound_to 7997
  156.0579  140.1319  156.9964 H   0  0  0  0  0  0  0  0  0  0  0  0  # atno 8010 bound_to 7997
  139.8662  143.7015  152.2645 H   0  0  0  0  0  0  0  0  0  0  0  0  # atno 10167 bound_to 10162
  157.6721  131.0817  150.5790 H   0  0  0  0  0  0  0  0  0  0  0  0  # atno 10718 bound_to 10713
  154.6539  135.2915  154.9952 H   0  0  0  0  0  0  0  0  0  0  0  0  # atno 10763 bound_to 10752
  154.1035  135.6573  153.4876 H   0  0  0  0  0  0  0  0  0  0  0  0  # atno 10764 bound_to 10752
  153.0392  135.5248  154.7460 H   0  0  0  0  0  0  0  0  0  0  0  0  # atno 10765 bound_to 10752
  139.8830  134.8706  156.3507 H   0  0  0  0  0  0  0  0  0  0  0  0  # atno 11005 bound_to 11000
  145.1727  140.9729  143.4312 LP  0  0  0  0  0  0  0  0  0  0  0  0  # atno 17320 bound_to 7965
  145.0013  139.3595  143.6166 LP  0  0  0  0  0  0  0  0  0  0  0  0  # atno 17321 bound_to 7965
  139.7327  144.7578  151.0776 LP  0  0  0  0  0  0  0  0  0  0  0  0  # atno 17342 bound_to 10162
  140.7768  143.5068  150.9702 LP  0  0  0  0  0  0  0  0  0  0  0  0  # atno 17343 bound_to 10162
  156.6091  130.4375  149.5866 LP  0  0  0  0  0  0  0  0  0  0  0  0  # atno 17370 bound_to 10713
  156.2445  130.6871  151.1587 LP  0  0  0  0  0  0  0  0  0  0  0  0  # atno 17371 bound_to 10713
  140.9596  133.7397  156.0383 LP  0  0  0  0  0  0  0  0  0  0  0  0  # atno 17394 bound_to 11000
  140.8006  134.3513  157.5440 LP  0  0  0  0  0  0  0  0  0  0  0  0  # atno 17395 bound_to 11000

$$$$
