AV-unprocessed.smi:2768|AV-procd|sdf|10652|dock2
  -GOLD-   2272015103D 1   1.00000     0.00000
 Structure written by MMmdl.
 34 35  0  0  0  0  0  0  0  0  2 V2000
  152.3354  140.1636  155.3262 O   0  0  0  0  0  0  0  0  0  0  0  0
  151.2750  140.2102  155.9605 C   0  0  0  0  0  0  0  0  0  0  0  0
  150.9986  140.8115  157.1535 N   0  5  0  0  0  0  0  0  0  0  0  0
  151.9184  141.7004  157.8665 C   0  0  2  0  0  0  0  0  0  0  0  0
  152.1997  141.1230  159.2763 C   0  0  0  0  0  0  0  0  0  0  0  0
  153.0462  142.0626  160.1715 C   0  0  0  0  0  0  0  0  0  0  0  0
  152.4161  143.4625  160.3205 C   0  0  0  0  0  0  0  0  0  0  0  0
  152.1480  144.0576  158.9227 C   0  0  0  0  0  0  0  0  0  0  0  0
  151.3001  143.1189  158.0227 C   0  0  1  0  0  0  0  0  0  0  0  0
  151.1689  143.7299  156.7536 O   0  0  0  0  0  0  0  0  0  0  0  0
  150.0443  139.4854  155.3737 C   0  0  0  0  0  0  0  0  0  0  0  0
  150.3488  138.9253  154.1975 F   0  0  0  0  0  0  0  0  0  0  0  0
  149.6983  138.4978  156.2034 F   0  0  0  0  0  0  0  0  0  0  0  0
  148.8699  140.4513  155.2290 C   0  0  0  0  0  0  0  0  0  0  0  0
  148.3734  140.7960  153.9509 C   0  0  0  0  0  0  0  0  0  0  0  0
  147.2823  141.6815  153.8649 C   0  0  0  0  0  0  0  0  0  0  0  0
  146.7260  142.1907  155.0534 C   0  0  0  0  0  0  0  0  0  0  0  0
  147.2882  141.7876  156.2805 C   0  0  0  0  0  0  0  0  0  0  0  0
  148.3347  140.9404  156.3738 N   0  0  0  0  0  0  0  0  0  0  0  0
  152.8780  141.8047  157.3564 H   0  0  0  0  0  0  0  0  0  0  0  0
  150.3022  143.0354  158.4568 H   0  0  0  0  0  0  0  0  0  0  0  0
  151.2545  140.9195  159.7824 H   0  0  0  0  0  0  0  0  0  0  0  0
  152.7061  140.1613  159.1839 H   0  0  0  0  0  0  0  0  0  0  0  0
  153.1642  141.6129  161.1579 H   0  0  0  0  0  0  0  0  0  0  0  0
  154.0555  142.1592  159.7664 H   0  0  0  0  0  0  0  0  0  0  0  0
  151.4795  143.3876  160.8743 H   0  0  0  0  0  0  0  0  0  0  0  0
  153.0725  144.1174  160.8941 H   0  0  0  0  0  0  0  0  0  0  0  0
  151.6374  145.0148  159.0344 H   0  0  0  0  0  0  0  0  0  0  0  0
  153.1025  144.2841  158.4425 H   0  0  0  0  0  0  0  0  0  0  0  0
  150.3000  144.0961  156.6940 H   0  0  0  0  0  0  0  0  0  0  0  0
  148.8146  140.3838  153.0554 H   0  0  0  0  0  0  0  0  0  0  0  0
  146.8784  141.9632  152.9038 H   0  0  0  0  0  0  0  0  0  0  0  0
  145.8882  142.8712  155.0259 H   0  0  0  0  0  0  0  0  0  0  0  0
  146.8877  142.1576  157.2128 H   0  0  0  0  0  0  0  0  0  0  0  0
  1  2  2  0  0  0  0
  2  3  1  0  0  0  0
  2 11  1  0  0  0  0
  3  4  1  0  0  0  0
  4 20  1  0  0  0  0
  4  9  1  0  0  0  0
  4  5  1  0  0  0  0
  5  6  1  0  0  0  0
  5 22  1  0  0  0  0
  5 23  1  0  0  0  0
  6  7  1  0  0  0  0
  6 24  1  0  0  0  0
  6 25  1  0  0  0  0
  7  8  1  0  0  0  0
  7 26  1  0  0  0  0
  7 27  1  0  0  0  0
  8  9  1  0  0  0  0
  8 28  1  0  0  0  0
  8 29  1  0  0  0  0
  9 21  1  0  0  0  0
  9 10  1  0  0  0  0
 10 30  1  0  0  0  0
 11 12  1  0  0  0  0
 11 13  1  0  0  0  0
 11 14  1  0  0  0  0
 14 19  1  0  0  0  0
 14 15  2  0  0  0  0
 15 16  1  0  0  0  0
 15 31  1  0  0  0  0
 16 17  2  0  0  0  0
 16 32  1  0  0  0  0
 17 18  1  0  0  0  0
 17 33  1  0  0  0  0
 18 19  2  0  0  0  0
 18 34  1  0  0  0  0
M  CHG  1   3  -1
M  END
> <s_m_source_file>
AV-unprocessed.smi

> <i_m_source_file_index>
2768

> <i_lp_mmshare_version>
43012

> <i_f3d_flags>
0

> <s_epik_input>
bjFbY0hdW2NIXVtjSF1bY0hdYzFDKEYpKEYpQyg9TylbTkhdW0NAQEhdMltDSDJdW0NIMl1bQ0gyXVtDSDJdW0NASF0yW09IXQ==

> <s_epik_cmdline>
J2VwaWtfcHl0aG9uJywgJy1waCcsICc3LjAnLCAnLXRuJywgJzgnLCAnLW1hJywgJzIwMCcsICctbWV0YWxfYmluZGluZycsICctaW1hZScsICc8aW5maWxlLm1hZT4nLCAnLW9tYWUnLCAnPG91dGZpbGUubWFlPic=

> <r_lp_tautomer_probability>
1

> <r_epik_Ionization_Penalty>
5.70553

> <r_epik_Ionization_Penalty_Charging>
5.70553

> <r_epik_Ionization_Penalty_Neutral>
5.5493e-06

> <r_epik_State_Penalty>
5.70549

> <r_epik_Charging_Adjusted_Penalty>
11.411

> <i_epik_Tot_Q>
-1

> <i_epik_Tot_abs_Q>
1

> <r_epik_Metal_State_Penalty>
1.6859

> <b_epik_Metal_Only>
1

> <s_lp_Force_Field>
OPLS_2005

> <r_lp_Energy>
26.6713

> <b_lp_Chiralities_Consistent>
1

> <s_lp_Variant>
AV-unprocessed.smi:2768-5

> <Gold.Version>
5.8.1

> <Gold.Id.Protein>
6NUR|6NUR_protein|mol2

> <Gold.PLP.Fitness>
44.4606

> <Gold.PLP.PLP>
-38.6869

> <Gold.PLP.part.hbond>
-2.7552

> <Gold.PLP.part.metal>
0.0000

> <Gold.PLP.part.buried>
-2.3780

> <Gold.PLP.part.nonpolar>
-32.3014

> <Gold.PLP.part.repulsive>
0.0833

> <Gold.PLP.ligand.clash>
0.6614

> <Gold.PLP.ligand.torsion>
0.2161

> <Gold.PLP.Chemscore.Hbond>
2.2756

> <Gold.PLP.Chemscore.CHOScore>
0.0000

> <Gold.PLP.Chemscore.Metal>
0.0000

> <Gold.Chemscore.Hbonds>
donor molecule, donor type, donor heavy atom, donor atom, acceptor molecule, acceptor atom, score
      L1  H    10    30       P1  8028  1.00
      P1  H  7989  7998       L1     1  0.58
      P1  H  7997  8009       L1     1  0.67

> <Gold.PLP.Chemscore.Internal.Correction>
0.0404

> <Gold.Rescore>
     Score         DG    S(hbond)    S(metal)    S(lipo)     H(rot)  DE(clash)    DE(int)     intcor
     16.31     -18.45       2.00        0.00      96.58       1.95       0.56       1.58       ----

> <Gold.Chemscore.Fitness>
16.3117

> <Gold.Chemscore.DG>
-18.4546

> <Gold.Chemscore.ZeroCoef>
-5.4800

> <Gold.Chemscore.Hbond>
1.9962

> <Gold.Chemscore.Metal>
0.0000

> <Gold.Chemscore.Lipo>
96.5830

> <Gold.Chemscore.Internal_Hbond>
0.0000

> <Gold.Chemscore.DEClash>
0.5622

> <Gold.Chemscore.DEInternal>
1.5807

> <Gold.Chemscore.Rot>
1.9503

> <Gold.Chemscore.Internal.Correction>
   9.000000E+99

> <Gold.Chemscore.Hbonds>
donor molecule, donor type, donor heavy atom, donor atom, acceptor molecule, acceptor atom, score
      L1  H    10    30       P1  8028  0.94
      P1  H  7989  7998       L1     1  0.14
      P1  H  7997  8009       L1     1  0.67

> <Gold.Chemscore.Hbond.Weighted>
-6.6672

> <Gold.Chemscore.Metal.Weighted>
-0.0000

> <Gold.Chemscore.Lipo.Weighted>
-11.3002

> <Gold.Chemscore.Internal_Hbond.Weighted>
0.0000

> <Gold.Chemscore.DEClash.Weighted>
0.5622

> <Gold.Chemscore.DEInternal.Weighted>
1.5807

> <Gold.Chemscore.Rot.Weighted>
4.9928

> <Gold.Chemscore.Internal.Correction.Weighted>
   9.000000E+99

> <Gold.Protein.RotatedTorsions>
[ 6907 6896 6895 6894 ] final  -21.61 input  -60.11 | X-H torsion
[ 7974 7965 7964 7962 ] final   21.77 input  175.53 | X-H torsion
[ 8008 7997 7996 7995 ] final -142.47 input   59.86 | X-H torsion
[ 10167 10162 10161 10158 ] final -122.00 input  -65.29 | X-H torsion
[ 10718 10713 10712 10709 ] final  124.17 input   66.30 | X-H torsion
[ 10763 10752 10751 10750 ] final   36.57 input  -60.55 | X-H torsion
[ 11005 11000 10999 10996 ] final  -92.29 input  -57.11 | X-H torsion

> <Gold.Protein.ActiveResidues>
 VAL166  LYS551  ARG553  GLY616  TRP617  ASP618  TYR619  PRO620  LYS621  CYS622 
 ASP623  PHE694  ASN695  SER759  ASP760  ASP761  ALA762  ILE779  LEU786  VAL792 
 PHE793  MET794  SER795  GLU796  ALA797  LYS798  CYS799  TRP800  GLU811  SER814 

> <Gold.Protein.RotatedAtoms>
  151.2308  135.0553  159.8986 H   0  0  0  0  0  0  0  0  0  0  0  0  # atno 6907 bound_to 6896
  152.5405  134.0539  159.8132 H   0  0  0  0  0  0  0  0  0  0  0  0  # atno 6908 bound_to 6896
  151.0719  133.5411  159.2658 H   0  0  0  0  0  0  0  0  0  0  0  0  # atno 6909 bound_to 6896
  146.2057  139.7980  142.8727 H   0  0  0  0  0  0  0  0  0  0  0  0  # atno 7974 bound_to 7965
  155.4948  140.0570  157.2948 H   0  0  0  0  0  0  0  0  0  0  0  0  # atno 8008 bound_to 7997
  154.4609  140.1996  156.0197 H   0  0  0  0  0  0  0  0  0  0  0  0  # atno 8009 bound_to 7997
  156.0889  140.3236  155.7793 H   0  0  0  0  0  0  0  0  0  0  0  0  # atno 8010 bound_to 7997
  140.0189  143.5364  152.2229 H   0  0  0  0  0  0  0  0  0  0  0  0  # atno 10167 bound_to 10162
  157.5606  131.1089  150.8544 H   0  0  0  0  0  0  0  0  0  0  0  0  # atno 10718 bound_to 10713
  153.0071  135.6302  154.2007 H   0  0  0  0  0  0  0  0  0  0  0  0  # atno 10763 bound_to 10752
  154.1750  135.2816  155.3071 H   0  0  0  0  0  0  0  0  0  0  0  0  # atno 10764 bound_to 10752
  154.5879  135.5627  153.7309 H   0  0  0  0  0  0  0  0  0  0  0  0  # atno 10765 bound_to 10752
  141.1525  133.7811  156.9999 H   0  0  0  0  0  0  0  0  0  0  0  0  # atno 11005 bound_to 11000
  145.3326  141.0270  143.3437 LP  0  0  0  0  0  0  0  0  0  0  0  0  # atno 17320 bound_to 7965
  144.8788  139.4933  143.6733 LP  0  0  0  0  0  0  0  0  0  0  0  0  # atno 17321 bound_to 7965
  139.6153  144.7618  151.2860 LP  0  0  0  0  0  0  0  0  0  0  0  0  # atno 17342 bound_to 10162
  140.7350  143.6748  150.8051 LP  0  0  0  0  0  0  0  0  0  0  0  0  # atno 17343 bound_to 10162
  156.9043  130.5258  149.5282 LP  0  0  0  0  0  0  0  0  0  0  0  0  # atno 17370 bound_to 10713
  156.0659  130.5703  150.9288 LP  0  0  0  0  0  0  0  0  0  0  0  0  # atno 17371 bound_to 10713
  140.0947  134.9571  157.1831 LP  0  0  0  0  0  0  0  0  0  0  0  0  # atno 17394 bound_to 11000
  140.3399  134.2716  155.7214 LP  0  0  0  0  0  0  0  0  0  0  0  0  # atno 17395 bound_to 11000

$$$$
