AV-unprocessed.smi:2902|AV-procd|sdf|11153|dock8
  -GOLD-   2272016 33D 1   1.00000     0.00000
 Structure written by MMmdl.
 47 48  0  0  0  0  0  0  0  0  1 V2000
  150.4506  139.1959  158.4552 C   0  0  0  0  0  0  0  0  0  0  0  0
  150.2027  140.7002  158.2882 C   0  0  0  0  0  0  0  0  0  0  0  0
  151.0556  141.3230  157.1672 C   0  0  2  0  0  0  0  0  0  0  0  0
  150.7765  142.7228  157.1272 O   0  0  0  0  0  0  0  0  0  0  0  0
  151.5235  143.5542  158.0130 C   0  0  0  0  0  0  0  0  0  0  0  0
  151.3044  143.2221  159.4922 C   0  0  0  0  0  0  0  0  0  0  0  0
  151.5974  144.5257  160.2456 C   0  0  0  0  0  0  0  0  0  0  0  0
  151.5000  145.6567  159.2100 C   0  0  0  0  0  0  0  0  0  0  0  0
  151.0411  144.9992  157.9056 C   0  0  0  0  0  0  0  0  0  0  0  0
  150.7402  140.6767  155.8099 C   0  0  0  0  0  0  0  0  0  0  0  0
  151.6356  140.1467  155.1519 O   0  0  0  0  0  0  0  0  0  0  0  0
  149.4594  140.7346  155.4106 N   0  0  0  0  0  0  0  0  0  0  0  0
  148.9259  140.2243  154.1472 C   0  0  1  0  0  0  0  0  0  0  0  0
  149.1117  138.6979  154.1432 C   0  0  0  0  0  0  0  0  0  0  0  0
  147.4452  140.6610  153.9694 C   0  0  2  0  0  0  0  0  0  0  0  0
  147.2690  142.1897  153.8832 C   0  0  0  0  0  0  0  0  0  0  0  0
  146.6000  140.1188  155.0281 N   0  0  0  0  0  0  0  0  0  0  0  0
  145.2726  140.1395  155.1659 C   0  0  0  0  0  0  0  0  0  0  0  0
  144.8330  139.4970  156.2387 N   0  0  0  0  0  0  0  0  0  0  0  0
  146.0246  139.0703  156.7528 C   0  0  0  0  0  0  0  0  0  0  0  0
  147.1137  139.4131  156.0654 N   0  0  0  0  0  0  0  0  0  0  0  0
  149.8257  138.7859  159.2487 H   0  0  0  0  0  0  0  0  0  0  0  0
  151.4903  138.9929  158.7130 H   0  0  0  0  0  0  0  0  0  0  0  0
  150.2206  138.6546  157.5375 H   0  0  0  0  0  0  0  0  0  0  0  0
  149.1435  140.8562  158.0760 H   0  0  0  0  0  0  0  0  0  0  0  0
  150.4025  141.2052  159.2344 H   0  0  0  0  0  0  0  0  0  0  0  0
  152.1070  141.1582  157.4081 H   0  0  0  0  0  0  0  0  0  0  0  0
  152.5896  143.5323  157.7826 H   0  0  0  0  0  0  0  0  0  0  0  0
  150.2634  142.9378  159.6530 H   0  0  0  0  0  0  0  0  0  0  0  0
  151.9292  142.3963  159.8336 H   0  0  0  0  0  0  0  0  0  0  0  0
  150.8939  144.6686  161.0666 H   0  0  0  0  0  0  0  0  0  0  0  0
  152.5996  144.5015  160.6758 H   0  0  0  0  0  0  0  0  0  0  0  0
  150.8171  146.4462  159.5250 H   0  0  0  0  0  0  0  0  0  0  0  0
  152.4819  146.1105  159.0702 H   0  0  0  0  0  0  0  0  0  0  0  0
  151.4253  145.5062  157.0201 H   0  0  0  0  0  0  0  0  0  0  0  0
  149.9514  145.0207  157.8527 H   0  0  0  0  0  0  0  0  0  0  0  0
  148.7995  141.1844  156.0285 H   0  0  0  0  0  0  0  0  0  0  0  0
  149.5091  140.6212  153.3143 H   0  0  0  0  0  0  0  0  0  0  0  0
  148.8489  138.2624  153.1795 H   0  0  0  0  0  0  0  0  0  0  0  0
  148.4974  138.2197  154.9069 H   0  0  0  0  0  0  0  0  0  0  0  0
  150.1511  138.4314  154.3387 H   0  0  0  0  0  0  0  0  0  0  0  0
  147.0793  140.2411  153.0310 H   0  0  0  0  0  0  0  0  0  0  0  0
  147.7404  142.5992  152.9901 H   0  0  0  0  0  0  0  0  0  0  0  0
  147.7012  142.6928  154.7488 H   0  0  0  0  0  0  0  0  0  0  0  0
  146.2132  142.4585  153.8362 H   0  0  0  0  0  0  0  0  0  0  0  0
  144.6133  140.6233  154.4605 H   0  0  0  0  0  0  0  0  0  0  0  0
  146.0912  138.4875  157.6597 H   0  0  0  0  0  0  0  0  0  0  0  0
  1  2  1  0  0  0  0
  1 22  1  0  0  0  0
  1 23  1  0  0  0  0
  1 24  1  0  0  0  0
  2  3  1  0  0  0  0
  2 25  1  0  0  0  0
  2 26  1  0  0  0  0
  3  4  1  0  0  0  0
  3 10  1  0  0  0  0
  3 27  1  0  0  0  0
  4  5  1  0  0  0  0
  5  9  1  0  0  0  0
  5  6  1  0  0  0  0
  5 28  1  0  0  0  0
  6  7  1  0  0  0  0
  6 29  1  0  0  0  0
  6 30  1  0  0  0  0
  7  8  1  0  0  0  0
  7 31  1  0  0  0  0
  7 32  1  0  0  0  0
  8  9  1  0  0  0  0
  8 33  1  0  0  0  0
  8 34  1  0  0  0  0
  9 35  1  0  0  0  0
  9 36  1  0  0  0  0
 10 11  2  0  0  0  0
 10 12  1  0  0  0  0
 12 13  1  0  0  0  0
 12 37  1  0  0  0  0
 13 14  1  0  0  0  0
 13 15  1  0  0  0  0
 13 38  1  0  0  0  0
 14 39  1  0  0  0  0
 14 40  1  0  0  0  0
 14 41  1  0  0  0  0
 15 16  1  0  0  0  0
 15 17  1  0  0  0  0
 15 42  1  0  0  0  0
 16 43  1  0  0  0  0
 16 44  1  0  0  0  0
 16 45  1  0  0  0  0
 17 21  1  0  0  0  0
 17 18  1  0  0  0  0
 18 19  2  0  0  0  0
 18 46  1  0  0  0  0
 19 20  1  0  0  0  0
 20 21  2  0  0  0  0
 20 47  1  0  0  0  0
M  END
> <s_m_source_file>
AV-unprocessed.smi

> <i_m_source_file_index>
2902

> <i_lp_mmshare_version>
43012

> <i_f3d_flags>
0

> <s_epik_input>
W0NIMl0xW0NIMl1bQ0gyXVtDSDJdW0NIXTFPW0NAQEhdKFtDSDJdW0NIM10pQyg9TylbTkhdW0NASF0oW0NIM10pW0NASF0oW0NIM10pbjJbY0hdbltjSF1uMg==

> <s_epik_cmdline>
J2VwaWtfcHl0aG9uJywgJy1waCcsICc3LjAnLCAnLXRuJywgJzgnLCAnLW1hJywgJzIwMCcsICctbWV0YWxfYmluZGluZycsICctaW1hZScsICc8aW5maWxlLm1hZT4nLCAnLW9tYWUnLCAnPG91dGZpbGUubWFlPic=

> <r_lp_tautomer_probability>
1

> <r_epik_Ionization_Penalty>
6.95617e-05

> <r_epik_Ionization_Penalty_Charging>
0

> <r_epik_Ionization_Penalty_Neutral>
6.95617e-05

> <r_epik_State_Penalty>
-0

> <r_epik_Charging_Adjusted_Penalty>
0

> <i_epik_Tot_Q>
0

> <i_epik_Tot_abs_Q>
0

> <r_epik_Metal_State_Penalty>
-0

> <b_epik_Metal_Only>
0

> <s_lp_Force_Field>
OPLS_2005

> <r_lp_Energy>
29.2018

> <b_lp_Chiralities_Consistent>
1

> <s_lp_Variant>
AV-unprocessed.smi:2902-3

> <Gold.Version>
5.8.1

> <Gold.Id.Protein>
6NUR|6NUR_protein|mol2

> <Gold.PLP.Fitness>
42.8256

> <Gold.PLP.PLP>
-37.4442

> <Gold.PLP.part.hbond>
-1.0000

> <Gold.PLP.part.metal>
0.0000

> <Gold.PLP.part.buried>
-4.5134

> <Gold.PLP.part.nonpolar>
-31.4067

> <Gold.PLP.part.repulsive>
0.2792

> <Gold.PLP.ligand.clash>
0.0000

> <Gold.PLP.ligand.torsion>
0.4079

> <Gold.PLP.Chemscore.Hbond>
1.0000

> <Gold.PLP.Chemscore.CHOScore>
1.0000

> <Gold.PLP.Chemscore.Metal>
0.0000

> <Gold.Chemscore.Hbonds>
donor molecule, donor type, donor heavy atom, donor atom, acceptor molecule, acceptor atom, score
      P1  H  7989  7998       L1    11  0.96
      L1  C    18    46       P1 10175  1.00

> <Gold.PLP.Chemscore.Internal.Correction>
0.1973

> <Gold.Rescore>
     Score         DG    S(hbond)    S(metal)    S(lipo)     H(rot)  DE(clash)    DE(int)     intcor
     10.55     -13.20       0.90        0.00      99.12       2.69       0.08       2.57       ----

> <Gold.Chemscore.Fitness>
10.5461

> <Gold.Chemscore.DG>
-13.1980

> <Gold.Chemscore.ZeroCoef>
-5.4800

> <Gold.Chemscore.Hbond>
0.9032

> <Gold.Chemscore.Metal>
0.0000

> <Gold.Chemscore.Lipo>
99.1172

> <Gold.Chemscore.Internal_Hbond>
0.0000

> <Gold.Chemscore.DEClash>
0.0778

> <Gold.Chemscore.DEInternal>
2.5742

> <Gold.Chemscore.Rot>
2.6935

> <Gold.Chemscore.Internal.Correction>
   9.000000E+99

> <Gold.Chemscore.Hbonds>
donor molecule, donor type, donor heavy atom, donor atom, acceptor molecule, acceptor atom, score
      P1  H  7989  7998       L1    11  0.65

> <Gold.Chemscore.Hbond.Weighted>
-3.0167

> <Gold.Chemscore.Metal.Weighted>
-0.0000

> <Gold.Chemscore.Lipo.Weighted>
-11.5967

> <Gold.Chemscore.Internal_Hbond.Weighted>
0.0000

> <Gold.Chemscore.DEClash.Weighted>
0.0778

> <Gold.Chemscore.DEInternal.Weighted>
2.5742

> <Gold.Chemscore.Rot.Weighted>
6.8954

> <Gold.Chemscore.Internal.Correction.Weighted>
   9.000000E+99

> <Gold.Protein.RotatedTorsions>
[ 6907 6896 6895 6894 ] final  -82.92 input  -60.11 | X-H torsion
[ 7974 7965 7964 7962 ] final   55.23 input  175.53 | X-H torsion
[ 8008 7997 7996 7995 ] final  117.99 input   59.86 | X-H torsion
[ 10167 10162 10161 10158 ] final  -16.92 input  -65.29 | X-H torsion
[ 10718 10713 10712 10709 ] final  153.98 input   66.30 | X-H torsion
[ 10763 10752 10751 10750 ] final  -67.32 input  -60.55 | X-H torsion
[ 11005 11000 10999 10996 ] final   54.32 input  -57.11 | X-H torsion

> <Gold.Protein.ActiveResidues>
 VAL166  LYS551  ARG553  GLY616  TRP617  ASP618  TYR619  PRO620  LYS621  CYS622 
 ASP623  PHE694  ASN695  SER759  ASP760  ASP761  ALA762  ILE779  LEU786  VAL792 
 PHE793  MET794  SER795  GLU796  ALA797  LYS798  CYS799  TRP800  GLU811  SER814 

> <Gold.Protein.RotatedAtoms>
  150.6891  134.3591  159.4942 H   0  0  0  0  0  0  0  0  0  0  0  0  # atno 6907 bound_to 6896
  152.1422  134.9051  160.0562 H   0  0  0  0  0  0  0  0  0  0  0  0  # atno 6908 bound_to 6896
  152.0180  133.3852  159.4283 H   0  0  0  0  0  0  0  0  0  0  0  0  # atno 6909 bound_to 6896
  145.9526  139.3986  143.0297 H   0  0  0  0  0  0  0  0  0  0  0  0  # atno 7974 bound_to 7965
  156.2523  140.2884  156.0765 H   0  0  0  0  0  0  0  0  0  0  0  0  # atno 8008 bound_to 7997
  155.1613  140.0399  157.2860 H   0  0  0  0  0  0  0  0  0  0  0  0  # atno 8009 bound_to 7997
  154.6391  140.2518  155.7350 H   0  0  0  0  0  0  0  0  0  0  0  0  # atno 8010 bound_to 7997
  140.7240  143.5068  150.9800 H   0  0  0  0  0  0  0  0  0  0  0  0  # atno 10167 bound_to 10162
  157.2377  131.0752  151.1813 H   0  0  0  0  0  0  0  0  0  0  0  0  # atno 10718 bound_to 10713
  154.3728  135.6091  153.5749 H   0  0  0  0  0  0  0  0  0  0  0  0  # atno 10763 bound_to 10752
  152.9790  135.5842  154.4502 H   0  0  0  0  0  0  0  0  0  0  0  0  # atno 10764 bound_to 10752
  154.4258  135.2847  155.1923 H   0  0  0  0  0  0  0  0  0  0  0  0  # atno 10765 bound_to 10752
  140.0695  134.5489  155.9062 H   0  0  0  0  0  0  0  0  0  0  0  0  # atno 11005 bound_to 11000
  145.8150  140.9707  143.0929 LP  0  0  0  0  0  0  0  0  0  0  0  0  # atno 17320 bound_to 7965
  144.6799  139.9969  143.7484 LP  0  0  0  0  0  0  0  0  0  0  0  0  # atno 17321 bound_to 7965
  139.8779  143.7109  152.3160 LP  0  0  0  0  0  0  0  0  0  0  0  0  # atno 17342 bound_to 10162
  139.7381  144.7566  151.0696 LP  0  0  0  0  0  0  0  0  0  0  0  0  # atno 17343 bound_to 10162
  157.3412  130.7034  149.6383 LP  0  0  0  0  0  0  0  0  0  0  0  0  # atno 17370 bound_to 10713
  155.9672  130.4279  150.4766 LP  0  0  0  0  0  0  0  0  0  0  0  0  # atno 17371 bound_to 10713
  141.2006  133.6613  156.5907 LP  0  0  0  0  0  0  0  0  0  0  0  0  # atno 17394 bound_to 11000
  140.3648  134.7657  157.4558 LP  0  0  0  0  0  0  0  0  0  0  0  0  # atno 17395 bound_to 11000

$$$$
