AV-unprocessed.smi:952|AV-procd|sdf|4255|dock9
  -GOLD-   22720 2163D 1   1.00000     0.00000
 Structure written by MMmdl.
 35 35  0  0  0  0  0  0  0  0  1 V2000
  147.9437  141.8302  153.8223 C   0  0  0  0  0  0  0  0  0  0  0  0
  149.0604  140.9283  154.3582 C   0  0  0  0  0  0  0  0  0  0  0  0
  149.9536  141.6460  155.3834 C   0  0  0  0  0  0  0  0  0  0  0  0
  150.5301  140.7103  156.3420 N   0  0  0  0  0  0  0  0  0  0  0  0
  151.4423  139.7717  156.0482 C   0  0  0  0  0  0  0  0  0  0  0  0
  151.8806  139.5891  154.9112 O   0  0  0  0  0  0  0  0  0  0  0  0
  151.9109  138.8949  157.2157 C   0  0  0  0  0  0  0  0  0  0  0  0
  152.7956  139.6185  158.1238 N   0  0  0  0  0  0  0  0  0  0  0  0
  152.4351  140.6656  158.8832 C   0  0  0  0  0  0  0  0  0  0  0  0
  151.2780  141.0830  158.9479 O   0  0  0  0  0  0  0  0  0  0  0  0
  153.5625  141.3510  159.6693 C   0  0  2  0  0  0  0  0  0  0  0  0
  154.3361  140.3715  160.5759 C   0  0  0  0  0  0  0  0  0  0  0  0
  153.0263  142.4916  160.4040 N   0  0  0  0  0  0  0  0  0  0  0  0
  153.0786  142.7220  161.7641 C   0  0  0  0  0  0  0  0  0  0  0  0
  152.5042  143.9382  161.9988 C   0  0  0  0  0  0  0  0  0  0  0  0
  152.1380  144.3936  160.7020 C   0  0  0  0  0  0  0  0  0  0  0  0
  152.4587  143.5326  159.7507 N   0  0  0  0  0  0  0  0  0  0  0  0
  147.3276  141.2966  153.0983 H   0  0  0  0  0  0  0  0  0  0  0  0
  148.3523  142.7114  153.3271 H   0  0  0  0  0  0  0  0  0  0  0  0
  147.2917  142.1694  154.6278 H   0  0  0  0  0  0  0  0  0  0  0  0
  148.6139  140.0415  154.8101 H   0  0  0  0  0  0  0  0  0  0  0  0
  149.6690  140.5757  153.5247 H   0  0  0  0  0  0  0  0  0  0  0  0
  150.7724  142.1522  154.8715 H   0  0  0  0  0  0  0  0  0  0  0  0
  149.3899  142.4197  155.9076 H   0  0  0  0  0  0  0  0  0  0  0  0
  150.2205  140.7888  157.3000 H   0  0  0  0  0  0  0  0  0  0  0  0
  151.0530  138.4923  157.7575 H   0  0  0  0  0  0  0  0  0  0  0  0
  152.4555  138.0415  156.8114 H   0  0  0  0  0  0  0  0  0  0  0  0
  153.7669  139.3429  158.1264 H   0  0  0  0  0  0  0  0  0  0  0  0
  154.2760  141.7463  158.9442 H   0  0  0  0  0  0  0  0  0  0  0  0
  154.7796  139.5646  159.9919 H   0  0  0  0  0  0  0  0  0  0  0  0
  153.6961  139.9163  161.3329 H   0  0  0  0  0  0  0  0  0  0  0  0
  155.1478  140.8826  161.0945 H   0  0  0  0  0  0  0  0  0  0  0  0
  153.5193  142.0092  162.4456 H   0  0  0  0  0  0  0  0  0  0  0  0
  152.3735  144.4311  162.9506 H   0  0  0  0  0  0  0  0  0  0  0  0
  151.6576  145.3206  160.4251 H   0  0  0  0  0  0  0  0  0  0  0  0
  1  2  1  0  0  0  0
  1 18  1  0  0  0  0
  1 19  1  0  0  0  0
  1 20  1  0  0  0  0
  2  3  1  0  0  0  0
  2 21  1  0  0  0  0
  2 22  1  0  0  0  0
  3  4  1  0  0  0  0
  3 23  1  0  0  0  0
  3 24  1  0  0  0  0
  4  5  1  0  0  0  0
  4 25  1  0  0  0  0
  5  6  2  0  0  0  0
  5  7  1  0  0  0  0
  7  8  1  0  0  0  0
  7 26  1  0  0  0  0
  7 27  1  0  0  0  0
  8  9  1  0  0  0  0
  8 28  1  0  0  0  0
  9 10  2  0  0  0  0
  9 11  1  0  0  0  0
 11 12  1  0  0  0  0
 11 13  1  0  0  0  0
 11 29  1  0  0  0  0
 12 30  1  0  0  0  0
 12 31  1  0  0  0  0
 12 32  1  0  0  0  0
 13 17  1  0  0  0  0
 13 14  1  0  0  0  0
 14 15  2  0  0  0  0
 14 33  1  0  0  0  0
 15 16  1  0  0  0  0
 15 34  1  0  0  0  0
 16 17  2  0  0  0  0
 16 35  1  0  0  0  0
M  END
> <s_m_source_file>
AV-unprocessed.smi

> <i_m_source_file_index>
952

> <i_lp_mmshare_version>
43012

> <i_f3d_flags>
0

> <s_epik_input>
W0NIM11bQ0gyXVtDSDJdW05IXUMoPU8pW0NIMl1bTkhdQyg9TylbQ0BIXShbQ0gzXSluMVtjSF1bY0hdW2NIXW4x

> <s_epik_cmdline>
J2VwaWtfcHl0aG9uJywgJy1waCcsICc3LjAnLCAnLXRuJywgJzgnLCAnLW1hJywgJzIwMCcsICctbWV0YWxfYmluZGluZycsICctaW1hZScsICc8aW5maWxlLm1hZT4nLCAnLW9tYWUnLCAnPG91dGZpbGUubWFlPic=

> <r_lp_tautomer_probability>
1

> <r_epik_Ionization_Penalty>
2.62173e-05

> <r_epik_Ionization_Penalty_Charging>
0

> <r_epik_Ionization_Penalty_Neutral>
2.62173e-05

> <r_epik_State_Penalty>
-0

> <r_epik_Charging_Adjusted_Penalty>
0

> <i_epik_Tot_Q>
0

> <i_epik_Tot_abs_Q>
0

> <r_epik_Metal_State_Penalty>
-0

> <b_epik_Metal_Only>
0

> <s_lp_Force_Field>
OPLS_2005

> <r_lp_Energy>
2.54984

> <b_lp_Chiralities_Consistent>
1

> <s_lp_Variant>
AV-unprocessed.smi:952-1

> <Gold.Version>
5.8.1

> <Gold.Id.Protein>
6NUR|6NUR_protein|mol2

> <Gold.PLP.Fitness>
41.4801

> <Gold.PLP.PLP>
-39.2803

> <Gold.PLP.part.hbond>
-1.0000

> <Gold.PLP.part.metal>
0.0000

> <Gold.PLP.part.buried>
-6.2422

> <Gold.PLP.part.nonpolar>
-33.2703

> <Gold.PLP.part.repulsive>
0.6984

> <Gold.PLP.ligand.clash>
0.0000

> <Gold.PLP.ligand.torsion>
0.4337

> <Gold.PLP.Chemscore.Hbond>
0.9760

> <Gold.PLP.Chemscore.CHOScore>
0.0000

> <Gold.PLP.Chemscore.Metal>
0.0000

> <Gold.Chemscore.Hbonds>
donor molecule, donor type, donor heavy atom, donor atom, acceptor molecule, acceptor atom, score
      P1  H  7989  7998       L1     6  0.99

> <Gold.PLP.Chemscore.Internal.Correction>
0.1393

> <Gold.Rescore>
     Score         DG    S(hbond)    S(metal)    S(lipo)     H(rot)  DE(clash)    DE(int)     intcor
      9.63     -12.69       0.99        0.00      82.36       2.24       0.03       3.04       ----

> <Gold.Chemscore.Fitness>
9.6269

> <Gold.Chemscore.DG>
-12.6945

> <Gold.Chemscore.ZeroCoef>
-5.4800

> <Gold.Chemscore.Hbond>
0.9889

> <Gold.Chemscore.Metal>
0.0000

> <Gold.Chemscore.Lipo>
82.3635

> <Gold.Chemscore.Internal_Hbond>
0.0000

> <Gold.Chemscore.DEClash>
0.0318

> <Gold.Chemscore.DEInternal>
3.0358

> <Gold.Chemscore.Rot>
2.2364

> <Gold.Chemscore.Internal.Correction>
   9.000000E+99

> <Gold.Chemscore.Hbonds>
donor molecule, donor type, donor heavy atom, donor atom, acceptor molecule, acceptor atom, score
      P1  H  7989  7998       L1     6  0.92

> <Gold.Chemscore.Hbond.Weighted>
-3.3031

> <Gold.Chemscore.Metal.Weighted>
-0.0000

> <Gold.Chemscore.Lipo.Weighted>
-9.6365

> <Gold.Chemscore.Internal_Hbond.Weighted>
0.0000

> <Gold.Chemscore.DEClash.Weighted>
0.0318

> <Gold.Chemscore.DEInternal.Weighted>
3.0358

> <Gold.Chemscore.Rot.Weighted>
5.7251

> <Gold.Chemscore.Internal.Correction.Weighted>
   9.000000E+99

> <Gold.Protein.RotatedTorsions>
[ 6907 6896 6895 6894 ] final  122.80 input  -60.11 | X-H torsion
[ 7974 7965 7964 7962 ] final  -69.03 input  175.53 | X-H torsion
[ 8008 7997 7996 7995 ] final  -95.92 input   59.86 | X-H torsion
[ 10167 10162 10161 10158 ] final   71.14 input  -65.29 | X-H torsion
[ 10718 10713 10712 10709 ] final  -99.27 input   66.30 | X-H torsion
[ 10763 10752 10751 10750 ] final -128.93 input  -60.55 | X-H torsion
[ 11005 11000 10999 10996 ] final  173.62 input  -57.11 | X-H torsion

> <Gold.Protein.ActiveResidues>
 VAL166  LYS551  ARG553  GLY616  TRP617  ASP618  TYR619  PRO620  LYS621  CYS622 
 ASP623  PHE694  ASN695  SER759  ASP760  ASP761  ALA762  ILE779  LEU786  VAL792 
 PHE793  MET794  SER795  GLU796  ALA797  LYS798  CYS799  TRP800  GLU811  SER814 

> <Gold.Protein.RotatedAtoms>
  152.4213  133.7121  159.6484 H   0  0  0  0  0  0  0  0  0  0  0  0  # atno 6907 bound_to 6896
  150.8089  133.8447  159.3197 H   0  0  0  0  0  0  0  0  0  0  0  0  # atno 6908 bound_to 6896
  151.6163  135.1038  160.0143 H   0  0  0  0  0  0  0  0  0  0  0  0  # atno 6909 bound_to 6896
  145.7090  140.9086  143.0691 H   0  0  0  0  0  0  0  0  0  0  0  0  # atno 7974 bound_to 7965
  154.7676  140.0476  157.1025 H   0  0  0  0  0  0  0  0  0  0  0  0  # atno 8008 bound_to 7997
  154.9860  140.3107  155.4907 H   0  0  0  0  0  0  0  0  0  0  0  0  # atno 8009 bound_to 7997
  156.2915  140.2227  156.4962 H   0  0  0  0  0  0  0  0  0  0  0  0  # atno 8010 bound_to 7997
  140.0493  144.5325  150.7375 H   0  0  0  0  0  0  0  0  0  0  0  0  # atno 10167 bound_to 10162
  156.0129  130.5275  150.6645 H   0  0  0  0  0  0  0  0  0  0  0  0  # atno 10718 bound_to 10713
  154.8757  135.3912  154.3836 H   0  0  0  0  0  0  0  0  0  0  0  0  # atno 10763 bound_to 10752
  153.4581  135.7029  153.6072 H   0  0  0  0  0  0  0  0  0  0  0  0  # atno 10764 bound_to 10752
  153.4583  135.3818  155.2292 H   0  0  0  0  0  0  0  0  0  0  0  0  # atno 10765 bound_to 10752
  140.3425  134.7264  157.4212 H   0  0  0  0  0  0  0  0  0  0  0  0  # atno 11005 bound_to 11000
  144.6947  139.9049  143.7460 LP  0  0  0  0  0  0  0  0  0  0  0  0  # atno 17320 bound_to 7965
  146.0729  139.3718  143.0511 LP  0  0  0  0  0  0  0  0  0  0  0  0  # atno 17321 bound_to 7965
  140.7224  143.2602  151.4234 LP  0  0  0  0  0  0  0  0  0  0  0  0  # atno 17342 bound_to 10162
  139.5963  144.1390  152.2148 LP  0  0  0  0  0  0  0  0  0  0  0  0  # atno 17343 bound_to 10162
  157.4381  131.0858  151.0971 LP  0  0  0  0  0  0  0  0  0  0  0  0  # atno 17370 bound_to 10713
  157.1524  130.6190  149.5586 LP  0  0  0  0  0  0  0  0  0  0  0  0  # atno 17371 bound_to 10713
  140.0770  134.5784  155.8581 LP  0  0  0  0  0  0  0  0  0  0  0  0  # atno 17394 bound_to 11000
  141.2035  133.6632  156.6064 LP  0  0  0  0  0  0  0  0  0  0  0  0  # atno 17395 bound_to 11000

$$$$
