AV-unprocessed.smi:1956|AV-procd|sdf|7903|dock10
  -GOLD-   2272010 63D 1   1.00000     0.00000
 Structure written by MMmdl.
 46 47  0  0  0  0  0  0  0  0  2 V2000
  150.8499  142.0091  157.8457 C   0  0  0  0  0  0  0  0  0  0  0  0
  151.1836  141.6273  156.5157 O   0  0  0  0  0  0  0  0  0  0  0  0
  150.7175  140.4169  156.0449 C   0  0  0  0  0  0  0  0  0  0  0  0
  150.2234  139.4780  156.9719 C   0  0  0  0  0  0  0  0  0  0  0  0
  149.7480  138.2396  156.5002 C   0  0  0  0  0  0  0  0  0  0  0  0
  149.7896  137.9744  155.1103 C   0  0  0  0  0  0  0  0  0  0  0  0
  149.3251  136.7722  154.5105 N   0  0  0  0  0  0  0  0  0  0  0  0
  148.8234  135.6790  155.1104 C   0  0  0  0  0  0  0  0  0  0  0  0
  148.7131  135.5200  156.3260 O   0  0  0  0  0  0  0  0  0  0  0  0
  148.4688  134.7474  154.2136 N   0  0  0  0  0  0  0  0  0  0  0  0
  147.8910  133.4504  154.5482 C   0  0  0  0  0  0  0  0  0  0  0  0
  147.7618  132.5512  153.3030 C   0  0  0  0  0  0  0  0  0  0  0  0
  146.4203  132.6368  152.6718 N   0  3  2  0  0  0  0  0  0  0  0  0
  146.1026  131.4239  151.8739 C   0  0  0  0  0  0  0  0  0  0  0  0
  144.6596  131.4670  151.3478 C   0  0  0  0  0  0  0  0  0  0  0  0
  144.4136  132.7374  150.5254 C   0  0  0  0  0  0  0  0  0  0  0  0
  144.7713  133.9839  151.3520 C   0  0  2  0  0  0  0  0  0  0  0  0
  144.5585  135.2716  150.5435 C   0  0  0  0  0  0  0  0  0  0  0  0
  146.2169  133.8802  151.8799 C   0  0  0  0  0  0  0  0  0  0  0  0
  150.2892  138.9869  154.2651 C   0  0  0  0  0  0  0  0  0  0  0  0
  150.7473  140.1758  154.7107 N   0  0  0  0  0  0  0  0  0  0  0  0
  151.2862  142.9845  158.0607 H   0  0  0  0  0  0  0  0  0  0  0  0
  151.2462  141.3021  158.5760 H   0  0  0  0  0  0  0  0  0  0  0  0
  149.7703  142.0938  157.9777 H   0  0  0  0  0  0  0  0  0  0  0  0
  150.2048  139.7051  158.0278 H   0  0  0  0  0  0  0  0  0  0  0  0
  149.3513  137.5300  157.2095 H   0  0  0  0  0  0  0  0  0  0  0  0
  149.4336  136.7205  153.5081 H   0  0  0  0  0  0  0  0  0  0  0  0
  148.5966  134.9541  153.2334 H   0  0  0  0  0  0  0  0  0  0  0  0
  148.4947  132.9601  155.3139 H   0  0  0  0  0  0  0  0  0  0  0  0
  146.9159  133.6390  154.9953 H   0  0  0  0  0  0  0  0  0  0  0  0
  148.5327  132.7925  152.5694 H   0  0  0  0  0  0  0  0  0  0  0  0
  147.9397  131.5184  153.6064 H   0  0  0  0  0  0  0  0  0  0  0  0
  146.8047  131.3395  151.0429 H   0  0  0  0  0  0  0  0  0  0  0  0
  146.2291  130.5320  152.4889 H   0  0  0  0  0  0  0  0  0  0  0  0
  144.4592  130.5852  150.7383 H   0  0  0  0  0  0  0  0  0  0  0  0
  143.9616  131.4298  152.1854 H   0  0  0  0  0  0  0  0  0  0  0  0
  145.0147  132.7073  149.6155 H   0  0  0  0  0  0  0  0  0  0  0  0
  143.3706  132.7777  150.2094 H   0  0  0  0  0  0  0  0  0  0  0  0
  144.1011  134.0223  152.2123 H   0  0  0  0  0  0  0  0  0  0  0  0
  145.2003  135.2976  149.6624 H   0  0  0  0  0  0  0  0  0  0  0  0
  144.7811  136.1542  151.1439 H   0  0  0  0  0  0  0  0  0  0  0  0
  143.5253  135.3563  150.2050 H   0  0  0  0  0  0  0  0  0  0  0  0
  146.4275  134.7538  152.4952 H   0  0  0  0  0  0  0  0  0  0  0  0
  146.9249  133.9024  151.0495 H   0  0  0  0  0  0  0  0  0  0  0  0
  150.3293  138.8376  153.1958 H   0  0  0  0  0  0  0  0  0  0  0  0
  145.7515  132.6564  153.4285 H   0  0  0  0  0  0  0  0  0  0  0  0
  1  2  1  0  0  0  0
  1 22  1  0  0  0  0
  1 23  1  0  0  0  0
  1 24  1  0  0  0  0
  2  3  1  0  0  0  0
  3 21  1  0  0  0  0
  3  4  2  0  0  0  0
  4  5  1  0  0  0  0
  4 25  1  0  0  0  0
  5  6  2  0  0  0  0
  5 26  1  0  0  0  0
  6  7  1  0  0  0  0
  6 20  1  0  0  0  0
  7  8  1  0  0  0  0
  7 27  1  0  0  0  0
  8  9  2  0  0  0  0
  8 10  1  0  0  0  0
 10 11  1  0  0  0  0
 10 28  1  0  0  0  0
 11 12  1  0  0  0  0
 11 29  1  0  0  0  0
 11 30  1  0  0  0  0
 12 13  1  0  0  0  0
 12 31  1  0  0  0  0
 12 32  1  0  0  0  0
 13 19  1  0  0  0  0
 13 14  1  0  0  0  0
 13 46  1  0  0  0  0
 14 15  1  0  0  0  0
 14 33  1  0  0  0  0
 14 34  1  0  0  0  0
 15 16  1  0  0  0  0
 15 35  1  0  0  0  0
 15 36  1  0  0  0  0
 16 17  1  0  0  0  0
 16 37  1  0  0  0  0
 16 38  1  0  0  0  0
 17 18  1  0  0  0  0
 17 19  1  0  0  0  0
 17 39  1  0  0  0  0
 18 40  1  0  0  0  0
 18 41  1  0  0  0  0
 18 42  1  0  0  0  0
 19 43  1  0  0  0  0
 19 44  1  0  0  0  0
 20 21  2  0  0  0  0
 20 45  1  0  0  0  0
M  CHG  1  13   1
M  END
> <s_m_source_file>
AV-unprocessed.smi

> <i_m_source_file_index>
1956

> <i_lp_mmshare_version>
43012

> <i_f3d_flags>
0

> <s_epik_input>
W0NIM11PYzFbY0hdW2NIXWMoW2NIXW4xKVtOSF1DKD1PKVtOSF1bQ0gyXVtDSDJdTjJbQ0gyXVtDSDJdW0NIMl1bQ0BASF0oW0NIM10pW0NIMl0y

> <s_epik_cmdline>
J2VwaWtfcHl0aG9uJywgJy1waCcsICc3LjAnLCAnLXRuJywgJzgnLCAnLW1hJywgJzIwMCcsICctbWV0YWxfYmluZGluZycsICctaW1hZScsICc8aW5maWxlLm1hZT4nLCAnLW9tYWUnLCAnPG91dGZpbGUubWFlPic=

> <r_lp_tautomer_probability>
1

> <r_epik_Ionization_Penalty>
0.00179545

> <r_epik_Ionization_Penalty_Charging>
0.00171832

> <r_epik_Ionization_Penalty_Neutral>
7.7124e-05

> <r_epik_State_Penalty>
0.0011618

> <r_epik_Charging_Adjusted_Penalty>
0.00288012

> <i_epik_Tot_Q>
1

> <i_epik_Tot_abs_Q>
1

> <r_epik_Metal_State_Penalty>
-0

> <b_epik_Metal_Only>
0

> <s_lp_Force_Field>
OPLS_2005

> <r_lp_Energy>
19.732

> <b_lp_Chiralities_Consistent>
1

> <s_lp_Variant>
AV-unprocessed.smi:1956-4

> <Gold.Version>
5.8.1

> <Gold.Id.Protein>
6NUR|6NUR_protein|mol2

> <Gold.PLP.Fitness>
43.8334

> <Gold.PLP.PLP>
-33.0890

> <Gold.PLP.part.hbond>
-3.0000

> <Gold.PLP.part.metal>
0.0000

> <Gold.PLP.part.buried>
-4.5541

> <Gold.PLP.part.nonpolar>
-25.1887

> <Gold.PLP.part.repulsive>
0.1652

> <Gold.PLP.ligand.clash>
0.0007

> <Gold.PLP.ligand.torsion>
0.6413

> <Gold.PLP.Chemscore.Hbond>
3.0000

> <Gold.PLP.Chemscore.CHOScore>
1.0000

> <Gold.PLP.Chemscore.Metal>
0.0000

> <Gold.Chemscore.Hbonds>
donor molecule, donor type, donor heavy atom, donor atom, acceptor molecule, acceptor atom, score
      L1  H     7    27       P1  7948  1.00
      L1  H    10    28       P1  7948  1.00
      P1  H  7989  7998       L1    21  1.00
      L1  C    20    45       P1  7957  1.00

> <Gold.PLP.Chemscore.Internal.Correction>
0.0277

> <Gold.Rescore>
     Score         DG    S(hbond)    S(metal)    S(lipo)     H(rot)  DE(clash)    DE(int)     intcor
     16.38     -18.33       2.67        0.00      70.98       1.71       0.00       1.95       ----

> <Gold.Chemscore.Fitness>
16.3832

> <Gold.Chemscore.DG>
-18.3348

> <Gold.Chemscore.ZeroCoef>
-5.4800

> <Gold.Chemscore.Hbond>
2.6736

> <Gold.Chemscore.Metal>
0.0000

> <Gold.Chemscore.Lipo>
70.9771

> <Gold.Chemscore.Internal_Hbond>
0.0000

> <Gold.Chemscore.DEClash>
0.0048

> <Gold.Chemscore.DEInternal>
1.9468

> <Gold.Chemscore.Rot>
1.7107

> <Gold.Chemscore.Internal.Correction>
   9.000000E+99

> <Gold.Chemscore.Hbonds>
donor molecule, donor type, donor heavy atom, donor atom, acceptor molecule, acceptor atom, score
      L1  H     7    27       P1  7948  0.84
      L1  H    10    28       P1  7948  0.62
      P1  H  7989  7998       L1    21  0.65

> <Gold.Chemscore.Hbond.Weighted>
-8.9300

> <Gold.Chemscore.Metal.Weighted>
-0.0000

> <Gold.Chemscore.Lipo.Weighted>
-8.3043

> <Gold.Chemscore.Internal_Hbond.Weighted>
0.0000

> <Gold.Chemscore.DEClash.Weighted>
0.0048

> <Gold.Chemscore.DEInternal.Weighted>
1.9468

> <Gold.Chemscore.Rot.Weighted>
4.3794

> <Gold.Chemscore.Internal.Correction.Weighted>
   9.000000E+99

> <Gold.Protein.RotatedTorsions>
[ 6907 6896 6895 6894 ] final   41.63 input  -60.11 | X-H torsion
[ 7974 7965 7964 7962 ] final   30.06 input  175.53 | X-H torsion
[ 8008 7997 7996 7995 ] final -171.63 input   59.86 | X-H torsion
[ 10167 10162 10161 10158 ] final   98.18 input  -65.29 | X-H torsion
[ 10718 10713 10712 10709 ] final  -16.50 input   66.30 | X-H torsion
[ 10763 10752 10751 10750 ] final -174.15 input  -60.55 | X-H torsion
[ 11005 11000 10999 10996 ] final  -21.85 input  -57.11 | X-H torsion

> <Gold.Protein.ActiveResidues>
 VAL166  LYS551  ARG553  GLY616  TRP617  ASP618  TYR619  PRO620  LYS621  CYS622 
 ASP623  PHE694  ASN695  SER759  ASP760  ASP761  ALA762  ILE779  LEU786  VAL792 
 PHE793  MET794  SER795  GLU796  ALA797  LYS798  CYS799  TRP800  GLU811  SER814 

> <Gold.Protein.RotatedAtoms>
  152.1977  134.8616  160.0510 H   0  0  0  0  0  0  0  0  0  0  0  0  # atno 6907 bound_to 6896
  151.9481  133.3653  159.3998 H   0  0  0  0  0  0  0  0  0  0  0  0  # atno 6908 bound_to 6896
  150.6948  134.4293  159.5285 H   0  0  0  0  0  0  0  0  0  0  0  0  # atno 6909 bound_to 6896
  146.1634  139.6839  142.9017 H   0  0  0  0  0  0  0  0  0  0  0  0  # atno 7974 bound_to 7965
  155.9341  140.1096  157.1109 H   0  0  0  0  0  0  0  0  0  0  0  0  # atno 8008 bound_to 7997
  154.4076  140.1232  156.4907 H   0  0  0  0  0  0  0  0  0  0  0  0  # atno 8009 bound_to 7997
  155.7043  140.3471  155.4949 H   0  0  0  0  0  0  0  0  0  0  0  0  # atno 8010 bound_to 7997
  139.7732  144.6915  151.0126 H   0  0  0  0  0  0  0  0  0  0  0  0  # atno 10167 bound_to 10162
  156.5867  130.4788  149.6297 H   0  0  0  0  0  0  0  0  0  0  0  0  # atno 10718 bound_to 10713
  154.5996  135.2853  155.0549 H   0  0  0  0  0  0  0  0  0  0  0  0  # atno 10763 bound_to 10752
  154.1819  135.6455  153.5040 H   0  0  0  0  0  0  0  0  0  0  0  0  # atno 10764 bound_to 10752
  153.0152  135.5425  154.6710 H   0  0  0  0  0  0  0  0  0  0  0  0  # atno 10765 bound_to 10752
  140.8601  133.7794  156.0064 H   0  0  0  0  0  0  0  0  0  0  0  0  # atno 11005 bound_to 11000
  145.4529  141.0429  143.2794 LP  0  0  0  0  0  0  0  0  0  0  0  0  # atno 17320 bound_to 7965
  144.8059  139.6052  143.7051 LP  0  0  0  0  0  0  0  0  0  0  0  0  # atno 17321 bound_to 7965
  140.7815  143.4565  151.0338 LP  0  0  0  0  0  0  0  0  0  0  0  0  # atno 17342 bound_to 10162
  139.8248  143.7771  152.3178 LP  0  0  0  0  0  0  0  0  0  0  0  0  # atno 17343 bound_to 10162
  156.2584  130.6948  151.1709 LP  0  0  0  0  0  0  0  0  0  0  0  0  # atno 17370 bound_to 10713
  157.7313  131.0609  150.5682 LP  0  0  0  0  0  0  0  0  0  0  0  0  # atno 17371 bound_to 10713
  140.8693  134.2746  157.5198 LP  0  0  0  0  0  0  0  0  0  0  0  0  # atno 17394 bound_to 11000
  139.8706  134.9559  156.4220 LP  0  0  0  0  0  0  0  0  0  0  0  0  # atno 17395 bound_to 11000

$$$$
