AV-unprocessed.smi:3075|AV-procd|sdf|11724|dock10
  -GOLD-   2272017123D 1   1.00000     0.00000
 Structure written by MMmdl.
 29 30  0  0  0  0  0  0  0  0  1 V2000
  149.7120  142.6223  157.3261 N   0  0  0  0  0  0  0  0  0  0  0  0
  150.9669  142.0834  156.8396 C   0  0  0  0  0  0  0  0  0  0  0  0
  151.8740  141.6028  157.9628 C   0  0  0  0  0  0  0  0  0  0  0  0
  152.2976  142.5278  158.9406 C   0  0  0  0  0  0  0  0  0  0  0  0
  153.1542  142.0985  159.9700 C   0  0  0  0  0  0  0  0  0  0  0  0
  153.5590  140.7518  159.9796 C   0  0  0  0  0  0  0  0  0  0  0  0
  153.1621  139.8548  159.0537 N   0  0  0  0  0  0  0  0  0  0  0  0
  152.3327  140.2608  158.0605 C   0  0  0  0  0  0  0  0  0  0  0  0
  151.9157  139.2907  157.1301 N   0  0  0  0  0  0  0  0  0  0  0  0
  152.1861  139.5664  155.7225 C   0  0  0  0  0  0  0  0  0  0  0  0
  151.4931  138.5131  154.8414 C   0  0  0  0  0  0  0  0  0  0  0  0
  151.9224  137.2107  155.2291 O   0  0  0  0  0  0  0  0  0  0  0  0
  151.5929  136.9191  156.5843 C   0  0  0  0  0  0  0  0  0  0  0  0
  152.2796  137.9330  157.5156 C   0  0  0  0  0  0  0  0  0  0  0  0
  149.3434  143.2738  156.6479 H   0  0  0  0  0  0  0  0  0  0  0  0
  149.0329  141.8776  157.3920 H   0  0  0  0  0  0  0  0  0  0  0  0
  150.7632  141.2889  156.1221 H   0  0  0  0  0  0  0  0  0  0  0  0
  151.4853  142.8674  156.2868 H   0  0  0  0  0  0  0  0  0  0  0  0
  151.9716  143.5569  158.9004 H   0  0  0  0  0  0  0  0  0  0  0  0
  153.4944  142.7849  160.7311 H   0  0  0  0  0  0  0  0  0  0  0  0
  154.2177  140.3839  160.7524 H   0  0  0  0  0  0  0  0  0  0  0  0
  151.8300  140.5647  155.4652 H   0  0  0  0  0  0  0  0  0  0  0  0
  153.2616  139.5461  155.5400 H   0  0  0  0  0  0  0  0  0  0  0  0
  150.4077  138.5897  154.9236 H   0  0  0  0  0  0  0  0  0  0  0  0
  151.7462  138.6738  153.7933 H   0  0  0  0  0  0  0  0  0  0  0  0
  150.5100  136.9403  156.7187 H   0  0  0  0  0  0  0  0  0  0  0  0
  151.9237  135.9076  156.8210 H   0  0  0  0  0  0  0  0  0  0  0  0
  153.3631  137.8225  157.4541 H   0  0  0  0  0  0  0  0  0  0  0  0
  151.9983  137.7371  158.5498 H   0  0  0  0  0  0  0  0  0  0  0  0
  1  2  1  0  0  0  0
  1 15  1  0  0  0  0
  1 16  1  0  0  0  0
  2  3  1  0  0  0  0
  2 17  1  0  0  0  0
  2 18  1  0  0  0  0
  3  8  1  0  0  0  0
  3  4  2  0  0  0  0
  4  5  1  0  0  0  0
  4 19  1  0  0  0  0
  5  6  2  0  0  0  0
  5 20  1  0  0  0  0
  6  7  1  0  0  0  0
  6 21  1  0  0  0  0
  7  8  2  0  0  0  0
  8  9  1  0  0  0  0
  9 14  1  0  0  0  0
  9 10  1  0  0  0  0
 10 11  1  0  0  0  0
 10 22  1  0  0  0  0
 10 23  1  0  0  0  0
 11 12  1  0  0  0  0
 11 24  1  0  0  0  0
 11 25  1  0  0  0  0
 12 13  1  0  0  0  0
 13 14  1  0  0  0  0
 13 26  1  0  0  0  0
 13 27  1  0  0  0  0
 14 28  1  0  0  0  0
 14 29  1  0  0  0  0
M  END
> <s_m_source_file>
AV-unprocessed.smi

> <i_m_source_file_index>
3075

> <i_lp_mmshare_version>
43012

> <i_f3d_flags>
0

> <s_epik_input>
W05IMl1bQ0gyXWMxW2NIXVtjSF1bY0hdbmMxTjJbQ0gyXVtDSDJdT1tDSDJdW0NIMl0y

> <s_epik_cmdline>
J2VwaWtfcHl0aG9uJywgJy1waCcsICc3LjAnLCAnLXRuJywgJzgnLCAnLW1hJywgJzIwMCcsICctbWV0YWxfYmluZGluZycsICctaW1hZScsICc8aW5maWxlLm1hZT4nLCAnLW9tYWUnLCAnPG91dGZpbGUubWFlPic=

> <r_lp_tautomer_probability>
1

> <r_epik_Ionization_Penalty>
1.38161

> <r_epik_Ionization_Penalty_Charging>
0

> <r_epik_Ionization_Penalty_Neutral>
1.38161

> <r_epik_State_Penalty>
1.45585

> <r_epik_Charging_Adjusted_Penalty>
1.45585

> <i_epik_Tot_Q>
0

> <i_epik_Tot_abs_Q>
0

> <r_epik_Metal_State_Penalty>
1.45048

> <b_epik_Metal_Only>
0

> <s_lp_Force_Field>
OPLS_2005

> <r_lp_Energy>
18.9945

> <b_lp_Chiralities_Consistent>
1

> <s_lp_Variant>
AV-unprocessed.smi:3075-2

> <Gold.Version>
5.8.1

> <Gold.Id.Protein>
6NUR|6NUR_protein|mol2

> <Gold.PLP.Fitness>
32.1270

> <Gold.PLP.PLP>
-26.2810

> <Gold.PLP.part.hbond>
-2.0000

> <Gold.PLP.part.metal>
0.0000

> <Gold.PLP.part.buried>
-4.2199

> <Gold.PLP.part.nonpolar>
-20.3563

> <Gold.PLP.part.repulsive>
0.0777

> <Gold.PLP.ligand.clash>
0.0000

> <Gold.PLP.ligand.torsion>
0.1055

> <Gold.PLP.Chemscore.Hbond>
1.9600

> <Gold.PLP.Chemscore.CHOScore>
0.0000

> <Gold.PLP.Chemscore.Metal>
0.0000

> <Gold.Chemscore.Hbonds>
donor molecule, donor type, donor heavy atom, donor atom, acceptor molecule, acceptor atom, score
      L1  H     1    15       P1  8028  1.00
      P1  H 10752 10765       L1    12  0.96

> <Gold.PLP.Chemscore.Internal.Correction>
0.1771

> <Gold.Rescore>
     Score         DG    S(hbond)    S(metal)    S(lipo)     H(rot)  DE(clash)    DE(int)     intcor
     16.70     -16.92       1.92        0.00      71.18       1.29       0.01       0.21       ----

> <Gold.Chemscore.Fitness>
16.7007

> <Gold.Chemscore.DG>
-16.9212

> <Gold.Chemscore.ZeroCoef>
-5.4800

> <Gold.Chemscore.Hbond>
1.9191

> <Gold.Chemscore.Metal>
0.0000

> <Gold.Chemscore.Lipo>
71.1759

> <Gold.Chemscore.Internal_Hbond>
0.0000

> <Gold.Chemscore.DEClash>
0.0073

> <Gold.Chemscore.DEInternal>
0.2132

> <Gold.Chemscore.Rot>
1.2875

> <Gold.Chemscore.Internal.Correction>
   9.000000E+99

> <Gold.Chemscore.Hbonds>
donor molecule, donor type, donor heavy atom, donor atom, acceptor molecule, acceptor atom, score
      L1  H     1    15       P1  8028  1.00
      P1  H 10752 10765       L1    12  0.40

> <Gold.Chemscore.Hbond.Weighted>
-6.4097

> <Gold.Chemscore.Metal.Weighted>
-0.0000

> <Gold.Chemscore.Lipo.Weighted>
-8.3276

> <Gold.Chemscore.Internal_Hbond.Weighted>
0.0000

> <Gold.Chemscore.DEClash.Weighted>
0.0073

> <Gold.Chemscore.DEInternal.Weighted>
0.2132

> <Gold.Chemscore.Rot.Weighted>
3.2961

> <Gold.Chemscore.Internal.Correction.Weighted>
   9.000000E+99

> <Gold.Protein.RotatedTorsions>
[ 6907 6896 6895 6894 ] final  -55.75 input  -60.11 | X-H torsion
[ 7974 7965 7964 7962 ] final  137.50 input  175.53 | X-H torsion
[ 8008 7997 7996 7995 ] final  -55.14 input   59.86 | X-H torsion
[ 10167 10162 10161 10158 ] final -100.05 input  -65.29 | X-H torsion
[ 10718 10713 10712 10709 ] final -150.64 input   66.30 | X-H torsion
[ 10763 10752 10751 10750 ] final -178.71 input  -60.55 | X-H torsion
[ 11005 11000 10999 10996 ] final   58.52 input  -57.11 | X-H torsion

> <Gold.Protein.ActiveResidues>
 VAL166  LYS551  ARG553  GLY616  TRP617  ASP618  TYR619  PRO620  LYS621  CYS622 
 ASP623  PHE694  ASN695  SER759  ASP760  ASP761  ALA762  ILE779  LEU786  VAL792 
 PHE793  MET794  SER795  GLU796  ALA797  LYS798  CYS799  TRP800  GLU811  SER814 

> <Gold.Protein.RotatedAtoms>
  150.8225  134.7440  159.6784 H   0  0  0  0  0  0  0  0  0  0  0  0  # atno 6907 bound_to 6896
  152.4339  134.5720  159.9933 H   0  0  0  0  0  0  0  0  0  0  0  0  # atno 6908 bound_to 6896
  151.5901  133.3330  159.3062 H   0  0  0  0  0  0  0  0  0  0  0  0  # atno 6909 bound_to 6896
  144.9462  139.4872  143.5548 H   0  0  0  0  0  0  0  0  0  0  0  0  # atno 7974 bound_to 7965
  154.4185  140.1160  156.5429 H   0  0  0  0  0  0  0  0  0  0  0  0  # atno 8008 bound_to 7997
  155.6489  140.3496  155.4722 H   0  0  0  0  0  0  0  0  0  0  0  0  # atno 8009 bound_to 7997
  155.9809  140.1160  157.0717 H   0  0  0  0  0  0  0  0  0  0  0  0  # atno 8010 bound_to 7997
  140.2560  143.3440  152.0670 H   0  0  0  0  0  0  0  0  0  0  0  0  # atno 10167 bound_to 10162
  156.4488  130.8158  151.2388 H   0  0  0  0  0  0  0  0  0  0  0  0  # atno 10718 bound_to 10713
  154.5442  135.2808  155.1068 H   0  0  0  0  0  0  0  0  0  0  0  0  # atno 10763 bound_to 10752
  154.2538  135.6334  153.5253 H   0  0  0  0  0  0  0  0  0  0  0  0  # atno 10764 bound_to 10752
  152.9986  135.5589  154.5990 H   0  0  0  0  0  0  0  0  0  0  0  0  # atno 10765 bound_to 10752
  140.0371  134.5927  155.9430 H   0  0  0  0  0  0  0  0  0  0  0  0  # atno 11005 bound_to 11000
  146.3304  139.8515  142.8872 LP  0  0  0  0  0  0  0  0  0  0  0  0  # atno 17320 bound_to 7965
  145.2915  141.0168  143.3660 LP  0  0  0  0  0  0  0  0  0  0  0  0  # atno 17321 bound_to 7965
  139.5031  144.6749  151.6153 LP  0  0  0  0  0  0  0  0  0  0  0  0  # atno 17342 bound_to 10162
  140.6003  143.9621  150.6382 LP  0  0  0  0  0  0  0  0  0  0  0  0  # atno 17343 bound_to 10162
  157.7503  131.0144  150.3464 LP  0  0  0  0  0  0  0  0  0  0  0  0  # atno 17370 bound_to 10713
  156.3838  130.3885  149.7081 LP  0  0  0  0  0  0  0  0  0  0  0  0  # atno 17371 bound_to 10713
  141.1863  133.6557  156.5235 LP  0  0  0  0  0  0  0  0  0  0  0  0  # atno 17394 bound_to 11000
  140.4129  134.7256  157.4846 LP  0  0  0  0  0  0  0  0  0  0  0  0  # atno 17395 bound_to 11000

$$$$
