AV-unprocessed.smi:242|AV-procd|sdf|1844|dock4
  -GOLD-   2262020463D 1   1.00000     0.00000
 Structure written by MMmdl.
 58 61  0  0  0  0  0  0  0  0  2 V2000
  144.8305  133.5458  151.8513 C   0  0  0  0  0  0  0  0  0  0  0  0
  145.7075  132.6872  150.9188 C   0  0  0  0  0  0  0  0  0  0  0  0
  144.8010  131.8137  150.0300 C   0  0  0  0  0  0  0  0  0  0  0  0
  146.6757  131.8504  151.6833 N   0  3  2  0  0  0  0  0  0  0  0  0
  146.0837  130.7561  152.4927 C   0  0  0  0  0  0  0  0  0  0  0  0
  147.0664  130.5046  153.6338 C   0  0  0  0  0  0  0  0  0  0  0  0
  147.5229  131.9253  153.9478 C   0  0  1  0  0  0  0  0  0  0  0  0
  148.7440  132.0343  154.7541 N   0  0  0  0  0  0  0  0  0  0  0  0
  149.1939  130.9097  155.5708 C   0  0  0  0  0  0  0  0  0  0  0  0
  149.1862  133.2639  155.1329 C   0  0  0  0  0  0  0  0  0  0  0  0
  150.3812  133.3793  155.7721 N   0  0  0  0  0  0  0  0  0  0  0  0
  150.8372  134.5770  156.1490 C   0  0  0  0  0  0  0  0  0  0  0  0
  150.2663  135.7723  155.9947 N   0  0  0  0  0  0  0  0  0  0  0  0
  149.0647  135.6681  155.3590 C   0  0  0  0  0  0  0  0  0  0  0  0
  148.4553  134.4656  154.8991 C   0  0  0  0  0  0  0  0  0  0  0  0
  147.2249  134.7554  154.3200 N   0  0  0  0  0  0  0  0  0  0  0  0
  147.1150  136.0507  154.4292 C   0  0  0  0  0  0  0  0  0  0  0  0
  148.1795  136.6807  155.0324 N   0  0  0  0  0  0  0  0  0  0  0  0
  148.3160  138.1060  155.2902 C   0  0  0  0  0  0  0  0  0  0  0  0
  149.0912  138.8842  154.1916 C   0  0  0  0  0  0  0  0  0  0  0  0
  148.3714  138.7471  152.9810 O   0  0  0  0  0  0  0  0  0  0  0  0
  149.2438  140.3946  154.4709 C   0  0  0  0  0  0  0  0  0  0  0  0
  150.2518  140.6528  155.6039 C   0  0  0  0  0  0  0  0  0  0  0  0
  151.5102  140.0773  155.2695 O   0  0  0  0  0  0  0  0  0  0  0  0
  151.4576  138.6634  155.1103 C   0  0  0  0  0  0  0  0  0  0  0  0
  150.4966  138.2930  153.9652 C   0  0  0  0  0  0  0  0  0  0  0  0
  147.6008  132.6015  152.5720 C   0  0  0  0  0  0  0  0  0  0  0  0
  144.0994  134.1183  151.2796 H   0  0  0  0  0  0  0  0  0  0  0  0
  145.4168  134.2677  152.4197 H   0  0  0  0  0  0  0  0  0  0  0  0
  144.2812  132.9268  152.5617 H   0  0  0  0  0  0  0  0  0  0  0  0
  146.2766  133.3606  150.2760 H   0  0  0  0  0  0  0  0  0  0  0  0
  144.0806  132.4262  149.4868 H   0  0  0  0  0  0  0  0  0  0  0  0
  144.2372  131.0951  150.6258 H   0  0  0  0  0  0  0  0  0  0  0  0
  145.3640  131.2545  149.2834 H   0  0  0  0  0  0  0  0  0  0  0  0
  145.1287  131.0804  152.9103 H   0  0  0  0  0  0  0  0  0  0  0  0
  145.9062  129.8615  151.8951 H   0  0  0  0  0  0  0  0  0  0  0  0
  146.6052  130.0058  154.4866 H   0  0  0  0  0  0  0  0  0  0  0  0
  147.8952  129.8877  153.2852 H   0  0  0  0  0  0  0  0  0  0  0  0
  146.7085  132.4234  154.4770 H   0  0  0  0  0  0  0  0  0  0  0  0
  149.3787  131.2153  156.6016 H   0  0  0  0  0  0  0  0  0  0  0  0
  150.1168  130.4960  155.1641 H   0  0  0  0  0  0  0  0  0  0  0  0
  148.4543  130.1100  155.5972 H   0  0  0  0  0  0  0  0  0  0  0  0
  151.7959  134.5783  156.6462 H   0  0  0  0  0  0  0  0  0  0  0  0
  146.2495  136.5862  154.0672 H   0  0  0  0  0  0  0  0  0  0  0  0
  147.3133  138.5123  155.4192 H   0  0  0  0  0  0  0  0  0  0  0  0
  148.8104  138.2299  156.2549 H   0  0  0  0  0  0  0  0  0  0  0  0
  148.7222  139.3577  152.3510 H   0  0  0  0  0  0  0  0  0  0  0  0
  149.6092  140.8954  153.5731 H   0  0  0  0  0  0  0  0  0  0  0  0
  148.2848  140.8597  154.6970 H   0  0  0  0  0  0  0  0  0  0  0  0
  150.3860  141.7252  155.7451 H   0  0  0  0  0  0  0  0  0  0  0  0
  149.8945  140.2533  156.5536 H   0  0  0  0  0  0  0  0  0  0  0  0
  152.4604  138.3015  154.8836 H   0  0  0  0  0  0  0  0  0  0  0  0
  151.1619  138.1922  156.0481 H   0  0  0  0  0  0  0  0  0  0  0  0
  150.4454  137.2096  153.8504 H   0  0  0  0  0  0  0  0  0  0  0  0
  150.9122  138.6793  153.0332 H   0  0  0  0  0  0  0  0  0  0  0  0
  148.5975  132.5461  152.1348 H   0  0  0  0  0  0  0  0  0  0  0  0
  147.3424  133.6569  152.6646 H   0  0  0  0  0  0  0  0  0  0  0  0
  147.2647  131.3958  151.0002 H   0  0  0  0  0  0  0  0  0  0  0  0
  1  2  1  0  0  0  0
  1 28  1  0  0  0  0
  1 29  1  0  0  0  0
  1 30  1  0  0  0  0
  2  3  1  0  0  0  0
  2  4  1  0  0  0  0
  2 31  1  0  0  0  0
  3 32  1  0  0  0  0
  3 33  1  0  0  0  0
  3 34  1  0  0  0  0
  4 27  1  0  0  0  0
  4  5  1  0  0  0  0
  4 58  1  0  0  0  0
  5  6  1  0  0  0  0
  5 35  1  0  0  0  0
  5 36  1  0  0  0  0
  6  7  1  0  0  0  0
  6 37  1  0  0  0  0
  6 38  1  0  0  0  0
  7  8  1  0  0  0  0
  7 27  1  0  0  0  0
  7 39  1  0  0  0  0
  8  9  1  0  0  0  0
  8 10  1  0  0  0  0
  9 40  1  0  0  0  0
  9 41  1  0  0  0  0
  9 42  1  0  0  0  0
 10 15  1  0  0  0  0
 10 11  2  0  0  0  0
 11 12  1  0  0  0  0
 12 13  2  0  0  0  0
 12 43  1  0  0  0  0
 13 14  1  0  0  0  0
 14 18  1  0  0  0  0
 14 15  2  0  0  0  0
 15 16  1  0  0  0  0
 16 17  2  0  0  0  0
 17 18  1  0  0  0  0
 17 44  1  0  0  0  0
 18 19  1  0  0  0  0
 19 20  1  0  0  0  0
 19 45  1  0  0  0  0
 19 46  1  0  0  0  0
 20 26  1  0  0  0  0
 20 21  1  0  0  0  0
 20 22  1  0  0  0  0
 21 47  1  0  0  0  0
 22 23  1  0  0  0  0
 22 48  1  0  0  0  0
 22 49  1  0  0  0  0
 23 24  1  0  0  0  0
 23 50  1  0  0  0  0
 23 51  1  0  0  0  0
 24 25  1  0  0  0  0
 25 26  1  0  0  0  0
 25 52  1  0  0  0  0
 25 53  1  0  0  0  0
 26 54  1  0  0  0  0
 26 55  1  0  0  0  0
 27 56  1  0  0  0  0
 27 57  1  0  0  0  0
M  CHG  1   4   1
M  END
> <s_m_source_file>
AV-unprocessed.smi

> <i_m_source_file_index>
242

> <i_lp_mmshare_version>
43012

> <i_f3d_flags>
0

> <s_epik_input>
W0NIM11bQ0hdKFtDSDNdKU4xW0NIMl1bQ0gyXVtDQEhdKFtDSDJdMSlOKFtDSDNdKWMobltjSF1uMiljKGMyMyluW2NIXW4zW0NIMl1DNChbT0hdKVtDSDJdW0NIMl1PW0NIMl1bQ0gyXTQ=

> <s_epik_cmdline>
J2VwaWtfcHl0aG9uJywgJy1waCcsICc3LjAnLCAnLXRuJywgJzgnLCAnLW1hJywgJzIwMCcsICctbWV0YWxfYmluZGluZycsICctaW1hZScsICc8aW5maWxlLm1hZT4nLCAnLW9tYWUnLCAnPG91dGZpbGUubWFlPic=

> <r_lp_tautomer_probability>
1

> <r_epik_Ionization_Penalty>
0.000825961

> <r_epik_Ionization_Penalty_Charging>
0.00034898

> <r_epik_Ionization_Penalty_Neutral>
0.000476981

> <r_epik_State_Penalty>
-0

> <r_epik_Charging_Adjusted_Penalty>
0.00034898

> <i_epik_Tot_Q>
1

> <i_epik_Tot_abs_Q>
1

> <r_epik_Metal_State_Penalty>
-0

> <b_epik_Metal_Only>
0

> <s_lp_Force_Field>
OPLS_2005

> <r_lp_Energy>
46.8911

> <b_lp_Chiralities_Consistent>
1

> <s_lp_Variant>
AV-unprocessed.smi:242-1

> <Gold.Version>
5.8.1

> <Gold.Id.Protein>
6NUR|6NUR_protein|mol2

> <Gold.PLP.Fitness>
51.3668

> <Gold.PLP.PLP>
-43.6841

> <Gold.PLP.part.hbond>
-3.8778

> <Gold.PLP.part.metal>
0.0000

> <Gold.PLP.part.buried>
-4.6870

> <Gold.PLP.part.nonpolar>
-35.9074

> <Gold.PLP.part.repulsive>
0.2358

> <Gold.PLP.ligand.clash>
0.0000

> <Gold.PLP.ligand.torsion>
0.8810

> <Gold.PLP.Chemscore.Hbond>
2.9040

> <Gold.PLP.Chemscore.CHOScore>
0.0000

> <Gold.PLP.Chemscore.Metal>
0.0000

> <Gold.Chemscore.Hbonds>
donor molecule, donor type, donor heavy atom, donor atom, acceptor molecule, acceptor atom, score
      L1  H     4    58       P1 10747  1.00
      L1  H    21    47       P1  7957  1.00
      P1  H  7989  7998       L1    24  0.85

> <Gold.PLP.Chemscore.Internal.Correction>
0.7326

> <Gold.Rescore>
     Score         DG    S(hbond)    S(metal)    S(lipo)     H(rot)  DE(clash)    DE(int)     intcor
     14.59     -17.04       1.96        0.00      91.56       2.22       0.06       2.39       ----

> <Gold.Chemscore.Fitness>
14.5853

> <Gold.Chemscore.DG>
-17.0381

> <Gold.Chemscore.ZeroCoef>
-5.4800

> <Gold.Chemscore.Hbond>
1.9572

> <Gold.Chemscore.Metal>
0.0000

> <Gold.Chemscore.Lipo>
91.5644

> <Gold.Chemscore.Internal_Hbond>
0.0000

> <Gold.Chemscore.DEClash>
0.0595

> <Gold.Chemscore.DEInternal>
2.3932

> <Gold.Chemscore.Rot>
2.2234

> <Gold.Chemscore.Internal.Correction>
   9.000000E+99

> <Gold.Chemscore.Hbonds>
donor molecule, donor type, donor heavy atom, donor atom, acceptor molecule, acceptor atom, score
      L1  H     4    58       P1 10747  0.97
      L1  H    21    47       P1  7957  0.99
      P1  H  7989  7998       L1    24  0.09

> <Gold.Chemscore.Hbond.Weighted>
-6.5370

> <Gold.Chemscore.Metal.Weighted>
-0.0000

> <Gold.Chemscore.Lipo.Weighted>
-10.7130

> <Gold.Chemscore.Internal_Hbond.Weighted>
0.0000

> <Gold.Chemscore.DEClash.Weighted>
0.0595

> <Gold.Chemscore.DEInternal.Weighted>
2.3932

> <Gold.Chemscore.Rot.Weighted>
5.6919

> <Gold.Chemscore.Internal.Correction.Weighted>
   9.000000E+99

> <Gold.Protein.RotatedTorsions>
[ 6907 6896 6895 6894 ] final -156.59 input  -60.11 | X-H torsion
[ 7974 7965 7964 7962 ] final   91.42 input  175.53 | X-H torsion
[ 8008 7997 7996 7995 ] final -113.97 input   59.86 | X-H torsion
[ 10167 10162 10161 10158 ] final  -18.49 input  -65.29 | X-H torsion
[ 10718 10713 10712 10709 ] final -120.59 input   66.30 | X-H torsion
[ 10763 10752 10751 10750 ] final -136.23 input  -60.55 | X-H torsion
[ 11005 11000 10999 10996 ] final  -78.35 input  -57.11 | X-H torsion

> <Gold.Protein.ActiveResidues>
 VAL166  LYS551  ARG553  GLY616  TRP617  ASP618  TYR619  PRO620  LYS621  CYS622 
 ASP623  PHE694  ASN695  SER759  ASP760  ASP761  ALA762  ILE779  LEU786  VAL792 
 PHE793  MET794  SER795  GLU796  ALA797  LYS798  CYS799  TRP800  GLU811  SER814 

> <Gold.Protein.RotatedAtoms>
  151.2899  133.4170  159.2632 H   0  0  0  0  0  0  0  0  0  0  0  0  # atno 6907 bound_to 6896
  151.0286  134.9523  159.8109 H   0  0  0  0  0  0  0  0  0  0  0  0  # atno 6908 bound_to 6896
  152.5340  134.2861  159.9078 H   0  0  0  0  0  0  0  0  0  0  0  0  # atno 6909 bound_to 6896
  145.5059  139.2276  143.2752 H   0  0  0  0  0  0  0  0  0  0  0  0  # atno 7974 bound_to 7965
  155.0290  140.0393  157.2466 H   0  0  0  0  0  0  0  0  0  0  0  0  # atno 8008 bound_to 7997
  154.7313  140.2731  155.6430 H   0  0  0  0  0  0  0  0  0  0  0  0  # atno 8009 bound_to 7997
  156.2842  140.2683  156.2014 H   0  0  0  0  0  0  0  0  0  0  0  0  # atno 8010 bound_to 7997
  140.7259  143.4911  150.9990 H   0  0  0  0  0  0  0  0  0  0  0  0  # atno 10167 bound_to 10162
  156.1270  130.6366  150.9559 H   0  0  0  0  0  0  0  0  0  0  0  0  # atno 10718 bound_to 10713
  154.8688  135.3679  154.5027 H   0  0  0  0  0  0  0  0  0  0  0  0  # atno 10763 bound_to 10752
  153.5667  135.7021  153.5528 H   0  0  0  0  0  0  0  0  0  0  0  0  # atno 10764 bound_to 10752
  153.3579  135.4054  155.1659 H   0  0  0  0  0  0  0  0  0  0  0  0  # atno 10765 bound_to 10752
  141.1664  133.7060  156.7959 H   0  0  0  0  0  0  0  0  0  0  0  0  # atno 11005 bound_to 11000
  146.2197  140.5862  142.9022 LP  0  0  0  0  0  0  0  0  0  0  0  0  # atno 17320 bound_to 7965
  144.7754  140.5729  143.6641 LP  0  0  0  0  0  0  0  0  0  0  0  0  # atno 17321 bound_to 7965
  139.8616  143.7308  152.3173 LP  0  0  0  0  0  0  0  0  0  0  0  0  # atno 17342 bound_to 10162
  139.7525  144.7530  151.0485 LP  0  0  0  0  0  0  0  0  0  0  0  0  # atno 17343 bound_to 10162
  157.6451  131.0905  150.8171 LP  0  0  0  0  0  0  0  0  0  0  0  0  # atno 17370 bound_to 10713
  156.8260  130.5000  149.5337 LP  0  0  0  0  0  0  0  0  0  0  0  0  # atno 17371 bound_to 10713
  140.2291  134.8699  157.3458 LP  0  0  0  0  0  0  0  0  0  0  0  0  # atno 17394 bound_to 11000
  140.1909  134.4373  155.7716 LP  0  0  0  0  0  0  0  0  0  0  0  0  # atno 17395 bound_to 11000

$$$$
