AV-unprocessed.smi:54|AV-procd|sdf|549|dock9
  -GOLD-   2262016443D 1   1.00000     0.00000
 Structure written by MMmdl.
 43 45  0  0  0  0  0  0  0  0  2 V2000
  145.8876  134.1568  151.7979 C   0  0  0  0  0  0  0  0  0  0  0  0
  146.8531  133.0918  152.3448 C   0  0  0  0  0  0  0  0  0  0  0  0
  146.2095  131.6956  152.3326 C   0  0  0  0  0  0  0  0  0  0  0  0
  147.3261  133.4599  153.7585 C   0  0  0  0  0  0  0  0  0  0  0  0
  147.1228  132.6708  154.6838 O   0  0  0  0  0  0  0  0  0  0  0  0
  147.9575  134.6499  153.8645 N   0  0  0  0  0  0  0  0  0  0  0  0
  148.5033  135.2573  155.0007 C   0  0  0  0  0  0  0  0  0  0  0  0
  148.9363  136.4745  154.7784 N   0  0  0  0  0  0  0  0  0  0  0  0
  149.4436  137.0765  155.9145 C   0  0  0  0  0  0  0  0  0  0  0  0
  149.5330  136.5438  157.1715 C   0  0  0  0  0  0  0  0  0  0  0  0
  150.1347  137.4286  158.0568 N   0  0  0  0  0  0  0  0  0  0  0  0
  150.3849  138.4760  157.2740 C   0  0  0  0  0  0  0  0  0  0  0  0
  149.9734  138.3622  155.9933 N   0  0  0  0  0  0  0  0  0  0  0  0
  150.1571  139.3519  154.8781 C   0  0  2  0  0  0  0  0  0  0  0  0
  151.0957  140.3101  155.2792 O   0  0  0  0  0  0  0  0  0  0  0  0
  150.4490  141.5135  155.6821 C   0  0  2  0  0  0  0  0  0  0  0  0
  150.1322  141.4653  157.1941 C   0  0  0  0  0  0  0  0  0  0  0  0
  149.4997  142.6569  157.6137 O   0  0  0  0  0  0  0  0  0  0  0  0
  149.2429  141.5669  154.7350 C   0  0  2  0  0  0  0  0  0  0  0  0
  148.1741  142.3406  155.2433 O   0  0  0  0  0  0  0  0  0  0  0  0
  148.8457  140.1039  154.5700 C   0  0  1  0  0  0  0  0  0  0  0  0
  148.4131  139.8736  153.2439 O   0  0  0  0  0  0  0  0  0  0  0  0
  149.0181  135.1667  157.3557 C   0  0  0  0  0  0  0  0  0  0  0  0
  149.0770  134.6496  158.4697 O   0  0  0  0  0  0  0  0  0  0  0  0
  148.5072  134.5765  156.2344 N   0  5  0  0  0  0  0  0  0  0  0  0
  150.5411  138.7513  154.0525 H   0  0  0  0  0  0  0  0  0  0  0  0
  151.1288  142.3443  155.4884 H   0  0  0  0  0  0  0  0  0  0  0  0
  149.5696  141.9846  153.7812 H   0  0  0  0  0  0  0  0  0  0  0  0
  148.0693  139.8267  155.2848 H   0  0  0  0  0  0  0  0  0  0  0  0
  146.3380  135.1498  151.8220 H   0  0  0  0  0  0  0  0  0  0  0  0
  144.9634  134.1959  152.3756 H   0  0  0  0  0  0  0  0  0  0  0  0
  145.6201  133.9448  150.7625 H   0  0  0  0  0  0  0  0  0  0  0  0
  147.7235  133.0636  151.6873 H   0  0  0  0  0  0  0  0  0  0  0  0
  146.8899  130.9417  152.7312 H   0  0  0  0  0  0  0  0  0  0  0  0
  145.9489  131.3964  151.3171 H   0  0  0  0  0  0  0  0  0  0  0  0
  145.2965  131.6689  152.9288 H   0  0  0  0  0  0  0  0  0  0  0  0
  148.1108  135.1283  152.9890 H   0  0  0  0  0  0  0  0  0  0  0  0
  150.8879  139.3543  157.6499 H   0  0  0  0  0  0  0  0  0  0  0  0
  149.5140  140.6048  157.4517 H   0  0  0  0  0  0  0  0  0  0  0  0
  151.0574  141.3796  157.7635 H   0  0  0  0  0  0  0  0  0  0  0  0
  149.4275  143.2352  156.8696 H   0  0  0  0  0  0  0  0  0  0  0  0
  148.5308  143.1273  155.6269 H   0  0  0  0  0  0  0  0  0  0  0  0
  149.1322  140.0556  152.6589 H   0  0  0  0  0  0  0  0  0  0  0  0
  1  2  1  0  0  0  0
  1 30  1  0  0  0  0
  1 31  1  0  0  0  0
  1 32  1  0  0  0  0
  2  3  1  0  0  0  0
  2  4  1  0  0  0  0
  2 33  1  0  0  0  0
  3 34  1  0  0  0  0
  3 35  1  0  0  0  0
  3 36  1  0  0  0  0
  4  5  2  0  0  0  0
  4  6  1  0  0  0  0
  6 37  1  0  0  0  0
  6  7  1  0  0  0  0
  7 25  1  0  0  0  0
  7  8  2  0  0  0  0
  8  9  1  0  0  0  0
  9 13  1  0  0  0  0
  9 10  2  0  0  0  0
 10 11  1  0  0  0  0
 10 23  1  0  0  0  0
 11 12  2  0  0  0  0
 12 13  1  0  0  0  0
 12 38  1  0  0  0  0
 13 14  1  0  0  0  0
 14 26  1  0  0  0  0
 14 21  1  0  0  0  0
 14 15  1  0  0  0  0
 15 16  1  0  0  0  0
 16 27  1  0  0  0  0
 16 17  1  0  0  0  0
 16 19  1  0  0  0  0
 17 18  1  0  0  0  0
 17 39  1  0  0  0  0
 17 40  1  0  0  0  0
 18 41  1  0  0  0  0
 19 28  1  0  0  0  0
 19 20  1  0  0  0  0
 19 21  1  0  0  0  0
 20 42  1  0  0  0  0
 21 29  1  0  0  0  0
 21 22  1  0  0  0  0
 22 43  1  0  0  0  0
 23 24  2  0  0  0  0
 23 25  1  0  0  0  0
M  CHG  1  25  -1
M  END
> <s_m_source_file>
AV-unprocessed.smi

> <i_m_source_file_index>
54

> <i_lp_mmshare_version>
43012

> <i_f3d_flags>
0

> <s_epik_input>
W0NIM11bQ0hdKFtDSDNdKUMoPU8pW05IXWMobjEpW25IXWMoPU8pYyhjMTIpbltjSF1uMltDQEBIXTNPW0NASF0oW0NIMl1bT0hdKVtDQEBIXShbT0hdKVtDQEhdM1tPSF0=

> <s_epik_cmdline>
J2VwaWtfcHl0aG9uJywgJy1waCcsICc3LjAnLCAnLXRuJywgJzgnLCAnLW1hJywgJzIwMCcsICctbWV0YWxfYmluZGluZycsICctaW1hZScsICc8aW5maWxlLm1hZT4nLCAnLW9tYWUnLCAnPG91dGZpbGUubWFlPic=

> <r_lp_tautomer_probability>
0.85571

> <r_epik_Ionization_Penalty>
1.75936

> <r_epik_Ionization_Penalty_Charging>
4.55893e-11

> <r_epik_Ionization_Penalty_Neutral>
1.75936

> <r_epik_State_Penalty>
1.72072

> <r_epik_Charging_Adjusted_Penalty>
1.72072

> <i_epik_Tot_Q>
-1

> <i_epik_Tot_abs_Q>
1

> <r_epik_Metal_State_Penalty>
0.400338

> <b_epik_Metal_Only>
1

> <s_epik_Chemistry_Notes>
This compound contains an acetal/aminal-like group ( X-CH(R)-Y where X, Y are N, S, or O) that may be acid/base labile, releasing an aldehyde.

> <s_lp_Force_Field>
OPLS_2005

> <r_lp_Energy>
58.7514

> <b_lp_Chiralities_Consistent>
1

> <s_lp_Variant>
AV-unprocessed.smi:54-21

> <Gold.Version>
5.8.1

> <Gold.Id.Protein>
6NUR|6NUR_protein|mol2

> <Gold.PLP.Fitness>
46.3694

> <Gold.PLP.PLP>
-29.2761

> <Gold.PLP.part.hbond>
-5.5947

> <Gold.PLP.part.metal>
0.0000

> <Gold.PLP.part.buried>
-6.6171

> <Gold.PLP.part.nonpolar>
-19.0809

> <Gold.PLP.part.repulsive>
1.7044

> <Gold.PLP.ligand.clash>
0.0000

> <Gold.PLP.ligand.torsion>
0.4828

> <Gold.PLP.Chemscore.Hbond>
5.9920

> <Gold.PLP.Chemscore.CHOScore>
0.0000

> <Gold.PLP.Chemscore.Metal>
0.0000

> <Gold.Chemscore.Hbonds>
donor molecule, donor type, donor heavy atom, donor atom, acceptor molecule, acceptor atom, score
      L1  H     6    37       P1  7948  1.00
      L1  H    18    41       P1  8028  1.00
      L1  H    20    42       P1  8028  1.00
      L1  H    22    43       P1  7957  0.90
      P1  H  6896  6907       L1    24  1.00
      P1  H  7989  7998       L1    15  0.81

> <Gold.PLP.Chemscore.Internal.Correction>
0.0830

> <Gold.Rescore>
     Score         DG    S(hbond)    S(metal)    S(lipo)     H(rot)  DE(clash)    DE(int)     intcor
     13.55     -17.59       5.14        0.00      44.70       4.02       1.08       2.96       ----

> <Gold.Chemscore.Fitness>
13.5490

> <Gold.Chemscore.DG>
-17.5937

> <Gold.Chemscore.ZeroCoef>
-5.4800

> <Gold.Chemscore.Hbond>
5.1418

> <Gold.Chemscore.Metal>
0.0000

> <Gold.Chemscore.Lipo>
44.6956

> <Gold.Chemscore.Internal_Hbond>
0.0000

> <Gold.Chemscore.DEClash>
1.0806

> <Gold.Chemscore.DEInternal>
2.9641

> <Gold.Chemscore.Rot>
4.0192

> <Gold.Chemscore.Internal.Correction>
   9.000000E+99

> <Gold.Chemscore.Hbonds>
donor molecule, donor type, donor heavy atom, donor atom, acceptor molecule, acceptor atom, score
      L1  H     6    37       P1  7948  0.95
      L1  H    18    41       P1  8028  0.96
      L1  H    20    42       P1  8028  0.96
      L1  H    22    43       P1  7957  0.86
      P1  H  6896  6907       L1    24  0.99
      P1  H  7989  7998       L1    15  0.03

> <Gold.Chemscore.Hbond.Weighted>
-17.1736

> <Gold.Chemscore.Metal.Weighted>
-0.0000

> <Gold.Chemscore.Lipo.Weighted>
-5.2294

> <Gold.Chemscore.Internal_Hbond.Weighted>
0.0000

> <Gold.Chemscore.DEClash.Weighted>
1.0806

> <Gold.Chemscore.DEInternal.Weighted>
2.9641

> <Gold.Chemscore.Rot.Weighted>
10.2893

> <Gold.Chemscore.Internal.Correction.Weighted>
   9.000000E+99

> <Gold.Protein.RotatedTorsions>
[ 6907 6896 6895 6894 ] final  -72.07 input  -60.11 | X-H torsion
[ 7974 7965 7964 7962 ] final -124.74 input  175.53 | X-H torsion
[ 8008 7997 7996 7995 ] final  -73.71 input   59.86 | X-H torsion
[ 10167 10162 10161 10158 ] final  -83.76 input  -65.29 | X-H torsion
[ 10718 10713 10712 10709 ] final   51.68 input   66.30 | X-H torsion
[ 10763 10752 10751 10750 ] final -108.13 input  -60.55 | X-H torsion
[ 11005 11000 10999 10996 ] final  162.88 input  -57.11 | X-H torsion

> <Gold.Protein.ActiveResidues>
 VAL166  LYS551  ARG553  GLY616  TRP617  ASP618  TYR619  PRO620  LYS621  CYS622 
 ASP623  PHE694  ASN695  SER759  ASP760  ASP761  ALA762  ILE779  LEU786  VAL792 
 PHE793  MET794  SER795  GLU796  ALA797  LYS798  CYS799  TRP800  GLU811  SER814 

> <Gold.Protein.RotatedAtoms>
  150.7185  134.5216  159.5656 H   0  0  0  0  0  0  0  0  0  0  0  0  # atno 6907 bound_to 6896
  152.2770  134.7868  160.0413 H   0  0  0  0  0  0  0  0  0  0  0  0  # atno 6908 bound_to 6896
  151.8528  133.3407  159.3715 H   0  0  0  0  0  0  0  0  0  0  0  0  # atno 6909 bound_to 6896
  145.0049  140.7853  143.4474 H   0  0  0  0  0  0  0  0  0  0  0  0  # atno 7974 bound_to 7965
  154.5269  140.0774  156.8275 H   0  0  0  0  0  0  0  0  0  0  0  0  # atno 8008 bound_to 7997
  155.3456  140.3410  155.4221 H   0  0  0  0  0  0  0  0  0  0  0  0  # atno 8009 bound_to 7997
  156.1741  140.1630  156.8381 H   0  0  0  0  0  0  0  0  0  0  0  0  # atno 8010 bound_to 7997
  140.4197  143.2589  151.8907 H   0  0  0  0  0  0  0  0  0  0  0  0  # atno 10167 bound_to 10162
  157.5004  130.8434  149.8309 H   0  0  0  0  0  0  0  0  0  0  0  0  # atno 10718 bound_to 10713
  154.8117  135.4649  154.0534 H   0  0  0  0  0  0  0  0  0  0  0  0  # atno 10763 bound_to 10752
  153.1959  135.6862  153.8299 H   0  0  0  0  0  0  0  0  0  0  0  0  # atno 10764 bound_to 10752
  153.7801  135.3258  155.3341 H   0  0  0  0  0  0  0  0  0  0  0  0  # atno 10765 bound_to 10752
  140.2302  134.8130  157.3309 H   0  0  0  0  0  0  0  0  0  0  0  0  # atno 11005 bound_to 11000
  145.2103  139.2208  143.5146 LP  0  0  0  0  0  0  0  0  0  0  0  0  # atno 17320 bound_to 7965
  146.3459  140.1939  142.8589 LP  0  0  0  0  0  0  0  0  0  0  0  0  # atno 17321 bound_to 7965
  139.4782  144.5451  151.8471 LP  0  0  0  0  0  0  0  0  0  0  0  0  # atno 17342 bound_to 10162
  140.4548  144.1805  150.5900 LP  0  0  0  0  0  0  0  0  0  0  0  0  # atno 17343 bound_to 10162
  156.0225  130.3790  150.1918 LP  0  0  0  0  0  0  0  0  0  0  0  0  # atno 17370 bound_to 10713
  157.0108  130.9950  151.3366 LP  0  0  0  0  0  0  0  0  0  0  0  0  # atno 17371 bound_to 10713
  140.1759  134.4550  155.7802 LP  0  0  0  0  0  0  0  0  0  0  0  0  # atno 17394 bound_to 11000
  141.2218  133.6962  156.7786 LP  0  0  0  0  0  0  0  0  0  0  0  0  # atno 17395 bound_to 11000

$$$$
