AV-unprocessed.smi:3158|AV-procd|sdf|12043|dock9
  -GOLD-   2272017463D 1   1.00000     0.00000
 Structure written by MMmdl.
 40 40  0  0  0  0  0  0  0  0  2 V2000
  148.5280  141.2050  154.8977 C   0  0  0  0  0  0  0  0  0  0  0  0
  149.7501  140.4150  154.4062 C   0  0  0  0  0  0  0  0  0  0  0  0
  149.6188  138.8845  154.5514 C   0  0  2  0  0  0  0  0  0  0  0  0
  150.9271  138.1713  154.1831 C   0  0  0  0  0  0  0  0  0  0  0  0
  148.5417  138.3648  153.7099 N   0  0  0  0  0  0  0  0  0  0  0  0
  147.2272  138.4939  153.9497 C   0  0  0  0  0  0  0  0  0  0  0  0
  146.7699  139.0819  154.9308 O   0  0  0  0  0  0  0  0  0  0  0  0
  146.2770  137.8628  152.9234 C   0  0  1  0  0  0  0  0  0  0  0  0
  146.5852  138.4050  151.5197 C   0  0  0  0  0  0  0  0  0  0  0  0
  146.4042  136.3893  152.9332 N   0  3  0  0  0  0  0  0  0  0  0  0
  145.6001  135.6876  151.9084 C   0  0  0  0  0  0  0  0  0  0  0  0
  146.3105  134.4152  151.4193 C   0  0  0  0  0  0  0  0  0  0  0  0
  145.3726  133.4113  150.9460 N   0  0  0  0  0  0  0  0  0  0  0  0
  145.6290  132.1134  150.5558 C   0  0  0  0  0  0  0  0  0  0  0  0
  144.4368  131.5554  150.1923 C   0  0  0  0  0  0  0  0  0  0  0  0
  143.4975  132.6066  150.3856 C   0  0  0  0  0  0  0  0  0  0  0  0
  144.0620  133.7180  150.8285 N   0  0  0  0  0  0  0  0  0  0  0  0
  148.7183  142.2775  154.8539 H   0  0  0  0  0  0  0  0  0  0  0  0
  148.2840  140.9528  155.9301 H   0  0  0  0  0  0  0  0  0  0  0  0
  147.6487  141.0053  154.2861 H   0  0  0  0  0  0  0  0  0  0  0  0
  149.9493  140.6729  153.3653 H   0  0  0  0  0  0  0  0  0  0  0  0
  150.6219  140.7488  154.9703 H   0  0  0  0  0  0  0  0  0  0  0  0
  149.4133  138.6568  155.5989 H   0  0  0  0  0  0  0  0  0  0  0  0
  151.7479  138.5045  154.8188 H   0  0  0  0  0  0  0  0  0  0  0  0
  151.2091  138.3656  153.1477 H   0  0  0  0  0  0  0  0  0  0  0  0
  150.8348  137.0918  154.3068 H   0  0  0  0  0  0  0  0  0  0  0  0
  148.8230  137.8648  152.8788 H   0  0  0  0  0  0  0  0  0  0  0  0
  145.2460  138.1229  153.1703 H   0  0  0  0  0  0  0  0  0  0  0  0
  146.4904  139.4911  151.4847 H   0  0  0  0  0  0  0  0  0  0  0  0
  145.8949  137.9947  150.7821 H   0  0  0  0  0  0  0  0  0  0  0  0
  147.5974  138.1494  151.2027 H   0  0  0  0  0  0  0  0  0  0  0  0
  147.3731  136.1413  152.7954 H   0  0  0  0  0  0  0  0  0  0  0  0
  144.6176  135.4274  152.3042 H   0  0  0  0  0  0  0  0  0  0  0  0
  145.4261  136.3685  151.0751 H   0  0  0  0  0  0  0  0  0  0  0  0
  146.9908  134.6570  150.6018 H   0  0  0  0  0  0  0  0  0  0  0  0
  146.9168  133.9852  152.2177 H   0  0  0  0  0  0  0  0  0  0  0  0
  146.6256  131.6966  150.5729 H   0  0  0  0  0  0  0  0  0  0  0  0
  144.2622  130.5498  149.8389 H   0  0  0  0  0  0  0  0  0  0  0  0
  142.4306  132.5967  150.2161 H   0  0  0  0  0  0  0  0  0  0  0  0
  146.1144  136.0689  153.8468 H   0  0  0  0  0  0  0  0  0  0  0  0
  1  2  1  0  0  0  0
  1 18  1  0  0  0  0
  1 19  1  0  0  0  0
  1 20  1  0  0  0  0
  2  3  1  0  0  0  0
  2 21  1  0  0  0  0
  2 22  1  0  0  0  0
  3  4  1  0  0  0  0
  3  5  1  0  0  0  0
  3 23  1  0  0  0  0
  4 24  1  0  0  0  0
  4 25  1  0  0  0  0
  4 26  1  0  0  0  0
  5  6  1  0  0  0  0
  5 27  1  0  0  0  0
  6  7  2  0  0  0  0
  6  8  1  0  0  0  0
  8  9  1  0  0  0  0
  8 10  1  0  0  0  0
  8 28  1  0  0  0  0
  9 29  1  0  0  0  0
  9 30  1  0  0  0  0
  9 31  1  0  0  0  0
 10 11  1  0  0  0  0
 10 32  1  0  0  0  0
 10 40  1  0  0  0  0
 11 12  1  0  0  0  0
 11 33  1  0  0  0  0
 11 34  1  0  0  0  0
 12 13  1  0  0  0  0
 12 35  1  0  0  0  0
 12 36  1  0  0  0  0
 13 17  1  0  0  0  0
 13 14  1  0  0  0  0
 14 15  2  0  0  0  0
 14 37  1  0  0  0  0
 15 16  1  0  0  0  0
 15 38  1  0  0  0  0
 16 17  2  0  0  0  0
 16 39  1  0  0  0  0
M  CHG  1  10   1
M  END
> <s_m_source_file>
AV-unprocessed.smi

> <i_m_source_file_index>
3158

> <i_lp_mmshare_version>
43012

> <i_f3d_flags>
0

> <s_epik_input>
W0NIM11bQ0gyXVtDQEhdKFtDSDNdKVtOSF1DKD1PKVtDQEhdKFtDSDNdKVtOSF1bQ0gyXVtDSDJdbjFbY0hdW2NIXVtjSF1uMQ==

> <s_epik_cmdline>
J2VwaWtfcHl0aG9uJywgJy1waCcsICc3LjAnLCAnLXRuJywgJzgnLCAnLW1hJywgJzIwMCcsICctbWV0YWxfYmluZGluZycsICctaW1hZScsICc8aW5maWxlLm1hZT4nLCAnLW9tYWUnLCAnPG91dGZpbGUubWFlPic=

> <r_lp_tautomer_probability>
1

> <r_epik_Ionization_Penalty>
0.20724

> <r_epik_Ionization_Penalty_Charging>
0.207237

> <r_epik_Ionization_Penalty_Neutral>
3.33806e-06

> <r_epik_State_Penalty>
0.197234

> <r_epik_Charging_Adjusted_Penalty>
0.404471

> <i_epik_Tot_Q>
1

> <i_epik_Tot_abs_Q>
1

> <r_epik_Metal_State_Penalty>
0.197524

> <b_epik_Metal_Only>
0

> <s_lp_Force_Field>
OPLS_2005

> <r_lp_Energy>
5.46656

> <b_lp_Chiralities_Consistent>
1

> <s_lp_Variant>
AV-unprocessed.smi:3158-3

> <Gold.Version>
5.8.1

> <Gold.Id.Protein>
6NUR|6NUR_protein|mol2

> <Gold.PLP.Fitness>
46.0248

> <Gold.PLP.PLP>
-31.4826

> <Gold.PLP.part.hbond>
-2.3068

> <Gold.PLP.part.metal>
0.0000

> <Gold.PLP.part.buried>
-0.9078

> <Gold.PLP.part.nonpolar>
-29.5844

> <Gold.PLP.part.repulsive>
0.2430

> <Gold.PLP.ligand.clash>
0.0000

> <Gold.PLP.ligand.torsion>
0.7193

> <Gold.PLP.Chemscore.Hbond>
3.0000

> <Gold.PLP.Chemscore.CHOScore>
2.2961

> <Gold.PLP.Chemscore.Metal>
0.0000

> <Gold.Chemscore.Hbonds>
donor molecule, donor type, donor heavy atom, donor atom, acceptor molecule, acceptor atom, score
      L1  H     5    27       P1  7948  1.00
      L1  H    10    32       P1  7948  2.00
      L1  C    14    37       P1 10747  1.00
      L1  C    16    39       P1 10186  0.98
      L1  C    16    39       P1 10952  0.24

> <Gold.PLP.Chemscore.Internal.Correction>
0.0925

> <Gold.Rescore>
     Score         DG    S(hbond)    S(metal)    S(lipo)     H(rot)  DE(clash)    DE(int)     intcor
     14.26     -15.98       1.95        0.00      82.43       2.21       0.88       0.85       ----

> <Gold.Chemscore.Fitness>
14.2574

> <Gold.Chemscore.DG>
-15.9837

> <Gold.Chemscore.ZeroCoef>
-5.4800

> <Gold.Chemscore.Hbond>
1.9537

> <Gold.Chemscore.Metal>
0.0000

> <Gold.Chemscore.Lipo>
82.4298

> <Gold.Chemscore.Internal_Hbond>
0.0000

> <Gold.Chemscore.DEClash>
0.8786

> <Gold.Chemscore.DEInternal>
0.8478

> <Gold.Chemscore.Rot>
2.2132

> <Gold.Chemscore.Internal.Correction>
   9.000000E+99

> <Gold.Chemscore.Hbonds>
donor molecule, donor type, donor heavy atom, donor atom, acceptor molecule, acceptor atom, score
      L1  H     5    27       P1  7948  0.96
      L1  H    10    32       P1  7948  0.96

> <Gold.Chemscore.Hbond.Weighted>
-6.5252

> <Gold.Chemscore.Metal.Weighted>
-0.0000

> <Gold.Chemscore.Lipo.Weighted>
-9.6443

> <Gold.Chemscore.Internal_Hbond.Weighted>
0.0000

> <Gold.Chemscore.DEClash.Weighted>
0.8786

> <Gold.Chemscore.DEInternal.Weighted>
0.8478

> <Gold.Chemscore.Rot.Weighted>
5.6658

> <Gold.Chemscore.Internal.Correction.Weighted>
   9.000000E+99

> <Gold.Protein.RotatedTorsions>
[ 6907 6896 6895 6894 ] final  -94.66 input  -60.11 | X-H torsion
[ 7974 7965 7964 7962 ] final  -53.58 input  175.53 | X-H torsion
[ 8008 7997 7996 7995 ] final  -24.46 input   59.86 | X-H torsion
[ 10167 10162 10161 10158 ] final   18.08 input  -65.29 | X-H torsion
[ 10718 10713 10712 10709 ] final  -97.04 input   66.30 | X-H torsion
[ 10763 10752 10751 10750 ] final  -54.35 input  -60.55 | X-H torsion
[ 11005 11000 10999 10996 ] final  -71.71 input  -57.11 | X-H torsion

> <Gold.Protein.ActiveResidues>
 VAL166  LYS551  ARG553  GLY616  TRP617  ASP618  TYR619  PRO620  LYS621  CYS622 
 ASP623  PHE694  ASN695  SER759  ASP760  ASP761  ALA762  ILE779  LEU786  VAL792 
 PHE793  MET794  SER795  GLU796  ALA797  LYS798  CYS799  TRP800  GLU811  SER814 

> <Gold.Protein.RotatedAtoms>
  150.6946  134.1778  159.4236 H   0  0  0  0  0  0  0  0  0  0  0  0  # atno 6907 bound_to 6896
  151.9754  135.0053  160.0564 H   0  0  0  0  0  0  0  0  0  0  0  0  # atno 6908 bound_to 6896
  152.1804  133.4668  159.4992 H   0  0  0  0  0  0  0  0  0  0  0  0  # atno 6909 bound_to 6896
  145.8952  140.8039  142.9771 H   0  0  0  0  0  0  0  0  0  0  0  0  # atno 7974 bound_to 7965
  154.4528  140.1953  156.0468 H   0  0  0  0  0  0  0  0  0  0  0  0  # atno 8008 bound_to 7997
  156.0684  140.3287  155.7518 H   0  0  0  0  0  0  0  0  0  0  0  0  # atno 8009 bound_to 7997
  155.5302  140.0577  157.2881 H   0  0  0  0  0  0  0  0  0  0  0  0  # atno 8010 bound_to 7997
  140.5679  143.9216  150.6690 H   0  0  0  0  0  0  0  0  0  0  0  0  # atno 10167 bound_to 10162
  156.0075  130.5177  150.6315 H   0  0  0  0  0  0  0  0  0  0  0  0  # atno 10718 bound_to 10713
  154.1734  135.6455  153.5015 H   0  0  0  0  0  0  0  0  0  0  0  0  # atno 10763 bound_to 10752
  153.0078  135.5389  154.6589 H   0  0  0  0  0  0  0  0  0  0  0  0  # atno 10764 bound_to 10752
  154.5934  135.2936  155.0584 H   0  0  0  0  0  0  0  0  0  0  0  0  # atno 10765 bound_to 10752
  141.1597  133.6825  156.6947 H   0  0  0  0  0  0  0  0  0  0  0  0  # atno 11005 bound_to 11000
  144.6732  140.1591  143.7424 LP  0  0  0  0  0  0  0  0  0  0  0  0  # atno 17320 bound_to 7965
  145.8859  139.2349  143.1578 LP  0  0  0  0  0  0  0  0  0  0  0  0  # atno 17321 bound_to 7965
  140.2683  143.3474  152.1260 LP  0  0  0  0  0  0  0  0  0  0  0  0  # atno 17342 bound_to 10162
  139.5102  144.6881  151.5834 LP  0  0  0  0  0  0  0  0  0  0  0  0  # atno 17343 bound_to 10162
  157.4112  131.0824  151.1219 LP  0  0  0  0  0  0  0  0  0  0  0  0  # atno 17370 bound_to 10713
  157.1850  130.6326  149.5684 LP  0  0  0  0  0  0  0  0  0  0  0  0  # atno 17371 bound_to 10713
  140.3003  134.8169  157.4092 LP  0  0  0  0  0  0  0  0  0  0  0  0  # atno 17394 bound_to 11000
  140.1267  134.5148  155.8138 LP  0  0  0  0  0  0  0  0  0  0  0  0  # atno 17395 bound_to 11000

$$$$
