AV-unprocessed.smi:2073|AV-procd|sdf|8450|dock7
  -GOLD-   2272011143D 1   1.00000     0.00000
 Structure written by MMmdl.
 28 28  0  0  0  0  0  0  0  0  1 V2000
  151.7994  144.7304  157.2325 C   0  0  0  0  0  0  0  0  0  0  0  0
  151.1515  143.6560  158.1217 C   0  0  0  0  0  0  0  0  0  0  0  0
  151.8324  143.5871  159.4985 C   0  0  0  0  0  0  0  0  0  0  0  0
  151.1838  142.2859  157.4305 C   0  0  0  0  0  0  0  0  0  0  0  0
  151.8808  141.3845  157.8985 O   0  0  0  0  0  0  0  0  0  0  0  0
  150.4217  142.1667  156.3265 N   0  0  0  0  0  0  0  0  0  0  0  0
  150.2649  141.0354  155.4839 C   0  0  0  0  0  0  0  0  0  0  0  0
  151.2014  140.0986  155.2989 N   0  0  0  0  0  0  0  0  0  0  0  0
  150.7883  139.1041  154.4058 C   0  0  0  0  0  0  0  0  0  0  0  0
  151.7124  137.9704  154.0685 C   0  0  0  0  0  0  0  0  0  0  0  0
  151.3119  136.7115  154.8401 C   0  0  0  0  0  0  0  0  0  0  0  0
  150.1906  136.0933  154.4586 N   0  0  0  0  0  0  0  0  0  0  0  0
  152.0071  136.3002  155.7666 O   0  0  0  0  0  0  0  0  0  0  0  0
  149.5141  139.3001  153.9299 C   0  0  0  0  0  0  0  0  0  0  0  0
  148.7888  140.7479  154.5760 S   0  0  0  0  0  0  0  0  0  0  0  0
  151.3240  144.7740  156.2517 H   0  0  0  0  0  0  0  0  0  0  0  0
  152.8625  144.5391  157.0798 H   0  0  0  0  0  0  0  0  0  0  0  0
  151.7048  145.7182  157.6843 H   0  0  0  0  0  0  0  0  0  0  0  0
  150.1090  143.9382  158.2791 H   0  0  0  0  0  0  0  0  0  0  0  0
  151.3784  142.8208  160.1282 H   0  0  0  0  0  0  0  0  0  0  0  0
  151.7412  144.5376  160.0246 H   0  0  0  0  0  0  0  0  0  0  0  0
  152.8956  143.3598  159.4109 H   0  0  0  0  0  0  0  0  0  0  0  0
  149.8992  142.9863  156.0538 H   0  0  0  0  0  0  0  0  0  0  0  0
  151.6982  137.7619  152.9976 H   0  0  0  0  0  0  0  0  0  0  0  0
  152.7428  138.2286  154.3163 H   0  0  0  0  0  0  0  0  0  0  0  0
  149.8932  135.2525  154.9330 H   0  0  0  0  0  0  0  0  0  0  0  0
  149.6496  136.4627  153.6905 H   0  0  0  0  0  0  0  0  0  0  0  0
  148.9621  138.6831  153.2366 H   0  0  0  0  0  0  0  0  0  0  0  0
  1  2  1  0  0  0  0
  1 16  1  0  0  0  0
  1 17  1  0  0  0  0
  1 18  1  0  0  0  0
  2  3  1  0  0  0  0
  2  4  1  0  0  0  0
  2 19  1  0  0  0  0
  3 20  1  0  0  0  0
  3 21  1  0  0  0  0
  3 22  1  0  0  0  0
  4  5  2  0  0  0  0
  4  6  1  0  0  0  0
  6  7  1  0  0  0  0
  6 23  1  0  0  0  0
  7 15  1  0  0  0  0
  7  8  2  0  0  0  0
  8  9  1  0  0  0  0
  9 10  1  0  0  0  0
  9 14  2  0  0  0  0
 10 11  1  0  0  0  0
 10 24  1  0  0  0  0
 10 25  1  0  0  0  0
 11 12  1  0  0  0  0
 11 13  2  0  0  0  0
 12 26  1  0  0  0  0
 12 27  1  0  0  0  0
 14 15  1  0  0  0  0
 14 28  1  0  0  0  0
M  END
> <s_m_source_file>
AV-unprocessed.smi

> <i_m_source_file_index>
2073

> <i_lp_mmshare_version>
43012

> <i_f3d_flags>
0

> <s_epik_input>
W0NIM11bQ0hdKFtDSDNdKUMoPU8pW05IXWMxbmMoW2NIXXMxKVtDSDJdQyg9TylbTkgyXQ==

> <s_epik_cmdline>
J2VwaWtfcHl0aG9uJywgJy1waCcsICc3LjAnLCAnLXRuJywgJzgnLCAnLW1hJywgJzIwMCcsICctbWV0YWxfYmluZGluZycsICctaW1hZScsICc8aW5maWxlLm1hZT4nLCAnLW9tYWUnLCAnPG91dGZpbGUubWFlPic=

> <r_lp_tautomer_probability>
1

> <r_epik_Ionization_Penalty>
0.000158353

> <r_epik_Ionization_Penalty_Charging>
0

> <r_epik_Ionization_Penalty_Neutral>
0.000158353

> <r_epik_State_Penalty>
-0

> <r_epik_Charging_Adjusted_Penalty>
0

> <i_epik_Tot_Q>
0

> <i_epik_Tot_abs_Q>
0

> <r_epik_Metal_State_Penalty>
0.0986865

> <b_epik_Metal_Only>
0

> <s_lp_Force_Field>
OPLS_2005

> <r_lp_Energy>
2.86857

> <b_lp_Chiralities_Consistent>
1

> <s_lp_Variant>
AV-unprocessed.smi:2073-1

> <Gold.Version>
5.8.1

> <Gold.Id.Protein>
6NUR|6NUR_protein|mol2

> <Gold.PLP.Fitness>
39.2882

> <Gold.PLP.PLP>
-30.0091

> <Gold.PLP.part.hbond>
-3.8315

> <Gold.PLP.part.metal>
0.0000

> <Gold.PLP.part.buried>
-1.7739

> <Gold.PLP.part.nonpolar>
-25.7267

> <Gold.PLP.part.repulsive>
0.1842

> <Gold.PLP.ligand.clash>
0.0000

> <Gold.PLP.ligand.torsion>
0.6961

> <Gold.PLP.Chemscore.Hbond>
2.9033

> <Gold.PLP.Chemscore.CHOScore>
0.6481

> <Gold.PLP.Chemscore.Metal>
0.0000

> <Gold.Chemscore.Hbonds>
donor molecule, donor type, donor heavy atom, donor atom, acceptor molecule, acceptor atom, score
      L1  H     6    23       P1  8028  0.96
      L1  H    12    27       P1  7948  0.94
      P1  H 10752 10764       L1    13  0.99
      L1  C    14    28       P1  7948  0.37
      L1  C    14    28       P1  7957  0.30

> <Gold.PLP.Chemscore.Internal.Correction>
0.0171

> <Gold.Rescore>
     Score         DG    S(hbond)    S(metal)    S(lipo)     H(rot)  DE(clash)    DE(int)     intcor
     14.03     -16.37       2.45        0.00      65.28       1.93       0.32       2.01       ----

> <Gold.Chemscore.Fitness>
14.0299

> <Gold.Chemscore.DG>
-16.3654

> <Gold.Chemscore.ZeroCoef>
-5.4800

> <Gold.Chemscore.Hbond>
2.4536

> <Gold.Chemscore.Metal>
0.0000

> <Gold.Chemscore.Lipo>
65.2758

> <Gold.Chemscore.Internal_Hbond>
0.0000

> <Gold.Chemscore.DEClash>
0.3218

> <Gold.Chemscore.DEInternal>
2.0137

> <Gold.Chemscore.Rot>
1.9323

> <Gold.Chemscore.Internal.Correction>
   9.000000E+99

> <Gold.Chemscore.Hbonds>
donor molecule, donor type, donor heavy atom, donor atom, acceptor molecule, acceptor atom, score
      L1  H     6    23       P1  8028  0.91
      L1  H    12    27       P1  7948  0.50
      P1  H 10752 10764       L1    13  0.66

> <Gold.Chemscore.Hbond.Weighted>
-8.1949

> <Gold.Chemscore.Metal.Weighted>
-0.0000

> <Gold.Chemscore.Lipo.Weighted>
-7.6373

> <Gold.Chemscore.Internal_Hbond.Weighted>
0.0000

> <Gold.Chemscore.DEClash.Weighted>
0.3218

> <Gold.Chemscore.DEInternal.Weighted>
2.0137

> <Gold.Chemscore.Rot.Weighted>
4.9468

> <Gold.Chemscore.Internal.Correction.Weighted>
   9.000000E+99

> <Gold.Protein.RotatedTorsions>
[ 6907 6896 6895 6894 ] final   75.68 input  -60.11 | X-H torsion
[ 7974 7965 7964 7962 ] final  -32.26 input  175.53 | X-H torsion
[ 8008 7997 7996 7995 ] final -132.80 input   59.86 | X-H torsion
[ 10167 10162 10161 10158 ] final  -94.20 input  -65.29 | X-H torsion
[ 10718 10713 10712 10709 ] final   28.35 input   66.30 | X-H torsion
[ 10763 10752 10751 10750 ] final  -19.54 input  -60.55 | X-H torsion
[ 11005 11000 10999 10996 ] final  171.26 input  -57.11 | X-H torsion

> <Gold.Protein.ActiveResidues>
 VAL166  LYS551  ARG553  GLY616  TRP617  ASP618  TYR619  PRO620  LYS621  CYS622 
 ASP623  PHE694  ASN695  SER759  ASP760  ASP761  ALA762  ILE779  LEU786  VAL792 
 PHE793  MET794  SER795  GLU796  ALA797  LYS798  CYS799  TRP800  GLU811  SER814 

> <Gold.Protein.RotatedAtoms>
  152.5037  134.4084  159.9440 H   0  0  0  0  0  0  0  0  0  0  0  0  # atno 6907 bound_to 6896
  151.4051  133.3739  159.2745 H   0  0  0  0  0  0  0  0  0  0  0  0  # atno 6908 bound_to 6896
  150.9333  134.8768  159.7624 H   0  0  0  0  0  0  0  0  0  0  0  0  # atno 6909 bound_to 6896
  146.1003  140.5771  142.8824 H   0  0  0  0  0  0  0  0  0  0  0  0  # atno 7974 bound_to 7965
  155.3349  140.0469  157.3043 H   0  0  0  0  0  0  0  0  0  0  0  0  # atno 8008 bound_to 7997
  154.5308  140.2256  155.8773 H   0  0  0  0  0  0  0  0  0  0  0  0  # atno 8009 bound_to 7997
  156.1787  140.3079  155.9113 H   0  0  0  0  0  0  0  0  0  0  0  0  # atno 8010 bound_to 7997
  140.3169  143.3072  152.0088 H   0  0  0  0  0  0  0  0  0  0  0  0  # atno 10167 bound_to 10162
  157.2322  130.7029  149.6319 H   0  0  0  0  0  0  0  0  0  0  0  0  # atno 10718 bound_to 10713
  153.6063  135.6997  153.5364 H   0  0  0  0  0  0  0  0  0  0  0  0  # atno 10763 bound_to 10752
  153.3054  135.4116  155.1289 H   0  0  0  0  0  0  0  0  0  0  0  0  # atno 10764 bound_to 10752
  154.8572  135.3659  154.5600 H   0  0  0  0  0  0  0  0  0  0  0  0  # atno 10765 bound_to 10752
  140.3171  134.7468  157.4036 H   0  0  0  0  0  0  0  0  0  0  0  0  # atno 11005 bound_to 11000
  144.7428  140.4987  143.6857 LP  0  0  0  0  0  0  0  0  0  0  0  0  # atno 17320 bound_to 7965
  145.5867  139.1492  143.3205 LP  0  0  0  0  0  0  0  0  0  0  0  0  # atno 17321 bound_to 7965
  139.4882  144.6341  151.7011 LP  0  0  0  0  0  0  0  0  0  0  0  0  # atno 17342 bound_to 10162
  140.5518  144.0412  150.6130 LP  0  0  0  0  0  0  0  0  0  0  0  0  # atno 17343 bound_to 10162
  155.9675  130.4485  150.5622 LP  0  0  0  0  0  0  0  0  0  0  0  0  # atno 17370 bound_to 10713
  157.3466  131.0726  151.1746 LP  0  0  0  0  0  0  0  0  0  0  0  0  # atno 17371 bound_to 10713
  140.0974  134.5519  155.8385 LP  0  0  0  0  0  0  0  0  0  0  0  0  # atno 17394 bound_to 11000
  141.2095  133.6684  156.6444 LP  0  0  0  0  0  0  0  0  0  0  0  0  # atno 17395 bound_to 11000

$$$$
