AV-unprocessed.smi:1491|AV-procd|sdf|6034|dock9
  -GOLD-   22720 6143D 1   1.00000     0.00000
 Structure written by MMmdl.
 38 39  0  0  0  0  0  0  0  0  1 V2000
  146.7161  134.1847  154.9991 O   0  0  0  0  0  0  0  0  0  0  0  0
  147.3236  134.7455  154.0869 C   0  0  0  0  0  0  0  0  0  0  0  0
  148.3934  135.5327  154.2703 N   0  0  0  0  0  0  0  0  0  0  0  0
  149.0182  135.8178  155.5586 C   0  0  0  0  0  0  0  0  0  0  0  0
  150.5535  135.8798  155.4536 C   0  0  0  0  0  0  0  0  0  0  0  0
  151.0496  137.2343  155.2940 N   0  0  0  0  0  0  0  0  0  0  0  0
  151.9161  137.9156  156.1390 C   0  0  0  0  0  0  0  0  0  0  0  0
  152.0971  139.1655  155.5915 C   0  0  0  0  0  0  0  0  0  0  0  0
  151.3623  139.2724  154.4132 N   0  0  0  0  0  0  0  0  0  0  0  0
  150.7699  138.0904  154.3016 C   0  0  0  0  0  0  0  0  0  0  0  0
  147.0084  134.6360  152.7890 N   0  0  0  0  0  0  0  0  0  0  0  0
  145.9177  133.8354  152.2399 C   0  0  2  0  0  0  0  0  0  0  0  0
  146.4897  132.5812  151.5511 C   0  0  0  0  0  0  0  0  0  0  0  0
  145.3823  131.7542  150.8780 C   0  0  0  0  0  0  0  0  0  0  0  0
  144.5761  132.6109  149.8868 C   0  0  1  0  0  0  0  0  0  0  0  0
  143.5275  131.8394  149.3407 O   0  0  0  0  0  0  0  0  0  0  0  0
  143.9928  133.8557  150.5773 C   0  0  0  0  0  0  0  0  0  0  0  0
  145.0983  134.6850  151.2500 C   0  0  0  0  0  0  0  0  0  0  0  0
  148.8201  135.9507  153.4565 H   0  0  0  0  0  0  0  0  0  0  0  0
  148.6437  136.7847  155.8954 H   0  0  0  0  0  0  0  0  0  0  0  0
  148.7105  135.0948  156.3164 H   0  0  0  0  0  0  0  0  0  0  0  0
  151.0160  135.4344  156.3355 H   0  0  0  0  0  0  0  0  0  0  0  0
  150.8884  135.2954  154.5961 H   0  0  0  0  0  0  0  0  0  0  0  0
  152.3154  137.4700  157.0379 H   0  0  0  0  0  0  0  0  0  0  0  0
  152.6952  139.9895  155.9516 H   0  0  0  0  0  0  0  0  0  0  0  0
  150.1112  137.8431  153.4820 H   0  0  0  0  0  0  0  0  0  0  0  0
  147.5779  135.1364  152.1226 H   0  0  0  0  0  0  0  0  0  0  0  0
  145.2480  133.5079  153.0376 H   0  0  0  0  0  0  0  0  0  0  0  0
  147.2257  132.8742  150.8008 H   0  0  0  0  0  0  0  0  0  0  0  0
  147.0184  131.9636  152.2785 H   0  0  0  0  0  0  0  0  0  0  0  0
  145.8224  130.8993  150.3634 H   0  0  0  0  0  0  0  0  0  0  0  0
  144.7192  131.3481  151.6433 H   0  0  0  0  0  0  0  0  0  0  0  0
  145.2251  132.9228  149.0673 H   0  0  0  0  0  0  0  0  0  0  0  0
  142.7320  132.3486  149.3718 H   0  0  0  0  0  0  0  0  0  0  0  0
  143.4597  134.4721  149.8523 H   0  0  0  0  0  0  0  0  0  0  0  0
  143.2596  133.5553  151.3273 H   0  0  0  0  0  0  0  0  0  0  0  0
  144.6546  135.5364  151.7675 H   0  0  0  0  0  0  0  0  0  0  0  0
  145.7556  135.0978  150.4833 H   0  0  0  0  0  0  0  0  0  0  0  0
  1  2  2  0  0  0  0
  2  3  1  0  0  0  0
  2 11  1  0  0  0  0
  3  4  1  0  0  0  0
  3 19  1  0  0  0  0
  4  5  1  0  0  0  0
  4 20  1  0  0  0  0
  4 21  1  0  0  0  0
  5  6  1  0  0  0  0
  5 22  1  0  0  0  0
  5 23  1  0  0  0  0
  6 10  1  0  0  0  0
  6  7  1  0  0  0  0
  7  8  2  0  0  0  0
  7 24  1  0  0  0  0
  8  9  1  0  0  0  0
  8 25  1  0  0  0  0
  9 10  2  0  0  0  0
 10 26  1  0  0  0  0
 11 12  1  0  0  0  0
 11 27  1  0  0  0  0
 12 18  1  0  0  0  0
 12 13  1  0  0  0  0
 12 28  1  0  0  0  0
 13 14  1  0  0  0  0
 13 29  1  0  0  0  0
 13 30  1  0  0  0  0
 14 15  1  0  0  0  0
 14 31  1  0  0  0  0
 14 32  1  0  0  0  0
 15 16  1  0  0  0  0
 15 17  1  0  0  0  0
 15 33  1  0  0  0  0
 16 34  1  0  0  0  0
 17 18  1  0  0  0  0
 17 35  1  0  0  0  0
 17 36  1  0  0  0  0
 18 37  1  0  0  0  0
 18 38  1  0  0  0  0
M  END
> <s_m_source_file>
AV-unprocessed.smi

> <i_m_source_file_index>
1491

> <i_lp_mmshare_version>
43012

> <i_f3d_flags>
0

> <s_epik_input>
W0NIMl0xW0NIMl1bQ0BIXShbT0hdKVtDSDJdW0NIMl1bQ0BIXTFbTkhdQyg9TylbTkhdW0NIMl1bQ0gyXW4yW2NIXVtjSF1uW2NIXTI=

> <s_epik_cmdline>
J2VwaWtfcHl0aG9uJywgJy1waCcsICc3LjAnLCAnLXRuJywgJzgnLCAnLW1hJywgJzIwMCcsICctbWV0YWxfYmluZGluZycsICctaW1hZScsICc8aW5maWxlLm1hZT4nLCAnLW9tYWUnLCAnPG91dGZpbGUubWFlPic=

> <r_lp_tautomer_probability>
1

> <r_epik_Ionization_Penalty>
0.623245

> <r_epik_Ionization_Penalty_Charging>
0.623187

> <r_epik_Ionization_Penalty_Neutral>
5.75214e-05

> <r_epik_State_Penalty>
0.639392

> <r_epik_Charging_Adjusted_Penalty>
1.26258

> <i_epik_Tot_Q>
0

> <i_epik_Tot_abs_Q>
0

> <r_epik_Metal_State_Penalty>
0.307266

> <b_epik_Metal_Only>
0

> <s_lp_Force_Field>
OPLS_2005

> <r_lp_Energy>
7.54437

> <b_lp_Chiralities_Consistent>
1

> <s_lp_Variant>
AV-unprocessed.smi:1491-3

> <Gold.Version>
5.8.1

> <Gold.Id.Protein>
6NUR|6NUR_protein|mol2

> <Gold.PLP.Fitness>
44.9691

> <Gold.PLP.PLP>
-31.2182

> <Gold.PLP.part.hbond>
-4.7545

> <Gold.PLP.part.metal>
0.0000

> <Gold.PLP.part.buried>
-3.9289

> <Gold.PLP.part.nonpolar>
-22.6499

> <Gold.PLP.part.repulsive>
0.1749

> <Gold.PLP.ligand.clash>
0.0000

> <Gold.PLP.ligand.torsion>
0.5363

> <Gold.PLP.Chemscore.Hbond>
3.9360

> <Gold.PLP.Chemscore.CHOScore>
1.0024

> <Gold.PLP.Chemscore.Metal>
0.0000

> <Gold.Chemscore.Hbonds>
donor molecule, donor type, donor heavy atom, donor atom, acceptor molecule, acceptor atom, score
      L1  H     3    19       P1  7948  1.00
      L1  H    11    27       P1  7948  0.98
      P1  H  7989  7998       L1     9  1.00
      P1  H 10785 10796       L1    16  0.96
      L1  C    10    26       P1  7948  1.00
      L1  C    10    26       P1  7949  0.01

> <Gold.PLP.Chemscore.Internal.Correction>
0.0084

> <Gold.Rescore>
     Score         DG    S(hbond)    S(metal)    S(lipo)     H(rot)  DE(clash)    DE(int)     intcor
     18.88     -19.79       4.24        0.00      57.66       2.57       0.31       0.59       ----

> <Gold.Chemscore.Fitness>
18.8814

> <Gold.Chemscore.DG>
-19.7874

> <Gold.Chemscore.ZeroCoef>
-5.4800

> <Gold.Chemscore.Hbond>
4.2366

> <Gold.Chemscore.Metal>
0.0000

> <Gold.Chemscore.Lipo>
57.6585

> <Gold.Chemscore.Internal_Hbond>
0.0000

> <Gold.Chemscore.DEClash>
0.3145

> <Gold.Chemscore.DEInternal>
0.5916

> <Gold.Chemscore.Rot>
2.5738

> <Gold.Chemscore.Internal.Correction>
   9.000000E+99

> <Gold.Chemscore.Hbonds>
donor molecule, donor type, donor heavy atom, donor atom, acceptor molecule, acceptor atom, score
      L1  H     3    19       P1  7948  0.95
      L1  H    11    27       P1  7948  0.89
      P1  H  7989  7998       L1     9  0.88
      P1  H 10785 10796       L1    16  0.72

> <Gold.Chemscore.Hbond.Weighted>
-14.1504

> <Gold.Chemscore.Metal.Weighted>
-0.0000

> <Gold.Chemscore.Lipo.Weighted>
-6.7460

> <Gold.Chemscore.Internal_Hbond.Weighted>
0.0000

> <Gold.Chemscore.DEClash.Weighted>
0.3145

> <Gold.Chemscore.DEInternal.Weighted>
0.5916

> <Gold.Chemscore.Rot.Weighted>
6.5890

> <Gold.Chemscore.Internal.Correction.Weighted>
   9.000000E+99

> <Gold.Protein.RotatedTorsions>
[ 6907 6896 6895 6894 ] final   75.52 input  -60.11 | X-H torsion
[ 7974 7965 7964 7962 ] final  128.50 input  175.53 | X-H torsion
[ 8008 7997 7996 7995 ] final -162.99 input   59.86 | X-H torsion
[ 10167 10162 10161 10158 ] final   97.40 input  -65.29 | X-H torsion
[ 10718 10713 10712 10709 ] final -123.59 input   66.30 | X-H torsion
[ 10763 10752 10751 10750 ] final   12.46 input  -60.55 | X-H torsion
[ 11005 11000 10999 10996 ] final  154.28 input  -57.11 | X-H torsion

> <Gold.Protein.ActiveResidues>
 VAL166  LYS551  ARG553  GLY616  TRP617  ASP618  TYR619  PRO620  LYS621  CYS622 
 ASP623  PHE694  ASN695  SER759  ASP760  ASP761  ALA762  ILE779  LEU786  VAL792 
 PHE793  MET794  SER795  GLU796  ALA797  LYS798  CYS799  TRP800  GLU811  SER814 

> <Gold.Protein.RotatedAtoms>
  152.5029  134.4108  159.9447 H   0  0  0  0  0  0  0  0  0  0  0  0  # atno 6907 bound_to 6896
  151.4076  133.3731  159.2748 H   0  0  0  0  0  0  0  0  0  0  0  0  # atno 6908 bound_to 6896
  150.9315  134.8751  159.7613 H   0  0  0  0  0  0  0  0  0  0  0  0  # atno 6909 bound_to 6896
  145.0389  139.3981  143.5112 H   0  0  0  0  0  0  0  0  0  0  0  0  # atno 7974 bound_to 7965
  155.8148  140.0911  157.1883 H   0  0  0  0  0  0  0  0  0  0  0  0  # atno 8008 bound_to 7997
  154.3979  140.1448  156.3489 H   0  0  0  0  0  0  0  0  0  0  0  0  # atno 8009 bound_to 7997
  155.8327  140.3442  155.5585 H   0  0  0  0  0  0  0  0  0  0  0  0  # atno 8010 bound_to 7997
  139.7805  144.6890  151.0030 H   0  0  0  0  0  0  0  0  0  0  0  0  # atno 10167 bound_to 10162
  156.1515  130.6537  150.9920 H   0  0  0  0  0  0  0  0  0  0  0  0  # atno 10718 bound_to 10713
  153.1820  135.6829  153.8465 H   0  0  0  0  0  0  0  0  0  0  0  0  # atno 10763 bound_to 10752
  153.7794  135.3184  155.3364 H   0  0  0  0  0  0  0  0  0  0  0  0  # atno 10764 bound_to 10752
  154.8065  135.4745  154.0502 H   0  0  0  0  0  0  0  0  0  0  0  0  # atno 10765 bound_to 10752
  140.1474  134.8698  157.2411 H   0  0  0  0  0  0  0  0  0  0  0  0  # atno 11005 bound_to 11000
  146.3507  139.9979  142.8679 LP  0  0  0  0  0  0  0  0  0  0  0  0  # atno 17320 bound_to 7965
  145.1674  140.9703  143.4342 LP  0  0  0  0  0  0  0  0  0  0  0  0  # atno 17321 bound_to 7965
  140.7818  143.4489  151.0442 LP  0  0  0  0  0  0  0  0  0  0  0  0  # atno 17342 bound_to 10162
  139.8169  143.7873  152.3175 LP  0  0  0  0  0  0  0  0  0  0  0  0  # atno 17343 bound_to 10162
  157.6660  131.0871  150.7726 LP  0  0  0  0  0  0  0  0  0  0  0  0  # atno 17370 bound_to 10713
  156.7794  130.4854  149.5404 LP  0  0  0  0  0  0  0  0  0  0  0  0  # atno 17371 bound_to 10713
  140.2646  134.3531  155.7394 LP  0  0  0  0  0  0  0  0  0  0  0  0  # atno 17394 bound_to 11000
  141.2194  133.7389  156.9132 LP  0  0  0  0  0  0  0  0  0  0  0  0  # atno 17395 bound_to 11000

$$$$
