AV-unprocessed.smi:2090|AV-procd|sdf|8534|dock9
  -GOLD-   2272011253D 1   1.00000     0.00000
 Structure written by MMmdl.
 41 42  0  0  0  0  0  0  0  0  3 V2000
  145.9590  135.9260  161.8157 C   0  0  0  0  0  0  0  0  0  0  0  0
  146.9965  136.1465  160.7682 C   0  0  0  0  0  0  0  0  0  0  0  0
  147.8820  135.3106  160.1491 C   0  0  0  0  0  0  0  0  0  0  0  0
  148.5689  136.1723  159.2508 C   0  0  0  0  0  0  0  0  0  0  0  0
  149.5570  135.8144  158.4160 N   0  5  0  0  0  0  0  0  0  0  0  0
  150.2998  136.7598  157.7963 C   0  0  0  0  0  0  0  0  0  0  0  0
  150.2998  137.0196  156.5907 O   0  0  0  0  0  0  0  0  0  0  0  0
  151.0954  137.4485  158.6251 N   0  0  0  0  0  0  0  0  0  0  0  0
  151.9979  138.5179  158.2222 C   0  0  0  0  0  0  0  0  0  0  0  0
  152.4212  139.3504  159.4420 C   0  0  0  0  0  0  0  0  0  0  0  0
  152.5397  140.7946  159.1208 N   0  3  2  0  0  0  0  0  0  0  0  0
  152.9680  141.5996  160.2938 C   0  0  0  0  0  0  0  0  0  0  0  0
  153.2199  143.0652  159.9011 C   0  0  0  0  0  0  0  0  0  0  0  0
  151.9758  143.6914  159.2495 C   0  0  1  0  0  0  0  0  0  0  0  0
  152.2278  145.1448  158.8236 C   0  0  0  0  0  0  0  0  0  0  0  0
  151.5328  142.8186  158.0631 C   0  0  0  0  0  0  0  0  0  0  0  0
  151.3151  141.3578  158.4930 C   0  0  0  0  0  0  0  0  0  0  0  0
  148.1500  137.4243  159.3311 N   0  0  0  0  0  0  0  0  0  0  0  0
  147.1357  137.4146  160.2962 O   0  0  0  0  0  0  0  0  0  0  0  0
  146.3676  135.3535  162.6482 H   0  0  0  0  0  0  0  0  0  0  0  0
  145.1121  135.3739  161.4080 H   0  0  0  0  0  0  0  0  0  0  0  0
  145.5882  136.8732  162.2080 H   0  0  0  0  0  0  0  0  0  0  0  0
  148.0153  134.2512  160.3090 H   0  0  0  0  0  0  0  0  0  0  0  0
  151.0651  137.2097  159.6057 H   0  0  0  0  0  0  0  0  0  0  0  0
  152.8796  138.0911  157.7410 H   0  0  0  0  0  0  0  0  0  0  0  0
  151.4892  139.1333  157.4802 H   0  0  0  0  0  0  0  0  0  0  0  0
  151.7268  139.2099  160.2720 H   0  0  0  0  0  0  0  0  0  0  0  0
  153.3880  138.9765  159.7831 H   0  0  0  0  0  0  0  0  0  0  0  0
  152.2067  141.5425  161.0734 H   0  0  0  0  0  0  0  0  0  0  0  0
  153.8843  141.1823  160.7133 H   0  0  0  0  0  0  0  0  0  0  0  0
  153.5067  143.6372  160.7842 H   0  0  0  0  0  0  0  0  0  0  0  0
  154.0649  143.1169  159.2127 H   0  0  0  0  0  0  0  0  0  0  0  0
  151.1714  143.6967  159.9868 H   0  0  0  0  0  0  0  0  0  0  0  0
  153.0306  145.2105  158.0886 H   0  0  0  0  0  0  0  0  0  0  0  0
  152.5080  145.7611  159.6783 H   0  0  0  0  0  0  0  0  0  0  0  0
  151.3338  145.5841  158.3800 H   0  0  0  0  0  0  0  0  0  0  0  0
  150.6120  143.2135  157.6324 H   0  0  0  0  0  0  0  0  0  0  0  0
  152.2842  142.8566  157.2729 H   0  0  0  0  0  0  0  0  0  0  0  0
  151.0323  140.7732  157.6184 H   0  0  0  0  0  0  0  0  0  0  0  0
  150.4827  141.2947  159.1958 H   0  0  0  0  0  0  0  0  0  0  0  0
  153.2827  140.8724  158.4409 H   0  0  0  0  0  0  0  0  0  0  0  0
  1  2  1  0  0  0  0
  1 20  1  0  0  0  0
  1 21  1  0  0  0  0
  1 22  1  0  0  0  0
  2 19  1  0  0  0  0
  2  3  2  0  0  0  0
  3  4  1  0  0  0  0
  3 23  1  0  0  0  0
  4  5  1  0  0  0  0
  4 18  2  0  0  0  0
  5  6  1  0  0  0  0
  6  7  2  0  0  0  0
  6  8  1  0  0  0  0
  8  9  1  0  0  0  0
  8 24  1  0  0  0  0
  9 10  1  0  0  0  0
  9 25  1  0  0  0  0
  9 26  1  0  0  0  0
 10 11  1  0  0  0  0
 10 27  1  0  0  0  0
 10 28  1  0  0  0  0
 11 17  1  0  0  0  0
 11 12  1  0  0  0  0
 11 41  1  0  0  0  0
 12 13  1  0  0  0  0
 12 29  1  0  0  0  0
 12 30  1  0  0  0  0
 13 14  1  0  0  0  0
 13 31  1  0  0  0  0
 13 32  1  0  0  0  0
 14 15  1  0  0  0  0
 14 16  1  0  0  0  0
 14 33  1  0  0  0  0
 15 34  1  0  0  0  0
 15 35  1  0  0  0  0
 15 36  1  0  0  0  0
 16 17  1  0  0  0  0
 16 37  1  0  0  0  0
 16 38  1  0  0  0  0
 17 39  1  0  0  0  0
 17 40  1  0  0  0  0
 18 19  1  0  0  0  0
M  CHG  1   5  -1
M  CHG  1  11   1
M  END
> <s_m_source_file>
AV-unprocessed.smi

> <i_m_source_file_index>
2090

> <i_lp_mmshare_version>
43012

> <i_f3d_flags>
0

> <s_epik_input>
W0NIM11jMVtjSF1jKG5vMSlbTkhdQyg9TylbTkhdW0NIMl1bQ0gyXU4yW0NIMl1bQ0gyXVtDSF0oW0NIM10pW0NIMl1bQ0gyXTI=

> <s_epik_cmdline>
J2VwaWtfcHl0aG9uJywgJy1waCcsICc3LjAnLCAnLXRuJywgJzgnLCAnLW1hJywgJzIwMCcsICctbWV0YWxfYmluZGluZycsICctaW1hZScsICc8aW5maWxlLm1hZT4nLCAnLW9tYWUnLCAnPG91dGZpbGUubWFlPic=

> <r_epik_Ionization_Penalty>
6.22503

> <r_epik_Ionization_Penalty_Charging>
6.22494

> <r_epik_Ionization_Penalty_Neutral>
9.3589e-05

> <r_epik_State_Penalty>
6.22491

> <r_epik_Charging_Adjusted_Penalty>
12.4498

> <i_epik_Tot_Q>
0

> <i_epik_Tot_abs_Q>
2

> <r_epik_Metal_State_Penalty>
2.16853

> <b_epik_Metal_Only>
1

> <s_lp_Force_Field>
OPLS_2005

> <r_lp_Energy>
5.4778

> <b_lp_Chiralities_Consistent>
1

> <s_lp_Variant>
AV-unprocessed.smi:2090-3

> <Gold.Version>
5.8.1

> <Gold.Id.Protein>
6NUR|6NUR_protein|mol2

> <Gold.PLP.Fitness>
45.3468

> <Gold.PLP.PLP>
-38.1391

> <Gold.PLP.part.hbond>
-5.0000

> <Gold.PLP.part.metal>
0.0000

> <Gold.PLP.part.buried>
-4.3369

> <Gold.PLP.part.nonpolar>
-29.0807

> <Gold.PLP.part.repulsive>
0.2297

> <Gold.PLP.ligand.clash>
0.0000

> <Gold.PLP.ligand.torsion>
1.0632

> <Gold.PLP.Chemscore.Hbond>
3.0991

> <Gold.PLP.Chemscore.CHOScore>
0.0000

> <Gold.PLP.Chemscore.Metal>
0.0000

> <Gold.Chemscore.Hbonds>
donor molecule, donor type, donor heavy atom, donor atom, acceptor molecule, acceptor atom, score
      P1  H  6896  6907       L1     5  2.00
      P1  H  6934  6947       L1    19  1.00

> <Gold.PLP.Chemscore.Internal.Correction>
0.0369

> <Gold.Rescore>
     Score         DG    S(hbond)    S(metal)    S(lipo)     H(rot)  DE(clash)    DE(int)     intcor
     15.23     -16.61       1.18        0.00      95.03       1.54       0.23       1.15       ----

> <Gold.Chemscore.Fitness>
15.2276

> <Gold.Chemscore.DG>
-16.6066

> <Gold.Chemscore.ZeroCoef>
-5.4800

> <Gold.Chemscore.Hbond>
1.1835

> <Gold.Chemscore.Metal>
0.0000

> <Gold.Chemscore.Lipo>
95.0279

> <Gold.Chemscore.Internal_Hbond>
0.0000

> <Gold.Chemscore.DEClash>
0.2301

> <Gold.Chemscore.DEInternal>
1.1490

> <Gold.Chemscore.Rot>
1.5409

> <Gold.Chemscore.Internal.Correction>
   9.000000E+99

> <Gold.Chemscore.Hbonds>
donor molecule, donor type, donor heavy atom, donor atom, acceptor molecule, acceptor atom, score
      P1  H  6896  6907       L1     5  0.31
      P1  H  6934  6947       L1    19  0.39

> <Gold.Chemscore.Hbond.Weighted>
-3.9530

> <Gold.Chemscore.Metal.Weighted>
-0.0000

> <Gold.Chemscore.Lipo.Weighted>
-11.1183

> <Gold.Chemscore.Internal_Hbond.Weighted>
0.0000

> <Gold.Chemscore.DEClash.Weighted>
0.2301

> <Gold.Chemscore.DEInternal.Weighted>
1.1490

> <Gold.Chemscore.Rot.Weighted>
3.9446

> <Gold.Chemscore.Internal.Correction.Weighted>
   9.000000E+99

> <Gold.Protein.RotatedTorsions>
[ 6907 6896 6895 6894 ] final  -69.04 input  -60.11 | X-H torsion
[ 7974 7965 7964 7962 ] final  145.03 input  175.53 | X-H torsion
[ 8008 7997 7996 7995 ] final   21.95 input   59.86 | X-H torsion
[ 10167 10162 10161 10158 ] final  -80.67 input  -65.29 | X-H torsion
[ 10718 10713 10712 10709 ] final  -57.95 input   66.30 | X-H torsion
[ 10763 10752 10751 10750 ] final   73.77 input  -60.55 | X-H torsion
[ 11005 11000 10999 10996 ] final  -15.33 input  -57.11 | X-H torsion

> <Gold.Protein.ActiveResidues>
 VAL166  LYS551  ARG553  GLY616  TRP617  ASP618  TYR619  PRO620  LYS621  CYS622 
 ASP623  PHE694  ASN695  SER759  ASP760  ASP761  ALA762  ILE779  LEU786  VAL792 
 PHE793  MET794  SER795  GLU796  ALA797  LYS798  CYS799  TRP800  GLU811  SER814 

> <Gold.Protein.RotatedAtoms>
  150.7325  134.5653  159.5862 H   0  0  0  0  0  0  0  0  0  0  0  0  # atno 6907 bound_to 6896
  152.3106  134.7499  160.0346 H   0  0  0  0  0  0  0  0  0  0  0  0  # atno 6908 bound_to 6896
  151.8049  133.3339  159.3574 H   0  0  0  0  0  0  0  0  0  0  0  0  # atno 6909 bound_to 6896
  144.8786  139.5733  143.5853 H   0  0  0  0  0  0  0  0  0  0  0  0  # atno 7974 bound_to 7965
  154.9583  140.3074  155.5042 H   0  0  0  0  0  0  0  0  0  0  0  0  # atno 8008 bound_to 7997
  156.2980  140.2306  156.4605 H   0  0  0  0  0  0  0  0  0  0  0  0  # atno 8009 bound_to 7997
  154.7989  140.0435  157.1246 H   0  0  0  0  0  0  0  0  0  0  0  0  # atno 8010 bound_to 7997
  140.4482  143.2491  151.8527 H   0  0  0  0  0  0  0  0  0  0  0  0  # atno 10167 bound_to 10162
  156.1171  130.4169  150.0511 H   0  0  0  0  0  0  0  0  0  0  0  0  # atno 10718 bound_to 10713
  153.0543  135.5050  154.7943 H   0  0  0  0  0  0  0  0  0  0  0  0  # atno 10763 bound_to 10752
  154.6781  135.2964  154.9653 H   0  0  0  0  0  0  0  0  0  0  0  0  # atno 10764 bound_to 10752
  154.0448  135.6712  153.4846 H   0  0  0  0  0  0  0  0  0  0  0  0  # atno 10765 bound_to 10752
  140.7955  133.8254  155.9420 H   0  0  0  0  0  0  0  0  0  0  0  0  # atno 11005 bound_to 11000
  146.2979  139.7336  142.9113 LP  0  0  0  0  0  0  0  0  0  0  0  0  # atno 17320 bound_to 7965
  145.3996  141.0383  143.3078 LP  0  0  0  0  0  0  0  0  0  0  0  0  # atno 17321 bound_to 7965
  139.4794  144.5150  151.8880 LP  0  0  0  0  0  0  0  0  0  0  0  0  # atno 17342 bound_to 10162
  140.4238  144.2207  150.5887 LP  0  0  0  0  0  0  0  0  0  0  0  0  # atno 17343 bound_to 10162
  156.8459  130.9442  151.3629 LP  0  0  0  0  0  0  0  0  0  0  0  0  # atno 17370 bound_to 10713
  157.6355  130.8763  149.9351 LP  0  0  0  0  0  0  0  0  0  0  0  0  # atno 17371 bound_to 10713
  140.9347  134.1978  157.4840 LP  0  0  0  0  0  0  0  0  0  0  0  0  # atno 17394 bound_to 11000
  139.8726  134.9847  156.5251 LP  0  0  0  0  0  0  0  0  0  0  0  0  # atno 17395 bound_to 11000

$$$$
