AV-unprocessed.smi:3334|AV-procd|sdf|12836|dock10
  -GOLD-   2272019223D 1   1.00000     0.00000
 Structure written by MMmdl.
 41 42  0  0  0  0  0  0  0  0  1 V2000
  151.7021  145.5363  159.8302 C   0  0  0  0  0  0  0  0  0  0  0  0
  152.5735  144.5795  159.0037 C   0  0  0  0  0  0  0  0  0  0  0  0
  152.0737  144.4309  157.5609 C   0  0  0  0  0  0  0  0  0  0  0  0
  152.7413  143.2510  159.6741 C   0  0  0  0  0  0  0  0  0  0  0  0
  152.6315  142.0885  159.0265 N   0  0  0  0  0  0  0  0  0  0  0  0
  152.8250  140.9805  159.8580 C   0  0  0  0  0  0  0  0  0  0  0  0
  152.6940  139.5934  159.2931 C   0  0  0  0  0  0  0  0  0  0  0  0
  152.5369  139.5684  157.7607 C   0  0  0  0  0  0  0  0  0  0  0  0
  151.3579  140.3146  157.3311 N   0  0  0  0  0  0  0  0  0  0  0  0
  150.9507  140.4540  156.0617 C   0  0  0  0  0  0  0  0  0  0  0  0
  151.6249  140.1126  155.0898 O   0  0  0  0  0  0  0  0  0  0  0  0
  149.5458  141.0318  155.8615 C   0  0  0  0  0  0  0  0  0  0  0  0
  149.0788  140.9938  154.3890 C   0  0  1  0  0  0  0  0  0  0  0  0
  148.4291  139.6915  153.9830 C   0  0  0  0  0  0  0  0  0  0  0  0
  147.2447  139.8672  153.4029 C   0  0  0  0  0  0  0  0  0  0  0  0
  146.8576  141.3169  153.3134 C   0  0  0  0  0  0  0  0  0  0  0  0
  147.9933  142.0507  154.0615 C   0  0  0  0  0  0  0  0  0  0  0  0
  153.0704  141.3227  161.1641 C   0  0  0  0  0  0  0  0  0  0  0  0
  153.0609  143.0500  161.3956 S   0  0  0  0  0  0  0  0  0  0  0  0
  152.1125  145.6745  160.8311 H   0  0  0  0  0  0  0  0  0  0  0  0
  150.6844  145.1597  159.9355 H   0  0  0  0  0  0  0  0  0  0  0  0
  151.6434  146.5180  159.3599 H   0  0  0  0  0  0  0  0  0  0  0  0
  153.5642  145.0326  158.9470 H   0  0  0  0  0  0  0  0  0  0  0  0
  152.7489  143.8057  156.9758 H   0  0  0  0  0  0  0  0  0  0  0  0
  152.0092  145.3996  157.0653 H   0  0  0  0  0  0  0  0  0  0  0  0
  151.0833  143.9765  157.5297 H   0  0  0  0  0  0  0  0  0  0  0  0
  153.5733  139.0068  159.5630 H   0  0  0  0  0  0  0  0  0  0  0  0
  151.8490  139.0783  159.7508 H   0  0  0  0  0  0  0  0  0  0  0  0
  153.4269  139.9714  157.2768 H   0  0  0  0  0  0  0  0  0  0  0  0
  152.4509  138.5280  157.4431 H   0  0  0  0  0  0  0  0  0  0  0  0
  150.7384  140.6366  158.0609 H   0  0  0  0  0  0  0  0  0  0  0  0
  148.8363  140.4851  156.4852 H   0  0  0  0  0  0  0  0  0  0  0  0
  149.5449  142.0607  156.2222 H   0  0  0  0  0  0  0  0  0  0  0  0
  149.9354  141.1447  153.7302 H   0  0  0  0  0  0  0  0  0  0  0  0
  148.9033  138.7331  154.1377 H   0  0  0  0  0  0  0  0  0  0  0  0
  146.6151  139.0767  153.0222 H   0  0  0  0  0  0  0  0  0  0  0  0
  146.8003  141.6203  152.2678 H   0  0  0  0  0  0  0  0  0  0  0  0
  145.8875  141.4865  153.7812 H   0  0  0  0  0  0  0  0  0  0  0  0
  147.5967  142.4928  154.9764 H   0  0  0  0  0  0  0  0  0  0  0  0
  148.4012  142.8676  153.4654 H   0  0  0  0  0  0  0  0  0  0  0  0
  153.2365  140.6656  162.0047 H   0  0  0  0  0  0  0  0  0  0  0  0
  1  2  1  0  0  0  0
  1 20  1  0  0  0  0
  1 21  1  0  0  0  0
  1 22  1  0  0  0  0
  2  3  1  0  0  0  0
  2  4  1  0  0  0  0
  2 23  1  0  0  0  0
  3 24  1  0  0  0  0
  3 25  1  0  0  0  0
  3 26  1  0  0  0  0
  4 19  1  0  0  0  0
  4  5  2  0  0  0  0
  5  6  1  0  0  0  0
  6  7  1  0  0  0  0
  6 18  2  0  0  0  0
  7  8  1  0  0  0  0
  7 27  1  0  0  0  0
  7 28  1  0  0  0  0
  8  9  1  0  0  0  0
  8 29  1  0  0  0  0
  8 30  1  0  0  0  0
  9 10  1  0  0  0  0
  9 31  1  0  0  0  0
 10 11  2  0  0  0  0
 10 12  1  0  0  0  0
 12 13  1  0  0  0  0
 12 32  1  0  0  0  0
 12 33  1  0  0  0  0
 13 17  1  0  0  0  0
 13 14  1  0  0  0  0
 13 34  1  0  0  0  0
 14 15  2  0  0  0  0
 14 35  1  0  0  0  0
 15 16  1  0  0  0  0
 15 36  1  0  0  0  0
 16 17  1  0  0  0  0
 16 37  1  0  0  0  0
 16 38  1  0  0  0  0
 17 39  1  0  0  0  0
 17 40  1  0  0  0  0
 18 19  1  0  0  0  0
 18 41  1  0  0  0  0
M  END
> <s_m_source_file>
AV-unprocessed.smi

> <i_m_source_file_index>
3334

> <i_lp_mmshare_version>
43012

> <i_f3d_flags>
0

> <s_epik_input>
W0NIM11bQ0hdKFtDSDNdKWMxbmMoW2NIXXMxKVtDSDJdW0NIMl1bTkhdQyg9TylbQ0gyXVtDQEBIXTJbQ0hdPVtDSF1bQ0gyXVtDSDJdMg==

> <s_epik_cmdline>
J2VwaWtfcHl0aG9uJywgJy1waCcsICc3LjAnLCAnLXRuJywgJzgnLCAnLW1hJywgJzIwMCcsICctbWV0YWxfYmluZGluZycsICctaW1hZScsICc8aW5maWxlLm1hZT4nLCAnLW9tYWUnLCAnPG91dGZpbGUubWFlPic=

> <r_epik_Ionization_Penalty>
0.000771592

> <r_epik_Ionization_Penalty_Charging>
0

> <r_epik_Ionization_Penalty_Neutral>
0.000771592

> <r_epik_State_Penalty>
0.000494253

> <r_epik_Charging_Adjusted_Penalty>
0.000494253

> <i_epik_Tot_Q>
0

> <i_epik_Tot_abs_Q>
0

> <r_epik_Metal_State_Penalty>
-0

> <b_epik_Metal_Only>
0

> <s_lp_Force_Field>
OPLS_2005

> <r_lp_Energy>
5.93023

> <b_lp_Chiralities_Consistent>
1

> <s_lp_Variant>
AV-unprocessed.smi:3334-2

> <Gold.Version>
5.8.1

> <Gold.Id.Protein>
6NUR|6NUR_protein|mol2

> <Gold.PLP.Fitness>
48.5662

> <Gold.PLP.PLP>
-46.7961

> <Gold.PLP.part.hbond>
-1.0000

> <Gold.PLP.part.metal>
0.0000

> <Gold.PLP.part.buried>
-3.3396

> <Gold.PLP.part.nonpolar>
-41.7066

> <Gold.PLP.part.repulsive>
0.1066

> <Gold.PLP.ligand.clash>
0.0000

> <Gold.PLP.ligand.torsion>
0.6484

> <Gold.PLP.Chemscore.Hbond>
0.9920

> <Gold.PLP.Chemscore.CHOScore>
0.0000

> <Gold.PLP.Chemscore.Metal>
0.0000

> <Gold.Chemscore.Hbonds>
donor molecule, donor type, donor heavy atom, donor atom, acceptor molecule, acceptor atom, score
      P1  H  7989  7998       L1    11  0.99

> <Gold.PLP.Chemscore.Internal.Correction>
0.0908

> <Gold.Rescore>
     Score         DG    S(hbond)    S(metal)    S(lipo)     H(rot)  DE(clash)    DE(int)     intcor
     18.71     -21.05       0.99        0.00     137.90       1.52       1.44       0.90       ----

> <Gold.Chemscore.Fitness>
18.7093

> <Gold.Chemscore.DG>
-21.0506

> <Gold.Chemscore.ZeroCoef>
-5.4800

> <Gold.Chemscore.Hbond>
0.9934

> <Gold.Chemscore.Metal>
0.0000

> <Gold.Chemscore.Lipo>
137.8989

> <Gold.Chemscore.Internal_Hbond>
0.0000

> <Gold.Chemscore.DEClash>
1.4366

> <Gold.Chemscore.DEInternal>
0.9047

> <Gold.Chemscore.Rot>
1.5162

> <Gold.Chemscore.Internal.Correction>
   9.000000E+99

> <Gold.Chemscore.Hbonds>
donor molecule, donor type, donor heavy atom, donor atom, acceptor molecule, acceptor atom, score
      P1  H  7989  7998       L1    11  0.94

> <Gold.Chemscore.Hbond.Weighted>
-3.3180

> <Gold.Chemscore.Metal.Weighted>
-0.0000

> <Gold.Chemscore.Lipo.Weighted>
-16.1342

> <Gold.Chemscore.Internal_Hbond.Weighted>
0.0000

> <Gold.Chemscore.DEClash.Weighted>
1.4366

> <Gold.Chemscore.DEInternal.Weighted>
0.9047

> <Gold.Chemscore.Rot.Weighted>
3.8815

> <Gold.Chemscore.Internal.Correction.Weighted>
   9.000000E+99

> <Gold.Protein.RotatedTorsions>
[ 6907 6896 6895 6894 ] final    2.42 input  -60.11 | X-H torsion
[ 7974 7965 7964 7962 ] final -122.01 input  175.53 | X-H torsion
[ 8008 7997 7996 7995 ] final   28.69 input   59.86 | X-H torsion
[ 10167 10162 10161 10158 ] final  125.45 input  -65.29 | X-H torsion
[ 10718 10713 10712 10709 ] final  171.06 input   66.30 | X-H torsion
[ 10763 10752 10751 10750 ] final  175.31 input  -60.55 | X-H torsion
[ 11005 11000 10999 10996 ] final   15.19 input  -57.11 | X-H torsion

> <Gold.Protein.ActiveResidues>
 VAL166  LYS551  ARG553  GLY616  TRP617  ASP618  TYR619  PRO620  LYS621  CYS622 
 ASP623  PHE694  ASN695  SER759  ASP760  ASP761  ALA762  ILE779  LEU786  VAL792 
 PHE793  MET794  SER795  GLU796  ALA797  LYS798  CYS799  TRP800  GLU811  SER814 

> <Gold.Protein.RotatedAtoms>
  151.6086  135.1042  160.0075 H   0  0  0  0  0  0  0  0  0  0  0  0  # atno 6907 bound_to 6896
  152.4220  133.7128  159.6499 H   0  0  0  0  0  0  0  0  0  0  0  0  # atno 6908 bound_to 6896
  150.8108  133.8353  159.3205 H   0  0  0  0  0  0  0  0  0  0  0  0  # atno 6909 bound_to 6896
  145.0340  140.8091  143.4306 H   0  0  0  0  0  0  0  0  0  0  0  0  # atno 7974 bound_to 7965
  155.0627  140.3192  155.4655 H   0  0  0  0  0  0  0  0  0  0  0  0  # atno 8008 bound_to 7997
  156.2809  140.2126  156.5698 H   0  0  0  0  0  0  0  0  0  0  0  0  # atno 8009 bound_to 7997
  154.7119  140.0497  157.0546 H   0  0  0  0  0  0  0  0  0  0  0  0  # atno 8010 bound_to 7997
  139.5685  144.6925  151.3844 H   0  0  0  0  0  0  0  0  0  0  0  0  # atno 10167 bound_to 10162
  156.9991  131.0170  151.2835 H   0  0  0  0  0  0  0  0  0  0  0  0  # atno 10718 bound_to 10713
  154.4659  135.2769  155.1678 H   0  0  0  0  0  0  0  0  0  0  0  0  # atno 10763 bound_to 10752
  154.3447  135.6162  153.5617 H   0  0  0  0  0  0  0  0  0  0  0  0  # atno 10764 bound_to 10752
  152.9859  135.5797  154.5031 H   0  0  0  0  0  0  0  0  0  0  0  0  # atno 10765 bound_to 10752
  140.4611  134.1127  155.7716 H   0  0  0  0  0  0  0  0  0  0  0  0  # atno 11005 bound_to 11000
  145.1733  139.2392  143.5330 LP  0  0  0  0  0  0  0  0  0  0  0  0  # atno 17320 bound_to 7965
  146.3502  140.1489  142.8593 LP  0  0  0  0  0  0  0  0  0  0  0  0  # atno 17321 bound_to 7965
  140.6969  143.7728  150.7340 LP  0  0  0  0  0  0  0  0  0  0  0  0  # atno 17342 bound_to 10162
  140.1226  143.4598  152.2303 LP  0  0  0  0  0  0  0  0  0  0  0  0  # atno 17343 bound_to 10162
  157.5403  130.8115  149.8021 LP  0  0  0  0  0  0  0  0  0  0  0  0  # atno 17370 bound_to 10713
  156.0178  130.3807  150.2056 LP  0  0  0  0  0  0  0  0  0  0  0  0  # atno 17371 bound_to 10713
  141.1621  133.8773  157.1819 LP  0  0  0  0  0  0  0  0  0  0  0  0  # atno 17394 bound_to 11000
  139.9945  135.0052  157.0051 LP  0  0  0  0  0  0  0  0  0  0  0  0  # atno 17395 bound_to 11000

$$$$
