AV-unprocessed.smi:1920|AV-procd|sdf|7782|dock10
  -GOLD-   22720 9523D 1   1.00000     0.00000
 Structure written by MMmdl.
 36 37  0  0  0  0  0  0  0  0  1 V2000
  154.0776  137.8467  158.5008 C   0  0  0  0  0  0  0  0  0  0  0  0
  153.2152  138.9738  157.9116 C   0  0  1  0  0  0  0  0  0  0  0  0
  151.8112  138.4678  157.5297 C   0  0  0  0  0  0  0  0  0  0  0  0
  151.0888  139.4178  156.7037 N   0  0  0  0  0  0  0  0  0  0  0  0
  150.5967  140.6578  157.0889 C   0  0  0  0  0  0  0  0  0  0  0  0
  149.9847  141.1993  155.9810 C   0  0  0  0  0  0  0  0  0  0  0  0
  150.0900  140.3164  154.9088 N   0  0  0  0  0  0  0  0  0  0  0  0
  150.7570  139.2858  155.4120 C   0  0  0  0  0  0  0  0  0  0  0  0
  153.1102  140.0709  158.8713 N   0  0  0  0  0  0  0  0  0  0  0  0
  154.1433  140.7516  159.3903 C   0  0  0  0  0  0  0  0  0  0  0  0
  155.3181  140.5261  159.0995 O   0  0  0  0  0  0  0  0  0  0  0  0
  153.7978  141.8545  160.3961 C   0  0  0  0  0  0  0  0  0  0  0  0
  152.3462  142.3658  160.2692 C   0  0  2  0  0  0  0  0  0  0  0  0
  152.1134  143.2458  159.0641 C   0  0  0  0  0  0  0  0  0  0  0  0
  151.5370  144.4037  159.3778 C   0  0  0  0  0  0  0  0  0  0  0  0
  151.2685  144.5317  160.8515 C   0  0  0  0  0  0  0  0  0  0  0  0
  151.9065  143.2611  161.4558 C   0  0  0  0  0  0  0  0  0  0  0  0
  154.1872  137.0260  157.7914 H   0  0  0  0  0  0  0  0  0  0  0  0
  153.6348  137.4428  159.4117 H   0  0  0  0  0  0  0  0  0  0  0  0
  155.0791  138.2012  158.7465 H   0  0  0  0  0  0  0  0  0  0  0  0
  153.7028  139.3338  157.0035 H   0  0  0  0  0  0  0  0  0  0  0  0
  151.8873  137.5326  156.9734 H   0  0  0  0  0  0  0  0  0  0  0  0
  151.2214  138.2531  158.4224 H   0  0  0  0  0  0  0  0  0  0  0  0
  150.7168  141.0400  158.0919 H   0  0  0  0  0  0  0  0  0  0  0  0
  149.4815  142.1490  155.8742 H   0  0  0  0  0  0  0  0  0  0  0  0
  151.0072  138.4121  154.8281 H   0  0  0  0  0  0  0  0  0  0  0  0
  152.1800  140.3281  159.1683 H   0  0  0  0  0  0  0  0  0  0  0  0
  153.9588  141.4572  161.3989 H   0  0  0  0  0  0  0  0  0  0  0  0
  154.4937  142.6872  160.2804 H   0  0  0  0  0  0  0  0  0  0  0  0
  151.6634  141.5186  160.1879 H   0  0  0  0  0  0  0  0  0  0  0  0
  152.3777  142.9383  158.0627 H   0  0  0  0  0  0  0  0  0  0  0  0
  151.2659  145.1757  158.6729 H   0  0  0  0  0  0  0  0  0  0  0  0
  151.7174  145.4419  161.2501 H   0  0  0  0  0  0  0  0  0  0  0  0
  150.1932  144.5656  161.0279 H   0  0  0  0  0  0  0  0  0  0  0  0
  151.2102  142.7384  162.1124 H   0  0  0  0  0  0  0  0  0  0  0  0
  152.7660  143.5428  162.0655 H   0  0  0  0  0  0  0  0  0  0  0  0
  1  2  1  0  0  0  0
  1 18  1  0  0  0  0
  1 19  1  0  0  0  0
  1 20  1  0  0  0  0
  2  3  1  0  0  0  0
  2  9  1  0  0  0  0
  2 21  1  0  0  0  0
  3  4  1  0  0  0  0
  3 22  1  0  0  0  0
  3 23  1  0  0  0  0
  4  8  1  0  0  0  0
  4  5  1  0  0  0  0
  5  6  2  0  0  0  0
  5 24  1  0  0  0  0
  6  7  1  0  0  0  0
  6 25  1  0  0  0  0
  7  8  2  0  0  0  0
  8 26  1  0  0  0  0
  9 10  1  0  0  0  0
  9 27  1  0  0  0  0
 10 11  2  0  0  0  0
 10 12  1  0  0  0  0
 12 13  1  0  0  0  0
 12 28  1  0  0  0  0
 12 29  1  0  0  0  0
 13 17  1  0  0  0  0
 13 14  1  0  0  0  0
 13 30  1  0  0  0  0
 14 15  2  0  0  0  0
 14 31  1  0  0  0  0
 15 16  1  0  0  0  0
 15 32  1  0  0  0  0
 16 17  1  0  0  0  0
 16 33  1  0  0  0  0
 16 34  1  0  0  0  0
 17 35  1  0  0  0  0
 17 36  1  0  0  0  0
M  END
> <s_m_source_file>
AV-unprocessed.smi

> <i_m_source_file_index>
1920

> <i_lp_mmshare_version>
43012

> <i_f3d_flags>
0

> <s_epik_input>
W2NIXTFuW2NIXVtjSF1uMVtDSDJdW0NAQEhdKFtDSDNdKVtOSF1DKD1PKVtDSDJdW0NAQEhdMltDSF09W0NIXVtDSDJdW0NIMl0y

> <s_epik_cmdline>
J2VwaWtfcHl0aG9uJywgJy1waCcsICc3LjAnLCAnLXRuJywgJzgnLCAnLW1hJywgJzIwMCcsICctbWV0YWxfYmluZGluZycsICctaW1hZScsICc8aW5maWxlLm1hZT4nLCAnLW9tYWUnLCAnPG91dGZpbGUubWFlPic=

> <r_lp_tautomer_probability>
1

> <r_epik_Ionization_Penalty>
0.635367

> <r_epik_Ionization_Penalty_Charging>
0.635367

> <r_epik_Ionization_Penalty_Neutral>
2.1249e-08

> <r_epik_State_Penalty>
0.65258

> <r_epik_Charging_Adjusted_Penalty>
1.28795

> <i_epik_Tot_Q>
0

> <i_epik_Tot_abs_Q>
0

> <r_epik_Metal_State_Penalty>
0.310403

> <b_epik_Metal_Only>
0

> <s_lp_Force_Field>
OPLS_2005

> <r_lp_Energy>
19.6981

> <b_lp_Chiralities_Consistent>
1

> <s_lp_Variant>
AV-unprocessed.smi:1920-6

> <Gold.Version>
5.8.1

> <Gold.Id.Protein>
6NUR|6NUR_protein|mol2

> <Gold.PLP.Fitness>
48.7111

> <Gold.PLP.PLP>
-40.7814

> <Gold.PLP.part.hbond>
-2.0000

> <Gold.PLP.part.metal>
0.0000

> <Gold.PLP.part.buried>
-3.9337

> <Gold.PLP.part.nonpolar>
-34.2850

> <Gold.PLP.part.repulsive>
0.2010

> <Gold.PLP.ligand.clash>
0.0000

> <Gold.PLP.ligand.torsion>
0.5383

> <Gold.PLP.Chemscore.Hbond>
1.9920

> <Gold.PLP.Chemscore.CHOScore>
1.0000

> <Gold.PLP.Chemscore.Metal>
0.0000

> <Gold.Chemscore.Hbonds>
donor molecule, donor type, donor heavy atom, donor atom, acceptor molecule, acceptor atom, score
      P1  H  7989  7998       L1     7  0.55
      P1  H  7997  8009       L1    11  0.72
      L1  C     6    25       P1  8028  0.71

> <Gold.PLP.Chemscore.Internal.Correction>
0.0303

> <Gold.Rescore>
     Score         DG    S(hbond)    S(metal)    S(lipo)     H(rot)  DE(clash)    DE(int)     intcor
     12.97     -14.59       0.81        0.00      97.04       1.93       0.01       1.61       ----

> <Gold.Chemscore.Fitness>
12.9713

> <Gold.Chemscore.DG>
-14.5911

> <Gold.Chemscore.ZeroCoef>
-5.4800

> <Gold.Chemscore.Hbond>
0.8084

> <Gold.Chemscore.Metal>
0.0000

> <Gold.Chemscore.Lipo>
97.0378

> <Gold.Chemscore.Internal_Hbond>
0.0000

> <Gold.Chemscore.DEClash>
0.0093

> <Gold.Chemscore.DEInternal>
1.6105

> <Gold.Chemscore.Rot>
1.9306

> <Gold.Chemscore.Internal.Correction>
   9.000000E+99

> <Gold.Chemscore.Hbonds>
donor molecule, donor type, donor heavy atom, donor atom, acceptor molecule, acceptor atom, score
      P1  H  7989  7998       L1     7  0.07
      P1  H  7997  8009       L1    11  0.32

> <Gold.Chemscore.Hbond.Weighted>
-2.7001

> <Gold.Chemscore.Metal.Weighted>
-0.0000

> <Gold.Chemscore.Lipo.Weighted>
-11.3534

> <Gold.Chemscore.Internal_Hbond.Weighted>
0.0000

> <Gold.Chemscore.DEClash.Weighted>
0.0093

> <Gold.Chemscore.DEInternal.Weighted>
1.6105

> <Gold.Chemscore.Rot.Weighted>
4.9424

> <Gold.Chemscore.Internal.Correction.Weighted>
   9.000000E+99

> <Gold.Protein.RotatedTorsions>
[ 6907 6896 6895 6894 ] final   22.95 input  -60.11 | X-H torsion
[ 7974 7965 7964 7962 ] final  137.03 input  175.53 | X-H torsion
[ 8008 7997 7996 7995 ] final  112.60 input   59.86 | X-H torsion
[ 10167 10162 10161 10158 ] final  177.59 input  -65.29 | X-H torsion
[ 10718 10713 10712 10709 ] final  -51.03 input   66.30 | X-H torsion
[ 10763 10752 10751 10750 ] final  -92.63 input  -60.55 | X-H torsion
[ 11005 11000 10999 10996 ] final  -97.98 input  -57.11 | X-H torsion

> <Gold.Protein.ActiveResidues>
 VAL166  LYS551  ARG553  GLY616  TRP617  ASP618  TYR619  PRO620  LYS621  CYS622 
 ASP623  PHE694  ASN695  SER759  ASP760  ASP761  ALA762  ILE779  LEU786  VAL792 
 PHE793  MET794  SER795  GLU796  ALA797  LYS798  CYS799  TRP800  GLU811  SER814 

> <Gold.Protein.RotatedAtoms>
  151.9349  135.0240  160.0531 H   0  0  0  0  0  0  0  0  0  0  0  0  # atno 6907 bound_to 6896
  152.2087  133.4890  159.5106 H   0  0  0  0  0  0  0  0  0  0  0  0  # atno 6908 bound_to 6896
  150.6971  134.1413  159.4148 H   0  0  0  0  0  0  0  0  0  0  0  0  # atno 6909 bound_to 6896
  144.9507  139.4822  143.5527 H   0  0  0  0  0  0  0  0  0  0  0  0  # atno 7974 bound_to 7965
  156.2203  140.2996  155.9937 H   0  0  0  0  0  0  0  0  0  0  0  0  # atno 8008 bound_to 7997
  155.2498  140.0425  157.3002 H   0  0  0  0  0  0  0  0  0  0  0  0  # atno 8009 bound_to 7997
  154.5831  140.2380  155.8034 H   0  0  0  0  0  0  0  0  0  0  0  0  # atno 8010 bound_to 7997
  139.5259  144.2780  152.0571 H   0  0  0  0  0  0  0  0  0  0  0  0  # atno 10167 bound_to 10162
  156.1746  130.4149  149.9596 H   0  0  0  0  0  0  0  0  0  0  0  0  # atno 10718 bound_to 10713
  154.6880  135.5224  153.8353 H   0  0  0  0  0  0  0  0  0  0  0  0  # atno 10763 bound_to 10752
  153.0612  135.6569  154.0469 H   0  0  0  0  0  0  0  0  0  0  0  0  # atno 10764 bound_to 10752
  154.0347  135.2982  155.3343 H   0  0  0  0  0  0  0  0  0  0  0  0  # atno 10765 bound_to 10752
  141.1361  133.8211  157.0778 H   0  0  0  0  0  0  0  0  0  0  0  0  # atno 11005 bound_to 11000
  146.3320  139.8590  142.8859 LP  0  0  0  0  0  0  0  0  0  0  0  0  # atno 17320 bound_to 7965
  145.2848  141.0150  143.3696 LP  0  0  0  0  0  0  0  0  0  0  0  0  # atno 17321 bound_to 7965
  140.2236  144.4440  150.6331 LP  0  0  0  0  0  0  0  0  0  0  0  0  # atno 17342 bound_to 10162
  140.6402  143.2202  151.6307 LP  0  0  0  0  0  0  0  0  0  0  0  0  # atno 17343 bound_to 10162
  156.7385  130.9070  151.3630 LP  0  0  0  0  0  0  0  0  0  0  0  0  # atno 17370 bound_to 10713
  157.6827  130.9155  150.0307 LP  0  0  0  0  0  0  0  0  0  0  0  0  # atno 17371 bound_to 10713
  140.0471  134.9825  157.1068 LP  0  0  0  0  0  0  0  0  0  0  0  0  # atno 17394 bound_to 11000
  140.4047  134.2045  155.7163 LP  0  0  0  0  0  0  0  0  0  0  0  0  # atno 17395 bound_to 11000

$$$$
