AV-unprocessed.smi:35|AV-procd|sdf|257|dock5
  -GOLD-   2262016 23D 1   1.00000     0.00000
 Structure written by MMmdl.
 29 30  0  0  0  0  0  0  0  0  1 V2000
  151.8223  137.1491  159.9089 O   0  0  0  0  0  0  0  0  0  0  0  0
  151.4712  137.6920  158.8637 C   0  0  0  0  0  0  0  0  0  0  0  0
  152.4236  138.2335  157.9947 N   0  0  0  0  0  0  0  0  0  0  0  0
  152.1478  138.8734  156.7842 C   0  0  0  0  0  0  0  0  0  0  0  0
  153.0713  139.2995  156.0920 O   0  0  0  0  0  0  0  0  0  0  0  0
  150.7894  138.9857  156.4114 N   0  0  0  0  0  0  0  0  0  0  0  0
  150.4068  139.6831  155.1236 C   0  0  2  0  0  0  0  0  0  0  0  0
  149.4510  140.6481  155.4338 O   0  0  0  0  0  0  0  0  0  0  0  0
  148.4739  140.6906  154.4061 C   0  0  2  0  0  0  0  0  0  0  0  0
  147.1735  141.2818  154.9730 C   0  0  0  0  0  0  0  0  0  0  0  0
  147.0650  142.6500  154.6442 O   0  0  0  0  0  0  0  0  0  0  0  0
  148.3725  139.2340  153.9370 C   0  0  1  0  0  0  0  0  0  0  0  0
  147.9433  139.1723  152.5909 O   0  0  0  0  0  0  0  0  0  0  0  0
  149.8051  138.7280  154.0660 C   0  0  2  0  0  0  0  0  0  0  0  0
  149.8245  137.3584  154.4288 O   0  0  0  0  0  0  0  0  0  0  0  0
  149.8088  138.4574  157.2398 C   0  0  0  0  0  0  0  0  0  0  0  0
  150.0929  137.8371  158.4084 C   0  0  0  0  0  0  0  0  0  0  0  0
  148.5505  137.1479  159.4428 Br  0  0  0  0  0  0  0  0  0  0  0  0
  153.3933  138.1525  158.2646 H   0  0  0  0  0  0  0  0  0  0  0  0
  151.2903  140.2051  154.7535 H   0  0  0  0  0  0  0  0  0  0  0  0
  148.8708  141.3244  153.6101 H   0  0  0  0  0  0  0  0  0  0  0  0
  146.3018  140.7417  154.6021 H   0  0  0  0  0  0  0  0  0  0  0  0
  147.1672  141.1947  156.0597 H   0  0  0  0  0  0  0  0  0  0  0  0
  147.7821  143.1145  155.0480 H   0  0  0  0  0  0  0  0  0  0  0  0
  147.6987  138.6704  154.5846 H   0  0  0  0  0  0  0  0  0  0  0  0
  148.6168  139.5429  152.0417 H   0  0  0  0  0  0  0  0  0  0  0  0
  150.3616  138.8694  153.1381 H   0  0  0  0  0  0  0  0  0  0  0  0
  149.5649  136.8466  153.6778 H   0  0  0  0  0  0  0  0  0  0  0  0
  148.7734  138.5356  156.9399 H   0  0  0  0  0  0  0  0  0  0  0  0
  1  2  2  0  0  0  0
  2 17  1  0  0  0  0
  2  3  1  0  0  0  0
  3 19  1  0  0  0  0
  3  4  1  0  0  0  0
  4  5  2  0  0  0  0
  4  6  1  0  0  0  0
  6  7  1  0  0  0  0
  6 16  1  0  0  0  0
  7 14  1  0  0  0  0
  7  8  1  0  0  0  0
  7 20  1  0  0  0  0
  8  9  1  0  0  0  0
  9 10  1  0  0  0  0
  9 12  1  0  0  0  0
  9 21  1  0  0  0  0
 10 11  1  0  0  0  0
 10 22  1  0  0  0  0
 10 23  1  0  0  0  0
 11 24  1  0  0  0  0
 12 13  1  0  0  0  0
 12 14  1  0  0  0  0
 12 25  1  0  0  0  0
 13 26  1  0  0  0  0
 14 15  1  0  0  0  0
 14 27  1  0  0  0  0
 15 28  1  0  0  0  0
 16 17  2  0  0  0  0
 16 29  1  0  0  0  0
 17 18  1  0  0  0  0
M  END
> <s_m_source_file>
AV-unprocessed.smi

> <i_m_source_file_index>
35

> <i_lp_mmshare_version>
43012

> <i_f3d_flags>
0

> <s_epik_input>
Tz1jMVtuSF1jKD1PKW4oW2NIXWMxQnIpW0NAQEhdMk9bQ0BASF0oW0NIMl1bT0hdKVtDQEBIXShbT0hdKVtDQEhdMltPSF0=

> <s_epik_cmdline>
J2VwaWtfcHl0aG9uJywgJy1waCcsICc3LjAnLCAnLXRuJywgJzgnLCAnLW1hJywgJzIwMCcsICctbWV0YWxfYmluZGluZycsICctaW1hZScsICc8aW5maWxlLm1hZT4nLCAnLW9tYWUnLCAnPG91dGZpbGUubWFlPic=

> <r_lp_tautomer_probability>
0.999537

> <r_epik_Ionization_Penalty>
0.10812

> <r_epik_Ionization_Penalty_Charging>
0.108119

> <r_epik_Ionization_Penalty_Neutral>
4.93006e-07

> <r_epik_State_Penalty>
0.0979238

> <r_epik_Charging_Adjusted_Penalty>
0.206043

> <i_epik_Tot_Q>
0

> <i_epik_Tot_abs_Q>
0

> <r_epik_Metal_State_Penalty>
3.07911

> <b_epik_Metal_Only>
0

> <s_epik_Chemistry_Notes>
This compound contains an acetal/aminal-like group ( X-CH(R)-Y where X, Y are N, S, or O) that may be acid/base labile, releasing an aldehyde.

> <s_lp_Force_Field>
OPLS_2005

> <r_lp_Energy>
32.3775

> <b_lp_Chiralities_Consistent>
1

> <s_lp_Variant>
AV-unprocessed.smi:35-11

> <Gold.Version>
5.8.1

> <Gold.Id.Protein>
6NUR|6NUR_protein|mol2

> <Gold.PLP.Fitness>
38.6505

> <Gold.PLP.PLP>
-24.7487

> <Gold.PLP.part.hbond>
-5.1270

> <Gold.PLP.part.metal>
0.0000

> <Gold.PLP.part.buried>
-4.7286

> <Gold.PLP.part.nonpolar>
-16.1160

> <Gold.PLP.part.repulsive>
0.1752

> <Gold.PLP.ligand.clash>
0.0000

> <Gold.PLP.ligand.torsion>
0.6172

> <Gold.PLP.Chemscore.Hbond>
4.9833

> <Gold.PLP.Chemscore.CHOScore>
0.0000

> <Gold.PLP.Chemscore.Metal>
0.0000

> <Gold.Chemscore.Hbonds>
donor molecule, donor type, donor heavy atom, donor atom, acceptor molecule, acceptor atom, score
      L1  H    11    24       P1  8028  1.00
      L1  H    13    26       P1  7957  0.68
      L1  H    15    28       P1  7948  1.00
      P1  H  6896  6909       L1     1  1.00
      P1  H  7997  8008       L1     5  1.00

> <Gold.PLP.Chemscore.Internal.Correction>
0.1864

> <Gold.Rescore>
     Score         DG    S(hbond)    S(metal)    S(lipo)     H(rot)  DE(clash)    DE(int)     intcor
     14.13     -15.78       4.68        0.00      34.61       3.67       0.02       1.63       ----

> <Gold.Chemscore.Fitness>
14.1347

> <Gold.Chemscore.DG>
-15.7802

> <Gold.Chemscore.ZeroCoef>
-5.4800

> <Gold.Chemscore.Hbond>
4.6844

> <Gold.Chemscore.Metal>
0.0000

> <Gold.Chemscore.Lipo>
34.6129

> <Gold.Chemscore.Internal_Hbond>
0.0000

> <Gold.Chemscore.DEClash>
0.0199

> <Gold.Chemscore.DEInternal>
1.6256

> <Gold.Chemscore.Rot>
3.6701

> <Gold.Chemscore.Internal.Correction>
   9.000000E+99

> <Gold.Chemscore.Hbonds>
donor molecule, donor type, donor heavy atom, donor atom, acceptor molecule, acceptor atom, score
      L1  H    11    24       P1  8028  0.66
      L1  H    13    26       P1  7957  0.67
      L1  H    15    28       P1  7948  0.80
      P1  H  6896  6909       L1     1  0.92
      P1  H  7997  8008       L1     5  0.93

> <Gold.Chemscore.Hbond.Weighted>
-15.6460

> <Gold.Chemscore.Metal.Weighted>
-0.0000

> <Gold.Chemscore.Lipo.Weighted>
-4.0497

> <Gold.Chemscore.Internal_Hbond.Weighted>
0.0000

> <Gold.Chemscore.DEClash.Weighted>
0.0199

> <Gold.Chemscore.DEInternal.Weighted>
1.6256

> <Gold.Chemscore.Rot.Weighted>
9.3955

> <Gold.Chemscore.Internal.Correction.Weighted>
   9.000000E+99

> <Gold.Protein.RotatedTorsions>
[ 6907 6896 6895 6894 ] final  133.02 input  -60.11 | X-H torsion
[ 7974 7965 7964 7962 ] final  -77.49 input  175.53 | X-H torsion
[ 8008 7997 7996 7995 ] final  -48.31 input   59.86 | X-H torsion
[ 10167 10162 10161 10158 ] final  102.51 input  -65.29 | X-H torsion
[ 10718 10713 10712 10709 ] final -168.73 input   66.30 | X-H torsion
[ 10763 10752 10751 10750 ] final  150.67 input  -60.55 | X-H torsion
[ 11005 11000 10999 10996 ] final  -14.51 input  -57.11 | X-H torsion

> <Gold.Protein.ActiveResidues>
 VAL166  LYS551  ARG553  GLY616  TRP617  ASP618  TYR619  PRO620  LYS621  CYS622 
 ASP623  PHE694  ASN695  SER759  ASP760  ASP761  ALA762  ILE779  LEU786  VAL792 
 PHE793  MET794  SER795  GLU796  ALA797  LYS798  CYS799  TRP800  GLU811  SER814 

> <Gold.Protein.RotatedAtoms>
  152.3264  133.5909  159.5779 H   0  0  0  0  0  0  0  0  0  0  0  0  # atno 6907 bound_to 6896
  150.7399  133.9934  159.3623 H   0  0  0  0  0  0  0  0  0  0  0  0  # atno 6908 bound_to 6896
  151.7814  135.0761  160.0425 H   0  0  0  0  0  0  0  0  0  0  0  0  # atno 6909 bound_to 6896
  145.5989  140.9413  143.1251 H   0  0  0  0  0  0  0  0  0  0  0  0  # atno 7974 bound_to 7965
  154.4027  140.1324  156.4318 H   0  0  0  0  0  0  0  0  0  0  0  0  # atno 8008 bound_to 7997
  155.7543  140.3487  155.5146 H   0  0  0  0  0  0  0  0  0  0  0  0  # atno 8009 bound_to 7997
  155.8919  140.1005  157.1402 H   0  0  0  0  0  0  0  0  0  0  0  0  # atno 8010 bound_to 7997
  139.7343  144.7028  151.0673 H   0  0  0  0  0  0  0  0  0  0  0  0  # atno 10167 bound_to 10162
  156.7013  130.9197  151.3080 H   0  0  0  0  0  0  0  0  0  0  0  0  # atno 10718 bound_to 10713
  154.0912  135.2852  155.3271 H   0  0  0  0  0  0  0  0  0  0  0  0  # atno 10763 bound_to 10752
  154.6618  135.5331  153.8031 H   0  0  0  0  0  0  0  0  0  0  0  0  # atno 10764 bound_to 10752
  153.0413  135.6536  154.1081 H   0  0  0  0  0  0  0  0  0  0  0  0  # atno 10765 bound_to 10752
  140.7871  133.8317  155.9345 H   0  0  0  0  0  0  0  0  0  0  0  0  # atno 11005 bound_to 11000
  144.7318  139.7702  143.7344 LP  0  0  0  0  0  0  0  0  0  0  0  0  # atno 17320 bound_to 7965
  146.1591  139.4699  143.0000 LP  0  0  0  0  0  0  0  0  0  0  0  0  # atno 17321 bound_to 7965
  140.7776  143.5003  150.9780 LP  0  0  0  0  0  0  0  0  0  0  0  0  # atno 17342 bound_to 10162
  139.8691  143.7215  152.3168 LP  0  0  0  0  0  0  0  0  0  0  0  0  # atno 17343 bound_to 10162
  157.6972  130.9294  150.0679 LP  0  0  0  0  0  0  0  0  0  0  0  0  # atno 17370 bound_to 10713
  156.1727  130.3647  149.9143 LP  0  0  0  0  0  0  0  0  0  0  0  0  # atno 17371 bound_to 10713
  140.9426  134.1882  157.4787 LP  0  0  0  0  0  0  0  0  0  0  0  0  # atno 17394 bound_to 11000
  139.8735  134.9877  156.5382 LP  0  0  0  0  0  0  0  0  0  0  0  0  # atno 17395 bound_to 11000

$$$$
