AV-unprocessed.smi:2505|AV-procd|sdf|9854|dock1
  -GOLD-   2272013483D 1   1.00000     0.00000
 Structure written by MMmdl.
 48 52  0  0  0  0  0  0  0  0  1 V2000
  147.7931  135.9358  156.0254 O   0  0  0  0  0  0  0  0  0  0  0  0
  148.2138  135.9989  154.8727 C   0  0  0  0  0  0  0  0  0  0  0  0
  149.0327  136.9590  154.4012 N   0  0  0  0  0  0  0  0  0  0  0  0
  149.5769  138.0797  155.0831 C   0  0  0  0  0  0  0  0  0  0  0  0
  149.5304  138.2898  156.4834 C   0  0  0  0  0  0  0  0  0  0  0  0
  150.0594  139.3947  157.0526 N   0  0  0  0  0  0  0  0  0  0  0  0
  150.6177  140.2908  156.2343 C   0  0  0  0  0  0  0  0  0  0  0  0
  151.2345  141.4944  156.8761 C   0  0  0  0  0  0  0  0  0  0  0  0
  151.3391  141.6014  158.3837 C   0  0  0  0  0  0  0  0  0  0  0  0
  150.3822  142.4889  157.6377 C   0  0  0  0  0  0  0  0  0  0  0  0
  150.7240  140.1981  154.9059 N   0  0  0  0  0  0  0  0  0  0  0  0
  150.1969  139.0975  154.3284 C   0  0  0  0  0  0  0  0  0  0  0  0
  147.8936  135.0628  153.9634 N   0  0  0  0  0  0  0  0  0  0  0  0
  147.0268  133.8888  154.1547 C   0  0  1  0  0  0  0  0  0  0  0  0
  146.0392  133.6416  153.0081 C   0  0  1  0  0  0  0  0  0  0  0  0
  145.4494  134.4611  151.9165 C   0  0  0  0  0  0  0  0  0  0  0  0
  145.5718  133.4041  150.7871 C   0  0  0  0  0  0  0  0  0  0  0  0
  146.3829  132.3320  151.3305 O   0  0  0  0  0  0  0  0  0  0  0  0
  147.1950  132.9681  152.2984 C   0  0  2  0  0  0  0  0  0  0  0  0
  147.6734  132.5234  153.7009 C   0  0  0  0  0  0  0  0  0  0  0  0
  149.1841  132.3474  153.8977 C   0  0  0  0  0  0  0  0  0  0  0  0
  149.4531  130.8589  154.0951 C   0  0  0  0  0  0  0  0  0  0  0  0
  148.2113  130.3629  154.8208 C   0  0  0  0  0  0  0  0  0  0  0  0
  147.0732  131.2160  154.2583 C   0  0  0  0  0  0  0  0  0  0  0  0
  149.3395  136.8436  153.4461 H   0  0  0  0  0  0  0  0  0  0  0  0
  149.0620  137.5985  157.1658 H   0  0  0  0  0  0  0  0  0  0  0  0
  152.0587  141.8822  156.2805 H   0  0  0  0  0  0  0  0  0  0  0  0
  150.9130  140.7977  158.9814 H   0  0  0  0  0  0  0  0  0  0  0  0
  152.2375  142.0595  158.7916 H   0  0  0  0  0  0  0  0  0  0  0  0
  150.6396  143.5421  157.5465 H   0  0  0  0  0  0  0  0  0  0  0  0
  149.3199  142.2755  157.7392 H   0  0  0  0  0  0  0  0  0  0  0  0
  150.2751  139.0284  153.2532 H   0  0  0  0  0  0  0  0  0  0  0  0
  148.3046  135.1630  153.0464 H   0  0  0  0  0  0  0  0  0  0  0  0
  146.5731  133.8345  155.1456 H   0  0  0  0  0  0  0  0  0  0  0  0
  145.2907  132.9216  153.3546 H   0  0  0  0  0  0  0  0  0  0  0  0
  144.4169  134.7508  152.1129 H   0  0  0  0  0  0  0  0  0  0  0  0
  146.0388  135.3538  151.7037 H   0  0  0  0  0  0  0  0  0  0  0  0
  144.5997  133.0110  150.4891 H   0  0  0  0  0  0  0  0  0  0  0  0
  146.0495  133.8327  149.9052 H   0  0  0  0  0  0  0  0  0  0  0  0
  147.8919  133.6601  151.8147 H   0  0  0  0  0  0  0  0  0  0  0  0
  149.7629  132.7424  153.0621 H   0  0  0  0  0  0  0  0  0  0  0  0
  149.5087  132.8868  154.7885 H   0  0  0  0  0  0  0  0  0  0  0  0
  149.5327  130.3676  153.1246 H   0  0  0  0  0  0  0  0  0  0  0  0
  150.3726  130.6643  154.6478 H   0  0  0  0  0  0  0  0  0  0  0  0
  148.0433  129.2941  154.6852 H   0  0  0  0  0  0  0  0  0  0  0  0
  148.3154  130.5506  155.8903 H   0  0  0  0  0  0  0  0  0  0  0  0
  146.3207  131.4006  155.0255 H   0  0  0  0  0  0  0  0  0  0  0  0
  146.5745  130.6618  153.4622 H   0  0  0  0  0  0  0  0  0  0  0  0
  1  2  2  0  0  0  0
  2  3  1  0  0  0  0
  2 13  1  0  0  0  0
  3  4  1  0  0  0  0
  3 25  1  0  0  0  0
  4 12  1  0  0  0  0
  4  5  2  0  0  0  0
  5  6  1  0  0  0  0
  5 26  1  0  0  0  0
  6  7  2  0  0  0  0
  7  8  1  0  0  0  0
  7 11  1  0  0  0  0
  8 10  1  0  0  0  0
  8  9  1  0  0  0  0
  8 27  1  0  0  0  0
  9 10  1  0  0  0  0
  9 28  1  0  0  0  0
  9 29  1  0  0  0  0
 10 30  1  0  0  0  0
 10 31  1  0  0  0  0
 11 12  2  0  0  0  0
 12 32  1  0  0  0  0
 13 14  1  0  0  0  0
 13 33  1  0  0  0  0
 14 20  1  0  0  0  0
 14 15  1  0  0  0  0
 14 34  1  0  0  0  0
 15 19  1  0  0  0  0
 15 16  1  0  0  0  0
 15 35  1  0  0  0  0
 16 17  1  0  0  0  0
 16 36  1  0  0  0  0
 16 37  1  0  0  0  0
 17 18  1  0  0  0  0
 17 38  1  0  0  0  0
 17 39  1  0  0  0  0
 18 19  1  0  0  0  0
 19 20  1  0  0  0  0
 19 40  1  0  0  0  0
 20 24  1  0  0  0  0
 20 21  1  0  0  0  0
 21 22  1  0  0  0  0
 21 41  1  0  0  0  0
 21 42  1  0  0  0  0
 22 23  1  0  0  0  0
 22 43  1  0  0  0  0
 22 44  1  0  0  0  0
 23 24  1  0  0  0  0
 23 45  1  0  0  0  0
 23 46  1  0  0  0  0
 24 47  1  0  0  0  0
 24 48  1  0  0  0  0
M  END
> <s_m_source_file>
AV-unprocessed.smi

> <i_m_source_file_index>
2505

> <i_lp_mmshare_version>
43012

> <i_f3d_flags>
0

> <s_epik_input>
W0NIMl0xW0NIMl1bQ0hdMWMobltjSF0yKW5bY0hdYzJbTkhdQyg9TylbTkhdW0NAQEhdM1tDQEBIXShbQ0gyXVtDSDJdTzQpW0NASF00QzM1W0NIMl1bQ0gyXVtDSDJdW0NIMl01

> <s_epik_cmdline>
J2VwaWtfcHl0aG9uJywgJy1waCcsICc3LjAnLCAnLXRuJywgJzgnLCAnLW1hJywgJzIwMCcsICctbWV0YWxfYmluZGluZycsICctaW1hZScsICc8aW5maWxlLm1hZT4nLCAnLW9tYWUnLCAnPG91dGZpbGUubWFlPic=

> <r_lp_tautomer_probability>
1

> <r_epik_Ionization_Penalty>
2.6075e-05

> <r_epik_Ionization_Penalty_Charging>
0

> <r_epik_Ionization_Penalty_Neutral>
2.6075e-05

> <r_epik_State_Penalty>
-0

> <r_epik_Charging_Adjusted_Penalty>
0

> <i_epik_Tot_Q>
0

> <i_epik_Tot_abs_Q>
0

> <r_epik_Metal_State_Penalty>
-0

> <b_epik_Metal_Only>
0

> <s_lp_Force_Field>
OPLS_2005

> <r_lp_Energy>
88.0192

> <b_lp_Chiralities_Consistent>
1

> <s_lp_Variant>
AV-unprocessed.smi:2505-2

> <Gold.Version>
5.8.1

> <Gold.Id.Protein>
6NUR|6NUR_protein|mol2

> <Gold.PLP.Fitness>
44.2411

> <Gold.PLP.PLP>
-32.4170

> <Gold.PLP.part.hbond>
-3.0000

> <Gold.PLP.part.metal>
0.0000

> <Gold.PLP.part.buried>
-5.7702

> <Gold.PLP.part.nonpolar>
-24.9086

> <Gold.PLP.part.repulsive>
0.2328

> <Gold.PLP.ligand.clash>
0.0000

> <Gold.PLP.ligand.torsion>
0.2352

> <Gold.PLP.Chemscore.Hbond>
2.9680

> <Gold.PLP.Chemscore.CHOScore>
1.0000

> <Gold.PLP.Chemscore.Metal>
0.0000

> <Gold.Chemscore.Hbonds>
donor molecule, donor type, donor heavy atom, donor atom, acceptor molecule, acceptor atom, score
      L1  H     3    25       P1  7948  0.96
      L1  H    13    33       P1  7948  0.98
      P1  H  7989  7998       L1    11  1.00
      L1  C    12    32       P1  7957  1.00

> <Gold.PLP.Chemscore.Internal.Correction>
0.3904

> <Gold.Rescore>
     Score         DG    S(hbond)    S(metal)    S(lipo)     H(rot)  DE(clash)    DE(int)     intcor
     18.91     -20.36       2.66        0.00      76.93       1.17       0.04       1.41       ----

> <Gold.Chemscore.Fitness>
18.9116

> <Gold.Chemscore.DG>
-20.3633

> <Gold.Chemscore.ZeroCoef>
-5.4800

> <Gold.Chemscore.Hbond>
2.6614

> <Gold.Chemscore.Metal>
0.0000

> <Gold.Chemscore.Lipo>
76.9280

> <Gold.Chemscore.Internal_Hbond>
0.0000

> <Gold.Chemscore.DEClash>
0.0445

> <Gold.Chemscore.DEInternal>
1.4072

> <Gold.Chemscore.Rot>
1.1744

> <Gold.Chemscore.Internal.Correction>
   9.000000E+99

> <Gold.Chemscore.Hbonds>
donor molecule, donor type, donor heavy atom, donor atom, acceptor molecule, acceptor atom, score
      L1  H     3    25       P1  7948  0.87
      L1  H    13    33       P1  7948  0.88
      P1  H  7989  7998       L1    11  0.26

> <Gold.Chemscore.Hbond.Weighted>
-8.8891

> <Gold.Chemscore.Metal.Weighted>
-0.0000

> <Gold.Chemscore.Lipo.Weighted>
-9.0006

> <Gold.Chemscore.Internal_Hbond.Weighted>
0.0000

> <Gold.Chemscore.DEClash.Weighted>
0.0445

> <Gold.Chemscore.DEInternal.Weighted>
1.4072

> <Gold.Chemscore.Rot.Weighted>
3.0064

> <Gold.Chemscore.Internal.Correction.Weighted>
   9.000000E+99

> <Gold.Protein.RotatedTorsions>
[ 6907 6896 6895 6894 ] final  140.16 input  -60.11 | X-H torsion
[ 7974 7965 7964 7962 ] final   71.83 input  175.53 | X-H torsion
[ 8008 7997 7996 7995 ] final   72.10 input   59.86 | X-H torsion
[ 10167 10162 10161 10158 ] final  -74.76 input  -65.29 | X-H torsion
[ 10718 10713 10712 10709 ] final  -65.71 input   66.30 | X-H torsion
[ 10763 10752 10751 10750 ] final   33.02 input  -60.55 | X-H torsion
[ 11005 11000 10999 10996 ] final   56.18 input  -57.11 | X-H torsion

> <Gold.Protein.ActiveResidues>
 VAL166  LYS551  ARG553  GLY616  TRP617  ASP618  TYR619  PRO620  LYS621  CYS622 
 ASP623  PHE694  ASN695  SER759  ASP760  ASP761  ALA762  ILE779  LEU786  VAL792 
 PHE793  MET794  SER795  GLU796  ALA797  LYS798  CYS799  TRP800  GLU811  SER814 

> <Gold.Protein.RotatedAtoms>
  152.2464  133.5178  159.5299 H   0  0  0  0  0  0  0  0  0  0  0  0  # atno 6907 bound_to 6896
  150.7080  134.1020  159.3978 H   0  0  0  0  0  0  0  0  0  0  0  0  # atno 6908 bound_to 6896
  151.8940  135.0405  160.0551 H   0  0  0  0  0  0  0  0  0  0  0  0  # atno 6909 bound_to 6896
  145.7609  139.2800  143.1377 H   0  0  0  0  0  0  0  0  0  0  0  0  # atno 7974 bound_to 7965
  155.7638  140.3486  155.5211 H   0  0  0  0  0  0  0  0  0  0  0  0  # atno 8008 bound_to 7997
  155.8888  140.1014  157.1454 H   0  0  0  0  0  0  0  0  0  0  0  0  # atno 8009 bound_to 7997
  154.4031  140.1308  156.4277 H   0  0  0  0  0  0  0  0  0  0  0  0  # atno 8010 bound_to 7997
  140.5000  143.2363  151.7768 H   0  0  0  0  0  0  0  0  0  0  0  0  # atno 10167 bound_to 10162
  156.0653  130.4251  150.1604 H   0  0  0  0  0  0  0  0  0  0  0  0  # atno 10718 bound_to 10713
  153.0232  135.6398  154.1447 H   0  0  0  0  0  0  0  0  0  0  0  0  # atno 10763 bound_to 10752
  154.1179  135.2848  155.3217 H   0  0  0  0  0  0  0  0  0  0  0  0  # atno 10764 bound_to 10752
  154.6285  135.5501  153.7716 H   0  0  0  0  0  0  0  0  0  0  0  0  # atno 10765 bound_to 10752
  140.0549  134.5684  155.9219 H   0  0  0  0  0  0  0  0  0  0  0  0  # atno 11005 bound_to 11000
  146.0265  140.8299  142.9897 LP  0  0  0  0  0  0  0  0  0  0  0  0  # atno 17320 bound_to 7965
  144.6830  140.2705  143.7306 LP  0  0  0  0  0  0  0  0  0  0  0  0  # atno 17321 bound_to 7965
  139.4870  144.4535  151.9626 LP  0  0  0  0  0  0  0  0  0  0  0  0  # atno 17342 bound_to 10162
  140.3624  144.2957  150.5931 LP  0  0  0  0  0  0  0  0  0  0  0  0  # atno 17343 bound_to 10162
  156.9665  130.9821  151.3468 LP  0  0  0  0  0  0  0  0  0  0  0  0  # atno 17370 bound_to 10713
  157.5691  130.8298  149.8367 LP  0  0  0  0  0  0  0  0  0  0  0  0  # atno 17371 bound_to 10713
  141.1947  133.6584  156.5609 LP  0  0  0  0  0  0  0  0  0  0  0  0  # atno 17394 bound_to 11000
  140.3860  134.7482  157.4691 LP  0  0  0  0  0  0  0  0  0  0  0  0  # atno 17395 bound_to 11000

$$$$
