AV-unprocessed.smi:3141|AV-procd|sdf|11964|dock3
  -GOLD-   2272017363D 1   1.00000     0.00000
 Structure written by MMmdl.
 36 38  0  0  0  0  0  0  0  0  2 V2000
  147.2278  131.7143  153.2014 O   0  0  0  0  0  0  0  0  0  0  0  0
  147.2683  132.9045  152.8894 C   0  0  0  0  0  0  0  0  0  0  0  0
  148.3509  133.6820  153.0176 N   0  0  0  0  0  0  0  0  0  0  0  0
  149.6126  133.2631  153.5358 C   0  0  0  0  0  0  0  0  0  0  0  0
  149.6256  132.5988  154.8955 C   0  0  0  0  0  0  0  0  0  0  0  0
  150.1558  133.9976  154.7422 C   0  0  0  0  0  0  0  0  0  0  0  0
  146.2246  133.5858  152.3953 N   0  0  0  0  0  0  0  0  0  0  0  0
  144.9019  133.0272  152.1058 C   0  0  2  0  0  0  0  0  0  0  0  0
  145.0078  132.0387  150.9268 C   0  0  0  0  0  0  0  0  0  0  0  0
  144.3459  132.7098  149.7107 C   0  0  0  0  0  0  0  0  0  0  0  0
  144.1031  134.1661  150.1103 C   0  0  0  0  0  0  0  0  0  0  0  0
  143.8839  134.0827  151.6242 C   0  0  2  0  0  0  0  0  0  0  0  0
  143.8884  135.3625  152.3585 N   0  0  0  0  0  0  0  0  0  0  0  0
  143.7328  135.5104  153.7137 C   0  0  0  0  0  0  0  0  0  0  0  0
  143.8469  136.8494  153.9825 C   0  0  0  0  0  0  0  0  0  0  0  0
  144.0767  137.4655  152.7829 N   0  3  0  0  0  0  0  0  0  0  0  0
  144.1080  136.5621  151.7981 C   0  0  0  0  0  0  0  0  0  0  0  0
  148.2798  134.6466  152.7279 H   0  0  0  0  0  0  0  0  0  0  0  0
  150.3526  132.9039  152.8217 H   0  0  0  0  0  0  0  0  0  0  0  0
  148.6756  132.4764  155.4123 H   0  0  0  0  0  0  0  0  0  0  0  0
  150.3492  131.8026  155.0579 H   0  0  0  0  0  0  0  0  0  0  0  0
  151.2337  134.1351  154.8021 H   0  0  0  0  0  0  0  0  0  0  0  0
  149.5603  134.8092  155.1561 H   0  0  0  0  0  0  0  0  0  0  0  0
  146.3603  134.5613  152.1730 H   0  0  0  0  0  0  0  0  0  0  0  0
  144.5240  132.5109  152.9904 H   0  0  0  0  0  0  0  0  0  0  0  0
  146.0439  131.7734  150.7101 H   0  0  0  0  0  0  0  0  0  0  0  0
  144.4906  131.1075  151.1613 H   0  0  0  0  0  0  0  0  0  0  0  0
  144.9559  132.6293  148.8106 H   0  0  0  0  0  0  0  0  0  0  0  0
  143.3917  132.2242  149.5021 H   0  0  0  0  0  0  0  0  0  0  0  0
  144.9924  134.7481  149.8690 H   0  0  0  0  0  0  0  0  0  0  0  0
  143.2567  134.6085  149.5841 H   0  0  0  0  0  0  0  0  0  0  0  0
  142.8874  133.6625  151.7739 H   0  0  0  0  0  0  0  0  0  0  0  0
  143.5625  134.6705  154.3719 H   0  0  0  0  0  0  0  0  0  0  0  0
  143.7900  137.3941  154.9138 H   0  0  0  0  0  0  0  0  0  0  0  0
  144.2872  136.7713  150.7594 H   0  0  0  0  0  0  0  0  0  0  0  0
  144.2133  138.4607  152.6577 H   0  0  0  0  0  0  0  0  0  0  0  0
  1  2  2  0  0  0  0
  2  3  1  0  0  0  0
  2  7  1  0  0  0  0
  3  4  1  0  0  0  0
  3 18  1  0  0  0  0
  4  6  1  0  0  0  0
  4  5  1  0  0  0  0
  4 19  1  0  0  0  0
  5  6  1  0  0  0  0
  5 20  1  0  0  0  0
  5 21  1  0  0  0  0
  6 22  1  0  0  0  0
  6 23  1  0  0  0  0
  7  8  1  0  0  0  0
  7 24  1  0  0  0  0
  8 12  1  0  0  0  0
  8  9  1  0  0  0  0
  8 25  1  0  0  0  0
  9 10  1  0  0  0  0
  9 26  1  0  0  0  0
  9 27  1  0  0  0  0
 10 11  1  0  0  0  0
 10 28  1  0  0  0  0
 10 29  1  0  0  0  0
 11 12  1  0  0  0  0
 11 30  1  0  0  0  0
 11 31  1  0  0  0  0
 12 13  1  0  0  0  0
 12 32  1  0  0  0  0
 13 17  1  0  0  0  0
 13 14  1  0  0  0  0
 14 15  2  0  0  0  0
 14 33  1  0  0  0  0
 15 16  1  0  0  0  0
 15 34  1  0  0  0  0
 16 17  2  0  0  0  0
 16 36  1  0  0  0  0
 17 35  1  0  0  0  0
M  CHG  1  16   1
M  END
> <s_m_source_file>
AV-unprocessed.smi

> <i_m_source_file_index>
3141

> <i_lp_mmshare_version>
43012

> <i_f3d_flags>
0

> <s_epik_input>
W0NIMl0xW0NIMl1bQ0hdMVtOSF1DKD1PKVtOSF1bQ0BASF0yW0NIMl1bQ0gyXVtDSDJdW0NASF0ybjNbY0hdW2NIXW5bY0hdMw==

> <s_epik_cmdline>
J2VwaWtfcHl0aG9uJywgJy1waCcsICc3LjAnLCAnLXRuJywgJzgnLCAnLW1hJywgJzIwMCcsICctbWV0YWxfYmluZGluZycsICctaW1hZScsICc8aW5maWxlLm1hZT4nLCAnLW9tYWUnLCAnPG91dGZpbGUubWFlPic=

> <r_lp_tautomer_probability>
1

> <r_epik_Ionization_Penalty>
0.205063

> <r_epik_Ionization_Penalty_Charging>
0

> <r_epik_Ionization_Penalty_Neutral>
0.205063

> <r_epik_State_Penalty>
0.194948

> <r_epik_Charging_Adjusted_Penalty>
0.194948

> <i_epik_Tot_Q>
1

> <i_epik_Tot_abs_Q>
1

> <r_epik_Metal_State_Penalty>
0.500882

> <b_epik_Metal_Only>
0

> <s_lp_Force_Field>
OPLS_2005

> <r_lp_Energy>
37.736

> <b_lp_Chiralities_Consistent>
1

> <s_lp_Variant>
AV-unprocessed.smi:3141-3

> <Gold.Version>
5.8.1

> <Gold.Id.Protein>
6NUR|6NUR_protein|mol2

> <Gold.PLP.Fitness>
38.6766

> <Gold.PLP.PLP>
-27.1717

> <Gold.PLP.part.hbond>
-2.5827

> <Gold.PLP.part.metal>
0.0000

> <Gold.PLP.part.buried>
-2.1155

> <Gold.PLP.part.nonpolar>
-22.4655

> <Gold.PLP.part.repulsive>
0.1151

> <Gold.PLP.ligand.clash>
0.0000

> <Gold.PLP.ligand.torsion>
0.0703

> <Gold.PLP.Chemscore.Hbond>
2.9600

> <Gold.PLP.Chemscore.CHOScore>
0.8986

> <Gold.PLP.Chemscore.Metal>
0.0000

> <Gold.Chemscore.Hbonds>
donor molecule, donor type, donor heavy atom, donor atom, acceptor molecule, acceptor atom, score
      L1  H     3    18       P1  7948  1.00
      L1  H    16    36       P1 10175  1.82
      L1  C    17    35       P1 10171  0.91

> <Gold.PLP.Chemscore.Internal.Correction>
0.0698

> <Gold.Rescore>
     Score         DG    S(hbond)    S(metal)    S(lipo)     H(rot)  DE(clash)    DE(int)     intcor
     12.55     -13.91       1.73        0.00      57.80       1.61       1.26       0.10       ----

> <Gold.Chemscore.Fitness>
12.5479

> <Gold.Chemscore.DG>
-13.9124

> <Gold.Chemscore.ZeroCoef>
-5.4800

> <Gold.Chemscore.Hbond>
1.7332

> <Gold.Chemscore.Metal>
0.0000

> <Gold.Chemscore.Lipo>
57.7967

> <Gold.Chemscore.Internal_Hbond>
0.0000

> <Gold.Chemscore.DEClash>
1.2620

> <Gold.Chemscore.DEInternal>
0.1025

> <Gold.Chemscore.Rot>
1.6088

> <Gold.Chemscore.Internal.Correction>
   9.000000E+99

> <Gold.Chemscore.Hbonds>
donor molecule, donor type, donor heavy atom, donor atom, acceptor molecule, acceptor atom, score
      L1  H     3    18       P1  7948  0.43
      L1  H    16    36       P1 10175  0.87

> <Gold.Chemscore.Hbond.Weighted>
-5.7888

> <Gold.Chemscore.Metal.Weighted>
-0.0000

> <Gold.Chemscore.Lipo.Weighted>
-6.7622

> <Gold.Chemscore.Internal_Hbond.Weighted>
0.0000

> <Gold.Chemscore.DEClash.Weighted>
1.2620

> <Gold.Chemscore.DEInternal.Weighted>
0.1025

> <Gold.Chemscore.Rot.Weighted>
4.1186

> <Gold.Chemscore.Internal.Correction.Weighted>
   9.000000E+99

> <Gold.Protein.RotatedTorsions>
[ 6907 6896 6895 6894 ] final    5.39 input  -60.11 | X-H torsion
[ 7974 7965 7964 7962 ] final -144.55 input  175.53 | X-H torsion
[ 8008 7997 7996 7995 ] final   -4.12 input   59.86 | X-H torsion
[ 10167 10162 10161 10158 ] final -102.70 input  -65.29 | X-H torsion
[ 10718 10713 10712 10709 ] final -105.64 input   66.30 | X-H torsion
[ 10763 10752 10751 10750 ] final  121.94 input  -60.55 | X-H torsion
[ 11005 11000 10999 10996 ] final   -4.64 input  -57.11 | X-H torsion

> <Gold.Protein.ActiveResidues>
 VAL166  LYS551  ARG553  GLY616  TRP617  ASP618  TYR619  PRO620  LYS621  CYS622 
 ASP623  PHE694  ASN695  SER759  ASP760  ASP761  ALA762  ILE779  LEU786  VAL792 
 PHE793  MET794  SER795  GLU796  ALA797  LYS798  CYS799  TRP800  GLU811  SER814 

> <Gold.Protein.RotatedAtoms>
  151.6567  135.0994  160.0171 H   0  0  0  0  0  0  0  0  0  0  0  0  # atno 6907 bound_to 6896
  152.3970  133.6757  159.6293 H   0  0  0  0  0  0  0  0  0  0  0  0  # atno 6908 bound_to 6896
  150.7875  133.8774  159.3317 H   0  0  0  0  0  0  0  0  0  0  0  0  # atno 6909 bound_to 6896
  144.8290  140.5696  143.5528 H   0  0  0  0  0  0  0  0  0  0  0  0  # atno 7974 bound_to 7965
  154.6176  140.2492  155.7589 H   0  0  0  0  0  0  0  0  0  0  0  0  # atno 8008 bound_to 7997
  156.2408  140.2933  156.0388 H   0  0  0  0  0  0  0  0  0  0  0  0  # atno 8009 bound_to 7997
  155.1949  140.0392  157.2897 H   0  0  0  0  0  0  0  0  0  0  0  0  # atno 8010 bound_to 7997
  140.2278  143.3628  152.0913 H   0  0  0  0  0  0  0  0  0  0  0  0  # atno 10167 bound_to 10162
  156.0355  130.5573  150.7568 H   0  0  0  0  0  0  0  0  0  0  0  0  # atno 10718 bound_to 10713
  153.6219  135.3411  155.3013 H   0  0  0  0  0  0  0  0  0  0  0  0  # atno 10763 bound_to 10752
  154.8598  135.4275  154.2198 H   0  0  0  0  0  0  0  0  0  0  0  0  # atno 10764 bound_to 10752
  153.3073  135.7029  153.7220 H   0  0  0  0  0  0  0  0  0  0  0  0  # atno 10765 bound_to 10752
  140.6824  133.9141  155.8564 H   0  0  0  0  0  0  0  0  0  0  0  0  # atno 11005 bound_to 11000
  145.4938  139.1487  143.3695 LP  0  0  0  0  0  0  0  0  0  0  0  0  # atno 17320 bound_to 7965
  146.2594  140.5076  142.8860 LP  0  0  0  0  0  0  0  0  0  0  0  0  # atno 17321 bound_to 7965
  139.5121  144.6911  151.5758 LP  0  0  0  0  0  0  0  0  0  0  0  0  # atno 17342 bound_to 10162
  140.6207  143.9263  150.6524 LP  0  0  0  0  0  0  0  0  0  0  0  0  # atno 17343 bound_to 10162
  157.5098  131.0924  151.0212 LP  0  0  0  0  0  0  0  0  0  0  0  0  # atno 17370 bound_to 10713
  157.0571  130.5810  149.5379 LP  0  0  0  0  0  0  0  0  0  0  0  0  # atno 17371 bound_to 10713
  141.0306  134.0761  157.4018 LP  0  0  0  0  0  0  0  0  0  0  0  0  # atno 17394 bound_to 11000
  139.8947  135.0137  156.6967 LP  0  0  0  0  0  0  0  0  0  0  0  0  # atno 17395 bound_to 11000

$$$$
