AV-unprocessed.smi:158|AV-procd|sdf|1331|dock9
  -GOLD-   2262019 33D 1   1.00000     0.00000
 Structure written by MMmdl.
 31 33  0  0  0  0  0  0  0  0  1 V2000
  155.9529  141.5370  160.4687 N   0  0  0  0  0  0  0  0  0  0  0  0
  154.6484  141.7565  160.2526 C   0  0  0  0  0  0  0  0  0  0  0  0
  154.0572  142.7975  160.8836 N   0  0  0  0  0  0  0  0  0  0  0  0
  152.7572  143.0514  160.6928 C   0  0  0  0  0  0  0  0  0  0  0  0
  152.1030  144.4016  161.5422 Cl  0  0  0  0  0  0  0  0  0  0  0  0
  151.9056  142.3748  159.9160 N   0  0  0  0  0  0  0  0  0  0  0  0
  152.4942  141.3229  159.2775 C   0  0  0  0  0  0  0  0  0  0  0  0
  153.8608  140.9508  159.3943 C   0  0  0  0  0  0  0  0  0  0  0  0
  154.1186  139.8378  158.6070 N   0  0  0  0  0  0  0  0  0  0  0  0
  152.9650  139.5705  158.0567 C   0  0  0  0  0  0  0  0  0  0  0  0
  151.9301  140.4112  158.4050 N   0  0  0  0  0  0  0  0  0  0  0  0
  150.5108  140.3294  157.9314 C   0  0  2  0  0  0  0  0  0  0  0  0
  150.3832  139.2478  157.0528 O   0  0  0  0  0  0  0  0  0  0  0  0
  149.8360  139.6853  155.8088 C   0  0  2  0  0  0  0  0  0  0  0  0
  150.3360  138.7863  154.6661 C   0  0  0  0  0  0  0  0  0  0  0  0
  150.2946  137.4282  155.0503 O   0  0  0  0  0  0  0  0  0  0  0  0
  150.2708  141.1503  155.7210 C   0  0  1  0  0  0  0  0  0  0  0  0
  149.4788  141.9295  154.8475 O   0  0  0  0  0  0  0  0  0  0  0  0
  150.1278  141.5995  157.1644 C   0  0  1  0  0  0  0  0  0  0  0  0
  148.8558  141.8794  157.4597 F   0  0  0  0  0  0  0  0  0  0  0  0
  149.9295  140.1735  158.8412 H   0  0  0  0  0  0  0  0  0  0  0  0
  148.7496  139.6190  155.8947 H   0  0  0  0  0  0  0  0  0  0  0  0
  151.3137  141.2226  155.4131 H   0  0  0  0  0  0  0  0  0  0  0  0
  150.7423  142.4589  157.4361 H   0  0  0  0  0  0  0  0  0  0  0  0
  156.4156  140.7665  160.0079 H   0  0  0  0  0  0  0  0  0  0  0  0
  156.4707  142.1429  161.0885 H   0  0  0  0  0  0  0  0  0  0  0  0
  152.8351  138.7414  157.3764 H   0  0  0  0  0  0  0  0  0  0  0  0
  149.7457  138.9264  153.7610 H   0  0  0  0  0  0  0  0  0  0  0  0
  151.3678  139.0373  154.4194 H   0  0  0  0  0  0  0  0  0  0  0  0
  150.6026  136.9026  154.3277 H   0  0  0  0  0  0  0  0  0  0  0  0
  149.4674  142.8182  155.1700 H   0  0  0  0  0  0  0  0  0  0  0  0
  1  2  1  0  0  0  0
  1 25  1  0  0  0  0
  1 26  1  0  0  0  0
  2  8  1  0  0  0  0
  2  3  2  0  0  0  0
  3  4  1  0  0  0  0
  4  5  1  0  0  0  0
  4  6  2  0  0  0  0
  6  7  1  0  0  0  0
  7 11  1  0  0  0  0
  7  8  2  0  0  0  0
  8  9  1  0  0  0  0
  9 10  2  0  0  0  0
 10 11  1  0  0  0  0
 10 27  1  0  0  0  0
 11 12  1  0  0  0  0
 12 21  1  0  0  0  0
 12 19  1  0  0  0  0
 12 13  1  0  0  0  0
 13 14  1  0  0  0  0
 14 22  1  0  0  0  0
 14 15  1  0  0  0  0
 14 17  1  0  0  0  0
 15 16  1  0  0  0  0
 15 28  1  0  0  0  0
 15 29  1  0  0  0  0
 16 30  1  0  0  0  0
 17 23  1  0  0  0  0
 17 18  1  0  0  0  0
 17 19  1  0  0  0  0
 18 31  1  0  0  0  0
 19 24  1  0  0  0  0
 19 20  1  0  0  0  0
M  END
> <s_m_source_file>
AV-unprocessed.smi

> <i_m_source_file_index>
158

> <i_lp_mmshare_version>
43012

> <i_f3d_flags>
0

> <s_epik_input>
Q2xjKG4xKW5jKFtOSDJdKWMoYzEyKW5bY0hdbjJbQ0BASF0zT1tDQEhdKFtDSDJdW09IXSlbQ0BASF0oW09IXSlbQ0BASF0zRg==

> <s_epik_cmdline>
J2VwaWtfcHl0aG9uJywgJy1waCcsICc3LjAnLCAnLXRuJywgJzgnLCAnLW1hJywgJzIwMCcsICctbWV0YWxfYmluZGluZycsICctaW1hZScsICc8aW5maWxlLm1hZT4nLCAnLW9tYWUnLCAnPG91dGZpbGUubWFlPic=

> <r_lp_tautomer_probability>
1

> <r_epik_Ionization_Penalty>
6.51543e-05

> <r_epik_Ionization_Penalty_Charging>
0

> <r_epik_Ionization_Penalty_Neutral>
6.51543e-05

> <r_epik_State_Penalty>
-0

> <r_epik_Charging_Adjusted_Penalty>
0

> <i_epik_Tot_Q>
0

> <i_epik_Tot_abs_Q>
0

> <r_epik_Metal_State_Penalty>
-0

> <b_epik_Metal_Only>
0

> <s_epik_Chemistry_Notes>
This compound contains an acetal/aminal-like group ( X-CH(R)-Y where X, Y are N, S, or O) that may be acid/base labile, releasing an aldehyde.

> <s_lp_Force_Field>
OPLS_2005

> <r_lp_Energy>
33.8646

> <b_lp_Chiralities_Consistent>
1

> <s_lp_Variant>
AV-unprocessed.smi:158-9

> <Gold.Version>
5.8.1

> <Gold.Id.Protein>
6NUR|6NUR_protein|mol2

> <Gold.PLP.Fitness>
40.0873

> <Gold.PLP.PLP>
-34.4438

> <Gold.PLP.part.hbond>
-5.8689

> <Gold.PLP.part.metal>
0.0000

> <Gold.PLP.part.buried>
-1.7562

> <Gold.PLP.part.nonpolar>
-26.2796

> <Gold.PLP.part.repulsive>
0.0426

> <Gold.PLP.ligand.clash>
0.0000

> <Gold.PLP.ligand.torsion>
0.1684

> <Gold.PLP.Chemscore.Hbond>
1.9913

> <Gold.PLP.Chemscore.CHOScore>
0.0000

> <Gold.PLP.Chemscore.Metal>
0.0000

> <Gold.Chemscore.Hbonds>
donor molecule, donor type, donor heavy atom, donor atom, acceptor molecule, acceptor atom, score
      L1  H    18    31       P1  8028  0.98
      P1  H  7997  8010       L1     9  0.96

> <Gold.PLP.Chemscore.Internal.Correction>
0.0065

> <Gold.Rescore>
     Score         DG    S(hbond)    S(metal)    S(lipo)     H(rot)  DE(clash)    DE(int)     intcor
      6.19      -6.60       1.18        0.00      44.14       3.12       0.22       0.18       ----

> <Gold.Chemscore.Fitness>
6.1948

> <Gold.Chemscore.DG>
-6.5967

> <Gold.Chemscore.ZeroCoef>
-5.4800

> <Gold.Chemscore.Hbond>
1.1817

> <Gold.Chemscore.Metal>
0.0000

> <Gold.Chemscore.Lipo>
44.1426

> <Gold.Chemscore.Internal_Hbond>
0.0000

> <Gold.Chemscore.DEClash>
0.2187

> <Gold.Chemscore.DEInternal>
0.1832

> <Gold.Chemscore.Rot>
3.1230

> <Gold.Chemscore.Internal.Correction>
   9.000000E+99

> <Gold.Chemscore.Hbonds>
donor molecule, donor type, donor heavy atom, donor atom, acceptor molecule, acceptor atom, score
      L1  H    18    31       P1  8028  0.91
      P1  H  7997  8010       L1     9  0.35

> <Gold.Chemscore.Hbond.Weighted>
-3.9470

> <Gold.Chemscore.Metal.Weighted>
-0.0000

> <Gold.Chemscore.Lipo.Weighted>
-5.1647

> <Gold.Chemscore.Internal_Hbond.Weighted>
0.0000

> <Gold.Chemscore.DEClash.Weighted>
0.2187

> <Gold.Chemscore.DEInternal.Weighted>
0.1832

> <Gold.Chemscore.Rot.Weighted>
7.9950

> <Gold.Chemscore.Internal.Correction.Weighted>
   9.000000E+99

> <Gold.Protein.RotatedTorsions>
[ 6907 6896 6895 6894 ] final   37.40 input  -60.11 | X-H torsion
[ 7974 7965 7964 7962 ] final  -30.24 input  175.53 | X-H torsion
[ 8008 7997 7996 7995 ] final   -0.80 input   59.86 | X-H torsion
[ 10167 10162 10161 10158 ] final -111.81 input  -65.29 | X-H torsion
[ 10718 10713 10712 10709 ] final  177.94 input   66.30 | X-H torsion
[ 10763 10752 10751 10750 ] final  -59.50 input  -60.55 | X-H torsion
[ 11005 11000 10999 10996 ] final  111.91 input  -57.11 | X-H torsion

> <Gold.Protein.ActiveResidues>
 VAL166  LYS551  ARG553  GLY616  TRP617  ASP618  TYR619  PRO620  LYS621  CYS622 
 ASP623  PHE694  ASN695  SER759  ASP760  ASP761  ALA762  ILE779  LEU786  VAL792 
 PHE793  MET794  SER795  GLU796  ALA797  LYS798  CYS799  TRP800  GLU811  SER814 

> <Gold.Protein.RotatedAtoms>
  152.1427  134.9050  160.0552 H   0  0  0  0  0  0  0  0  0  0  0  0  # atno 6907 bound_to 6896
  152.0111  133.3857  159.4228 H   0  0  0  0  0  0  0  0  0  0  0  0  # atno 6908 bound_to 6896
  150.6867  134.3650  159.5011 H   0  0  0  0  0  0  0  0  0  0  0  0  # atno 6909 bound_to 6896
  146.1157  140.5515  142.8758 H   0  0  0  0  0  0  0  0  0  0  0  0  # atno 7974 bound_to 7965
  154.6539  140.2575  155.7183 H   0  0  0  0  0  0  0  0  0  0  0  0  # atno 8008 bound_to 7997
  156.2588  140.2862  156.0905 H   0  0  0  0  0  0  0  0  0  0  0  0  # atno 8009 bound_to 7997
  155.1409  140.0380  157.2788 H   0  0  0  0  0  0  0  0  0  0  0  0  # atno 8010 bound_to 7997
  140.1296  143.4372  152.1636 H   0  0  0  0  0  0  0  0  0  0  0  0  # atno 10167 bound_to 10162
  156.8979  130.9869  151.3040 H   0  0  0  0  0  0  0  0  0  0  0  0  # atno 10718 bound_to 10713
  154.2546  135.6319  153.5252 H   0  0  0  0  0  0  0  0  0  0  0  0  # atno 10763 bound_to 10752
  152.9906  135.5573  154.5770 H   0  0  0  0  0  0  0  0  0  0  0  0  # atno 10764 bound_to 10752
  154.5305  135.2888  155.1159 H   0  0  0  0  0  0  0  0  0  0  0  0  # atno 10765 bound_to 10752
  139.8914  134.9518  156.6504 H   0  0  0  0  0  0  0  0  0  0  0  0  # atno 11005 bound_to 11000
  144.7551  140.5287  143.6774 LP  0  0  0  0  0  0  0  0  0  0  0  0  # atno 17320 bound_to 7965
  145.5571  139.1478  143.3362 LP  0  0  0  0  0  0  0  0  0  0  0  0  # atno 17321 bound_to 7965
  139.5526  144.7349  151.4388 LP  0  0  0  0  0  0  0  0  0  0  0  0  # atno 17342 bound_to 10162
  140.6825  143.8050  150.7140 LP  0  0  0  0  0  0  0  0  0  0  0  0  # atno 17343 bound_to 10162
  157.6044  130.8536  149.8852 LP  0  0  0  0  0  0  0  0  0  0  0  0  # atno 17370 bound_to 10713
  156.0596  130.3702  150.1012 LP  0  0  0  0  0  0  0  0  0  0  0  0  # atno 17371 bound_to 10713
  140.7525  133.8885  155.8357 LP  0  0  0  0  0  0  0  0  0  0  0  0  # atno 17394 bound_to 11000
  140.9989  134.1177  157.4336 LP  0  0  0  0  0  0  0  0  0  0  0  0  # atno 17395 bound_to 11000

$$$$
