AV-unprocessed.smi:1065|AV-procd|sdf|4667|dock4
  -GOLD-   22720 3183D 1   1.00000     0.00000
 Structure written by MMmdl.
 39 40  0  0  0  0  0  0  0  0  1 V2000
  154.2536  140.8371  161.4093 C   0  0  0  0  0  0  0  0  0  0  0  0
  153.3661  141.9928  161.8924 C   0  0  0  0  0  0  0  0  0  0  0  0
  153.0865  143.0642  160.8189 C   0  0  2  0  0  0  0  0  0  0  0  0
  152.0260  144.0688  161.3132 C   0  0  0  0  0  0  0  0  0  0  0  0
  151.7195  145.1493  160.2609 C   0  0  0  0  0  0  0  0  0  0  0  0
  151.2895  144.5504  158.9068 C   0  0  2  0  0  0  0  0  0  0  0  0
  149.8572  143.9745  158.9546 C   0  0  0  0  0  0  0  0  0  0  0  0
  148.8981  144.9820  159.3866 N   0  0  0  0  0  0  0  0  0  0  0  0
  148.3740  145.0688  160.6176 C   0  0  0  0  0  0  0  0  0  0  0  0
  148.7011  144.3347  161.5494 O   0  0  0  0  0  0  0  0  0  0  0  0
  147.3074  146.1440  160.8274 C   0  0  0  0  0  0  0  0  0  0  0  0
  146.0260  145.7115  160.3004 N   0  0  0  0  0  0  0  0  0  0  0  0
  145.4310  145.9559  159.1310 C   0  0  0  0  0  0  0  0  0  0  0  0
  144.2401  145.3813  159.0595 N   0  0  0  0  0  0  0  0  0  0  0  0
  144.1229  144.7455  160.2845 N   0  0  0  0  0  0  0  0  0  0  0  0
  145.1793  144.9381  161.0254 N   0  0  0  0  0  0  0  0  0  0  0  0
  152.3519  143.5382  158.4225 C   0  0  0  0  0  0  0  0  0  0  0  0
  152.6497  142.4522  159.4704 C   0  0  0  0  0  0  0  0  0  0  0  0
  154.4806  140.1576  162.2311 H   0  0  0  0  0  0  0  0  0  0  0  0
  155.2004  141.2056  161.0139 H   0  0  0  0  0  0  0  0  0  0  0  0
  153.7667  140.2519  160.6297 H   0  0  0  0  0  0  0  0  0  0  0  0
  152.4252  141.5955  162.2753 H   0  0  0  0  0  0  0  0  0  0  0  0
  153.8613  142.4634  162.7425 H   0  0  0  0  0  0  0  0  0  0  0  0
  154.0109  143.6197  160.6535 H   0  0  0  0  0  0  0  0  0  0  0  0
  151.1102  143.5397  161.5789 H   0  0  0  0  0  0  0  0  0  0  0  0
  152.3713  144.5503  162.2288 H   0  0  0  0  0  0  0  0  0  0  0  0
  150.9516  145.8268  160.6353 H   0  0  0  0  0  0  0  0  0  0  0  0
  152.6116  145.7592  160.1129 H   0  0  0  0  0  0  0  0  0  0  0  0
  151.2707  145.3696  158.1860 H   0  0  0  0  0  0  0  0  0  0  0  0
  149.5682  143.5861  157.9773 H   0  0  0  0  0  0  0  0  0  0  0  0
  149.8135  143.1364  159.6511 H   0  0  0  0  0  0  0  0  0  0  0  0
  148.5725  145.6314  158.6848 H   0  0  0  0  0  0  0  0  0  0  0  0
  147.1933  146.3595  161.8904 H   0  0  0  0  0  0  0  0  0  0  0  0
  147.6105  147.0711  160.3383 H   0  0  0  0  0  0  0  0  0  0  0  0
  145.8640  146.5547  158.3429 H   0  0  0  0  0  0  0  0  0  0  0  0
  152.0528  143.0748  157.4819 H   0  0  0  0  0  0  0  0  0  0  0  0
  153.2760  144.0746  158.2035 H   0  0  0  0  0  0  0  0  0  0  0  0
  153.4302  141.7989  159.0810 H   0  0  0  0  0  0  0  0  0  0  0  0
  151.7701  141.8235  159.6127 H   0  0  0  0  0  0  0  0  0  0  0  0
  1  2  1  0  0  0  0
  1 19  1  0  0  0  0
  1 20  1  0  0  0  0
  1 21  1  0  0  0  0
  2  3  1  0  0  0  0
  2 22  1  0  0  0  0
  2 23  1  0  0  0  0
  3 18  1  0  0  0  0
  3  4  1  0  0  0  0
  3 24  1  0  0  0  0
  4  5  1  0  0  0  0
  4 25  1  0  0  0  0
  4 26  1  0  0  0  0
  5  6  1  0  0  0  0
  5 27  1  0  0  0  0
  5 28  1  0  0  0  0
  6  7  1  0  0  0  0
  6 17  1  0  0  0  0
  6 29  1  0  0  0  0
  7  8  1  0  0  0  0
  7 30  1  0  0  0  0
  7 31  1  0  0  0  0
  8  9  1  0  0  0  0
  8 32  1  0  0  0  0
  9 10  2  0  0  0  0
  9 11  1  0  0  0  0
 11 12  1  0  0  0  0
 11 33  1  0  0  0  0
 11 34  1  0  0  0  0
 12 16  1  0  0  0  0
 12 13  1  0  0  0  0
 13 14  2  0  0  0  0
 13 35  1  0  0  0  0
 14 15  1  0  0  0  0
 15 16  2  0  0  0  0
 17 18  1  0  0  0  0
 17 36  1  0  0  0  0
 17 37  1  0  0  0  0
 18 38  1  0  0  0  0
 18 39  1  0  0  0  0
M  END
> <s_m_source_file>
AV-unprocessed.smi

> <i_m_source_file_index>
1065

> <i_lp_mmshare_version>
43012

> <i_f3d_flags>
0

> <s_epik_input>
W0NIM11bQ0gyXVtDQEBIXTFbQ0gyXVtDSDJdW0NASF0oW0NIMl1bQ0gyXTEpW0NIMl1bTkhdQyg9TylbQ0gyXW4yW2NIXW5ubjI=

> <s_epik_cmdline>
J2VwaWtfcHl0aG9uJywgJy1waCcsICc3LjAnLCAnLXRuJywgJzgnLCAnLW1hJywgJzIwMCcsICctbWV0YWxfYmluZGluZycsICctaW1hZScsICc8aW5maWxlLm1hZT4nLCAnLW9tYWUnLCAnPG91dGZpbGUubWFlPic=

> <r_lp_tautomer_probability>
1

> <r_epik_Ionization_Penalty>
4.54759e-07

> <r_epik_Ionization_Penalty_Charging>
0

> <r_epik_Ionization_Penalty_Neutral>
4.54759e-07

> <r_epik_State_Penalty>
-0

> <r_epik_Charging_Adjusted_Penalty>
0

> <i_epik_Tot_Q>
0

> <i_epik_Tot_abs_Q>
0

> <r_epik_Metal_State_Penalty>
-0

> <b_epik_Metal_Only>
0

> <s_lp_Force_Field>
OPLS_2005

> <r_lp_Energy>
15.297

> <b_lp_Chiralities_Consistent>
1

> <s_lp_Variant>
AV-unprocessed.smi:1065-2

> <Gold.Version>
5.8.1

> <Gold.Id.Protein>
6NUR|6NUR_protein|mol2

> <Gold.PLP.Fitness>
48.4888

> <Gold.PLP.PLP>
-41.9489

> <Gold.PLP.part.hbond>
-2.0000

> <Gold.PLP.part.metal>
0.0000

> <Gold.PLP.part.buried>
-6.2083

> <Gold.PLP.part.nonpolar>
-34.8117

> <Gold.PLP.part.repulsive>
0.6123

> <Gold.PLP.ligand.clash>
0.0000

> <Gold.PLP.ligand.torsion>
0.7746

> <Gold.PLP.Chemscore.Hbond>
1.7360

> <Gold.PLP.Chemscore.CHOScore>
0.9533

> <Gold.PLP.Chemscore.Metal>
0.0000

> <Gold.Chemscore.Hbonds>
donor molecule, donor type, donor heavy atom, donor atom, acceptor molecule, acceptor atom, score
      L1  H     8    32       P1  8029  1.00
      P1  H  6933  6944       L1    10  0.70
      L1  C    13    35       P1  8029  0.87

> <Gold.PLP.Chemscore.Internal.Correction>
0.0210

> <Gold.Rescore>
     Score         DG    S(hbond)    S(metal)    S(lipo)     H(rot)  DE(clash)    DE(int)     intcor
     16.58     -17.34       1.90        0.00     100.75       2.45       0.00       0.75       ----

> <Gold.Chemscore.Fitness>
16.5839

> <Gold.Chemscore.DG>
-17.3396

> <Gold.Chemscore.ZeroCoef>
-5.4800

> <Gold.Chemscore.Hbond>
1.9003

> <Gold.Chemscore.Metal>
0.0000

> <Gold.Chemscore.Lipo>
100.7489

> <Gold.Chemscore.Internal_Hbond>
0.0000

> <Gold.Chemscore.DEClash>
0.0042

> <Gold.Chemscore.DEInternal>
0.7515

> <Gold.Chemscore.Rot>
2.4512

> <Gold.Chemscore.Internal.Correction>
   9.000000E+99

> <Gold.Chemscore.Hbonds>
donor molecule, donor type, donor heavy atom, donor atom, acceptor molecule, acceptor atom, score
      L1  H     8    32       P1  8029  0.94
      P1  H  6933  6944       L1    10  0.68

> <Gold.Chemscore.Hbond.Weighted>
-6.3470

> <Gold.Chemscore.Metal.Weighted>
-0.0000

> <Gold.Chemscore.Lipo.Weighted>
-11.7876

> <Gold.Chemscore.Internal_Hbond.Weighted>
0.0000

> <Gold.Chemscore.DEClash.Weighted>
0.0042

> <Gold.Chemscore.DEInternal.Weighted>
0.7515

> <Gold.Chemscore.Rot.Weighted>
6.2750

> <Gold.Chemscore.Internal.Correction.Weighted>
   9.000000E+99

> <Gold.Protein.RotatedTorsions>
[ 6907 6896 6895 6894 ] final -136.39 input  -60.11 | X-H torsion
[ 7974 7965 7964 7962 ] final   34.47 input  175.53 | X-H torsion
[ 8008 7997 7996 7995 ] final -148.72 input   59.86 | X-H torsion
[ 10167 10162 10161 10158 ] final  130.86 input  -65.29 | X-H torsion
[ 10718 10713 10712 10709 ] final   -4.65 input   66.30 | X-H torsion
[ 10763 10752 10751 10750 ] final  154.19 input  -60.55 | X-H torsion
[ 11005 11000 10999 10996 ] final  167.06 input  -57.11 | X-H torsion

> <Gold.Protein.ActiveResidues>
 VAL166  LYS551  ARG553  GLY616  TRP617  ASP618  TYR619  PRO620  LYS621  CYS622 
 ASP623  PHE694  ASN695  SER759  ASP760  ASP761  ALA762  ILE779  LEU786  VAL792 
 PHE793  MET794  SER795  GLU796  ALA797  LYS798  CYS799  TRP800  GLU811  SER814 

> <Gold.Protein.RotatedAtoms>
  151.0095  133.5978  159.2684 H   0  0  0  0  0  0  0  0  0  0  0  0  # atno 6907 bound_to 6896
  151.3135  135.0799  159.9290 H   0  0  0  0  0  0  0  0  0  0  0  0  # atno 6908 bound_to 6896
  152.5296  133.9756  159.7836 H   0  0  0  0  0  0  0  0  0  0  0  0  # atno 6909 bound_to 6896
  146.1350  139.6265  142.9201 H   0  0  0  0  0  0  0  0  0  0  0  0  # atno 7974 bound_to 7965
  155.5961  140.0657  157.2745 H   0  0  0  0  0  0  0  0  0  0  0  0  # atno 8008 bound_to 7997
  154.4291  140.1826  156.1172 H   0  0  0  0  0  0  0  0  0  0  0  0  # atno 8009 bound_to 7997
  156.0195  140.3318  155.7027 H   0  0  0  0  0  0  0  0  0  0  0  0  # atno 8010 bound_to 7997
  139.5410  144.6730  151.4624 H   0  0  0  0  0  0  0  0  0  0  0  0  # atno 10167 bound_to 10162
  156.7582  130.5261  149.5790 H   0  0  0  0  0  0  0  0  0  0  0  0  # atno 10718 bound_to 10713
  154.1483  135.2816  155.3142 H   0  0  0  0  0  0  0  0  0  0  0  0  # atno 10763 bound_to 10752
  154.6236  135.5459  153.7606 H   0  0  0  0  0  0  0  0  0  0  0  0  # atno 10764 bound_to 10752
  153.0229  135.6445  154.1627 H   0  0  0  0  0  0  0  0  0  0  0  0  # atno 10765 bound_to 10752
  140.2728  134.7813  157.3690 H   0  0  0  0  0  0  0  0  0  0  0  0  # atno 11005 bound_to 11000
  145.5175  141.0433  143.2453 LP  0  0  0  0  0  0  0  0  0  0  0  0  # atno 17320 bound_to 7965
  144.7730  139.6691  143.7186 LP  0  0  0  0  0  0  0  0  0  0  0  0  # atno 17321 bound_to 7965
  140.6640  143.8437  150.6920 LP  0  0  0  0  0  0  0  0  0  0  0  0  # atno 17342 bound_to 10162
  140.1841  143.4090  152.1911 LP  0  0  0  0  0  0  0  0  0  0  0  0  # atno 17343 bound_to 10162
  156.1356  130.6209  151.0396 LP  0  0  0  0  0  0  0  0  0  0  0  0  # atno 17370 bound_to 10713
  157.6746  131.0853  150.7526 LP  0  0  0  0  0  0  0  0  0  0  0  0  # atno 17371 bound_to 10713
  140.1357  134.5038  155.8071 LP  0  0  0  0  0  0  0  0  0  0  0  0  # atno 17394 bound_to 11000
  141.2175  133.6806  156.7119 LP  0  0  0  0  0  0  0  0  0  0  0  0  # atno 17395 bound_to 11000

$$$$
