AV-unprocessed.smi:668|AV-procd|sdf|3262|dock6
  -GOLD-   22720 0213D 1   1.00000     0.00000
 Structure written by MMmdl.
 38 39  0  0  0  0  0  0  0  0  1 V2000
  150.3412  141.7886  158.0398 C   0  0  0  0  0  0  0  0  0  0  0  0
  150.6265  141.6401  156.6532 O   0  0  0  0  0  0  0  0  0  0  0  0
  149.8939  140.7228  155.9282 C   0  0  0  0  0  0  0  0  0  0  0  0
  148.7022  140.2191  156.4864 C   0  0  0  0  0  0  0  0  0  0  0  0
  147.9496  139.2807  155.7545 C   0  0  0  0  0  0  0  0  0  0  0  0
  148.4191  138.8682  154.4842 C   0  0  0  0  0  0  0  0  0  0  0  0
  147.7477  137.9420  153.6403 N   0  0  0  0  0  0  0  0  0  0  0  0
  146.4296  137.7001  153.5380 C   0  0  0  0  0  0  0  0  0  0  0  0
  145.5497  138.2508  154.1989 O   0  0  0  0  0  0  0  0  0  0  0  0
  146.1826  136.7504  152.6246 N   0  0  0  0  0  0  0  0  0  0  0  0
  144.8582  136.2433  152.2684 C   0  0  1  0  0  0  0  0  0  0  0  0
  144.8626  135.6743  150.8394 C   0  0  0  0  0  0  0  0  0  0  0  0
  144.8289  134.1562  150.9973 C   0  0  0  0  0  0  0  0  0  0  0  0
  144.0087  133.9324  152.2639 C   0  0  0  0  0  0  0  0  0  0  0  0
  144.4105  135.0847  153.2013 C   0  0  2  0  0  0  0  0  0  0  0  0
  143.2799  135.4928  154.1588 C   0  0  0  0  0  0  0  0  0  0  0  0
  142.7041  134.5197  154.8691 N   0  0  0  0  0  0  0  0  0  0  0  0
  142.9317  136.6679  154.2594 O   0  0  0  0  0  0  0  0  0  0  0  0
  149.6158  139.4440  154.0096 C   0  0  0  0  0  0  0  0  0  0  0  0
  150.3424  140.3428  154.7062 N   0  0  0  0  0  0  0  0  0  0  0  0
  150.9988  142.5471  158.4639 H   0  0  0  0  0  0  0  0  0  0  0  0
  150.5136  140.8594  158.5852 H   0  0  0  0  0  0  0  0  0  0  0  0
  149.3127  142.1144  158.2026 H   0  0  0  0  0  0  0  0  0  0  0  0
  148.3685  140.5497  157.4589 H   0  0  0  0  0  0  0  0  0  0  0  0
  147.0284  138.9113  156.1766 H   0  0  0  0  0  0  0  0  0  0  0  0
  148.3497  137.3550  153.0814 H   0  0  0  0  0  0  0  0  0  0  0  0
  146.9677  136.3490  152.1332 H   0  0  0  0  0  0  0  0  0  0  0  0
  144.1571  137.0806  152.2963 H   0  0  0  0  0  0  0  0  0  0  0  0
  143.9578  135.9981  150.3229 H   0  0  0  0  0  0  0  0  0  0  0  0
  145.7103  136.0094  150.2399 H   0  0  0  0  0  0  0  0  0  0  0  0
  144.4058  133.6522  150.1277 H   0  0  0  0  0  0  0  0  0  0  0  0
  145.8418  133.7785  151.1434 H   0  0  0  0  0  0  0  0  0  0  0  0
  142.9467  133.9708  152.0158 H   0  0  0  0  0  0  0  0  0  0  0  0
  144.2058  132.9551  152.7056 H   0  0  0  0  0  0  0  0  0  0  0  0
  145.2665  134.7437  153.7873 H   0  0  0  0  0  0  0  0  0  0  0  0
  141.9474  134.7356  155.5013 H   0  0  0  0  0  0  0  0  0  0  0  0
  143.0200  133.5670  154.7597 H   0  0  0  0  0  0  0  0  0  0  0  0
  150.0075  139.1725  153.0401 H   0  0  0  0  0  0  0  0  0  0  0  0
  1  2  1  0  0  0  0
  1 21  1  0  0  0  0
  1 22  1  0  0  0  0
  1 23  1  0  0  0  0
  2  3  1  0  0  0  0
  3 20  1  0  0  0  0
  3  4  2  0  0  0  0
  4  5  1  0  0  0  0
  4 24  1  0  0  0  0
  5  6  2  0  0  0  0
  5 25  1  0  0  0  0
  6  7  1  0  0  0  0
  6 19  1  0  0  0  0
  7  8  1  0  0  0  0
  7 26  1  0  0  0  0
  8  9  2  0  0  0  0
  8 10  1  0  0  0  0
 10 11  1  0  0  0  0
 10 27  1  0  0  0  0
 11 15  1  0  0  0  0
 11 12  1  0  0  0  0
 11 28  1  0  0  0  0
 12 13  1  0  0  0  0
 12 29  1  0  0  0  0
 12 30  1  0  0  0  0
 13 14  1  0  0  0  0
 13 31  1  0  0  0  0
 13 32  1  0  0  0  0
 14 15  1  0  0  0  0
 14 33  1  0  0  0  0
 14 34  1  0  0  0  0
 15 16  1  0  0  0  0
 15 35  1  0  0  0  0
 16 17  1  0  0  0  0
 16 18  2  0  0  0  0
 17 36  1  0  0  0  0
 17 37  1  0  0  0  0
 19 20  2  0  0  0  0
 19 38  1  0  0  0  0
M  END
> <s_m_source_file>
AV-unprocessed.smi

> <i_m_source_file_index>
668

> <i_lp_mmshare_version>
43012

> <i_f3d_flags>
0

> <s_epik_input>
W0NIM11PYzFbY0hdW2NIXWMoW2NIXW4xKVtOSF1DKD1PKVtOSF1bQ0BASF0yW0NIMl1bQ0gyXVtDSDJdW0NASF0yQyg9TylbTkgyXQ==

> <s_epik_cmdline>
J2VwaWtfcHl0aG9uJywgJy1waCcsICc3LjAnLCAnLXRuJywgJzgnLCAnLW1hJywgJzIwMCcsICctbWV0YWxfYmluZGluZycsICctaW1hZScsICc8aW5maWxlLm1hZT4nLCAnLW9tYWUnLCAnPG91dGZpbGUubWFlPic=

> <r_lp_tautomer_probability>
1

> <r_epik_Ionization_Penalty>
9.0916e-05

> <r_epik_Ionization_Penalty_Charging>
0

> <r_epik_Ionization_Penalty_Neutral>
9.0916e-05

> <r_epik_State_Penalty>
-0

> <r_epik_Charging_Adjusted_Penalty>
0

> <i_epik_Tot_Q>
0

> <i_epik_Tot_abs_Q>
0

> <r_epik_Metal_State_Penalty>
-0

> <b_epik_Metal_Only>
0

> <s_lp_Force_Field>
OPLS_2005

> <r_lp_Energy>
17.404

> <b_lp_Chiralities_Consistent>
1

> <s_lp_Variant>
AV-unprocessed.smi:668-4

> <Gold.Version>
5.8.1

> <Gold.Id.Protein>
6NUR|6NUR_protein|mol2

> <Gold.PLP.Fitness>
40.0402

> <Gold.PLP.PLP>
-24.0442

> <Gold.PLP.part.hbond>
-5.0000

> <Gold.PLP.part.metal>
0.0000

> <Gold.PLP.part.buried>
-3.8885

> <Gold.PLP.part.nonpolar>
-16.1815

> <Gold.PLP.part.repulsive>
0.3808

> <Gold.PLP.ligand.clash>
0.0000

> <Gold.PLP.ligand.torsion>
0.8945

> <Gold.PLP.Chemscore.Hbond>
4.9350

> <Gold.PLP.Chemscore.CHOScore>
0.9923

> <Gold.PLP.Chemscore.Metal>
0.0000

> <Gold.Chemscore.Hbonds>
donor molecule, donor type, donor heavy atom, donor atom, acceptor molecule, acceptor atom, score
      L1  H     7    26       P1  7948  1.00
      L1  H    10    27       P1  7948  1.00
      L1  H    17    36       P1 11000  0.93
      L1  H    17    37       P1 10957  0.98
      P1  H  7989  7998       L1    20  1.00
      L1  C    19    38       P1  7957  1.00

> <Gold.PLP.Chemscore.Internal.Correction>
0.0031

> <Gold.Rescore>
     Score         DG    S(hbond)    S(metal)    S(lipo)     H(rot)  DE(clash)    DE(int)     intcor
     16.96     -18.75       3.94        0.00      41.58       1.86       0.04       1.74       ----

> <Gold.Chemscore.Fitness>
16.9638

> <Gold.Chemscore.DG>
-18.7451

> <Gold.Chemscore.ZeroCoef>
-5.4800

> <Gold.Chemscore.Hbond>
3.9444

> <Gold.Chemscore.Metal>
0.0000

> <Gold.Chemscore.Lipo>
41.5783

> <Gold.Chemscore.Internal_Hbond>
0.0000

> <Gold.Chemscore.DEClash>
0.0402

> <Gold.Chemscore.DEInternal>
1.7411

> <Gold.Chemscore.Rot>
1.8648

> <Gold.Chemscore.Internal.Correction>
   9.000000E+99

> <Gold.Chemscore.Hbonds>
donor molecule, donor type, donor heavy atom, donor atom, acceptor molecule, acceptor atom, score
      L1  H     7    26       P1  7948  1.00
      L1  H    10    27       P1  7948  0.91
      L1  H    17    36       P1 11000  0.25
      L1  H    17    37       P1 10957  0.93
      P1  H  7989  7998       L1    20  0.38

> <Gold.Chemscore.Hbond.Weighted>
-13.1744

> <Gold.Chemscore.Metal.Weighted>
-0.0000

> <Gold.Chemscore.Lipo.Weighted>
-4.8647

> <Gold.Chemscore.Internal_Hbond.Weighted>
0.0000

> <Gold.Chemscore.DEClash.Weighted>
0.0402

> <Gold.Chemscore.DEInternal.Weighted>
1.7411

> <Gold.Chemscore.Rot.Weighted>
4.7739

> <Gold.Chemscore.Internal.Correction.Weighted>
   9.000000E+99

> <Gold.Protein.RotatedTorsions>
[ 6907 6896 6895 6894 ] final   35.95 input  -60.11 | X-H torsion
[ 7974 7965 7964 7962 ] final  109.38 input  175.53 | X-H torsion
[ 8008 7997 7996 7995 ] final -113.92 input   59.86 | X-H torsion
[ 10167 10162 10161 10158 ] final  113.01 input  -65.29 | X-H torsion
[ 10718 10713 10712 10709 ] final  167.14 input   66.30 | X-H torsion
[ 10763 10752 10751 10750 ] final   -2.65 input  -60.55 | X-H torsion
[ 11005 11000 10999 10996 ] final  143.42 input  -57.11 | X-H torsion

> <Gold.Protein.ActiveResidues>
 VAL166  LYS551  ARG553  GLY616  TRP617  ASP618  TYR619  PRO620  LYS621  CYS622 
 ASP623  PHE694  ASN695  SER759  ASP760  ASP761  ALA762  ILE779  LEU786  VAL792 
 PHE793  MET794  SER795  GLU796  ALA797  LYS798  CYS799  TRP800  GLU811  SER814 

> <Gold.Protein.RotatedAtoms>
  152.1231  134.9191  160.0561 H   0  0  0  0  0  0  0  0  0  0  0  0  # atno 6907 bound_to 6896
  152.0324  133.3938  159.4311 H   0  0  0  0  0  0  0  0  0  0  0  0  # atno 6908 bound_to 6896
  150.6850  134.3427  159.4918 H   0  0  0  0  0  0  0  0  0  0  0  0  # atno 6909 bound_to 6896
  145.2685  139.2675  143.3979 H   0  0  0  0  0  0  0  0  0  0  0  0  # atno 7974 bound_to 7965
  155.0283  140.0393  157.2464 H   0  0  0  0  0  0  0  0  0  0  0  0  # atno 8008 bound_to 7997
  154.7318  140.2732  155.6425 H   0  0  0  0  0  0  0  0  0  0  0  0  # atno 8009 bound_to 7997
  156.2843  140.2682  156.2021 H   0  0  0  0  0  0  0  0  0  0  0  0  # atno 8010 bound_to 7997
  139.6493  144.7128  151.2079 H   0  0  0  0  0  0  0  0  0  0  0  0  # atno 10167 bound_to 10162
  157.0558  131.0326  151.2664 H   0  0  0  0  0  0  0  0  0  0  0  0  # atno 10718 bound_to 10713
  153.3609  135.6990  153.6713 H   0  0  0  0  0  0  0  0  0  0  0  0  # atno 10763 bound_to 10752
  153.5402  135.3574  155.2715 H   0  0  0  0  0  0  0  0  0  0  0  0  # atno 10764 bound_to 10752
  154.8668  135.4202  154.2866 H   0  0  0  0  0  0  0  0  0  0  0  0  # atno 10765 bound_to 10752
  140.0552  134.9234  157.1088 H   0  0  0  0  0  0  0  0  0  0  0  0  # atno 11005 bound_to 11000
  146.3254  140.3121  142.8627 LP  0  0  0  0  0  0  0  0  0  0  0  0  # atno 17320 bound_to 7965
  144.9356  140.8022  143.5662 LP  0  0  0  0  0  0  0  0  0  0  0  0  # atno 17321 bound_to 7965
  140.7530  143.6177  150.8544 LP  0  0  0  0  0  0  0  0  0  0  0  0  # atno 17342 bound_to 10162
  139.9823  143.5937  152.2938 LP  0  0  0  0  0  0  0  0  0  0  0  0  # atno 17343 bound_to 10162
  157.4994  130.7870  149.7588 LP  0  0  0  0  0  0  0  0  0  0  0  0  # atno 17370 bound_to 10713
  155.9993  130.3889  150.2668 LP  0  0  0  0  0  0  0  0  0  0  0  0  # atno 17371 bound_to 10713
  140.3854  134.2241  155.7168 LP  0  0  0  0  0  0  0  0  0  0  0  0  # atno 17394 bound_to 11000
  141.1949  133.8118  157.0738 LP  0  0  0  0  0  0  0  0  0  0  0  0  # atno 17395 bound_to 11000

$$$$
