AV-unprocessed.smi:552|AV-procd|sdf|2903|dock3
  -GOLD-   2262023393D 1   1.00000     0.00000
 Structure written by MMmdl.
 42 43  0  0  0  0  0  0  0  0  1 V2000
  147.1304  133.2743  152.5550 C   0  0  0  0  0  0  0  0  0  0  0  0
  148.3614  132.6868  153.2605 C   0  0  0  0  0  0  0  0  0  0  0  0
  148.7305  133.4055  154.5729 C   0  0  1  0  0  0  0  0  0  0  0  0
  149.8957  132.7097  155.2899 C   0  0  0  0  0  0  0  0  0  0  0  0
  149.0880  134.7996  154.3125 N   0  0  0  0  0  0  0  0  0  0  0  0
  149.5868  135.6653  155.2076 C   0  0  0  0  0  0  0  0  0  0  0  0
  149.8128  135.3790  156.3830 O   0  0  0  0  0  0  0  0  0  0  0  0
  149.7765  136.8762  154.6555 N   0  0  0  0  0  0  0  0  0  0  0  0
  150.2856  138.0528  155.2682 C   0  0  0  0  0  0  0  0  0  0  0  0
  150.4689  139.2831  154.5936 C   0  0  0  0  0  0  0  0  0  0  0  0
  150.9657  140.3863  155.3134 C   0  0  0  0  0  0  0  0  0  0  0  0
  151.2563  140.2300  156.6839 C   0  0  0  0  0  0  0  0  0  0  0  0
  151.7547  141.3263  157.4011 N   0  0  0  0  0  0  0  0  0  0  0  0
  151.9414  141.0565  158.8212 C   0  0  0  0  0  0  0  0  0  0  0  0
  152.6132  142.2626  159.5005 C   0  0  0  0  0  0  0  0  0  0  0  0
  151.8383  143.4357  159.2677 O   0  0  0  0  0  0  0  0  0  0  0  0
  151.7201  143.7325  157.8789 C   0  0  0  0  0  0  0  0  0  0  0  0
  151.0244  142.5642  157.1590 C   0  0  0  0  0  0  0  0  0  0  0  0
  151.0694  139.0603  157.3400 N   0  0  0  0  0  0  0  0  0  0  0  0
  150.5917  138.0068  156.6441 C   0  0  0  0  0  0  0  0  0  0  0  0
  146.8814  132.6944  151.6661 H   0  0  0  0  0  0  0  0  0  0  0  0
  147.3017  134.3030  152.2376 H   0  0  0  0  0  0  0  0  0  0  0  0
  146.2599  133.2664  153.2113 H   0  0  0  0  0  0  0  0  0  0  0  0
  148.1680  131.6348  153.4733 H   0  0  0  0  0  0  0  0  0  0  0  0
  149.2111  132.7051  152.5768 H   0  0  0  0  0  0  0  0  0  0  0  0
  147.8663  133.3554  155.2373 H   0  0  0  0  0  0  0  0  0  0  0  0
  149.6514  131.6716  155.5172 H   0  0  0  0  0  0  0  0  0  0  0  0
  150.1290  133.2052  156.2329 H   0  0  0  0  0  0  0  0  0  0  0  0
  150.7987  132.7127  154.6785 H   0  0  0  0  0  0  0  0  0  0  0  0
  148.9331  135.1338  153.3726 H   0  0  0  0  0  0  0  0  0  0  0  0
  149.4606  136.9857  153.7031 H   0  0  0  0  0  0  0  0  0  0  0  0
  150.2276  139.4068  153.5493 H   0  0  0  0  0  0  0  0  0  0  0  0
  151.1160  141.3356  154.8202 H   0  0  0  0  0  0  0  0  0  0  0  0
  150.9764  140.8580  159.2900 H   0  0  0  0  0  0  0  0  0  0  0  0
  152.5541  140.1635  158.9510 H   0  0  0  0  0  0  0  0  0  0  0  0
  152.6906  142.0947  160.5747 H   0  0  0  0  0  0  0  0  0  0  0  0
  153.6280  142.4047  159.1255 H   0  0  0  0  0  0  0  0  0  0  0  0
  151.1405  144.6476  157.7582 H   0  0  0  0  0  0  0  0  0  0  0  0
  152.7065  143.9203  157.4514 H   0  0  0  0  0  0  0  0  0  0  0  0
  150.9738  142.7602  156.0871 H   0  0  0  0  0  0  0  0  0  0  0  0
  149.9991  142.4655  157.5188 H   0  0  0  0  0  0  0  0  0  0  0  0
  150.4553  137.0944  157.2061 H   0  0  0  0  0  0  0  0  0  0  0  0
  1  2  1  0  0  0  0
  1 21  1  0  0  0  0
  1 22  1  0  0  0  0
  1 23  1  0  0  0  0
  2  3  1  0  0  0  0
  2 24  1  0  0  0  0
  2 25  1  0  0  0  0
  3  4  1  0  0  0  0
  3  5  1  0  0  0  0
  3 26  1  0  0  0  0
  4 27  1  0  0  0  0
  4 28  1  0  0  0  0
  4 29  1  0  0  0  0
  5  6  1  0  0  0  0
  5 30  1  0  0  0  0
  6  7  2  0  0  0  0
  6  8  1  0  0  0  0
  8  9  1  0  0  0  0
  8 31  1  0  0  0  0
  9 20  1  0  0  0  0
  9 10  2  0  0  0  0
 10 11  1  0  0  0  0
 10 32  1  0  0  0  0
 11 12  2  0  0  0  0
 11 33  1  0  0  0  0
 12 13  1  0  0  0  0
 12 19  1  0  0  0  0
 13 18  1  0  0  0  0
 13 14  1  0  0  0  0
 14 15  1  0  0  0  0
 14 34  1  0  0  0  0
 14 35  1  0  0  0  0
 15 16  1  0  0  0  0
 15 36  1  0  0  0  0
 15 37  1  0  0  0  0
 16 17  1  0  0  0  0
 17 18  1  0  0  0  0
 17 38  1  0  0  0  0
 17 39  1  0  0  0  0
 18 40  1  0  0  0  0
 18 41  1  0  0  0  0
 19 20  2  0  0  0  0
 20 42  1  0  0  0  0
M  END
> <s_m_source_file>
AV-unprocessed.smi

> <i_m_source_file_index>
552

> <i_lp_mmshare_version>
43012

> <i_f3d_flags>
0

> <s_epik_input>
W0NIM11bQ0gyXVtDQEhdKFtDSDNdKVtOSF1DKD1PKVtOSF1jMVtjSF1bY0hdYyhuW2NIXTEpTjJbQ0gyXVtDSDJdT1tDSDJdW0NIMl0y

> <s_epik_cmdline>
J2VwaWtfcHl0aG9uJywgJy1waCcsICc3LjAnLCAnLXRuJywgJzgnLCAnLW1hJywgJzIwMCcsICctbWV0YWxfYmluZGluZycsICctaW1hZScsICc8aW5maWxlLm1hZT4nLCAnLW9tYWUnLCAnPG91dGZpbGUubWFlPic=

> <r_lp_tautomer_probability>
1

> <r_epik_Ionization_Penalty>
0.00215965

> <r_epik_Ionization_Penalty_Charging>
0

> <r_epik_Ionization_Penalty_Neutral>
0.00215965

> <r_epik_State_Penalty>
0.00145276

> <r_epik_Charging_Adjusted_Penalty>
0.00145276

> <i_epik_Tot_Q>
0

> <i_epik_Tot_abs_Q>
0

> <r_epik_Metal_State_Penalty>
-0

> <b_epik_Metal_Only>
0

> <s_lp_Force_Field>
OPLS_2005

> <r_lp_Energy>
22.6914

> <b_lp_Chiralities_Consistent>
1

> <s_lp_Variant>
AV-unprocessed.smi:552-2

> <Gold.Version>
5.8.1

> <Gold.Id.Protein>
6NUR|6NUR_protein|mol2

> <Gold.PLP.Fitness>
40.0706

> <Gold.PLP.PLP>
-34.4592

> <Gold.PLP.part.hbond>
-2.0000

> <Gold.PLP.part.metal>
0.0000

> <Gold.PLP.part.buried>
-2.3533

> <Gold.PLP.part.nonpolar>
-30.3881

> <Gold.PLP.part.repulsive>
0.0836

> <Gold.PLP.ligand.clash>
0.0000

> <Gold.PLP.ligand.torsion>
0.2537

> <Gold.PLP.Chemscore.Hbond>
2.0000

> <Gold.PLP.Chemscore.CHOScore>
0.0000

> <Gold.PLP.Chemscore.Metal>
0.0000

> <Gold.Chemscore.Hbonds>
donor molecule, donor type, donor heavy atom, donor atom, acceptor molecule, acceptor atom, score
      L1  H     5    30       P1  7948  1.00
      L1  H     8    31       P1  7948  1.00

> <Gold.PLP.Chemscore.Internal.Correction>
0.1189

> <Gold.Rescore>
     Score         DG    S(hbond)    S(metal)    S(lipo)     H(rot)  DE(clash)    DE(int)     intcor
     15.14     -16.89       1.79        0.00      76.06       1.35       0.08       1.67       ----

> <Gold.Chemscore.Fitness>
15.1376

> <Gold.Chemscore.DG>
-16.8865

> <Gold.Chemscore.ZeroCoef>
-5.4800

> <Gold.Chemscore.Hbond>
1.7878

> <Gold.Chemscore.Metal>
0.0000

> <Gold.Chemscore.Lipo>
76.0590

> <Gold.Chemscore.Internal_Hbond>
0.0000

> <Gold.Chemscore.DEClash>
0.0811

> <Gold.Chemscore.DEInternal>
1.6679

> <Gold.Chemscore.Rot>
1.3530

> <Gold.Chemscore.Internal.Correction>
   9.000000E+99

> <Gold.Chemscore.Hbonds>
donor molecule, donor type, donor heavy atom, donor atom, acceptor molecule, acceptor atom, score
      L1  H     5    30       P1  7948  0.45
      L1  H     8    31       P1  7948  0.83

> <Gold.Chemscore.Hbond.Weighted>
-5.9714

> <Gold.Chemscore.Metal.Weighted>
-0.0000

> <Gold.Chemscore.Lipo.Weighted>
-8.8989

> <Gold.Chemscore.Internal_Hbond.Weighted>
0.0000

> <Gold.Chemscore.DEClash.Weighted>
0.0811

> <Gold.Chemscore.DEInternal.Weighted>
1.6679

> <Gold.Chemscore.Rot.Weighted>
3.4638

> <Gold.Chemscore.Internal.Correction.Weighted>
   9.000000E+99

> <Gold.Protein.RotatedTorsions>
[ 6907 6896 6895 6894 ] final  -77.57 input  -60.11 | X-H torsion
[ 7974 7965 7964 7962 ] final  -12.08 input  175.53 | X-H torsion
[ 8008 7997 7996 7995 ] final  -95.69 input   59.86 | X-H torsion
[ 10167 10162 10161 10158 ] final   78.82 input  -65.29 | X-H torsion
[ 10718 10713 10712 10709 ] final  132.79 input   66.30 | X-H torsion
[ 10763 10752 10751 10750 ] final  -78.21 input  -60.55 | X-H torsion
[ 11005 11000 10999 10996 ] final -172.30 input  -57.11 | X-H torsion

> <Gold.Protein.ActiveResidues>
 VAL166  LYS551  ARG553  GLY616  TRP617  ASP618  TYR619  PRO620  LYS621  CYS622 
 ASP623  PHE694  ASN695  SER759  ASP760  ASP761  ALA762  ILE779  LEU786  VAL792 
 PHE793  MET794  SER795  GLU796  ALA797  LYS798  CYS799  TRP800  GLU811  SER814 

> <Gold.Protein.RotatedAtoms>
  150.6995  134.4403  159.5288 H   0  0  0  0  0  0  0  0  0  0  0  0  # atno 6907 bound_to 6896
  152.2114  134.8495  160.0506 H   0  0  0  0  0  0  0  0  0  0  0  0  # atno 6908 bound_to 6896
  151.9379  133.3594  159.3991 H   0  0  0  0  0  0  0  0  0  0  0  0  # atno 6909 bound_to 6896
  146.2165  140.3005  142.8375 H   0  0  0  0  0  0  0  0  0  0  0  0  # atno 7974 bound_to 7965
  154.7646  140.0478  157.1002 H   0  0  0  0  0  0  0  0  0  0  0  0  # atno 8008 bound_to 7997
  154.9895  140.3111  155.4893 H   0  0  0  0  0  0  0  0  0  0  0  0  # atno 8009 bound_to 7997
  156.2910  140.2221  156.4999 H   0  0  0  0  0  0  0  0  0  0  0  0  # atno 8010 bound_to 7997
  139.9668  144.5922  150.8021 H   0  0  0  0  0  0  0  0  0  0  0  0  # atno 10167 bound_to 10162
  157.4837  131.1087  150.9648 H   0  0  0  0  0  0  0  0  0  0  0  0  # atno 10718 bound_to 10713
  154.5230  135.5737  153.6696 H   0  0  0  0  0  0  0  0  0  0  0  0  # atno 10763 bound_to 10752
  152.9921  135.6186  154.2729 H   0  0  0  0  0  0  0  0  0  0  0  0  # atno 10764 bound_to 10752
  154.2651  135.2855  155.2741 H   0  0  0  0  0  0  0  0  0  0  0  0  # atno 10765 bound_to 10752
  140.4986  134.5915  157.4980 H   0  0  0  0  0  0  0  0  0  0  0  0  # atno 11005 bound_to 11000
  144.9061  140.7701  143.5837 LP  0  0  0  0  0  0  0  0  0  0  0  0  # atno 17320 bound_to 7965
  145.2933  139.1876  143.4729 LP  0  0  0  0  0  0  0  0  0  0  0  0  # atno 17321 bound_to 7965
  140.7535  143.3009  151.3082 LP  0  0  0  0  0  0  0  0  0  0  0  0  # atno 17342 bound_to 10162
  139.6511  144.0360  152.2627 LP  0  0  0  0  0  0  0  0  0  0  0  0  # atno 17343 bound_to 10162
  157.0373  130.5735  149.5351 LP  0  0  0  0  0  0  0  0  0  0  0  0  # atno 17370 bound_to 10713
  156.0135  130.5228  150.8063 LP  0  0  0  0  0  0  0  0  0  0  0  0  # atno 17371 bound_to 10713
  139.9727  134.7267  156.0010 LP  0  0  0  0  0  0  0  0  0  0  0  0  # atno 17394 bound_to 11000
  141.1447  133.6558  156.3833 LP  0  0  0  0  0  0  0  0  0  0  0  0  # atno 17395 bound_to 11000

$$$$
