AV-unprocessed.smi:199|AV-procd|sdf|1571|dock7
  -GOLD-   2262019453D 1   1.00000     0.00000
 Structure written by MMmdl.
 51 55  0  0  0  0  0  0  0  0  1 V2000
  149.7418  141.0603  157.0004 C   0  0  0  0  0  0  0  0  0  0  0  0
  150.3983  140.7019  155.6581 C   0  0  1  0  0  0  0  0  0  0  0  0
  151.4779  139.8120  155.9313 O   0  0  0  0  0  0  0  0  0  0  0  0
  151.6419  138.9369  154.8294 C   0  0  0  0  0  0  0  0  0  0  0  0
  150.2045  138.6285  154.4408 C   0  0  0  0  0  0  0  0  0  0  0  0
  149.5058  139.9746  154.6122 C   0  0  2  0  0  0  0  0  0  0  0  0
  149.6209  140.6794  153.3869 O   0  0  0  0  0  0  0  0  0  0  0  0
  147.9962  139.8552  154.9518 C   0  0  0  0  0  0  0  0  0  0  0  0
  147.2846  138.9227  154.0901 N   0  0  0  0  0  0  0  0  0  0  0  0
  146.9739  139.0994  152.7618 C   0  0  0  0  0  0  0  0  0  0  0  0
  146.3338  138.1085  152.2054 N   0  0  0  0  0  0  0  0  0  0  0  0
  146.1880  137.1731  153.2239 C   0  0  0  0  0  0  0  0  0  0  0  0
  145.6023  135.8755  153.3168 C   0  0  0  0  0  0  0  0  0  0  0  0
  145.0101  135.2220  152.2784 N   0  0  0  0  0  0  0  0  0  0  0  0
  145.7378  134.9687  151.0426 C   0  0  1  0  0  0  0  0  0  0  0  0
  146.7241  133.8452  151.4162 C   0  0  0  0  0  0  0  0  0  0  0  0
  145.8894  133.0394  152.4231 C   0  0  0  0  0  0  0  0  0  0  0  0
  144.5670  133.8421  152.4346 C   0  0  2  0  0  0  0  0  0  0  0  0
  143.7647  133.6311  151.1324 C   0  0  2  0  0  0  0  0  0  0  0  0
  143.4328  132.1736  150.7619 C   0  0  0  0  0  0  0  0  0  0  0  0
  142.8584  132.1229  149.4735 O   0  0  0  0  0  0  0  0  0  0  0  0
  144.6490  134.3863  150.1228 C   0  0  0  0  0  0  0  0  0  0  0  0
  145.6246  135.2722  154.5354 N   0  0  0  0  0  0  0  0  0  0  0  0
  146.1993  135.8705  155.5815 C   0  0  0  0  0  0  0  0  0  0  0  0
  146.7989  137.0598  155.6344 N   0  0  0  0  0  0  0  0  0  0  0  0
  146.7673  137.6829  154.4222 C   0  0  0  0  0  0  0  0  0  0  0  0
  148.9066  141.7476  156.8649 H   0  0  0  0  0  0  0  0  0  0  0  0
  150.4599  141.5468  157.6606 H   0  0  0  0  0  0  0  0  0  0  0  0
  149.3759  140.1726  157.5167 H   0  0  0  0  0  0  0  0  0  0  0  0
  150.8222  141.6121  155.2294 H   0  0  0  0  0  0  0  0  0  0  0  0
  152.1688  139.4500  154.0232 H   0  0  0  0  0  0  0  0  0  0  0  0
  152.2070  138.0457  155.1029 H   0  0  0  0  0  0  0  0  0  0  0  0
  150.1095  138.2048  153.4400 H   0  0  0  0  0  0  0  0  0  0  0  0
  149.8017  137.9031  155.1486 H   0  0  0  0  0  0  0  0  0  0  0  0
  149.4537  140.0772  152.6783 H   0  0  0  0  0  0  0  0  0  0  0  0
  147.8604  139.5205  155.9803 H   0  0  0  0  0  0  0  0  0  0  0  0
  147.5086  140.8280  154.8776 H   0  0  0  0  0  0  0  0  0  0  0  0
  147.2440  139.9898  152.2129 H   0  0  0  0  0  0  0  0  0  0  0  0
  146.2217  135.8322  150.5910 H   0  0  0  0  0  0  0  0  0  0  0  0
  147.0377  133.2549  150.5548 H   0  0  0  0  0  0  0  0  0  0  0  0
  147.6178  134.2501  151.8928 H   0  0  0  0  0  0  0  0  0  0  0  0
  145.7698  131.9936  152.1444 H   0  0  0  0  0  0  0  0  0  0  0  0
  146.3629  133.0586  153.4053 H   0  0  0  0  0  0  0  0  0  0  0  0
  143.9603  133.6574  153.3218 H   0  0  0  0  0  0  0  0  0  0  0  0
  142.8241  134.1745  151.2436 H   0  0  0  0  0  0  0  0  0  0  0  0
  144.3200  131.5410  150.7709 H   0  0  0  0  0  0  0  0  0  0  0  0
  142.7224  131.7540  151.4744 H   0  0  0  0  0  0  0  0  0  0  0  0
  142.3261  132.8942  149.3513 H   0  0  0  0  0  0  0  0  0  0  0  0
  144.0802  135.1797  149.6365 H   0  0  0  0  0  0  0  0  0  0  0  0
  145.0644  133.7460  149.3437 H   0  0  0  0  0  0  0  0  0  0  0  0
  146.1757  135.3164  156.5082 H   0  0  0  0  0  0  0  0  0  0  0  0
  1  2  1  0  0  0  0
  1 27  1  0  0  0  0
  1 28  1  0  0  0  0
  1 29  1  0  0  0  0
  2  6  1  0  0  0  0
  2  3  1  0  0  0  0
  2 30  1  0  0  0  0
  3  4  1  0  0  0  0
  4  5  1  0  0  0  0
  4 31  1  0  0  0  0
  4 32  1  0  0  0  0
  5  6  1  0  0  0  0
  5 33  1  0  0  0  0
  5 34  1  0  0  0  0
  6  7  1  0  0  0  0
  6  8  1  0  0  0  0
  7 35  1  0  0  0  0
  8  9  1  0  0  0  0
  8 36  1  0  0  0  0
  8 37  1  0  0  0  0
  9 26  1  0  0  0  0
  9 10  1  0  0  0  0
 10 11  2  0  0  0  0
 10 38  1  0  0  0  0
 11 12  1  0  0  0  0
 12 26  2  0  0  0  0
 12 13  1  0  0  0  0
 13 14  1  0  0  0  0
 13 23  2  0  0  0  0
 14 18  1  0  0  0  0
 14 15  1  0  0  0  0
 15 22  1  0  0  0  0
 15 16  1  0  0  0  0
 15 39  1  0  0  0  0
 16 17  1  0  0  0  0
 16 40  1  0  0  0  0
 16 41  1  0  0  0  0
 17 18  1  0  0  0  0
 17 42  1  0  0  0  0
 17 43  1  0  0  0  0
 18 19  1  0  0  0  0
 18 44  1  0  0  0  0
 19 20  1  0  0  0  0
 19 22  1  0  0  0  0
 19 45  1  0  0  0  0
 20 21  1  0  0  0  0
 20 46  1  0  0  0  0
 20 47  1  0  0  0  0
 21 48  1  0  0  0  0
 22 49  1  0  0  0  0
 22 50  1  0  0  0  0
 23 24  1  0  0  0  0
 24 25  2  0  0  0  0
 24 51  1  0  0  0  0
 25 26  1  0  0  0  0
M  END
> <s_m_source_file>
AV-unprocessed.smi

> <i_m_source_file_index>
199

> <i_lp_mmshare_version>
43012

> <i_f3d_flags>
0

> <s_epik_input>
W0NIMl0xW0NIMl1PW0NAQEhdKFtDSDNdKVtDQEBdMShbT0hdKVtDSDJdbihbY0hdbjIpYyhjMjMpbltjSF1uYzNOKFtDQEBIXTQ1KVtDQEhdKFtDSDJdW0NIMl00KVtDQEhdKFtDSDJdNSlbQ0gyXVtPSF0=

> <s_epik_cmdline>
J2VwaWtfcHl0aG9uJywgJy1waCcsICc3LjAnLCAnLXRuJywgJzgnLCAnLW1hJywgJzIwMCcsICctbWV0YWxfYmluZGluZycsICctaW1hZScsICc8aW5maWxlLm1hZT4nLCAnLW9tYWUnLCAnPG91dGZpbGUubWFlPic=

> <r_lp_tautomer_probability>
1

> <r_epik_Ionization_Penalty>
0.00583903

> <r_epik_Ionization_Penalty_Charging>
0

> <r_epik_Ionization_Penalty_Neutral>
0.00583903

> <r_epik_State_Penalty>
-0

> <r_epik_Charging_Adjusted_Penalty>
0

> <i_epik_Tot_Q>
0

> <i_epik_Tot_abs_Q>
0

> <r_epik_Metal_State_Penalty>
-0

> <b_epik_Metal_Only>
0

> <s_lp_Force_Field>
OPLS_2005

> <r_lp_Energy>
83.1527

> <b_lp_Chiralities_Consistent>
1

> <s_lp_Variant>
AV-unprocessed.smi:199-12

> <Gold.Version>
5.8.1

> <Gold.Id.Protein>
6NUR|6NUR_protein|mol2

> <Gold.PLP.Fitness>
51.9624

> <Gold.PLP.PLP>
-40.0281

> <Gold.PLP.part.hbond>
-5.0101

> <Gold.PLP.part.metal>
0.0000

> <Gold.PLP.part.buried>
-4.6920

> <Gold.PLP.part.nonpolar>
-29.7194

> <Gold.PLP.part.repulsive>
0.4910

> <Gold.PLP.ligand.clash>
0.0000

> <Gold.PLP.ligand.torsion>
0.3119

> <Gold.PLP.Chemscore.Hbond>
3.6814

> <Gold.PLP.Chemscore.CHOScore>
0.4988

> <Gold.PLP.Chemscore.Metal>
0.0000

> <Gold.Chemscore.Hbonds>
donor molecule, donor type, donor heavy atom, donor atom, acceptor molecule, acceptor atom, score
      L1  H     7    35       P1  7957  0.75
      L1  H    21    48       P1 10186  1.00
      P1  H  7989  7998       L1     7  0.28
      P1  H  8011  8017       L1     7  0.94
      P1  H 10785 10796       L1    21  0.73
      L1  C    10    38       P1  7957  0.69

> <Gold.PLP.Chemscore.Internal.Correction>
0.0174

> <Gold.Rescore>
     Score         DG    S(hbond)    S(metal)    S(lipo)     H(rot)  DE(clash)    DE(int)     intcor
     14.77     -16.04       2.59        0.00      83.55       3.07       0.13       1.14       ----

> <Gold.Chemscore.Fitness>
14.7700

> <Gold.Chemscore.DG>
-16.0448

> <Gold.Chemscore.ZeroCoef>
-5.4800

> <Gold.Chemscore.Hbond>
2.5918

> <Gold.Chemscore.Metal>
0.0000

> <Gold.Chemscore.Lipo>
83.5474

> <Gold.Chemscore.Internal_Hbond>
0.0000

> <Gold.Chemscore.DEClash>
0.1329

> <Gold.Chemscore.DEInternal>
1.1419

> <Gold.Chemscore.Rot>
3.0729

> <Gold.Chemscore.Internal.Correction>
   9.000000E+99

> <Gold.Chemscore.Hbonds>
donor molecule, donor type, donor heavy atom, donor atom, acceptor molecule, acceptor atom, score
      L1  H     7    35       P1  7957  0.70
      L1  H    21    48       P1 10186  0.94
      P1  H  7989  7998       L1     7  0.02
      P1  H  8011  8017       L1     7  0.20
      P1  H 10785 10796       L1    21  0.44

> <Gold.Chemscore.Hbond.Weighted>
-8.6564

> <Gold.Chemscore.Metal.Weighted>
-0.0000

> <Gold.Chemscore.Lipo.Weighted>
-9.7751

> <Gold.Chemscore.Internal_Hbond.Weighted>
0.0000

> <Gold.Chemscore.DEClash.Weighted>
0.1329

> <Gold.Chemscore.DEInternal.Weighted>
1.1419

> <Gold.Chemscore.Rot.Weighted>
7.8667

> <Gold.Chemscore.Internal.Correction.Weighted>
   9.000000E+99

> <Gold.Protein.RotatedTorsions>
[ 6907 6896 6895 6894 ] final -178.52 input  -60.11 | X-H torsion
[ 7974 7965 7964 7962 ] final   38.69 input  175.53 | X-H torsion
[ 8008 7997 7996 7995 ] final   75.30 input   59.86 | X-H torsion
[ 10167 10162 10161 10158 ] final  -49.22 input  -65.29 | X-H torsion
[ 10718 10713 10712 10709 ] final -124.84 input   66.30 | X-H torsion
[ 10763 10752 10751 10750 ] final -105.68 input  -60.55 | X-H torsion
[ 11005 11000 10999 10996 ] final   41.46 input  -57.11 | X-H torsion

> <Gold.Protein.ActiveResidues>
 VAL166  LYS551  ARG553  GLY616  TRP617  ASP618  TYR619  PRO620  LYS621  CYS622 
 ASP623  PHE694  ASN695  SER759  ASP760  ASP761  ALA762  ILE779  LEU786  VAL792 
 PHE793  MET794  SER795  GLU796  ALA797  LYS798  CYS799  TRP800  GLU811  SER814 

> <Gold.Protein.RotatedAtoms>
  151.6386  133.3327  159.3124 H   0  0  0  0  0  0  0  0  0  0  0  0  # atno 6907 bound_to 6896
  150.8019  134.7123  159.6620 H   0  0  0  0  0  0  0  0  0  0  0  0  # atno 6908 bound_to 6896
  152.4112  134.6125  160.0081 H   0  0  0  0  0  0  0  0  0  0  0  0  # atno 6909 bound_to 6896
  146.1042  139.5741  142.9394 H   0  0  0  0  0  0  0  0  0  0  0  0  # atno 7974 bound_to 7965
  155.8109  140.3473  155.5457 H   0  0  0  0  0  0  0  0  0  0  0  0  # atno 8008 bound_to 7997
  155.8442  140.0946  157.1736 H   0  0  0  0  0  0  0  0  0  0  0  0  # atno 8009 bound_to 7997
  154.4006  140.1389  156.3752 H   0  0  0  0  0  0  0  0  0  0  0  0  # atno 8010 bound_to 7997
  140.6695  143.2707  151.4183 H   0  0  0  0  0  0  0  0  0  0  0  0  # atno 10167 bound_to 10162
  156.1622  130.6610  151.0066 H   0  0  0  0  0  0  0  0  0  0  0  0  # atno 10718 bound_to 10713
  154.7963  135.4740  154.0168 H   0  0  0  0  0  0  0  0  0  0  0  0  # atno 10763 bound_to 10752
  153.1708  135.6825  153.8617 H   0  0  0  0  0  0  0  0  0  0  0  0  # atno 10764 bound_to 10752
  153.8200  135.3205  155.3387 H   0  0  0  0  0  0  0  0  0  0  0  0  # atno 10765 bound_to 10752
  140.1833  134.4077  155.8188 H   0  0  0  0  0  0  0  0  0  0  0  0  # atno 11005 bound_to 11000
  145.5794  141.0384  143.2130 LP  0  0  0  0  0  0  0  0  0  0  0  0  # atno 17320 bound_to 7965
  144.7457  139.7326  143.7293 LP  0  0  0  0  0  0  0  0  0  0  0  0  # atno 17321 bound_to 7965
  139.5958  144.1401  152.2141 LP  0  0  0  0  0  0  0  0  0  0  0  0  # atno 17342 bound_to 10162
  140.0770  144.5732  150.7150 LP  0  0  0  0  0  0  0  0  0  0  0  0  # atno 17343 bound_to 10162
  157.6741  131.0854  150.7538 LP  0  0  0  0  0  0  0  0  0  0  0  0  # atno 17370 bound_to 10713
  156.7600  130.4795  149.5439 LP  0  0  0  0  0  0  0  0  0  0  0  0  # atno 17371 bound_to 10713
  141.2224  133.7011  156.7968 LP  0  0  0  0  0  0  0  0  0  0  0  0  # atno 17394 bound_to 11000
  140.2243  134.8734  157.3410 LP  0  0  0  0  0  0  0  0  0  0  0  0  # atno 17395 bound_to 11000

$$$$
