AV-unprocessed.smi:2829|AV-procd|sdf|10898|dock6
  -GOLD-   2272015343D 1   1.00000     0.00000
 Structure written by MMmdl.
 50 53  0  0  0  0  0  0  0  0  1 V2000
  151.9240  145.3617  160.4256 C   0  0  0  0  0  0  0  0  0  0  0  0
  151.8844  144.2853  159.3171 C   0  0  0  0  0  0  0  0  0  0  0  0
  150.4050  144.0651  158.9378 C   0  0  0  0  0  0  0  0  0  0  0  0
  152.6606  144.8399  158.1045 C   0  0  0  0  0  0  0  0  0  0  0  0
  152.5092  142.9531  159.7695 C   0  0  0  0  0  0  0  0  0  0  0  0
  153.0672  142.7569  161.0531 C   0  0  0  0  0  0  0  0  0  0  0  0
  153.6082  141.4936  161.3452 C   0  0  0  0  0  0  0  0  0  0  0  0
  153.5650  140.4976  160.3493 C   0  0  0  0  0  0  0  0  0  0  0  0
  154.1309  139.2488  160.7143 N   0  0  0  0  0  0  0  0  0  0  0  0
  155.0242  138.9909  161.6899 C   0  0  0  0  0  0  0  0  0  0  0  0
  155.5228  139.8387  162.4278 O   0  0  0  0  0  0  0  0  0  0  0  0
  155.3415  137.6899  161.8083 N   0  0  0  0  0  0  0  0  0  0  0  0
  156.2769  137.0851  162.7667 C   0  0  2  0  0  0  0  0  0  0  0  0
  156.0394  135.5892  163.0149 C   0  0  2  0  0  0  0  0  0  0  0  0
  155.4175  134.4751  162.2537 C   0  0  0  0  0  0  0  0  0  0  0  0
  154.7183  133.7905  163.4559 C   0  0  0  0  0  0  0  0  0  0  0  0
  154.8701  134.7020  164.5738 O   0  0  0  0  0  0  0  0  0  0  0  0
  154.9344  135.9862  163.9805 C   0  0  1  0  0  0  0  0  0  0  0  0
  155.8227  137.2107  164.2595 C   0  0  0  0  0  0  0  0  0  0  0  0
  156.8389  137.2184  165.4133 C   0  0  0  0  0  0  0  0  0  0  0  0
  156.5753  138.7195  165.5671 C   0  0  0  0  0  0  0  0  0  0  0  0
  155.2502  138.5180  164.8249 C   0  0  0  0  0  0  0  0  0  0  0  0
  153.0137  140.7554  159.1368 N   0  0  0  0  0  0  0  0  0  0  0  0
  152.4977  141.9548  158.8525 N   0  0  0  0  0  0  0  0  0  0  0  0
  151.4756  146.2959  160.0853 H   0  0  0  0  0  0  0  0  0  0  0  0
  152.9463  145.5915  160.7284 H   0  0  0  0  0  0  0  0  0  0  0  0
  151.3711  145.0478  161.3118 H   0  0  0  0  0  0  0  0  0  0  0  0
  149.8359  143.6686  159.7795 H   0  0  0  0  0  0  0  0  0  0  0  0
  150.2983  143.3633  158.1101 H   0  0  0  0  0  0  0  0  0  0  0  0
  149.9298  144.9973  158.6302 H   0  0  0  0  0  0  0  0  0  0  0  0
  152.2523  145.7955  157.7736 H   0  0  0  0  0  0  0  0  0  0  0  0
  152.6196  144.1615  157.2515 H   0  0  0  0  0  0  0  0  0  0  0  0
  153.7120  144.9983  158.3474 H   0  0  0  0  0  0  0  0  0  0  0  0
  153.0927  143.5303  161.8049 H   0  0  0  0  0  0  0  0  0  0  0  0
  154.0459  141.2977  162.3134 H   0  0  0  0  0  0  0  0  0  0  0  0
  153.8097  138.4532  160.1828 H   0  0  0  0  0  0  0  0  0  0  0  0
  154.8835  137.0514  161.1739 H   0  0  0  0  0  0  0  0  0  0  0  0
  157.3225  137.3542  162.6090 H   0  0  0  0  0  0  0  0  0  0  0  0
  156.9199  135.2040  163.5424 H   0  0  0  0  0  0  0  0  0  0  0  0
  154.6999  134.8284  161.5121 H   0  0  0  0  0  0  0  0  0  0  0  0
  156.1507  133.8309  161.7682 H   0  0  0  0  0  0  0  0  0  0  0  0
  153.6614  133.6221  163.2448 H   0  0  0  0  0  0  0  0  0  0  0  0
  155.1728  132.8301  163.7003 H   0  0  0  0  0  0  0  0  0  0  0  0
  153.9898  136.2505  163.4958 H   0  0  0  0  0  0  0  0  0  0  0  0
  156.5016  136.6403  166.2750 H   0  0  0  0  0  0  0  0  0  0  0  0
  157.8607  136.9639  165.1302 H   0  0  0  0  0  0  0  0  0  0  0  0
  156.4739  139.0619  166.5974 H   0  0  0  0  0  0  0  0  0  0  0  0
  157.2831  139.3303  165.0049 H   0  0  0  0  0  0  0  0  0  0  0  0
  155.0255  139.2869  164.0853 H   0  0  0  0  0  0  0  0  0  0  0  0
  154.4105  138.3512  165.5014 H   0  0  0  0  0  0  0  0  0  0  0  0
  1  2  1  0  0  0  0
  1 25  1  0  0  0  0
  1 26  1  0  0  0  0
  1 27  1  0  0  0  0
  2  3  1  0  0  0  0
  2  4  1  0  0  0  0
  2  5  1  0  0  0  0
  3 28  1  0  0  0  0
  3 29  1  0  0  0  0
  3 30  1  0  0  0  0
  4 31  1  0  0  0  0
  4 32  1  0  0  0  0
  4 33  1  0  0  0  0
  5 24  1  0  0  0  0
  5  6  2  0  0  0  0
  6  7  1  0  0  0  0
  6 34  1  0  0  0  0
  7  8  2  0  0  0  0
  7 35  1  0  0  0  0
  8  9  1  0  0  0  0
  8 23  1  0  0  0  0
  9 10  1  0  0  0  0
  9 36  1  0  0  0  0
 10 11  2  0  0  0  0
 10 12  1  0  0  0  0
 12 13  1  0  0  0  0
 12 37  1  0  0  0  0
 13 19  1  0  0  0  0
 13 14  1  0  0  0  0
 13 38  1  0  0  0  0
 14 18  1  0  0  0  0
 14 15  1  0  0  0  0
 14 39  1  0  0  0  0
 15 16  1  0  0  0  0
 15 40  1  0  0  0  0
 15 41  1  0  0  0  0
 16 17  1  0  0  0  0
 16 42  1  0  0  0  0
 16 43  1  0  0  0  0
 17 18  1  0  0  0  0
 18 19  1  0  0  0  0
 18 44  1  0  0  0  0
 19 22  1  0  0  0  0
 19 20  1  0  0  0  0
 20 21  1  0  0  0  0
 20 45  1  0  0  0  0
 20 46  1  0  0  0  0
 21 22  1  0  0  0  0
 21 47  1  0  0  0  0
 21 48  1  0  0  0  0
 22 49  1  0  0  0  0
 22 50  1  0  0  0  0
 23 24  2  0  0  0  0
M  END
> <s_m_source_file>
AV-unprocessed.smi

> <i_m_source_file_index>
2829

> <i_lp_mmshare_version>
43012

> <i_f3d_flags>
0

> <s_epik_input>
W0NIM11DKFtDSDNdKShbQ0gzXSljMVtjSF1bY0hdYyhubjEpW05IXUMoPU8pW05IXVtDQEBIXTJbQ0BIXShbQ0gyXVtDSDJdTzMpW0NAQEhdM0MyNFtDSDJdW0NIMl1bQ0gyXTQ=

> <s_epik_cmdline>
J2VwaWtfcHl0aG9uJywgJy1waCcsICc3LjAnLCAnLXRuJywgJzgnLCAnLW1hJywgJzIwMCcsICctbWV0YWxfYmluZGluZycsICctaW1hZScsICc8aW5maWxlLm1hZT4nLCAnLW9tYWUnLCAnPG91dGZpbGUubWFlPic=

> <r_lp_tautomer_probability>
1

> <r_epik_Ionization_Penalty>
0.011915

> <r_epik_Ionization_Penalty_Charging>
0

> <r_epik_Ionization_Penalty_Neutral>
0.011915

> <r_epik_State_Penalty>
0.00486223

> <r_epik_Charging_Adjusted_Penalty>
0.00486223

> <i_epik_Tot_Q>
0

> <i_epik_Tot_abs_Q>
0

> <r_epik_Metal_State_Penalty>
-0

> <b_epik_Metal_Only>
0

> <s_lp_Force_Field>
OPLS_2005

> <r_lp_Energy>
85.5181

> <b_lp_Chiralities_Consistent>
1

> <s_lp_Variant>
AV-unprocessed.smi:2829-1

> <Gold.Version>
5.8.1

> <Gold.Id.Protein>
6NUR|6NUR_protein|mol2

> <Gold.PLP.Fitness>
44.1958

> <Gold.PLP.PLP>
-44.4149

> <Gold.PLP.part.hbond>
0.0000

> <Gold.PLP.part.metal>
0.0000

> <Gold.PLP.part.buried>
-7.4563

> <Gold.PLP.part.nonpolar>
-36.8724

> <Gold.PLP.part.repulsive>
0.1203

> <Gold.PLP.ligand.clash>
0.0000

> <Gold.PLP.ligand.torsion>
0.2692

> <Gold.PLP.Chemscore.Hbond>
0.0000

> <Gold.PLP.Chemscore.CHOScore>
0.0000

> <Gold.PLP.Chemscore.Metal>
0.0000

> <Gold.PLP.Chemscore.Internal.Correction>
0.3193

> <Gold.Rescore>
     Score         DG    S(hbond)    S(metal)    S(lipo)     H(rot)  DE(clash)    DE(int)     intcor
     14.20     -17.60       0.17        0.00     124.33       1.16       0.33       3.07       ----

> <Gold.Chemscore.Fitness>
14.1986

> <Gold.Chemscore.DG>
-17.6038

> <Gold.Chemscore.ZeroCoef>
-5.4800

> <Gold.Chemscore.Hbond>
0.1652

> <Gold.Chemscore.Metal>
0.0000

> <Gold.Chemscore.Lipo>
124.3272

> <Gold.Chemscore.Internal_Hbond>
0.0000

> <Gold.Chemscore.DEClash>
0.3343

> <Gold.Chemscore.DEInternal>
3.0709

> <Gold.Chemscore.Rot>
1.1618

> <Gold.Chemscore.Internal.Correction>
   9.000000E+99

> <Gold.Chemscore.Hbond.Weighted>
-0.5516

> <Gold.Chemscore.Metal.Weighted>
-0.0000

> <Gold.Chemscore.Lipo.Weighted>
-14.5463

> <Gold.Chemscore.Internal_Hbond.Weighted>
0.0000

> <Gold.Chemscore.DEClash.Weighted>
0.3343

> <Gold.Chemscore.DEInternal.Weighted>
3.0709

> <Gold.Chemscore.Rot.Weighted>
2.9741

> <Gold.Chemscore.Internal.Correction.Weighted>
   9.000000E+99

> <Gold.Protein.RotatedTorsions>
[ 6907 6896 6895 6894 ] final  -55.61 input  -60.11 | X-H torsion
[ 7974 7965 7964 7962 ] final  179.66 input  175.53 | X-H torsion
[ 8008 7997 7996 7995 ] final  143.29 input   59.86 | X-H torsion
[ 10167 10162 10161 10158 ] final -146.76 input  -65.29 | X-H torsion
[ 10718 10713 10712 10709 ] final  -82.78 input   66.30 | X-H torsion
[ 10763 10752 10751 10750 ] final  132.91 input  -60.55 | X-H torsion
[ 11005 11000 10999 10996 ] final  -34.15 input  -57.11 | X-H torsion

> <Gold.Protein.ActiveResidues>
 VAL166  LYS551  ARG553  GLY616  TRP617  ASP618  TYR619  PRO620  LYS621  CYS622 
 ASP623  PHE694  ASN695  SER759  ASP760  ASP761  ALA762  ILE779  LEU786  VAL792 
 PHE793  MET794  SER795  GLU796  ALA797  LYS798  CYS799  TRP800  GLU811  SER814 

> <Gold.Protein.RotatedAtoms>
  150.8237  134.7458  159.6794 H   0  0  0  0  0  0  0  0  0  0  0  0  # atno 6907 bound_to 6896
  152.4350  134.5700  159.9928 H   0  0  0  0  0  0  0  0  0  0  0  0  # atno 6908 bound_to 6896
  151.5878  133.3332  159.3057 H   0  0  0  0  0  0  0  0  0  0  0  0  # atno 6909 bound_to 6896
  144.7144  140.0581  143.6433 H   0  0  0  0  0  0  0  0  0  0  0  0  # atno 7974 bound_to 7965
  156.2933  140.2266  156.4867 H   0  0  0  0  0  0  0  0  0  0  0  0  # atno 8008 bound_to 7997
  154.7806  140.0460  157.1145 H   0  0  0  0  0  0  0  0  0  0  0  0  # atno 8009 bound_to 7997
  154.9763  140.3073  155.4969 H   0  0  0  0  0  0  0  0  0  0  0  0  # atno 8010 bound_to 7997
  139.7684  143.8274  152.2620 H   0  0  0  0  0  0  0  0  0  0  0  0  # atno 10167 bound_to 10162
  156.0028  130.4645  150.4157 H   0  0  0  0  0  0  0  0  0  0  0  0  # atno 10718 bound_to 10713
  153.7984  135.3145  155.3387 H   0  0  0  0  0  0  0  0  0  0  0  0  # atno 10763 bound_to 10752
  154.8099  135.4674  154.0491 H   0  0  0  0  0  0  0  0  0  0  0  0  # atno 10764 bound_to 10752
  153.1831  135.6896  153.8539 H   0  0  0  0  0  0  0  0  0  0  0  0  # atno 10765 bound_to 10752
  140.9693  133.7119  156.1497 H   0  0  0  0  0  0  0  0  0  0  0  0  # atno 11005 bound_to 11000
  145.9887  139.2998  143.0998 LP  0  0  0  0  0  0  0  0  0  0  0  0  # atno 17320 bound_to 7965
  145.8928  140.9293  143.0543 LP  0  0  0  0  0  0  0  0  0  0  0  0  # atno 17321 bound_to 7965
  139.8301  144.7257  150.9461 LP  0  0  0  0  0  0  0  0  0  0  0  0  # atno 17342 bound_to 10162
  140.7812  143.4078  151.1043 LP  0  0  0  0  0  0  0  0  0  0  0  0  # atno 17343 bound_to 10162
  157.2217  131.0484  151.2543 LP  0  0  0  0  0  0  0  0  0  0  0  0  # atno 17370 bound_to 10713
  157.3794  130.7223  149.6620 LP  0  0  0  0  0  0  0  0  0  0  0  0  # atno 17371 bound_to 10713
  140.7352  134.4210  157.5561 LP  0  0  0  0  0  0  0  0  0  0  0  0  # atno 17394 bound_to 11000
  139.8906  134.8800  156.2361 LP  0  0  0  0  0  0  0  0  0  0  0  0  # atno 17395 bound_to 11000

$$$$
