AV-unprocessed.smi:1367|AV-procd|sdf|5574|dock5
  -GOLD-   22720 5163D 1   1.00000     0.00000
 Structure written by MMmdl.
 29 29  0  0  0  0  0  0  0  0  2 V2000
  151.7548  142.3803  157.3875 C   0  0  0  0  0  0  0  0  0  0  0  0
  151.4313  141.1647  156.5452 C   0  0  0  0  0  0  0  0  0  0  0  0
  150.3427  141.1391  155.8750 N   0  0  0  0  0  0  0  0  0  0  0  0
  150.0383  140.0122  155.0926 C   0  0  0  0  0  0  0  0  0  0  0  0
  148.7229  140.0647  154.3356 C   0  0  0  0  0  0  0  0  0  0  0  0
  150.8851  138.9448  155.0332 C   0  0  0  0  0  0  0  0  0  0  0  0
  150.5953  137.6920  154.2051 C   0  0  0  0  0  0  0  0  0  0  0  0
  150.4542  136.3892  154.9955 C   0  0  0  0  0  0  0  0  0  0  0  0
  150.9585  136.2919  156.1140 O   0  0  0  0  0  0  0  0  0  0  0  0
  149.7646  135.3995  154.4080 N   0  0  0  0  0  0  0  0  0  0  0  0
  149.5567  134.0685  154.9662 C   0  0  0  0  0  0  0  0  0  0  0  0
  148.5550  133.2465  154.1369 C   0  0  0  0  0  0  0  0  0  0  0  0
  149.0753  133.0118  152.9327 F   0  0  0  0  0  0  0  0  0  0  0  0
  148.3119  132.0780  154.7312 F   0  0  0  0  0  0  0  0  0  0  0  0
  147.4072  133.9064  153.9813 F   0  0  0  0  0  0  0  0  0  0  0  0
  152.1277  139.0128  155.8231 C   0  0  0  0  0  0  0  0  0  0  0  0
  152.9177  138.0695  155.8193 O   0  0  0  0  0  0  0  0  0  0  0  0
  152.3521  140.1411  156.5544 N   0  5  0  0  0  0  0  0  0  0  0  0
  150.9068  143.0653  157.4315 H   0  0  0  0  0  0  0  0  0  0  0  0
  152.6066  142.9146  156.9660 H   0  0  0  0  0  0  0  0  0  0  0  0
  152.0033  142.0817  158.4063 H   0  0  0  0  0  0  0  0  0  0  0  0
  148.8998  140.0350  153.2606 H   0  0  0  0  0  0  0  0  0  0  0  0
  148.1746  140.9804  154.5594 H   0  0  0  0  0  0  0  0  0  0  0  0
  148.0884  139.2213  154.6082 H   0  0  0  0  0  0  0  0  0  0  0  0
  149.6728  137.8542  153.6470 H   0  0  0  0  0  0  0  0  0  0  0  0
  151.3569  137.5478  153.4382 H   0  0  0  0  0  0  0  0  0  0  0  0
  149.3839  135.5727  153.4882 H   0  0  0  0  0  0  0  0  0  0  0  0
  150.5058  133.5374  155.0541 H   0  0  0  0  0  0  0  0  0  0  0  0
  149.1784  134.1903  155.9814 H   0  0  0  0  0  0  0  0  0  0  0  0
  1  2  1  0  0  0  0
  1 19  1  0  0  0  0
  1 20  1  0  0  0  0
  1 21  1  0  0  0  0
  2 18  1  0  0  0  0
  2  3  2  0  0  0  0
  3  4  1  0  0  0  0
  4  5  1  0  0  0  0
  4  6  2  0  0  0  0
  5 22  1  0  0  0  0
  5 23  1  0  0  0  0
  5 24  1  0  0  0  0
  6  7  1  0  0  0  0
  6 16  1  0  0  0  0
  7  8  1  0  0  0  0
  7 25  1  0  0  0  0
  7 26  1  0  0  0  0
  8  9  2  0  0  0  0
  8 10  1  0  0  0  0
 10 11  1  0  0  0  0
 10 27  1  0  0  0  0
 11 12  1  0  0  0  0
 11 28  1  0  0  0  0
 11 29  1  0  0  0  0
 12 13  1  0  0  0  0
 12 14  1  0  0  0  0
 12 15  1  0  0  0  0
 16 17  2  0  0  0  0
 16 18  1  0  0  0  0
M  CHG  1  18  -1
M  END
> <s_m_source_file>
AV-unprocessed.smi

> <i_m_source_file_index>
1367

> <i_lp_mmshare_version>
43012

> <i_f3d_flags>
0

> <s_epik_input>
W0NIM11jMW5jKFtDSDNdKWMoYyg9TylbbkhdMSlbQ0gyXUMoPU8pW05IXVtDSDJdQyhGKShGKUY=

> <s_epik_cmdline>
J2VwaWtfcHl0aG9uJywgJy1waCcsICc3LjAnLCAnLXRuJywgJzgnLCAnLW1hJywgJzIwMCcsICctbWV0YWxfYmluZGluZycsICctaW1hZScsICc8aW5maWxlLm1hZT4nLCAnLW9tYWUnLCAnPG91dGZpbGUubWFlPic=

> <r_lp_tautomer_probability>
0.839158

> <r_epik_Ionization_Penalty>
6.39142

> <r_epik_Ionization_Penalty_Charging>
4.71143e-08

> <r_epik_Ionization_Penalty_Neutral>
6.39142

> <r_epik_State_Penalty>
4.29634

> <r_epik_Charging_Adjusted_Penalty>
4.29634

> <i_epik_Tot_Q>
-1

> <i_epik_Tot_abs_Q>
1

> <r_epik_Metal_State_Penalty>
0.740852

> <b_epik_Metal_Only>
1

> <s_lp_Force_Field>
OPLS_2005

> <r_lp_Energy>
6.28206

> <b_lp_Chiralities_Consistent>
1

> <s_lp_Variant>
AV-unprocessed.smi:1367-3

> <Gold.Version>
5.8.1

> <Gold.Id.Protein>
6NUR|6NUR_protein|mol2

> <Gold.PLP.Fitness>
34.6021

> <Gold.PLP.PLP>
-26.3525

> <Gold.PLP.part.hbond>
-2.3714

> <Gold.PLP.part.metal>
0.0000

> <Gold.PLP.part.buried>
-2.0337

> <Gold.PLP.part.nonpolar>
-21.5546

> <Gold.PLP.part.repulsive>
0.1482

> <Gold.PLP.ligand.clash>
0.0000

> <Gold.PLP.ligand.torsion>
0.3799

> <Gold.PLP.Chemscore.Hbond>
3.0000

> <Gold.PLP.Chemscore.CHOScore>
0.0000

> <Gold.PLP.Chemscore.Metal>
0.0000

> <Gold.Chemscore.Hbonds>
donor molecule, donor type, donor heavy atom, donor atom, acceptor molecule, acceptor atom, score
      L1  H    10    27       P1  7948  1.00
      P1  H  7997  8009       L1    18  1.90

> <Gold.PLP.Chemscore.Internal.Correction>
0.0093

> <Gold.Rescore>
     Score         DG    S(hbond)    S(metal)    S(lipo)     H(rot)  DE(clash)    DE(int)     intcor
      9.94     -11.13       1.75        0.00      38.98       1.86       0.55       0.64       ----

> <Gold.Chemscore.Fitness>
9.9446

> <Gold.Chemscore.DG>
-11.1269

> <Gold.Chemscore.ZeroCoef>
-5.4800

> <Gold.Chemscore.Hbond>
1.7521

> <Gold.Chemscore.Metal>
0.0000

> <Gold.Chemscore.Lipo>
38.9818

> <Gold.Chemscore.Internal_Hbond>
0.0000

> <Gold.Chemscore.DEClash>
0.5461

> <Gold.Chemscore.DEInternal>
0.6361

> <Gold.Chemscore.Rot>
1.8617

> <Gold.Chemscore.Internal.Correction>
   9.000000E+99

> <Gold.Chemscore.Hbonds>
donor molecule, donor type, donor heavy atom, donor atom, acceptor molecule, acceptor atom, score
      L1  H    10    27       P1  7948  0.30
      P1  H  7997  8009       L1    18  0.20

> <Gold.Chemscore.Hbond.Weighted>
-5.8520

> <Gold.Chemscore.Metal.Weighted>
-0.0000

> <Gold.Chemscore.Lipo.Weighted>
-4.5609

> <Gold.Chemscore.Internal_Hbond.Weighted>
0.0000

> <Gold.Chemscore.DEClash.Weighted>
0.5461

> <Gold.Chemscore.DEInternal.Weighted>
0.6361

> <Gold.Chemscore.Rot.Weighted>
4.7660

> <Gold.Chemscore.Internal.Correction.Weighted>
   9.000000E+99

> <Gold.Protein.RotatedTorsions>
[ 6907 6896 6895 6894 ] final  -92.87 input  -60.11 | X-H torsion
[ 7974 7965 7964 7962 ] final  -86.14 input  175.53 | X-H torsion
[ 8008 7997 7996 7995 ] final -175.46 input   59.86 | X-H torsion
[ 10167 10162 10161 10158 ] final -149.38 input  -65.29 | X-H torsion
[ 10718 10713 10712 10709 ] final  142.61 input   66.30 | X-H torsion
[ 10763 10752 10751 10750 ] final  -67.03 input  -60.55 | X-H torsion
[ 11005 11000 10999 10996 ] final  -69.37 input  -57.11 | X-H torsion

> <Gold.Protein.ActiveResidues>
 VAL166  LYS551  ARG553  GLY616  TRP617  ASP618  TYR619  PRO620  LYS621  CYS622 
 ASP623  PHE694  ASN695  SER759  ASP760  ASP761  ALA762  ILE779  LEU786  VAL792 
 PHE793  MET794  SER795  GLU796  ALA797  LYS798  CYS799  TRP800  GLU811  SER814 

> <Gold.Protein.RotatedAtoms>
  150.6913  134.2054  159.4338 H   0  0  0  0  0  0  0  0  0  0  0  0  # atno 6907 bound_to 6896
  152.0019  134.9921  160.0574 H   0  0  0  0  0  0  0  0  0  0  0  0  # atno 6908 bound_to 6896
  152.1571  133.4523  159.4879 H   0  0  0  0  0  0  0  0  0  0  0  0  # atno 6909 bound_to 6896
  145.4838  140.9556  143.1850 H   0  0  0  0  0  0  0  0  0  0  0  0  # atno 7974 bound_to 7965
  155.9828  140.1185  157.0711 H   0  0  0  0  0  0  0  0  0  0  0  0  # atno 8008 bound_to 7997
  154.4188  140.1141  156.5526 H   0  0  0  0  0  0  0  0  0  0  0  0  # atno 8009 bound_to 7997
  155.6448  140.3473  155.4729 H   0  0  0  0  0  0  0  0  0  0  0  0  # atno 8010 bound_to 7997
  139.7448  143.8608  152.2572 H   0  0  0  0  0  0  0  0  0  0  0  0  # atno 10167 bound_to 10162
  157.3786  131.0989  151.0760 H   0  0  0  0  0  0  0  0  0  0  0  0  # atno 10718 bound_to 10713
  154.3685  135.6100  153.5727 H   0  0  0  0  0  0  0  0  0  0  0  0  # atno 10763 bound_to 10752
  152.9791  135.5832  154.4550 H   0  0  0  0  0  0  0  0  0  0  0  0  # atno 10764 bound_to 10752
  154.4300  135.2847  155.1896 H   0  0  0  0  0  0  0  0  0  0  0  0  # atno 10765 bound_to 10752
  141.1552  133.6763  156.6590 H   0  0  0  0  0  0  0  0  0  0  0  0  # atno 11005 bound_to 11000
  144.7873  139.6400  143.7128 LP  0  0  0  0  0  0  0  0  0  0  0  0  # atno 17320 bound_to 7965
  146.2325  139.5841  142.9546 LP  0  0  0  0  0  0  0  0  0  0  0  0  # atno 17321 bound_to 7965
  139.8569  144.7137  150.9147 LP  0  0  0  0  0  0  0  0  0  0  0  0  # atno 17342 bound_to 10162
  140.7790  143.3851  151.1408 LP  0  0  0  0  0  0  0  0  0  0  0  0  # atno 17343 bound_to 10162
  157.1837  130.6321  149.5680 LP  0  0  0  0  0  0  0  0  0  0  0  0  # atno 17370 bound_to 10713
  155.9771  130.4745  150.6569 LP  0  0  0  0  0  0  0  0  0  0  0  0  # atno 17371 bound_to 10713
  140.3262  134.7966  157.4291 LP  0  0  0  0  0  0  0  0  0  0  0  0  # atno 17394 bound_to 11000
  140.1055  134.5415  155.8313 LP  0  0  0  0  0  0  0  0  0  0  0  0  # atno 17395 bound_to 11000

$$$$
