AV-unprocessed.smi:1930|AV-procd|sdf|7809|dock4
  -GOLD-   22720 9553D 1   1.00000     0.00000
 Structure written by MMmdl.
 41 42  0  0  0  0  0  0  0  0  1 V2000
  156.9736  135.1214  164.7420 C   0  0  0  0  0  0  0  0  0  0  0  0
  155.4491  134.7443  163.7847 S   0  0  0  0  0  0  0  0  0  0  0  0
  155.8376  134.0149  162.5677 O   0  0  0  0  0  0  0  0  0  0  0  0
  154.4616  134.1568  164.7030 O   0  0  0  0  0  0  0  0  0  0  0  0
  154.8656  136.3108  163.3049 N   0  0  0  0  0  0  0  0  0  0  0  0
  154.8207  136.6572  161.8656 C   0  0  0  0  0  0  0  0  0  0  0  0
  155.9559  137.6250  161.4795 C   0  0  0  0  0  0  0  0  0  0  0  0
  155.8956  138.7989  162.3605 N   0  0  0  0  0  0  0  0  0  0  0  0
  155.4328  140.0322  162.0371 C   0  0  0  0  0  0  0  0  0  0  0  0
  155.1796  140.8989  162.8749 O   0  0  0  0  0  0  0  0  0  0  0  0
  155.2958  140.2532  160.7198 N   0  0  0  0  0  0  0  0  0  0  0  0
  154.8139  141.4961  160.1348 C   0  0  0  0  0  0  0  0  0  0  0  0
  153.4798  141.9078  160.7708 C   0  0  0  0  0  0  0  0  0  0  0  0
  152.6883  142.8468  159.8821 C   0  0  0  0  0  0  0  0  0  0  0  0
  152.3504  144.1435  160.3210 C   0  0  0  0  0  0  0  0  0  0  0  0
  151.6159  144.9813  159.4598 C   0  0  0  0  0  0  0  0  0  0  0  0
  151.2504  144.4853  158.1926 C   0  0  0  0  0  0  0  0  0  0  0  0
  151.5696  143.2462  157.7610 N   0  0  0  0  0  0  0  0  0  0  0  0
  152.2742  142.4491  158.5930 C   0  0  0  0  0  0  0  0  0  0  0  0
  156.1678  138.3997  163.7427 C   0  0  0  0  0  0  0  0  0  0  0  0
  155.0432  137.4606  164.2215 C   0  0  0  0  0  0  0  0  0  0  0  0
  157.4160  134.1886  165.0906 H   0  0  0  0  0  0  0  0  0  0  0  0
  156.7251  135.7404  165.6027 H   0  0  0  0  0  0  0  0  0  0  0  0
  157.6905  135.6388  164.1064 H   0  0  0  0  0  0  0  0  0  0  0  0
  154.8685  135.7560  161.2548 H   0  0  0  0  0  0  0  0  0  0  0  0
  153.8570  137.1216  161.6538 H   0  0  0  0  0  0  0  0  0  0  0  0
  156.9250  137.1398  161.5954 H   0  0  0  0  0  0  0  0  0  0  0  0
  155.8861  137.8668  160.4192 H   0  0  0  0  0  0  0  0  0  0  0  0
  155.5324  139.5062  160.0835 H   0  0  0  0  0  0  0  0  0  0  0  0
  155.5592  142.2785  160.2876 H   0  0  0  0  0  0  0  0  0  0  0  0
  154.6941  141.3682  159.0576 H   0  0  0  0  0  0  0  0  0  0  0  0
  152.8763  141.0235  160.9814 H   0  0  0  0  0  0  0  0  0  0  0  0
  153.6564  142.3962  161.7303 H   0  0  0  0  0  0  0  0  0  0  0  0
  152.6487  144.4915  161.2990 H   0  0  0  0  0  0  0  0  0  0  0  0
  151.3394  145.9802  159.7631 H   0  0  0  0  0  0  0  0  0  0  0  0
  150.6866  145.1007  157.5073 H   0  0  0  0  0  0  0  0  0  0  0  0
  152.5147  141.4653  158.2176 H   0  0  0  0  0  0  0  0  0  0  0  0
  157.1345  137.8986  163.7930 H   0  0  0  0  0  0  0  0  0  0  0  0
  156.2490  139.2538  164.4165 H   0  0  0  0  0  0  0  0  0  0  0  0
  154.1029  138.0112  164.2678 H   0  0  0  0  0  0  0  0  0  0  0  0
  155.2464  137.1136  165.2341 H   0  0  0  0  0  0  0  0  0  0  0  0
  1  2  1  0  0  0  0
  1 22  1  0  0  0  0
  1 23  1  0  0  0  0
  1 24  1  0  0  0  0
  2  3  2  0  0  0  0
  2  4  2  0  0  0  0
  2  5  1  0  0  0  0
  5 21  1  0  0  0  0
  5  6  1  0  0  0  0
  6  7  1  0  0  0  0
  6 25  1  0  0  0  0
  6 26  1  0  0  0  0
  7  8  1  0  0  0  0
  7 27  1  0  0  0  0
  7 28  1  0  0  0  0
  8  9  1  0  0  0  0
  8 20  1  0  0  0  0
  9 10  2  0  0  0  0
  9 11  1  0  0  0  0
 11 12  1  0  0  0  0
 11 29  1  0  0  0  0
 12 13  1  0  0  0  0
 12 30  1  0  0  0  0
 12 31  1  0  0  0  0
 13 14  1  0  0  0  0
 13 32  1  0  0  0  0
 13 33  1  0  0  0  0
 14 19  1  0  0  0  0
 14 15  2  0  0  0  0
 15 16  1  0  0  0  0
 15 34  1  0  0  0  0
 16 17  2  0  0  0  0
 16 35  1  0  0  0  0
 17 18  1  0  0  0  0
 17 36  1  0  0  0  0
 18 19  2  0  0  0  0
 19 37  1  0  0  0  0
 20 21  1  0  0  0  0
 20 38  1  0  0  0  0
 20 39  1  0  0  0  0
 21 40  1  0  0  0  0
 21 41  1  0  0  0  0
M  END
> <s_m_source_file>
AV-unprocessed.smi

> <i_m_source_file_index>
1930

> <i_lp_mmshare_version>
43012

> <i_f3d_flags>
0

> <s_epik_input>
W0NIM11TKD1PKSg9TylOMVtDSDJdW0NIMl1OKFtDSDJdW0NIMl0xKUMoPU8pW05IXVtDSDJdW0NIMl1jMltjSF1bY0hdW2NIXW5bY0hdMg==

> <s_epik_cmdline>
J2VwaWtfcHl0aG9uJywgJy1waCcsICc3LjAnLCAnLXRuJywgJzgnLCAnLW1hJywgJzIwMCcsICctbWV0YWxfYmluZGluZycsICctaW1hZScsICc8aW5maWxlLm1hZT4nLCAnLW9tYWUnLCAnPG91dGZpbGUubWFlPic=

> <r_epik_Ionization_Penalty>
0.0143741

> <r_epik_Ionization_Penalty_Charging>
0

> <r_epik_Ionization_Penalty_Neutral>
0.0143741

> <r_epik_State_Penalty>
0.0112033

> <r_epik_Charging_Adjusted_Penalty>
0.0112033

> <i_epik_Tot_Q>
0

> <i_epik_Tot_abs_Q>
0

> <r_epik_Metal_State_Penalty>
0.0109376

> <b_epik_Metal_Only>
0

> <s_lp_Force_Field>
OPLS_2005

> <r_lp_Energy>
24.8651

> <b_lp_Chiralities_Consistent>
1

> <s_lp_Variant>
AV-unprocessed.smi:1930-1

> <Gold.Version>
5.8.1

> <Gold.Id.Protein>
6NUR|6NUR_protein|mol2

> <Gold.PLP.Fitness>
45.7200

> <Gold.PLP.PLP>
-43.2013

> <Gold.PLP.part.hbond>
-1.0000

> <Gold.PLP.part.metal>
0.0000

> <Gold.PLP.part.buried>
-6.1879

> <Gold.PLP.part.nonpolar>
-35.4804

> <Gold.PLP.part.repulsive>
0.2284

> <Gold.PLP.ligand.clash>
0.0000

> <Gold.PLP.ligand.torsion>
1.2978

> <Gold.PLP.Chemscore.Hbond>
0.0000

> <Gold.PLP.Chemscore.CHOScore>
1.0000

> <Gold.PLP.Chemscore.Metal>
0.0000

> <Gold.Chemscore.Hbonds>
donor molecule, donor type, donor heavy atom, donor atom, acceptor molecule, acceptor atom, score
      L1  C    17    36       P1  8028  0.85
      L1  C    17    36       P1  8029  0.01

> <Gold.PLP.Chemscore.Internal.Correction>
2.1142

> <Gold.Rescore>
     Score         DG    S(hbond)    S(metal)    S(lipo)     H(rot)  DE(clash)    DE(int)     intcor
     11.76     -14.52       0.00        0.00     107.95       1.40       0.13       2.63       ----

> <Gold.Chemscore.Fitness>
11.7577

> <Gold.Chemscore.DG>
-14.5170

> <Gold.Chemscore.ZeroCoef>
-5.4800

> <Gold.Chemscore.Hbond>
0.0000

> <Gold.Chemscore.Metal>
0.0000

> <Gold.Chemscore.Lipo>
107.9535

> <Gold.Chemscore.Internal_Hbond>
0.0000

> <Gold.Chemscore.DEClash>
0.1251

> <Gold.Chemscore.DEInternal>
2.6342

> <Gold.Chemscore.Rot>
1.4037

> <Gold.Chemscore.Internal.Correction>
   9.000000E+99

> <Gold.Chemscore.Hbond.Weighted>
-0.0000

> <Gold.Chemscore.Metal.Weighted>
-0.0000

> <Gold.Chemscore.Lipo.Weighted>
-12.6306

> <Gold.Chemscore.Internal_Hbond.Weighted>
0.0000

> <Gold.Chemscore.DEClash.Weighted>
0.1251

> <Gold.Chemscore.DEInternal.Weighted>
2.6342

> <Gold.Chemscore.Rot.Weighted>
3.5935

> <Gold.Chemscore.Internal.Correction.Weighted>
   9.000000E+99

> <Gold.Protein.RotatedTorsions>
[ 6907 6896 6895 6894 ] final -142.84 input  -60.11 | X-H torsion
[ 7974 7965 7964 7962 ] final -162.52 input  175.53 | X-H torsion
[ 8008 7997 7996 7995 ] final -167.58 input   59.86 | X-H torsion
[ 10167 10162 10161 10158 ] final  122.31 input  -65.29 | X-H torsion
[ 10718 10713 10712 10709 ] final  -26.31 input   66.30 | X-H torsion
[ 10763 10752 10751 10750 ] final   94.31 input  -60.55 | X-H torsion
[ 11005 11000 10999 10996 ] final   35.53 input  -57.11 | X-H torsion

> <Gold.Protein.ActiveResidues>
 VAL166  LYS551  ARG553  GLY616  TRP617  ASP618  TYR619  PRO620  LYS621  CYS622 
 ASP623  PHE694  ASN695  SER759  ASP760  ASP761  ALA762  ILE779  LEU786  VAL792 
 PHE793  MET794  SER795  GLU796  ALA797  LYS798  CYS799  TRP800  GLU811  SER814 

> <Gold.Protein.RotatedAtoms>
  151.0924  133.5306  159.2614 H   0  0  0  0  0  0  0  0  0  0  0  0  # atno 6907 bound_to 6896
  151.2168  135.0502  159.8943 H   0  0  0  0  0  0  0  0  0  0  0  0  # atno 6908 bound_to 6896
  152.5435  134.0732  159.8256 H   0  0  0  0  0  0  0  0  0  0  0  0  # atno 6909 bound_to 6896
  144.7355  140.3241  143.6165 H   0  0  0  0  0  0  0  0  0  0  0  0  # atno 7974 bound_to 7965
  155.8796  140.1007  157.1494 H   0  0  0  0  0  0  0  0  0  0  0  0  # atno 8008 bound_to 7997
  154.4004  140.1331  156.4243 H   0  0  0  0  0  0  0  0  0  0  0  0  # atno 8009 bound_to 7997
  155.7658  140.3462  155.5223 H   0  0  0  0  0  0  0  0  0  0  0  0  # atno 8010 bound_to 7997
  139.5866  144.7009  151.3393 H   0  0  0  0  0  0  0  0  0  0  0  0  # atno 10167 bound_to 10162
  156.4528  130.4487  149.6978 H   0  0  0  0  0  0  0  0  0  0  0  0  # atno 10718 bound_to 10713
  153.2402  135.4294  155.0690 H   0  0  0  0  0  0  0  0  0  0  0  0  # atno 10763 bound_to 10752
  154.8337  135.3401  154.6660 H   0  0  0  0  0  0  0  0  0  0  0  0  # atno 10764 bound_to 10752
  153.7084  135.7024  153.5100 H   0  0  0  0  0  0  0  0  0  0  0  0  # atno 10765 bound_to 10752
  140.2417  134.3406  155.7923 H   0  0  0  0  0  0  0  0  0  0  0  0  # atno 11005 bound_to 11000
  145.7539  139.1802  143.2306 LP  0  0  0  0  0  0  0  0  0  0  0  0  # atno 17320 bound_to 7965
  146.1039  140.7510  142.9535 LP  0  0  0  0  0  0  0  0  0  0  0  0  # atno 17321 bound_to 7965
  140.7137  143.7324  150.7614 LP  0  0  0  0  0  0  0  0  0  0  0  0  # atno 17342 bound_to 10162
  140.0869  143.4914  152.2500 LP  0  0  0  0  0  0  0  0  0  0  0  0  # atno 17343 bound_to 10162
  156.3798  130.7573  151.2565 LP  0  0  0  0  0  0  0  0  0  0  0  0  # atno 17370 bound_to 10713
  157.7502  131.0299  150.4113 LP  0  0  0  0  0  0  0  0  0  0  0  0  # atno 17371 bound_to 10713
  141.2210  133.7303  156.8896 LP  0  0  0  0  0  0  0  0  0  0  0  0  # atno 17394 bound_to 11000
  140.1646  134.9142  157.2758 LP  0  0  0  0  0  0  0  0  0  0  0  0  # atno 17395 bound_to 11000

$$$$
