AV-unprocessed.smi:1862|AV-procd|sdf|7549|dock4
  -GOLD-   22720 9263D 1   1.00000     0.00000
 Structure written by MMmdl.
 40 41  0  0  0  0  0  0  0  0  1 V2000
  144.4900  143.2281  161.8227 C   0  0  0  0  0  0  0  0  0  0  0  0
  145.7918  143.9763  161.4856 C   0  0  0  0  0  0  0  0  0  0  0  0
  146.1067  144.1376  159.9724 C   0  0  0  0  0  0  0  0  0  0  0  0
  146.1225  142.7515  159.2917 C   0  0  0  0  0  0  0  0  0  0  0  0
  145.0176  144.9901  159.2920 C   0  0  0  0  0  0  0  0  0  0  0  0
  147.3878  144.8222  159.7505 N   0  0  0  0  0  0  0  0  0  0  0  0
  148.4924  144.7990  160.5183 C   0  0  0  0  0  0  0  0  0  0  0  0
  148.5793  144.1710  161.5740 O   0  0  0  0  0  0  0  0  0  0  0  0
  149.6782  145.6282  160.0141 C   0  0  0  0  0  0  0  0  0  0  0  0
  150.7926  144.7411  159.5372 C   0  0  0  0  0  0  0  0  0  0  0  0
  151.2461  144.6076  158.2474 C   0  0  0  0  0  0  0  0  0  0  0  0
  152.5557  143.4644  158.1302 S   0  0  0  0  0  0  0  0  0  0  0  0
  152.4437  143.2084  159.8740 C   0  0  0  0  0  0  0  0  0  0  0  0
  153.2491  142.3268  160.6545 N   0  0  0  0  0  0  0  0  0  0  0  0
  153.5456  142.5994  162.0575 C   0  0  0  0  0  0  0  0  0  0  0  0
  154.4122  141.4190  162.4847 C   0  0  0  0  0  0  0  0  0  0  0  0
  154.4861  140.6415  161.2702 N   0  0  0  0  0  0  0  0  0  0  0  0
  153.8181  141.1754  160.2451 C   0  0  0  0  0  0  0  0  0  0  0  0
  153.7566  140.6688  159.1265 O   0  0  0  0  0  0  0  0  0  0  0  0
  151.4898  143.9454  160.4527 N   0  0  0  0  0  0  0  0  0  0  0  0
  144.3515  143.1740  162.9026 H   0  0  0  0  0  0  0  0  0  0  0  0
  144.5014  142.2055  161.4469 H   0  0  0  0  0  0  0  0  0  0  0  0
  143.6154  143.7304  161.4096 H   0  0  0  0  0  0  0  0  0  0  0  0
  145.7514  144.9569  161.9602 H   0  0  0  0  0  0  0  0  0  0  0  0
  146.6225  143.4617  161.9698 H   0  0  0  0  0  0  0  0  0  0  0  0
  145.1471  142.2687  159.3627 H   0  0  0  0  0  0  0  0  0  0  0  0
  146.8454  142.0760  159.7491 H   0  0  0  0  0  0  0  0  0  0  0  0
  146.3713  142.8303  158.2326 H   0  0  0  0  0  0  0  0  0  0  0  0
  144.0266  144.5597  159.4394 H   0  0  0  0  0  0  0  0  0  0  0  0
  145.1846  145.0612  158.2163 H   0  0  0  0  0  0  0  0  0  0  0  0
  144.9946  146.0088  159.6795 H   0  0  0  0  0  0  0  0  0  0  0  0
  147.4379  145.3805  158.9108 H   0  0  0  0  0  0  0  0  0  0  0  0
  149.3551  146.2899  159.2092 H   0  0  0  0  0  0  0  0  0  0  0  0
  150.0162  146.2739  160.8254 H   0  0  0  0  0  0  0  0  0  0  0  0
  150.8857  145.1072  157.3606 H   0  0  0  0  0  0  0  0  0  0  0  0
  154.0798  143.5450  162.1622 H   0  0  0  0  0  0  0  0  0  0  0  0
  152.6263  142.6508  162.6430 H   0  0  0  0  0  0  0  0  0  0  0  0
  155.4073  141.7338  162.8009 H   0  0  0  0  0  0  0  0  0  0  0  0
  153.9506  140.8394  163.2849 H   0  0  0  0  0  0  0  0  0  0  0  0
  154.9981  139.7728  161.2147 H   0  0  0  0  0  0  0  0  0  0  0  0
  1  2  1  0  0  0  0
  1 21  1  0  0  0  0
  1 22  1  0  0  0  0
  1 23  1  0  0  0  0
  2  3  1  0  0  0  0
  2 24  1  0  0  0  0
  2 25  1  0  0  0  0
  3  4  1  0  0  0  0
  3  5  1  0  0  0  0
  3  6  1  0  0  0  0
  4 26  1  0  0  0  0
  4 27  1  0  0  0  0
  4 28  1  0  0  0  0
  5 29  1  0  0  0  0
  5 30  1  0  0  0  0
  5 31  1  0  0  0  0
  6  7  1  0  0  0  0
  6 32  1  0  0  0  0
  7  8  2  0  0  0  0
  7  9  1  0  0  0  0
  9 10  1  0  0  0  0
  9 33  1  0  0  0  0
  9 34  1  0  0  0  0
 10 20  1  0  0  0  0
 10 11  2  0  0  0  0
 11 12  1  0  0  0  0
 11 35  1  0  0  0  0
 12 13  1  0  0  0  0
 13 14  1  0  0  0  0
 13 20  2  0  0  0  0
 14 18  1  0  0  0  0
 14 15  1  0  0  0  0
 15 16  1  0  0  0  0
 15 36  1  0  0  0  0
 15 37  1  0  0  0  0
 16 17  1  0  0  0  0
 16 38  1  0  0  0  0
 16 39  1  0  0  0  0
 17 18  1  0  0  0  0
 17 40  1  0  0  0  0
 18 19  2  0  0  0  0
M  END
> <s_m_source_file>
AV-unprocessed.smi

> <i_m_source_file_index>
1862

> <i_lp_mmshare_version>
43012

> <i_f3d_flags>
0

> <s_epik_input>
W0NIM11bQ0gyXUMoW0NIM10pKFtDSDNdKVtOSF1DKD1PKVtDSDJdYzFbY0hdc2MobjEpTjJbQ0gyXVtDSDJdW05IXUMyPU8=

> <s_epik_cmdline>
J2VwaWtfcHl0aG9uJywgJy1waCcsICc3LjAnLCAnLXRuJywgJzgnLCAnLW1hJywgJzIwMCcsICctbWV0YWxfYmluZGluZycsICctaW1hZScsICc8aW5maWxlLm1hZT4nLCAnLW9tYWUnLCAnPG91dGZpbGUubWFlPic=

> <r_lp_tautomer_probability>
1

> <r_epik_Ionization_Penalty>
0.000124031

> <r_epik_Ionization_Penalty_Charging>
0

> <r_epik_Ionization_Penalty_Neutral>
0.000124031

> <r_epik_State_Penalty>
-0

> <r_epik_Charging_Adjusted_Penalty>
0

> <i_epik_Tot_Q>
0

> <i_epik_Tot_abs_Q>
0

> <r_epik_Metal_State_Penalty>
-0

> <b_epik_Metal_Only>
0

> <s_lp_Force_Field>
OPLS_2005

> <r_lp_Energy>
34.1106

> <b_lp_Chiralities_Consistent>
1

> <s_lp_Variant>
AV-unprocessed.smi:1862-1

> <Gold.Version>
5.8.1

> <Gold.Id.Protein>
6NUR|6NUR_protein|mol2

> <Gold.PLP.Fitness>
49.0643

> <Gold.PLP.PLP>
-41.1715

> <Gold.PLP.part.hbond>
-3.0000

> <Gold.PLP.part.metal>
0.0000

> <Gold.PLP.part.buried>
-4.4695

> <Gold.PLP.part.nonpolar>
-33.5615

> <Gold.PLP.part.repulsive>
0.4103

> <Gold.PLP.ligand.clash>
0.0000

> <Gold.PLP.ligand.torsion>
1.0845

> <Gold.PLP.Chemscore.Hbond>
2.4384

> <Gold.PLP.Chemscore.CHOScore>
0.9114

> <Gold.PLP.Chemscore.Metal>
0.0000

> <Gold.Chemscore.Hbonds>
donor molecule, donor type, donor heavy atom, donor atom, acceptor molecule, acceptor atom, score
      L1  H     6    32       P1  8029  1.00
      P1  H  6933  6944       L1     8  0.75
      P1  H  7997  8009       L1    19  0.30
      L1  C    11    35       P1  8028  0.82

> <Gold.PLP.Chemscore.Internal.Correction>
0.0127

> <Gold.Rescore>
     Score         DG    S(hbond)    S(metal)    S(lipo)     H(rot)  DE(clash)    DE(int)     intcor
     14.14     -18.73       2.53        0.00      78.66       1.72       2.01       2.58       ----

> <Gold.Chemscore.Fitness>
14.1378

> <Gold.Chemscore.DG>
-18.7261

> <Gold.Chemscore.ZeroCoef>
-5.4800

> <Gold.Chemscore.Hbond>
2.5308

> <Gold.Chemscore.Metal>
0.0000

> <Gold.Chemscore.Lipo>
78.6621

> <Gold.Chemscore.Internal_Hbond>
0.0000

> <Gold.Chemscore.DEClash>
2.0070

> <Gold.Chemscore.DEInternal>
2.5813

> <Gold.Chemscore.Rot>
1.7228

> <Gold.Chemscore.Internal.Correction>
   9.000000E+99

> <Gold.Chemscore.Hbonds>
donor molecule, donor type, donor heavy atom, donor atom, acceptor molecule, acceptor atom, score
      L1  H     6    32       P1  8029  1.00
      P1  H  6933  6944       L1     8  0.71
      P1  H  7997  8009       L1    19  0.30

> <Gold.Chemscore.Hbond.Weighted>
-8.4529

> <Gold.Chemscore.Metal.Weighted>
-0.0000

> <Gold.Chemscore.Lipo.Weighted>
-9.2035

> <Gold.Chemscore.Internal_Hbond.Weighted>
0.0000

> <Gold.Chemscore.DEClash.Weighted>
2.0070

> <Gold.Chemscore.DEInternal.Weighted>
2.5813

> <Gold.Chemscore.Rot.Weighted>
4.4103

> <Gold.Chemscore.Internal.Correction.Weighted>
   9.000000E+99

> <Gold.Protein.RotatedTorsions>
[ 6907 6896 6895 6894 ] final  173.19 input  -60.11 | X-H torsion
[ 7974 7965 7964 7962 ] final   11.00 input  175.53 | X-H torsion
[ 8008 7997 7996 7995 ] final  137.61 input   59.86 | X-H torsion
[ 10167 10162 10161 10158 ] final   21.97 input  -65.29 | X-H torsion
[ 10718 10713 10712 10709 ] final   39.21 input   66.30 | X-H torsion
[ 10763 10752 10751 10750 ] final  108.49 input  -60.55 | X-H torsion
[ 11005 11000 10999 10996 ] final -118.87 input  -57.11 | X-H torsion

> <Gold.Protein.ActiveResidues>
 VAL166  LYS551  ARG553  GLY616  TRP617  ASP618  TYR619  PRO620  LYS621  CYS622 
 ASP623  PHE694  ASN695  SER759  ASP760  ASP761  ALA762  ILE779  LEU786  VAL792 
 PHE793  MET794  SER795  GLU796  ALA797  LYS798  CYS799  TRP800  GLU811  SER814 

> <Gold.Protein.RotatedAtoms>
  151.7723  133.3342  159.3447 H   0  0  0  0  0  0  0  0  0  0  0  0  # atno 6907 bound_to 6896
  150.7457  134.6007  159.6044 H   0  0  0  0  0  0  0  0  0  0  0  0  # atno 6908 bound_to 6896
  152.3332  134.7233  160.0335 H   0  0  0  0  0  0  0  0  0  0  0  0  # atno 6909 bound_to 6896
  146.2379  139.9550  142.8465 H   0  0  0  0  0  0  0  0  0  0  0  0  # atno 7974 bound_to 7965
  156.3001  140.2415  156.3938 H   0  0  0  0  0  0  0  0  0  0  0  0  # atno 8008 bound_to 7997
  154.8590  140.0421  157.1672 H   0  0  0  0  0  0  0  0  0  0  0  0  # atno 8009 bound_to 7997
  154.8917  140.2964  155.5371 H   0  0  0  0  0  0  0  0  0  0  0  0  # atno 8010 bound_to 7997
  140.5385  143.9718  150.6505 H   0  0  0  0  0  0  0  0  0  0  0  0  # atno 10167 bound_to 10162
  157.3679  130.7685  149.7097 H   0  0  0  0  0  0  0  0  0  0  0  0  # atno 10718 bound_to 10713
  153.4214  135.3810  155.2114 H   0  0  0  0  0  0  0  0  0  0  0  0  # atno 10763 bound_to 10752
  154.8745  135.3818  154.4379 H   0  0  0  0  0  0  0  0  0  0  0  0  # atno 10764 bound_to 10752
  153.4899  135.7088  153.5952 H   0  0  0  0  0  0  0  0  0  0  0  0  # atno 10765 bound_to 10752
  141.0255  134.0060  157.3220 H   0  0  0  0  0  0  0  0  0  0  0  0  # atno 11005 bound_to 11000
  145.1825  140.9773  143.4258 LP  0  0  0  0  0  0  0  0  0  0  0  0  # atno 17320 bound_to 7965
  144.9930  139.3671  143.6205 LP  0  0  0  0  0  0  0  0  0  0  0  0  # atno 17321 bound_to 7965
  140.3112  143.3196  152.0876 LP  0  0  0  0  0  0  0  0  0  0  0  0  # atno 17342 bound_to 10162
  139.4980  144.6634  151.6411 LP  0  0  0  0  0  0  0  0  0  0  0  0  # atno 17343 bound_to 10162
  155.9750  130.4095  150.3883 LP  0  0  0  0  0  0  0  0  0  0  0  0  # atno 17370 bound_to 10713
  157.1970  131.0429  151.2670 LP  0  0  0  0  0  0  0  0  0  0  0  0  # atno 17371 bound_to 10713
  139.9173  135.0198  156.7932 LP  0  0  0  0  0  0  0  0  0  0  0  0  # atno 17394 bound_to 11000
  140.6498  133.9742  155.7749 LP  0  0  0  0  0  0  0  0  0  0  0  0  # atno 17395 bound_to 11000

$$$$
