AV-unprocessed.smi:1900|AV-procd|sdf|7709|dock4
  -GOLD-   22720 9443D 1   1.00000     0.00000
 Structure written by MMmdl.
 44 45  0  0  0  0  0  0  0  0  2 V2000
  151.1416  138.1782  154.1062 C   0  0  0  0  0  0  0  0  0  0  0  0
  150.0508  138.4889  155.1466 C   0  0  2  0  0  0  0  0  0  0  0  0
  148.6429  138.6380  154.5369 C   0  0  0  0  0  0  0  0  0  0  0  0
  148.5059  139.9198  153.8050 N   0  3  1  0  0  0  0  0  0  0  0  0
  147.1766  140.0596  153.1596 C   0  0  0  0  0  0  0  0  0  0  0  0
  146.8654  138.9066  152.1902 C   0  0  0  0  0  0  0  0  0  0  0  0
  145.9035  137.8766  152.8065 C   0  0  0  0  0  0  0  0  0  0  0  0
  146.0233  136.5698  152.1696 N   0  0  0  0  0  0  0  0  0  0  0  0
  144.9901  135.7987  151.8011 C   0  0  0  0  0  0  0  0  0  0  0  0
  143.8123  136.1303  151.9390 O   0  0  0  0  0  0  0  0  0  0  0  0
  145.4090  134.6371  151.2727 N   0  0  0  0  0  0  0  0  0  0  0  0
  144.6058  133.5772  150.7806 C   0  0  0  0  0  0  0  0  0  0  0  0
  145.0557  132.5691  149.8854 C   0  0  0  0  0  0  0  0  0  0  0  0
  144.0879  131.7105  149.5976 N   0  0  0  0  0  0  0  0  0  0  0  0
  143.0238  132.1623  150.2988 N   0  0  0  0  0  0  0  0  0  0  0  0
  143.2925  133.2962  151.0333 C   0  0  0  0  0  0  0  0  0  0  0  0
  148.8576  141.0558  154.6910 C   0  0  0  0  0  0  0  0  0  0  0  0
  150.2792  140.8795  155.2547 C   0  0  1  0  0  0  0  0  0  0  0  0
  150.6436  141.9888  156.2477 C   0  0  0  0  0  0  0  0  0  0  0  0
  150.3685  139.6326  155.9391 O   0  0  0  0  0  0  0  0  0  0  0  0
  142.1310  131.6908  150.2670 H   0  0  0  0  0  0  0  0  0  0  0  0
  150.9414  137.2286  153.6094 H   0  0  0  0  0  0  0  0  0  0  0  0
  152.1202  138.1003  154.5806 H   0  0  0  0  0  0  0  0  0  0  0  0
  151.2053  138.9409  153.3309 H   0  0  0  0  0  0  0  0  0  0  0  0
  150.0248  137.6442  155.8355 H   0  0  0  0  0  0  0  0  0  0  0  0
  148.4370  137.7990  153.8710 H   0  0  0  0  0  0  0  0  0  0  0  0
  147.8942  138.6019  155.3300 H   0  0  0  0  0  0  0  0  0  0  0  0
  146.4060  140.0662  153.9319 H   0  0  0  0  0  0  0  0  0  0  0  0
  147.1107  141.0223  152.6504 H   0  0  0  0  0  0  0  0  0  0  0  0
  146.4280  139.2978  151.2722 H   0  0  0  0  0  0  0  0  0  0  0  0
  147.7934  138.4103  151.9036 H   0  0  0  0  0  0  0  0  0  0  0  0
  146.1188  137.7551  153.8684 H   0  0  0  0  0  0  0  0  0  0  0  0
  144.8725  138.2276  152.7375 H   0  0  0  0  0  0  0  0  0  0  0  0
  146.9577  136.2178  152.0196 H   0  0  0  0  0  0  0  0  0  0  0  0
  146.4065  134.4897  151.2266 H   0  0  0  0  0  0  0  0  0  0  0  0
  146.0327  132.4340  149.4455 H   0  0  0  0  0  0  0  0  0  0  0  0
  142.5454  133.7784  151.6460 H   0  0  0  0  0  0  0  0  0  0  0  0
  148.8058  141.9963  154.1438 H   0  0  0  0  0  0  0  0  0  0  0  0
  148.1336  141.1210  155.5050 H   0  0  0  0  0  0  0  0  0  0  0  0
  151.0027  140.9056  154.4397 H   0  0  0  0  0  0  0  0  0  0  0  0
  150.6016  142.9698  155.7736 H   0  0  0  0  0  0  0  0  0  0  0  0
  151.6537  141.8504  156.6339 H   0  0  0  0  0  0  0  0  0  0  0  0
  149.9609  141.9985  157.0979 H   0  0  0  0  0  0  0  0  0  0  0  0
  149.1896  139.8976  153.0619 H   0  0  0  0  0  0  0  0  0  0  0  0
  1  2  1  0  0  0  0
  1 22  1  0  0  0  0
  1 23  1  0  0  0  0
  1 24  1  0  0  0  0
  2 20  1  0  0  0  0
  2  3  1  0  0  0  0
  2 25  1  0  0  0  0
  3  4  1  0  0  0  0
  3 26  1  0  0  0  0
  3 27  1  0  0  0  0
  4  5  1  0  0  0  0
  4 17  1  0  0  0  0
  4 44  1  0  0  0  0
  5  6  1  0  0  0  0
  5 28  1  0  0  0  0
  5 29  1  0  0  0  0
  6  7  1  0  0  0  0
  6 30  1  0  0  0  0
  6 31  1  0  0  0  0
  7  8  1  0  0  0  0
  7 32  1  0  0  0  0
  7 33  1  0  0  0  0
  8  9  1  0  0  0  0
  8 34  1  0  0  0  0
  9 10  2  0  0  0  0
  9 11  1  0  0  0  0
 11 12  1  0  0  0  0
 11 35  1  0  0  0  0
 12 16  2  0  0  0  0
 12 13  1  0  0  0  0
 13 14  2  0  0  0  0
 13 36  1  0  0  0  0
 14 15  1  0  0  0  0
 15 21  1  0  0  0  0
 15 16  1  0  0  0  0
 16 37  1  0  0  0  0
 17 18  1  0  0  0  0
 17 38  1  0  0  0  0
 17 39  1  0  0  0  0
 18 19  1  0  0  0  0
 18 20  1  0  0  0  0
 18 40  1  0  0  0  0
 19 41  1  0  0  0  0
 19 42  1  0  0  0  0
 19 43  1  0  0  0  0
M  CHG  1   4   1
M  END
> <s_m_source_file>
AV-unprocessed.smi

> <i_m_source_file_index>
1900

> <i_lp_mmshare_version>
43012

> <i_f3d_flags>
0

> <s_epik_input>
W0NIM11bQ0BASF0xW0NIMl1OKFtDSDJdW0NASF0oTzEpW0NIM10pW0NIMl1bQ0gyXVtDSDJdW05IXUMoPU8pW05IXWMyW2NIXW5bbkhdW2NIXTI=

> <s_epik_cmdline>
J2VwaWtfcHl0aG9uJywgJy1waCcsICc3LjAnLCAnLXRuJywgJzgnLCAnLW1hJywgJzIwMCcsICctbWV0YWxfYmluZGluZycsICctaW1hZScsICc8aW5maWxlLm1hZT4nLCAnLW9tYWUnLCAnPG91dGZpbGUubWFlPic=

> <r_lp_tautomer_probability>
0.5

> <r_epik_Ionization_Penalty>
0.270543

> <r_epik_Ionization_Penalty_Charging>
0.270496

> <r_epik_Ionization_Penalty_Neutral>
4.67091e-05

> <r_epik_State_Penalty>
0.262618

> <r_epik_Charging_Adjusted_Penalty>
0.533114

> <i_epik_Tot_Q>
1

> <i_epik_Tot_abs_Q>
1

> <r_epik_Metal_State_Penalty>
0.262618

> <b_epik_Metal_Only>
0

> <s_lp_Force_Field>
OPLS_2005

> <r_lp_Energy>
21.2497

> <b_lp_Chiralities_Consistent>
1

> <s_lp_Variant>
AV-unprocessed.smi:1900-1

> <Gold.Version>
5.8.1

> <Gold.Id.Protein>
6NUR|6NUR_protein|mol2

> <Gold.PLP.Fitness>
46.2400

> <Gold.PLP.PLP>
-35.5525

> <Gold.PLP.part.hbond>
-5.0000

> <Gold.PLP.part.metal>
0.0000

> <Gold.PLP.part.buried>
-2.3075

> <Gold.PLP.part.nonpolar>
-29.0678

> <Gold.PLP.part.repulsive>
0.6504

> <Gold.PLP.ligand.clash>
0.0000

> <Gold.PLP.ligand.torsion>
0.6103

> <Gold.PLP.Chemscore.Hbond>
3.7280

> <Gold.PLP.Chemscore.CHOScore>
0.2324

> <Gold.PLP.Chemscore.Metal>
0.0000

> <Gold.Chemscore.Hbonds>
donor molecule, donor type, donor heavy atom, donor atom, acceptor molecule, acceptor atom, score
      L1  H     4    44       P1  7957  0.99
      L1  H     8    34       P1  7948  1.00
      L1  H    15    21       P1 10952  1.00
      P1  H 10785 10796       L1    14  0.60
      L1  C    16    37       P1 10186  0.18

> <Gold.PLP.Chemscore.Internal.Correction>
0.0268

> <Gold.Rescore>
     Score         DG    S(hbond)    S(metal)    S(lipo)     H(rot)  DE(clash)    DE(int)     intcor
     18.26     -20.83       2.88        0.00      91.21       1.93       0.99       1.59       ----

> <Gold.Chemscore.Fitness>
18.2566

> <Gold.Chemscore.DG>
-20.8336

> <Gold.Chemscore.ZeroCoef>
-5.4800

> <Gold.Chemscore.Hbond>
2.8848

> <Gold.Chemscore.Metal>
0.0000

> <Gold.Chemscore.Lipo>
91.2071

> <Gold.Chemscore.Internal_Hbond>
0.0000

> <Gold.Chemscore.DEClash>
0.9885

> <Gold.Chemscore.DEInternal>
1.5885

> <Gold.Chemscore.Rot>
1.9347

> <Gold.Chemscore.Internal.Correction>
   9.000000E+99

> <Gold.Chemscore.Hbonds>
donor molecule, donor type, donor heavy atom, donor atom, acceptor molecule, acceptor atom, score
      L1  H     4    44       P1  7957  0.92
      L1  H     8    34       P1  7948  0.97
      L1  H    15    21       P1 10952  0.62
      P1  H 10785 10796       L1    14  0.12

> <Gold.Chemscore.Hbond.Weighted>
-9.6353

> <Gold.Chemscore.Metal.Weighted>
-0.0000

> <Gold.Chemscore.Lipo.Weighted>
-10.6712

> <Gold.Chemscore.Internal_Hbond.Weighted>
0.0000

> <Gold.Chemscore.DEClash.Weighted>
0.9885

> <Gold.Chemscore.DEInternal.Weighted>
1.5885

> <Gold.Chemscore.Rot.Weighted>
4.9528

> <Gold.Chemscore.Internal.Correction.Weighted>
   9.000000E+99

> <Gold.Protein.RotatedTorsions>
[ 6907 6896 6895 6894 ] final  -20.77 input  -60.11 | X-H torsion
[ 7974 7965 7964 7962 ] final -175.53 input  175.53 | X-H torsion
[ 8008 7997 7996 7995 ] final   15.35 input   59.86 | X-H torsion
[ 10167 10162 10161 10158 ] final    2.35 input  -65.29 | X-H torsion
[ 10718 10713 10712 10709 ] final  168.59 input   66.30 | X-H torsion
[ 10763 10752 10751 10750 ] final  138.92 input  -60.55 | X-H torsion
[ 11005 11000 10999 10996 ] final   49.59 input  -57.11 | X-H torsion

> <Gold.Protein.ActiveResidues>
 VAL166  LYS551  ARG553  GLY616  TRP617  ASP618  TYR619  PRO620  LYS621  CYS622 
 ASP623  PHE694  ASN695  SER759  ASP760  ASP761  ALA762  ILE779  LEU786  VAL792 
 PHE793  MET794  SER795  GLU796  ALA797  LYS798  CYS799  TRP800  GLU811  SER814 

> <Gold.Protein.RotatedAtoms>
  151.2432  135.0596  159.9032 H   0  0  0  0  0  0  0  0  0  0  0  0  # atno 6907 bound_to 6896
  152.5390  134.0411  159.8078 H   0  0  0  0  0  0  0  0  0  0  0  0  # atno 6908 bound_to 6896
  151.0608  133.5496  159.2666 H   0  0  0  0  0  0  0  0  0  0  0  0  # atno 6909 bound_to 6896
  144.7128  140.1308  143.6399 H   0  0  0  0  0  0  0  0  0  0  0  0  # atno 7974 bound_to 7965
  154.8613  140.2945  155.5537 H   0  0  0  0  0  0  0  0  0  0  0  0  # atno 8008 bound_to 7997
  156.3020  140.2477  156.3521 H   0  0  0  0  0  0  0  0  0  0  0  0  # atno 8009 bound_to 7997
  154.8915  140.0394  157.1830 H   0  0  0  0  0  0  0  0  0  0  0  0  # atno 8010 bound_to 7997
  140.6639  143.7231  150.7790 H   0  0  0  0  0  0  0  0  0  0  0  0  # atno 10167 bound_to 10162
  157.0350  131.0270  151.2732 H   0  0  0  0  0  0  0  0  0  0  0  0  # atno 10718 bound_to 10713
  153.8976  135.3026  155.3448 H   0  0  0  0  0  0  0  0  0  0  0  0  # atno 10763 bound_to 10752
  154.7686  135.4897  153.9606 H   0  0  0  0  0  0  0  0  0  0  0  0  # atno 10764 bound_to 10752
  153.1263  135.6793  153.9352 H   0  0  0  0  0  0  0  0  0  0  0  0  # atno 10765 bound_to 10752
  140.1090  134.4979  155.8694 H   0  0  0  0  0  0  0  0  0  0  0  0  # atno 11005 bound_to 11000
  145.9289  139.2593  143.1337 LP  0  0  0  0  0  0  0  0  0  0  0  0  # atno 17320 bound_to 7965
  145.9544  140.8884  143.0243 LP  0  0  0  0  0  0  0  0  0  0  0  0  # atno 17321 bound_to 7965
  140.0905  143.4882  152.2481 LP  0  0  0  0  0  0  0  0  0  0  0  0  # atno 17342 bound_to 10162
  139.5881  144.7539  151.3468 LP  0  0  0  0  0  0  0  0  0  0  0  0  # atno 17343 bound_to 10162
  157.5149  130.7961  149.7745 LP  0  0  0  0  0  0  0  0  0  0  0  0  # atno 17370 bound_to 10713
  156.0057  130.3857  150.2441 LP  0  0  0  0  0  0  0  0  0  0  0  0  # atno 17371 bound_to 10713
  141.2125  133.6721  156.6668 LP  0  0  0  0  0  0  0  0  0  0  0  0  # atno 17394 bound_to 11000
  140.3116  134.8081  157.4181 LP  0  0  0  0  0  0  0  0  0  0  0  0  # atno 17395 bound_to 11000

$$$$
