AV-unprocessed.smi:2249|AV-procd|sdf|9098|dock3
  -GOLD-   2272012293D 1   1.00000     0.00000
 Structure written by MMmdl.
 38 39  0  0  0  0  0  0  0  0  1 V2000
  144.0443  137.0824  152.6360 C   0  0  0  0  0  0  0  0  0  0  0  0
  145.1388  136.0384  152.9253 C   0  0  2  0  0  0  0  0  0  0  0  0
  146.4332  136.7179  152.9737 N   0  0  0  0  0  0  0  0  0  0  0  0
  146.6848  137.8775  153.5988 C   0  0  0  0  0  0  0  0  0  0  0  0
  145.8303  138.5203  154.2091 O   0  0  0  0  0  0  0  0  0  0  0  0
  147.9753  138.2291  153.4622 N   0  0  0  0  0  0  0  0  0  0  0  0
  148.6158  139.3218  153.9563 C   0  0  0  0  0  0  0  0  0  0  0  0
  148.1240  140.5783  154.1835 C   0  0  0  0  0  0  0  0  0  0  0  0
  149.2602  141.2648  154.6996 C   0  0  0  0  0  0  0  0  0  0  0  0
  150.3401  140.4973  154.7792 N   0  0  0  0  0  0  0  0  0  0  0  0
  149.9445  139.2900  154.3201 N   0  0  0  0  0  0  0  0  0  0  0  0
  150.8879  138.1903  154.2638 C   0  0  0  0  0  0  0  0  0  0  0  0
  145.1807  134.8873  151.8863 C   0  0  0  0  0  0  0  0  0  0  0  0
  143.8167  134.1875  151.7168 C   0  0  0  0  0  0  0  0  0  0  0  0
  143.9137  133.0032  150.7411 C   0  0  0  0  0  0  0  0  0  0  0  0
  144.8972  132.0798  151.1907 O   0  0  0  0  0  0  0  0  0  0  0  0
  146.2001  132.6474  151.2388 C   0  0  0  0  0  0  0  0  0  0  0  0
  146.2296  133.8113  152.2421 C   0  0  0  0  0  0  0  0  0  0  0  0
  143.0456  136.6548  152.7186 H   0  0  0  0  0  0  0  0  0  0  0  0
  144.1492  137.5015  151.6348 H   0  0  0  0  0  0  0  0  0  0  0  0
  144.0910  137.9083  153.3468 H   0  0  0  0  0  0  0  0  0  0  0  0
  144.9349  135.5962  153.9023 H   0  0  0  0  0  0  0  0  0  0  0  0
  147.1977  136.2635  152.4960 H   0  0  0  0  0  0  0  0  0  0  0  0
  148.5518  137.6013  152.9213 H   0  0  0  0  0  0  0  0  0  0  0  0
  147.1288  140.9619  154.0172 H   0  0  0  0  0  0  0  0  0  0  0  0
  149.3327  142.2943  155.0182 H   0  0  0  0  0  0  0  0  0  0  0  0
  151.0736  137.9220  153.2239 H   0  0  0  0  0  0  0  0  0  0  0  0
  150.4776  137.3271  154.7881 H   0  0  0  0  0  0  0  0  0  0  0  0
  151.8332  138.4701  154.7315 H   0  0  0  0  0  0  0  0  0  0  0  0
  145.4576  135.3141  150.9209 H   0  0  0  0  0  0  0  0  0  0  0  0
  143.4604  133.8305  152.6839 H   0  0  0  0  0  0  0  0  0  0  0  0
  143.0670  134.8849  151.3448 H   0  0  0  0  0  0  0  0  0  0  0  0
  142.9535  132.4908  150.6786 H   0  0  0  0  0  0  0  0  0  0  0  0
  144.1553  133.3477  149.7343 H   0  0  0  0  0  0  0  0  0  0  0  0
  146.9077  131.8754  151.5412 H   0  0  0  0  0  0  0  0  0  0  0  0
  146.5009  132.9825  150.2449 H   0  0  0  0  0  0  0  0  0  0  0  0
  147.2333  134.2364  152.2600 H   0  0  0  0  0  0  0  0  0  0  0  0
  146.0377  133.4274  153.2450 H   0  0  0  0  0  0  0  0  0  0  0  0
  1  2  1  0  0  0  0
  1 19  1  0  0  0  0
  1 20  1  0  0  0  0
  1 21  1  0  0  0  0
  2  3  1  0  0  0  0
  2 13  1  0  0  0  0
  2 22  1  0  0  0  0
  3  4  1  0  0  0  0
  3 23  1  0  0  0  0
  4  5  2  0  0  0  0
  4  6  1  0  0  0  0
  6  7  1  0  0  0  0
  6 24  1  0  0  0  0
  7 11  1  0  0  0  0
  7  8  2  0  0  0  0
  8  9  1  0  0  0  0
  8 25  1  0  0  0  0
  9 10  2  0  0  0  0
  9 26  1  0  0  0  0
 10 11  1  0  0  0  0
 11 12  1  0  0  0  0
 12 27  1  0  0  0  0
 12 28  1  0  0  0  0
 12 29  1  0  0  0  0
 13 18  1  0  0  0  0
 13 14  1  0  0  0  0
 13 30  1  0  0  0  0
 14 15  1  0  0  0  0
 14 31  1  0  0  0  0
 14 32  1  0  0  0  0
 15 16  1  0  0  0  0
 15 33  1  0  0  0  0
 15 34  1  0  0  0  0
 16 17  1  0  0  0  0
 17 18  1  0  0  0  0
 17 35  1  0  0  0  0
 17 36  1  0  0  0  0
 18 37  1  0  0  0  0
 18 38  1  0  0  0  0
M  END
> <s_m_source_file>
AV-unprocessed.smi

> <i_m_source_file_index>
2249

> <i_lp_mmshare_version>
43012

> <i_f3d_flags>
0

> <s_epik_input>
W0NIMl0xW0NIMl1PW0NIMl1bQ0gyXVtDSF0xW0NASF0oW0NIM10pW05IXUMoPU8pW05IXWMyW2NIXVtjSF1ubjJbQ0gzXQ==

> <s_epik_cmdline>
J2VwaWtfcHl0aG9uJywgJy1waCcsICc3LjAnLCAnLXRuJywgJzgnLCAnLW1hJywgJzIwMCcsICctbWV0YWxfYmluZGluZycsICctaW1hZScsICc8aW5maWxlLm1hZT4nLCAnLW9tYWUnLCAnPG91dGZpbGUubWFlPic=

> <r_lp_tautomer_probability>
1

> <r_epik_Ionization_Penalty>
4.67687e-05

> <r_epik_Ionization_Penalty_Charging>
0

> <r_epik_Ionization_Penalty_Neutral>
4.67687e-05

> <r_epik_State_Penalty>
-0

> <r_epik_Charging_Adjusted_Penalty>
0

> <i_epik_Tot_Q>
0

> <i_epik_Tot_abs_Q>
0

> <r_epik_Metal_State_Penalty>
-0

> <b_epik_Metal_Only>
0

> <s_lp_Force_Field>
OPLS_2005

> <r_lp_Energy>
12.7763

> <b_lp_Chiralities_Consistent>
1

> <s_lp_Variant>
AV-unprocessed.smi:2249-1

> <Gold.Version>
5.8.1

> <Gold.Id.Protein>
6NUR|6NUR_protein|mol2

> <Gold.PLP.Fitness>
42.2655

> <Gold.PLP.PLP>
-31.1026

> <Gold.PLP.part.hbond>
-3.0000

> <Gold.PLP.part.metal>
0.0000

> <Gold.PLP.part.buried>
-3.5027

> <Gold.PLP.part.nonpolar>
-25.1907

> <Gold.PLP.part.repulsive>
0.3766

> <Gold.PLP.ligand.clash>
0.0000

> <Gold.PLP.ligand.torsion>
0.3852

> <Gold.PLP.Chemscore.Hbond>
2.9760

> <Gold.PLP.Chemscore.CHOScore>
0.9944

> <Gold.PLP.Chemscore.Metal>
0.0000

> <Gold.Chemscore.Hbonds>
donor molecule, donor type, donor heavy atom, donor atom, acceptor molecule, acceptor atom, score
      L1  H     3    23       P1  7948  1.00
      L1  H     6    24       P1  7948  1.00
      P1  H  7989  7998       L1    10  0.93
      L1  C     9    26       P1  8028  0.98

> <Gold.PLP.Chemscore.Internal.Correction>
0.0219

> <Gold.Rescore>
     Score         DG    S(hbond)    S(metal)    S(lipo)     H(rot)  DE(clash)    DE(int)     intcor
     15.19     -17.07       2.38        0.00      58.75       1.26       0.11       1.77       ----

> <Gold.Chemscore.Fitness>
15.1869

> <Gold.Chemscore.DG>
-17.0683

> <Gold.Chemscore.ZeroCoef>
-5.4800

> <Gold.Chemscore.Hbond>
2.3763

> <Gold.Chemscore.Metal>
0.0000

> <Gold.Chemscore.Lipo>
58.7513

> <Gold.Chemscore.Internal_Hbond>
0.0000

> <Gold.Chemscore.DEClash>
0.1076

> <Gold.Chemscore.DEInternal>
1.7737

> <Gold.Chemscore.Rot>
1.2588

> <Gold.Chemscore.Internal.Correction>
   9.000000E+99

> <Gold.Chemscore.Hbonds>
donor molecule, donor type, donor heavy atom, donor atom, acceptor molecule, acceptor atom, score
      L1  H     3    23       P1  7948  0.97
      L1  H     6    24       P1  7948  0.99
      P1  H  7989  7998       L1    10  0.17

> <Gold.Chemscore.Hbond.Weighted>
-7.9368

> <Gold.Chemscore.Metal.Weighted>
-0.0000

> <Gold.Chemscore.Lipo.Weighted>
-6.8739

> <Gold.Chemscore.Internal_Hbond.Weighted>
0.0000

> <Gold.Chemscore.DEClash.Weighted>
0.1076

> <Gold.Chemscore.DEInternal.Weighted>
1.7737

> <Gold.Chemscore.Rot.Weighted>
3.2224

> <Gold.Chemscore.Internal.Correction.Weighted>
   9.000000E+99

> <Gold.Protein.RotatedTorsions>
[ 6907 6896 6895 6894 ] final   62.79 input  -60.11 | X-H torsion
[ 7974 7965 7964 7962 ] final   30.37 input  175.53 | X-H torsion
[ 8008 7997 7996 7995 ] final -176.44 input   59.86 | X-H torsion
[ 10167 10162 10161 10158 ] final   61.02 input  -65.29 | X-H torsion
[ 10718 10713 10712 10709 ] final -111.37 input   66.30 | X-H torsion
[ 10763 10752 10751 10750 ] final   58.76 input  -60.55 | X-H torsion
[ 11005 11000 10999 10996 ] final  -95.31 input  -57.11 | X-H torsion

> <Gold.Protein.ActiveResidues>
 VAL166  LYS551  ARG553  GLY616  TRP617  ASP618  TYR619  PRO620  LYS621  CYS622 
 ASP623  PHE694  ASN695  SER759  ASP760  ASP761  ALA762  ILE779  LEU786  VAL792 
 PHE793  MET794  SER795  GLU796  ALA797  LYS798  CYS799  TRP800  GLU811  SER814 

> <Gold.Protein.RotatedAtoms>
  152.4201  134.5971  159.9989 H   0  0  0  0  0  0  0  0  0  0  0  0  # atno 6907 bound_to 6896
  151.6123  133.3340  159.3078 H   0  0  0  0  0  0  0  0  0  0  0  0  # atno 6908 bound_to 6896
  150.8089  134.7270  159.6735 H   0  0  0  0  0  0  0  0  0  0  0  0  # atno 6909 bound_to 6896
  146.1616  139.6798  142.9030 H   0  0  0  0  0  0  0  0  0  0  0  0  # atno 7974 bound_to 7965
  155.9949  140.1208  157.0603 H   0  0  0  0  0  0  0  0  0  0  0  0  # atno 8008 bound_to 7997
  154.4223  140.1118  156.5685 H   0  0  0  0  0  0  0  0  0  0  0  0  # atno 8009 bound_to 7997
  155.6292  140.3473  155.4679 H   0  0  0  0  0  0  0  0  0  0  0  0  # atno 8010 bound_to 7997
  140.1593  144.4386  150.6718 H   0  0  0  0  0  0  0  0  0  0  0  0  # atno 10167 bound_to 10162
  156.0643  130.5864  150.8364 H   0  0  0  0  0  0  0  0  0  0  0  0  # atno 10718 bound_to 10713
  152.9878  135.5595  154.5605 H   0  0  0  0  0  0  0  0  0  0  0  0  # atno 10763 bound_to 10752
  154.5025  135.2798  155.1411 H   0  0  0  0  0  0  0  0  0  0  0  0  # atno 10764 bound_to 10752
  154.2836  135.6340  153.5410 H   0  0  0  0  0  0  0  0  0  0  0  0  # atno 10765 bound_to 10752
  141.1445  133.8017  157.0418 H   0  0  0  0  0  0  0  0  0  0  0  0  # atno 11005 bound_to 11000
  145.4574  141.0431  143.2770 LP  0  0  0  0  0  0  0  0  0  0  0  0  # atno 17320 bound_to 7965
  144.8035  139.6096  143.7061 LP  0  0  0  0  0  0  0  0  0  0  0  0  # atno 17321 bound_to 7965
  140.6653  143.2266  151.5757 LP  0  0  0  0  0  0  0  0  0  0  0  0  # atno 17342 bound_to 10162
  139.5389  144.2704  152.1309 LP  0  0  0  0  0  0  0  0  0  0  0  0  # atno 17343 bound_to 10162
  157.5674  131.0946  150.9468 LP  0  0  0  0  0  0  0  0  0  0  0  0  # atno 17370 bound_to 10713
  156.9692  130.5484  149.5289 LP  0  0  0  0  0  0  0  0  0  0  0  0  # atno 17371 bound_to 10713
  140.0688  134.9714  157.1431 LP  0  0  0  0  0  0  0  0  0  0  0  0  # atno 17394 bound_to 11000
  140.3741  134.2358  155.7175 LP  0  0  0  0  0  0  0  0  0  0  0  0  # atno 17395 bound_to 11000

$$$$
