AV-unprocessed.smi:114|AV-procd|sdf|1121|dock7
  -GOLD-   2262018243D 1   1.00000     0.00000
 Structure written by MMmdl.
 32 34  0  0  0  0  0  0  0  0  1 V2000
  150.9212  134.0951  156.6334 N   0  0  0  0  0  0  0  0  0  0  0  0
  150.6385  135.3970  156.7802 C   0  0  0  0  0  0  0  0  0  0  0  0
  150.0697  135.8048  157.9375 N   0  0  0  0  0  0  0  0  0  0  0  0
  149.7758  137.0961  158.1248 C   0  0  0  0  0  0  0  0  0  0  0  0
  149.2072  137.4185  159.3101 F   0  0  0  0  0  0  0  0  0  0  0  0
  149.9788  138.1039  157.2705 N   0  0  0  0  0  0  0  0  0  0  0  0
  150.5516  137.7034  156.0975 C   0  0  0  0  0  0  0  0  0  0  0  0
  150.9099  136.3639  155.7815 C   0  0  0  0  0  0  0  0  0  0  0  0
  151.4705  136.3065  154.5152 N   0  0  0  0  0  0  0  0  0  0  0  0
  151.4510  137.5469  154.1105 C   0  0  0  0  0  0  0  0  0  0  0  0
  150.9042  138.4582  154.9888 N   0  0  0  0  0  0  0  0  0  0  0  0
  150.8050  139.9433  154.7611 C   0  0  2  0  0  0  0  0  0  0  0  0
  151.4042  140.5917  155.8364 O   0  0  0  0  0  0  0  0  0  0  0  0
  150.4169  140.9424  156.7948 C   0  0  1  0  0  0  0  0  0  0  0  0
  150.9271  142.1013  157.6641 C   0  0  0  0  0  0  0  0  0  0  0  0
  151.0121  143.2826  156.8957 O   0  0  0  0  0  0  0  0  0  0  0  0
  149.2100  141.3194  155.9216 C   0  0  2  0  0  0  0  0  0  0  0  0
  148.0044  141.0149  156.5938 O   0  0  0  0  0  0  0  0  0  0  0  0
  149.3603  140.4640  154.6594 C   0  0  1  0  0  0  0  0  0  0  0  0
  149.1856  141.2637  153.5071 O   0  0  0  0  0  0  0  0  0  0  0  0
  151.3879  140.1062  153.8533 H   0  0  0  0  0  0  0  0  0  0  0  0
  150.1882  140.0752  157.4145 H   0  0  0  0  0  0  0  0  0  0  0  0
  149.2408  142.3828  155.6764 H   0  0  0  0  0  0  0  0  0  0  0  0
  148.6521  139.6379  154.6065 H   0  0  0  0  0  0  0  0  0  0  0  0
  151.3478  133.7672  155.7786 H   0  0  0  0  0  0  0  0  0  0  0  0
  150.7152  133.4468  157.3795 H   0  0  0  0  0  0  0  0  0  0  0  0
  151.8432  137.8354  153.1461 H   0  0  0  0  0  0  0  0  0  0  0  0
  150.2888  142.2572  158.5343 H   0  0  0  0  0  0  0  0  0  0  0  0
  151.9290  141.8789  158.0321 H   0  0  0  0  0  0  0  0  0  0  0  0
  150.1661  143.4530  156.5109 H   0  0  0  0  0  0  0  0  0  0  0  0
  147.4217  140.5874  155.9850 H   0  0  0  0  0  0  0  0  0  0  0  0
  149.4311  140.7550  152.7493 H   0  0  0  0  0  0  0  0  0  0  0  0
  1  2  1  0  0  0  0
  1 25  1  0  0  0  0
  1 26  1  0  0  0  0
  2  8  1  0  0  0  0
  2  3  2  0  0  0  0
  3  4  1  0  0  0  0
  4  5  1  0  0  0  0
  4  6  2  0  0  0  0
  6  7  1  0  0  0  0
  7 11  1  0  0  0  0
  7  8  2  0  0  0  0
  8  9  1  0  0  0  0
  9 10  2  0  0  0  0
 10 11  1  0  0  0  0
 10 27  1  0  0  0  0
 11 12  1  0  0  0  0
 12 21  1  0  0  0  0
 12 19  1  0  0  0  0
 12 13  1  0  0  0  0
 13 14  1  0  0  0  0
 14 22  1  0  0  0  0
 14 15  1  0  0  0  0
 14 17  1  0  0  0  0
 15 16  1  0  0  0  0
 15 28  1  0  0  0  0
 15 29  1  0  0  0  0
 16 30  1  0  0  0  0
 17 23  1  0  0  0  0
 17 18  1  0  0  0  0
 17 19  1  0  0  0  0
 18 31  1  0  0  0  0
 19 24  1  0  0  0  0
 19 20  1  0  0  0  0
 20 32  1  0  0  0  0
M  END
> <s_m_source_file>
AV-unprocessed.smi

> <i_m_source_file_index>
114

> <i_lp_mmshare_version>
43012

> <i_f3d_flags>
0

> <s_epik_input>
RmMobjEpbmMoW05IMl0pYyhjMTIpbltjSF1uMltDQEBIXTNPW0NASF0oW0NIMl1bT0hdKVtDQEBIXShbT0hdKVtDQEBIXTNbT0hd

> <s_epik_cmdline>
J2VwaWtfcHl0aG9uJywgJy1waCcsICc3LjAnLCAnLXRuJywgJzgnLCAnLW1hJywgJzIwMCcsICctbWV0YWxfYmluZGluZycsICctaW1hZScsICc8aW5maWxlLm1hZT4nLCAnLW9tYWUnLCAnPG91dGZpbGUubWFlPic=

> <r_lp_tautomer_probability>
1

> <r_epik_Ionization_Penalty>
1.13199e-05

> <r_epik_Ionization_Penalty_Charging>
0

> <r_epik_Ionization_Penalty_Neutral>
1.13199e-05

> <r_epik_State_Penalty>
-0

> <r_epik_Charging_Adjusted_Penalty>
0

> <i_epik_Tot_Q>
0

> <i_epik_Tot_abs_Q>
0

> <r_epik_Metal_State_Penalty>
-0

> <b_epik_Metal_Only>
0

> <s_epik_Chemistry_Notes>
This compound contains an acetal/aminal-like group ( X-CH(R)-Y where X, Y are N, S, or O) that may be acid/base labile, releasing an aldehyde.

> <s_lp_Force_Field>
OPLS_2005

> <r_lp_Energy>
32.4154

> <b_lp_Chiralities_Consistent>
1

> <s_lp_Variant>
AV-unprocessed.smi:114-15

> <Gold.Version>
5.8.1

> <Gold.Id.Protein>
6NUR|6NUR_protein|mol2

> <Gold.PLP.Fitness>
38.4616

> <Gold.PLP.PLP>
-26.6787

> <Gold.PLP.part.hbond>
-6.4417

> <Gold.PLP.part.metal>
0.0000

> <Gold.PLP.part.buried>
-1.9666

> <Gold.PLP.part.nonpolar>
-20.7481

> <Gold.PLP.part.repulsive>
0.7771

> <Gold.PLP.ligand.clash>
0.0000

> <Gold.PLP.ligand.torsion>
0.1626

> <Gold.PLP.Chemscore.Hbond>
3.4493

> <Gold.PLP.Chemscore.CHOScore>
0.5799

> <Gold.PLP.Chemscore.Metal>
0.0000

> <Gold.Chemscore.Hbonds>
donor molecule, donor type, donor heavy atom, donor atom, acceptor molecule, acceptor atom, score
      L1  H    16    30       P1  8028  0.98
      L1  H    20    32       P1  7957  1.00
      P1  H  6896  6909       L1     3  0.47
      P1  H 10752 10764       L1     9  1.00
      L1  C    10    27       P1  7949  0.50

> <Gold.PLP.Chemscore.Internal.Correction>
0.0205

> <Gold.Rescore>
     Score         DG    S(hbond)    S(metal)    S(lipo)     H(rot)  DE(clash)    DE(int)     intcor
      7.25      -8.11       2.93        0.00      26.92       4.03       0.68       0.19       ----

> <Gold.Chemscore.Fitness>
7.2466

> <Gold.Chemscore.DG>
-8.1109

> <Gold.Chemscore.ZeroCoef>
-5.4800

> <Gold.Chemscore.Hbond>
2.9317

> <Gold.Chemscore.Metal>
0.0000

> <Gold.Chemscore.Lipo>
26.9237

> <Gold.Chemscore.Internal_Hbond>
0.0000

> <Gold.Chemscore.DEClash>
0.6785

> <Gold.Chemscore.DEInternal>
0.1858

> <Gold.Chemscore.Rot>
4.0277

> <Gold.Chemscore.Internal.Correction>
   9.000000E+99

> <Gold.Chemscore.Hbonds>
donor molecule, donor type, donor heavy atom, donor atom, acceptor molecule, acceptor atom, score
      L1  H    16    30       P1  8028  0.91
      L1  H    20    32       P1  7957  1.00
      P1  H  6896  6909       L1     3  0.26
      P1  H 10752 10764       L1     9  0.79

> <Gold.Chemscore.Hbond.Weighted>
-9.7918

> <Gold.Chemscore.Metal.Weighted>
-0.0000

> <Gold.Chemscore.Lipo.Weighted>
-3.1501

> <Gold.Chemscore.Internal_Hbond.Weighted>
0.0000

> <Gold.Chemscore.DEClash.Weighted>
0.6785

> <Gold.Chemscore.DEInternal.Weighted>
0.1858

> <Gold.Chemscore.Rot.Weighted>
10.3110

> <Gold.Chemscore.Internal.Correction.Weighted>
   9.000000E+99

> <Gold.Protein.RotatedTorsions>
[ 6907 6896 6895 6894 ] final   34.03 input  -60.11 | X-H torsion
[ 7974 7965 7964 7962 ] final   97.99 input  175.53 | X-H torsion
[ 8008 7997 7996 7995 ] final  -42.57 input   59.86 | X-H torsion
[ 10167 10162 10161 10158 ] final -109.44 input  -65.29 | X-H torsion
[ 10718 10713 10712 10709 ] final -169.55 input   66.30 | X-H torsion
[ 10763 10752 10751 10750 ] final  -74.80 input  -60.55 | X-H torsion
[ 11005 11000 10999 10996 ] final  -73.81 input  -57.11 | X-H torsion

> <Gold.Protein.ActiveResidues>
 VAL166  LYS551  ARG553  GLY616  TRP617  ASP618  TYR619  PRO620  LYS621  CYS622 
 ASP623  PHE694  ASN695  SER759  ASP760  ASP761  ALA762  ILE779  LEU786  VAL792 
 PHE793  MET794  SER795  GLU796  ALA797  LYS798  CYS799  TRP800  GLU811  SER814 

> <Gold.Protein.RotatedAtoms>
  152.0967  134.9370  160.0570 H   0  0  0  0  0  0  0  0  0  0  0  0  # atno 6907 bound_to 6896
  152.0600  133.4053  159.4422 H   0  0  0  0  0  0  0  0  0  0  0  0  # atno 6908 bound_to 6896
  150.6838  134.3131  159.4798 H   0  0  0  0  0  0  0  0  0  0  0  0  # atno 6909 bound_to 6896
  145.4181  139.2325  143.3211 H   0  0  0  0  0  0  0  0  0  0  0  0  # atno 7974 bound_to 7965
  154.3998  140.1470  156.3376 H   0  0  0  0  0  0  0  0  0  0  0  0  # atno 8008 bound_to 7997
  155.8386  140.3463  155.5596 H   0  0  0  0  0  0  0  0  0  0  0  0  # atno 8009 bound_to 7997
  155.8111  140.0884  157.1893 H   0  0  0  0  0  0  0  0  0  0  0  0  # atno 8010 bound_to 7997
  140.1553  143.4165  152.1465 H   0  0  0  0  0  0  0  0  0  0  0  0  # atno 10167 bound_to 10162
  156.7131  130.9241  151.3091 H   0  0  0  0  0  0  0  0  0  0  0  0  # atno 10718 bound_to 10713
  154.4780  135.5852  153.6369 H   0  0  0  0  0  0  0  0  0  0  0  0  # atno 10763 bound_to 10752
  152.9843  135.6083  154.3282 H   0  0  0  0  0  0  0  0  0  0  0  0  # atno 10764 bound_to 10752
  154.3170  135.2844  155.2517 H   0  0  0  0  0  0  0  0  0  0  0  0  # atno 10765 bound_to 10752
  141.1627  133.6890  156.7269 H   0  0  0  0  0  0  0  0  0  0  0  0  # atno 11005 bound_to 11000
  146.2670  140.4902  142.8830 LP  0  0  0  0  0  0  0  0  0  0  0  0  # atno 17320 bound_to 7965
  144.8263  140.6634  143.6320 LP  0  0  0  0  0  0  0  0  0  0  0  0  # atno 17321 bound_to 7965
  139.5406  144.7253  151.4745 LP  0  0  0  0  0  0  0  0  0  0  0  0  # atno 17342 bound_to 10162
  140.6677  143.8362  150.6961 LP  0  0  0  0  0  0  0  0  0  0  0  0  # atno 17343 bound_to 10162
  157.6928  130.9251  150.0560 LP  0  0  0  0  0  0  0  0  0  0  0  0  # atno 17370 bound_to 10713
  156.1647  130.3645  149.9250 LP  0  0  0  0  0  0  0  0  0  0  0  0  # atno 17371 bound_to 10713
  140.2774  134.8344  157.3902 LP  0  0  0  0  0  0  0  0  0  0  0  0  # atno 17394 bound_to 11000
  140.1465  134.4905  155.7992 LP  0  0  0  0  0  0  0  0  0  0  0  0  # atno 17395 bound_to 11000

$$$$
