AV-unprocessed.smi:1240|AV-procd|sdf|5214|dock4
  -GOLD-   22720 4313D 1   1.00000     0.00000
 Structure written by MMmdl.
 48 50  0  0  0  0  0  0  0  0  4 V2000
  147.6249  132.0924  153.4464 O   0  0  0  0  0  0  0  0  0  0  0  0
  148.0913  133.2081  153.1898 C   0  0  0  0  0  0  0  0  0  0  0  0
  149.2448  133.7534  153.6603 N   0  5  0  0  0  0  0  0  0  0  0  0
  149.4841  134.1566  155.0474 C   0  0  0  0  0  0  0  0  0  0  0  0
  148.7703  135.5172  155.3702 C   0  0  1  0  0  0  0  0  0  0  0  0
  148.4812  135.7588  156.8890 C   0  0  1  0  0  0  0  0  0  0  0  0
  148.0635  134.5050  157.6444 C   0  0  0  0  0  0  0  0  0  0  0  0
  148.2596  134.9167  159.0978 C   0  0  0  0  0  0  0  0  0  0  0  0
  149.3833  135.7864  159.0923 O   0  0  0  0  0  0  0  0  0  0  0  0
  149.6746  136.1945  157.7591 C   0  0  0  0  0  0  0  0  0  0  0  0
  149.4545  136.7274  154.7910 N   0  3  0  0  0  0  0  0  0  0  0  0
  148.8071  138.0572  154.9766 C   0  0  0  0  0  0  0  0  0  0  0  0
  149.4875  139.0975  154.0726 C   0  0  0  0  0  0  0  0  0  0  0  0
  150.8800  139.1460  154.3616 O   0  0  0  0  0  0  0  0  0  0  0  0
  151.5248  137.9028  154.1098 C   0  0  0  0  0  0  0  0  0  0  0  0
  150.9230  136.8123  155.0111 C   0  0  0  0  0  0  0  0  0  0  0  0
  147.4327  134.0482  152.3713 N   0  0  0  0  0  0  0  0  0  0  0  0
  146.1818  133.8639  151.7232 C   0  0  0  0  0  0  0  0  0  0  0  0
  145.5401  135.0070  151.1978 C   0  0  0  0  0  0  0  0  0  0  0  0
  144.3035  134.8667  150.5361 C   0  0  0  0  0  0  0  0  0  0  0  0
  143.7501  133.6427  150.3974 N   0  3  0  0  0  0  0  0  0  0  0  0
  144.3363  132.5191  150.8640 C   0  0  0  0  0  0  0  0  0  0  0  0
  145.5738  132.5971  151.5348 C   0  0  0  0  0  0  0  0  0  0  0  0
  149.1357  133.3994  155.7496 H   0  0  0  0  0  0  0  0  0  0  0  0
  150.5485  134.2634  155.2581 H   0  0  0  0  0  0  0  0  0  0  0  0
  147.7960  135.4901  154.8788 H   0  0  0  0  0  0  0  0  0  0  0  0
  147.6870  136.4983  157.0121 H   0  0  0  0  0  0  0  0  0  0  0  0
  147.0382  134.1967  157.4382 H   0  0  0  0  0  0  0  0  0  0  0  0
  148.7259  133.6734  157.3993 H   0  0  0  0  0  0  0  0  0  0  0  0
  147.3919  135.4716  159.4562 H   0  0  0  0  0  0  0  0  0  0  0  0
  148.4148  134.0635  159.7585 H   0  0  0  0  0  0  0  0  0  0  0  0
  150.5893  135.6903  157.4446 H   0  0  0  0  0  0  0  0  0  0  0  0
  149.8517  137.2696  157.7178 H   0  0  0  0  0  0  0  0  0  0  0  0
  147.7463  138.0065  154.7333 H   0  0  0  0  0  0  0  0  0  0  0  0
  148.8845  138.3817  156.0152 H   0  0  0  0  0  0  0  0  0  0  0  0
  149.3297  138.8603  153.0191 H   0  0  0  0  0  0  0  0  0  0  0  0
  149.0564  140.0838  154.2444 H   0  0  0  0  0  0  0  0  0  0  0  0
  151.4251  137.6357  153.0564 H   0  0  0  0  0  0  0  0  0  0  0  0
  152.5907  138.0106  154.3114 H   0  0  0  0  0  0  0  0  0  0  0  0
  151.1410  137.0413  156.0549 H   0  0  0  0  0  0  0  0  0  0  0  0
  151.3929  135.8541  154.7869 H   0  0  0  0  0  0  0  0  0  0  0  0
  147.8363  134.9697  152.2865 H   0  0  0  0  0  0  0  0  0  0  0  0
  145.9857  135.9851  151.3091 H   0  0  0  0  0  0  0  0  0  0  0  0
  143.7458  135.6905  150.1160 H   0  0  0  0  0  0  0  0  0  0  0  0
  143.8047  131.5961  150.6837 H   0  0  0  0  0  0  0  0  0  0  0  0
  146.0400  131.6879  151.8835 H   0  0  0  0  0  0  0  0  0  0  0  0
  149.3802  136.5612  153.7981 H   0  0  0  0  0  0  0  0  0  0  0  0
  142.8544  133.5627  149.9156 H   0  0  0  0  0  0  0  0  0  0  0  0
  1  2  2  0  0  0  0
  2  3  1  0  0  0  0
  2 17  1  0  0  0  0
  3  4  1  0  0  0  0
  4  5  1  0  0  0  0
  4 24  1  0  0  0  0
  4 25  1  0  0  0  0
  5  6  1  0  0  0  0
  5 11  1  0  0  0  0
  5 26  1  0  0  0  0
  6 10  1  0  0  0  0
  6  7  1  0  0  0  0
  6 27  1  0  0  0  0
  7  8  1  0  0  0  0
  7 28  1  0  0  0  0
  7 29  1  0  0  0  0
  8  9  1  0  0  0  0
  8 30  1  0  0  0  0
  8 31  1  0  0  0  0
  9 10  1  0  0  0  0
 10 32  1  0  0  0  0
 10 33  1  0  0  0  0
 11 16  1  0  0  0  0
 11 12  1  0  0  0  0
 11 47  1  0  0  0  0
 12 13  1  0  0  0  0
 12 34  1  0  0  0  0
 12 35  1  0  0  0  0
 13 14  1  0  0  0  0
 13 36  1  0  0  0  0
 13 37  1  0  0  0  0
 14 15  1  0  0  0  0
 15 16  1  0  0  0  0
 15 38  1  0  0  0  0
 15 39  1  0  0  0  0
 16 40  1  0  0  0  0
 16 41  1  0  0  0  0
 17 18  1  0  0  0  0
 17 42  1  0  0  0  0
 18 23  1  0  0  0  0
 18 19  2  0  0  0  0
 19 20  1  0  0  0  0
 19 43  1  0  0  0  0
 20 21  2  0  0  0  0
 20 44  1  0  0  0  0
 21 22  1  0  0  0  0
 21 48  1  0  0  0  0
 22 23  2  0  0  0  0
 22 45  1  0  0  0  0
 23 46  1  0  0  0  0
M  CHG  1   3  -1
M  CHG  1  11   1
M  CHG  1  21   1
M  END
> <s_m_source_file>
AV-unprocessed.smi

> <i_m_source_file_index>
1240

> <i_lp_mmshare_version>
43012

> <i_f3d_flags>
0

> <s_epik_input>
W2NIXTFbY0hdbltjSF1bY0hdYzFbTkhdQyg9TylbTkhdW0NIMl1bQ0BIXShbQ0BASF0yW0NIMl1bQ0gyXU9bQ0gyXTIpTjNbQ0gyXVtDSDJdT1tDSDJdW0NIMl0z

> <s_epik_cmdline>
J2VwaWtfcHl0aG9uJywgJy1waCcsICc3LjAnLCAnLXRuJywgJzgnLCAnLW1hJywgJzIwMCcsICctbWV0YWxfYmluZGluZycsICctaW1hZScsICc8aW5maWxlLm1hZT4nLCAnLW9tYWUnLCAnPG91dGZpbGUubWFlPic=

> <r_epik_Ionization_Penalty>
8.41087

> <r_epik_Ionization_Penalty_Charging>
8.41087

> <r_epik_Ionization_Penalty_Neutral>
3.12936e-06

> <r_epik_State_Penalty>
8.81894

> <r_epik_Charging_Adjusted_Penalty>
17.2298

> <i_epik_Tot_Q>
1

> <i_epik_Tot_abs_Q>
3

> <r_epik_Metal_State_Penalty>
4.82983

> <b_epik_Metal_Only>
1

> <s_lp_Force_Field>
OPLS_2005

> <r_lp_Energy>
49.5446

> <b_lp_Chiralities_Consistent>
1

> <s_lp_Variant>
AV-unprocessed.smi:1240-20

> <Gold.Version>
5.8.1

> <Gold.Id.Protein>
6NUR|6NUR_protein|mol2

> <Gold.PLP.Fitness>
52.1082

> <Gold.PLP.PLP>
-33.3934

> <Gold.PLP.part.hbond>
-4.9940

> <Gold.PLP.part.metal>
0.0000

> <Gold.PLP.part.buried>
-4.2503

> <Gold.PLP.part.nonpolar>
-24.7184

> <Gold.PLP.part.repulsive>
1.3411

> <Gold.PLP.ligand.clash>
0.0000

> <Gold.PLP.ligand.torsion>
1.3999

> <Gold.PLP.Chemscore.Hbond>
7.0000

> <Gold.PLP.Chemscore.CHOScore>
0.0000

> <Gold.PLP.Chemscore.Metal>
0.0000

> <Gold.Chemscore.Hbonds>
donor molecule, donor type, donor heavy atom, donor atom, acceptor molecule, acceptor atom, score
      L1  H    11    47       P1  7948  2.00
      L1  H    17    42       P1  7948  1.00
      L1  H    21    48       P1 10186  1.69
      P1  H  6896  6907       L1     9  1.00
      P1  H  7989  7998       L1    14  0.93

> <Gold.PLP.Chemscore.Internal.Correction>
0.5147

> <Gold.Rescore>
     Score         DG    S(hbond)    S(metal)    S(lipo)     H(rot)  DE(clash)    DE(int)     intcor
     20.17     -24.07       4.33        0.00      72.63       1.70       1.19       2.71       ----

> <Gold.Chemscore.Fitness>
20.1687

> <Gold.Chemscore.DG>
-24.0691

> <Gold.Chemscore.ZeroCoef>
-5.4800

> <Gold.Chemscore.Hbond>
4.3259

> <Gold.Chemscore.Metal>
0.0000

> <Gold.Chemscore.Lipo>
72.6337

> <Gold.Chemscore.Internal_Hbond>
0.0000

> <Gold.Chemscore.DEClash>
1.1950

> <Gold.Chemscore.DEInternal>
2.7054

> <Gold.Chemscore.Rot>
1.7021

> <Gold.Chemscore.Internal.Correction>
   9.000000E+99

> <Gold.Chemscore.Hbonds>
donor molecule, donor type, donor heavy atom, donor atom, acceptor molecule, acceptor atom, score
      L1  H    11    47       P1  7948  0.88
      L1  H    17    42       P1  7948  0.85
      L1  H    21    48       P1 10186  0.79
      P1  H  6896  6907       L1     9  0.36
      P1  H  7989  7998       L1    14  0.56

> <Gold.Chemscore.Hbond.Weighted>
-14.4484

> <Gold.Chemscore.Metal.Weighted>
-0.0000

> <Gold.Chemscore.Lipo.Weighted>
-8.4981

> <Gold.Chemscore.Internal_Hbond.Weighted>
0.0000

> <Gold.Chemscore.DEClash.Weighted>
1.1950

> <Gold.Chemscore.DEInternal.Weighted>
2.7054

> <Gold.Chemscore.Rot.Weighted>
4.3575

> <Gold.Chemscore.Internal.Correction.Weighted>
   9.000000E+99

> <Gold.Protein.RotatedTorsions>
[ 6907 6896 6895 6894 ] final  -52.17 input  -60.11 | X-H torsion
[ 7974 7965 7964 7962 ] final -169.20 input  175.53 | X-H torsion
[ 8008 7997 7996 7995 ] final  -33.11 input   59.86 | X-H torsion
[ 10167 10162 10161 10158 ] final  161.96 input  -65.29 | X-H torsion
[ 10718 10713 10712 10709 ] final  165.20 input   66.30 | X-H torsion
[ 10763 10752 10751 10750 ] final   40.50 input  -60.55 | X-H torsion
[ 11005 11000 10999 10996 ] final -172.81 input  -57.11 | X-H torsion

> <Gold.Protein.ActiveResidues>
 VAL166  LYS551  ARG553  GLY616  TRP617  ASP618  TYR619  PRO620  LYS621  CYS622 
 ASP623  PHE694  ASN695  SER759  ASP760  ASP761  ALA762  ILE779  LEU786  VAL792 
 PHE793  MET794  SER795  GLU796  ALA797  LYS798  CYS799  TRP800  GLU811  SER814 

> <Gold.Protein.RotatedAtoms>
  150.8543  134.7877  159.7032 H   0  0  0  0  0  0  0  0  0  0  0  0  # atno 6907 bound_to 6896
  152.4599  134.5205  159.9791 H   0  0  0  0  0  0  0  0  0  0  0  0  # atno 6908 bound_to 6896
  151.5320  133.3409  159.2955 H   0  0  0  0  0  0  0  0  0  0  0  0  # atno 6909 bound_to 6896
  144.7189  140.2256  143.6310 H   0  0  0  0  0  0  0  0  0  0  0  0  # atno 7974 bound_to 7965
  154.4159  140.1719  156.1835 H   0  0  0  0  0  0  0  0  0  0  0  0  # atno 8008 bound_to 7997
  155.9662  140.3389  155.6511 H   0  0  0  0  0  0  0  0  0  0  0  0  # atno 8009 bound_to 7997
  155.6684  140.0709  157.2519 H   0  0  0  0  0  0  0  0  0  0  0  0  # atno 8010 bound_to 7997
  139.4855  144.4485  151.8861 H   0  0  0  0  0  0  0  0  0  0  0  0  # atno 10167 bound_to 10162
  157.0835  131.0398  151.2565 H   0  0  0  0  0  0  0  0  0  0  0  0  # atno 10718 bound_to 10713
  152.9934  135.6189  154.2637 H   0  0  0  0  0  0  0  0  0  0  0  0  # atno 10763 bound_to 10752
  154.2372  135.2790  155.2869 H   0  0  0  0  0  0  0  0  0  0  0  0  # atno 10764 bound_to 10752
  154.5400  135.5763  153.6889 H   0  0  0  0  0  0  0  0  0  0  0  0  # atno 10765 bound_to 10752
  140.4928  134.5968  157.4961 H   0  0  0  0  0  0  0  0  0  0  0  0  # atno 11005 bound_to 11000
  145.8459  139.2152  143.1800 LP  0  0  0  0  0  0  0  0  0  0  0  0  # atno 17320 bound_to 7965
  146.0304  140.8263  142.9879 LP  0  0  0  0  0  0  0  0  0  0  0  0  # atno 17321 bound_to 7965
  140.3940  144.2579  150.5897 LP  0  0  0  0  0  0  0  0  0  0  0  0  # atno 17342 bound_to 10162
  140.5119  143.2288  151.8522 LP  0  0  0  0  0  0  0  0  0  0  0  0  # atno 17343 bound_to 10162
  157.4780  130.7748  149.7387 LP  0  0  0  0  0  0  0  0  0  0  0  0  # atno 17370 bound_to 10713
  155.9917  130.3936  150.2973 LP  0  0  0  0  0  0  0  0  0  0  0  0  # atno 17371 bound_to 10713
  139.9759  134.7217  155.9951 LP  0  0  0  0  0  0  0  0  0  0  0  0  # atno 17394 bound_to 11000
  141.1475  133.6553  156.3912 LP  0  0  0  0  0  0  0  0  0  0  0  0  # atno 17395 bound_to 11000

$$$$
