AV-unprocessed.smi:2926|AV-procd|sdf|11227|dock9
  -GOLD-   2272016123D 1   1.00000     0.00000
 Structure written by MMmdl.
 32 32  0  0  0  0  0  0  0  0  1 V2000
  148.0013  139.9685  155.8969 C   0  0  0  0  0  0  0  0  0  0  0  0
  148.5344  140.5293  154.5671 C   0  0  0  0  0  0  0  0  0  0  0  0
  147.7382  141.7762  154.1369 C   0  0  0  0  0  0  0  0  0  0  0  0
  148.6221  139.4297  153.4747 C   0  0  2  0  0  0  0  0  0  0  0  0
  147.2565  138.9938  152.8999 C   0  0  0  0  0  0  0  0  0  0  0  0
  147.4240  138.2175  151.7328 O   0  0  0  0  0  0  0  0  0  0  0  0
  149.3369  138.2602  154.0026 N   0  0  0  0  0  0  0  0  0  0  0  0
  150.9115  138.4562  154.6848 S   0  0  0  0  0  0  0  0  0  0  0  0
  151.7465  137.3462  154.2003 O   0  0  0  0  0  0  0  0  0  0  0  0
  151.3344  139.8478  154.4627 O   0  0  0  0  0  0  0  0  0  0  0  0
  150.5924  138.2247  156.4841 C   0  0  0  0  0  0  0  0  0  0  0  0
  151.7206  138.8234  157.2742 C   0  0  0  0  0  0  0  0  0  0  0  0
  151.6698  139.8794  158.2260 C   0  0  0  0  0  0  0  0  0  0  0  0
  152.9680  140.0084  158.6279 C   0  0  0  0  0  0  0  0  0  0  0  0
  153.7571  139.1151  157.9793 O   0  0  0  0  0  0  0  0  0  0  0  0
  152.9518  138.3641  157.1156 N   0  0  0  0  0  0  0  0  0  0  0  0
  149.2105  139.8364  152.6511 H   0  0  0  0  0  0  0  0  0  0  0  0
  146.9668  139.6356  155.8073 H   0  0  0  0  0  0  0  0  0  0  0  0
  148.0371  140.7233  156.6829 H   0  0  0  0  0  0  0  0  0  0  0  0
  148.5961  139.1189  156.2333 H   0  0  0  0  0  0  0  0  0  0  0  0
  149.5516  140.8641  154.7727 H   0  0  0  0  0  0  0  0  0  0  0  0
  146.6992  141.5347  153.9121 H   0  0  0  0  0  0  0  0  0  0  0  0
  148.1715  142.2480  153.2556 H   0  0  0  0  0  0  0  0  0  0  0  0
  147.7345  142.5253  154.9291 H   0  0  0  0  0  0  0  0  0  0  0  0
  146.7135  138.3832  153.6215 H   0  0  0  0  0  0  0  0  0  0  0  0
  146.6227  139.8516  152.6764 H   0  0  0  0  0  0  0  0  0  0  0  0
  147.8681  137.4165  151.9665 H   0  0  0  0  0  0  0  0  0  0  0  0
  149.3206  137.4906  153.3337 H   0  0  0  0  0  0  0  0  0  0  0  0
  149.6384  138.6938  156.7276 H   0  0  0  0  0  0  0  0  0  0  0  0
  150.4998  137.1575  156.6838 H   0  0  0  0  0  0  0  0  0  0  0  0
  150.8158  140.4476  158.5635 H   0  0  0  0  0  0  0  0  0  0  0  0
  153.4658  140.6579  159.3325 H   0  0  0  0  0  0  0  0  0  0  0  0
  1  2  1  0  0  0  0
  1 18  1  0  0  0  0
  1 19  1  0  0  0  0
  1 20  1  0  0  0  0
  2  3  1  0  0  0  0
  2  4  1  0  0  0  0
  2 21  1  0  0  0  0
  3 22  1  0  0  0  0
  3 23  1  0  0  0  0
  3 24  1  0  0  0  0
  4 17  1  0  0  0  0
  4  5  1  0  0  0  0
  4  7  1  0  0  0  0
  5  6  1  0  0  0  0
  5 25  1  0  0  0  0
  5 26  1  0  0  0  0
  6 27  1  0  0  0  0
  7  8  1  0  0  0  0
  7 28  1  0  0  0  0
  8  9  2  0  0  0  0
  8 10  2  0  0  0  0
  8 11  1  0  0  0  0
 11 12  1  0  0  0  0
 11 29  1  0  0  0  0
 11 30  1  0  0  0  0
 12 16  2  0  0  0  0
 12 13  1  0  0  0  0
 13 14  2  0  0  0  0
 13 31  1  0  0  0  0
 14 15  1  0  0  0  0
 14 32  1  0  0  0  0
 15 16  1  0  0  0  0
M  END
> <s_m_source_file>
AV-unprocessed.smi

> <i_m_source_file_index>
2926

> <i_lp_mmshare_version>
43012

> <i_f3d_flags>
0

> <s_epik_input>
W0NIM11bQ0hdKFtDSDNdKVtDQEBIXShbQ0gyXVtPSF0pW05IXVMoPU8pKD1PKVtDSDJdYzFbY0hdW2NIXW9uMQ==

> <s_epik_cmdline>
J2VwaWtfcHl0aG9uJywgJy1waCcsICc3LjAnLCAnLXRuJywgJzgnLCAnLW1hJywgJzIwMCcsICctbWV0YWxfYmluZGluZycsICctaW1hZScsICc8aW5maWxlLm1hZT4nLCAnLW9tYWUnLCAnPG91dGZpbGUubWFlPic=

> <r_lp_tautomer_probability>
1

> <r_epik_Ionization_Penalty>
0.000193122

> <r_epik_Ionization_Penalty_Charging>
0

> <r_epik_Ionization_Penalty_Neutral>
0.000193122

> <r_epik_State_Penalty>
-0

> <r_epik_Charging_Adjusted_Penalty>
0

> <i_epik_Tot_Q>
0

> <i_epik_Tot_abs_Q>
0

> <r_epik_Metal_State_Penalty>
0.130256

> <b_epik_Metal_Only>
0

> <s_lp_Force_Field>
OPLS_2005

> <r_lp_Energy>
0.568984

> <b_lp_Chiralities_Consistent>
1

> <s_lp_Variant>
AV-unprocessed.smi:2926-2

> <Gold.Version>
5.8.1

> <Gold.Id.Protein>
6NUR|6NUR_protein|mol2

> <Gold.PLP.Fitness>
37.9325

> <Gold.PLP.PLP>
-22.9178

> <Gold.PLP.part.hbond>
-6.7157

> <Gold.PLP.part.metal>
0.0000

> <Gold.PLP.part.buried>
-0.8370

> <Gold.PLP.part.nonpolar>
-16.5633

> <Gold.PLP.part.repulsive>
0.2586

> <Gold.PLP.ligand.clash>
0.0000

> <Gold.PLP.ligand.torsion>
0.7518

> <Gold.PLP.Chemscore.Hbond>
5.4333

> <Gold.PLP.Chemscore.CHOScore>
0.0000

> <Gold.PLP.Chemscore.Metal>
0.0000

> <Gold.Chemscore.Hbonds>
donor molecule, donor type, donor heavy atom, donor atom, acceptor molecule, acceptor atom, score
      L1  H     6    27       P1  7948  1.00
      L1  H     7    28       P1  7948  1.00
      P1  H  7954  7966       L1     6  0.20
      P1  H  7989  7998       L1    10  0.75
      P1  H  7997  8010       L1    15  1.00
      P1  H 10752 10764       L1     9  0.91

> <Gold.PLP.Chemscore.Internal.Correction>
0.2185

> <Gold.Rescore>
     Score         DG    S(hbond)    S(metal)    S(lipo)     H(rot)  DE(clash)    DE(int)     intcor
     15.64     -19.32       4.68        0.00      49.33       2.96       1.56       2.13       ----

> <Gold.Chemscore.Fitness>
15.6384

> <Gold.Chemscore.DG>
-19.3239

> <Gold.Chemscore.ZeroCoef>
-5.4800

> <Gold.Chemscore.Hbond>
4.6829

> <Gold.Chemscore.Metal>
0.0000

> <Gold.Chemscore.Lipo>
49.3286

> <Gold.Chemscore.Internal_Hbond>
0.0000

> <Gold.Chemscore.DEClash>
1.5574

> <Gold.Chemscore.DEInternal>
2.1281

> <Gold.Chemscore.Rot>
2.9564

> <Gold.Chemscore.Internal.Correction>
   9.000000E+99

> <Gold.Chemscore.Hbonds>
donor molecule, donor type, donor heavy atom, donor atom, acceptor molecule, acceptor atom, score
      L1  H     6    27       P1  7948  0.96
      L1  H     7    28       P1  7948  0.97
      P1  H  7989  7998       L1    10  0.75
      P1  H  7997  8010       L1    15  0.34
      P1  H 10752 10764       L1     9  0.84

> <Gold.Chemscore.Hbond.Weighted>
-15.6410

> <Gold.Chemscore.Metal.Weighted>
-0.0000

> <Gold.Chemscore.Lipo.Weighted>
-5.7714

> <Gold.Chemscore.Internal_Hbond.Weighted>
0.0000

> <Gold.Chemscore.DEClash.Weighted>
1.5574

> <Gold.Chemscore.DEInternal.Weighted>
2.1281

> <Gold.Chemscore.Rot.Weighted>
7.5685

> <Gold.Chemscore.Internal.Correction.Weighted>
   9.000000E+99

> <Gold.Protein.RotatedTorsions>
[ 6907 6896 6895 6894 ] final -152.29 input  -60.11 | X-H torsion
[ 7974 7965 7964 7962 ] final  143.91 input  175.53 | X-H torsion
[ 8008 7997 7996 7995 ] final   20.49 input   59.86 | X-H torsion
[ 10167 10162 10161 10158 ] final   47.70 input  -65.29 | X-H torsion
[ 10718 10713 10712 10709 ] final  -30.83 input   66.30 | X-H torsion
[ 10763 10752 10751 10750 ] final  -75.15 input  -60.55 | X-H torsion
[ 11005 11000 10999 10996 ] final  120.28 input  -57.11 | X-H torsion

> <Gold.Protein.ActiveResidues>
 VAL166  LYS551  ARG553  GLY616  TRP617  ASP618  TYR619  PRO620  LYS621  CYS622 
 ASP623  PHE694  ASN695  SER759  ASP760  ASP761  ALA762  ILE779  LEU786  VAL792 
 PHE793  MET794  SER795  GLU796  ALA797  LYS798  CYS799  TRP800  GLU811  SER814 

> <Gold.Protein.RotatedAtoms>
  151.2256  133.4478  159.2601 H   0  0  0  0  0  0  0  0  0  0  0  0  # atno 6907 bound_to 6896
  151.0843  134.9877  159.8381 H   0  0  0  0  0  0  0  0  0  0  0  0  # atno 6908 bound_to 6896
  152.5428  134.2194  159.8834 H   0  0  0  0  0  0  0  0  0  0  0  0  # atno 6909 bound_to 6896
  144.8880  139.5600  143.5812 H   0  0  0  0  0  0  0  0  0  0  0  0  # atno 7974 bound_to 7965
  154.9364  140.3047  155.5142 H   0  0  0  0  0  0  0  0  0  0  0  0  # atno 8008 bound_to 7997
  156.2999  140.2344  156.4365 H   0  0  0  0  0  0  0  0  0  0  0  0  # atno 8009 bound_to 7997
  154.8188  140.0424  157.1384 H   0  0  0  0  0  0  0  0  0  0  0  0  # atno 8010 bound_to 7997
  140.3009  144.2935  150.6219 H   0  0  0  0  0  0  0  0  0  0  0  0  # atno 10167 bound_to 10162
  156.3948  130.4379  149.7367 H   0  0  0  0  0  0  0  0  0  0  0  0  # atno 10718 bound_to 10713
  154.4826  135.5841  153.6401 H   0  0  0  0  0  0  0  0  0  0  0  0  # atno 10763 bound_to 10752
  152.9850  135.6093  154.3226 H   0  0  0  0  0  0  0  0  0  0  0  0  # atno 10764 bound_to 10752
  154.3119  135.2845  155.2541 H   0  0  0  0  0  0  0  0  0  0  0  0  # atno 10765 bound_to 10752
  139.9179  134.9634  156.7783 H   0  0  0  0  0  0  0  0  0  0  0  0  # atno 11005 bound_to 11000
  146.3036  139.7507  142.9072 LP  0  0  0  0  0  0  0  0  0  0  0  0  # atno 17320 bound_to 7965
  145.3834  141.0361  143.3165 LP  0  0  0  0  0  0  0  0  0  0  0  0  # atno 17321 bound_to 7965
  140.5652  143.2187  151.7696 LP  0  0  0  0  0  0  0  0  0  0  0  0  # atno 17342 bound_to 10162
  139.4915  144.4294  151.9889 LP  0  0  0  0  0  0  0  0  0  0  0  0  # atno 17343 bound_to 10162
  156.4406  130.7859  151.2880 LP  0  0  0  0  0  0  0  0  0  0  0  0  # atno 17370 bound_to 10713
  157.7501  131.0126  150.3391 LP  0  0  0  0  0  0  0  0  0  0  0  0  # atno 17371 bound_to 10713
  140.6564  133.9684  155.7782 LP  0  0  0  0  0  0  0  0  0  0  0  0  # atno 17394 bound_to 11000
  141.0673  134.0258  157.3576 LP  0  0  0  0  0  0  0  0  0  0  0  0  # atno 17395 bound_to 11000

$$$$
