AV-unprocessed.smi:177|AV-procd|sdf|1437|dock5
  -GOLD-   2262019223D 1   1.00000     0.00000
 Structure written by MMmdl.
 61 65  0  0  0  0  0  0  0  0  1 V2000
  151.0064  145.2466  159.0185 C   0  0  0  0  0  0  0  0  0  0  0  0
  152.1099  144.5687  159.5991 O   0  0  0  0  0  0  0  0  0  0  0  0
  151.9615  143.1559  159.6698 C   0  0  2  0  0  0  0  0  0  0  0  0
  153.2559  142.5905  160.2796 C   0  0  0  0  0  0  0  0  0  0  0  0
  153.2339  141.0555  160.3191 C   0  0  0  0  0  0  0  0  0  0  0  0
  152.9876  140.4814  158.9165 C   0  0  1  0  0  0  0  0  0  0  0  0
  152.9566  139.0610  158.9910 O   0  0  0  0  0  0  0  0  0  0  0  0
  152.8333  138.4731  157.7017 C   0  0  0  0  0  0  0  0  0  0  0  0
  151.5099  138.9190  157.0616 C   0  0  0  0  0  0  0  0  0  0  0  0
  151.4138  140.3759  157.0260 N   0  0  0  0  0  0  0  0  0  0  0  0
  150.3094  140.7509  156.3354 C   0  0  0  0  0  0  0  0  0  0  0  0
  150.2848  140.6714  154.9779 N   0  0  0  0  0  0  0  0  0  0  0  0
  149.1983  141.0597  154.3036 C   0  0  0  0  0  0  0  0  0  0  0  0
  148.0553  141.5599  154.7781 N   0  0  0  0  0  0  0  0  0  0  0  0
  148.0844  141.6584  156.1386 C   0  0  0  0  0  0  0  0  0  0  0  0
  149.1622  141.2784  156.9863 C   0  0  0  0  0  0  0  0  0  0  0  0
  148.8314  141.5153  158.3140 N   0  0  0  0  0  0  0  0  0  0  0  0
  147.6231  142.0060  158.2552 C   0  0  0  0  0  0  0  0  0  0  0  0
  147.1026  142.1422  156.9870 N   0  0  0  0  0  0  0  0  0  0  0  0
  145.7825  142.6475  156.6358 C   0  0  0  0  0  0  0  0  0  0  0  0
  144.6107  141.6227  156.7431 C   0  0  0  0  0  0  0  0  0  0  0  0
  144.9959  140.3830  155.8855 C   0  0  0  0  0  0  0  0  0  0  0  0
  145.3580  140.7302  154.5634 O   0  0  0  0  0  0  0  0  0  0  0  0
  144.3323  141.2251  158.2167 C   0  0  0  0  0  0  0  0  0  0  0  0
  143.0622  140.3678  158.3680 C   0  0  0  0  0  0  0  0  0  0  0  0
  141.9415  141.0671  157.8408 O   0  0  0  0  0  0  0  0  0  0  0  0
  142.0637  141.3482  156.4520 C   0  0  0  0  0  0  0  0  0  0  0  0
  143.2951  142.2391  156.2001 C   0  0  0  0  0  0  0  0  0  0  0  0
  151.6531  141.0025  158.3325 C   0  0  2  0  0  0  0  0  0  0  0  0
  151.7006  142.5496  158.2733 C   0  0  0  0  0  0  0  0  0  0  0  0
  151.1806  146.3215  159.0601 H   0  0  0  0  0  0  0  0  0  0  0  0
  150.0839  145.0387  159.5616 H   0  0  0  0  0  0  0  0  0  0  0  0
  150.8658  144.9759  157.9725 H   0  0  0  0  0  0  0  0  0  0  0  0
  151.1349  142.9056  160.3374 H   0  0  0  0  0  0  0  0  0  0  0  0
  154.1137  142.9250  159.6945 H   0  0  0  0  0  0  0  0  0  0  0  0
  153.3968  142.9849  161.2865 H   0  0  0  0  0  0  0  0  0  0  0  0
  154.1785  140.6814  160.7147 H   0  0  0  0  0  0  0  0  0  0  0  0
  152.4539  140.7152  161.0014 H   0  0  0  0  0  0  0  0  0  0  0  0
  153.8162  140.7814  158.2711 H   0  0  0  0  0  0  0  0  0  0  0  0
  153.6824  138.7516  157.0755 H   0  0  0  0  0  0  0  0  0  0  0  0
  152.8552  137.3880  157.8026 H   0  0  0  0  0  0  0  0  0  0  0  0
  151.4390  138.5084  156.0535 H   0  0  0  0  0  0  0  0  0  0  0  0
  150.6702  138.5164  157.6305 H   0  0  0  0  0  0  0  0  0  0  0  0
  149.2540  140.9563  153.2299 H   0  0  0  0  0  0  0  0  0  0  0  0
  147.0748  142.2890  159.1419 H   0  0  0  0  0  0  0  0  0  0  0  0
  145.5780  143.5096  157.2723 H   0  0  0  0  0  0  0  0  0  0  0  0
  145.8487  143.0395  155.6204 H   0  0  0  0  0  0  0  0  0  0  0  0
  145.8277  139.8268  156.3134 H   0  0  0  0  0  0  0  0  0  0  0  0
  144.1596  139.6850  155.8351 H   0  0  0  0  0  0  0  0  0  0  0  0
  144.6038  140.6149  154.0055 H   0  0  0  0  0  0  0  0  0  0  0  0
  145.1883  140.7046  158.6467 H   0  0  0  0  0  0  0  0  0  0  0  0
  144.1889  142.1177  158.8243 H   0  0  0  0  0  0  0  0  0  0  0  0
  143.1685  139.3983  157.8806 H   0  0  0  0  0  0  0  0  0  0  0  0
  142.8771  140.1650  159.4229 H   0  0  0  0  0  0  0  0  0  0  0  0
  142.1077  140.4210  155.8811 H   0  0  0  0  0  0  0  0  0  0  0  0
  141.1625  141.8670  156.1249 H   0  0  0  0  0  0  0  0  0  0  0  0
  143.0974  143.1928  156.6880 H   0  0  0  0  0  0  0  0  0  0  0  0
  143.3877  142.4564  155.1355 H   0  0  0  0  0  0  0  0  0  0  0  0
  150.8467  140.7016  159.0037 H   0  0  0  0  0  0  0  0  0  0  0  0
  150.7665  142.9443  157.8779 H   0  0  0  0  0  0  0  0  0  0  0  0
  152.4833  142.8677  157.5833 H   0  0  0  0  0  0  0  0  0  0  0  0
  1  2  1  0  0  0  0
  1 31  1  0  0  0  0
  1 32  1  0  0  0  0
  1 33  1  0  0  0  0
  2  3  1  0  0  0  0
  3 30  1  0  0  0  0
  3  4  1  0  0  0  0
  3 34  1  0  0  0  0
  4  5  1  0  0  0  0
  4 35  1  0  0  0  0
  4 36  1  0  0  0  0
  5  6  1  0  0  0  0
  5 37  1  0  0  0  0
  5 38  1  0  0  0  0
  6 29  1  0  0  0  0
  6  7  1  0  0  0  0
  6 39  1  0  0  0  0
  7  8  1  0  0  0  0
  8  9  1  0  0  0  0
  8 40  1  0  0  0  0
  8 41  1  0  0  0  0
  9 10  1  0  0  0  0
  9 42  1  0  0  0  0
  9 43  1  0  0  0  0
 10 11  1  0  0  0  0
 10 29  1  0  0  0  0
 11 16  1  0  0  0  0
 11 12  2  0  0  0  0
 12 13  1  0  0  0  0
 13 14  2  0  0  0  0
 13 44  1  0  0  0  0
 14 15  1  0  0  0  0
 15 19  1  0  0  0  0
 15 16  2  0  0  0  0
 16 17  1  0  0  0  0
 17 18  2  0  0  0  0
 18 19  1  0  0  0  0
 18 45  1  0  0  0  0
 19 20  1  0  0  0  0
 20 21  1  0  0  0  0
 20 46  1  0  0  0  0
 20 47  1  0  0  0  0
 21 28  1  0  0  0  0
 21 22  1  0  0  0  0
 21 24  1  0  0  0  0
 22 23  1  0  0  0  0
 22 48  1  0  0  0  0
 22 49  1  0  0  0  0
 23 50  1  0  0  0  0
 24 25  1  0  0  0  0
 24 51  1  0  0  0  0
 24 52  1  0  0  0  0
 25 26  1  0  0  0  0
 25 53  1  0  0  0  0
 25 54  1  0  0  0  0
 26 27  1  0  0  0  0
 27 28  1  0  0  0  0
 27 55  1  0  0  0  0
 27 56  1  0  0  0  0
 28 57  1  0  0  0  0
 28 58  1  0  0  0  0
 29 30  1  0  0  0  0
 29 59  1  0  0  0  0
 30 60  1  0  0  0  0
 30 61  1  0  0  0  0
M  END
> <s_m_source_file>
AV-unprocessed.smi

> <i_m_source_file_index>
177

> <i_lp_mmshare_version>
43012

> <i_f3d_flags>
0

> <s_epik_input>
W0NIM11PW0NASF0oW0NIMl1bQ0gyXTEpW0NIMl1bQ0BIXShbQ0BASF0xMilOKFtDSDJdW0NIMl1PMiljKG5bY0hdbjMpYyhjMzQpbltjSF1uNFtDSDJdQzUoW0NIMl1bT0hdKVtDSDJdW0NIMl1PW0NIMl1bQ0gyXTU=

> <s_epik_cmdline>
J2VwaWtfcHl0aG9uJywgJy1waCcsICc3LjAnLCAnLXRuJywgJzgnLCAnLW1hJywgJzIwMCcsICctbWV0YWxfYmluZGluZycsICctaW1hZScsICc8aW5maWxlLm1hZT4nLCAnLW9tYWUnLCAnPG91dGZpbGUubWFlPic=

> <r_lp_tautomer_probability>
1

> <r_epik_Ionization_Penalty>
0.0065899

> <r_epik_Ionization_Penalty_Charging>
0

> <r_epik_Ionization_Penalty_Neutral>
0.0065899

> <r_epik_State_Penalty>
0.00470042

> <r_epik_Charging_Adjusted_Penalty>
0.00470042

> <i_epik_Tot_Q>
0

> <i_epik_Tot_abs_Q>
0

> <r_epik_Metal_State_Penalty>
-0

> <b_epik_Metal_Only>
0

> <s_lp_Force_Field>
OPLS_2005

> <r_lp_Energy>
44.8058

> <b_lp_Chiralities_Consistent>
1

> <s_lp_Variant>
AV-unprocessed.smi:177-1

> <Gold.Version>
5.8.1

> <Gold.Id.Protein>
6NUR|6NUR_protein|mol2

> <Gold.PLP.Fitness>
44.4575

> <Gold.PLP.PLP>
-37.6957

> <Gold.PLP.part.hbond>
-2.0000

> <Gold.PLP.part.metal>
0.0000

> <Gold.PLP.part.buried>
-6.2178

> <Gold.PLP.part.nonpolar>
-29.5960

> <Gold.PLP.part.repulsive>
0.3078

> <Gold.PLP.ligand.clash>
0.0000

> <Gold.PLP.ligand.torsion>
0.9160

> <Gold.PLP.Chemscore.Hbond>
1.8064

> <Gold.PLP.Chemscore.CHOScore>
1.0000

> <Gold.PLP.Chemscore.Metal>
0.0000

> <Gold.Chemscore.Hbonds>
donor molecule, donor type, donor heavy atom, donor atom, acceptor molecule, acceptor atom, score
      L1  H    23    50       P1 10175  1.00
      P1  H  7989  7998       L1    12  0.79
      L1  C    13    44       P1  7957  1.00

> <Gold.PLP.Chemscore.Internal.Correction>
0.1746

> <Gold.Rescore>
     Score         DG    S(hbond)    S(metal)    S(lipo)     H(rot)  DE(clash)    DE(int)     intcor
     11.23     -13.55       1.35        0.00      86.79       2.58       0.08       2.24       ----

> <Gold.Chemscore.Fitness>
11.2286

> <Gold.Chemscore.DG>
-13.5486

> <Gold.Chemscore.ZeroCoef>
-5.4800

> <Gold.Chemscore.Hbond>
1.3535

> <Gold.Chemscore.Metal>
0.0000

> <Gold.Chemscore.Lipo>
86.7889

> <Gold.Chemscore.Internal_Hbond>
0.0000

> <Gold.Chemscore.DEClash>
0.0756

> <Gold.Chemscore.DEInternal>
2.2444

> <Gold.Chemscore.Rot>
2.5806

> <Gold.Chemscore.Internal.Correction>
   9.000000E+99

> <Gold.Chemscore.Hbonds>
donor molecule, donor type, donor heavy atom, donor atom, acceptor molecule, acceptor atom, score
      L1  H    23    50       P1 10175  0.99
      P1  H  7989  7998       L1    12  0.15

> <Gold.Chemscore.Hbond.Weighted>
-4.5205

> <Gold.Chemscore.Metal.Weighted>
-0.0000

> <Gold.Chemscore.Lipo.Weighted>
-10.1543

> <Gold.Chemscore.Internal_Hbond.Weighted>
0.0000

> <Gold.Chemscore.DEClash.Weighted>
0.0756

> <Gold.Chemscore.DEInternal.Weighted>
2.2444

> <Gold.Chemscore.Rot.Weighted>
6.6062

> <Gold.Chemscore.Internal.Correction.Weighted>
   9.000000E+99

> <Gold.Protein.RotatedTorsions>
[ 6907 6896 6895 6894 ] final  142.25 input  -60.11 | X-H torsion
[ 7974 7965 7964 7962 ] final   78.26 input  175.53 | X-H torsion
[ 8008 7997 7996 7995 ] final  -45.94 input   59.86 | X-H torsion
[ 10167 10162 10161 10158 ] final -163.92 input  -65.29 | X-H torsion
[ 10718 10713 10712 10709 ] final   56.91 input   66.30 | X-H torsion
[ 10763 10752 10751 10750 ] final   25.08 input  -60.55 | X-H torsion
[ 11005 11000 10999 10996 ] final -168.38 input  -57.11 | X-H torsion

> <Gold.Protein.ActiveResidues>
 VAL166  LYS551  ARG553  GLY616  TRP617  ASP618  TYR619  PRO620  LYS621  CYS622 
 ASP623  PHE694  ASN695  SER759  ASP760  ASP761  ALA762  ILE779  LEU786  VAL792 
 PHE793  MET794  SER795  GLU796  ALA797  LYS798  CYS799  TRP800  GLU811  SER814 

> <Gold.Protein.RotatedAtoms>
  152.2210  133.4984  159.5162 H   0  0  0  0  0  0  0  0  0  0  0  0  # atno 6907 bound_to 6896
  150.7013  134.1342  159.4090 H   0  0  0  0  0  0  0  0  0  0  0  0  # atno 6908 bound_to 6896
  151.9262  135.0276  160.0576 H   0  0  0  0  0  0  0  0  0  0  0  0  # atno 6909 bound_to 6896
  145.6795  139.2519  143.1822 H   0  0  0  0  0  0  0  0  0  0  0  0  # atno 7974 bound_to 7965
  154.4004  140.1384  156.3930 H   0  0  0  0  0  0  0  0  0  0  0  0  # atno 8008 bound_to 7997
  155.7897  140.3479  155.5322 H   0  0  0  0  0  0  0  0  0  0  0  0  # atno 8009 bound_to 7997
  155.8592  140.0954  157.1615 H   0  0  0  0  0  0  0  0  0  0  0  0  # atno 8010 bound_to 7997
  139.6286  144.0483  152.1996 H   0  0  0  0  0  0  0  0  0  0  0  0  # atno 10167 bound_to 10162
  157.5471  130.8738  149.8907 H   0  0  0  0  0  0  0  0  0  0  0  0  # atno 10718 bound_to 10713
  153.0717  135.6591  154.0232 H   0  0  0  0  0  0  0  0  0  0  0  0  # atno 10763 bound_to 10752
  153.9876  135.2949  155.3416 H   0  0  0  0  0  0  0  0  0  0  0  0  # atno 10764 bound_to 10752
  154.7094  135.5211  153.8713 H   0  0  0  0  0  0  0  0  0  0  0  0  # atno 10765 bound_to 10752
  140.5427  134.5507  157.5103 H   0  0  0  0  0  0  0  0  0  0  0  0  # atno 11005 bound_to 11000
  146.0977  140.7581  142.9564 LP  0  0  0  0  0  0  0  0  0  0  0  0  # atno 17320 bound_to 7965
  144.7031  140.3737  143.7140 LP  0  0  0  0  0  0  0  0  0  0  0  0  # atno 17321 bound_to 7965
  140.0143  144.6201  150.7621 LP  0  0  0  0  0  0  0  0  0  0  0  0  # atno 17342 bound_to 10162
  140.7426  143.2834  151.3533 LP  0  0  0  0  0  0  0  0  0  0  0  0  # atno 17343 bound_to 10162
  156.0545  130.3711  150.1124 LP  0  0  0  0  0  0  0  0  0  0  0  0  # atno 17370 bound_to 10713
  156.9300  130.9710  151.3534 LP  0  0  0  0  0  0  0  0  0  0  0  0  # atno 17371 bound_to 10713
  139.9496  134.7641  156.0481 LP  0  0  0  0  0  0  0  0  0  0  0  0  # atno 17394 bound_to 11000
  141.1218  133.6611  156.3234 LP  0  0  0  0  0  0  0  0  0  0  0  0  # atno 17395 bound_to 11000

$$$$
