AV-unprocessed.smi:192|AV-procd|sdf|1495|dock3
  -GOLD-   2262019323D 1   1.00000     0.00000
 Structure written by MMmdl.
 58 60  0  0  0  0  0  0  0  0  1 V2000
  153.5172  142.0076  160.2340 C   0  0  0  0  0  0  0  0  0  0  0  0
  152.1246  141.9562  159.5887 C   0  0  0  0  0  0  0  0  0  0  0  0
  151.9847  142.8093  158.3058 C   0  0  0  0  0  0  0  0  0  0  0  0
  152.5311  144.2395  158.5154 C   0  0  0  0  0  0  0  0  0  0  0  0
  151.7266  145.0745  159.5228 C   0  0  0  0  0  0  0  0  0  0  0  0
  150.5075  142.8493  157.8359 C   0  0  0  0  0  0  0  0  0  0  0  0
  150.0442  141.6115  157.2060 N   0  0  0  0  0  0  0  0  0  0  0  0
  150.9867  140.5044  157.0573 C   0  0  0  0  0  0  0  0  0  0  0  0
  151.0789  139.9550  155.6222 C   0  0  0  0  0  0  0  0  0  0  0  0
  152.3436  139.2665  155.3217 C   0  0  0  0  0  0  0  0  0  0  0  0
  153.3387  138.7255  155.0854 N   0  0  0  0  0  0  0  0  0  0  0  0
  148.7614  141.2228  157.4048 C   0  0  0  0  0  0  0  0  0  0  0  0
  147.8468  142.1995  157.6289 N   0  0  0  0  0  0  0  0  0  0  0  0
  146.5692  141.8834  157.8589 C   0  0  0  0  0  0  0  0  0  0  0  0
  146.0021  140.6765  157.8977 N   0  0  0  0  0  0  0  0  0  0  0  0
  146.9126  139.6917  157.6490 C   0  0  0  0  0  0  0  0  0  0  0  0
  148.3018  139.8735  157.3956 C   0  0  0  0  0  0  0  0  0  0  0  0
  148.9067  138.6392  157.1891 N   0  0  0  0  0  0  0  0  0  0  0  0
  147.9373  137.7782  157.3323 C   0  0  0  0  0  0  0  0  0  0  0  0
  146.7001  138.3257  157.5834 N   0  0  0  0  0  0  0  0  0  0  0  0
  145.4816  137.6107  157.8246 C   0  0  0  0  0  0  0  0  0  0  0  0
  145.3712  136.1135  157.5295 C   0  0  0  0  0  0  0  0  0  0  0  0
  143.8767  136.3015  157.1809 C   0  0  0  0  0  0  0  0  0  0  0  0
  143.3616  135.5392  155.9474 C   0  0  0  0  0  0  0  0  0  0  0  0
  142.1577  136.0879  155.4520 O   0  0  0  0  0  0  0  0  0  0  0  0
  142.8733  136.1305  158.3415 C   0  0  0  0  0  0  0  0  0  0  0  0
  142.5386  134.7768  158.5667 O   0  0  0  0  0  0  0  0  0  0  0  0
  144.2686  137.7706  156.9051 C   0  0  0  0  0  0  0  0  0  0  0  0
  153.5694  141.3272  161.0842 H   0  0  0  0  0  0  0  0  0  0  0  0
  153.7636  143.0028  160.6018 H   0  0  0  0  0  0  0  0  0  0  0  0
  154.2901  141.7085  159.5255 H   0  0  0  0  0  0  0  0  0  0  0  0
  151.9193  140.9109  159.3568 H   0  0  0  0  0  0  0  0  0  0  0  0
  151.3688  142.2529  160.3168 H   0  0  0  0  0  0  0  0  0  0  0  0
  152.5944  142.3444  157.5308 H   0  0  0  0  0  0  0  0  0  0  0  0
  153.5762  144.1969  158.8246 H   0  0  0  0  0  0  0  0  0  0  0  0
  152.5217  144.7811  157.5707 H   0  0  0  0  0  0  0  0  0  0  0  0
  152.0984  146.0988  159.5555 H   0  0  0  0  0  0  0  0  0  0  0  0
  151.7946  144.6744  160.5338 H   0  0  0  0  0  0  0  0  0  0  0  0
  150.6723  145.1147  159.2475 H   0  0  0  0  0  0  0  0  0  0  0  0
  149.8683  143.0643  158.6930 H   0  0  0  0  0  0  0  0  0  0  0  0
  150.3477  143.6698  157.1409 H   0  0  0  0  0  0  0  0  0  0  0  0
  151.9746  140.8319  157.3832 H   0  0  0  0  0  0  0  0  0  0  0  0
  150.7008  139.7022  157.7383 H   0  0  0  0  0  0  0  0  0  0  0  0
  150.2565  139.2729  155.4065 H   0  0  0  0  0  0  0  0  0  0  0  0
  150.9954  140.7787  154.9133 H   0  0  0  0  0  0  0  0  0  0  0  0
  145.9065  142.7167  158.0401 H   0  0  0  0  0  0  0  0  0  0  0  0
  148.1000  136.7132  157.2512 H   0  0  0  0  0  0  0  0  0  0  0  0
  145.2119  137.8202  158.8610 H   0  0  0  0  0  0  0  0  0  0  0  0
  145.9700  135.8114  156.6680 H   0  0  0  0  0  0  0  0  0  0  0  0
  145.5703  135.4694  158.3863 H   0  0  0  0  0  0  0  0  0  0  0  0
  144.1026  135.5322  155.1475 H   0  0  0  0  0  0  0  0  0  0  0  0
  143.1653  134.4946  156.1907 H   0  0  0  0  0  0  0  0  0  0  0  0
  141.4684  135.4514  155.5629 H   0  0  0  0  0  0  0  0  0  0  0  0
  143.2788  136.5241  159.2738 H   0  0  0  0  0  0  0  0  0  0  0  0
  141.9563  136.6898  158.1535 H   0  0  0  0  0  0  0  0  0  0  0  0
  143.1015  134.4367  159.2452 H   0  0  0  0  0  0  0  0  0  0  0  0
  143.5429  138.5120  157.2415 H   0  0  0  0  0  0  0  0  0  0  0  0
  144.5577  137.9542  155.8685 H   0  0  0  0  0  0  0  0  0  0  0  0
  1  2  1  0  0  0  0
  1 29  1  0  0  0  0
  1 30  1  0  0  0  0
  1 31  1  0  0  0  0
  2  3  1  0  0  0  0
  2 32  1  0  0  0  0
  2 33  1  0  0  0  0
  3  4  1  0  0  0  0
  3  6  1  0  0  0  0
  3 34  1  0  0  0  0
  4  5  1  0  0  0  0
  4 35  1  0  0  0  0
  4 36  1  0  0  0  0
  5 37  1  0  0  0  0
  5 38  1  0  0  0  0
  5 39  1  0  0  0  0
  6  7  1  0  0  0  0
  6 40  1  0  0  0  0
  6 41  1  0  0  0  0
  7  8  1  0  0  0  0
  7 12  1  0  0  0  0
  8  9  1  0  0  0  0
  8 42  1  0  0  0  0
  8 43  1  0  0  0  0
  9 10  1  0  0  0  0
  9 44  1  0  0  0  0
  9 45  1  0  0  0  0
 10 11  3  0  0  0  0
 12 17  1  0  0  0  0
 12 13  2  0  0  0  0
 13 14  1  0  0  0  0
 14 15  2  0  0  0  0
 14 46  1  0  0  0  0
 15 16  1  0  0  0  0
 16 20  1  0  0  0  0
 16 17  2  0  0  0  0
 17 18  1  0  0  0  0
 18 19  2  0  0  0  0
 19 20  1  0  0  0  0
 19 47  1  0  0  0  0
 20 21  1  0  0  0  0
 21 28  1  0  0  0  0
 21 22  1  0  0  0  0
 21 48  1  0  0  0  0
 22 23  1  0  0  0  0
 22 49  1  0  0  0  0
 22 50  1  0  0  0  0
 23 24  1  0  0  0  0
 23 26  1  0  0  0  0
 23 28  1  0  0  0  0
 24 25  1  0  0  0  0
 24 51  1  0  0  0  0
 24 52  1  0  0  0  0
 25 53  1  0  0  0  0
 26 27  1  0  0  0  0
 26 54  1  0  0  0  0
 26 55  1  0  0  0  0
 27 56  1  0  0  0  0
 28 57  1  0  0  0  0
 28 58  1  0  0  0  0
M  END
> <s_m_source_file>
AV-unprocessed.smi

> <i_m_source_file_index>
192

> <i_lp_mmshare_version>
43012

> <i_f3d_flags>
0

> <s_epik_input>
W0NIM11bQ0gyXVtDSF0oW0NIMl1bQ0gzXSlbQ0gyXU4oW0NIMl1bQ0gyXUMjTiljKG5bY0hdbjEpYyhjMTIpbltjSF1uMltDSF0oW0NIMl0zKVtDSDJdQzMoW0NIMl1bT0hdKVtDSDJdW09IXQ==

> <s_epik_cmdline>
J2VwaWtfcHl0aG9uJywgJy1waCcsICc3LjAnLCAnLXRuJywgJzgnLCAnLW1hJywgJzIwMCcsICctbWV0YWxfYmluZGluZycsICctaW1hZScsICc8aW5maWxlLm1hZT4nLCAnLW9tYWUnLCAnPG91dGZpbGUubWFlPic=

> <r_lp_tautomer_probability>
1

> <r_epik_Ionization_Penalty>
0.000545077

> <r_epik_Ionization_Penalty_Charging>
0

> <r_epik_Ionization_Penalty_Neutral>
0.000545077

> <r_epik_State_Penalty>
0.000259443

> <r_epik_Charging_Adjusted_Penalty>
0.000259443

> <i_epik_Tot_Q>
0

> <i_epik_Tot_abs_Q>
0

> <r_epik_Metal_State_Penalty>
-0

> <b_epik_Metal_Only>
0

> <s_lp_Force_Field>
OPLS_2005

> <r_lp_Energy>
36.5324

> <b_lp_Chiralities_Consistent>
1

> <s_lp_Variant>
AV-unprocessed.smi:192-1

> <Gold.Version>
5.8.1

> <Gold.Id.Protein>
6NUR|6NUR_protein|mol2

> <Gold.PLP.Fitness>
45.2587

> <Gold.PLP.PLP>
-38.6097

> <Gold.PLP.part.hbond>
-3.0000

> <Gold.PLP.part.metal>
0.0000

> <Gold.PLP.part.buried>
-5.6512

> <Gold.PLP.part.nonpolar>
-31.2946

> <Gold.PLP.part.repulsive>
0.1492

> <Gold.PLP.ligand.clash>
0.0000

> <Gold.PLP.ligand.torsion>
1.2522

> <Gold.PLP.Chemscore.Hbond>
2.3675

> <Gold.PLP.Chemscore.CHOScore>
0.0000

> <Gold.PLP.Chemscore.Metal>
0.0000

> <Gold.Chemscore.Hbonds>
donor molecule, donor type, donor heavy atom, donor atom, acceptor molecule, acceptor atom, score
      L1  H    25    53       P1 11000  0.59
      P1  H  7997  8008       L1    11  0.71
      P1  H 11000 11005       L1    27  1.00

> <Gold.PLP.Chemscore.Internal.Correction>
2.0509

> <Gold.Rescore>
     Score         DG    S(hbond)    S(metal)    S(lipo)     H(rot)  DE(clash)    DE(int)     intcor
      7.14      -9.88       1.86        0.00      77.81       4.27       0.03       2.71       ----

> <Gold.Chemscore.Fitness>
7.1372

> <Gold.Chemscore.DG>
-9.8789

> <Gold.Chemscore.ZeroCoef>
-5.4800

> <Gold.Chemscore.Hbond>
1.8615

> <Gold.Chemscore.Metal>
0.0000

> <Gold.Chemscore.Lipo>
77.8065

> <Gold.Chemscore.Internal_Hbond>
0.0000

> <Gold.Chemscore.DEClash>
0.0302

> <Gold.Chemscore.DEInternal>
2.7116

> <Gold.Chemscore.Rot>
4.2663

> <Gold.Chemscore.Internal.Correction>
   9.000000E+99

> <Gold.Chemscore.Hbonds>
donor molecule, donor type, donor heavy atom, donor atom, acceptor molecule, acceptor atom, score
      L1  H    25    53       P1 11000  0.04
      P1  H  7997  8008       L1    11  0.16
      P1  H 11000 11005       L1    27  0.81

> <Gold.Chemscore.Hbond.Weighted>
-6.2174

> <Gold.Chemscore.Metal.Weighted>
-0.0000

> <Gold.Chemscore.Lipo.Weighted>
-9.1034

> <Gold.Chemscore.Internal_Hbond.Weighted>
0.0000

> <Gold.Chemscore.DEClash.Weighted>
0.0302

> <Gold.Chemscore.DEInternal.Weighted>
2.7116

> <Gold.Chemscore.Rot.Weighted>
10.9218

> <Gold.Chemscore.Internal.Correction.Weighted>
   9.000000E+99

> <Gold.Protein.RotatedTorsions>
[ 6907 6896 6895 6894 ] final   87.14 input  -60.11 | X-H torsion
[ 7974 7965 7964 7962 ] final  139.22 input  175.53 | X-H torsion
[ 8008 7997 7996 7995 ] final    3.44 input   59.86 | X-H torsion
[ 10167 10162 10161 10158 ] final  -34.46 input  -65.29 | X-H torsion
[ 10718 10713 10712 10709 ] final -157.63 input   66.30 | X-H torsion
[ 10763 10752 10751 10750 ] final -114.24 input  -60.55 | X-H torsion
[ 11005 11000 10999 10996 ] final -132.88 input  -57.11 | X-H torsion

> <Gold.Protein.ActiveResidues>
 VAL166  LYS551  ARG553  GLY616  TRP617  ASP618  TYR619  PRO620  LYS621  CYS622 
 ASP623  PHE694  ASN695  SER759  ASP760  ASP761  ALA762  ILE779  LEU786  VAL792 
 PHE793  MET794  SER795  GLU796  ALA797  LYS798  CYS799  TRP800  GLU811  SER814 

> <Gold.Protein.RotatedAtoms>
  152.5406  134.2322  159.8828 H   0  0  0  0  0  0  0  0  0  0  0  0  # atno 6907 bound_to 6896
  151.2293  133.4452  159.2611 H   0  0  0  0  0  0  0  0  0  0  0  0  # atno 6908 bound_to 6896
  151.0731  134.9824  159.8374 H   0  0  0  0  0  0  0  0  0  0  0  0  # atno 6909 bound_to 6896
  144.9299  139.5061  143.5623 H   0  0  0  0  0  0  0  0  0  0  0  0  # atno 7974 bound_to 7965
  154.7037  140.2678  155.6695 H   0  0  0  0  0  0  0  0  0  0  0  0  # atno 8008 bound_to 7997
  156.2773  140.2767  156.1579 H   0  0  0  0  0  0  0  0  0  0  0  0  # atno 8009 bound_to 7997
  155.0730  140.0372  157.2604 H   0  0  0  0  0  0  0  0  0  0  0  0  # atno 8010 bound_to 7997
  140.7185  143.3547  151.2084 H   0  0  0  0  0  0  0  0  0  0  0  0  # atno 10167 bound_to 10162
  156.5429  130.8571  151.2755 H   0  0  0  0  0  0  0  0  0  0  0  0  # atno 10718 bound_to 10713
  154.8431  135.4425  154.1475 H   0  0  0  0  0  0  0  0  0  0  0  0  # atno 10763 bound_to 10752
  153.2644  135.6939  153.7551 H   0  0  0  0  0  0  0  0  0  0  0  0  # atno 10764 bound_to 10752
  153.6815  135.3402  155.3155 H   0  0  0  0  0  0  0  0  0  0  0  0  # atno 10765 bound_to 10752
  140.9131  134.1542  157.4374 H   0  0  0  0  0  0  0  0  0  0  0  0  # atno 11005 bound_to 11000
  146.3242  139.8241  142.8921 LP  0  0  0  0  0  0  0  0  0  0  0  0  # atno 17320 bound_to 7965
  145.3159  141.0232  143.3528 LP  0  0  0  0  0  0  0  0  0  0  0  0  # atno 17321 bound_to 7965
  139.7085  143.9415  152.2937 LP  0  0  0  0  0  0  0  0  0  0  0  0  # atno 17342 bound_to 10162
  139.9132  144.6844  150.8540 LP  0  0  0  0  0  0  0  0  0  0  0  0  # atno 17343 bound_to 10162
  157.7402  130.9846  150.2362 LP  0  0  0  0  0  0  0  0  0  0  0  0  # atno 17370 bound_to 10713
  156.2955  130.3751  149.7800 LP  0  0  0  0  0  0  0  0  0  0  0  0  # atno 17371 bound_to 10713
  139.8761  134.9943  156.5687 LP  0  0  0  0  0  0  0  0  0  0  0  0  # atno 17394 bound_to 11000
  140.8085  133.8448  155.8789 LP  0  0  0  0  0  0  0  0  0  0  0  0  # atno 17395 bound_to 11000

$$$$
