AV-unprocessed.smi:193|AV-procd|sdf|1504|dock5
  -GOLD-   2262019333D 1   1.00000     0.00000
 Structure written by MMmdl.
 62 66  0  0  0  0  0  0  0  0  2 V2000
  149.0334  128.1872  153.4333 C   0  0  0  0  0  0  0  0  0  0  0  0
  148.7433  129.6834  153.2315 C   0  0  2  0  0  0  0  0  0  0  0  0
  149.1347  130.4592  154.5069 C   0  0  0  0  0  0  0  0  0  0  0  0
  149.4132  131.8798  154.2853 N   0  0  0  0  0  0  0  0  0  0  0  0
  150.1489  132.5424  155.2160 C   0  0  0  0  0  0  0  0  0  0  0  0
  151.1393  131.8785  155.8694 N   0  0  0  0  0  0  0  0  0  0  0  0
  151.8671  132.4981  156.8031 C   0  0  0  0  0  0  0  0  0  0  0  0
  151.7752  133.7576  157.2322 N   0  0  0  0  0  0  0  0  0  0  0  0
  150.7912  134.4343  156.5744 C   0  0  0  0  0  0  0  0  0  0  0  0
  149.9433  133.9109  155.5573 C   0  0  0  0  0  0  0  0  0  0  0  0
  149.0806  134.9042  155.1062 N   0  0  0  0  0  0  0  0  0  0  0  0
  149.3905  135.9480  155.8251 C   0  0  0  0  0  0  0  0  0  0  0  0
  150.3962  135.7500  156.7438 N   0  0  0  0  0  0  0  0  0  0  0  0
  150.9266  136.7301  157.6792 C   0  0  0  0  0  0  0  0  0  0  0  0
  151.7085  137.8845  157.0030 C   0  0  0  0  0  0  0  0  0  0  0  0
  153.0010  137.9311  157.5819 O   0  0  0  0  0  0  0  0  0  0  0  0
  151.8635  137.6154  155.4928 C   0  0  0  0  0  0  0  0  0  0  0  0
  152.4783  138.8140  154.7484 C   0  0  0  0  0  0  0  0  0  0  0  0
  151.7062  139.9839  154.9891 O   0  0  0  0  0  0  0  0  0  0  0  0
  151.6954  140.3618  156.3600 C   0  0  0  0  0  0  0  0  0  0  0  0
  151.0357  139.2599  157.2081 C   0  0  0  0  0  0  0  0  0  0  0  0
  148.6748  132.6803  153.3091 C   0  0  0  0  0  0  0  0  0  0  0  0
  147.1849  132.3248  153.2304 C   0  0  0  0  0  0  0  0  0  0  0  0
  146.9497  131.2065  152.2866 N   0  3  2  0  0  0  0  0  0  0  0  0
  145.5842  131.2564  151.7128 C   0  0  2  0  0  0  0  0  0  0  0  0
  145.5451  131.1561  150.2043 C   0  0  0  0  0  0  0  0  0  0  0  0
  145.2844  132.4872  150.8749 C   0  0  2  0  0  0  0  0  0  0  0  0
  146.2608  133.6359  150.6952 C   0  0  0  0  0  0  0  0  0  0  0  0
  147.2541  129.8757  152.8673 C   0  0  0  0  0  0  0  0  0  0  0  0
  148.4506  127.7774  154.2591 H   0  0  0  0  0  0  0  0  0  0  0  0
  150.0876  128.0160  153.6531 H   0  0  0  0  0  0  0  0  0  0  0  0
  148.7939  127.6125  152.5381 H   0  0  0  0  0  0  0  0  0  0  0  0
  149.3667  130.0140  152.3990 H   0  0  0  0  0  0  0  0  0  0  0  0
  148.3662  130.3480  155.2731 H   0  0  0  0  0  0  0  0  0  0  0  0
  150.0415  130.0116  154.9174 H   0  0  0  0  0  0  0  0  0  0  0  0
  152.6310  131.8989  157.2764 H   0  0  0  0  0  0  0  0  0  0  0  0
  148.8829  136.8952  155.7119 H   0  0  0  0  0  0  0  0  0  0  0  0
  150.0983  137.1259  158.2692 H   0  0  0  0  0  0  0  0  0  0  0  0
  151.5738  136.2042  158.3824 H   0  0  0  0  0  0  0  0  0  0  0  0
  153.2516  138.8361  157.6873 H   0  0  0  0  0  0  0  0  0  0  0  0
  152.4654  136.7216  155.3233 H   0  0  0  0  0  0  0  0  0  0  0  0
  150.8834  137.4087  155.0606 H   0  0  0  0  0  0  0  0  0  0  0  0
  153.5137  138.9784  155.0514 H   0  0  0  0  0  0  0  0  0  0  0  0
  152.4920  138.6183  153.6762 H   0  0  0  0  0  0  0  0  0  0  0  0
  152.7112  140.5657  156.7015 H   0  0  0  0  0  0  0  0  0  0  0  0
  151.1372  141.2924  156.4620 H   0  0  0  0  0  0  0  0  0  0  0  0
  149.9837  139.1906  156.9288 H   0  0  0  0  0  0  0  0  0  0  0  0
  151.0560  139.5510  158.2589 H   0  0  0  0  0  0  0  0  0  0  0  0
  148.7324  133.7330  153.5875 H   0  0  0  0  0  0  0  0  0  0  0  0
  149.1491  132.5996  152.3302 H   0  0  0  0  0  0  0  0  0  0  0  0
  146.7545  132.1229  154.2127 H   0  0  0  0  0  0  0  0  0  0  0  0
  146.6648  133.2054  152.8517 H   0  0  0  0  0  0  0  0  0  0  0  0
  144.8015  130.7894  152.3085 H   0  0  0  0  0  0  0  0  0  0  0  0
  146.4863  131.0345  149.6710 H   0  0  0  0  0  0  0  0  0  0  0  0
  144.6916  130.6505  149.7568 H   0  0  0  0  0  0  0  0  0  0  0  0
  144.2462  132.8128  150.8914 H   0  0  0  0  0  0  0  0  0  0  0  0
  147.2838  133.2766  150.5814 H   0  0  0  0  0  0  0  0  0  0  0  0
  146.2180  134.3042  151.5553 H   0  0  0  0  0  0  0  0  0  0  0  0
  146.0006  134.2064  149.8036 H   0  0  0  0  0  0  0  0  0  0  0  0
  146.9810  129.1226  152.1270 H   0  0  0  0  0  0  0  0  0  0  0  0
  146.6167  129.6916  153.7337 H   0  0  0  0  0  0  0  0  0  0  0  0
  147.5814  131.3425  151.5103 H   0  0  0  0  0  0  0  0  0  0  0  0
  1  2  1  0  0  0  0
  1 30  1  0  0  0  0
  1 31  1  0  0  0  0
  1 32  1  0  0  0  0
  2 29  1  0  0  0  0
  2  3  1  0  0  0  0
  2 33  1  0  0  0  0
  3  4  1  0  0  0  0
  3 34  1  0  0  0  0
  3 35  1  0  0  0  0
  4  5  1  0  0  0  0
  4 22  1  0  0  0  0
  5 10  1  0  0  0  0
  5  6  2  0  0  0  0
  6  7  1  0  0  0  0
  7  8  2  0  0  0  0
  7 36  1  0  0  0  0
  8  9  1  0  0  0  0
  9 13  1  0  0  0  0
  9 10  2  0  0  0  0
 10 11  1  0  0  0  0
 11 12  2  0  0  0  0
 12 13  1  0  0  0  0
 12 37  1  0  0  0  0
 13 14  1  0  0  0  0
 14 15  1  0  0  0  0
 14 38  1  0  0  0  0
 14 39  1  0  0  0  0
 15 21  1  0  0  0  0
 15 16  1  0  0  0  0
 15 17  1  0  0  0  0
 16 40  1  0  0  0  0
 17 18  1  0  0  0  0
 17 41  1  0  0  0  0
 17 42  1  0  0  0  0
 18 19  1  0  0  0  0
 18 43  1  0  0  0  0
 18 44  1  0  0  0  0
 19 20  1  0  0  0  0
 20 21  1  0  0  0  0
 20 45  1  0  0  0  0
 20 46  1  0  0  0  0
 21 47  1  0  0  0  0
 21 48  1  0  0  0  0
 22 23  1  0  0  0  0
 22 49  1  0  0  0  0
 22 50  1  0  0  0  0
 23 24  1  0  0  0  0
 23 51  1  0  0  0  0
 23 52  1  0  0  0  0
 24 25  1  0  0  0  0
 24 29  1  0  0  0  0
 24 62  1  0  0  0  0
 25 27  1  0  0  0  0
 25 26  1  0  0  0  0
 25 53  1  0  0  0  0
 26 27  1  0  0  0  0
 26 54  1  0  0  0  0
 26 55  1  0  0  0  0
 27 28  1  0  0  0  0
 27 56  1  0  0  0  0
 28 57  1  0  0  0  0
 28 58  1  0  0  0  0
 28 59  1  0  0  0  0
 29 60  1  0  0  0  0
 29 61  1  0  0  0  0
M  CHG  1  24   1
M  END
> <s_m_source_file>
AV-unprocessed.smi

> <i_m_source_file_index>
193

> <i_lp_mmshare_version>
43012

> <i_f3d_flags>
0

> <s_epik_input>
W0NIM11bQ0BASF0xW0NIMl1bQ0BIXTFOKFtDSDJdMilbQ0gyXVtDSDJdTihbQ0gyXVtDQEhdMltDSDNdKWMobltjSF1uMyljKGMzNCluW2NIXW40W0NIMl1DNShbT0hdKVtDSDJdW0NIMl1PW0NIMl1bQ0gyXTU=

> <s_epik_cmdline>
J2VwaWtfcHl0aG9uJywgJy1waCcsICc3LjAnLCAnLXRuJywgJzgnLCAnLW1hJywgJzIwMCcsICctbWV0YWxfYmluZGluZycsICctaW1hZScsICc8aW5maWxlLm1hZT4nLCAnLW9tYWUnLCAnPG91dGZpbGUubWFlPic=

> <r_lp_tautomer_probability>
1

> <r_epik_Ionization_Penalty>
0.0540825

> <r_epik_Ionization_Penalty_Charging>
0.0538476

> <r_epik_Ionization_Penalty_Neutral>
0.000234891

> <r_epik_State_Penalty>
0.0200719

> <r_epik_Charging_Adjusted_Penalty>
0.0739194

> <i_epik_Tot_Q>
1

> <i_epik_Tot_abs_Q>
1

> <r_epik_Metal_State_Penalty>
0.0199414

> <b_epik_Metal_Only>
0

> <s_lp_Force_Field>
OPLS_2005

> <r_lp_Energy>
56.2911

> <b_lp_Chiralities_Consistent>
1

> <s_lp_Variant>
AV-unprocessed.smi:193-9

> <Gold.Version>
5.8.1

> <Gold.Id.Protein>
6NUR|6NUR_protein|mol2

> <Gold.PLP.Fitness>
48.0607

> <Gold.PLP.PLP>
-44.0766

> <Gold.PLP.part.hbond>
-3.0000

> <Gold.PLP.part.metal>
0.0000

> <Gold.PLP.part.buried>
-6.8866

> <Gold.PLP.part.nonpolar>
-35.5356

> <Gold.PLP.part.repulsive>
0.1580

> <Gold.PLP.ligand.clash>
0.0005

> <Gold.PLP.ligand.torsion>
2.1836

> <Gold.PLP.Chemscore.Hbond>
2.3448

> <Gold.PLP.Chemscore.CHOScore>
0.0000

> <Gold.PLP.Chemscore.Metal>
0.0000

> <Gold.Chemscore.Hbonds>
donor molecule, donor type, donor heavy atom, donor atom, acceptor molecule, acceptor atom, score
      L1  H    24    62       P1 10747  1.00
      P1  H  6896  6907       L1     8  0.37
      P1  H  7989  7998       L1    19  1.00

> <Gold.PLP.Chemscore.Internal.Correction>
1.3175

> <Gold.Rescore>
     Score         DG    S(hbond)    S(metal)    S(lipo)     H(rot)  DE(clash)    DE(int)     intcor
     15.26     -20.20       2.08        0.00     108.62       1.93       1.42       3.52       ----

> <Gold.Chemscore.Fitness>
15.2612

> <Gold.Chemscore.DG>
-20.2032

> <Gold.Chemscore.ZeroCoef>
-5.4800

> <Gold.Chemscore.Hbond>
2.0817

> <Gold.Chemscore.Metal>
0.0000

> <Gold.Chemscore.Lipo>
108.6208

> <Gold.Chemscore.Internal_Hbond>
0.0000

> <Gold.Chemscore.DEClash>
1.4221

> <Gold.Chemscore.DEInternal>
3.5200

> <Gold.Chemscore.Rot>
1.9290

> <Gold.Chemscore.Internal.Correction>
   9.000000E+99

> <Gold.Chemscore.Hbonds>
donor molecule, donor type, donor heavy atom, donor atom, acceptor molecule, acceptor atom, score
      L1  H    24    62       P1 10747  0.98
      P1  H  6896  6907       L1     8  0.06
      P1  H  7989  7998       L1    19  0.58

> <Gold.Chemscore.Hbond.Weighted>
-6.9529

> <Gold.Chemscore.Metal.Weighted>
-0.0000

> <Gold.Chemscore.Lipo.Weighted>
-12.7086

> <Gold.Chemscore.Internal_Hbond.Weighted>
0.0000

> <Gold.Chemscore.DEClash.Weighted>
1.4221

> <Gold.Chemscore.DEInternal.Weighted>
3.5200

> <Gold.Chemscore.Rot.Weighted>
4.9383

> <Gold.Chemscore.Internal.Correction.Weighted>
   9.000000E+99

> <Gold.Protein.RotatedTorsions>
[ 6907 6896 6895 6894 ] final -166.37 input  -60.11 | X-H torsion
[ 7974 7965 7964 7962 ] final -155.83 input  175.53 | X-H torsion
[ 8008 7997 7996 7995 ] final  100.09 input   59.86 | X-H torsion
[ 10167 10162 10161 10158 ] final   -4.98 input  -65.29 | X-H torsion
[ 10718 10713 10712 10709 ] final   18.52 input   66.30 | X-H torsion
[ 10763 10752 10751 10750 ] final -176.86 input  -60.55 | X-H torsion
[ 11005 11000 10999 10996 ] final  -80.81 input  -57.11 | X-H torsion

> <Gold.Protein.ActiveResidues>
 VAL166  LYS551  ARG553  GLY616  TRP617  ASP618  TYR619  PRO620  LYS621  CYS622 
 ASP623  PHE694  ASN695  SER759  ASP760  ASP761  ALA762  ILE779  LEU786  VAL792 
 PHE793  MET794  SER795  GLU796  ALA797  LYS798  CYS799  TRP800  GLU811  SER814 

> <Gold.Protein.RotatedAtoms>
  151.4425  133.3639  159.2783 H   0  0  0  0  0  0  0  0  0  0  0  0  # atno 6907 bound_to 6896
  150.9147  134.8566  159.7460 H   0  0  0  0  0  0  0  0  0  0  0  0  # atno 6908 bound_to 6896
  152.4951  134.4358  159.9579 H   0  0  0  0  0  0  0  0  0  0  0  0  # atno 6909 bound_to 6896
  144.7621  140.4194  143.5969 H   0  0  0  0  0  0  0  0  0  0  0  0  # atno 7974 bound_to 7965
  156.1169  140.3218  155.8152 H   0  0  0  0  0  0  0  0  0  0  0  0  # atno 8008 bound_to 7997
  155.4574  140.0537  157.3012 H   0  0  0  0  0  0  0  0  0  0  0  0  # atno 8009 bound_to 7997
  154.4799  140.2048  155.9802 H   0  0  0  0  0  0  0  0  0  0  0  0  # atno 8010 bound_to 7997
  140.6947  143.6361  150.8478 H   0  0  0  0  0  0  0  0  0  0  0  0  # atno 10167 bound_to 10162
  157.0974  130.6453  149.5864 H   0  0  0  0  0  0  0  0  0  0  0  0  # atno 10718 bound_to 10713
  154.5672  135.2825  155.0863 H   0  0  0  0  0  0  0  0  0  0  0  0  # atno 10763 bound_to 10752
  154.2249  135.6384  153.5160 H   0  0  0  0  0  0  0  0  0  0  0  0  # atno 10764 bound_to 10752
  153.0046  135.5523  154.6284 H   0  0  0  0  0  0  0  0  0  0  0  0  # atno 10765 bound_to 10752
  141.1667  133.7167  156.8328 H   0  0  0  0  0  0  0  0  0  0  0  0  # atno 11005 bound_to 11000
  145.6585  139.1577  143.2822 LP  0  0  0  0  0  0  0  0  0  0  0  0  # atno 17320 bound_to 7965
  146.1695  140.6668  142.9240 LP  0  0  0  0  0  0  0  0  0  0  0  0  # atno 17321 bound_to 7965
  140.0077  143.5675  152.2851 LP  0  0  0  0  0  0  0  0  0  0  0  0  # atno 17342 bound_to 10162
  139.6388  144.7652  151.2382 LP  0  0  0  0  0  0  0  0  0  0  0  0  # atno 17343 bound_to 10162
  155.9882  130.4925  150.7160 LP  0  0  0  0  0  0  0  0  0  0  0  0  # atno 17370 bound_to 10713
  157.4669  131.0889  151.0684 LP  0  0  0  0  0  0  0  0  0  0  0  0  # atno 17371 bound_to 10713
  140.2039  134.8877  157.3199 LP  0  0  0  0  0  0  0  0  0  0  0  0  # atno 17394 bound_to 11000
  140.2158  134.4083  155.7590 LP  0  0  0  0  0  0  0  0  0  0  0  0  # atno 17395 bound_to 11000

$$$$
