AV-unprocessed.smi:2746|AV-procd|sdf|10575|dock3
  -GOLD-   2272015 23D 1   1.00000     0.00000
 Structure written by MMmdl.
 38 39  0  0  0  0  0  0  0  0  3 V2000
  152.6305  142.6933  159.7478 C   0  0  0  0  0  0  0  0  0  0  0  0
  152.0780  142.7242  158.5213 C   0  0  0  0  0  0  0  0  0  0  0  0
  151.1724  141.6686  157.8988 C   0  0  2  0  0  0  0  0  0  0  0  0
  151.8340  140.2859  157.9878 C   0  0  0  0  0  0  0  0  0  0  0  0
  150.7819  141.9045  156.5055 N   0  5  0  0  0  0  0  0  0  0  0  0
  150.7094  140.9405  155.5455 C   0  0  0  0  0  0  0  0  0  0  0  0
  151.5731  140.1462  155.1567 O   0  0  0  0  0  0  0  0  0  0  0  0
  149.3788  140.9320  154.8435 C   0  0  0  0  0  0  0  0  0  0  0  0
  148.8019  139.7584  154.2984 C   0  0  0  0  0  0  0  0  0  0  0  0
  147.5584  139.8175  153.6242 C   0  0  0  0  0  0  0  0  0  0  0  0
  146.9907  138.6407  153.0913 N   0  0  0  0  0  0  0  0  0  0  0  0
  146.6525  138.6840  151.6706 C   0  0  0  0  0  0  0  0  0  0  0  0
  146.3705  137.2658  151.1444 C   0  0  0  0  0  0  0  0  0  0  0  0
  145.3637  136.6477  151.9395 O   0  0  0  0  0  0  0  0  0  0  0  0
  145.7684  136.5154  153.2981 C   0  0  0  0  0  0  0  0  0  0  0  0
  146.0206  137.9084  153.8997 C   0  0  0  0  0  0  0  0  0  0  0  0
  146.9238  141.0811  153.5153 C   0  0  0  0  0  0  0  0  0  0  0  0
  147.5445  142.2225  154.0586 C   0  0  0  0  0  0  0  0  0  0  0  0
  148.7321  142.1082  154.6868 N   0  3  0  0  0  0  0  0  0  0  0  0
  152.4747  141.8765  160.4389 H   0  0  0  0  0  0  0  0  0  0  0  0
  153.2595  143.5052  160.0809 H   0  0  0  0  0  0  0  0  0  0  0  0
  152.2852  143.5787  157.8938 H   0  0  0  0  0  0  0  0  0  0  0  0
  150.2996  141.6374  158.5526 H   0  0  0  0  0  0  0  0  0  0  0  0
  152.0944  140.0405  159.0178 H   0  0  0  0  0  0  0  0  0  0  0  0
  152.7487  140.2420  157.3951 H   0  0  0  0  0  0  0  0  0  0  0  0
  151.1655  139.5031  157.6270 H   0  0  0  0  0  0  0  0  0  0  0  0
  149.3104  138.8119  154.4115 H   0  0  0  0  0  0  0  0  0  0  0  0
  145.7697  139.3112  151.5391 H   0  0  0  0  0  0  0  0  0  0  0  0
  147.4488  139.1314  151.0774 H   0  0  0  0  0  0  0  0  0  0  0  0
  146.0281  137.3109  150.1105 H   0  0  0  0  0  0  0  0  0  0  0  0
  147.2784  136.6605  151.1527 H   0  0  0  0  0  0  0  0  0  0  0  0
  144.9842  136.0021  153.8544 H   0  0  0  0  0  0  0  0  0  0  0  0
  146.6638  135.8951  153.3641 H   0  0  0  0  0  0  0  0  0  0  0  0
  146.3864  137.8000  154.9215 H   0  0  0  0  0  0  0  0  0  0  0  0
  145.0858  138.4690  153.9411 H   0  0  0  0  0  0  0  0  0  0  0  0
  145.9771  141.1998  153.0105 H   0  0  0  0  0  0  0  0  0  0  0  0
  147.1303  143.2185  154.0071 H   0  0  0  0  0  0  0  0  0  0  0  0
  149.1684  142.9470  155.0704 H   0  0  0  0  0  0  0  0  0  0  0  0
  1  2  2  0  0  0  0
  1 20  1  0  0  0  0
  1 21  1  0  0  0  0
  2  3  1  0  0  0  0
  2 22  1  0  0  0  0
  3  4  1  0  0  0  0
  3  5  1  0  0  0  0
  3 23  1  0  0  0  0
  4 24  1  0  0  0  0
  4 25  1  0  0  0  0
  4 26  1  0  0  0  0
  5  6  1  0  0  0  0
  6  7  2  0  0  0  0
  6  8  1  0  0  0  0
  8 19  1  0  0  0  0
  8  9  2  0  0  0  0
  9 10  1  0  0  0  0
  9 27  1  0  0  0  0
 10 11  1  0  0  0  0
 10 17  2  0  0  0  0
 11 16  1  0  0  0  0
 11 12  1  0  0  0  0
 12 13  1  0  0  0  0
 12 28  1  0  0  0  0
 12 29  1  0  0  0  0
 13 14  1  0  0  0  0
 13 30  1  0  0  0  0
 13 31  1  0  0  0  0
 14 15  1  0  0  0  0
 15 16  1  0  0  0  0
 15 32  1  0  0  0  0
 15 33  1  0  0  0  0
 16 34  1  0  0  0  0
 16 35  1  0  0  0  0
 17 18  1  0  0  0  0
 17 36  1  0  0  0  0
 18 19  2  0  0  0  0
 18 37  1  0  0  0  0
 19 38  1  0  0  0  0
M  CHG  1   5  -1
M  CHG  1  19   1
M  END
> <s_m_source_file>
AV-unprocessed.smi

> <i_m_source_file_index>
2746

> <i_lp_mmshare_version>
43012

> <i_f3d_flags>
0

> <s_epik_input>
W0NIMl09W0NIXVtDQEhdKFtDSDNdKVtOSF1DKD1PKWMxW2NIXWMoW2NIXVtjSF1uMSlOMltDSDJdW0NIMl1PW0NIMl1bQ0gyXTI=

> <s_epik_cmdline>
J2VwaWtfcHl0aG9uJywgJy1waCcsICc3LjAnLCAnLXRuJywgJzgnLCAnLW1hJywgJzIwMCcsICctbWV0YWxfYmluZGluZycsICctaW1hZScsICc8aW5maWxlLm1hZT4nLCAnLW9tYWUnLCAnPG91dGZpbGUubWFlPic=

> <r_lp_tautomer_probability>
1

> <r_epik_Ionization_Penalty>
4.23471

> <r_epik_Ionization_Penalty_Charging>
4.23471

> <r_epik_Ionization_Penalty_Neutral>
3.18831e-12

> <r_epik_State_Penalty>
4.68748

> <r_epik_Charging_Adjusted_Penalty>
8.92219

> <i_epik_Tot_Q>
0

> <i_epik_Tot_abs_Q>
2

> <r_epik_Metal_State_Penalty>
1.16626

> <b_epik_Metal_Only>
1

> <s_lp_Force_Field>
OPLS_2005

> <r_lp_Energy>
19.089

> <b_lp_Chiralities_Consistent>
1

> <s_lp_Variant>
AV-unprocessed.smi:2746-5

> <Gold.Version>
5.8.1

> <Gold.Id.Protein>
6NUR|6NUR_protein|mol2

> <Gold.PLP.Fitness>
39.8363

> <Gold.PLP.PLP>
-33.4779

> <Gold.PLP.part.hbond>
-2.0000

> <Gold.PLP.part.metal>
0.0000

> <Gold.PLP.part.buried>
-0.2137

> <Gold.PLP.part.nonpolar>
-33.0965

> <Gold.PLP.part.repulsive>
0.7958

> <Gold.PLP.ligand.clash>
0.0797

> <Gold.PLP.ligand.torsion>
1.5792

> <Gold.PLP.Chemscore.Hbond>
2.9600

> <Gold.PLP.Chemscore.CHOScore>
0.0000

> <Gold.PLP.Chemscore.Metal>
0.0000

> <Gold.Chemscore.Hbonds>
donor molecule, donor type, donor heavy atom, donor atom, acceptor molecule, acceptor atom, score
      L1  H    19    38       P1  8028  1.79
      P1  H  7989  7998       L1     7  0.64

> <Gold.PLP.Chemscore.Internal.Correction>
0.7165

> <Gold.Rescore>
     Score         DG    S(hbond)    S(metal)    S(lipo)     H(rot)  DE(clash)    DE(int)     intcor
     14.05     -18.18       1.70        0.00      87.80       1.27       1.35       2.79       ----

> <Gold.Chemscore.Fitness>
14.0522

> <Gold.Chemscore.DG>
-18.1849

> <Gold.Chemscore.ZeroCoef>
-5.4800

> <Gold.Chemscore.Hbond>
1.7047

> <Gold.Chemscore.Metal>
0.0000

> <Gold.Chemscore.Lipo>
87.8036

> <Gold.Chemscore.Internal_Hbond>
0.0000

> <Gold.Chemscore.DEClash>
1.3458

> <Gold.Chemscore.DEInternal>
2.7868

> <Gold.Chemscore.Rot>
1.2742

> <Gold.Chemscore.Internal.Correction>
   9.000000E+99

> <Gold.Chemscore.Hbonds>
donor molecule, donor type, donor heavy atom, donor atom, acceptor molecule, acceptor atom, score
      L1  H    19    38       P1  8028  0.88
      P1  H  7989  7998       L1     7  0.05

> <Gold.Chemscore.Hbond.Weighted>
-5.6938

> <Gold.Chemscore.Metal.Weighted>
-0.0000

> <Gold.Chemscore.Lipo.Weighted>
-10.2730

> <Gold.Chemscore.Internal_Hbond.Weighted>
0.0000

> <Gold.Chemscore.DEClash.Weighted>
1.3458

> <Gold.Chemscore.DEInternal.Weighted>
2.7868

> <Gold.Chemscore.Rot.Weighted>
3.2619

> <Gold.Chemscore.Internal.Correction.Weighted>
   9.000000E+99

> <Gold.Protein.RotatedTorsions>
[ 6907 6896 6895 6894 ] final  146.03 input  -60.11 | X-H torsion
[ 7974 7965 7964 7962 ] final  101.42 input  175.53 | X-H torsion
[ 8008 7997 7996 7995 ] final   31.30 input   59.86 | X-H torsion
[ 10167 10162 10161 10158 ] final  -86.49 input  -65.29 | X-H torsion
[ 10718 10713 10712 10709 ] final  153.99 input   66.30 | X-H torsion
[ 10763 10752 10751 10750 ] final  -44.23 input  -60.55 | X-H torsion
[ 11005 11000 10999 10996 ] final -135.16 input  -57.11 | X-H torsion

> <Gold.Protein.ActiveResidues>
 VAL166  LYS551  ARG553  GLY616  TRP617  ASP618  TYR619  PRO620  LYS621  CYS622 
 ASP623  PHE694  ASN695  SER759  ASP760  ASP761  ALA762  ILE779  LEU786  VAL792 
 PHE793  MET794  SER795  GLU796  ALA797  LYS798  CYS799  TRP800  GLU811  SER814 

> <Gold.Protein.RotatedAtoms>
  152.1733  133.4658  159.4919 H   0  0  0  0  0  0  0  0  0  0  0  0  # atno 6907 bound_to 6896
  150.6923  134.1926  159.4300 H   0  0  0  0  0  0  0  0  0  0  0  0  # atno 6908 bound_to 6896
  151.9834  135.0016  160.0609 H   0  0  0  0  0  0  0  0  0  0  0  0  # atno 6909 bound_to 6896
  145.3726  139.2395  143.3447 H   0  0  0  0  0  0  0  0  0  0  0  0  # atno 7974 bound_to 7965
  155.1042  140.3232  155.4539 H   0  0  0  0  0  0  0  0  0  0  0  0  # atno 8008 bound_to 7997
  156.2708  140.2055  156.6115 H   0  0  0  0  0  0  0  0  0  0  0  0  # atno 8009 bound_to 7997
  154.6806  140.0526  157.0248 H   0  0  0  0  0  0  0  0  0  0  0  0  # atno 8010 bound_to 7997
  140.3937  143.2693  151.9232 H   0  0  0  0  0  0  0  0  0  0  0  0  # atno 10167 bound_to 10162
  157.2375  131.0752  151.1814 H   0  0  0  0  0  0  0  0  0  0  0  0  # atno 10718 bound_to 10713
  154.0087  135.6684  153.4764 H   0  0  0  0  0  0  0  0  0  0  0  0  # atno 10763 bound_to 10752
  153.0630  135.5017  154.8133 H   0  0  0  0  0  0  0  0  0  0  0  0  # atno 10764 bound_to 10752
  154.7009  135.3078  154.9306 H   0  0  0  0  0  0  0  0  0  0  0  0  # atno 10765 bound_to 10752
  140.8923  134.1795  157.4519 H   0  0  0  0  0  0  0  0  0  0  0  0  # atno 11005 bound_to 11000
  146.2878  140.4380  142.8751 LP  0  0  0  0  0  0  0  0  0  0  0  0  # atno 17320 bound_to 7965
  144.8565  140.7078  143.6134 LP  0  0  0  0  0  0  0  0  0  0  0  0  # atno 17321 bound_to 7965
  139.4788  144.5703  151.8099 LP  0  0  0  0  0  0  0  0  0  0  0  0  # atno 17342 bound_to 10162
  140.4813  144.1445  150.5933 LP  0  0  0  0  0  0  0  0  0  0  0  0  # atno 17343 bound_to 10162
  157.3414  130.7035  149.6384 LP  0  0  0  0  0  0  0  0  0  0  0  0  # atno 17370 bound_to 10713
  155.9672  130.4279  150.4763 LP  0  0  0  0  0  0  0  0  0  0  0  0  # atno 17371 bound_to 10713
  139.8731  134.9864  156.5322 LP  0  0  0  0  0  0  0  0  0  0  0  0  # atno 17394 bound_to 11000
  140.8331  133.8263  155.9003 LP  0  0  0  0  0  0  0  0  0  0  0  0  # atno 17395 bound_to 11000

$$$$
