AV-unprocessed.smi:34|AV-procd|sdf|230|dock7
  -GOLD-   2262015563D 1   1.00000     0.00000
 Structure written by MMmdl.
 55 59  0  0  0  0  0  0  0  0  1 V2000
  152.6975  140.1947  159.2755 O   0  0  0  0  0  0  0  0  0  0  0  0
  152.3091  141.1029  158.5402 C   0  0  0  0  0  0  0  0  0  0  0  0
  151.9188  140.8689  157.1613 N   0  0  0  0  0  0  0  0  0  0  0  0
  151.9969  139.7178  156.4538 C   0  0  0  0  0  0  0  0  0  0  0  0
  153.0610  139.4174  155.6628 N   0  0  0  0  0  0  0  0  0  0  0  0
  153.0893  138.2694  154.9791 C   0  0  0  0  0  0  0  0  0  0  0  0
  152.1730  137.2992  154.9391 N   0  0  0  0  0  0  0  0  0  0  0  0
  151.1012  137.5971  155.7286 C   0  0  0  0  0  0  0  0  0  0  0  0
  150.9394  138.7732  156.5111 C   0  0  0  0  0  0  0  0  0  0  0  0
  149.7257  138.7246  157.1848 N   0  0  0  0  0  0  0  0  0  0  0  0
  149.2062  137.5825  156.8205 C   0  0  0  0  0  0  0  0  0  0  0  0
  149.9644  136.8467  155.9323 N   0  0  0  0  0  0  0  0  0  0  0  0
  149.6847  135.5110  155.3160 C   0  0  1  0  0  0  0  0  0  0  0  0
  150.0339  134.5254  156.2430 O   0  0  0  0  0  0  0  0  0  0  0  0
  148.8640  134.1213  156.9456 C   0  0  2  0  0  0  0  0  0  0  0  0
  149.0890  132.7889  157.6684 C   0  0  0  0  0  0  0  0  0  0  0  0
  148.2484  132.7511  158.8096 O   0  0  0  0  0  0  0  0  0  0  0  0
  148.3193  133.7250  159.7360 C   0  0  0  0  0  0  0  0  0  0  0  0
  149.1264  134.6555  159.6880 O   0  0  0  0  0  0  0  0  0  0  0  0
  147.3178  133.5573  160.8285 C   0  0  0  0  0  0  0  0  0  0  0  0
  147.4030  134.3757  161.9790 C   0  0  0  0  0  0  0  0  0  0  0  0
  146.4713  134.2400  163.0265 C   0  0  0  0  0  0  0  0  0  0  0  0
  145.4417  133.2854  162.9355 C   0  0  0  0  0  0  0  0  0  0  0  0
  145.3452  132.4657  161.7959 C   0  0  0  0  0  0  0  0  0  0  0  0
  146.2769  132.5988  160.7479 C   0  0  0  0  0  0  0  0  0  0  0  0
  147.8401  134.0767  155.8149 C   0  0  2  0  0  0  0  0  0  0  0  0
  148.0797  132.9997  155.0607 F   0  0  0  0  0  0  0  0  0  0  0  0
  148.1717  135.3592  155.0621 C   0  0  2  0  0  0  0  0  0  0  0  0
  147.8318  135.2639  153.6936 O   0  0  0  0  0  0  0  0  0  0  0  0
  152.1242  142.5039  159.0457 C   0  0  0  0  0  0  0  0  0  0  0  0
  152.2349  142.7776  160.4275 C   0  0  0  0  0  0  0  0  0  0  0  0
  152.0770  144.0919  160.9086 C   0  0  0  0  0  0  0  0  0  0  0  0
  151.8155  145.1447  160.0115 C   0  0  0  0  0  0  0  0  0  0  0  0
  151.7165  144.8831  158.6321 C   0  0  0  0  0  0  0  0  0  0  0  0
  151.8735  143.5690  158.1497 C   0  0  0  0  0  0  0  0  0  0  0  0
  151.5567  141.6690  156.6635 H   0  0  0  0  0  0  0  0  0  0  0  0
  153.9715  138.1057  154.3779 H   0  0  0  0  0  0  0  0  0  0  0  0
  148.2481  137.2512  157.1944 H   0  0  0  0  0  0  0  0  0  0  0  0
  150.3139  135.4696  154.4259 H   0  0  0  0  0  0  0  0  0  0  0  0
  148.5754  134.8917  157.6634 H   0  0  0  0  0  0  0  0  0  0  0  0
  148.8319  131.9592  157.0087 H   0  0  0  0  0  0  0  0  0  0  0  0
  150.1352  132.6746  157.9555 H   0  0  0  0  0  0  0  0  0  0  0  0
  148.1843  135.1167  162.0709 H   0  0  0  0  0  0  0  0  0  0  0  0
  146.5472  134.8700  163.9004 H   0  0  0  0  0  0  0  0  0  0  0  0
  144.7268  133.1819  163.7386 H   0  0  0  0  0  0  0  0  0  0  0  0
  144.5551  131.7328  161.7250 H   0  0  0  0  0  0  0  0  0  0  0  0
  146.1727  131.9544  159.8872 H   0  0  0  0  0  0  0  0  0  0  0  0
  146.8068  134.0273  156.1591 H   0  0  0  0  0  0  0  0  0  0  0  0
  147.6343  136.1962  155.5116 H   0  0  0  0  0  0  0  0  0  0  0  0
  148.6303  135.1957  153.1920 H   0  0  0  0  0  0  0  0  0  0  0  0
  152.4360  141.9805  161.1288 H   0  0  0  0  0  0  0  0  0  0  0  0
  152.1576  144.2923  161.9669 H   0  0  0  0  0  0  0  0  0  0  0  0
  151.6951  146.1523  160.3810 H   0  0  0  0  0  0  0  0  0  0  0  0
  151.5224  145.6914  157.9425 H   0  0  0  0  0  0  0  0  0  0  0  0
  151.8037  143.3917  157.0863 H   0  0  0  0  0  0  0  0  0  0  0  0
  1  2  2  0  0  0  0
  2  3  1  0  0  0  0
  2 30  1  0  0  0  0
  3  4  1  0  0  0  0
  3 36  1  0  0  0  0
  4  9  1  0  0  0  0
  4  5  2  0  0  0  0
  5  6  1  0  0  0  0
  6  7  2  0  0  0  0
  6 37  1  0  0  0  0
  7  8  1  0  0  0  0
  8 12  1  0  0  0  0
  8  9  2  0  0  0  0
  9 10  1  0  0  0  0
 10 11  2  0  0  0  0
 11 12  1  0  0  0  0
 11 38  1  0  0  0  0
 12 13  1  0  0  0  0
 13 28  1  0  0  0  0
 13 14  1  0  0  0  0
 13 39  1  0  0  0  0
 14 15  1  0  0  0  0
 15 16  1  0  0  0  0
 15 26  1  0  0  0  0
 15 40  1  0  0  0  0
 16 17  1  0  0  0  0
 16 41  1  0  0  0  0
 16 42  1  0  0  0  0
 17 18  1  0  0  0  0
 18 19  2  0  0  0  0
 18 20  1  0  0  0  0
 20 25  1  0  0  0  0
 20 21  2  0  0  0  0
 21 22  1  0  0  0  0
 21 43  1  0  0  0  0
 22 23  2  0  0  0  0
 22 44  1  0  0  0  0
 23 24  1  0  0  0  0
 23 45  1  0  0  0  0
 24 25  2  0  0  0  0
 24 46  1  0  0  0  0
 25 47  1  0  0  0  0
 26 27  1  0  0  0  0
 26 28  1  0  0  0  0
 26 48  1  0  0  0  0
 28 29  1  0  0  0  0
 28 49  1  0  0  0  0
 29 50  1  0  0  0  0
 30 35  1  0  0  0  0
 30 31  2  0  0  0  0
 31 32  1  0  0  0  0
 31 51  1  0  0  0  0
 32 33  2  0  0  0  0
 32 52  1  0  0  0  0
 33 34  1  0  0  0  0
 33 53  1  0  0  0  0
 34 35  2  0  0  0  0
 34 54  1  0  0  0  0
 35 55  1  0  0  0  0
M  END
> <s_m_source_file>
AV-unprocessed.smi

> <i_m_source_file_index>
34

> <i_lp_mmshare_version>
43012

> <i_f3d_flags>
0

> <s_epik_input>
W2NIXTFbY0hdW2NIXVtjSF1bY0hdYzFDKD1PKVtOSF1jKG5bY0hdbjIpYyhjMjMpbltjSF1uM1tDQEBIXTRPW0NASF0oW0NAQEhdKEYpW0NASF00W09IXSlbQ0gyXU9DKD1PKWM1W2NIXVtjSF1bY0hdW2NIXVtjSF01

> <s_epik_cmdline>
J2VwaWtfcHl0aG9uJywgJy1waCcsICc3LjAnLCAnLXRuJywgJzgnLCAnLW1hJywgJzIwMCcsICctbWV0YWxfYmluZGluZycsICctaW1hZScsICc8aW5maWxlLm1hZT4nLCAnLW9tYWUnLCAnPG91dGZpbGUubWFlPic=

> <r_lp_tautomer_probability>
1

> <r_epik_Ionization_Penalty>
0.00257489

> <r_epik_Ionization_Penalty_Charging>
0

> <r_epik_Ionization_Penalty_Neutral>
0.00257489

> <r_epik_State_Penalty>
0.00519398

> <r_epik_Charging_Adjusted_Penalty>
0.00519398

> <i_epik_Tot_Q>
0

> <i_epik_Tot_abs_Q>
0

> <r_epik_Metal_State_Penalty>
0.335891

> <b_epik_Metal_Only>
0

> <s_epik_Chemistry_Notes>
This compound has an ester and may undergo hydrolysis at high or low pH. This compound contains an acetal/aminal-like group ( X-CH(R)-Y where X, Y are N, S, or O) that may be acid/base labile, releasing an aldehyde.

> <s_lp_Force_Field>
OPLS_2005

> <r_lp_Energy>
45.4918

> <b_lp_Chiralities_Consistent>
1

> <s_lp_Variant>
AV-unprocessed.smi:34-16

> <Gold.Version>
5.8.1

> <Gold.Id.Protein>
6NUR|6NUR_protein|mol2

> <Gold.PLP.Fitness>
58.9394

> <Gold.PLP.PLP>
-52.3138

> <Gold.PLP.part.hbond>
-3.3327

> <Gold.PLP.part.metal>
0.0000

> <Gold.PLP.part.buried>
-6.8428

> <Gold.PLP.part.nonpolar>
-43.9781

> <Gold.PLP.part.repulsive>
0.2543

> <Gold.PLP.ligand.clash>
0.0000

> <Gold.PLP.ligand.torsion>
1.9304

> <Gold.PLP.Chemscore.Hbond>
3.4681

> <Gold.PLP.Chemscore.CHOScore>
0.0000

> <Gold.PLP.Chemscore.Metal>
0.0000

> <Gold.Chemscore.Hbonds>
donor molecule, donor type, donor heavy atom, donor atom, acceptor molecule, acceptor atom, score
      L1  H    29    50       P1  7948  0.46
      P1  H  6896  6907       L1    19  0.86
      P1  H  7997  8010       L1     5  1.00
      P1  H 10752 10763       L1     7  0.77

> <Gold.PLP.Chemscore.Internal.Correction>
0.0819

> <Gold.Rescore>
     Score         DG    S(hbond)    S(metal)    S(lipo)     H(rot)  DE(clash)    DE(int)     intcor
     19.20     -22.50       2.85        0.00     123.65       2.72       0.17       3.13       ----

> <Gold.Chemscore.Fitness>
19.2003

> <Gold.Chemscore.DG>
-22.5047

> <Gold.Chemscore.ZeroCoef>
-5.4800

> <Gold.Chemscore.Hbond>
2.8519

> <Gold.Chemscore.Metal>
0.0000

> <Gold.Chemscore.Lipo>
123.6457

> <Gold.Chemscore.Internal_Hbond>
0.0000

> <Gold.Chemscore.DEClash>
0.1725

> <Gold.Chemscore.DEInternal>
3.1319

> <Gold.Chemscore.Rot>
2.7215

> <Gold.Chemscore.Internal.Correction>
   9.000000E+99

> <Gold.Chemscore.Hbonds>
donor molecule, donor type, donor heavy atom, donor atom, acceptor molecule, acceptor atom, score
      L1  H    29    50       P1  7948  0.36
      P1  H  6896  6907       L1    19  0.78
      P1  H  7997  8010       L1     5  0.86
      P1  H 10752 10763       L1     7  0.59

> <Gold.Chemscore.Hbond.Weighted>
-9.5252

> <Gold.Chemscore.Metal.Weighted>
-0.0000

> <Gold.Chemscore.Lipo.Weighted>
-14.4665

> <Gold.Chemscore.Internal_Hbond.Weighted>
0.0000

> <Gold.Chemscore.DEClash.Weighted>
0.1725

> <Gold.Chemscore.DEInternal.Weighted>
3.1319

> <Gold.Chemscore.Rot.Weighted>
6.9670

> <Gold.Chemscore.Internal.Correction.Weighted>
   9.000000E+99

> <Gold.Protein.RotatedTorsions>
[ 6907 6896 6895 6894 ] final  -85.81 input  -60.11 | X-H torsion
[ 7974 7965 7964 7962 ] final  -76.73 input  175.53 | X-H torsion
[ 8008 7997 7996 7995 ] final   95.05 input   59.86 | X-H torsion
[ 10167 10162 10161 10158 ] final   50.62 input  -65.29 | X-H torsion
[ 10718 10713 10712 10709 ] final   84.57 input   66.30 | X-H torsion
[ 10763 10752 10751 10750 ] final   45.41 input  -60.55 | X-H torsion
[ 11005 11000 10999 10996 ] final -136.71 input  -57.11 | X-H torsion

> <Gold.Protein.ActiveResidues>
 VAL166  LYS551  ARG553  GLY616  TRP617  ASP618  TYR619  PRO620  LYS621  CYS622 
 ASP623  PHE694  ASN695  SER759  ASP760  ASP761  ALA762  ILE779  LEU786  VAL792 
 PHE793  MET794  SER795  GLU796  ALA797  LYS798  CYS799  TRP800  GLU811  SER814 

> <Gold.Protein.RotatedAtoms>
  150.6869  134.3148  159.4761 H   0  0  0  0  0  0  0  0  0  0  0  0  # atno 6907 bound_to 6896
  152.1030  134.9326  160.0578 H   0  0  0  0  0  0  0  0  0  0  0  0  # atno 6908 bound_to 6896
  152.0597  133.4022  159.4449 H   0  0  0  0  0  0  0  0  0  0  0  0  # atno 6909 bound_to 6896
  145.6090  140.9391  143.1199 H   0  0  0  0  0  0  0  0  0  0  0  0  # atno 7974 bound_to 7965
  156.0647  140.3291  155.7503 H   0  0  0  0  0  0  0  0  0  0  0  0  # atno 8008 bound_to 7997
  155.5400  140.0601  157.2889 H   0  0  0  0  0  0  0  0  0  0  0  0  # atno 8009 bound_to 7997
  154.4499  140.1912  156.0570 H   0  0  0  0  0  0  0  0  0  0  0  0  # atno 8010 bound_to 7997
  140.2705  144.3270  150.6291 H   0  0  0  0  0  0  0  0  0  0  0  0  # atno 10167 bound_to 10162
  157.6900  131.0138  150.2692 H   0  0  0  0  0  0  0  0  0  0  0  0  # atno 10718 bound_to 10713
  152.9825  135.6040  154.3433 H   0  0  0  0  0  0  0  0  0  0  0  0  # atno 10763 bound_to 10752
  154.3128  135.2771  155.2559 H   0  0  0  0  0  0  0  0  0  0  0  0  # atno 10764 bound_to 10752
  154.4761  135.5929  153.6412 H   0  0  0  0  0  0  0  0  0  0  0  0  # atno 10765 bound_to 10752
  140.8780  134.1968  157.4609 H   0  0  0  0  0  0  0  0  0  0  0  0  # atno 11005 bound_to 11000
  144.7278  139.7821  143.7358 LP  0  0  0  0  0  0  0  0  0  0  0  0  # atno 17320 bound_to 7965
  146.1518  139.4604  143.0043 LP  0  0  0  0  0  0  0  0  0  0  0  0  # atno 17321 bound_to 7965
  140.5893  143.2168  151.7283 LP  0  0  0  0  0  0  0  0  0  0  0  0  # atno 17342 bound_to 10162
  139.4990  144.3963  152.0228 LP  0  0  0  0  0  0  0  0  0  0  0  0  # atno 17343 bound_to 10162
  156.3258  130.3792  149.7535 LP  0  0  0  0  0  0  0  0  0  0  0  0  # atno 17370 bound_to 10713
  156.5091  130.8163  151.3162 LP  0  0  0  0  0  0  0  0  0  0  0  0  # atno 17371 bound_to 10713
  139.8717  134.9804  156.5075 LP  0  0  0  0  0  0  0  0  0  0  0  0  # atno 17394 bound_to 11000
  140.8495  133.8143  155.9155 LP  0  0  0  0  0  0  0  0  0  0  0  0  # atno 17395 bound_to 11000

$$$$
