AV-unprocessed.smi:1756|AV-procd|sdf|7072|dock1
  -GOLD-   22720 8293D 1   1.00000     0.00000
 Structure written by MMmdl.
 38 39  0  0  0  0  0  0  0  0  1 V2000
  153.9557  140.0114  158.8623 O   0  0  0  0  0  0  0  0  0  0  0  0
  152.8973  139.4738  159.1866 C   0  0  0  0  0  0  0  0  0  0  0  0
  151.6929  139.9684  158.8674 N   0  0  0  0  0  0  0  0  0  0  0  0
  151.4523  141.1815  158.0913 C   0  0  0  0  0  0  0  0  0  0  0  0
  152.0858  142.4253  158.7412 C   0  0  1  0  0  0  0  0  0  0  0  0
  151.6489  143.7535  158.0860 C   0  0  0  0  0  0  0  0  0  0  0  0
  152.2262  144.9514  158.8483 C   0  0  0  0  0  0  0  0  0  0  0  0
  151.8763  144.8372  160.3351 C   0  0  0  0  0  0  0  0  0  0  0  0
  152.3045  143.4653  160.8776 C   0  0  0  0  0  0  0  0  0  0  0  0
  151.6950  142.4301  160.1126 O   0  0  0  0  0  0  0  0  0  0  0  0
  152.7739  138.3465  159.9112 N   0  0  0  0  0  0  0  0  0  0  0  0
  153.7720  137.5064  160.4343 C   0  0  0  0  0  0  0  0  0  0  0  0
  154.0143  137.3129  161.7575 C   0  0  0  0  0  0  0  0  0  0  0  0
  155.0721  136.4343  162.2281 C   0  0  0  0  0  0  0  0  0  0  0  0
  155.2789  136.1589  163.7093 C   0  0  0  0  0  0  0  0  0  0  0  0
  155.1157  134.8648  163.9874 F   0  0  0  0  0  0  0  0  0  0  0  0
  156.5141  136.5072  164.0664 F   0  0  0  0  0  0  0  0  0  0  0  0
  154.4200  136.8583  164.4510 F   0  0  0  0  0  0  0  0  0  0  0  0
  155.8007  135.8122  161.2831 C   0  0  0  0  0  0  0  0  0  0  0  0
  155.5738  136.0234  159.9215 N   0  0  0  0  0  0  0  0  0  0  0  0
  154.6077  136.8303  159.4282 C   0  0  0  0  0  0  0  0  0  0  0  0
  154.4705  136.9619  158.2124 O   0  0  0  0  0  0  0  0  0  0  0  0
  156.1747  135.5330  159.2747 H   0  0  0  0  0  0  0  0  0  0  0  0
  150.8765  139.4655  159.1831 H   0  0  0  0  0  0  0  0  0  0  0  0
  151.7990  141.0701  157.0626 H   0  0  0  0  0  0  0  0  0  0  0  0
  150.3723  141.3178  158.0316 H   0  0  0  0  0  0  0  0  0  0  0  0
  153.1722  142.3318  158.6887 H   0  0  0  0  0  0  0  0  0  0  0  0
  151.9729  143.7955  157.0463 H   0  0  0  0  0  0  0  0  0  0  0  0
  150.5600  143.8170  158.0768 H   0  0  0  0  0  0  0  0  0  0  0  0
  153.3098  144.9761  158.7265 H   0  0  0  0  0  0  0  0  0  0  0  0
  151.8423  145.8852  158.4372 H   0  0  0  0  0  0  0  0  0  0  0  0
  152.3589  145.6353  160.8999 H   0  0  0  0  0  0  0  0  0  0  0  0
  150.8013  144.9628  160.4702 H   0  0  0  0  0  0  0  0  0  0  0  0
  153.3901  143.3585  160.8559 H   0  0  0  0  0  0  0  0  0  0  0  0
  151.9960  143.3613  161.9180 H   0  0  0  0  0  0  0  0  0  0  0  0
  151.8319  138.0697  160.1467 H   0  0  0  0  0  0  0  0  0  0  0  0
  153.4369  137.8241  162.5098 H   0  0  0  0  0  0  0  0  0  0  0  0
  156.5960  135.1114  161.4911 H   0  0  0  0  0  0  0  0  0  0  0  0
  1  2  2  0  0  0  0
  2  3  1  0  0  0  0
  2 11  1  0  0  0  0
  3  4  1  0  0  0  0
  3 24  1  0  0  0  0
  4  5  1  0  0  0  0
  4 25  1  0  0  0  0
  4 26  1  0  0  0  0
  5 10  1  0  0  0  0
  5  6  1  0  0  0  0
  5 27  1  0  0  0  0
  6  7  1  0  0  0  0
  6 28  1  0  0  0  0
  6 29  1  0  0  0  0
  7  8  1  0  0  0  0
  7 30  1  0  0  0  0
  7 31  1  0  0  0  0
  8  9  1  0  0  0  0
  8 32  1  0  0  0  0
  8 33  1  0  0  0  0
  9 10  1  0  0  0  0
  9 34  1  0  0  0  0
  9 35  1  0  0  0  0
 11 12  1  0  0  0  0
 11 36  1  0  0  0  0
 12 21  1  0  0  0  0
 12 13  2  0  0  0  0
 13 14  1  0  0  0  0
 13 37  1  0  0  0  0
 14 15  1  0  0  0  0
 14 19  2  0  0  0  0
 15 16  1  0  0  0  0
 15 17  1  0  0  0  0
 15 18  1  0  0  0  0
 19 20  1  0  0  0  0
 19 38  1  0  0  0  0
 20 23  1  0  0  0  0
 20 21  1  0  0  0  0
 21 22  2  0  0  0  0
M  END
> <s_m_source_file>
AV-unprocessed.smi

> <i_m_source_file_index>
1756

> <i_lp_mmshare_version>
43012

> <i_f3d_flags>
0

> <s_epik_input>
Tz1jMVtuSF1bY0hdYyhDKEYpKEYpRilbY0hdYzFbTkhdQyg9TylbTkhdW0NIMl1bQ0BASF0yW0NIMl1bQ0gyXVtDSDJdW0NIMl1PMg==

> <s_epik_cmdline>
J2VwaWtfcHl0aG9uJywgJy1waCcsICc3LjAnLCAnLXRuJywgJzgnLCAnLW1hJywgJzIwMCcsICctbWV0YWxfYmluZGluZycsICctaW1hZScsICc8aW5maWxlLm1hZT4nLCAnLW9tYWUnLCAnPG91dGZpbGUubWFlPic=

> <r_lp_tautomer_probability>
1

> <r_epik_Ionization_Penalty>
0.00380944

> <r_epik_Ionization_Penalty_Charging>
0.00379057

> <r_epik_Ionization_Penalty_Neutral>
1.88732e-05

> <r_epik_State_Penalty>
-0

> <r_epik_Charging_Adjusted_Penalty>
0.00379057

> <i_epik_Tot_Q>
0

> <i_epik_Tot_abs_Q>
0

> <r_epik_Metal_State_Penalty>
0.371099

> <b_epik_Metal_Only>
0

> <s_lp_Force_Field>
OPLS_2005

> <r_lp_Energy>
19.4394

> <b_lp_Chiralities_Consistent>
1

> <s_lp_Variant>
AV-unprocessed.smi:1756-2

> <Gold.Version>
5.8.1

> <Gold.Id.Protein>
6NUR|6NUR_protein|mol2

> <Gold.PLP.Fitness>
45.6732

> <Gold.PLP.PLP>
-43.9890

> <Gold.PLP.part.hbond>
-1.4194

> <Gold.PLP.part.metal>
0.0000

> <Gold.PLP.part.buried>
-5.2401

> <Gold.PLP.part.nonpolar>
-37.2721

> <Gold.PLP.part.repulsive>
0.2934

> <Gold.PLP.ligand.clash>
0.0000

> <Gold.PLP.ligand.torsion>
0.6834

> <Gold.PLP.Chemscore.Hbond>
1.0000

> <Gold.PLP.Chemscore.CHOScore>
0.0000

> <Gold.PLP.Chemscore.Metal>
0.0000

> <Gold.Chemscore.Hbonds>
donor molecule, donor type, donor heavy atom, donor atom, acceptor molecule, acceptor atom, score
      P1  H  7997  8010       L1     1  1.00

> <Gold.PLP.Chemscore.Internal.Correction>
0.0510

> <Gold.Rescore>
     Score         DG    S(hbond)    S(metal)    S(lipo)     H(rot)  DE(clash)    DE(int)     intcor
     15.91     -16.67       1.00        0.00      96.39       1.33       0.00       0.76       ----

> <Gold.Chemscore.Fitness>
15.9088

> <Gold.Chemscore.DG>
-16.6705

> <Gold.Chemscore.ZeroCoef>
-5.4800

> <Gold.Chemscore.Hbond>
0.9968

> <Gold.Chemscore.Metal>
0.0000

> <Gold.Chemscore.Lipo>
96.3852

> <Gold.Chemscore.Internal_Hbond>
0.0000

> <Gold.Chemscore.DEClash>
0.0004

> <Gold.Chemscore.DEInternal>
0.7612

> <Gold.Chemscore.Rot>
1.3344

> <Gold.Chemscore.Internal.Correction>
   9.000000E+99

> <Gold.Chemscore.Hbonds>
donor molecule, donor type, donor heavy atom, donor atom, acceptor molecule, acceptor atom, score
      P1  H  7997  8010       L1     1  0.96

> <Gold.Chemscore.Hbond.Weighted>
-3.3294

> <Gold.Chemscore.Metal.Weighted>
-0.0000

> <Gold.Chemscore.Lipo.Weighted>
-11.2771

> <Gold.Chemscore.Internal_Hbond.Weighted>
0.0000

> <Gold.Chemscore.DEClash.Weighted>
0.0004

> <Gold.Chemscore.DEInternal.Weighted>
0.7612

> <Gold.Chemscore.Rot.Weighted>
3.4160

> <Gold.Chemscore.Internal.Correction.Weighted>
   9.000000E+99

> <Gold.Protein.RotatedTorsions>
[ 6907 6896 6895 6894 ] final -120.63 input  -60.11 | X-H torsion
[ 7974 7965 7964 7962 ] final   42.72 input  175.53 | X-H torsion
[ 8008 7997 7996 7995 ] final   12.50 input   59.86 | X-H torsion
[ 10167 10162 10161 10158 ] final  -11.83 input  -65.29 | X-H torsion
[ 10718 10713 10712 10709 ] final   30.07 input   66.30 | X-H torsion
[ 10763 10752 10751 10750 ] final  154.19 input  -60.55 | X-H torsion
[ 11005 11000 10999 10996 ] final   64.01 input  -57.11 | X-H torsion

> <Gold.Protein.ActiveResidues>
 VAL166  LYS551  ARG553  GLY616  TRP617  ASP618  TYR619  PRO620  LYS621  CYS622 
 ASP623  PHE694  ASN695  SER759  ASP760  ASP761  ALA762  ILE779  LEU786  VAL792 
 PHE793  MET794  SER795  GLU796  ALA797  LYS798  CYS799  TRP800  GLU811  SER814 

> <Gold.Protein.RotatedAtoms>
  150.8410  133.7936  159.3060 H   0  0  0  0  0  0  0  0  0  0  0  0  # atno 6907 bound_to 6896
  151.5637  135.1063  159.9988 H   0  0  0  0  0  0  0  0  0  0  0  0  # atno 6908 bound_to 6896
  152.4474  133.7520  159.6755 H   0  0  0  0  0  0  0  0  0  0  0  0  # atno 6909 bound_to 6896
  146.0716  139.5267  142.9594 H   0  0  0  0  0  0  0  0  0  0  0  0  # atno 7974 bound_to 7965
  154.8215  140.2884  155.5784 H   0  0  0  0  0  0  0  0  0  0  0  0  # atno 8008 bound_to 7997
  156.2998  140.2549  156.3053 H   0  0  0  0  0  0  0  0  0  0  0  0  # atno 8009 bound_to 7997
  154.9334  140.0383  157.2049 H   0  0  0  0  0  0  0  0  0  0  0  0  # atno 8010 bound_to 7997
  140.7147  143.5597  150.9209 H   0  0  0  0  0  0  0  0  0  0  0  0  # atno 10167 bound_to 10162
  157.2548  130.7133  149.6424 H   0  0  0  0  0  0  0  0  0  0  0  0  # atno 10718 bound_to 10713
  154.1483  135.2816  155.3142 H   0  0  0  0  0  0  0  0  0  0  0  0  # atno 10763 bound_to 10752
  154.6236  135.5459  153.7606 H   0  0  0  0  0  0  0  0  0  0  0  0  # atno 10764 bound_to 10752
  153.0229  135.6445  154.1628 H   0  0  0  0  0  0  0  0  0  0  0  0  # atno 10765 bound_to 10752
  139.9987  134.6476  155.9967 H   0  0  0  0  0  0  0  0  0  0  0  0  # atno 11005 bound_to 11000
  145.6381  141.0290  143.1826 LP  0  0  0  0  0  0  0  0  0  0  0  0  # atno 17320 bound_to 7965
  144.7235  139.7951  143.7373 LP  0  0  0  0  0  0  0  0  0  0  0  0  # atno 17321 bound_to 7965
  139.9323  143.6479  152.3073 LP  0  0  0  0  0  0  0  0  0  0  0  0  # atno 17342 bound_to 10162
  139.6934  144.7644  151.1398 LP  0  0  0  0  0  0  0  0  0  0  0  0  # atno 17343 bound_to 10162
  155.9665  130.4416  150.5347 LP  0  0  0  0  0  0  0  0  0  0  0  0  # atno 17370 bound_to 10713
  157.3239  131.0687  151.1912 LP  0  0  0  0  0  0  0  0  0  0  0  0  # atno 17371 bound_to 10713
  141.1625  133.6538  156.4366 LP  0  0  0  0  0  0  0  0  0  0  0  0  # atno 17394 bound_to 11000
  140.4769  134.6701  157.5154 LP  0  0  0  0  0  0  0  0  0  0  0  0  # atno 17395 bound_to 11000

$$$$
