AV-unprocessed.smi:1260|AV-procd|sdf|5295|dock9
  -GOLD-   22720 4413D 1   1.00000     0.00000
 Structure written by MMmdl.
 37 39  0  0  0  0  0  0  0  0  2 V2000
  150.0908  140.1957  154.4401 O   0  0  0  0  0  0  0  0  0  0  0  0
  149.4771  141.2018  154.7933 C   0  0  0  0  0  0  0  0  0  0  0  0
  148.1459  141.5569  154.1273 C   0  0  0  0  0  0  0  0  0  0  0  0
  147.1030  141.7885  155.1098 N   0  0  0  0  0  0  0  0  0  0  0  0
  145.7739  141.8083  154.9895 C   0  0  0  0  0  0  0  0  0  0  0  0
  145.1824  142.0758  156.1434 N   0  0  0  0  0  0  0  0  0  0  0  0
  146.2476  142.2226  157.0163 N   0  0  0  0  0  0  0  0  0  0  0  0
  147.3899  142.0533  156.4086 N   0  0  0  0  0  0  0  0  0  0  0  0
  149.9201  142.0398  155.7442 N   0  0  0  0  0  0  0  0  0  0  0  0
  151.1578  141.8779  156.5005 C   0  0  2  0  0  0  0  0  0  0  0  0
  151.3617  140.4411  157.0130 C   0  0  0  0  0  0  0  0  0  0  0  0
  151.9795  140.5905  158.4175 C   0  0  0  0  0  0  0  0  0  0  0  0
  152.1987  142.0384  158.5962 N   0  3  2  0  0  0  0  0  0  0  0  0
  152.2577  142.5443  159.9849 C   0  0  0  0  0  0  0  0  0  0  0  0
  152.5735  144.0535  159.9637 C   0  0  0  0  0  0  0  0  0  0  0  0
  151.5927  144.8316  159.0629 C   0  0  0  0  0  0  0  0  0  0  0  0
  151.5051  144.2008  157.6598 C   0  0  0  0  0  0  0  0  0  0  0  0
  151.1668  142.7059  157.7880 C   0  0  1  0  0  0  0  0  0  0  0  0
  148.2669  142.4552  153.5204 H   0  0  0  0  0  0  0  0  0  0  0  0
  147.8320  140.7547  153.4576 H   0  0  0  0  0  0  0  0  0  0  0  0
  145.2455  141.6350  154.0638 H   0  0  0  0  0  0  0  0  0  0  0  0
  149.3508  142.8433  155.9685 H   0  0  0  0  0  0  0  0  0  0  0  0
  152.0206  142.1479  155.8874 H   0  0  0  0  0  0  0  0  0  0  0  0
  150.4151  139.9029  157.0828 H   0  0  0  0  0  0  0  0  0  0  0  0
  152.0100  139.8753  156.3430 H   0  0  0  0  0  0  0  0  0  0  0  0
  151.2839  140.2202  159.1722 H   0  0  0  0  0  0  0  0  0  0  0  0
  152.9157  140.0415  158.5217 H   0  0  0  0  0  0  0  0  0  0  0  0
  151.3078  142.3596  160.4888 H   0  0  0  0  0  0  0  0  0  0  0  0
  153.0276  142.0060  160.5387 H   0  0  0  0  0  0  0  0  0  0  0  0
  152.5485  144.4547  160.9774 H   0  0  0  0  0  0  0  0  0  0  0  0
  153.5904  144.2034  159.5989 H   0  0  0  0  0  0  0  0  0  0  0  0
  150.6030  144.8325  159.5214 H   0  0  0  0  0  0  0  0  0  0  0  0
  151.8991  145.8755  158.9876 H   0  0  0  0  0  0  0  0  0  0  0  0
  150.7457  144.7145  157.0698 H   0  0  0  0  0  0  0  0  0  0  0  0
  152.4519  144.3291  157.1336 H   0  0  0  0  0  0  0  0  0  0  0  0
  150.2039  142.5937  158.2925 H   0  0  0  0  0  0  0  0  0  0  0  0
  153.0846  142.2513  158.1597 H   0  0  0  0  0  0  0  0  0  0  0  0
  1  2  2  0  0  0  0
  2  3  1  0  0  0  0
  2  9  1  0  0  0  0
  3  4  1  0  0  0  0
  3 19  1  0  0  0  0
  3 20  1  0  0  0  0
  4  8  1  0  0  0  0
  4  5  1  0  0  0  0
  5  6  2  0  0  0  0
  5 21  1  0  0  0  0
  6  7  1  0  0  0  0
  7  8  2  0  0  0  0
  9 10  1  0  0  0  0
  9 22  1  0  0  0  0
 10 18  1  0  0  0  0
 10 11  1  0  0  0  0
 10 23  1  0  0  0  0
 11 12  1  0  0  0  0
 11 24  1  0  0  0  0
 11 25  1  0  0  0  0
 12 13  1  0  0  0  0
 12 26  1  0  0  0  0
 12 27  1  0  0  0  0
 13 18  1  0  0  0  0
 13 14  1  0  0  0  0
 13 37  1  0  0  0  0
 14 15  1  0  0  0  0
 14 28  1  0  0  0  0
 14 29  1  0  0  0  0
 15 16  1  0  0  0  0
 15 30  1  0  0  0  0
 15 31  1  0  0  0  0
 16 17  1  0  0  0  0
 16 32  1  0  0  0  0
 16 33  1  0  0  0  0
 17 18  1  0  0  0  0
 17 34  1  0  0  0  0
 17 35  1  0  0  0  0
 18 36  1  0  0  0  0
M  CHG  1  13   1
M  END
> <s_m_source_file>
AV-unprocessed.smi

> <i_m_source_file_index>
1260

> <i_lp_mmshare_version>
43012

> <i_f3d_flags>
0

> <s_epik_input>
bjFubltjSF1uMVtDSDJdQyg9TylbTkhdW0NASF0oW0NIMl1bQ0gyXTIpW0NAQEhdKE4yMylbQ0gyXVtDSDJdW0NIMl1bQ0gyXTM=

> <s_epik_cmdline>
J2VwaWtfcHl0aG9uJywgJy1waCcsICc3LjAnLCAnLXRuJywgJzgnLCAnLW1hJywgJzIwMCcsICctbWV0YWxfYmluZGluZycsICctaW1hZScsICc8aW5maWxlLm1hZT4nLCAnLW9tYWUnLCAnPG91dGZpbGUubWFlPic=

> <r_lp_tautomer_probability>
1

> <r_epik_Ionization_Penalty>
0.00234324

> <r_epik_Ionization_Penalty_Charging>
0.00233897

> <r_epik_Ionization_Penalty_Neutral>
4.26861e-06

> <r_epik_State_Penalty>
0.00161477

> <r_epik_Charging_Adjusted_Penalty>
0.00395374

> <i_epik_Tot_Q>
1

> <i_epik_Tot_abs_Q>
1

> <r_epik_Metal_State_Penalty>
-0

> <b_epik_Metal_Only>
0

> <s_lp_Force_Field>
OPLS_2005

> <r_lp_Energy>
37.0555

> <b_lp_Chiralities_Consistent>
1

> <s_lp_Variant>
AV-unprocessed.smi:1260-3

> <Gold.Version>
5.8.1

> <Gold.Id.Protein>
6NUR|6NUR_protein|mol2

> <Gold.PLP.Fitness>
45.0260

> <Gold.PLP.PLP>
-37.1609

> <Gold.PLP.part.hbond>
-2.0000

> <Gold.PLP.part.metal>
0.0000

> <Gold.PLP.part.buried>
-5.6367

> <Gold.PLP.part.nonpolar>
-31.1274

> <Gold.PLP.part.repulsive>
0.7526

> <Gold.PLP.ligand.clash>
0.0000

> <Gold.PLP.ligand.torsion>
0.5287

> <Gold.PLP.Chemscore.Hbond>
1.9920

> <Gold.PLP.Chemscore.CHOScore>
0.9786

> <Gold.PLP.Chemscore.Metal>
0.0000

> <Gold.Chemscore.Hbonds>
donor molecule, donor type, donor heavy atom, donor atom, acceptor molecule, acceptor atom, score
      L1  H     9    22       P1  8028  0.99
      P1  H  7989  7998       L1     1  1.00
      L1  C     5    21       P1 10175  1.00

> <Gold.PLP.Chemscore.Internal.Correction>
0.0107

> <Gold.Rescore>
     Score         DG    S(hbond)    S(metal)    S(lipo)     H(rot)  DE(clash)    DE(int)     intcor
     13.98     -15.70       1.60        0.00      84.86       1.98       0.15       1.57       ----

> <Gold.Chemscore.Fitness>
13.9815

> <Gold.Chemscore.DG>
-15.7024

> <Gold.Chemscore.ZeroCoef>
-5.4800

> <Gold.Chemscore.Hbond>
1.6022

> <Gold.Chemscore.Metal>
0.0000

> <Gold.Chemscore.Lipo>
84.8628

> <Gold.Chemscore.Internal_Hbond>
0.0000

> <Gold.Chemscore.DEClash>
0.1483

> <Gold.Chemscore.DEInternal>
1.5726

> <Gold.Chemscore.Rot>
1.9757

> <Gold.Chemscore.Internal.Correction>
   9.000000E+99

> <Gold.Chemscore.Hbonds>
donor molecule, donor type, donor heavy atom, donor atom, acceptor molecule, acceptor atom, score
      L1  H     9    22       P1  8028  0.92
      P1  H  7989  7998       L1     1  0.43

> <Gold.Chemscore.Hbond.Weighted>
-5.3512

> <Gold.Chemscore.Metal.Weighted>
-0.0000

> <Gold.Chemscore.Lipo.Weighted>
-9.9289

> <Gold.Chemscore.Internal_Hbond.Weighted>
0.0000

> <Gold.Chemscore.DEClash.Weighted>
0.1483

> <Gold.Chemscore.DEInternal.Weighted>
1.5726

> <Gold.Chemscore.Rot.Weighted>
5.0578

> <Gold.Chemscore.Internal.Correction.Weighted>
   9.000000E+99

> <Gold.Protein.RotatedTorsions>
[ 6907 6896 6895 6894 ] final -134.39 input  -60.11 | X-H torsion
[ 7974 7965 7964 7962 ] final   89.03 input  175.53 | X-H torsion
[ 8008 7997 7996 7995 ] final   99.10 input   59.86 | X-H torsion
[ 10167 10162 10161 10158 ] final   70.25 input  -65.29 | X-H torsion
[ 10718 10713 10712 10709 ] final -130.22 input   66.30 | X-H torsion
[ 10763 10752 10751 10750 ] final  -93.03 input  -60.55 | X-H torsion
[ 11005 11000 10999 10996 ] final  -82.12 input  -57.11 | X-H torsion

> <Gold.Protein.ActiveResidues>
 VAL166  LYS551  ARG553  GLY616  TRP617  ASP618  TYR619  PRO620  LYS621  CYS622 
 ASP623  PHE694  ASN695  SER759  ASP760  ASP761  ALA762  ILE779  LEU786  VAL792 
 PHE793  MET794  SER795  GLU796  ALA797  LYS798  CYS799  TRP800  GLU811  SER814 

> <Gold.Protein.RotatedAtoms>
  150.9853  133.6204  159.2716 H   0  0  0  0  0  0  0  0  0  0  0  0  # atno 6907 bound_to 6896
  151.3445  135.0870  159.9392 H   0  0  0  0  0  0  0  0  0  0  0  0  # atno 6908 bound_to 6896
  152.5228  133.9457  159.7702 H   0  0  0  0  0  0  0  0  0  0  0  0  # atno 6909 bound_to 6896
  145.5378  139.2287  143.2583 H   0  0  0  0  0  0  0  0  0  0  0  0  # atno 7974 bound_to 7965
  156.1071  140.3234  155.8021 H   0  0  0  0  0  0  0  0  0  0  0  0  # atno 8008 bound_to 7997
  155.4737  140.0548  157.2993 H   0  0  0  0  0  0  0  0  0  0  0  0  # atno 8009 bound_to 7997
  154.4735  140.2022  155.9951 H   0  0  0  0  0  0  0  0  0  0  0  0  # atno 8010 bound_to 7997
  140.0589  144.5249  150.7308 H   0  0  0  0  0  0  0  0  0  0  0  0  # atno 10167 bound_to 10162
  156.2123  130.6926  151.0664 H   0  0  0  0  0  0  0  0  0  0  0  0  # atno 10718 bound_to 10713
  154.6920  135.5209  153.8405 H   0  0  0  0  0  0  0  0  0  0  0  0  # atno 10763 bound_to 10752
  153.0639  135.6578  154.0409 H   0  0  0  0  0  0  0  0  0  0  0  0  # atno 10764 bound_to 10752
  154.0282  135.2987  155.3352 H   0  0  0  0  0  0  0  0  0  0  0  0  # atno 10765 bound_to 10752
  141.1664  133.7229  156.8524 H   0  0  0  0  0  0  0  0  0  0  0  0  # atno 11005 bound_to 11000
  146.2001  140.6197  142.9106 LP  0  0  0  0  0  0  0  0  0  0  0  0  # atno 17320 bound_to 7965
  144.7592  140.5382  143.6747 LP  0  0  0  0  0  0  0  0  0  0  0  0  # atno 17321 bound_to 7965
  140.7181  143.2563  151.4368 LP  0  0  0  0  0  0  0  0  0  0  0  0  # atno 17342 bound_to 10162
  139.5906  144.1508  152.2083 LP  0  0  0  0  0  0  0  0  0  0  0  0  # atno 17343 bound_to 10162
  157.7045  131.0762  150.6713 LP  0  0  0  0  0  0  0  0  0  0  0  0  # atno 17370 bound_to 10713
  156.6773  130.4557  149.5639 LP  0  0  0  0  0  0  0  0  0  0  0  0  # atno 17371 bound_to 10713
  140.1906  134.8968  157.3056 LP  0  0  0  0  0  0  0  0  0  0  0  0  # atno 17394 bound_to 11000
  140.2294  134.3927  155.7529 LP  0  0  0  0  0  0  0  0  0  0  0  0  # atno 17395 bound_to 11000

$$$$
