AV-unprocessed.smi:2324|AV-procd|sdf|9292|dock7
  -GOLD-   2272012513D 1   1.00000     0.00000
 Structure written by MMmdl.
 37 39  0  0  0  0  0  0  0  0  1 V2000
  149.8508  137.8472  159.4801 O   0  0  0  0  0  0  0  0  0  0  0  0
  149.2354  137.0408  158.7846 C   0  0  0  0  0  0  0  0  0  0  0  0
  148.2687  136.2621  159.3158 N   0  0  0  0  0  0  0  0  0  0  0  0
  147.7523  136.1672  160.6411 C   0  0  0  0  0  0  0  0  0  0  0  0
  147.4092  134.8598  161.0480 C   0  0  0  0  0  0  0  0  0  0  0  0
  146.8929  134.6742  162.3418 C   0  0  0  0  0  0  0  0  0  0  0  0
  146.7549  135.8157  163.1492 C   0  0  0  0  0  0  0  0  0  0  0  0
  147.0971  137.0503  162.7217 N   0  0  0  0  0  0  0  0  0  0  0  0
  147.5869  137.2176  161.4886 N   0  0  0  0  0  0  0  0  0  0  0  0
  149.4817  136.8770  157.4742 N   0  0  0  0  0  0  0  0  0  0  0  0
  150.4853  137.6013  156.7009 C   0  0  1  0  0  0  0  0  0  0  0  0
  150.4273  137.2011  155.2170 C   0  0  0  0  0  0  0  0  0  0  0  0
  151.3660  138.0842  154.3804 C   0  0  0  0  0  0  0  0  0  0  0  0
  151.0379  139.4570  154.5666 O   0  0  0  0  0  0  0  0  0  0  0  0
  151.2058  139.8960  155.9112 C   0  0  1  0  0  0  0  0  0  0  0  0
  150.9389  141.3875  155.9553 C   0  0  0  0  0  0  0  0  0  0  0  0
  151.1016  142.1639  157.2412 C   0  0  0  0  0  0  0  0  0  0  0  0
  149.7239  141.9343  156.6680 C   0  0  0  0  0  0  0  0  0  0  0  0
  150.2485  139.1133  156.8292 C   0  0  0  0  0  0  0  0  0  0  0  0
  147.8318  135.6361  158.6551 H   0  0  0  0  0  0  0  0  0  0  0  0
  147.5363  134.0157  160.3856 H   0  0  0  0  0  0  0  0  0  0  0  0
  146.6141  133.6950  162.7014 H   0  0  0  0  0  0  0  0  0  0  0  0
  146.3655  135.7393  164.1534 H   0  0  0  0  0  0  0  0  0  0  0  0
  148.9302  136.1931  156.9750 H   0  0  0  0  0  0  0  0  0  0  0  0
  151.4781  137.3749  157.0945 H   0  0  0  0  0  0  0  0  0  0  0  0
  150.6966  136.1516  155.0931 H   0  0  0  0  0  0  0  0  0  0  0  0
  149.4080  137.3086  154.8434 H   0  0  0  0  0  0  0  0  0  0  0  0
  152.4084  137.9081  154.6500 H   0  0  0  0  0  0  0  0  0  0  0  0
  151.2660  137.8397  153.3230 H   0  0  0  0  0  0  0  0  0  0  0  0
  152.2380  139.7194  156.2194 H   0  0  0  0  0  0  0  0  0  0  0  0
  151.2297  141.9111  155.0463 H   0  0  0  0  0  0  0  0  0  0  0  0
  151.3713  141.6095  158.1379 H   0  0  0  0  0  0  0  0  0  0  0  0
  151.5150  143.1681  157.1722 H   0  0  0  0  0  0  0  0  0  0  0  0
  149.2180  142.7851  156.2159 H   0  0  0  0  0  0  0  0  0  0  0  0
  149.0772  141.2274  157.1840 H   0  0  0  0  0  0  0  0  0  0  0  0
  149.2167  139.3494  156.5634 H   0  0  0  0  0  0  0  0  0  0  0  0
  150.3827  139.4267  157.8654 H   0  0  0  0  0  0  0  0  0  0  0  0
  1  2  2  0  0  0  0
  2  3  1  0  0  0  0
  2 10  1  0  0  0  0
  3  4  1  0  0  0  0
  3 20  1  0  0  0  0
  4  9  1  0  0  0  0
  4  5  2  0  0  0  0
  5  6  1  0  0  0  0
  5 21  1  0  0  0  0
  6  7  2  0  0  0  0
  6 22  1  0  0  0  0
  7  8  1  0  0  0  0
  7 23  1  0  0  0  0
  8  9  2  0  0  0  0
 10 11  1  0  0  0  0
 10 24  1  0  0  0  0
 11 19  1  0  0  0  0
 11 12  1  0  0  0  0
 11 25  1  0  0  0  0
 12 13  1  0  0  0  0
 12 26  1  0  0  0  0
 12 27  1  0  0  0  0
 13 14  1  0  0  0  0
 13 28  1  0  0  0  0
 13 29  1  0  0  0  0
 14 15  1  0  0  0  0
 15 16  1  0  0  0  0
 15 19  1  0  0  0  0
 15 30  1  0  0  0  0
 16 18  1  0  0  0  0
 16 17  1  0  0  0  0
 16 31  1  0  0  0  0
 17 18  1  0  0  0  0
 17 32  1  0  0  0  0
 17 33  1  0  0  0  0
 18 34  1  0  0  0  0
 18 35  1  0  0  0  0
 19 36  1  0  0  0  0
 19 37  1  0  0  0  0
M  END
> <s_m_source_file>
AV-unprocessed.smi

> <i_m_source_file_index>
2324

> <i_lp_mmshare_version>
43012

> <i_f3d_flags>
0

> <s_epik_input>
bjFuW2NIXVtjSF1bY0hdYzFbTkhdQyg9TylbTkhdW0NAQEhdMltDSDJdW0NIMl1PW0NASF0oW0NIMl0yKVtDSF0zW0NIMl1bQ0gyXTM=

> <s_epik_cmdline>
J2VwaWtfcHl0aG9uJywgJy1waCcsICc3LjAnLCAnLXRuJywgJzgnLCAnLW1hJywgJzIwMCcsICctbWV0YWxfYmluZGluZycsICctaW1hZScsICc8aW5maWxlLm1hZT4nLCAnLW9tYWUnLCAnPG91dGZpbGUubWFlPic=

> <r_lp_tautomer_probability>
1

> <r_epik_Ionization_Penalty>
0.00521499

> <r_epik_Ionization_Penalty_Charging>
0

> <r_epik_Ionization_Penalty_Neutral>
0.00521499

> <r_epik_State_Penalty>
-0

> <r_epik_Charging_Adjusted_Penalty>
0

> <i_epik_Tot_Q>
0

> <i_epik_Tot_abs_Q>
0

> <r_epik_Metal_State_Penalty>
-0

> <b_epik_Metal_Only>
0

> <s_lp_Force_Field>
OPLS_2005

> <r_lp_Energy>
26.0147

> <b_lp_Chiralities_Consistent>
1

> <s_lp_Variant>
AV-unprocessed.smi:2324-2

> <Gold.Version>
5.8.1

> <Gold.Id.Protein>
6NUR|6NUR_protein|mol2

> <Gold.PLP.Fitness>
40.2612

> <Gold.PLP.PLP>
-33.2925

> <Gold.PLP.part.hbond>
-4.7082

> <Gold.PLP.part.metal>
0.0000

> <Gold.PLP.part.buried>
-4.4508

> <Gold.PLP.part.nonpolar>
-24.5284

> <Gold.PLP.part.repulsive>
0.3120

> <Gold.PLP.ligand.clash>
0.0000

> <Gold.PLP.ligand.torsion>
0.9956

> <Gold.PLP.Chemscore.Hbond>
2.6296

> <Gold.PLP.Chemscore.CHOScore>
0.0000

> <Gold.PLP.Chemscore.Metal>
0.0000

> <Gold.Chemscore.Hbonds>
donor molecule, donor type, donor heavy atom, donor atom, acceptor molecule, acceptor atom, score
      P1  H  6931  6943       L1     9  0.86
      P1  H  6934  6947       L1     9  0.82
      P1  H  7989  7998       L1    14  1.00

> <Gold.PLP.Chemscore.Internal.Correction>
1.0712

> <Gold.Rescore>
     Score         DG    S(hbond)    S(metal)    S(lipo)     H(rot)  DE(clash)    DE(int)     intcor
     13.78     -16.75       1.96        0.00      67.83       1.25       0.00       2.97       ----

> <Gold.Chemscore.Fitness>
13.7769

> <Gold.Chemscore.DG>
-16.7527

> <Gold.Chemscore.ZeroCoef>
-5.4800

> <Gold.Chemscore.Hbond>
1.9552

> <Gold.Chemscore.Metal>
0.0000

> <Gold.Chemscore.Lipo>
67.8293

> <Gold.Chemscore.Internal_Hbond>
0.0000

> <Gold.Chemscore.DEClash>
0.0015

> <Gold.Chemscore.DEInternal>
2.9743

> <Gold.Chemscore.Rot>
1.2476

> <Gold.Chemscore.Internal.Correction>
   9.000000E+99

> <Gold.Chemscore.Hbonds>
donor molecule, donor type, donor heavy atom, donor atom, acceptor molecule, acceptor atom, score
      P1  H  6931  6943       L1     9  0.16
      P1  H  6934  6947       L1     9  0.49
      P1  H  7989  7998       L1    14  0.55

> <Gold.Chemscore.Hbond.Weighted>
-6.5304

> <Gold.Chemscore.Metal.Weighted>
-0.0000

> <Gold.Chemscore.Lipo.Weighted>
-7.9360

> <Gold.Chemscore.Internal_Hbond.Weighted>
0.0000

> <Gold.Chemscore.DEClash.Weighted>
0.0015

> <Gold.Chemscore.DEInternal.Weighted>
2.9743

> <Gold.Chemscore.Rot.Weighted>
3.1938

> <Gold.Chemscore.Internal.Correction.Weighted>
   9.000000E+99

> <Gold.Protein.RotatedTorsions>
[ 6907 6896 6895 6894 ] final  112.77 input  -60.11 | X-H torsion
[ 7974 7965 7964 7962 ] final -164.65 input  175.53 | X-H torsion
[ 8008 7997 7996 7995 ] final -153.48 input   59.86 | X-H torsion
[ 10167 10162 10161 10158 ] final -137.61 input  -65.29 | X-H torsion
[ 10718 10713 10712 10709 ] final -153.68 input   66.30 | X-H torsion
[ 10763 10752 10751 10750 ] final -112.21 input  -60.55 | X-H torsion
[ 11005 11000 10999 10996 ] final   59.18 input  -57.11 | X-H torsion

> <Gold.Protein.ActiveResidues>
 VAL166  LYS551  ARG553  GLY616  TRP617  ASP618  TYR619  PRO620  LYS621  CYS622 
 ASP623  PHE694  ASN695  SER759  ASP760  ASP761  ALA762  ILE779  LEU786  VAL792 
 PHE793  MET794  SER795  GLU796  ALA797  LYS798  CYS799  TRP800  GLU811  SER814 

> <Gold.Protein.RotatedAtoms>
  152.4898  133.8469  159.7181 H   0  0  0  0  0  0  0  0  0  0  0  0  # atno 6907 bound_to 6896
  150.9017  133.7101  159.2884 H   0  0  0  0  0  0  0  0  0  0  0  0  # atno 6908 bound_to 6896
  151.4540  135.1036  159.9758 H   0  0  0  0  0  0  0  0  0  0  0  0  # atno 6909 bound_to 6896
  144.7291  140.2930  143.6217 H   0  0  0  0  0  0  0  0  0  0  0  0  # atno 7974 bound_to 7965
  155.6715  140.0734  157.2518 H   0  0  0  0  0  0  0  0  0  0  0  0  # atno 8008 bound_to 7997
  154.4122  140.1698  156.1935 H   0  0  0  0  0  0  0  0  0  0  0  0  # atno 8009 bound_to 7997
  155.9613  140.3369  155.6496 H   0  0  0  0  0  0  0  0  0  0  0  0  # atno 8010 bound_to 7997
  139.8560  143.7137  152.2654 H   0  0  0  0  0  0  0  0  0  0  0  0  # atno 10167 bound_to 10162
  156.4891  130.8339  151.2563 H   0  0  0  0  0  0  0  0  0  0  0  0  # atno 10718 bound_to 10713
  154.8338  135.4499  154.1158 H   0  0  0  0  0  0  0  0  0  0  0  0  # atno 10763 bound_to 10752
  153.2407  135.6916  153.7792 H   0  0  0  0  0  0  0  0  0  0  0  0  # atno 10764 bound_to 10752
  153.7140  135.3352  155.3228 H   0  0  0  0  0  0  0  0  0  0  0  0  # atno 10765 bound_to 10752
  140.0322  134.5995  155.9491 H   0  0  0  0  0  0  0  0  0  0  0  0  # atno 11005 bound_to 11000
  145.7836  139.1900  143.2143 LP  0  0  0  0  0  0  0  0  0  0  0  0  # atno 17320 bound_to 7965
  146.0814  140.7760  142.9640 LP  0  0  0  0  0  0  0  0  0  0  0  0  # atno 17321 bound_to 7965
  139.7419  144.7557  151.0639 LP  0  0  0  0  0  0  0  0  0  0  0  0  # atno 17342 bound_to 10162
  140.7781  143.4962  150.9829 LP  0  0  0  0  0  0  0  0  0  0  0  0  # atno 17343 bound_to 10162
  157.7475  131.0019  150.2982 LP  0  0  0  0  0  0  0  0  0  0  0  0  # atno 17370 bound_to 10713
  156.3444  130.3820  149.7381 LP  0  0  0  0  0  0  0  0  0  0  0  0  # atno 17371 bound_to 10713
  141.1837  133.6551  156.5129 LP  0  0  0  0  0  0  0  0  0  0  0  0  # atno 17394 bound_to 11000
  140.4206  134.7191  157.4887 LP  0  0  0  0  0  0  0  0  0  0  0  0  # atno 17395 bound_to 11000

$$$$
