AV-unprocessed.smi:249|AV-procd|sdf|1910|dock4
  -GOLD-   2262021 03D 1   1.00000     0.00000
 Structure written by MMmdl.
 64 67  0  0  0  0  0  0  0  0  2 V2000
  150.4563  144.8966  159.7739 C   0  0  0  0  0  0  0  0  0  0  0  0
  151.9052  144.5329  159.4105 C   0  0  0  0  0  0  0  0  0  0  0  0
  152.0201  143.3165  158.5540 N   0  3  2  0  0  0  0  0  0  0  0  0
  150.8797  143.1998  157.5998 C   0  0  0  0  0  0  0  0  0  0  0  0
  151.0511  142.0219  156.6310 C   0  0  0  0  0  0  0  0  0  0  0  0
  151.2038  140.7019  157.4038 C   0  0  1  0  0  0  0  0  0  0  0  0
  151.2876  139.5211  156.5331 N   0  0  0  0  0  0  0  0  0  0  0  0
  152.4801  139.3916  155.7027 C   0  0  0  0  0  0  0  0  0  0  0  0
  150.8421  138.3432  157.0333 C   0  0  0  0  0  0  0  0  0  0  0  0
  150.3431  138.2904  158.2965 N   0  0  0  0  0  0  0  0  0  0  0  0
  149.8954  137.1323  158.7912 C   0  0  0  0  0  0  0  0  0  0  0  0
  149.8594  135.9331  158.2063 N   0  0  0  0  0  0  0  0  0  0  0  0
  150.3718  135.9809  156.9432 C   0  0  0  0  0  0  0  0  0  0  0  0
  150.8783  137.1360  156.2847 C   0  0  0  0  0  0  0  0  0  0  0  0
  151.3075  136.8063  155.0056 N   0  0  0  0  0  0  0  0  0  0  0  0
  151.0615  135.5282  154.9090 C   0  0  0  0  0  0  0  0  0  0  0  0
  150.5193  134.9475  156.0342 N   0  0  0  0  0  0  0  0  0  0  0  0
  150.1461  133.5528  156.1939 C   0  0  0  0  0  0  0  0  0  0  0  0
  151.2768  132.5355  155.8865 C   0  0  1  0  0  0  0  0  0  0  0  0
  152.0939  132.2814  157.1745 C   0  0  0  0  0  0  0  0  0  0  0  0
  151.2540  132.0167  158.2801 O   0  0  0  0  0  0  0  0  0  0  0  0
  150.7989  131.2125  155.2185 C   0  0  1  0  0  0  0  0  0  0  0  0
  151.8437  130.1135  155.0904 C   0  0  0  0  0  0  0  0  0  0  0  0
  151.0023  128.8533  154.9085 C   0  0  0  0  0  0  0  0  0  0  0  0
  149.7553  129.1159  155.5392 O   0  0  0  0  0  0  0  0  0  0  0  0
  149.7316  130.4545  156.0165 C   0  0  0  0  0  0  0  0  0  0  0  0
  152.3864  140.8436  158.3782 C   0  0  0  0  0  0  0  0  0  0  0  0
  152.2172  142.0475  159.3291 C   0  0  1  0  0  0  0  0  0  0  0  0
  153.4318  142.0948  160.2799 C   0  0  0  0  0  0  0  0  0  0  0  0
  150.4204  145.8770  160.2500 H   0  0  0  0  0  0  0  0  0  0  0  0
  150.0134  144.1917  160.4767 H   0  0  0  0  0  0  0  0  0  0  0  0
  149.8237  144.9399  158.8867 H   0  0  0  0  0  0  0  0  0  0  0  0
  152.3033  145.4004  158.8895 H   0  0  0  0  0  0  0  0  0  0  0  0
  152.5044  144.4100  160.3138 H   0  0  0  0  0  0  0  0  0  0  0  0
  149.9482  143.0921  158.1579 H   0  0  0  0  0  0  0  0  0  0  0  0
  150.7842  144.1036  157.0008 H   0  0  0  0  0  0  0  0  0  0  0  0
  150.1885  141.9778  155.9659 H   0  0  0  0  0  0  0  0  0  0  0  0
  151.9225  142.1997  155.9999 H   0  0  0  0  0  0  0  0  0  0  0  0
  150.3045  140.5640  158.0060 H   0  0  0  0  0  0  0  0  0  0  0  0
  152.3459  138.6086  154.9552 H   0  0  0  0  0  0  0  0  0  0  0  0
  153.3587  139.1463  156.3000 H   0  0  0  0  0  0  0  0  0  0  0  0
  152.6786  140.3244  155.1745 H   0  0  0  0  0  0  0  0  0  0  0  0
  149.5107  137.1717  159.7998 H   0  0  0  0  0  0  0  0  0  0  0  0
  151.2841  134.9670  154.0128 H   0  0  0  0  0  0  0  0  0  0  0  0
  149.8068  133.4296  157.2231 H   0  0  0  0  0  0  0  0  0  0  0  0
  149.2803  133.3523  155.5617 H   0  0  0  0  0  0  0  0  0  0  0  0
  151.9685  133.0135  155.1922 H   0  0  0  0  0  0  0  0  0  0  0  0
  152.7813  131.4454  157.0466 H   0  0  0  0  0  0  0  0  0  0  0  0
  152.7138  133.1474  157.4084 H   0  0  0  0  0  0  0  0  0  0  0  0
  150.5827  131.4091  158.0095 H   0  0  0  0  0  0  0  0  0  0  0  0
  150.3982  131.4287  154.2269 H   0  0  0  0  0  0  0  0  0  0  0  0
  152.5273  130.2536  154.2551 H   0  0  0  0  0  0  0  0  0  0  0  0
  152.4329  130.0393  156.0056 H   0  0  0  0  0  0  0  0  0  0  0  0
  150.8203  128.6625  153.8504 H   0  0  0  0  0  0  0  0  0  0  0  0
  151.4843  127.9727  155.3333 H   0  0  0  0  0  0  0  0  0  0  0  0
  149.9799  130.4438  157.0789 H   0  0  0  0  0  0  0  0  0  0  0  0
  148.7363  130.8857  155.9061 H   0  0  0  0  0  0  0  0  0  0  0  0
  152.4775  139.9284  158.9644 H   0  0  0  0  0  0  0  0  0  0  0  0
  153.3218  140.9577  157.8284 H   0  0  0  0  0  0  0  0  0  0  0  0
  151.3235  141.8814  159.9330 H   0  0  0  0  0  0  0  0  0  0  0  0
  153.6371  141.1086  160.6980 H   0  0  0  0  0  0  0  0  0  0  0  0
  153.2670  142.7525  161.1328 H   0  0  0  0  0  0  0  0  0  0  0  0
  154.3330  142.4230  159.7611 H   0  0  0  0  0  0  0  0  0  0  0  0
  152.8532  143.4386  157.9960 H   0  0  0  0  0  0  0  0  0  0  0  0
  1  2  1  0  0  0  0
  1 30  1  0  0  0  0
  1 31  1  0  0  0  0
  1 32  1  0  0  0  0
  2  3  1  0  0  0  0
  2 33  1  0  0  0  0
  2 34  1  0  0  0  0
  3 28  1  0  0  0  0
  3  4  1  0  0  0  0
  3 64  1  0  0  0  0
  4  5  1  0  0  0  0
  4 35  1  0  0  0  0
  4 36  1  0  0  0  0
  5  6  1  0  0  0  0
  5 37  1  0  0  0  0
  5 38  1  0  0  0  0
  6  7  1  0  0  0  0
  6 27  1  0  0  0  0
  6 39  1  0  0  0  0
  7  8  1  0  0  0  0
  7  9  1  0  0  0  0
  8 40  1  0  0  0  0
  8 41  1  0  0  0  0
  8 42  1  0  0  0  0
  9 14  1  0  0  0  0
  9 10  2  0  0  0  0
 10 11  1  0  0  0  0
 11 12  2  0  0  0  0
 11 43  1  0  0  0  0
 12 13  1  0  0  0  0
 13 17  1  0  0  0  0
 13 14  2  0  0  0  0
 14 15  1  0  0  0  0
 15 16  2  0  0  0  0
 16 17  1  0  0  0  0
 16 44  1  0  0  0  0
 17 18  1  0  0  0  0
 18 19  1  0  0  0  0
 18 45  1  0  0  0  0
 18 46  1  0  0  0  0
 19 20  1  0  0  0  0
 19 22  1  0  0  0  0
 19 47  1  0  0  0  0
 20 21  1  0  0  0  0
 20 48  1  0  0  0  0
 20 49  1  0  0  0  0
 21 50  1  0  0  0  0
 22 26  1  0  0  0  0
 22 23  1  0  0  0  0
 22 51  1  0  0  0  0
 23 24  1  0  0  0  0
 23 52  1  0  0  0  0
 23 53  1  0  0  0  0
 24 25  1  0  0  0  0
 24 54  1  0  0  0  0
 24 55  1  0  0  0  0
 25 26  1  0  0  0  0
 26 56  1  0  0  0  0
 26 57  1  0  0  0  0
 27 28  1  0  0  0  0
 27 58  1  0  0  0  0
 27 59  1  0  0  0  0
 28 29  1  0  0  0  0
 28 60  1  0  0  0  0
 29 61  1  0  0  0  0
 29 62  1  0  0  0  0
 29 63  1  0  0  0  0
M  CHG  1   3   1
M  END
> <s_m_source_file>
AV-unprocessed.smi

> <i_m_source_file_index>
249

> <i_lp_mmshare_version>
43012

> <i_f3d_flags>
0

> <s_epik_input>
W0NIM11bQ0gyXU4xW0NIMl1bQ0gyXVtDQEhdKFtDSDJdW0NASF0xW0NIM10pTihbQ0gzXSljKG5bY0hdbjIpYyhjMjMpbltjSF1uM1tDSDJdW0NASF0oW0NIMl1bT0hdKVtDQEBIXTRbQ0gyXVtDSDJdT1tDSDJdNA==

> <s_epik_cmdline>
J2VwaWtfcHl0aG9uJywgJy1waCcsICc3LjAnLCAnLXRuJywgJzgnLCAnLW1hJywgJzIwMCcsICctbWV0YWxfYmluZGluZycsICctaW1hZScsICc8aW5maWxlLm1hZT4nLCAnLW9tYWUnLCAnPG91dGZpbGUubWFlPic=

> <r_lp_tautomer_probability>
1

> <r_epik_Ionization_Penalty>
0.00294688

> <r_epik_Ionization_Penalty_Charging>
0.00169971

> <r_epik_Ionization_Penalty_Neutral>
0.00124717

> <r_epik_State_Penalty>
-0

> <r_epik_Charging_Adjusted_Penalty>
0.00169971

> <i_epik_Tot_Q>
1

> <i_epik_Tot_abs_Q>
1

> <r_epik_Metal_State_Penalty>
-0

> <b_epik_Metal_Only>
0

> <s_lp_Force_Field>
OPLS_2005

> <r_lp_Energy>
54.6385

> <b_lp_Chiralities_Consistent>
1

> <s_lp_Variant>
AV-unprocessed.smi:249-13

> <Gold.Version>
5.8.1

> <Gold.Id.Protein>
6NUR|6NUR_protein|mol2

> <Gold.PLP.Fitness>
49.1896

> <Gold.PLP.PLP>
-46.6938

> <Gold.PLP.part.hbond>
-1.8815

> <Gold.PLP.part.metal>
0.0000

> <Gold.PLP.part.buried>
-6.4542

> <Gold.PLP.part.nonpolar>
-37.3571

> <Gold.PLP.part.repulsive>
0.1862

> <Gold.PLP.ligand.clash>
0.0000

> <Gold.PLP.ligand.torsion>
1.6695

> <Gold.PLP.Chemscore.Hbond>
1.0616

> <Gold.PLP.Chemscore.CHOScore>
0.5568

> <Gold.PLP.Chemscore.Metal>
0.0000

> <Gold.Chemscore.Hbonds>
donor molecule, donor type, donor heavy atom, donor atom, acceptor molecule, acceptor atom, score
      P1  H  6896  6908       L1    21  0.96
      P1  H  6896  6909       L1    12  0.16
      L1  C    16    44       P1  7949  0.53

> <Gold.PLP.Chemscore.Internal.Correction>
0.9796

> <Gold.Rescore>
     Score         DG    S(hbond)    S(metal)    S(lipo)     H(rot)  DE(clash)    DE(int)     intcor
     12.28     -15.36       0.94        0.00     121.02       2.90       0.29       2.79       ----

> <Gold.Chemscore.Fitness>
12.2836

> <Gold.Chemscore.DG>
-15.3571

> <Gold.Chemscore.ZeroCoef>
-5.4800

> <Gold.Chemscore.Hbond>
0.9412

> <Gold.Chemscore.Metal>
0.0000

> <Gold.Chemscore.Lipo>
121.0170

> <Gold.Chemscore.Internal_Hbond>
0.0000

> <Gold.Chemscore.DEClash>
0.2878

> <Gold.Chemscore.DEInternal>
2.7856

> <Gold.Chemscore.Rot>
2.9006

> <Gold.Chemscore.Internal.Correction>
   9.000000E+99

> <Gold.Chemscore.Hbonds>
donor molecule, donor type, donor heavy atom, donor atom, acceptor molecule, acceptor atom, score
      P1  H  6896  6908       L1    21  0.60
      P1  H  6896  6909       L1    12  0.01

> <Gold.Chemscore.Hbond.Weighted>
-3.1437

> <Gold.Chemscore.Metal.Weighted>
-0.0000

> <Gold.Chemscore.Lipo.Weighted>
-14.1590

> <Gold.Chemscore.Internal_Hbond.Weighted>
0.0000

> <Gold.Chemscore.DEClash.Weighted>
0.2878

> <Gold.Chemscore.DEInternal.Weighted>
2.7856

> <Gold.Chemscore.Rot.Weighted>
7.4256

> <Gold.Chemscore.Internal.Correction.Weighted>
   9.000000E+99

> <Gold.Protein.RotatedTorsions>
[ 6907 6896 6895 6894 ] final   93.85 input  -60.11 | X-H torsion
[ 7974 7965 7964 7962 ] final  -25.35 input  175.53 | X-H torsion
[ 8008 7997 7996 7995 ] final -124.02 input   59.86 | X-H torsion
[ 10167 10162 10161 10158 ] final  -60.31 input  -65.29 | X-H torsion
[ 10718 10713 10712 10709 ] final   83.61 input   66.30 | X-H torsion
[ 10763 10752 10751 10750 ] final -153.48 input  -60.55 | X-H torsion
[ 11005 11000 10999 10996 ] final  -19.04 input  -57.11 | X-H torsion

> <Gold.Protein.ActiveResidues>
 VAL166  LYS551  ARG553  GLY616  TRP617  ASP618  TYR619  PRO620  LYS621  CYS622 
 ASP623  PHE694  ASN695  SER759  ASP760  ASP761  ALA762  ILE779  LEU786  VAL792 
 PHE793  MET794  SER795  GLU796  ALA797  LYS798  CYS799  TRP800  GLU811  SER814 

> <Gold.Protein.RotatedAtoms>
  152.5451  134.1284  159.8428 H   0  0  0  0  0  0  0  0  0  0  0  0  # atno 6907 bound_to 6896
  151.1332  133.5015  159.2606 H   0  0  0  0  0  0  0  0  0  0  0  0  # atno 6908 bound_to 6896
  151.1652  135.0302  159.8782 H   0  0  0  0  0  0  0  0  0  0  0  0  # atno 6909 bound_to 6896
  146.1496  140.4875  142.8617 H   0  0  0  0  0  0  0  0  0  0  0  0  # atno 7974 bound_to 7965
  155.1900  140.0413  157.2898 H   0  0  0  0  0  0  0  0  0  0  0  0  # atno 8008 bound_to 7997
  154.6145  140.2485  155.7599 H   0  0  0  0  0  0  0  0  0  0  0  0  # atno 8009 bound_to 7997
  156.2398  140.2908  156.0423 H   0  0  0  0  0  0  0  0  0  0  0  0  # atno 8010 bound_to 7997
  140.6079  143.2378  151.5778 H   0  0  0  0  0  0  0  0  0  0  0  0  # atno 10167 bound_to 10162
  157.6882  131.0098  150.2549 H   0  0  0  0  0  0  0  0  0  0  0  0  # atno 10718 bound_to 10713
  154.7924  135.3212  154.7745 H   0  0  0  0  0  0  0  0  0  0  0  0  # atno 10763 bound_to 10752
  153.8431  135.6869  153.4805 H   0  0  0  0  0  0  0  0  0  0  0  0  # atno 10764 bound_to 10752
  153.1601  135.4664  154.9700 H   0  0  0  0  0  0  0  0  0  0  0  0  # atno 10765 bound_to 10752
  140.8328  133.7984  155.9776 H   0  0  0  0  0  0  0  0  0  0  0  0  # atno 11005 bound_to 11000
  144.7888  140.5991  143.6555 LP  0  0  0  0  0  0  0  0  0  0  0  0  # atno 17320 bound_to 7965
  145.4854  139.1492  143.3739 LP  0  0  0  0  0  0  0  0  0  0  0  0  # atno 17321 bound_to 7965
  139.5339  144.2837  152.1208 LP  0  0  0  0  0  0  0  0  0  0  0  0  # atno 17342 bound_to 10162
  140.2030  144.4638  150.6422 LP  0  0  0  0  0  0  0  0  0  0  0  0  # atno 17343 bound_to 10162
  156.3139  130.3776  149.7636 LP  0  0  0  0  0  0  0  0  0  0  0  0  # atno 17370 bound_to 10713
  156.5228  130.8222  151.3209 LP  0  0  0  0  0  0  0  0  0  0  0  0  # atno 17371 bound_to 10713
  140.8980  134.2414  157.5058 LP  0  0  0  0  0  0  0  0  0  0  0  0  # atno 17394 bound_to 11000
  139.8704  134.9693  156.4661 LP  0  0  0  0  0  0  0  0  0  0  0  0  # atno 17395 bound_to 11000

$$$$
