AV-unprocessed.smi:1381|AV-procd|sdf|5608|dock10
  -GOLD-   22720 5213D 1   1.00000     0.00000
 Structure written by MMmdl.
 43 44  0  0  0  0  0  0  0  0  2 V2000
  153.3366  137.8294  157.0501 C   0  0  0  0  0  0  0  0  0  0  0  0
  152.3617  138.3339  156.0422 C   0  0  0  0  0  0  0  0  0  0  0  0
  151.3321  137.7417  155.3668 C   0  0  0  0  0  0  0  0  0  0  0  0
  150.8244  138.8043  154.5636 C   0  0  0  0  0  0  0  0  0  0  0  0
  149.7354  138.7279  153.6571 N   0  0  0  0  0  0  0  0  0  0  0  0
  148.4531  138.4208  153.9151 C   0  0  0  0  0  0  0  0  0  0  0  0
  147.9930  138.1443  155.0228 O   0  0  0  0  0  0  0  0  0  0  0  0
  147.7102  138.4557  152.7990 N   0  0  0  0  0  0  0  0  0  0  0  0
  146.2820  138.1668  152.7365 C   0  0  0  0  0  0  0  0  0  0  0  0
  146.0146  136.7354  152.2326 C   0  0  0  0  0  0  0  0  0  0  0  0
  144.7548  136.6388  151.4481 N   0  3  1  0  0  0  0  0  0  0  0  0
  144.6615  135.4091  150.6236 C   0  0  0  0  0  0  0  0  0  0  0  0
  144.2939  134.1834  151.4850 C   0  0  2  0  0  0  0  0  0  0  0  0
  144.1085  132.9195  150.6383 C   0  0  0  0  0  0  0  0  0  0  0  0
  143.0689  134.4466  152.1615 O   0  0  0  0  0  0  0  0  0  0  0  0
  143.1523  135.5593  153.0458 C   0  0  2  0  0  0  0  0  0  0  0  0
  141.8060  135.6983  153.7652 C   0  0  0  0  0  0  0  0  0  0  0  0
  143.5105  136.8257  152.2380 C   0  0  0  0  0  0  0  0  0  0  0  0
  151.4864  139.9334  154.7359 N   0  0  0  0  0  0  0  0  0  0  0  0
  152.4745  139.6410  155.6833 O   0  0  0  0  0  0  0  0  0  0  0  0
  153.0260  136.8604  157.4412 H   0  0  0  0  0  0  0  0  0  0  0  0
  153.4202  138.5207  157.8888 H   0  0  0  0  0  0  0  0  0  0  0  0
  154.3253  137.7143  156.6057 H   0  0  0  0  0  0  0  0  0  0  0  0
  151.0108  136.7144  155.4468 H   0  0  0  0  0  0  0  0  0  0  0  0
  149.9627  138.9371  152.6963 H   0  0  0  0  0  0  0  0  0  0  0  0
  148.1672  138.6910  151.9299 H   0  0  0  0  0  0  0  0  0  0  0  0
  145.8819  138.3067  153.7398 H   0  0  0  0  0  0  0  0  0  0  0  0
  145.7817  138.8969  152.0980 H   0  0  0  0  0  0  0  0  0  0  0  0
  146.8465  136.4385  151.5928 H   0  0  0  0  0  0  0  0  0  0  0  0
  146.0079  136.0320  153.0651 H   0  0  0  0  0  0  0  0  0  0  0  0
  143.8922  135.5654  149.8660 H   0  0  0  0  0  0  0  0  0  0  0  0
  145.5924  135.2408  150.0804 H   0  0  0  0  0  0  0  0  0  0  0  0
  145.0778  133.9919  152.2195 H   0  0  0  0  0  0  0  0  0  0  0  0
  145.0246  132.6673  150.1036 H   0  0  0  0  0  0  0  0  0  0  0  0
  143.3153  133.0495  149.9015 H   0  0  0  0  0  0  0  0  0  0  0  0
  143.8446  132.0669  151.2643 H   0  0  0  0  0  0  0  0  0  0  0  0
  143.9175  135.3615  153.7975 H   0  0  0  0  0  0  0  0  0  0  0  0
  141.8183  136.5357  154.4633 H   0  0  0  0  0  0  0  0  0  0  0  0
  141.5727  134.7972  154.3330 H   0  0  0  0  0  0  0  0  0  0  0  0
  140.9937  135.8647  153.0568 H   0  0  0  0  0  0  0  0  0  0  0  0
  143.5870  137.6923  152.8935 H   0  0  0  0  0  0  0  0  0  0  0  0
  142.7018  137.0473  151.5399 H   0  0  0  0  0  0  0  0  0  0  0  0
  144.7978  137.4049  150.7909 H   0  0  0  0  0  0  0  0  0  0  0  0
  1  2  1  0  0  0  0
  1 21  1  0  0  0  0
  1 22  1  0  0  0  0
  1 23  1  0  0  0  0
  2 20  1  0  0  0  0
  2  3  2  0  0  0  0
  3  4  1  0  0  0  0
  3 24  1  0  0  0  0
  4  5  1  0  0  0  0
  4 19  2  0  0  0  0
  5  6  1  0  0  0  0
  5 25  1  0  0  0  0
  6  7  2  0  0  0  0
  6  8  1  0  0  0  0
  8  9  1  0  0  0  0
  8 26  1  0  0  0  0
  9 10  1  0  0  0  0
  9 27  1  0  0  0  0
  9 28  1  0  0  0  0
 10 11  1  0  0  0  0
 10 29  1  0  0  0  0
 10 30  1  0  0  0  0
 11 18  1  0  0  0  0
 11 12  1  0  0  0  0
 11 43  1  0  0  0  0
 12 13  1  0  0  0  0
 12 31  1  0  0  0  0
 12 32  1  0  0  0  0
 13 14  1  0  0  0  0
 13 15  1  0  0  0  0
 13 33  1  0  0  0  0
 14 34  1  0  0  0  0
 14 35  1  0  0  0  0
 14 36  1  0  0  0  0
 15 16  1  0  0  0  0
 16 17  1  0  0  0  0
 16 18  1  0  0  0  0
 16 37  1  0  0  0  0
 17 38  1  0  0  0  0
 17 39  1  0  0  0  0
 17 40  1  0  0  0  0
 18 41  1  0  0  0  0
 18 42  1  0  0  0  0
 19 20  1  0  0  0  0
M  CHG  1  11   1
M  END
> <s_m_source_file>
AV-unprocessed.smi

> <i_m_source_file_index>
1381

> <i_lp_mmshare_version>
43012

> <i_f3d_flags>
0

> <s_epik_input>
W0NIM11jMVtjSF1jKG5vMSlbTkhdQyg9TylbTkhdW0NIMl1bQ0gyXU4yW0NIMl1bQ0BASF0oW0NIM10pT1tDQEBIXShbQ0gzXSlbQ0gyXTI=

> <s_epik_cmdline>
J2VwaWtfcHl0aG9uJywgJy1waCcsICc3LjAnLCAnLXRuJywgJzgnLCAnLW1hJywgJzIwMCcsICctbWV0YWxfYmluZGluZycsICctaW1hZScsICc8aW5maWxlLm1hZT4nLCAnLW9tYWUnLCAnPG91dGZpbGUubWFlPic=

> <r_epik_Ionization_Penalty>
0.707076

> <r_epik_Ionization_Penalty_Charging>
0.707039

> <r_epik_Ionization_Penalty_Neutral>
3.6548e-05

> <r_epik_State_Penalty>
0.730276

> <r_epik_Charging_Adjusted_Penalty>
1.43732

> <i_epik_Tot_Q>
1

> <i_epik_Tot_abs_Q>
1

> <r_epik_Metal_State_Penalty>
0.743132

> <b_epik_Metal_Only>
0

> <s_lp_Force_Field>
OPLS_2005

> <r_lp_Energy>
17.699

> <b_lp_Chiralities_Consistent>
1

> <s_lp_Variant>
AV-unprocessed.smi:1381-7

> <Gold.Version>
5.8.1

> <Gold.Id.Protein>
6NUR|6NUR_protein|mol2

> <Gold.PLP.Fitness>
45.9220

> <Gold.PLP.PLP>
-33.4413

> <Gold.PLP.part.hbond>
-6.5513

> <Gold.PLP.part.metal>
0.0000

> <Gold.PLP.part.buried>
-2.6742

> <Gold.PLP.part.nonpolar>
-24.8224

> <Gold.PLP.part.repulsive>
0.5389

> <Gold.PLP.ligand.clash>
0.0000

> <Gold.PLP.ligand.torsion>
1.0139

> <Gold.PLP.Chemscore.Hbond>
4.8299

> <Gold.PLP.Chemscore.CHOScore>
0.0000

> <Gold.PLP.Chemscore.Metal>
0.0000

> <Gold.Chemscore.Hbonds>
donor molecule, donor type, donor heavy atom, donor atom, acceptor molecule, acceptor atom, score
      L1  H     5    25       P1  7957  0.96
      L1  H     8    26       P1  7957  0.72
      L1  H    11    43       P1 10171  0.93
      P1  H  7989  7998       L1    19  1.00
      P1  H  7997  8008       L1    20  1.00

> <Gold.PLP.Chemscore.Internal.Correction>
0.0186

> <Gold.Rescore>
     Score         DG    S(hbond)    S(metal)    S(lipo)     H(rot)  DE(clash)    DE(int)     intcor
     21.09     -22.38       4.31        0.00      56.57       1.61       0.45       0.83       ----

> <Gold.Chemscore.Fitness>
21.0937

> <Gold.Chemscore.DG>
-22.3780

> <Gold.Chemscore.ZeroCoef>
-5.4800

> <Gold.Chemscore.Hbond>
4.3101

> <Gold.Chemscore.Metal>
0.0000

> <Gold.Chemscore.Lipo>
56.5728

> <Gold.Chemscore.Internal_Hbond>
0.0000

> <Gold.Chemscore.DEClash>
0.4538

> <Gold.Chemscore.DEInternal>
0.8305

> <Gold.Chemscore.Rot>
1.6081

> <Gold.Chemscore.Internal.Correction>
   9.000000E+99

> <Gold.Chemscore.Hbonds>
donor molecule, donor type, donor heavy atom, donor atom, acceptor molecule, acceptor atom, score
      L1  H     5    25       P1  7957  0.64
      L1  H     8    26       P1  7957  0.60
      L1  H    11    43       P1 10171  0.91
      P1  H  7989  7998       L1    19  0.91
      P1  H  7997  8008       L1    20  0.43

> <Gold.Chemscore.Hbond.Weighted>
-14.3956

> <Gold.Chemscore.Metal.Weighted>
-0.0000

> <Gold.Chemscore.Lipo.Weighted>
-6.6190

> <Gold.Chemscore.Internal_Hbond.Weighted>
0.0000

> <Gold.Chemscore.DEClash.Weighted>
0.4538

> <Gold.Chemscore.DEInternal.Weighted>
0.8305

> <Gold.Chemscore.Rot.Weighted>
4.1167

> <Gold.Chemscore.Internal.Correction.Weighted>
   9.000000E+99

> <Gold.Protein.RotatedTorsions>
[ 6907 6896 6895 6894 ] final  -83.23 input  -60.11 | X-H torsion
[ 7974 7965 7964 7962 ] final  -93.40 input  175.53 | X-H torsion
[ 8008 7997 7996 7995 ] final  -39.21 input   59.86 | X-H torsion
[ 10167 10162 10161 10158 ] final  174.58 input  -65.29 | X-H torsion
[ 10718 10713 10712 10709 ] final -149.92 input   66.30 | X-H torsion
[ 10763 10752 10751 10750 ] final  159.60 input  -60.55 | X-H torsion
[ 11005 11000 10999 10996 ] final    4.73 input  -57.11 | X-H torsion

> <Gold.Protein.ActiveResidues>
 VAL166  LYS551  ARG553  GLY616  TRP617  ASP618  TYR619  PRO620  LYS621  CYS622 
 ASP623  PHE694  ASN695  SER759  ASP760  ASP761  ALA762  ILE779  LEU786  VAL792 
 PHE793  MET794  SER795  GLU796  ALA797  LYS798  CYS799  TRP800  GLU811  SER814 

> <Gold.Protein.RotatedAtoms>
  150.6888  134.3543  159.4922 H   0  0  0  0  0  0  0  0  0  0  0  0  # atno 6907 bound_to 6896
  152.1380  134.9081  160.0564 H   0  0  0  0  0  0  0  0  0  0  0  0  # atno 6908 bound_to 6896
  152.0226  133.3870  159.4301 H   0  0  0  0  0  0  0  0  0  0  0  0  # atno 6909 bound_to 6896
  145.3870  140.9524  143.2362 H   0  0  0  0  0  0  0  0  0  0  0  0  # atno 7974 bound_to 7965
  154.4026  140.1557  156.2827 H   0  0  0  0  0  0  0  0  0  0  0  0  # atno 8008 bound_to 7997
  155.8855  140.3441  155.5896 H   0  0  0  0  0  0  0  0  0  0  0  0  # atno 8009 bound_to 7997
  155.7618  140.0818  157.2142 H   0  0  0  0  0  0  0  0  0  0  0  0  # atno 8010 bound_to 7997
  139.5147  144.3130  152.0274 H   0  0  0  0  0  0  0  0  0  0  0  0  # atno 10167 bound_to 10162
  156.4394  130.8114  151.2343 H   0  0  0  0  0  0  0  0  0  0  0  0  # atno 10718 bound_to 10713
  154.2343  135.2777  155.2878 H   0  0  0  0  0  0  0  0  0  0  0  0  # atno 10763 bound_to 10752
  154.5598  135.5650  153.7000 H   0  0  0  0  0  0  0  0  0  0  0  0  # atno 10764 bound_to 10752
  153.0013  135.6295  154.2485 H   0  0  0  0  0  0  0  0  0  0  0  0  # atno 10765 bound_to 10752
  140.5787  134.0034  155.8038 H   0  0  0  0  0  0  0  0  0  0  0  0  # atno 11005 bound_to 11000
  144.8467  139.5386  143.6875 LP  0  0  0  0  0  0  0  0  0  0  0  0  # atno 17320 bound_to 7965
  146.2815  139.6891  142.9225 LP  0  0  0  0  0  0  0  0  0  0  0  0  # atno 17321 bound_to 7965
  140.2574  144.4104  150.6198 LP  0  0  0  0  0  0  0  0  0  0  0  0  # atno 17342 bound_to 10162
  140.6181  143.2174  151.6749 LP  0  0  0  0  0  0  0  0  0  0  0  0  # atno 17343 bound_to 10162
  157.7506  131.0173  150.3580 LP  0  0  0  0  0  0  0  0  0  0  0  0  # atno 17370 bound_to 10713
  156.3934  130.3902  149.7013 LP  0  0  0  0  0  0  0  0  0  0  0  0  # atno 17371 bound_to 10713
  141.1010  133.9768  157.3079 LP  0  0  0  0  0  0  0  0  0  0  0  0  # atno 17394 bound_to 11000
  139.9327  135.0199  156.8455 LP  0  0  0  0  0  0  0  0  0  0  0  0  # atno 17395 bound_to 11000

$$$$
