AV-unprocessed.smi:34|AV-procd|sdf|242|dock7
  -GOLD-   2262015593D 1   1.00000     0.00000
 Structure written by MMmdl.
 54 58  0  0  0  0  0  0  0  0  2 V2000
  144.0481  144.8757  159.1594 O   0  0  0  0  0  0  0  0  0  0  0  0
  143.8625  144.8724  157.9406 C   0  0  0  0  0  0  0  0  0  0  0  0
  143.6774  143.8003  157.1292 N   0  5  0  0  0  0  0  0  0  0  0  0
  144.7070  142.9826  156.8616 C   0  0  0  0  0  0  0  0  0  0  0  0
  145.1832  142.1423  157.8158 N   0  0  0  0  0  0  0  0  0  0  0  0
  146.2052  141.3212  157.5456 C   0  0  0  0  0  0  0  0  0  0  0  0
  146.8932  141.1814  156.4079 N   0  0  0  0  0  0  0  0  0  0  0  0
  146.4317  142.0320  155.4459 C   0  0  0  0  0  0  0  0  0  0  0  0
  145.3561  142.9539  155.5968 C   0  0  0  0  0  0  0  0  0  0  0  0
  145.1457  143.6587  154.4212 N   0  0  0  0  0  0  0  0  0  0  0  0
  146.0781  143.1389  153.6254 C   0  0  0  0  0  0  0  0  0  0  0  0
  146.8833  142.1888  154.1472 N   0  0  0  0  0  0  0  0  0  0  0  0
  147.9888  141.4136  153.4967 C   0  0  1  0  0  0  0  0  0  0  0  0
  149.1908  141.7403  154.1288 O   0  0  0  0  0  0  0  0  0  0  0  0
  149.4400  140.7965  155.1614 C   0  0  2  0  0  0  0  0  0  0  0  0
  150.9150  140.8426  155.5743 C   0  0  0  0  0  0  0  0  0  0  0  0
  151.0528  141.6146  156.7557 O   0  0  0  0  0  0  0  0  0  0  0  0
  151.9010  141.2181  157.7244 C   0  0  0  0  0  0  0  0  0  0  0  0
  152.5343  140.1613  157.6852 O   0  0  0  0  0  0  0  0  0  0  0  0
  151.9963  142.1933  158.8486 C   0  0  0  0  0  0  0  0  0  0  0  0
  152.5723  141.7837  160.0741 C   0  0  0  0  0  0  0  0  0  0  0  0
  152.6788  142.6828  161.1529 C   0  0  0  0  0  0  0  0  0  0  0  0
  152.2088  144.0022  161.0204 C   0  0  0  0  0  0  0  0  0  0  0  0
  151.6315  144.4213  159.8074 C   0  0  0  0  0  0  0  0  0  0  0  0
  151.5249  143.5238  158.7268 C   0  0  0  0  0  0  0  0  0  0  0  0
  149.0053  139.4906  154.5020 C   0  0  1  0  0  0  0  0  0  0  0  0
  148.7168  138.5503  155.4026 F   0  0  0  0  0  0  0  0  0  0  0  0
  147.7734  139.9006  153.7049 C   0  0  2  0  0  0  0  0  0  0  0  0
  147.7170  139.1921  152.4839 O   0  0  0  0  0  0  0  0  0  0  0  0
  143.8975  146.1819  157.1997 C   0  0  0  0  0  0  0  0  0  0  0  0
  143.0460  146.3803  156.0888 C   0  0  0  0  0  0  0  0  0  0  0  0
  143.0834  147.5875  155.3643 C   0  0  0  0  0  0  0  0  0  0  0  0
  143.9802  148.6059  155.7372 C   0  0  0  0  0  0  0  0  0  0  0  0
  144.8422  148.4149  156.8333 C   0  0  0  0  0  0  0  0  0  0  0  0
  144.8050  147.2082  157.5591 C   0  0  0  0  0  0  0  0  0  0  0  0
  146.5160  140.6827  158.3590 H   0  0  0  0  0  0  0  0  0  0  0  0
  146.1750  143.4712  152.6024 H   0  0  0  0  0  0  0  0  0  0  0  0
  147.9766  141.7434  152.4567 H   0  0  0  0  0  0  0  0  0  0  0  0
  148.7993  141.0230  156.0154 H   0  0  0  0  0  0  0  0  0  0  0  0
  151.2959  139.8330  155.7345 H   0  0  0  0  0  0  0  0  0  0  0  0
  151.5081  141.2949  154.7784 H   0  0  0  0  0  0  0  0  0  0  0  0
  152.9405  140.7754  160.1997 H   0  0  0  0  0  0  0  0  0  0  0  0
  153.1223  142.3589  162.0830 H   0  0  0  0  0  0  0  0  0  0  0  0
  152.2906  144.6917  161.8476 H   0  0  0  0  0  0  0  0  0  0  0  0
  151.2698  145.4338  159.7049 H   0  0  0  0  0  0  0  0  0  0  0  0
  151.0755  143.8778  157.8104 H   0  0  0  0  0  0  0  0  0  0  0  0
  149.7949  139.1096  153.8524 H   0  0  0  0  0  0  0  0  0  0  0  0
  146.8629  139.7233  154.2798 H   0  0  0  0  0  0  0  0  0  0  0  0
  148.3127  139.5980  151.8731 H   0  0  0  0  0  0  0  0  0  0  0  0
  142.3534  145.6072  155.7885 H   0  0  0  0  0  0  0  0  0  0  0  0
  142.4246  147.7301  154.5207 H   0  0  0  0  0  0  0  0  0  0  0  0
  144.0100  149.5309  155.1806 H   0  0  0  0  0  0  0  0  0  0  0  0
  145.5362  149.1925  157.1163 H   0  0  0  0  0  0  0  0  0  0  0  0
  145.4831  147.0770  158.3901 H   0  0  0  0  0  0  0  0  0  0  0  0
  1  2  2  0  0  0  0
  2  3  1  0  0  0  0
  2 30  1  0  0  0  0
  3  4  1  0  0  0  0
  4  9  1  0  0  0  0
  4  5  2  0  0  0  0
  5  6  1  0  0  0  0
  6  7  2  0  0  0  0
  6 36  1  0  0  0  0
  7  8  1  0  0  0  0
  8 12  1  0  0  0  0
  8  9  2  0  0  0  0
  9 10  1  0  0  0  0
 10 11  2  0  0  0  0
 11 12  1  0  0  0  0
 11 37  1  0  0  0  0
 12 13  1  0  0  0  0
 13 28  1  0  0  0  0
 13 14  1  0  0  0  0
 13 38  1  0  0  0  0
 14 15  1  0  0  0  0
 15 16  1  0  0  0  0
 15 26  1  0  0  0  0
 15 39  1  0  0  0  0
 16 17  1  0  0  0  0
 16 40  1  0  0  0  0
 16 41  1  0  0  0  0
 17 18  1  0  0  0  0
 18 19  2  0  0  0  0
 18 20  1  0  0  0  0
 20 25  1  0  0  0  0
 20 21  2  0  0  0  0
 21 22  1  0  0  0  0
 21 42  1  0  0  0  0
 22 23  2  0  0  0  0
 22 43  1  0  0  0  0
 23 24  1  0  0  0  0
 23 44  1  0  0  0  0
 24 25  2  0  0  0  0
 24 45  1  0  0  0  0
 25 46  1  0  0  0  0
 26 27  1  0  0  0  0
 26 28  1  0  0  0  0
 26 47  1  0  0  0  0
 28 29  1  0  0  0  0
 28 48  1  0  0  0  0
 29 49  1  0  0  0  0
 30 35  1  0  0  0  0
 30 31  2  0  0  0  0
 31 32  1  0  0  0  0
 31 50  1  0  0  0  0
 32 33  2  0  0  0  0
 32 51  1  0  0  0  0
 33 34  1  0  0  0  0
 33 52  1  0  0  0  0
 34 35  2  0  0  0  0
 34 53  1  0  0  0  0
 35 54  1  0  0  0  0
M  CHG  1   3  -1
M  END
> <s_m_source_file>
AV-unprocessed.smi

> <i_m_source_file_index>
34

> <i_lp_mmshare_version>
43012

> <i_f3d_flags>
0

> <s_epik_input>
W2NIXTFbY0hdW2NIXVtjSF1bY0hdYzFDKD1PKVtOSF1jKG5bY0hdbjIpYyhjMjMpbltjSF1uM1tDQEBIXTRPW0NASF0oW0NAQEhdKEYpW0NASF00W09IXSlbQ0gyXU9DKD1PKWM1W2NIXVtjSF1bY0hdW2NIXVtjSF01

> <s_epik_cmdline>
J2VwaWtfcHl0aG9uJywgJy1waCcsICc3LjAnLCAnLXRuJywgJzgnLCAnLW1hJywgJzIwMCcsICctbWV0YWxfYmluZGluZycsICctaW1hZScsICc8aW5maWxlLm1hZT4nLCAnLW9tYWUnLCAnPG91dGZpbGUubWFlPic=

> <r_lp_tautomer_probability>
1

> <r_epik_Ionization_Penalty>
4.33227

> <r_epik_Ionization_Penalty_Charging>
3.41027

> <r_epik_Ionization_Penalty_Neutral>
0.922001

> <r_epik_State_Penalty>
3.41358

> <r_epik_Charging_Adjusted_Penalty>
6.82385

> <i_epik_Tot_Q>
-1

> <i_epik_Tot_abs_Q>
1

> <r_epik_Metal_State_Penalty>
0.496292

> <b_epik_Metal_Only>
1

> <s_epik_Chemistry_Notes>
This compound has an ester and may undergo hydrolysis at high or low pH. This compound contains an acetal/aminal-like group ( X-CH(R)-Y where X, Y are N, S, or O) that may be acid/base labile, releasing an aldehyde.

> <s_lp_Force_Field>
OPLS_2005

> <r_lp_Energy>
39.213

> <b_lp_Chiralities_Consistent>
1

> <s_lp_Variant>
AV-unprocessed.smi:34-28

> <Gold.Version>
5.8.1

> <Gold.Id.Protein>
6NUR|6NUR_protein|mol2

> <Gold.PLP.Fitness>
63.1247

> <Gold.PLP.PLP>
-61.8092

> <Gold.PLP.part.hbond>
-4.7251

> <Gold.PLP.part.metal>
0.0000

> <Gold.PLP.part.buried>
0.2877

> <Gold.PLP.part.nonpolar>
-56.3931

> <Gold.PLP.part.repulsive>
0.5761

> <Gold.PLP.ligand.clash>
0.0000

> <Gold.PLP.ligand.torsion>
2.9135

> <Gold.PLP.Chemscore.Hbond>
2.1832

> <Gold.PLP.Chemscore.CHOScore>
0.0000

> <Gold.PLP.Chemscore.Metal>
0.0000

> <Gold.Chemscore.Hbonds>
donor molecule, donor type, donor heavy atom, donor atom, acceptor molecule, acceptor atom, score
      L1  H    29    49       P1  7957  0.98
      P1  H  7997  8009       L1    19  0.79
      P1  H  8011  8017       L1    14  0.16

> <Gold.PLP.Chemscore.Internal.Correction>
0.5928

> <Gold.Rescore>
     Score         DG    S(hbond)    S(metal)    S(lipo)     H(rot)  DE(clash)    DE(int)     intcor
     14.51     -20.48       1.86        0.00     134.01       2.69       1.63       4.34       ----

> <Gold.Chemscore.Fitness>
14.5080

> <Gold.Chemscore.DG>
-20.4808

> <Gold.Chemscore.ZeroCoef>
-5.4800

> <Gold.Chemscore.Hbond>
1.8621

> <Gold.Chemscore.Metal>
0.0000

> <Gold.Chemscore.Lipo>
134.0064

> <Gold.Chemscore.Internal_Hbond>
0.0000

> <Gold.Chemscore.DEClash>
1.6290

> <Gold.Chemscore.DEInternal>
4.3438

> <Gold.Chemscore.Rot>
2.6944

> <Gold.Chemscore.Internal.Correction>
   9.000000E+99

> <Gold.Chemscore.Hbonds>
donor molecule, donor type, donor heavy atom, donor atom, acceptor molecule, acceptor atom, score
      L1  H    29    49       P1  7957  0.91
      P1  H  7997  8009       L1    19  0.73

> <Gold.Chemscore.Hbond.Weighted>
-6.2196

> <Gold.Chemscore.Metal.Weighted>
-0.0000

> <Gold.Chemscore.Lipo.Weighted>
-15.6787

> <Gold.Chemscore.Internal_Hbond.Weighted>
0.0000

> <Gold.Chemscore.DEClash.Weighted>
1.6290

> <Gold.Chemscore.DEInternal.Weighted>
4.3438

> <Gold.Chemscore.Rot.Weighted>
6.8975

> <Gold.Chemscore.Internal.Correction.Weighted>
   9.000000E+99

> <Gold.Protein.RotatedTorsions>
[ 6907 6896 6895 6894 ] final   82.13 input  -60.11 | X-H torsion
[ 7974 7965 7964 7962 ] final -141.74 input  175.53 | X-H torsion
[ 8008 7997 7996 7995 ] final  163.26 input   59.86 | X-H torsion
[ 10167 10162 10161 10158 ] final -158.91 input  -65.29 | X-H torsion
[ 10718 10713 10712 10709 ] final -155.21 input   66.30 | X-H torsion
[ 10763 10752 10751 10750 ] final  -19.60 input  -60.55 | X-H torsion
[ 11005 11000 10999 10996 ] final   25.39 input  -57.11 | X-H torsion

> <Gold.Protein.ActiveResidues>
 VAL166  LYS551  ARG553  GLY616  TRP617  ASP618  TYR619  PRO620  LYS621  CYS622 
 ASP623  PHE694  ASN695  SER759  ASP760  ASP761  ALA762  ILE779  LEU786  VAL792 
 PHE793  MET794  SER795  GLU796  ALA797  LYS798  CYS799  TRP800  GLU811  SER814 

> <Gold.Protein.RotatedAtoms>
  152.5290  134.3098  159.9108 H   0  0  0  0  0  0  0  0  0  0  0  0  # atno 6907 bound_to 6896
  151.3047  133.4100  159.2650 H   0  0  0  0  0  0  0  0  0  0  0  0  # atno 6908 bound_to 6896
  151.0089  134.9397  159.8053 H   0  0  0  0  0  0  0  0  0  0  0  0  # atno 6909 bound_to 6896
  144.8496  140.6043  143.5398 H   0  0  0  0  0  0  0  0  0  0  0  0  # atno 7974 bound_to 7965
  156.1970  140.1728  156.7977 H   0  0  0  0  0  0  0  0  0  0  0  0  # atno 8008 bound_to 7997
  154.5542  140.0711  156.8748 H   0  0  0  0  0  0  0  0  0  0  0  0  # atno 8009 bound_to 7997
  155.2970  140.3359  155.4252 H   0  0  0  0  0  0  0  0  0  0  0  0  # atno 8010 bound_to 7997
  139.6656  143.9836  152.2252 H   0  0  0  0  0  0  0  0  0  0  0  0  # atno 10167 bound_to 10162
  156.5098  130.8430  151.2642 H   0  0  0  0  0  0  0  0  0  0  0  0  # atno 10718 bound_to 10713
  153.6073  135.6997  153.5360 H   0  0  0  0  0  0  0  0  0  0  0  0  # atno 10763 bound_to 10752
  153.3046  135.4119  155.1282 H   0  0  0  0  0  0  0  0  0  0  0  0  # atno 10764 bound_to 10752
  154.8570  135.3657  154.5611 H   0  0  0  0  0  0  0  0  0  0  0  0  # atno 10765 bound_to 10752
  140.3484  134.2256  155.7682 H   0  0  0  0  0  0  0  0  0  0  0  0  # atno 11005 bound_to 11000
  145.4526  139.1522  143.3910 LP  0  0  0  0  0  0  0  0  0  0  0  0  # atno 17320 bound_to 7965
  146.2774  140.4653  142.8790 LP  0  0  0  0  0  0  0  0  0  0  0  0  # atno 17321 bound_to 7965
  139.9586  144.6573  150.8101 LP  0  0  0  0  0  0  0  0  0  0  0  0  # atno 17342 bound_to 10162
  140.7598  143.3136  151.2785 LP  0  0  0  0  0  0  0  0  0  0  0  0  # atno 17343 bound_to 10162
  157.7452  130.9953  150.2740 LP  0  0  0  0  0  0  0  0  0  0  0  0  # atno 17370 bound_to 10713
  156.3251  130.3792  149.7540 LP  0  0  0  0  0  0  0  0  0  0  0  0  # atno 17371 bound_to 10713
  141.2019  133.7951  157.0417 LP  0  0  0  0  0  0  0  0  0  0  0  0  # atno 17394 bound_to 11000
  140.0723  134.9695  157.1488 LP  0  0  0  0  0  0  0  0  0  0  0  0  # atno 17395 bound_to 11000

$$$$
