AV-unprocessed.smi:1802|AV-procd|sdf|7272|dock4
  -GOLD-   22720 8533D 1   1.00000     0.00000
 Structure written by MMmdl.
 41 42  0  0  0  0  0  0  0  0  2 V2000
  151.1592  143.0213  156.9381 C   0  0  0  0  0  0  0  0  0  0  0  0
  150.6639  141.5689  157.0524 C   0  0  1  0  0  0  0  0  0  0  0  0
  149.6723  141.3642  158.2131 C   0  0  0  0  0  0  0  0  0  0  0  0
  148.2960  141.9599  157.8828 C   0  0  0  0  0  0  0  0  0  0  0  0
  147.7692  141.4252  156.5416 C   0  0  0  0  0  0  0  0  0  0  0  0
  148.7400  141.6804  155.4465 N   0  3  2  0  0  0  0  0  0  0  0  0
  148.1980  141.3209  154.1120 C   0  0  0  0  0  0  0  0  0  0  0  0
  148.1138  139.7983  153.9131 C   0  0  0  0  0  0  0  0  0  0  0  0
  146.8148  139.3720  153.2088 C   0  0  0  0  0  0  0  0  0  0  0  0
  146.8916  137.9993  152.7214 N   0  0  0  0  0  0  0  0  0  0  0  0
  145.8370  137.1884  152.5505 C   0  0  0  0  0  0  0  0  0  0  0  0
  144.6771  137.5305  152.7838 O   0  0  0  0  0  0  0  0  0  0  0  0
  146.2159  135.9811  152.0951 N   0  0  0  0  0  0  0  0  0  0  0  0
  145.3981  134.8611  151.7882 C   0  0  0  0  0  0  0  0  0  0  0  0
  144.0564  134.8884  151.8207 N   0  0  0  0  0  0  0  0  0  0  0  0
  143.5032  133.6618  151.4767 N   0  0  0  0  0  0  0  0  0  0  0  0
  144.4479  132.7590  151.1985 C   0  0  0  0  0  0  0  0  0  0  0  0
  146.1062  133.3180  151.3324 S   0  0  0  0  0  0  0  0  0  0  0  0
  150.0607  141.0555  155.7289 C   0  0  0  0  0  0  0  0  0  0  0  0
  150.3498  143.7111  156.6989 H   0  0  0  0  0  0  0  0  0  0  0  0
  151.9123  143.1157  156.1553 H   0  0  0  0  0  0  0  0  0  0  0  0
  151.6142  143.3552  157.8709 H   0  0  0  0  0  0  0  0  0  0  0  0
  151.5439  140.9613  157.2678 H   0  0  0  0  0  0  0  0  0  0  0  0
  149.5598  140.2962  158.4044 H   0  0  0  0  0  0  0  0  0  0  0  0
  150.0633  141.7990  159.1336 H   0  0  0  0  0  0  0  0  0  0  0  0
  147.5898  141.7236  158.6796 H   0  0  0  0  0  0  0  0  0  0  0  0
  148.3600  143.0480  157.8458 H   0  0  0  0  0  0  0  0  0  0  0  0
  147.5692  140.3547  156.6120 H   0  0  0  0  0  0  0  0  0  0  0  0
  146.8195  141.9119  156.3157 H   0  0  0  0  0  0  0  0  0  0  0  0
  147.2244  141.7905  153.9629 H   0  0  0  0  0  0  0  0  0  0  0  0
  148.8542  141.7220  153.3383 H   0  0  0  0  0  0  0  0  0  0  0  0
  148.9729  139.4709  153.3261 H   0  0  0  0  0  0  0  0  0  0  0  0
  148.1814  139.2836  154.8713 H   0  0  0  0  0  0  0  0  0  0  0  0
  145.9762  139.4403  153.9024 H   0  0  0  0  0  0  0  0  0  0  0  0
  146.5878  140.0462  152.3811 H   0  0  0  0  0  0  0  0  0  0  0  0
  147.8110  137.6400  152.5083 H   0  0  0  0  0  0  0  0  0  0  0  0
  147.2051  135.8472  151.9461 H   0  0  0  0  0  0  0  0  0  0  0  0
  144.1660  131.7565  150.9130 H   0  0  0  0  0  0  0  0  0  0  0  0
  150.7593  141.2495  154.9153 H   0  0  0  0  0  0  0  0  0  0  0  0
  149.9372  139.9723  155.7767 H   0  0  0  0  0  0  0  0  0  0  0  0
  148.8849  142.6801  155.4321 H   0  0  0  0  0  0  0  0  0  0  0  0
  1  2  1  0  0  0  0
  1 20  1  0  0  0  0
  1 21  1  0  0  0  0
  1 22  1  0  0  0  0
  2 19  1  0  0  0  0
  2  3  1  0  0  0  0
  2 23  1  0  0  0  0
  3  4  1  0  0  0  0
  3 24  1  0  0  0  0
  3 25  1  0  0  0  0
  4  5  1  0  0  0  0
  4 26  1  0  0  0  0
  4 27  1  0  0  0  0
  5  6  1  0  0  0  0
  5 28  1  0  0  0  0
  5 29  1  0  0  0  0
  6  7  1  0  0  0  0
  6 19  1  0  0  0  0
  6 41  1  0  0  0  0
  7  8  1  0  0  0  0
  7 30  1  0  0  0  0
  7 31  1  0  0  0  0
  8  9  1  0  0  0  0
  8 32  1  0  0  0  0
  8 33  1  0  0  0  0
  9 10  1  0  0  0  0
  9 34  1  0  0  0  0
  9 35  1  0  0  0  0
 10 11  1  0  0  0  0
 10 36  1  0  0  0  0
 11 12  2  0  0  0  0
 11 13  1  0  0  0  0
 13 14  1  0  0  0  0
 13 37  1  0  0  0  0
 14 18  1  0  0  0  0
 14 15  2  0  0  0  0
 15 16  1  0  0  0  0
 16 17  2  0  0  0  0
 17 18  1  0  0  0  0
 17 38  1  0  0  0  0
 19 39  1  0  0  0  0
 19 40  1  0  0  0  0
M  CHG  1   6   1
M  END
> <s_m_source_file>
AV-unprocessed.smi

> <i_m_source_file_index>
1802

> <i_lp_mmshare_version>
43012

> <i_f3d_flags>
0

> <s_epik_input>
W0NIM11bQ0BASF0xW0NIMl1bQ0gyXVtDSDJdTihbQ0gyXTEpW0NIMl1bQ0gyXVtDSDJdW05IXUMoPU8pW05IXWMybm5bY0hdczI=

> <s_epik_cmdline>
J2VwaWtfcHl0aG9uJywgJy1waCcsICc3LjAnLCAnLXRuJywgJzgnLCAnLW1hJywgJzIwMCcsICctbWV0YWxfYmluZGluZycsICctaW1hZScsICc8aW5maWxlLm1hZT4nLCAnLW9tYWUnLCAnPG91dGZpbGUubWFlPic=

> <r_lp_tautomer_probability>
1

> <r_epik_Ionization_Penalty>
0.00272894

> <r_epik_Ionization_Penalty_Charging>
0.000288442

> <r_epik_Ionization_Penalty_Neutral>
0.0024405

> <r_epik_State_Penalty>
-0

> <r_epik_Charging_Adjusted_Penalty>
0.000288442

> <i_epik_Tot_Q>
1

> <i_epik_Tot_abs_Q>
1

> <r_epik_Metal_State_Penalty>
0.350525

> <b_epik_Metal_Only>
0

> <s_lp_Force_Field>
OPLS_2005

> <r_lp_Energy>
17.5372

> <b_lp_Chiralities_Consistent>
1

> <s_lp_Variant>
AV-unprocessed.smi:1802-2

> <Gold.Version>
5.8.1

> <Gold.Id.Protein>
6NUR|6NUR_protein|mol2

> <Gold.PLP.Fitness>
40.0747

> <Gold.PLP.PLP>
-29.6558

> <Gold.PLP.part.hbond>
-3.0000

> <Gold.PLP.part.metal>
0.0000

> <Gold.PLP.part.buried>
-3.6745

> <Gold.PLP.part.nonpolar>
-24.9711

> <Gold.PLP.part.repulsive>
0.8469

> <Gold.PLP.ligand.clash>
0.0000

> <Gold.PLP.ligand.torsion>
0.5813

> <Gold.PLP.Chemscore.Hbond>
3.8480

> <Gold.PLP.Chemscore.CHOScore>
0.0000

> <Gold.PLP.Chemscore.Metal>
0.0000

> <Gold.Chemscore.Hbonds>
donor molecule, donor type, donor heavy atom, donor atom, acceptor molecule, acceptor atom, score
      L1  H     6    41       P1  8028  1.92
      L1  H    10    36       P1  7948  1.00
      L1  H    13    37       P1  7948  1.00

> <Gold.PLP.Chemscore.Internal.Correction>
0.0375

> <Gold.Rescore>
     Score         DG    S(hbond)    S(metal)    S(lipo)     H(rot)  DE(clash)    DE(int)     intcor
     15.55     -17.92       2.91        0.00      66.68       1.98       0.49       1.88       ----

> <Gold.Chemscore.Fitness>
15.5503

> <Gold.Chemscore.DG>
-17.9222

> <Gold.Chemscore.ZeroCoef>
-5.4800

> <Gold.Chemscore.Hbond>
2.9063

> <Gold.Chemscore.Metal>
0.0000

> <Gold.Chemscore.Lipo>
66.6843

> <Gold.Chemscore.Internal_Hbond>
0.0000

> <Gold.Chemscore.DEClash>
0.4886

> <Gold.Chemscore.DEInternal>
1.8833

> <Gold.Chemscore.Rot>
1.9793

> <Gold.Chemscore.Internal.Correction>
   9.000000E+99

> <Gold.Chemscore.Hbonds>
donor molecule, donor type, donor heavy atom, donor atom, acceptor molecule, acceptor atom, score
      L1  H     6    41       P1  8028  0.91
      L1  H    10    36       P1  7948  0.95
      L1  H    13    37       P1  7948  1.00

> <Gold.Chemscore.Hbond.Weighted>
-9.7071

> <Gold.Chemscore.Metal.Weighted>
-0.0000

> <Gold.Chemscore.Lipo.Weighted>
-7.8021

> <Gold.Chemscore.Internal_Hbond.Weighted>
0.0000

> <Gold.Chemscore.DEClash.Weighted>
0.4886

> <Gold.Chemscore.DEInternal.Weighted>
1.8833

> <Gold.Chemscore.Rot.Weighted>
5.0670

> <Gold.Chemscore.Internal.Correction.Weighted>
   9.000000E+99

> <Gold.Protein.RotatedTorsions>
[ 6907 6896 6895 6894 ] final  -86.06 input  -60.11 | X-H torsion
[ 7974 7965 7964 7962 ] final  100.94 input  175.53 | X-H torsion
[ 8008 7997 7996 7995 ] final -109.43 input   59.86 | X-H torsion
[ 10167 10162 10161 10158 ] final  -73.48 input  -65.29 | X-H torsion
[ 10718 10713 10712 10709 ] final -105.80 input   66.30 | X-H torsion
[ 10763 10752 10751 10750 ] final  -45.42 input  -60.55 | X-H torsion
[ 11005 11000 10999 10996 ] final  121.44 input  -57.11 | X-H torsion

> <Gold.Protein.ActiveResidues>
 VAL166  LYS551  ARG553  GLY616  TRP617  ASP618  TYR619  PRO620  LYS621  CYS622 
 ASP623  PHE694  ASN695  SER759  ASP760  ASP761  ALA762  ILE779  LEU786  VAL792 
 PHE793  MET794  SER795  GLU796  ALA797  LYS798  CYS799  TRP800  GLU811  SER814 

> <Gold.Protein.RotatedAtoms>
  150.6868  134.3109  159.4745 H   0  0  0  0  0  0  0  0  0  0  0  0  # atno 6907 bound_to 6896
  152.0995  134.9349  160.0579 H   0  0  0  0  0  0  0  0  0  0  0  0  # atno 6908 bound_to 6896
  152.0634  133.4038  159.4464 H   0  0  0  0  0  0  0  0  0  0  0  0  # atno 6909 bound_to 6896
  145.3789  139.2383  143.3414 H   0  0  0  0  0  0  0  0  0  0  0  0  # atno 7974 bound_to 7965
  154.9592  140.0399  157.2182 H   0  0  0  0  0  0  0  0  0  0  0  0  # atno 8008 bound_to 7997
  154.7905  140.2834  155.5973 H   0  0  0  0  0  0  0  0  0  0  0  0  # atno 8009 bound_to 7997
  156.2949  140.2574  156.2751 H   0  0  0  0  0  0  0  0  0  0  0  0  # atno 8010 bound_to 7997
  140.5106  143.2345  151.7599 H   0  0  0  0  0  0  0  0  0  0  0  0  # atno 10167 bound_to 10162
  156.0362  130.5582  150.7591 H   0  0  0  0  0  0  0  0  0  0  0  0  # atno 10718 bound_to 10713
  154.0283  135.6660  153.4778 H   0  0  0  0  0  0  0  0  0  0  0  0  # atno 10763 bound_to 10752
  153.0551  135.5061  154.7957 H   0  0  0  0  0  0  0  0  0  0  0  0  # atno 10764 bound_to 10752
  154.6894  135.3058  154.9466 H   0  0  0  0  0  0  0  0  0  0  0  0  # atno 10765 bound_to 10752
  139.9226  134.9639  156.7959 H   0  0  0  0  0  0  0  0  0  0  0  0  # atno 11005 bound_to 11000
  146.2851  140.4452  142.8761 LP  0  0  0  0  0  0  0  0  0  0  0  0  # atno 17320 bound_to 7965
  144.8522  140.7018  143.6161 LP  0  0  0  0  0  0  0  0  0  0  0  0  # atno 17321 bound_to 7965
  139.4895  144.4395  151.9780 LP  0  0  0  0  0  0  0  0  0  0  0  0  # atno 17342 bound_to 10162
  140.3487  144.3115  150.5953 LP  0  0  0  0  0  0  0  0  0  0  0  0  # atno 17343 bound_to 10162
  157.5115  131.0926  151.0192 LP  0  0  0  0  0  0  0  0  0  0  0  0  # atno 17370 bound_to 10713
  157.0546  130.5801  149.5376 LP  0  0  0  0  0  0  0  0  0  0  0  0  # atno 17371 bound_to 10713
  140.6429  133.9802  155.7716 LP  0  0  0  0  0  0  0  0  0  0  0  0  # atno 17394 bound_to 11000
  141.0759  134.0135  157.3458 LP  0  0  0  0  0  0  0  0  0  0  0  0  # atno 17395 bound_to 11000

$$$$
