AV-unprocessed.smi:1554|AV-procd|sdf|6247|dock6
  -GOLD-   22720 6433D 1   1.00000     0.00000
 Structure written by MMmdl.
 48 50  0  0  0  0  0  0  0  0  2 V2000
  151.6947  144.8524  160.7687 C   0  0  0  0  0  0  0  0  0  0  0  0
  152.2275  143.4313  160.7142 C   0  0  0  0  0  0  0  0  0  0  0  0
  152.2355  142.7474  159.4777 C   0  0  0  0  0  0  0  0  0  0  0  0
  152.7261  141.4266  159.3836 C   0  0  0  0  0  0  0  0  0  0  0  0
  152.8287  140.5816  158.2918 N   0  0  0  0  0  0  0  0  0  0  0  0
  153.3633  139.4958  158.8422 C   0  0  0  0  0  0  0  0  0  0  0  0
  153.6217  139.5374  160.1633 N   0  0  0  0  0  0  0  0  0  0  0  0
  154.2043  138.4805  160.9707 C   0  0  0  0  0  0  0  0  0  0  0  0
  153.2372  137.2992  161.1799 C   0  0  1  0  0  0  0  0  0  0  0  0
  152.9051  136.7349  159.9253 O   0  0  0  0  0  0  0  0  0  0  0  0
  153.8535  136.2027  162.0704 C   0  0  0  0  0  0  0  0  0  0  0  0
  153.5224  136.3908  163.5089 N   0  3  2  0  0  0  0  0  0  0  0  0
  154.2558  137.4974  164.1760 C   0  0  0  0  0  0  0  0  0  0  0  0
  155.6949  137.0838  164.5417 C   0  0  0  0  0  0  0  0  0  0  0  0
  155.6738  135.8961  165.3240 O   0  0  0  0  0  0  0  0  0  0  0  0
  155.0843  134.7987  164.6352 C   0  0  1  0  0  0  0  0  0  0  0  0
  155.1987  133.5580  165.5278 C   0  0  0  0  0  0  0  0  0  0  0  0
  153.6170  135.1465  164.3108 C   0  0  0  0  0  0  0  0  0  0  0  0
  153.2123  140.8032  160.5701 C   0  0  0  0  0  0  0  0  0  0  0  0
  153.2087  141.4733  161.8064 C   0  0  0  0  0  0  0  0  0  0  0  0
  152.7150  142.7925  161.8825 C   0  0  0  0  0  0  0  0  0  0  0  0
  152.7152  143.5072  163.2222 C   0  0  0  0  0  0  0  0  0  0  0  0
  151.3222  145.1761  159.7962 H   0  0  0  0  0  0  0  0  0  0  0  0
  152.4822  145.5425  161.0722 H   0  0  0  0  0  0  0  0  0  0  0  0
  150.8738  144.9278  161.4822 H   0  0  0  0  0  0  0  0  0  0  0  0
  151.8647  143.2341  158.5877 H   0  0  0  0  0  0  0  0  0  0  0  0
  153.5833  138.6190  158.2506 H   0  0  0  0  0  0  0  0  0  0  0  0
  155.1271  138.1445  160.4963 H   0  0  0  0  0  0  0  0  0  0  0  0
  154.4885  138.9079  161.9332 H   0  0  0  0  0  0  0  0  0  0  0  0
  152.3207  137.6794  161.6304 H   0  0  0  0  0  0  0  0  0  0  0  0
  153.3152  137.2456  159.2437 H   0  0  0  0  0  0  0  0  0  0  0  0
  153.4845  135.2343  161.7288 H   0  0  0  0  0  0  0  0  0  0  0  0
  154.9351  136.1723  161.9395 H   0  0  0  0  0  0  0  0  0  0  0  0
  154.2611  138.3970  163.5617 H   0  0  0  0  0  0  0  0  0  0  0  0
  153.7176  137.7563  165.0887 H   0  0  0  0  0  0  0  0  0  0  0  0
  156.3076  136.9359  163.6518 H   0  0  0  0  0  0  0  0  0  0  0  0
  156.1722  137.8741  165.1212 H   0  0  0  0  0  0  0  0  0  0  0  0
  155.6382  134.6107  163.7138 H   0  0  0  0  0  0  0  0  0  0  0  0
  154.7662  132.6834  165.0410 H   0  0  0  0  0  0  0  0  0  0  0  0
  154.6808  133.7037  166.4762 H   0  0  0  0  0  0  0  0  0  0  0  0
  156.2419  133.3319  165.7494 H   0  0  0  0  0  0  0  0  0  0  0  0
  153.0649  135.2986  165.2394 H   0  0  0  0  0  0  0  0  0  0  0  0
  153.1240  134.3212  163.7957 H   0  0  0  0  0  0  0  0  0  0  0  0
  153.5841  140.9772  162.6889 H   0  0  0  0  0  0  0  0  0  0  0  0
  153.1369  142.8796  164.0077 H   0  0  0  0  0  0  0  0  0  0  0  0
  151.6982  143.7701  163.5142 H   0  0  0  0  0  0  0  0  0  0  0  0
  153.3084  144.4203  163.1687 H   0  0  0  0  0  0  0  0  0  0  0  0
  152.5450  136.6476  163.5153 H   0  0  0  0  0  0  0  0  0  0  0  0
  1  2  1  0  0  0  0
  1 23  1  0  0  0  0
  1 24  1  0  0  0  0
  1 25  1  0  0  0  0
  2 21  1  0  0  0  0
  2  3  2  0  0  0  0
  3  4  1  0  0  0  0
  3 26  1  0  0  0  0
  4 19  2  0  0  0  0
  4  5  1  0  0  0  0
  5  6  2  0  0  0  0
  6  7  1  0  0  0  0
  6 27  1  0  0  0  0
  7  8  1  0  0  0  0
  7 19  1  0  0  0  0
  8  9  1  0  0  0  0
  8 28  1  0  0  0  0
  8 29  1  0  0  0  0
  9 10  1  0  0  0  0
  9 11  1  0  0  0  0
  9 30  1  0  0  0  0
 10 31  1  0  0  0  0
 11 12  1  0  0  0  0
 11 32  1  0  0  0  0
 11 33  1  0  0  0  0
 12 18  1  0  0  0  0
 12 13  1  0  0  0  0
 12 48  1  0  0  0  0
 13 14  1  0  0  0  0
 13 34  1  0  0  0  0
 13 35  1  0  0  0  0
 14 15  1  0  0  0  0
 14 36  1  0  0  0  0
 14 37  1  0  0  0  0
 15 16  1  0  0  0  0
 16 17  1  0  0  0  0
 16 18  1  0  0  0  0
 16 38  1  0  0  0  0
 17 39  1  0  0  0  0
 17 40  1  0  0  0  0
 17 41  1  0  0  0  0
 18 42  1  0  0  0  0
 18 43  1  0  0  0  0
 19 20  1  0  0  0  0
 20 21  2  0  0  0  0
 20 44  1  0  0  0  0
 21 22  1  0  0  0  0
 22 45  1  0  0  0  0
 22 46  1  0  0  0  0
 22 47  1  0  0  0  0
M  CHG  1  12   1
M  END
> <s_m_source_file>
AV-unprocessed.smi

> <i_m_source_file_index>
1554

> <i_lp_mmshare_version>
43012

> <i_f3d_flags>
0

> <s_epik_input>
W0NIM11jKFtjSF0xKWMoW0NIM10pW2NIXWMoYzEyKW4oW2NIXW4yKVtDSDJdW0NASF0oW09IXSlbQ0gyXU4zW0NIMl1bQ0gyXU9bQ0BASF0oW0NIM10pW0NIMl0z

> <s_epik_cmdline>
J2VwaWtfcHl0aG9uJywgJy1waCcsICc3LjAnLCAnLXRuJywgJzgnLCAnLW1hJywgJzIwMCcsICctbWV0YWxfYmluZGluZycsICctaW1hZScsICc8aW5maWxlLm1hZT4nLCAnLW9tYWUnLCAnPG91dGZpbGUubWFlPic=

> <r_epik_Ionization_Penalty>
0.695251

> <r_epik_Ionization_Penalty_Charging>
0.608065

> <r_epik_Ionization_Penalty_Neutral>
0.0871863

> <r_epik_State_Penalty>
0.731955

> <r_epik_Charging_Adjusted_Penalty>
1.34002

> <i_epik_Tot_Q>
1

> <i_epik_Tot_abs_Q>
1

> <r_epik_Metal_State_Penalty>
0.652186

> <b_epik_Metal_Only>
0

> <s_lp_Force_Field>
OPLS_2005

> <r_lp_Energy>
22.6642

> <b_lp_Chiralities_Consistent>
1

> <s_lp_Variant>
AV-unprocessed.smi:1554-8

> <Gold.Version>
5.8.1

> <Gold.Id.Protein>
6NUR|6NUR_protein|mol2

> <Gold.PLP.Fitness>
47.1878

> <Gold.PLP.PLP>
-45.5585

> <Gold.PLP.part.hbond>
-1.8141

> <Gold.PLP.part.metal>
0.0000

> <Gold.PLP.part.buried>
-3.5137

> <Gold.PLP.part.nonpolar>
-39.8003

> <Gold.PLP.part.repulsive>
0.1130

> <Gold.PLP.ligand.clash>
0.0000

> <Gold.PLP.ligand.torsion>
0.7031

> <Gold.PLP.Chemscore.Hbond>
1.0000

> <Gold.PLP.Chemscore.CHOScore>
0.0000

> <Gold.PLP.Chemscore.Metal>
0.0000

> <Gold.Chemscore.Hbonds>
donor molecule, donor type, donor heavy atom, donor atom, acceptor molecule, acceptor atom, score
      P1  H  6896  6907       L1    10  1.00

> <Gold.PLP.Chemscore.Internal.Correction>
0.0354

> <Gold.Rescore>
     Score         DG    S(hbond)    S(metal)    S(lipo)     H(rot)  DE(clash)    DE(int)     intcor
     18.17     -19.86       0.99        0.00     139.69       2.05       0.25       1.44       ----

> <Gold.Chemscore.Fitness>
18.1712

> <Gold.Chemscore.DG>
-19.8610

> <Gold.Chemscore.ZeroCoef>
-5.4800

> <Gold.Chemscore.Hbond>
0.9871

> <Gold.Chemscore.Metal>
0.0000

> <Gold.Chemscore.Lipo>
139.6893

> <Gold.Chemscore.Internal_Hbond>
0.0000

> <Gold.Chemscore.DEClash>
0.2452

> <Gold.Chemscore.DEInternal>
1.4445

> <Gold.Chemscore.Rot>
2.0546

> <Gold.Chemscore.Internal.Correction>
   9.000000E+99

> <Gold.Chemscore.Hbonds>
donor molecule, donor type, donor heavy atom, donor atom, acceptor molecule, acceptor atom, score
      P1  H  6896  6907       L1    10  0.88

> <Gold.Chemscore.Hbond.Weighted>
-3.2970

> <Gold.Chemscore.Metal.Weighted>
-0.0000

> <Gold.Chemscore.Lipo.Weighted>
-16.3436

> <Gold.Chemscore.Internal_Hbond.Weighted>
0.0000

> <Gold.Chemscore.DEClash.Weighted>
0.2452

> <Gold.Chemscore.DEInternal.Weighted>
1.4445

> <Gold.Chemscore.Rot.Weighted>
5.2597

> <Gold.Chemscore.Internal.Correction.Weighted>
   9.000000E+99

> <Gold.Protein.RotatedTorsions>
[ 6907 6896 6895 6894 ] final   25.72 input  -60.11 | X-H torsion
[ 7974 7965 7964 7962 ] final  136.93 input  175.53 | X-H torsion
[ 8008 7997 7996 7995 ] final  154.92 input   59.86 | X-H torsion
[ 10167 10162 10161 10158 ] final  149.55 input  -65.29 | X-H torsion
[ 10718 10713 10712 10709 ] final   13.98 input   66.30 | X-H torsion
[ 10763 10752 10751 10750 ] final   82.00 input  -60.55 | X-H torsion
[ 11005 11000 10999 10996 ] final -161.75 input  -57.11 | X-H torsion

> <Gold.Protein.ActiveResidues>
 VAL166  LYS551  ARG553  GLY616  TRP617  ASP618  TYR619  PRO620  LYS621  CYS622 
 ASP623  PHE694  ASN695  SER759  ASP760  ASP761  ALA762  ILE779  LEU786  VAL792 
 PHE793  MET794  SER795  GLU796  ALA797  LYS798  CYS799  TRP800  GLU811  SER814 

> <Gold.Protein.RotatedAtoms>
  151.9768  135.0049  160.0555 H   0  0  0  0  0  0  0  0  0  0  0  0  # atno 6907 bound_to 6896
  152.1733  133.4653  159.4928 H   0  0  0  0  0  0  0  0  0  0  0  0  # atno 6908 bound_to 6896
  150.6905  134.1843  159.4303 H   0  0  0  0  0  0  0  0  0  0  0  0  # atno 6909 bound_to 6896
  144.9517  139.4811  143.5522 H   0  0  0  0  0  0  0  0  0  0  0  0  # atno 7974 bound_to 7965
  156.2506  140.1953  156.6721 H   0  0  0  0  0  0  0  0  0  0  0  0  # atno 8008 bound_to 7997
  154.6385  140.0586  156.9843 H   0  0  0  0  0  0  0  0  0  0  0  0  # atno 8009 bound_to 7997
  155.1599  140.3259  155.4416 H   0  0  0  0  0  0  0  0  0  0  0  0  # atno 8010 bound_to 7997
  139.4860  144.5592  151.7261 H   0  0  0  0  0  0  0  0  0  0  0  0  # atno 10167 bound_to 10162
  157.0326  130.6199  149.5738 H   0  0  0  0  0  0  0  0  0  0  0  0  # atno 10718 bound_to 10713
  153.1164  135.4745  154.9123 H   0  0  0  0  0  0  0  0  0  0  0  0  # atno 10763 bound_to 10752
  154.7533  135.3111  154.8520 H   0  0  0  0  0  0  0  0  0  0  0  0  # atno 10764 bound_to 10752
  153.9095  135.6866  153.4805 H   0  0  0  0  0  0  0  0  0  0  0  0  # atno 10765 bound_to 10752
  140.6169  134.4791  157.5220 H   0  0  0  0  0  0  0  0  0  0  0  0  # atno 11005 bound_to 11000
  146.3323  139.8607  142.8857 LP  0  0  0  0  0  0  0  0  0  0  0  0  # atno 17320 bound_to 7965
  145.2834  141.0145  143.3704 LP  0  0  0  0  0  0  0  0  0  0  0  0  # atno 17321 bound_to 7965
  140.5159  144.0953  150.6008 LP  0  0  0  0  0  0  0  0  0  0  0  0  # atno 17342 bound_to 10162
  140.3895  143.2760  152.0077 LP  0  0  0  0  0  0  0  0  0  0  0  0  # atno 17343 bound_to 10162
  156.0064  130.5152  150.7845 LP  0  0  0  0  0  0  0  0  0  0  0  0  # atno 17370 bound_to 10713
  157.5166  131.0929  151.0131 LP  0  0  0  0  0  0  0  0  0  0  0  0  # atno 17371 bound_to 10713
  139.9169  134.8228  156.1337 LP  0  0  0  0  0  0  0  0  0  0  0  0  # atno 17394 bound_to 11000
  141.0769  133.6771  156.2255 LP  0  0  0  0  0  0  0  0  0  0  0  0  # atno 17395 bound_to 11000

$$$$
