AV-unprocessed.smi:2896|AV-procd|sdf|11138|dock7
  -GOLD-   2272016 13D 1   1.00000     0.00000
 Structure written by MMmdl.
 49 50  0  0  0  0  0  0  0  0  1 V2000
  151.4361  139.3330  155.5782 C   0  0  0  0  0  0  0  0  0  0  0  0
  152.0569  139.4357  156.9830 C   0  0  2  0  0  0  0  0  0  0  0  0
  152.1161  138.0647  157.6943 C   0  0  0  0  0  0  0  0  0  0  0  0
  150.8109  137.4127  157.7523 N   0  0  0  0  0  0  0  0  0  0  0  0
  150.1987  136.9691  158.8640 C   0  0  0  0  0  0  0  0  0  0  0  0
  150.7105  137.0682  159.9804 O   0  0  0  0  0  0  0  0  0  0  0  0
  148.8096  136.2968  158.7136 C   0  0  0  0  0  0  0  0  0  0  0  0
  147.8297  137.3515  158.1410 C   0  0  0  0  0  0  0  0  0  0  0  0
  148.8321  135.1149  157.7105 C   0  0  0  0  0  0  0  0  0  0  0  0
  148.3916  135.7815  160.1044 C   0  0  0  0  0  0  0  0  0  0  0  0
  148.2053  134.3956  160.3288 C   0  0  0  0  0  0  0  0  0  0  0  0
  147.8237  133.9414  161.6049 C   0  0  0  0  0  0  0  0  0  0  0  0
  147.6380  134.8926  162.6248 C   0  0  0  0  0  0  0  0  0  0  0  0
  147.8086  136.2169  162.4370 N   0  0  0  0  0  0  0  0  0  0  0  0
  148.1761  136.6433  161.2095 C   0  0  0  0  0  0  0  0  0  0  0  0
  151.2725  140.4688  157.8224 C   0  0  0  0  0  0  0  0  0  0  0  0
  152.0666  141.5368  158.4330 N   0  0  0  0  0  0  0  0  0  0  0  0
  151.2766  142.7269  158.7431 C   0  0  0  0  0  0  0  0  0  0  0  0
  152.1272  143.8228  159.4088 C   0  0  0  0  0  0  0  0  0  0  0  0
  152.7474  143.3045  160.5808 O   0  0  0  0  0  0  0  0  0  0  0  0
  153.5650  142.1706  160.3120 C   0  0  0  0  0  0  0  0  0  0  0  0
  152.7165  141.0697  159.6531 C   0  0  0  0  0  0  0  0  0  0  0  0
  150.4277  138.9200  155.6208 H   0  0  0  0  0  0  0  0  0  0  0  0
  152.0290  138.6975  154.9206 H   0  0  0  0  0  0  0  0  0  0  0  0
  151.3740  140.3126  155.1033 H   0  0  0  0  0  0  0  0  0  0  0  0
  153.0765  139.7941  156.8438 H   0  0  0  0  0  0  0  0  0  0  0  0
  152.7783  137.3918  157.1491 H   0  0  0  0  0  0  0  0  0  0  0  0
  152.5515  138.1709  158.6892 H   0  0  0  0  0  0  0  0  0  0  0  0
  150.3290  137.2900  156.8735 H   0  0  0  0  0  0  0  0  0  0  0  0
  147.7402  138.2308  158.7804 H   0  0  0  0  0  0  0  0  0  0  0  0
  146.8294  136.9368  158.0104 H   0  0  0  0  0  0  0  0  0  0  0  0
  148.1573  137.7035  157.1617 H   0  0  0  0  0  0  0  0  0  0  0  0
  149.5148  134.3188  158.0089 H   0  0  0  0  0  0  0  0  0  0  0  0
  149.1288  135.4421  156.7129 H   0  0  0  0  0  0  0  0  0  0  0  0
  147.8428  134.6650  157.6200 H   0  0  0  0  0  0  0  0  0  0  0  0
  148.3562  133.6801  159.5341 H   0  0  0  0  0  0  0  0  0  0  0  0
  147.6786  132.8887  161.7976 H   0  0  0  0  0  0  0  0  0  0  0  0
  147.3457  134.5815  163.6167 H   0  0  0  0  0  0  0  0  0  0  0  0
  148.2936  137.7127  161.1312 H   0  0  0  0  0  0  0  0  0  0  0  0
  150.4915  140.9156  157.2052 H   0  0  0  0  0  0  0  0  0  0  0  0
  150.7488  139.9245  158.6097 H   0  0  0  0  0  0  0  0  0  0  0  0
  150.8354  143.1382  157.8363 H   0  0  0  0  0  0  0  0  0  0  0  0
  150.4492  142.4611  159.4026 H   0  0  0  0  0  0  0  0  0  0  0  0
  152.8885  144.1918  158.7197 H   0  0  0  0  0  0  0  0  0  0  0  0
  151.5031  144.6736  159.6820 H   0  0  0  0  0  0  0  0  0  0  0  0
  154.3963  142.4570  159.6659 H   0  0  0  0  0  0  0  0  0  0  0  0
  153.9941  141.8105  161.2469 H   0  0  0  0  0  0  0  0  0  0  0  0
  151.9643  140.7229  160.3634 H   0  0  0  0  0  0  0  0  0  0  0  0
  153.3526  140.2126  159.4293 H   0  0  0  0  0  0  0  0  0  0  0  0
  1  2  1  0  0  0  0
  1 23  1  0  0  0  0
  1 24  1  0  0  0  0
  1 25  1  0  0  0  0
  2  3  1  0  0  0  0
  2 16  1  0  0  0  0
  2 26  1  0  0  0  0
  3  4  1  0  0  0  0
  3 27  1  0  0  0  0
  3 28  1  0  0  0  0
  4  5  1  0  0  0  0
  4 29  1  0  0  0  0
  5  6  2  0  0  0  0
  5  7  1  0  0  0  0
  7  8  1  0  0  0  0
  7  9  1  0  0  0  0
  7 10  1  0  0  0  0
  8 30  1  0  0  0  0
  8 31  1  0  0  0  0
  8 32  1  0  0  0  0
  9 33  1  0  0  0  0
  9 34  1  0  0  0  0
  9 35  1  0  0  0  0
 10 15  1  0  0  0  0
 10 11  2  0  0  0  0
 11 12  1  0  0  0  0
 11 36  1  0  0  0  0
 12 13  2  0  0  0  0
 12 37  1  0  0  0  0
 13 14  1  0  0  0  0
 13 38  1  0  0  0  0
 14 15  2  0  0  0  0
 15 39  1  0  0  0  0
 16 17  1  0  0  0  0
 16 40  1  0  0  0  0
 16 41  1  0  0  0  0
 17 22  1  0  0  0  0
 17 18  1  0  0  0  0
 18 19  1  0  0  0  0
 18 42  1  0  0  0  0
 18 43  1  0  0  0  0
 19 20  1  0  0  0  0
 19 44  1  0  0  0  0
 19 45  1  0  0  0  0
 20 21  1  0  0  0  0
 21 22  1  0  0  0  0
 21 46  1  0  0  0  0
 21 47  1  0  0  0  0
 22 48  1  0  0  0  0
 22 49  1  0  0  0  0
M  END
> <s_m_source_file>
AV-unprocessed.smi

> <i_m_source_file_index>
2896

> <i_lp_mmshare_version>
43012

> <i_f3d_flags>
0

> <s_epik_input>
W0NIMl0xW0NIMl1PW0NIMl1bQ0gyXU4xW0NIMl1bQ0BIXShbQ0gzXSlbQ0gyXVtOSF1DKD1PKUMoW0NIM10pKFtDSDNdKWMyW2NIXVtjSF1bY0hdbltjSF0y

> <s_epik_cmdline>
J2VwaWtfcHl0aG9uJywgJy1waCcsICc3LjAnLCAnLXRuJywgJzgnLCAnLW1hJywgJzIwMCcsICctbWV0YWxfYmluZGluZycsICctaW1hZScsICc8aW5maWxlLm1hZT4nLCAnLW9tYWUnLCAnPG91dGZpbGUubWFlPic=

> <r_epik_Ionization_Penalty>
0.458454

> <r_epik_Ionization_Penalty_Charging>
0

> <r_epik_Ionization_Penalty_Neutral>
0.458454

> <r_epik_State_Penalty>
0.453234

> <r_epik_Charging_Adjusted_Penalty>
0.453234

> <i_epik_Tot_Q>
0

> <i_epik_Tot_abs_Q>
0

> <r_epik_Metal_State_Penalty>
0.448418

> <b_epik_Metal_Only>
0

> <s_lp_Force_Field>
OPLS_2005

> <r_lp_Energy>
34.6302

> <b_lp_Chiralities_Consistent>
1

> <s_lp_Variant>
AV-unprocessed.smi:2896-3

> <Gold.Version>
5.8.1

> <Gold.Id.Protein>
6NUR|6NUR_protein|mol2

> <Gold.PLP.Fitness>
38.0613

> <Gold.PLP.PLP>
-37.0935

> <Gold.PLP.part.hbond>
-1.4262

> <Gold.PLP.part.metal>
0.0000

> <Gold.PLP.part.buried>
-5.6370

> <Gold.PLP.part.nonpolar>
-31.1485

> <Gold.PLP.part.repulsive>
0.0806

> <Gold.PLP.ligand.clash>
0.0000

> <Gold.PLP.ligand.torsion>
1.0645

> <Gold.PLP.Chemscore.Hbond>
1.0000

> <Gold.PLP.Chemscore.CHOScore>
0.0000

> <Gold.PLP.Chemscore.Metal>
0.0000

> <Gold.Chemscore.Hbonds>
donor molecule, donor type, donor heavy atom, donor atom, acceptor molecule, acceptor atom, score
      P1  H  6896  6907       L1     6  0.50

> <Gold.PLP.Chemscore.Internal.Correction>
0.0968

> <Gold.Rescore>
     Score         DG    S(hbond)    S(metal)    S(lipo)     H(rot)  DE(clash)    DE(int)     intcor
     13.76     -16.12       0.97        0.00     100.16       1.68       0.01       2.36       ----

> <Gold.Chemscore.Fitness>
13.7606

> <Gold.Chemscore.DG>
-16.1248

> <Gold.Chemscore.ZeroCoef>
-5.4800

> <Gold.Chemscore.Hbond>
0.9685

> <Gold.Chemscore.Metal>
0.0000

> <Gold.Chemscore.Lipo>
100.1614

> <Gold.Chemscore.Internal_Hbond>
0.0000

> <Gold.Chemscore.DEClash>
0.0089

> <Gold.Chemscore.DEInternal>
2.3553

> <Gold.Chemscore.Rot>
1.6832

> <Gold.Chemscore.Internal.Correction>
   9.000000E+99

> <Gold.Chemscore.Hbonds>
donor molecule, donor type, donor heavy atom, donor atom, acceptor molecule, acceptor atom, score
      P1  H  6896  6907       L1     6  0.02

> <Gold.Chemscore.Hbond.Weighted>
-3.2349

> <Gold.Chemscore.Metal.Weighted>
-0.0000

> <Gold.Chemscore.Lipo.Weighted>
-11.7189

> <Gold.Chemscore.Internal_Hbond.Weighted>
0.0000

> <Gold.Chemscore.DEClash.Weighted>
0.0089

> <Gold.Chemscore.DEInternal.Weighted>
2.3553

> <Gold.Chemscore.Rot.Weighted>
4.3090

> <Gold.Chemscore.Internal.Correction.Weighted>
   9.000000E+99

> <Gold.Protein.RotatedTorsions>
[ 6907 6896 6895 6894 ] final  -18.37 input  -60.11 | X-H torsion
[ 7974 7965 7964 7962 ] final    7.09 input  175.53 | X-H torsion
[ 8008 7997 7996 7995 ] final  119.46 input   59.86 | X-H torsion
[ 10167 10162 10161 10158 ] final -130.51 input  -65.29 | X-H torsion
[ 10718 10713 10712 10709 ] final   69.92 input   66.30 | X-H torsion
[ 10763 10752 10751 10750 ] final -115.87 input  -60.55 | X-H torsion
[ 11005 11000 10999 10996 ] final  169.30 input  -57.11 | X-H torsion

> <Gold.Protein.ActiveResidues>
 VAL166  LYS551  ARG553  GLY616  TRP617  ASP618  TYR619  PRO620  LYS621  CYS622 
 ASP623  PHE694  ASN695  SER759  ASP760  ASP761  ALA762  ILE779  LEU786  VAL792 
 PHE793  MET794  SER795  GLU796  ALA797  LYS798  CYS799  TRP800  GLU811  SER814 

> <Gold.Protein.RotatedAtoms>
  151.2792  135.0708  159.9162 H   0  0  0  0  0  0  0  0  0  0  0  0  # atno 6907 bound_to 6896
  152.5337  134.0048  159.7922 H   0  0  0  0  0  0  0  0  0  0  0  0  # atno 6908 bound_to 6896
  151.0299  133.5749  159.2692 H   0  0  0  0  0  0  0  0  0  0  0  0  # atno 6909 bound_to 6896
  146.2429  140.0135  142.8404 H   0  0  0  0  0  0  0  0  0  0  0  0  # atno 7974 bound_to 7965
  156.2597  140.2852  156.0995 H   0  0  0  0  0  0  0  0  0  0  0  0  # atno 8008 bound_to 7997
  155.1375  140.0395  157.2807 H   0  0  0  0  0  0  0  0  0  0  0  0  # atno 8009 bound_to 7997
  154.6554  140.2554  155.7173 H   0  0  0  0  0  0  0  0  0  0  0  0  # atno 8010 bound_to 7997
  139.9285  143.6299  152.2536 H   0  0  0  0  0  0  0  0  0  0  0  0  # atno 10167 bound_to 10162
  157.6372  130.9450  150.0579 H   0  0  0  0  0  0  0  0  0  0  0  0  # atno 10718 bound_to 10713
  154.8498  135.4366  154.1732 H   0  0  0  0  0  0  0  0  0  0  0  0  # atno 10763 bound_to 10752
  153.2840  135.6956  153.7363 H   0  0  0  0  0  0  0  0  0  0  0  0  # atno 10764 bound_to 10752
  153.6556  135.3444  155.3087 H   0  0  0  0  0  0  0  0  0  0  0  0  # atno 10765 bound_to 10752
  140.2963  134.7632  157.3880 H   0  0  0  0  0  0  0  0  0  0  0  0  # atno 11005 bound_to 11000
  145.1306  140.9516  143.4546 LP  0  0  0  0  0  0  0  0  0  0  0  0  # atno 17320 bound_to 7965
  145.0391  139.3275  143.5986 LP  0  0  0  0  0  0  0  0  0  0  0  0  # atno 17321 bound_to 7965
  139.6802  144.7656  151.1623 LP  0  0  0  0  0  0  0  0  0  0  0  0  # atno 17342 bound_to 10162
  140.7643  143.5736  150.8969 LP  0  0  0  0  0  0  0  0  0  0  0  0  # atno 17343 bound_to 10162
  156.1621  130.3644  149.9285 LP  0  0  0  0  0  0  0  0  0  0  0  0  # atno 17370 bound_to 10713
  156.7280  130.9032  151.3623 LP  0  0  0  0  0  0  0  0  0  0  0  0  # atno 17371 bound_to 10713
  140.1149  134.5296  155.8233 LP  0  0  0  0  0  0  0  0  0  0  0  0  # atno 17394 bound_to 11000
  141.2137  133.6737  156.6759 LP  0  0  0  0  0  0  0  0  0  0  0  0  # atno 17395 bound_to 11000

$$$$
