AV-unprocessed.smi:3200|AV-procd|sdf|12236|dock9
  -GOLD-   2272018 73D 1   1.00000     0.00000
 Structure written by MMmdl.
 38 39  0  0  0  0  0  0  0  0  2 V2000
  150.7851  136.8182  154.7468 C   0  0  0  0  0  0  0  0  0  0  0  0
  151.2645  138.1993  155.0385 C   0  0  0  0  0  0  0  0  0  0  0  0
  152.5351  138.5409  154.8618 N   0  0  0  0  0  0  0  0  0  0  0  0
  152.5626  139.8917  155.2370 O   0  0  0  0  0  0  0  0  0  0  0  0
  151.2983  140.1944  155.6169 C   0  0  0  0  0  0  0  0  0  0  0  0
  150.9847  141.5935  156.0286 C   0  0  0  0  0  0  0  0  0  0  0  0
  150.3501  141.6613  157.4230 C   0  0  0  0  0  0  0  0  0  0  0  0
  150.0401  143.0559  157.7974 N   0  3  0  0  0  0  0  0  0  0  0  0
  151.2051  143.8515  158.2455 C   0  0  1  0  0  0  0  0  0  0  0  0
  150.8410  145.2808  158.6734 C   0  0  0  0  0  0  0  0  0  0  0  0
  151.9234  145.6971  159.6780 C   0  0  0  0  0  0  0  0  0  0  0  0
  152.7704  144.4440  159.9441 C   0  0  0  0  0  0  0  0  0  0  0  0
  151.9360  143.2437  159.4619 C   0  0  0  0  0  0  0  0  0  0  0  0
  150.9685  142.7937  160.5815 C   0  0  0  0  0  0  0  0  0  0  0  0
  152.8410  142.0647  159.0580 C   0  0  0  0  0  0  0  0  0  0  0  0
  150.4423  139.1832  155.4961 N   0  0  0  0  0  0  0  0  0  0  0  0
  151.4544  136.3147  154.0484 H   0  0  0  0  0  0  0  0  0  0  0  0
  149.7884  136.8466  154.3055 H   0  0  0  0  0  0  0  0  0  0  0  0
  150.7403  136.2344  155.6665 H   0  0  0  0  0  0  0  0  0  0  0  0
  151.9061  142.1768  156.0053 H   0  0  0  0  0  0  0  0  0  0  0  0
  150.3162  142.0326  155.2868 H   0  0  0  0  0  0  0  0  0  0  0  0
  149.4332  141.0704  157.4439 H   0  0  0  0  0  0  0  0  0  0  0  0
  151.0302  141.2285  158.1576 H   0  0  0  0  0  0  0  0  0  0  0  0
  149.6160  143.5230  157.0086 H   0  0  0  0  0  0  0  0  0  0  0  0
  151.9140  143.9153  157.4174 H   0  0  0  0  0  0  0  0  0  0  0  0
  150.7905  145.9614  157.8228 H   0  0  0  0  0  0  0  0  0  0  0  0
  149.8661  145.2989  159.1625 H   0  0  0  0  0  0  0  0  0  0  0  0
  152.5409  146.5083  159.2910 H   0  0  0  0  0  0  0  0  0  0  0  0
  151.4607  146.0518  160.5997 H   0  0  0  0  0  0  0  0  0  0  0  0
  153.6882  144.5159  159.3586 H   0  0  0  0  0  0  0  0  0  0  0  0
  153.0700  144.3608  160.9895 H   0  0  0  0  0  0  0  0  0  0  0  0
  151.5177  142.4797  161.4696 H   0  0  0  0  0  0  0  0  0  0  0  0
  150.3569  141.9468  160.2696 H   0  0  0  0  0  0  0  0  0  0  0  0
  150.2926  143.5927  160.8866 H   0  0  0  0  0  0  0  0  0  0  0  0
  153.4228  141.7068  159.9083 H   0  0  0  0  0  0  0  0  0  0  0  0
  153.5462  142.3472  158.2755 H   0  0  0  0  0  0  0  0  0  0  0  0
  152.2543  141.2254  158.6834 H   0  0  0  0  0  0  0  0  0  0  0  0
  149.3714  143.0325  158.5540 H   0  0  0  0  0  0  0  0  0  0  0  0
  1  2  1  0  0  0  0
  1 17  1  0  0  0  0
  1 18  1  0  0  0  0
  1 19  1  0  0  0  0
  2 16  1  0  0  0  0
  2  3  2  0  0  0  0
  3  4  1  0  0  0  0
  4  5  1  0  0  0  0
  5  6  1  0  0  0  0
  5 16  2  0  0  0  0
  6  7  1  0  0  0  0
  6 20  1  0  0  0  0
  6 21  1  0  0  0  0
  7  8  1  0  0  0  0
  7 22  1  0  0  0  0
  7 23  1  0  0  0  0
  8  9  1  0  0  0  0
  8 24  1  0  0  0  0
  8 38  1  0  0  0  0
  9 13  1  0  0  0  0
  9 10  1  0  0  0  0
  9 25  1  0  0  0  0
 10 11  1  0  0  0  0
 10 26  1  0  0  0  0
 10 27  1  0  0  0  0
 11 12  1  0  0  0  0
 11 28  1  0  0  0  0
 11 29  1  0  0  0  0
 12 13  1  0  0  0  0
 12 30  1  0  0  0  0
 12 31  1  0  0  0  0
 13 14  1  0  0  0  0
 13 15  1  0  0  0  0
 14 32  1  0  0  0  0
 14 33  1  0  0  0  0
 14 34  1  0  0  0  0
 15 35  1  0  0  0  0
 15 36  1  0  0  0  0
 15 37  1  0  0  0  0
M  CHG  1   8   1
M  END
> <s_m_source_file>
AV-unprocessed.smi

> <i_m_source_file_index>
3200

> <i_lp_mmshare_version>
43012

> <i_f3d_flags>
0

> <s_epik_input>
W0NIM11jMW5vYyhuMSlbQ0gyXVtDSDJdW05IXVtDQEBIXShDMihbQ0gzXSlbQ0gzXSlbQ0gyXVtDSDJdW0NIMl0y

> <s_epik_cmdline>
J2VwaWtfcHl0aG9uJywgJy1waCcsICc3LjAnLCAnLXRuJywgJzgnLCAnLW1hJywgJzIwMCcsICctbWV0YWxfYmluZGluZycsICctaW1hZScsICc8aW5maWxlLm1hZT4nLCAnLW9tYWUnLCAnPG91dGZpbGUubWFlPic=

> <r_lp_tautomer_probability>
1

> <r_epik_Ionization_Penalty>
0.000953161

> <r_epik_Ionization_Penalty_Charging>
0.000953161

> <r_epik_Ionization_Penalty_Neutral>
4.23223e-13

> <r_epik_State_Penalty>
0.000619331

> <r_epik_Charging_Adjusted_Penalty>
0.00157249

> <i_epik_Tot_Q>
1

> <i_epik_Tot_abs_Q>
1

> <r_epik_Metal_State_Penalty>
-0

> <b_epik_Metal_Only>
0

> <s_lp_Force_Field>
OPLS_2005

> <r_lp_Energy>
25.6419

> <b_lp_Chiralities_Consistent>
1

> <s_lp_Variant>
AV-unprocessed.smi:3200-2

> <Gold.Version>
5.8.1

> <Gold.Id.Protein>
6NUR|6NUR_protein|mol2

> <Gold.PLP.Fitness>
36.5462

> <Gold.PLP.PLP>
-27.7174

> <Gold.PLP.part.hbond>
-3.0000

> <Gold.PLP.part.metal>
0.0000

> <Gold.PLP.part.buried>
1.7355

> <Gold.PLP.part.nonpolar>
-26.0671

> <Gold.PLP.part.repulsive>
0.1016

> <Gold.PLP.ligand.clash>
0.0000

> <Gold.PLP.ligand.torsion>
0.0922

> <Gold.PLP.Chemscore.Hbond>
3.0000

> <Gold.PLP.Chemscore.CHOScore>
0.0000

> <Gold.PLP.Chemscore.Metal>
0.0000

> <Gold.Chemscore.Hbonds>
donor molecule, donor type, donor heavy atom, donor atom, acceptor molecule, acceptor atom, score
      L1  H     8    24       P1  8028  2.00
      P1  H  7997  8009       L1     4  1.00

> <Gold.PLP.Chemscore.Internal.Correction>
0.0132

> <Gold.Rescore>
     Score         DG    S(hbond)    S(metal)    S(lipo)     H(rot)  DE(clash)    DE(int)     intcor
     15.33     -18.37       1.90        0.00      95.10       1.79       1.87       1.17       ----

> <Gold.Chemscore.Fitness>
15.3311

> <Gold.Chemscore.DG>
-18.3724

> <Gold.Chemscore.ZeroCoef>
-5.4800

> <Gold.Chemscore.Hbond>
1.8984

> <Gold.Chemscore.Metal>
0.0000

> <Gold.Chemscore.Lipo>
95.1045

> <Gold.Chemscore.Internal_Hbond>
0.0000

> <Gold.Chemscore.DEClash>
1.8706

> <Gold.Chemscore.DEInternal>
1.1707

> <Gold.Chemscore.Rot>
1.7872

> <Gold.Chemscore.Internal.Correction>
   9.000000E+99

> <Gold.Chemscore.Hbonds>
donor molecule, donor type, donor heavy atom, donor atom, acceptor molecule, acceptor atom, score
      L1  H     8    24       P1  8028  0.95
      P1  H  7997  8009       L1     4  0.47

> <Gold.Chemscore.Hbond.Weighted>
-6.3405

> <Gold.Chemscore.Metal.Weighted>
-0.0000

> <Gold.Chemscore.Lipo.Weighted>
-11.1272

> <Gold.Chemscore.Internal_Hbond.Weighted>
0.0000

> <Gold.Chemscore.DEClash.Weighted>
1.8706

> <Gold.Chemscore.DEInternal.Weighted>
1.1707

> <Gold.Chemscore.Rot.Weighted>
4.5753

> <Gold.Chemscore.Internal.Correction.Weighted>
   9.000000E+99

> <Gold.Protein.RotatedTorsions>
[ 6907 6896 6895 6894 ] final  -94.31 input  -60.11 | X-H torsion
[ 7974 7965 7964 7962 ] final  177.78 input  175.53 | X-H torsion
[ 8008 7997 7996 7995 ] final -133.92 input   59.86 | X-H torsion
[ 10167 10162 10161 10158 ] final   80.94 input  -65.29 | X-H torsion
[ 10718 10713 10712 10709 ] final -142.97 input   66.30 | X-H torsion
[ 10763 10752 10751 10750 ] final  -18.85 input  -60.55 | X-H torsion
[ 11005 11000 10999 10996 ] final   33.96 input  -57.11 | X-H torsion

> <Gold.Protein.ActiveResidues>
 VAL166  LYS551  ARG553  GLY616  TRP617  ASP618  TYR619  PRO620  LYS621  CYS622 
 ASP623  PHE694  ASN695  SER759  ASP760  ASP761  ALA762  ILE779  LEU786  VAL792 
 PHE793  MET794  SER795  GLU796  ALA797  LYS798  CYS799  TRP800  GLU811  SER814 

> <Gold.Protein.RotatedAtoms>
  150.6939  134.1832  159.4256 H   0  0  0  0  0  0  0  0  0  0  0  0  # atno 6907 bound_to 6896
  151.9806  135.0028  160.0566 H   0  0  0  0  0  0  0  0  0  0  0  0  # atno 6908 bound_to 6896
  152.1758  133.4639  159.4969 H   0  0  0  0  0  0  0  0  0  0  0  0  # atno 6909 bound_to 6896
  144.7164  140.0298  143.6439 H   0  0  0  0  0  0  0  0  0  0  0  0  # atno 7974 bound_to 7965
  155.3535  140.0478  157.3046 H   0  0  0  0  0  0  0  0  0  0  0  0  # atno 8008 bound_to 7997
  154.5215  140.2226  155.8931 H   0  0  0  0  0  0  0  0  0  0  0  0  # atno 8009 bound_to 7997
  156.1694  140.3099  155.8953 H   0  0  0  0  0  0  0  0  0  0  0  0  # atno 8010 bound_to 7997
  139.9445  144.6068  150.8220 H   0  0  0  0  0  0  0  0  0  0  0  0  # atno 10167 bound_to 10162
  156.3522  130.7694  151.1849 H   0  0  0  0  0  0  0  0  0  0  0  0  # atno 10718 bound_to 10713
  153.5956  135.7001  153.5405 H   0  0  0  0  0  0  0  0  0  0  0  0  # atno 10763 bound_to 10752
  153.3141  135.4093  155.1360 H   0  0  0  0  0  0  0  0  0  0  0  0  # atno 10764 bound_to 10752
  154.8592  135.3679  154.5489 H   0  0  0  0  0  0  0  0  0  0  0  0  # atno 10765 bound_to 10752
  140.2578  134.3228  155.7868 H   0  0  0  0  0  0  0  0  0  0  0  0  # atno 11005 bound_to 11000
  146.0112  139.3171  143.0869 LP  0  0  0  0  0  0  0  0  0  0  0  0  # atno 17320 bound_to 7965
  145.8680  140.9437  143.0665 LP  0  0  0  0  0  0  0  0  0  0  0  0  # atno 17321 bound_to 7965
  140.7601  143.3144  151.2768 LP  0  0  0  0  0  0  0  0  0  0  0  0  # atno 17342 bound_to 10162
  139.6678  144.0074  152.2734 LP  0  0  0  0  0  0  0  0  0  0  0  0  # atno 17343 bound_to 10162
  157.7463  131.0424  150.4693 LP  0  0  0  0  0  0  0  0  0  0  0  0  # atno 17370 bound_to 10713
  156.4890  130.4091  149.6417 LP  0  0  0  0  0  0  0  0  0  0  0  0  # atno 17371 bound_to 10713
  141.2194  133.7391  156.9139 LP  0  0  0  0  0  0  0  0  0  0  0  0  # atno 17394 bound_to 11000
  140.1494  134.9240  157.2573 LP  0  0  0  0  0  0  0  0  0  0  0  0  # atno 17395 bound_to 11000

$$$$
