AV-unprocessed.smi:49|AV-procd|sdf|477|dock1
  -GOLD-   2262016343D 1   1.00000     0.00000
 Structure written by MMmdl.
 27 28  0  0  0  0  0  0  0  0  1 V2000
  152.7742  141.7676  159.2474 C   0  0  0  0  0  0  0  0  0  0  0  0
  152.2730  140.6941  158.2748 C   0  0  0  0  0  0  0  0  0  0  0  0
  151.3273  141.2473  157.2606 C   0  0  0  0  0  0  0  0  0  0  0  0
  150.7852  140.4854  156.2635 N   0  0  0  0  0  0  0  0  0  0  0  0
  150.0754  141.4080  155.6195 C   0  0  0  0  0  0  0  0  0  0  0  0
  149.2221  141.1698  154.4122 C   0  0  2  0  0  0  0  0  0  0  0  0
  147.7460  141.5223  154.6443 C   0  0  0  0  0  0  0  0  0  0  0  0
  147.0235  140.5768  153.6955 C   0  0  2  0  0  0  0  0  0  0  0  0
  145.6791  140.3490  154.0609 O   0  0  0  0  0  0  0  0  0  0  0  0
  147.8750  139.3150  153.7972 C   0  0  0  0  0  0  0  0  0  0  0  0
  149.2525  139.7786  153.9444 N   0  0  0  0  0  0  0  0  0  0  0  0
  150.1861  142.6149  156.1792 N   0  0  0  0  0  0  0  0  0  0  0  0
  151.0078  142.5406  157.2473 N   0  0  0  0  0  0  0  0  0  0  0  0
  149.5959  141.8029  153.6063 H   0  0  0  0  0  0  0  0  0  0  0  0
  147.0610  140.9696  152.6783 H   0  0  0  0  0  0  0  0  0  0  0  0
  149.7499  143.4744  155.8779 H   0  0  0  0  0  0  0  0  0  0  0  0
  153.4623  141.3397  159.9767 H   0  0  0  0  0  0  0  0  0  0  0  0
  151.9468  142.2201  159.7946 H   0  0  0  0  0  0  0  0  0  0  0  0
  153.3013  142.5622  158.7182 H   0  0  0  0  0  0  0  0  0  0  0  0
  153.1193  140.2376  157.7603 H   0  0  0  0  0  0  0  0  0  0  0  0
  151.7798  139.8937  158.8281 H   0  0  0  0  0  0  0  0  0  0  0  0
  147.4617  141.2892  155.6722 H   0  0  0  0  0  0  0  0  0  0  0  0
  147.5239  142.5747  154.4659 H   0  0  0  0  0  0  0  0  0  0  0  0
  145.1506  140.3465  153.2776 H   0  0  0  0  0  0  0  0  0  0  0  0
  147.5900  138.7506  154.6863 H   0  0  0  0  0  0  0  0  0  0  0  0
  147.7551  138.6571  152.9361 H   0  0  0  0  0  0  0  0  0  0  0  0
  149.6996  139.7555  153.0336 H   0  0  0  0  0  0  0  0  0  0  0  0
  1  2  1  0  0  0  0
  1 17  1  0  0  0  0
  1 18  1  0  0  0  0
  1 19  1  0  0  0  0
  2 20  1  0  0  0  0
  2 21  1  0  0  0  0
  2  3  1  0  0  0  0
  3  4  1  0  0  0  0
  3 13  2  0  0  0  0
  4  5  2  0  0  0  0
  5  6  1  0  0  0  0
  5 12  1  0  0  0  0
  6 14  1  0  0  0  0
  6 11  1  0  0  0  0
  6  7  1  0  0  0  0
  7  8  1  0  0  0  0
  7 22  1  0  0  0  0
  7 23  1  0  0  0  0
  8 15  1  0  0  0  0
  8  9  1  0  0  0  0
  8 10  1  0  0  0  0
  9 24  1  0  0  0  0
 10 11  1  0  0  0  0
 10 25  1  0  0  0  0
 10 26  1  0  0  0  0
 11 27  1  0  0  0  0
 12 13  1  0  0  0  0
 12 16  1  0  0  0  0
M  END
> <s_m_source_file>
AV-unprocessed.smi

> <i_m_source_file_index>
49

> <i_lp_mmshare_version>
43012

> <i_f3d_flags>
0

> <s_epik_input>
W0NIM11bQ0gyXWMxbmMobltuSF0xKVtDQEBIXTJbQ0gyXVtDQEBIXShbT0hdKVtDSDJdW05IXTI=

> <s_epik_cmdline>
J2VwaWtfcHl0aG9uJywgJy1waCcsICc3LjAnLCAnLXRuJywgJzgnLCAnLW1hJywgJzIwMCcsICctbWV0YWxfYmluZGluZycsICctaW1hZScsICc8aW5maWxlLm1hZT4nLCAnLW9tYWUnLCAnPG91dGZpbGUubWFlPic=

> <r_epik_Ionization_Penalty>
1.31544

> <r_epik_Ionization_Penalty_Charging>
0

> <r_epik_Ionization_Penalty_Neutral>
1.31544

> <r_epik_State_Penalty>
2.06074

> <r_epik_Charging_Adjusted_Penalty>
2.06074

> <i_epik_Tot_Q>
0

> <i_epik_Tot_abs_Q>
0

> <r_epik_Metal_State_Penalty>
2.32913

> <b_epik_Metal_Only>
0

> <s_lp_Force_Field>
OPLS_2005

> <r_lp_Energy>
18.1318

> <b_lp_Chiralities_Consistent>
1

> <s_lp_Variant>
AV-unprocessed.smi:49-15

> <Gold.Version>
5.8.1

> <Gold.Id.Protein>
6NUR|6NUR_protein|mol2

> <Gold.PLP.Fitness>
32.9490

> <Gold.PLP.PLP>
-23.9508

> <Gold.PLP.part.hbond>
-2.9892

> <Gold.PLP.part.metal>
0.0000

> <Gold.PLP.part.buried>
-4.3348

> <Gold.PLP.part.nonpolar>
-17.4374

> <Gold.PLP.part.repulsive>
0.2321

> <Gold.PLP.ligand.clash>
0.0000

> <Gold.PLP.ligand.torsion>
0.0043

> <Gold.PLP.Chemscore.Hbond>
3.0000

> <Gold.PLP.Chemscore.CHOScore>
0.0000

> <Gold.PLP.Chemscore.Metal>
0.0000

> <Gold.Chemscore.Hbonds>
donor molecule, donor type, donor heavy atom, donor atom, acceptor molecule, acceptor atom, score
      L1  H     9    24       P1 10175  1.00
      L1  H    11    27       P1  7957  1.00
      L1  H    12    16       P1  8028  0.99

> <Gold.PLP.Chemscore.Internal.Correction>
0.0068

> <Gold.Rescore>
     Score         DG    S(hbond)    S(metal)    S(lipo)     H(rot)  DE(clash)    DE(int)     intcor
     15.72     -15.73       2.99        0.00      42.95       1.86       0.00       0.01       ----

> <Gold.Chemscore.Fitness>
15.7207

> <Gold.Chemscore.DG>
-15.7277

> <Gold.Chemscore.ZeroCoef>
-5.4800

> <Gold.Chemscore.Hbond>
2.9860

> <Gold.Chemscore.Metal>
0.0000

> <Gold.Chemscore.Lipo>
42.9512

> <Gold.Chemscore.Internal_Hbond>
0.0000

> <Gold.Chemscore.DEClash>
0.0000

> <Gold.Chemscore.DEInternal>
0.0070

> <Gold.Chemscore.Rot>
1.8558

> <Gold.Chemscore.Internal.Correction>
   9.000000E+99

> <Gold.Chemscore.Hbonds>
donor molecule, donor type, donor heavy atom, donor atom, acceptor molecule, acceptor atom, score
      L1  H     9    24       P1 10175  0.96
      L1  H    11    27       P1  7957  0.94
      L1  H    12    16       P1  8028  0.92

> <Gold.Chemscore.Hbond.Weighted>
-9.9731

> <Gold.Chemscore.Metal.Weighted>
-0.0000

> <Gold.Chemscore.Lipo.Weighted>
-5.0253

> <Gold.Chemscore.Internal_Hbond.Weighted>
0.0000

> <Gold.Chemscore.DEClash.Weighted>
0.0000

> <Gold.Chemscore.DEInternal.Weighted>
0.0070

> <Gold.Chemscore.Rot.Weighted>
4.7507

> <Gold.Chemscore.Internal.Correction.Weighted>
   9.000000E+99

> <Gold.Protein.RotatedTorsions>
[ 6907 6896 6895 6894 ] final  -13.28 input  -60.11 | X-H torsion
[ 7974 7965 7964 7962 ] final -170.22 input  175.53 | X-H torsion
[ 8008 7997 7996 7995 ] final  -44.83 input   59.86 | X-H torsion
[ 10167 10162 10161 10158 ] final   31.80 input  -65.29 | X-H torsion
[ 10718 10713 10712 10709 ] final  -83.24 input   66.30 | X-H torsion
[ 10763 10752 10751 10750 ] final  101.83 input  -60.55 | X-H torsion
[ 11005 11000 10999 10996 ] final -118.19 input  -57.11 | X-H torsion

> <Gold.Protein.ActiveResidues>
 VAL166  LYS551  ARG553  GLY616  TRP617  ASP618  TYR619  PRO620  LYS621  CYS622 
 ASP623  PHE694  ASN695  SER759  ASP760  ASP761  ALA762  ILE779  LEU786  VAL792 
 PHE793  MET794  SER795  GLU796  ALA797  LYS798  CYS799  TRP800  GLU811  SER814 

> <Gold.Protein.RotatedAtoms>
  151.3575  135.0897  159.9423 H   0  0  0  0  0  0  0  0  0  0  0  0  # atno 6907 bound_to 6896
  152.5171  133.9292  159.7582 H   0  0  0  0  0  0  0  0  0  0  0  0  # atno 6908 bound_to 6896
  150.9679  133.6321  159.2772 H   0  0  0  0  0  0  0  0  0  0  0  0  # atno 6909 bound_to 6896
  144.7173  140.2105  143.6328 H   0  0  0  0  0  0  0  0  0  0  0  0  # atno 7974 bound_to 7965
  154.3998  140.1412  156.3747 H   0  0  0  0  0  0  0  0  0  0  0  0  # atno 8008 bound_to 7997
  155.8060  140.3474  155.5409 H   0  0  0  0  0  0  0  0  0  0  0  0  # atno 8009 bound_to 7997
  155.8435  140.0930  157.1710 H   0  0  0  0  0  0  0  0  0  0  0  0  # atno 8010 bound_to 7997
  140.4556  144.0983  150.6201 H   0  0  0  0  0  0  0  0  0  0  0  0  # atno 10167 bound_to 10162
  156.0021  130.4659  150.4226 H   0  0  0  0  0  0  0  0  0  0  0  0  # atno 10718 bound_to 10713
  153.3317  135.4031  155.1501 H   0  0  0  0  0  0  0  0  0  0  0  0  # atno 10763 bound_to 10752
  154.8624  135.3612  154.5461 H   0  0  0  0  0  0  0  0  0  0  0  0  # atno 10764 bound_to 10752
  153.5900  135.7074  153.5486 H   0  0  0  0  0  0  0  0  0  0  0  0  # atno 10765 bound_to 10752
  141.0303  133.9991  157.3153 H   0  0  0  0  0  0  0  0  0  0  0  0  # atno 11005 bound_to 11000
  145.8595  139.2216  143.1725 LP  0  0  0  0  0  0  0  0  0  0  0  0  # atno 17320 bound_to 7965
  146.0186  140.8369  142.9934 LP  0  0  0  0  0  0  0  0  0  0  0  0  # atno 17321 bound_to 7965
  140.4155  143.2636  151.9780 LP  0  0  0  0  0  0  0  0  0  0  0  0  # atno 17342 bound_to 10162
  139.4801  144.5877  151.7824 LP  0  0  0  0  0  0  0  0  0  0  0  0  # atno 17343 bound_to 10162
  157.2281  131.0498  151.2508 LP  0  0  0  0  0  0  0  0  0  0  0  0  # atno 17370 bound_to 10713
  157.3737  130.7194  149.6582 LP  0  0  0  0  0  0  0  0  0  0  0  0  # atno 17371 bound_to 10713
  139.9203  135.0200  156.8040 LP  0  0  0  0  0  0  0  0  0  0  0  0  # atno 17394 bound_to 11000
  140.6418  133.9811  155.7711 LP  0  0  0  0  0  0  0  0  0  0  0  0  # atno 17395 bound_to 11000

$$$$
