AV-unprocessed.smi:281|AV-procd|sdf|2116|dock7
  -GOLD-   2262021413D 1   1.00000     0.00000
 Structure written by MMmdl.
 55 59  0  0  0  0  0  0  0  0  1 V2000
  145.6974  140.9683  158.3123 C   0  0  0  0  0  0  0  0  0  0  0  0
  146.3972  140.0769  157.2817 C   0  0  1  0  0  0  0  0  0  0  0  0
  145.5100  138.9044  156.8354 C   0  0  0  0  0  0  0  0  0  0  0  0
  146.1902  138.1545  155.7906 N   0  0  0  0  0  0  0  0  0  0  0  0
  145.6161  136.9824  155.4494 C   0  0  0  0  0  0  0  0  0  0  0  0
  145.5451  136.0318  156.4126 N   0  0  0  0  0  0  0  0  0  0  0  0
  144.9982  134.8436  156.1385 C   0  0  0  0  0  0  0  0  0  0  0  0
  144.4785  134.4087  154.9885 N   0  0  0  0  0  0  0  0  0  0  0  0
  144.5548  135.3624  154.0160 C   0  0  0  0  0  0  0  0  0  0  0  0
  145.1082  136.6661  154.1573 C   0  0  0  0  0  0  0  0  0  0  0  0
  145.0298  137.3471  152.9484 N   0  0  0  0  0  0  0  0  0  0  0  0
  144.4567  136.4972  152.1409 C   0  0  0  0  0  0  0  0  0  0  0  0
  144.1272  135.2835  152.7015 N   0  0  0  0  0  0  0  0  0  0  0  0
  143.4873  134.1581  152.0371 C   0  0  0  0  0  0  0  0  0  0  0  0
  144.2413  133.6632  150.7783 C   0  0  2  0  0  0  0  0  0  0  0  0
  144.0334  134.5841  149.7234 O   0  0  0  0  0  0  0  0  0  0  0  0
  143.7733  132.2773  150.3295 C   0  0  0  0  0  0  0  0  0  0  0  0
  144.9353  131.3673  150.7072 C   0  0  0  0  0  0  0  0  0  0  0  0
  146.0610  132.1931  150.4701 O   0  0  0  0  0  0  0  0  0  0  0  0
  145.7564  133.4760  150.9981 C   0  0  0  0  0  0  0  0  0  0  0  0
  146.5432  138.9774  154.6432 C   0  0  0  0  0  0  0  0  0  0  0  0
  147.3864  140.1991  155.0781 C   0  0  1  0  0  0  0  0  0  0  0  0
  148.8218  139.8363  155.4839 C   0  0  0  0  0  0  0  0  0  0  0  0
  149.6798  140.3427  154.3326 C   0  0  0  0  0  0  0  0  0  0  0  0
  148.9833  141.5034  153.9207 O   0  0  0  0  0  0  0  0  0  0  0  0
  147.6047  141.1645  153.8872 C   0  0  2  0  0  0  0  0  0  0  0  0
  146.7415  142.4344  153.8832 C   0  0  0  0  0  0  0  0  0  0  0  0
  146.7167  140.8828  156.1464 O   0  0  0  0  0  0  0  0  0  0  0  0
  145.4368  140.4037  159.2078 H   0  0  0  0  0  0  0  0  0  0  0  0
  144.7799  141.3953  157.9059 H   0  0  0  0  0  0  0  0  0  0  0  0
  146.3429  141.7928  158.6153 H   0  0  0  0  0  0  0  0  0  0  0  0
  147.3125  139.6884  157.7294 H   0  0  0  0  0  0  0  0  0  0  0  0
  145.2926  138.2505  157.6810 H   0  0  0  0  0  0  0  0  0  0  0  0
  144.5584  139.2858  156.4641 H   0  0  0  0  0  0  0  0  0  0  0  0
  144.9747  134.1401  156.9576 H   0  0  0  0  0  0  0  0  0  0  0  0
  144.2584  136.7364  151.1062 H   0  0  0  0  0  0  0  0  0  0  0  0
  143.3932  133.3464  152.7598 H   0  0  0  0  0  0  0  0  0  0  0  0
  142.4695  134.4514  151.7756 H   0  0  0  0  0  0  0  0  0  0  0  0
  144.7469  134.5020  149.1092 H   0  0  0  0  0  0  0  0  0  0  0  0
  142.8343  131.9645  150.7876 H   0  0  0  0  0  0  0  0  0  0  0  0
  143.6354  132.2414  149.2474 H   0  0  0  0  0  0  0  0  0  0  0  0
  144.8933  131.0924  151.7624 H   0  0  0  0  0  0  0  0  0  0  0  0
  144.9691  130.4552  150.1110 H   0  0  0  0  0  0  0  0  0  0  0  0
  146.3655  134.2522  150.5330 H   0  0  0  0  0  0  0  0  0  0  0  0
  146.0015  133.4578  152.0602 H   0  0  0  0  0  0  0  0  0  0  0  0
  147.0897  138.3823  153.9098 H   0  0  0  0  0  0  0  0  0  0  0  0
  145.6268  139.3168  154.1577 H   0  0  0  0  0  0  0  0  0  0  0  0
  149.1072  140.3764  156.3874 H   0  0  0  0  0  0  0  0  0  0  0  0
  148.9679  138.7728  155.6760 H   0  0  0  0  0  0  0  0  0  0  0  0
  150.7019  140.5698  154.6360 H   0  0  0  0  0  0  0  0  0  0  0  0
  149.7117  139.6193  153.5165 H   0  0  0  0  0  0  0  0  0  0  0  0
  147.4381  140.6297  152.9500 H   0  0  0  0  0  0  0  0  0  0  0  0
  145.6800  142.1858  153.8769 H   0  0  0  0  0  0  0  0  0  0  0  0
  146.9471  143.0385  152.9994 H   0  0  0  0  0  0  0  0  0  0  0  0
  146.9386  143.0547  154.7580 H   0  0  0  0  0  0  0  0  0  0  0  0
  1  2  1  0  0  0  0
  1 29  1  0  0  0  0
  1 30  1  0  0  0  0
  1 31  1  0  0  0  0
  2 28  1  0  0  0  0
  2  3  1  0  0  0  0
  2 32  1  0  0  0  0
  3  4  1  0  0  0  0
  3 33  1  0  0  0  0
  3 34  1  0  0  0  0
  4  5  1  0  0  0  0
  4 21  1  0  0  0  0
  5 10  1  0  0  0  0
  5  6  2  0  0  0  0
  6  7  1  0  0  0  0
  7  8  2  0  0  0  0
  7 35  1  0  0  0  0
  8  9  1  0  0  0  0
  9 13  1  0  0  0  0
  9 10  2  0  0  0  0
 10 11  1  0  0  0  0
 11 12  2  0  0  0  0
 12 13  1  0  0  0  0
 12 36  1  0  0  0  0
 13 14  1  0  0  0  0
 14 15  1  0  0  0  0
 14 37  1  0  0  0  0
 14 38  1  0  0  0  0
 15 20  1  0  0  0  0
 15 16  1  0  0  0  0
 15 17  1  0  0  0  0
 16 39  1  0  0  0  0
 17 18  1  0  0  0  0
 17 40  1  0  0  0  0
 17 41  1  0  0  0  0
 18 19  1  0  0  0  0
 18 42  1  0  0  0  0
 18 43  1  0  0  0  0
 19 20  1  0  0  0  0
 20 44  1  0  0  0  0
 20 45  1  0  0  0  0
 21 22  1  0  0  0  0
 21 46  1  0  0  0  0
 21 47  1  0  0  0  0
 22 26  1  0  0  0  0
 22 23  1  0  0  0  0
 22 28  1  0  0  0  0
 23 24  1  0  0  0  0
 23 48  1  0  0  0  0
 23 49  1  0  0  0  0
 24 25  1  0  0  0  0
 24 50  1  0  0  0  0
 24 51  1  0  0  0  0
 25 26  1  0  0  0  0
 26 27  1  0  0  0  0
 26 52  1  0  0  0  0
 27 53  1  0  0  0  0
 27 54  1  0  0  0  0
 27 55  1  0  0  0  0
M  END
> <s_m_source_file>
AV-unprocessed.smi

> <i_m_source_file_index>
281

> <i_lp_mmshare_version>
43012

> <i_f3d_flags>
0

> <s_epik_input>
W0NIM11bQ0BASF0xT1tDSDJdW0NIMl1bQ0BAXTEyW0NIMl1OKFtDSDJdW0NASF0oTzIpW0NIM10pYyhuW2NIXW4zKWMoYzM0KW5bY0hdbjRbQ0gyXVtDQEBdNShbT0hdKVtDSDJdW0NIMl1PW0NIMl01

> <s_epik_cmdline>
J2VwaWtfcHl0aG9uJywgJy1waCcsICc3LjAnLCAnLXRuJywgJzgnLCAnLW1hJywgJzIwMCcsICctbWV0YWxfYmluZGluZycsICctaW1hZScsICc8aW5maWxlLm1hZT4nLCAnLW9tYWUnLCAnPG91dGZpbGUubWFlPic=

> <r_lp_tautomer_probability>
1

> <r_epik_Ionization_Penalty>
0.00571331

> <r_epik_Ionization_Penalty_Charging>
0

> <r_epik_Ionization_Penalty_Neutral>
0.00571331

> <r_epik_State_Penalty>
0.00399586

> <r_epik_Charging_Adjusted_Penalty>
0.00399586

> <i_epik_Tot_Q>
0

> <i_epik_Tot_abs_Q>
0

> <r_epik_Metal_State_Penalty>
-0

> <b_epik_Metal_Only>
0

> <s_lp_Force_Field>
OPLS_2005

> <r_lp_Energy>
55.1206

> <b_lp_Chiralities_Consistent>
1

> <s_lp_Variant>
AV-unprocessed.smi:281-16

> <Gold.Version>
5.8.1

> <Gold.Id.Protein>
6NUR|6NUR_protein|mol2

> <Gold.PLP.Fitness>
39.8423

> <Gold.PLP.PLP>
-32.2582

> <Gold.PLP.part.hbond>
-3.1214

> <Gold.PLP.part.metal>
0.0000

> <Gold.PLP.part.buried>
-6.5764

> <Gold.PLP.part.nonpolar>
-23.0351

> <Gold.PLP.part.repulsive>
0.6870

> <Gold.PLP.ligand.clash>
0.0000

> <Gold.PLP.ligand.torsion>
0.3434

> <Gold.PLP.Chemscore.Hbond>
1.7040

> <Gold.PLP.Chemscore.CHOScore>
1.0000

> <Gold.PLP.Chemscore.Metal>
0.0000

> <Gold.Chemscore.Hbonds>
donor molecule, donor type, donor heavy atom, donor atom, acceptor molecule, acceptor atom, score
      L1  H    16    39       P1  7921  0.96
      P1  H  8011  8017       L1    25  0.70
      L1  C    12    36       P1 10171  1.00

> <Gold.PLP.Chemscore.Internal.Correction>
0.1588

> <Gold.Rescore>
     Score         DG    S(hbond)    S(metal)    S(lipo)     H(rot)  DE(clash)    DE(int)     intcor
     12.10     -14.09       1.63        0.00      72.89       2.09       0.28       1.71       ----

> <Gold.Chemscore.Fitness>
12.0980

> <Gold.Chemscore.DG>
-14.0925

> <Gold.Chemscore.ZeroCoef>
-5.4800

> <Gold.Chemscore.Hbond>
1.6292

> <Gold.Chemscore.Metal>
0.0000

> <Gold.Chemscore.Lipo>
72.8928

> <Gold.Chemscore.Internal_Hbond>
0.0000

> <Gold.Chemscore.DEClash>
0.2809

> <Gold.Chemscore.DEInternal>
1.7137

> <Gold.Chemscore.Rot>
2.0927

> <Gold.Chemscore.Internal.Correction>
   9.000000E+99

> <Gold.Chemscore.Hbonds>
donor molecule, donor type, donor heavy atom, donor atom, acceptor molecule, acceptor atom, score
      L1  H    16    39       P1  7921  0.91
      P1  H  8011  8017       L1    25  0.57

> <Gold.Chemscore.Hbond.Weighted>
-5.4414

> <Gold.Chemscore.Metal.Weighted>
-0.0000

> <Gold.Chemscore.Lipo.Weighted>
-8.5285

> <Gold.Chemscore.Internal_Hbond.Weighted>
0.0000

> <Gold.Chemscore.DEClash.Weighted>
0.2809

> <Gold.Chemscore.DEInternal.Weighted>
1.7137

> <Gold.Chemscore.Rot.Weighted>
5.3573

> <Gold.Chemscore.Internal.Correction.Weighted>
   9.000000E+99

> <Gold.Protein.RotatedTorsions>
[ 6907 6896 6895 6894 ] final  -81.50 input  -60.11 | X-H torsion
[ 7974 7965 7964 7962 ] final  116.39 input  175.53 | X-H torsion
[ 8008 7997 7996 7995 ] final -131.31 input   59.86 | X-H torsion
[ 10167 10162 10161 10158 ] final -172.77 input  -65.29 | X-H torsion
[ 10718 10713 10712 10709 ] final   74.13 input   66.30 | X-H torsion
[ 10763 10752 10751 10750 ] final  135.58 input  -60.55 | X-H torsion
[ 11005 11000 10999 10996 ] final  -12.86 input  -57.11 | X-H torsion

> <Gold.Protein.ActiveResidues>
 VAL166  LYS551  ARG553  GLY616  TRP617  ASP618  TYR619  PRO620  LYS621  CYS622 
 ASP623  PHE694  ASN695  SER759  ASP760  ASP761  ALA762  ILE779  LEU786  VAL792 
 PHE793  MET794  SER795  GLU796  ALA797  LYS798  CYS799  TRP800  GLU811  SER814 

> <Gold.Protein.RotatedAtoms>
  150.6911  134.3808  159.5032 H   0  0  0  0  0  0  0  0  0  0  0  0  # atno 6907 bound_to 6896
  152.1611  134.8909  160.0550 H   0  0  0  0  0  0  0  0  0  0  0  0  # atno 6908 bound_to 6896
  151.9970  133.3777  159.4204 H   0  0  0  0  0  0  0  0  0  0  0  0  # atno 6909 bound_to 6896
  145.1802  139.3054  143.4422 H   0  0  0  0  0  0  0  0  0  0  0  0  # atno 7974 bound_to 7965
  155.3102  140.0457  157.3034 H   0  0  0  0  0  0  0  0  0  0  0  0  # atno 8008 bound_to 7997
  154.5437  140.2296  155.8565 H   0  0  0  0  0  0  0  0  0  0  0  0  # atno 8009 bound_to 7997
  156.1904  140.3052  155.9328 H   0  0  0  0  0  0  0  0  0  0  0  0  # atno 8010 bound_to 7997
  139.5726  144.1607  152.1405 H   0  0  0  0  0  0  0  0  0  0  0  0  # atno 10167 bound_to 10162
  157.6579  130.9663  150.1168 H   0  0  0  0  0  0  0  0  0  0  0  0  # atno 10718 bound_to 10713
  153.8424  135.3089  155.3427 H   0  0  0  0  0  0  0  0  0  0  0  0  # atno 10763 bound_to 10752
  154.7927  135.4773  154.0092 H   0  0  0  0  0  0  0  0  0  0  0  0  # atno 10764 bound_to 10752
  153.1568  135.6853  153.8893 H   0  0  0  0  0  0  0  0  0  0  0  0  # atno 10765 bound_to 10752
  140.7701  133.8445  155.9200 H   0  0  0  0  0  0  0  0  0  0  0  0  # atno 11005 bound_to 11000
  146.3454  140.1979  142.8589 LP  0  0  0  0  0  0  0  0  0  0  0  0  # atno 17320 bound_to 7965
  145.0144  140.8741  143.5205 LP  0  0  0  0  0  0  0  0  0  0  0  0  # atno 17321 bound_to 7965
  140.1143  144.5430  150.6904 LP  0  0  0  0  0  0  0  0  0  0  0  0  # atno 17342 bound_to 10162
  140.7010  143.2435  151.4865 LP  0  0  0  0  0  0  0  0  0  0  0  0  # atno 17343 bound_to 10162
  156.2050  130.3662  149.8741 LP  0  0  0  0  0  0  0  0  0  0  0  0  # atno 17370 bound_to 10713
  156.6635  130.8791  151.3551 LP  0  0  0  0  0  0  0  0  0  0  0  0  # atno 17371 bound_to 10713
  140.9581  134.1691  157.4675 LP  0  0  0  0  0  0  0  0  0  0  0  0  # atno 17394 bound_to 11000
  139.8757  134.9935  156.5646 LP  0  0  0  0  0  0  0  0  0  0  0  0  # atno 17395 bound_to 11000

$$$$
