AV-unprocessed.smi:1645|AV-procd|sdf|6619|dock6
  -GOLD-   22720 7313D 1   1.00000     0.00000
 Structure written by MMmdl.
 55 58  0  0  0  0  0  0  0  0  4 V2000
  146.8631  140.2662  153.9516 O   0  0  0  0  0  0  0  0  0  0  0  0
  146.9397  139.1399  154.4563 C   0  0  0  0  0  0  0  0  0  0  0  0
  147.7571  138.9184  155.5006 N   0  0  0  0  0  0  0  0  0  0  0  0
  148.6414  139.8255  156.1414 C   0  0  0  0  0  0  0  0  0  0  0  0
  149.5228  139.3135  157.1166 C   0  0  0  0  0  0  0  0  0  0  0  0
  150.4272  140.1802  157.7632 C   0  0  0  0  0  0  0  0  0  0  0  0
  150.4441  141.5498  157.4127 C   0  0  0  0  0  0  0  0  0  0  0  0
  151.3048  142.4851  158.0015 N   0  0  0  0  0  0  0  0  0  0  0  0
  152.1206  141.9066  159.0661 C   0  0  0  0  0  0  0  0  0  0  0  0
  153.1736  142.9143  159.5594 C   0  0  0  0  0  0  0  0  0  0  0  0
  152.5138  144.2387  159.9767 C   0  0  0  0  0  0  0  0  0  0  0  0
  151.6526  144.7866  158.8275 C   0  0  0  0  0  0  0  0  0  0  0  0
  150.6345  143.7337  158.3569 C   0  0  0  0  0  0  0  0  0  0  0  0
  149.6004  141.9977  156.4579 N   0  3  0  0  0  0  0  0  0  0  0  0
  148.7174  141.2015  155.8170 C   0  0  0  0  0  0  0  0  0  0  0  0
  146.2490  138.0236  154.0998 N   0  5  0  0  0  0  0  0  0  0  0  0
  145.5726  137.8395  152.8133 C   0  0  1  0  0  0  0  0  0  0  0  0
  146.5030  138.0968  151.6208 C   0  0  0  0  0  0  0  0  0  0  0  0
  145.9336  137.2207  150.4901 C   0  0  0  0  0  0  0  0  0  0  0  0
  144.8608  136.4051  151.1050 N   0  3  1  0  0  0  0  0  0  0  0  0
  144.5721  135.0922  150.4728 C   0  0  0  0  0  0  0  0  0  0  0  0
  145.5739  134.0024  150.8860 C   0  0  0  0  0  0  0  0  0  0  0  0
  145.6697  133.9092  152.4119 C   0  0  0  0  0  0  0  0  0  0  0  0
  146.0835  135.2706  152.9812 C   0  0  0  0  0  0  0  0  0  0  0  0
  145.0857  136.3955  152.5691 C   0  0  1  0  0  0  0  0  0  0  0  0
  147.6838  138.0045  155.9229 H   0  0  0  0  0  0  0  0  0  0  0  0
  149.5019  138.2648  157.3756 H   0  0  0  0  0  0  0  0  0  0  0  0
  151.0984  139.7930  158.5158 H   0  0  0  0  0  0  0  0  0  0  0  0
  151.4785  141.6069  159.8954 H   0  0  0  0  0  0  0  0  0  0  0  0
  152.6144  141.0046  158.7020 H   0  0  0  0  0  0  0  0  0  0  0  0
  153.7314  142.4928  160.3961 H   0  0  0  0  0  0  0  0  0  0  0  0
  153.8986  143.1021  158.7663 H   0  0  0  0  0  0  0  0  0  0  0  0
  151.8909  144.0775  160.8575 H   0  0  0  0  0  0  0  0  0  0  0  0
  153.2739  144.9671  160.2606 H   0  0  0  0  0  0  0  0  0  0  0  0
  151.1349  145.6922  159.1447 H   0  0  0  0  0  0  0  0  0  0  0  0
  152.2952  145.0724  157.9935 H   0  0  0  0  0  0  0  0  0  0  0  0
  150.0817  144.1117  157.4959 H   0  0  0  0  0  0  0  0  0  0  0  0
  149.9070  143.5474  159.1481 H   0  0  0  0  0  0  0  0  0  0  0  0
  148.1171  141.6934  155.0660 H   0  0  0  0  0  0  0  0  0  0  0  0
  144.7145  138.5065  152.7100 H   0  0  0  0  0  0  0  0  0  0  0  0
  146.5355  139.1527  151.3509 H   0  0  0  0  0  0  0  0  0  0  0  0
  147.5243  137.7841  151.8450 H   0  0  0  0  0  0  0  0  0  0  0  0
  145.5195  137.8197  149.6780 H   0  0  0  0  0  0  0  0  0  0  0  0
  146.7190  136.5908  150.0702 H   0  0  0  0  0  0  0  0  0  0  0  0
  143.5698  134.7899  150.7786 H   0  0  0  0  0  0  0  0  0  0  0  0
  144.5446  135.2024  149.3884 H   0  0  0  0  0  0  0  0  0  0  0  0
  145.2665  133.0414  150.4728 H   0  0  0  0  0  0  0  0  0  0  0  0
  146.5573  134.2174  150.4665 H   0  0  0  0  0  0  0  0  0  0  0  0
  144.7105  133.6039  152.8318 H   0  0  0  0  0  0  0  0  0  0  0  0
  146.3954  133.1468  152.6969 H   0  0  0  0  0  0  0  0  0  0  0  0
  146.1425  135.1960  154.0684 H   0  0  0  0  0  0  0  0  0  0  0  0
  147.0980  135.4839  152.6372 H   0  0  0  0  0  0  0  0  0  0  0  0
  144.1334  136.2251  153.0732 H   0  0  0  0  0  0  0  0  0  0  0  0
  144.0270  136.9614  150.9815 H   0  0  0  0  0  0  0  0  0  0  0  0
  149.6311  142.9860  156.2064 H   0  0  0  0  0  0  0  0  0  0  0  0
  1  2  2  0  0  0  0
  2  3  1  0  0  0  0
  2 16  1  0  0  0  0
  3  4  1  0  0  0  0
  3 26  1  0  0  0  0
  4 15  1  0  0  0  0
  4  5  2  0  0  0  0
  5  6  1  0  0  0  0
  5 27  1  0  0  0  0
  6  7  2  0  0  0  0
  6 28  1  0  0  0  0
  7  8  1  0  0  0  0
  7 14  1  0  0  0  0
  8 13  1  0  0  0  0
  8  9  1  0  0  0  0
  9 10  1  0  0  0  0
  9 29  1  0  0  0  0
  9 30  1  0  0  0  0
 10 11  1  0  0  0  0
 10 31  1  0  0  0  0
 10 32  1  0  0  0  0
 11 12  1  0  0  0  0
 11 33  1  0  0  0  0
 11 34  1  0  0  0  0
 12 13  1  0  0  0  0
 12 35  1  0  0  0  0
 12 36  1  0  0  0  0
 13 37  1  0  0  0  0
 13 38  1  0  0  0  0
 14 15  2  0  0  0  0
 14 55  1  0  0  0  0
 15 39  1  0  0  0  0
 16 17  1  0  0  0  0
 17 25  1  0  0  0  0
 17 18  1  0  0  0  0
 17 40  1  0  0  0  0
 18 19  1  0  0  0  0
 18 41  1  0  0  0  0
 18 42  1  0  0  0  0
 19 20  1  0  0  0  0
 19 43  1  0  0  0  0
 19 44  1  0  0  0  0
 20 25  1  0  0  0  0
 20 21  1  0  0  0  0
 20 54  1  0  0  0  0
 21 22  1  0  0  0  0
 21 45  1  0  0  0  0
 21 46  1  0  0  0  0
 22 23  1  0  0  0  0
 22 47  1  0  0  0  0
 22 48  1  0  0  0  0
 23 24  1  0  0  0  0
 23 49  1  0  0  0  0
 23 50  1  0  0  0  0
 24 25  1  0  0  0  0
 24 51  1  0  0  0  0
 24 52  1  0  0  0  0
 25 53  1  0  0  0  0
M  CHG  1  14   1
M  CHG  1  16  -1
M  CHG  1  20   1
M  END
> <s_m_source_file>
AV-unprocessed.smi

> <i_m_source_file_index>
1645

> <i_lp_mmshare_version>
43012

> <i_f3d_flags>
0

> <s_epik_input>
W0NIMl0xW0NIMl1bQ0gyXVtDSDJdW0NASF0oTjEyKVtDQEBIXShbQ0gyXVtDSDJdMilbTkhdQyg9TylbTkhdYzNbY0hdW2NIXWMobltjSF0zKU40W0NIMl1bQ0gyXVtDSDJdW0NIMl1bQ0gyXTQ=

> <s_epik_cmdline>
J2VwaWtfcHl0aG9uJywgJy1waCcsICc3LjAnLCAnLXRuJywgJzgnLCAnLW1hJywgJzIwMCcsICctbWV0YWxfYmluZGluZycsICctaW1hZScsICc8aW5maWxlLm1hZT4nLCAnLW9tYWUnLCAnPG91dGZpbGUubWFlPic=

> <r_lp_tautomer_probability>
0.999994

> <r_epik_Ionization_Penalty>
8.55589

> <r_epik_Ionization_Penalty_Charging>
8.55589

> <r_epik_Ionization_Penalty_Neutral>
3.8092e-06

> <r_epik_State_Penalty>
8.15703

> <r_epik_Charging_Adjusted_Penalty>
16.7129

> <i_epik_Tot_Q>
1

> <i_epik_Tot_abs_Q>
3

> <r_epik_Metal_State_Penalty>
4.13781

> <b_epik_Metal_Only>
1

> <s_lp_Force_Field>
OPLS_2005

> <r_lp_Energy>
57.4093

> <b_lp_Chiralities_Consistent>
1

> <s_lp_Variant>
AV-unprocessed.smi:1645-20

> <Gold.Version>
5.8.1

> <Gold.Id.Protein>
6NUR|6NUR_protein|mol2

> <Gold.PLP.Fitness>
44.3124

> <Gold.PLP.PLP>
-37.3080

> <Gold.PLP.part.hbond>
-2.0000

> <Gold.PLP.part.metal>
0.0000

> <Gold.PLP.part.buried>
-0.1428

> <Gold.PLP.part.nonpolar>
-36.3417

> <Gold.PLP.part.repulsive>
0.4049

> <Gold.PLP.ligand.clash>
0.1125

> <Gold.PLP.ligand.torsion>
0.3584

> <Gold.PLP.Chemscore.Hbond>
2.5600

> <Gold.PLP.Chemscore.CHOScore>
0.0000

> <Gold.PLP.Chemscore.Metal>
0.0000

> <Gold.Chemscore.Hbonds>
donor molecule, donor type, donor heavy atom, donor atom, acceptor molecule, acceptor atom, score
      L1  H    14    55       P1  8028  2.00
      L1  H    20    54       P1 10171  0.53

> <Gold.PLP.Chemscore.Internal.Correction>
0.1538

> <Gold.Rescore>
     Score         DG    S(hbond)    S(metal)    S(lipo)     H(rot)  DE(clash)    DE(int)     intcor
     18.12     -21.55       1.58        0.00     118.08       1.17       1.75       1.68       ----

> <Gold.Chemscore.Fitness>
18.1190

> <Gold.Chemscore.DG>
-21.5546

> <Gold.Chemscore.ZeroCoef>
-5.4800

> <Gold.Chemscore.Hbond>
1.5755

> <Gold.Chemscore.Metal>
0.0000

> <Gold.Chemscore.Lipo>
118.0828

> <Gold.Chemscore.Internal_Hbond>
0.0000

> <Gold.Chemscore.DEClash>
1.7523

> <Gold.Chemscore.DEInternal>
1.6833

> <Gold.Chemscore.Rot>
1.1731

> <Gold.Chemscore.Internal.Correction>
   9.000000E+99

> <Gold.Chemscore.Hbonds>
donor molecule, donor type, donor heavy atom, donor atom, acceptor molecule, acceptor atom, score
      L1  H    14    55       P1  8028  0.97
      L1  H    20    54       P1 10171  0.50

> <Gold.Chemscore.Hbond.Weighted>
-5.2621

> <Gold.Chemscore.Metal.Weighted>
-0.0000

> <Gold.Chemscore.Lipo.Weighted>
-13.8157

> <Gold.Chemscore.Internal_Hbond.Weighted>
0.0000

> <Gold.Chemscore.DEClash.Weighted>
1.7523

> <Gold.Chemscore.DEInternal.Weighted>
1.6833

> <Gold.Chemscore.Rot.Weighted>
3.0032

> <Gold.Chemscore.Internal.Correction.Weighted>
   9.000000E+99

> <Gold.Protein.RotatedTorsions>
[ 6907 6896 6895 6894 ] final  149.65 input  -60.11 | X-H torsion
[ 7974 7965 7964 7962 ] final  -61.19 input  175.53 | X-H torsion
[ 8008 7997 7996 7995 ] final   13.79 input   59.86 | X-H torsion
[ 10167 10162 10161 10158 ] final -126.81 input  -65.29 | X-H torsion
[ 10718 10713 10712 10709 ] final  111.60 input   66.30 | X-H torsion
[ 10763 10752 10751 10750 ] final  166.28 input  -60.55 | X-H torsion
[ 11005 11000 10999 10996 ] final   33.36 input  -57.11 | X-H torsion

> <Gold.Protein.ActiveResidues>
 VAL166  LYS551  ARG553  GLY616  TRP617  ASP618  TYR619  PRO620  LYS621  CYS622 
 ASP623  PHE694  ASN695  SER759  ASP760  ASP761  ALA762  ILE779  LEU786  VAL792 
 PHE793  MET794  SER795  GLU796  ALA797  LYS798  CYS799  TRP800  GLU811  SER814 

> <Gold.Protein.RotatedAtoms>
  152.1251  133.4375  159.4693 H   0  0  0  0  0  0  0  0  0  0  0  0  # atno 6907 bound_to 6896
  150.6874  134.2488  159.4511 H   0  0  0  0  0  0  0  0  0  0  0  0  # atno 6908 bound_to 6896
  152.0368  134.9735  160.0624 H   0  0  0  0  0  0  0  0  0  0  0  0  # atno 6909 bound_to 6896
  145.8065  140.8624  143.0204 H   0  0  0  0  0  0  0  0  0  0  0  0  # atno 7974 bound_to 7965
  154.8394  140.2912  155.5669 H   0  0  0  0  0  0  0  0  0  0  0  0  # atno 8008 bound_to 7997
  156.3011  140.2517  156.3265 H   0  0  0  0  0  0  0  0  0  0  0  0  # atno 8009 bound_to 7997
  154.9143  140.0387  157.1952 H   0  0  0  0  0  0  0  0  0  0  0  0  # atno 8010 bound_to 7997
  139.9675  143.5882  152.2424 H   0  0  0  0  0  0  0  0  0  0  0  0  # atno 10167 bound_to 10162
  157.6436  131.0953  150.6772 H   0  0  0  0  0  0  0  0  0  0  0  0  # atno 10718 bound_to 10713
  154.3366  135.2754  155.2444 H   0  0  0  0  0  0  0  0  0  0  0  0  # atno 10763 bound_to 10752
  154.4733  135.5877  153.6340 H   0  0  0  0  0  0  0  0  0  0  0  0  # atno 10764 bound_to 10752
  152.9861  135.6093  154.3564 H   0  0  0  0  0  0  0  0  0  0  0  0  # atno 10765 bound_to 10752
  140.2640  134.3160  155.7849 H   0  0  0  0  0  0  0  0  0  0  0  0  # atno 11005 bound_to 11000
  144.6762  140.0333  143.7482 LP  0  0  0  0  0  0  0  0  0  0  0  0  # atno 17320 bound_to 7965
  145.9823  139.2950  143.1034 LP  0  0  0  0  0  0  0  0  0  0  0  0  # atno 17321 bound_to 7965
  139.6506  144.7660  151.2155 LP  0  0  0  0  0  0  0  0  0  0  0  0  # atno 17342 bound_to 10162
  140.7533  143.6167  150.8553 LP  0  0  0  0  0  0  0  0  0  0  0  0  # atno 17343 bound_to 10162
  156.7092  130.4647  149.5552 LP  0  0  0  0  0  0  0  0  0  0  0  0  # atno 17370 bound_to 10713
  156.1741  130.6456  151.0873 LP  0  0  0  0  0  0  0  0  0  0  0  0  # atno 17371 bound_to 10713
  141.2186  133.7426  156.9230 LP  0  0  0  0  0  0  0  0  0  0  0  0  # atno 17394 bound_to 11000
  140.1437  134.9276  157.2501 LP  0  0  0  0  0  0  0  0  0  0  0  0  # atno 17395 bound_to 11000

$$$$
