AV-unprocessed.smi:906|AV-procd|sdf|4101|dock9
  -GOLD-   22720 1593D 1   1.00000     0.00000
 Structure written by MMmdl.
 47 48  0  0  0  0  0  0  0  0  1 V2000
  151.8387  145.6302  160.2722 C   0  0  0  0  0  0  0  0  0  0  0  0
  151.8199  144.3326  159.4915 C   0  0  0  0  0  0  0  0  0  0  0  0
  152.4806  143.1864  159.9815 C   0  0  0  0  0  0  0  0  0  0  0  0
  152.4263  142.0038  159.2188 C   0  0  0  0  0  0  0  0  0  0  0  0
  151.7158  142.0121  158.0012 C   0  0  0  0  0  0  0  0  0  0  0  0
  151.6208  140.7639  157.1463 C   0  0  0  0  0  0  0  0  0  0  0  0
  151.1390  139.5471  157.9526 C   0  0  0  0  0  0  0  0  0  0  0  0
  152.2073  138.9956  158.7775 N   0  0  0  0  0  0  0  0  0  0  0  0
  152.1667  137.8103  159.4098 C   0  0  0  0  0  0  0  0  0  0  0  0
  151.1912  137.0616  159.3344 O   0  0  0  0  0  0  0  0  0  0  0  0
  153.2941  137.4942  160.0941 N   0  0  0  0  0  0  0  0  0  0  0  0
  154.2292  138.4313  160.7336 C   0  0  0  0  0  0  0  0  0  0  0  0
  154.0855  138.3084  162.2628 C   0  0  0  0  0  0  0  0  0  0  0  0
  154.3633  136.9315  162.6904 N   0  0  0  0  0  0  0  0  0  0  0  0
  154.3997  136.8121  164.1583 C   0  0  1  0  0  0  0  0  0  0  0  0
  153.0119  136.9156  164.8286 C   0  0  0  0  0  0  0  0  0  0  0  0
  155.1819  135.5583  164.6175 C   0  0  0  0  0  0  0  0  0  0  0  0
  154.4360  134.4642  164.4600 F   0  0  0  0  0  0  0  0  0  0  0  0
  156.2722  135.4254  163.8622 F   0  0  0  0  0  0  0  0  0  0  0  0
  155.5673  135.6415  165.8909 F   0  0  0  0  0  0  0  0  0  0  0  0
  153.4727  135.9810  162.0098 C   0  0  0  0  0  0  0  0  0  0  0  0
  153.6219  136.1195  160.4825 C   0  0  0  0  0  0  0  0  0  0  0  0
  151.0888  143.2112  157.6016 C   0  0  0  0  0  0  0  0  0  0  0  0
  151.1355  144.3497  158.3263 N   0  0  0  0  0  0  0  0  0  0  0  0
  152.6784  145.6561  160.9673 H   0  0  0  0  0  0  0  0  0  0  0  0
  150.9166  145.7377  160.8440 H   0  0  0  0  0  0  0  0  0  0  0  0
  151.9294  146.4852  159.6014 H   0  0  0  0  0  0  0  0  0  0  0  0
  153.0151  143.2101  160.9199 H   0  0  0  0  0  0  0  0  0  0  0  0
  152.9191  141.1072  159.5654 H   0  0  0  0  0  0  0  0  0  0  0  0
  150.9437  140.9591  156.3134 H   0  0  0  0  0  0  0  0  0  0  0  0
  152.5978  140.5592  156.7063 H   0  0  0  0  0  0  0  0  0  0  0  0
  150.3203  139.8380  158.6116 H   0  0  0  0  0  0  0  0  0  0  0  0
  150.7435  138.7778  157.2872 H   0  0  0  0  0  0  0  0  0  0  0  0
  153.0445  139.5518  158.8712 H   0  0  0  0  0  0  0  0  0  0  0  0
  155.2484  138.1852  160.4311 H   0  0  0  0  0  0  0  0  0  0  0  0
  154.0828  139.4706  160.4405 H   0  0  0  0  0  0  0  0  0  0  0  0
  154.7849  138.9921  162.7448 H   0  0  0  0  0  0  0  0  0  0  0  0
  153.0815  138.6084  162.5639 H   0  0  0  0  0  0  0  0  0  0  0  0
  154.9874  137.6612  164.5106 H   0  0  0  0  0  0  0  0  0  0  0  0
  153.1127  136.9323  165.9137 H   0  0  0  0  0  0  0  0  0  0  0  0
  152.3742  136.0672  164.5809 H   0  0  0  0  0  0  0  0  0  0  0  0
  152.4847  137.8260  164.5460 H   0  0  0  0  0  0  0  0  0  0  0  0
  153.7170  134.9588  162.2913 H   0  0  0  0  0  0  0  0  0  0  0  0
  152.4346  136.1573  162.2937 H   0  0  0  0  0  0  0  0  0  0  0  0
  152.9928  135.3813  159.9835 H   0  0  0  0  0  0  0  0  0  0  0  0
  154.6446  135.8895  160.1793 H   0  0  0  0  0  0  0  0  0  0  0  0
  150.5315  143.2583  156.6775 H   0  0  0  0  0  0  0  0  0  0  0  0
  1  2  1  0  0  0  0
  1 25  1  0  0  0  0
  1 26  1  0  0  0  0
  1 27  1  0  0  0  0
  2 24  1  0  0  0  0
  2  3  2  0  0  0  0
  3  4  1  0  0  0  0
  3 28  1  0  0  0  0
  4  5  2  0  0  0  0
  4 29  1  0  0  0  0
  5  6  1  0  0  0  0
  5 23  1  0  0  0  0
  6  7  1  0  0  0  0
  6 30  1  0  0  0  0
  6 31  1  0  0  0  0
  7  8  1  0  0  0  0
  7 32  1  0  0  0  0
  7 33  1  0  0  0  0
  8  9  1  0  0  0  0
  8 34  1  0  0  0  0
  9 10  2  0  0  0  0
  9 11  1  0  0  0  0
 11 22  1  0  0  0  0
 11 12  1  0  0  0  0
 12 13  1  0  0  0  0
 12 35  1  0  0  0  0
 12 36  1  0  0  0  0
 13 14  1  0  0  0  0
 13 37  1  0  0  0  0
 13 38  1  0  0  0  0
 14 15  1  0  0  0  0
 14 21  1  0  0  0  0
 15 16  1  0  0  0  0
 15 17  1  0  0  0  0
 15 39  1  0  0  0  0
 16 40  1  0  0  0  0
 16 41  1  0  0  0  0
 16 42  1  0  0  0  0
 17 18  1  0  0  0  0
 17 19  1  0  0  0  0
 17 20  1  0  0  0  0
 21 22  1  0  0  0  0
 21 43  1  0  0  0  0
 21 44  1  0  0  0  0
 22 45  1  0  0  0  0
 22 46  1  0  0  0  0
 23 24  2  0  0  0  0
 23 47  1  0  0  0  0
M  END
> <s_m_source_file>
AV-unprocessed.smi

> <i_m_source_file_index>
906

> <i_lp_mmshare_version>
43012

> <i_f3d_flags>
0

> <s_epik_input>
W0NIM11jMVtjSF1bY0hdYyhbY0hdbjEpW0NIMl1bQ0gyXVtOSF1DKD1PKU4yW0NIMl1bQ0gyXU4oW0NASF0oW0NIM10pQyhGKShGKUYpW0NIMl1bQ0gyXTI=

> <s_epik_cmdline>
J2VwaWtfcHl0aG9uJywgJy1waCcsICc3LjAnLCAnLXRuJywgJzgnLCAnLW1hJywgJzIwMCcsICctbWV0YWxfYmluZGluZycsICctaW1hZScsICc8aW5maWxlLm1hZT4nLCAnLW9tYWUnLCAnPG91dGZpbGUubWFlPic=

> <r_epik_Ionization_Penalty>
0.0782886

> <r_epik_Ionization_Penalty_Charging>
0

> <r_epik_Ionization_Penalty_Neutral>
0.0782886

> <r_epik_State_Penalty>
0.0661423

> <r_epik_Charging_Adjusted_Penalty>
0.0661423

> <i_epik_Tot_Q>
0

> <i_epik_Tot_abs_Q>
0

> <r_epik_Metal_State_Penalty>
0.060629

> <b_epik_Metal_Only>
0

> <s_lp_Force_Field>
OPLS_2005

> <r_lp_Energy>
47.1211

> <b_lp_Chiralities_Consistent>
1

> <s_lp_Variant>
AV-unprocessed.smi:906-2

> <Gold.Version>
5.8.1

> <Gold.Id.Protein>
6NUR|6NUR_protein|mol2

> <Gold.PLP.Fitness>
44.7999

> <Gold.PLP.PLP>
-40.0525

> <Gold.PLP.part.hbond>
-1.0000

> <Gold.PLP.part.metal>
0.0000

> <Gold.PLP.part.buried>
-5.6610

> <Gold.PLP.part.nonpolar>
-32.8351

> <Gold.PLP.part.repulsive>
0.2418

> <Gold.PLP.ligand.clash>
0.0000

> <Gold.PLP.ligand.torsion>
0.9457

> <Gold.PLP.Chemscore.Hbond>
1.0000

> <Gold.PLP.Chemscore.CHOScore>
1.0000

> <Gold.PLP.Chemscore.Metal>
0.0000

> <Gold.Chemscore.Hbonds>
donor molecule, donor type, donor heavy atom, donor atom, acceptor molecule, acceptor atom, score
      P1  H  6896  6907       L1    10  1.00
      L1  C    23    47       P1  8028  1.00

> <Gold.PLP.Chemscore.Internal.Correction>
0.6387

> <Gold.Rescore>
     Score         DG    S(hbond)    S(metal)    S(lipo)     H(rot)  DE(clash)    DE(int)     intcor
     17.24     -18.38       0.98        0.00     116.82       1.58       0.00       1.14       ----

> <Gold.Chemscore.Fitness>
17.2395

> <Gold.Chemscore.DG>
-18.3797

> <Gold.Chemscore.ZeroCoef>
-5.4800

> <Gold.Chemscore.Hbond>
0.9842

> <Gold.Chemscore.Metal>
0.0000

> <Gold.Chemscore.Lipo>
116.8196

> <Gold.Chemscore.Internal_Hbond>
0.0000

> <Gold.Chemscore.DEClash>
0.0045

> <Gold.Chemscore.DEInternal>
1.1357

> <Gold.Chemscore.Rot>
1.5841

> <Gold.Chemscore.Internal.Correction>
   9.000000E+99

> <Gold.Chemscore.Hbonds>
donor molecule, donor type, donor heavy atom, donor atom, acceptor molecule, acceptor atom, score
      P1  H  6896  6907       L1    10  0.93

> <Gold.Chemscore.Hbond.Weighted>
-3.2872

> <Gold.Chemscore.Metal.Weighted>
-0.0000

> <Gold.Chemscore.Lipo.Weighted>
-13.6679

> <Gold.Chemscore.Internal_Hbond.Weighted>
0.0000

> <Gold.Chemscore.DEClash.Weighted>
0.0045

> <Gold.Chemscore.DEInternal.Weighted>
1.1357

> <Gold.Chemscore.Rot.Weighted>
4.0554

> <Gold.Chemscore.Internal.Correction.Weighted>
   9.000000E+99

> <Gold.Protein.RotatedTorsions>
[ 6907 6896 6895 6894 ] final  -11.92 input  -60.11 | X-H torsion
[ 7974 7965 7964 7962 ] final -135.97 input  175.53 | X-H torsion
[ 8008 7997 7996 7995 ] final  143.43 input   59.86 | X-H torsion
[ 10167 10162 10161 10158 ] final  -37.56 input  -65.29 | X-H torsion
[ 10718 10713 10712 10709 ] final  123.53 input   66.30 | X-H torsion
[ 10763 10752 10751 10750 ] final -167.69 input  -60.55 | X-H torsion
[ 11005 11000 10999 10996 ] final  160.22 input  -57.11 | X-H torsion

> <Gold.Protein.ActiveResidues>
 VAL166  LYS551  ARG553  GLY616  TRP617  ASP618  TYR619  PRO620  LYS621  CYS622 
 ASP623  PHE694  ASN695  SER759  ASP760  ASP761  ALA762  ILE779  LEU786  VAL792 
 PHE793  MET794  SER795  GLU796  ALA797  LYS798  CYS799  TRP800  GLU811  SER814 

> <Gold.Protein.RotatedAtoms>
  151.3786  135.0935  159.9488 H   0  0  0  0  0  0  0  0  0  0  0  0  # atno 6907 bound_to 6896
  152.5115  133.9094  159.7491 H   0  0  0  0  0  0  0  0  0  0  0  0  # atno 6908 bound_to 6896
  150.9523  133.6481  159.2798 H   0  0  0  0  0  0  0  0  0  0  0  0  # atno 6909 bound_to 6896
  144.8967  140.6716  143.5111 H   0  0  0  0  0  0  0  0  0  0  0  0  # atno 7974 bound_to 7965
  156.2930  140.2262  156.4890 H   0  0  0  0  0  0  0  0  0  0  0  0  # atno 8008 bound_to 7997
  154.7788  140.0461  157.1131 H   0  0  0  0  0  0  0  0  0  0  0  0  # atno 8009 bound_to 7997
  154.9784  140.3075  155.4960 H   0  0  0  0  0  0  0  0  0  0  0  0  # atno 8010 bound_to 7997
  140.7115  143.3334  151.2517 H   0  0  0  0  0  0  0  0  0  0  0  0  # atno 10167 bound_to 10162
  157.5657  131.1087  150.8458 H   0  0  0  0  0  0  0  0  0  0  0  0  # atno 10718 bound_to 10713
  154.6705  135.2938  154.9748 H   0  0  0  0  0  0  0  0  0  0  0  0  # atno 10763 bound_to 10752
  154.0776  135.6609  153.4837 H   0  0  0  0  0  0  0  0  0  0  0  0  # atno 10764 bound_to 10752
  153.0484  135.5190  154.7699 H   0  0  0  0  0  0  0  0  0  0  0  0  # atno 10765 bound_to 10752
  140.2038  134.8318  157.3047 H   0  0  0  0  0  0  0  0  0  0  0  0  # atno 11005 bound_to 11000
  145.3687  139.1664  143.4343 LP  0  0  0  0  0  0  0  0  0  0  0  0  # atno 17320 bound_to 7965
  146.3085  140.3757  142.8679 LP  0  0  0  0  0  0  0  0  0  0  0  0  # atno 17321 bound_to 7965
  139.6822  143.9834  152.2815 LP  0  0  0  0  0  0  0  0  0  0  0  0  # atno 17342 bound_to 10162
  139.9468  144.6646  150.8211 LP  0  0  0  0  0  0  0  0  0  0  0  0  # atno 17343 bound_to 10162
  156.8943  130.5224  149.5285 LP  0  0  0  0  0  0  0  0  0  0  0  0  # atno 17370 bound_to 10713
  156.0706  130.5739  150.9375 LP  0  0  0  0  0  0  0  0  0  0  0  0  # atno 17371 bound_to 10713
  140.2025  134.4238  155.7655 LP  0  0  0  0  0  0  0  0  0  0  0  0  # atno 17394 bound_to 11000
  141.2227  133.7078  156.8206 LP  0  0  0  0  0  0  0  0  0  0  0  0  # atno 17395 bound_to 11000

$$$$
