AV-unprocessed.smi:241|AV-procd|sdf|1840|dock3
  -GOLD-   2262020453D 1   1.00000     0.00000
 Structure written by MMmdl.
 54 57  0  0  0  0  0  0  0  0  1 V2000
  149.8929  141.5897  155.0022 C   0  0  0  0  0  0  0  0  0  0  0  0
  148.4875  141.6770  155.1519 O   0  0  0  0  0  0  0  0  0  0  0  0
  147.8710  140.4032  155.2545 C   0  0  0  0  0  0  0  0  0  0  0  0
  146.3416  140.5640  155.3438 C   0  0  2  0  0  0  0  0  0  0  0  0
  145.8475  141.2103  156.6458 C   0  0  0  0  0  0  0  0  0  0  0  0
  144.4850  140.5558  156.9174 C   0  0  1  0  0  0  0  0  0  0  0  0
  143.4701  141.5447  157.0173 O   0  0  0  0  0  0  0  0  0  0  0  0
  142.1656  141.0049  157.1548 C   0  0  0  0  0  0  0  0  0  0  0  0
  144.2689  139.6175  155.7221 C   0  0  0  0  0  0  0  0  0  0  0  0
  145.6037  139.3122  155.2302 N   0  0  0  0  0  0  0  0  0  0  0  0
  145.6828  138.6932  154.0290 C   0  0  0  0  0  0  0  0  0  0  0  0
  146.4934  139.1796  153.0521 N   0  0  0  0  0  0  0  0  0  0  0  0
  146.5780  138.5476  151.8774 C   0  0  0  0  0  0  0  0  0  0  0  0
  145.9544  137.4359  151.4799 N   0  0  0  0  0  0  0  0  0  0  0  0
  145.1423  136.9444  152.4598 C   0  0  0  0  0  0  0  0  0  0  0  0
  144.9526  137.5068  153.7529 C   0  0  0  0  0  0  0  0  0  0  0  0
  144.0643  136.7306  154.4846 N   0  0  0  0  0  0  0  0  0  0  0  0
  143.7523  135.7574  153.6733 C   0  0  0  0  0  0  0  0  0  0  0  0
  144.3393  135.8162  152.4277 N   0  0  0  0  0  0  0  0  0  0  0  0
  144.1900  134.8760  151.3525 C   0  0  0  0  0  0  0  0  0  0  0  0
  143.8555  133.4019  151.5996 C   0  0  0  0  0  0  0  0  0  0  0  0
  144.6980  133.0142  150.3631 C   0  0  0  0  0  0  0  0  0  0  0  0
  145.5813  131.7667  150.5348 C   0  0  0  0  0  0  0  0  0  0  0  0
  146.5526  131.6770  149.5120 O   0  0  0  0  0  0  0  0  0  0  0  0
  143.9082  132.8974  149.0433 C   0  0  0  0  0  0  0  0  0  0  0  0
  142.7661  132.0790  149.1945 O   0  0  0  0  0  0  0  0  0  0  0  0
  145.4113  134.3683  150.5873 C   0  0  0  0  0  0  0  0  0  0  0  0
  146.0235  141.2019  154.5172 H   0  0  0  0  0  0  0  0  0  0  0  0
  144.5538  139.9799  157.8422 H   0  0  0  0  0  0  0  0  0  0  0  0
  150.3151  142.5912  154.9216 H   0  0  0  0  0  0  0  0  0  0  0  0
  150.1603  141.0369  154.1007 H   0  0  0  0  0  0  0  0  0  0  0  0
  150.3501  141.1009  155.8635 H   0  0  0  0  0  0  0  0  0  0  0  0
  148.1257  139.8024  154.3805 H   0  0  0  0  0  0  0  0  0  0  0  0
  148.2487  139.8685  156.1274 H   0  0  0  0  0  0  0  0  0  0  0  0
  146.5225  141.0012  157.4765 H   0  0  0  0  0  0  0  0  0  0  0  0
  145.7810  142.2944  156.5459 H   0  0  0  0  0  0  0  0  0  0  0  0
  141.4444  141.8163  157.2514 H   0  0  0  0  0  0  0  0  0  0  0  0
  142.0885  140.3811  158.0460 H   0  0  0  0  0  0  0  0  0  0  0  0
  141.8834  140.4099  156.2857 H   0  0  0  0  0  0  0  0  0  0  0  0
  143.7340  138.7122  156.0099 H   0  0  0  0  0  0  0  0  0  0  0  0
  143.6834  140.1274  154.9554 H   0  0  0  0  0  0  0  0  0  0  0  0
  147.2421  138.9956  151.1530 H   0  0  0  0  0  0  0  0  0  0  0  0
  143.0801  134.9662  153.9707 H   0  0  0  0  0  0  0  0  0  0  0  0
  143.4626  135.3068  150.6623 H   0  0  0  0  0  0  0  0  0  0  0  0
  144.2726  133.0124  152.5292 H   0  0  0  0  0  0  0  0  0  0  0  0
  142.7946  133.1625  151.5218 H   0  0  0  0  0  0  0  0  0  0  0  0
  146.0846  131.7608  151.5018 H   0  0  0  0  0  0  0  0  0  0  0  0
  144.9789  130.8586  150.5003 H   0  0  0  0  0  0  0  0  0  0  0  0
  147.3151  131.2394  149.8582 H   0  0  0  0  0  0  0  0  0  0  0  0
  143.5925  133.8754  148.6793 H   0  0  0  0  0  0  0  0  0  0  0  0
  144.5228  132.4668  148.2526 H   0  0  0  0  0  0  0  0  0  0  0  0
  142.0028  132.6343  149.2415 H   0  0  0  0  0  0  0  0  0  0  0  0
  145.6364  134.9298  149.6800 H   0  0  0  0  0  0  0  0  0  0  0  0
  146.2954  134.2865  151.2225 H   0  0  0  0  0  0  0  0  0  0  0  0
  1  2  1  0  0  0  0
  1 30  1  0  0  0  0
  1 31  1  0  0  0  0
  1 32  1  0  0  0  0
  2  3  1  0  0  0  0
  3  4  1  0  0  0  0
  3 33  1  0  0  0  0
  3 34  1  0  0  0  0
  4 28  1  0  0  0  0
  4 10  1  0  0  0  0
  4  5  1  0  0  0  0
  5  6  1  0  0  0  0
  5 35  1  0  0  0  0
  5 36  1  0  0  0  0
  6 29  1  0  0  0  0
  6  7  1  0  0  0  0
  6  9  1  0  0  0  0
  7  8  1  0  0  0  0
  8 37  1  0  0  0  0
  8 38  1  0  0  0  0
  8 39  1  0  0  0  0
  9 10  1  0  0  0  0
  9 40  1  0  0  0  0
  9 41  1  0  0  0  0
 10 11  1  0  0  0  0
 11 16  1  0  0  0  0
 11 12  2  0  0  0  0
 12 13  1  0  0  0  0
 13 14  2  0  0  0  0
 13 42  1  0  0  0  0
 14 15  1  0  0  0  0
 15 19  1  0  0  0  0
 15 16  2  0  0  0  0
 16 17  1  0  0  0  0
 17 18  2  0  0  0  0
 18 19  1  0  0  0  0
 18 43  1  0  0  0  0
 19 20  1  0  0  0  0
 20 27  1  0  0  0  0
 20 21  1  0  0  0  0
 20 44  1  0  0  0  0
 21 22  1  0  0  0  0
 21 45  1  0  0  0  0
 21 46  1  0  0  0  0
 22 23  1  0  0  0  0
 22 25  1  0  0  0  0
 22 27  1  0  0  0  0
 23 24  1  0  0  0  0
 23 47  1  0  0  0  0
 23 48  1  0  0  0  0
 24 49  1  0  0  0  0
 25 26  1  0  0  0  0
 25 50  1  0  0  0  0
 25 51  1  0  0  0  0
 26 52  1  0  0  0  0
 27 53  1  0  0  0  0
 27 54  1  0  0  0  0
M  END
> <s_m_source_file>
AV-unprocessed.smi

> <i_m_source_file_index>
241

> <i_lp_mmshare_version>
43012

> <i_f3d_flags>
0

> <s_epik_input>
W0NIM11PW0NIMl1bQ0BASF0xW0NIMl1bQ0BASF0oT1tDSDNdKVtDSDJdTjFjKG5bY0hdbjIpYyhjMjMpbltjSF1uM1tDSF0oW0NIMl00KVtDSDJdQzQoW0NIMl1bT0hdKVtDSDJdW09IXQ==

> <s_epik_cmdline>
J2VwaWtfcHl0aG9uJywgJy1waCcsICc3LjAnLCAnLXRuJywgJzgnLCAnLW1hJywgJzIwMCcsICctbWV0YWxfYmluZGluZycsICctaW1hZScsICc8aW5maWxlLm1hZT4nLCAnLW9tYWUnLCAnPG91dGZpbGUubWFlPic=

> <r_lp_tautomer_probability>
1

> <r_epik_Ionization_Penalty>
0.00568677

> <r_epik_Ionization_Penalty_Charging>
0

> <r_epik_Ionization_Penalty_Neutral>
0.00568677

> <r_epik_State_Penalty>
0.00400877

> <r_epik_Charging_Adjusted_Penalty>
0.00400877

> <i_epik_Tot_Q>
0

> <i_epik_Tot_abs_Q>
0

> <r_epik_Metal_State_Penalty>
-0

> <b_epik_Metal_Only>
0

> <s_lp_Force_Field>
OPLS_2005

> <r_lp_Energy>
60.5945

> <b_lp_Chiralities_Consistent>
1

> <s_lp_Variant>
AV-unprocessed.smi:241-1

> <Gold.Version>
5.8.1

> <Gold.Id.Protein>
6NUR|6NUR_protein|mol2

> <Gold.PLP.Fitness>
44.3534

> <Gold.PLP.PLP>
-34.0491

> <Gold.PLP.part.hbond>
-4.0000

> <Gold.PLP.part.metal>
0.0000

> <Gold.PLP.part.buried>
-6.7383

> <Gold.PLP.part.nonpolar>
-25.9609

> <Gold.PLP.part.repulsive>
1.4990

> <Gold.PLP.ligand.clash>
0.0000

> <Gold.PLP.ligand.torsion>
1.1097

> <Gold.PLP.Chemscore.Hbond>
2.9825

> <Gold.PLP.Chemscore.CHOScore>
1.0000

> <Gold.PLP.Chemscore.Metal>
0.0000

> <Gold.Chemscore.Hbonds>
donor molecule, donor type, donor heavy atom, donor atom, acceptor molecule, acceptor atom, score
      L1  H    24    49       P1 10747  1.00
      L1  H    26    52       P1 10186  0.94
      P1  H 10785 10796       L1    26  0.99
      L1  C    13    42       P1  7957  1.00

> <Gold.PLP.Chemscore.Internal.Correction>
0.5762

> <Gold.Rescore>
     Score         DG    S(hbond)    S(metal)    S(lipo)     H(rot)  DE(clash)    DE(int)     intcor
      8.44     -11.07       2.65        0.00      58.96       3.97       0.41       2.23       ----

> <Gold.Chemscore.Fitness>
8.4386

> <Gold.Chemscore.DG>
-11.0723

> <Gold.Chemscore.ZeroCoef>
-5.4800

> <Gold.Chemscore.Hbond>
2.6540

> <Gold.Chemscore.Metal>
0.0000

> <Gold.Chemscore.Lipo>
58.9588

> <Gold.Chemscore.Internal_Hbond>
0.0000

> <Gold.Chemscore.DEClash>
0.4059

> <Gold.Chemscore.DEInternal>
2.2278

> <Gold.Chemscore.Rot>
3.9727

> <Gold.Chemscore.Internal.Correction>
   9.000000E+99

> <Gold.Chemscore.Hbonds>
donor molecule, donor type, donor heavy atom, donor atom, acceptor molecule, acceptor atom, score
      L1  H    24    49       P1 10747  1.00
      L1  H    26    52       P1 10186  0.89
      P1  H 10785 10796       L1    26  0.72

> <Gold.Chemscore.Hbond.Weighted>
-8.8643

> <Gold.Chemscore.Metal.Weighted>
-0.0000

> <Gold.Chemscore.Lipo.Weighted>
-6.8982

> <Gold.Chemscore.Internal_Hbond.Weighted>
0.0000

> <Gold.Chemscore.DEClash.Weighted>
0.4059

> <Gold.Chemscore.DEInternal.Weighted>
2.2278

> <Gold.Chemscore.Rot.Weighted>
10.1702

> <Gold.Chemscore.Internal.Correction.Weighted>
   9.000000E+99

> <Gold.Protein.RotatedTorsions>
[ 6907 6896 6895 6894 ] final   90.68 input  -60.11 | X-H torsion
[ 7974 7965 7964 7962 ] final -142.00 input  175.53 | X-H torsion
[ 8008 7997 7996 7995 ] final   40.42 input   59.86 | X-H torsion
[ 10167 10162 10161 10158 ] final  -92.70 input  -65.29 | X-H torsion
[ 10718 10713 10712 10709 ] final -176.46 input   66.30 | X-H torsion
[ 10763 10752 10751 10750 ] final  -99.97 input  -60.55 | X-H torsion
[ 11005 11000 10999 10996 ] final  101.91 input  -57.11 | X-H torsion

> <Gold.Protein.ActiveResidues>
 VAL166  LYS551  ARG553  GLY616  TRP617  ASP618  TYR619  PRO620  LYS621  CYS622 
 ASP623  PHE694  ASN695  SER759  ASP760  ASP761  ALA762  ILE779  LEU786  VAL792 
 PHE793  MET794  SER795  GLU796  ALA797  LYS798  CYS799  TRP800  GLU811  SER814 

> <Gold.Protein.RotatedAtoms>
  152.5446  134.1775  159.8621 H   0  0  0  0  0  0  0  0  0  0  0  0  # atno 6907 bound_to 6896
  151.1780  133.4736  159.2601 H   0  0  0  0  0  0  0  0  0  0  0  0  # atno 6908 bound_to 6896
  151.1207  135.0089  159.8592 H   0  0  0  0  0  0  0  0  0  0  0  0  # atno 6909 bound_to 6896
  144.8476  140.6011  143.5411 H   0  0  0  0  0  0  0  0  0  0  0  0  # atno 7974 bound_to 7965
  155.2528  140.3353  155.4280 H   0  0  0  0  0  0  0  0  0  0  0  0  # atno 8008 bound_to 7997
  156.2208  140.1808  156.7524 H   0  0  0  0  0  0  0  0  0  0  0  0  # atno 8009 bound_to 7997
  154.5823  140.0651  156.9106 H   0  0  0  0  0  0  0  0  0  0  0  0  # atno 8010 bound_to 7997
  140.3321  143.2989  151.9930 H   0  0  0  0  0  0  0  0  0  0  0  0  # atno 10167 bound_to 10162
  156.8149  130.9599  151.3114 H   0  0  0  0  0  0  0  0  0  0  0  0  # atno 10718 bound_to 10713
  154.7541  135.4952  153.9342 H   0  0  0  0  0  0  0  0  0  0  0  0  # atno 10763 bound_to 10752
  153.1176  135.6724  153.9399 H   0  0  0  0  0  0  0  0  0  0  0  0  # atno 10764 bound_to 10752
  153.9140  135.3096  155.3427 H   0  0  0  0  0  0  0  0  0  0  0  0  # atno 10765 bound_to 10752
  139.8775  134.9202  156.4978 H   0  0  0  0  0  0  0  0  0  0  0  0  # atno 11005 bound_to 11000
  145.4564  139.1517  143.3890 LP  0  0  0  0  0  0  0  0  0  0  0  0  # atno 17320 bound_to 7965
  146.2758  140.4693  142.8796 LP  0  0  0  0  0  0  0  0  0  0  0  0  # atno 17321 bound_to 7965
  139.4854  144.6226  151.7225 LP  0  0  0  0  0  0  0  0  0  0  0  0  # atno 17342 bound_to 10162
  140.5387  144.0614  150.6080 LP  0  0  0  0  0  0  0  0  0  0  0  0  # atno 17343 bound_to 10162
  157.6487  130.8866  149.9589 LP  0  0  0  0  0  0  0  0  0  0  0  0  # atno 17370 bound_to 10713
  156.1022  130.3655  150.0197 LP  0  0  0  0  0  0  0  0  0  0  0  0  # atno 17371 bound_to 10713
  140.8612  133.8058  155.9267 LP  0  0  0  0  0  0  0  0  0  0  0  0  # atno 17394 bound_to 11000
  140.9048  134.2334  157.5021 LP  0  0  0  0  0  0  0  0  0  0  0  0  # atno 17395 bound_to 11000

$$$$
