AV-unprocessed.smi:1000|AV-procd|sdf|4356|dock3
  -GOLD-   22720 2253D 1   1.00000     0.00000
 Structure written by MMmdl.
 40 41  0  0  0  0  0  0  0  0  1 V2000
  146.7593  141.4163  157.0158 C   0  0  0  0  0  0  0  0  0  0  0  0
  145.5926  141.6236  155.5886 S   0  0  1  0  0  0  0  0  0  0  0  0
  146.0866  142.8212  154.7744 O   0  0  0  0  0  0  0  0  0  0  0  0
  146.2079  140.1657  154.6740 C   0  0  0  0  0  0  0  0  0  0  0  0
  145.5650  138.9956  154.6180 N   0  0  0  0  0  0  0  0  0  0  0  0
  146.3662  138.1860  153.8349 N   0  0  0  0  0  0  0  0  0  0  0  0
  147.4047  138.9557  153.5030 C   0  0  0  0  0  0  0  0  0  0  0  0
  147.3679  140.2055  153.9916 N   0  0  0  0  0  0  0  0  0  0  0  0
  148.3306  141.2788  153.8199 C   0  0  0  0  0  0  0  0  0  0  0  0
  149.5381  141.0831  154.7361 C   0  0  0  0  0  0  0  0  0  0  0  0
  150.2645  140.1010  154.5892 O   0  0  0  0  0  0  0  0  0  0  0  0
  149.7365  142.0231  155.6737 N   0  0  0  0  0  0  0  0  0  0  0  0
  150.8177  142.0323  156.6554 C   0  0  0  0  0  0  0  0  0  0  0  0
  151.5473  143.3886  156.6972 C   0  0  0  0  0  0  0  0  0  0  0  0
  151.8669  143.8670  158.1049 C   0  0  0  0  0  0  0  0  0  0  0  0
  151.6356  145.1354  158.4962 C   0  0  0  0  0  0  0  0  0  0  0  0
  151.8947  145.6550  159.8988 C   0  0  0  0  0  0  0  0  0  0  0  0
  152.1073  144.5173  160.9111 C   0  0  0  0  0  0  0  0  0  0  0  0
  153.0305  143.4351  160.3379 C   0  0  0  0  0  0  0  0  0  0  0  0
  152.4455  142.8220  159.0531 C   0  0  0  0  0  0  0  0  0  0  0  0
  147.0583  140.3747  157.1342 H   0  0  0  0  0  0  0  0  0  0  0  0
  146.2792  141.7410  157.9388 H   0  0  0  0  0  0  0  0  0  0  0  0
  147.6543  142.0190  156.8611 H   0  0  0  0  0  0  0  0  0  0  0  0
  148.2153  138.5961  152.8863 H   0  0  0  0  0  0  0  0  0  0  0  0
  148.6496  141.3078  152.7771 H   0  0  0  0  0  0  0  0  0  0  0  0
  147.8475  142.2334  154.0312 H   0  0  0  0  0  0  0  0  0  0  0  0
  149.0845  142.7930  155.7140 H   0  0  0  0  0  0  0  0  0  0  0  0
  150.4563  141.7493  157.6451 H   0  0  0  0  0  0  0  0  0  0  0  0
  151.5263  141.2568  156.3640 H   0  0  0  0  0  0  0  0  0  0  0  0
  152.4821  143.3195  156.1402 H   0  0  0  0  0  0  0  0  0  0  0  0
  150.9462  144.1392  156.1819 H   0  0  0  0  0  0  0  0  0  0  0  0
  151.2367  145.8504  157.7916 H   0  0  0  0  0  0  0  0  0  0  0  0
  152.7729  146.3004  159.8641 H   0  0  0  0  0  0  0  0  0  0  0  0
  151.0552  146.2762  160.2120 H   0  0  0  0  0  0  0  0  0  0  0  0
  152.5170  144.9151  161.8400 H   0  0  0  0  0  0  0  0  0  0  0  0
  151.1452  144.0690  161.1636 H   0  0  0  0  0  0  0  0  0  0  0  0
  154.0045  143.8753  160.1206 H   0  0  0  0  0  0  0  0  0  0  0  0
  153.2039  142.6528  161.0774 H   0  0  0  0  0  0  0  0  0  0  0  0
  151.6553  142.1173  159.3114 H   0  0  0  0  0  0  0  0  0  0  0  0
  153.2193  142.2509  158.5392 H   0  0  0  0  0  0  0  0  0  0  0  0
  1  2  1  0  0  0  0
  1 21  1  0  0  0  0
  1 22  1  0  0  0  0
  1 23  1  0  0  0  0
  2  3  2  0  0  0  0
  2  4  1  0  0  0  0
  4  8  1  0  0  0  0
  4  5  2  0  0  0  0
  5  6  1  0  0  0  0
  6  7  2  0  0  0  0
  7  8  1  0  0  0  0
  7 24  1  0  0  0  0
  8  9  1  0  0  0  0
  9 10  1  0  0  0  0
  9 25  1  0  0  0  0
  9 26  1  0  0  0  0
 10 11  2  0  0  0  0
 10 12  1  0  0  0  0
 12 13  1  0  0  0  0
 12 27  1  0  0  0  0
 13 14  1  0  0  0  0
 13 28  1  0  0  0  0
 13 29  1  0  0  0  0
 14 15  1  0  0  0  0
 14 30  1  0  0  0  0
 14 31  1  0  0  0  0
 15 20  1  0  0  0  0
 15 16  2  0  0  0  0
 16 17  1  0  0  0  0
 16 32  1  0  0  0  0
 17 18  1  0  0  0  0
 17 33  1  0  0  0  0
 17 34  1  0  0  0  0
 18 19  1  0  0  0  0
 18 35  1  0  0  0  0
 18 36  1  0  0  0  0
 19 20  1  0  0  0  0
 19 37  1  0  0  0  0
 19 38  1  0  0  0  0
 20 39  1  0  0  0  0
 20 40  1  0  0  0  0
M  END
> <s_m_source_file>
AV-unprocessed.smi

> <i_m_source_file_index>
1000

> <i_lp_mmshare_version>
43012

> <i_f3d_flags>
0

> <s_epik_input>
W0NIM11bU0BdKD1PKWMxbm5bY0hdbjFbQ0gyXUMoPU8pW05IXVtDSDJdW0NIMl1DMj1bQ0hdW0NIMl1bQ0gyXVtDSDJdW0NIMl0y

> <s_epik_cmdline>
J2VwaWtfcHl0aG9uJywgJy1waCcsICc3LjAnLCAnLXRuJywgJzgnLCAnLW1hJywgJzIwMCcsICctbWV0YWxfYmluZGluZycsICctaW1hZScsICc8aW5maWxlLm1hZT4nLCAnLW9tYWUnLCAnPG91dGZpbGUubWFlPic=

> <r_lp_tautomer_probability>
1

> <r_epik_Ionization_Penalty>
9.22166e-08

> <r_epik_Ionization_Penalty_Charging>
0

> <r_epik_Ionization_Penalty_Neutral>
9.22166e-08

> <r_epik_State_Penalty>
-0

> <r_epik_Charging_Adjusted_Penalty>
0

> <i_epik_Tot_Q>
0

> <i_epik_Tot_abs_Q>
0

> <r_epik_Metal_State_Penalty>
-0

> <b_epik_Metal_Only>
0

> <s_lp_Force_Field>
OPLS_2005

> <r_lp_Energy>
7.40605

> <b_lp_Chiralities_Consistent>
1

> <s_lp_Variant>
AV-unprocessed.smi:1000-2

> <Gold.Version>
5.8.1

> <Gold.Id.Protein>
6NUR|6NUR_protein|mol2

> <Gold.PLP.Fitness>
49.8760

> <Gold.PLP.PLP>
-41.7308

> <Gold.PLP.part.hbond>
-2.0000

> <Gold.PLP.part.metal>
0.0000

> <Gold.PLP.part.buried>
-3.7644

> <Gold.PLP.part.nonpolar>
-35.4604

> <Gold.PLP.part.repulsive>
0.7157

> <Gold.PLP.ligand.clash>
0.0000

> <Gold.PLP.ligand.torsion>
1.7199

> <Gold.PLP.Chemscore.Hbond>
1.8960

> <Gold.PLP.Chemscore.CHOScore>
1.5943

> <Gold.PLP.Chemscore.Metal>
0.0000

> <Gold.Chemscore.Hbonds>
donor molecule, donor type, donor heavy atom, donor atom, acceptor molecule, acceptor atom, score
      L1  H    12    27       P1  8028  0.91
      P1  H  7989  7998       L1    11  0.95
      L1  C     7    24       P1  7948  0.68
      L1  C     7    24       P1  7957  0.70

> <Gold.PLP.Chemscore.Internal.Correction>
1.1140

> <Gold.Rescore>
     Score         DG    S(hbond)    S(metal)    S(lipo)     H(rot)  DE(clash)    DE(int)     intcor
     12.97     -17.24       1.59        0.00     104.68       2.26       1.38       2.89       ----

> <Gold.Chemscore.Fitness>
12.9719

> <Gold.Chemscore.DG>
-17.2445

> <Gold.Chemscore.ZeroCoef>
-5.4800

> <Gold.Chemscore.Hbond>
1.5907

> <Gold.Chemscore.Metal>
0.0000

> <Gold.Chemscore.Lipo>
104.6765

> <Gold.Chemscore.Internal_Hbond>
0.0000

> <Gold.Chemscore.DEClash>
1.3823

> <Gold.Chemscore.DEInternal>
2.8904

> <Gold.Chemscore.Rot>
2.2640

> <Gold.Chemscore.Internal.Correction>
   9.000000E+99

> <Gold.Chemscore.Hbonds>
donor molecule, donor type, donor heavy atom, donor atom, acceptor molecule, acceptor atom, score
      L1  H    12    27       P1  8028  0.89
      P1  H  7989  7998       L1    11  0.21

> <Gold.Chemscore.Hbond.Weighted>
-5.3131

> <Gold.Chemscore.Metal.Weighted>
-0.0000

> <Gold.Chemscore.Lipo.Weighted>
-12.2472

> <Gold.Chemscore.Internal_Hbond.Weighted>
0.0000

> <Gold.Chemscore.DEClash.Weighted>
1.3823

> <Gold.Chemscore.DEInternal.Weighted>
2.8904

> <Gold.Chemscore.Rot.Weighted>
5.7957

> <Gold.Chemscore.Internal.Correction.Weighted>
   9.000000E+99

> <Gold.Protein.RotatedTorsions>
[ 6907 6896 6895 6894 ] final   71.51 input  -60.11 | X-H torsion
[ 7974 7965 7964 7962 ] final  -33.46 input  175.53 | X-H torsion
[ 8008 7997 7996 7995 ] final -147.47 input   59.86 | X-H torsion
[ 10167 10162 10161 10158 ] final -132.19 input  -65.29 | X-H torsion
[ 10718 10713 10712 10709 ] final  -17.54 input   66.30 | X-H torsion
[ 10763 10752 10751 10750 ] final -158.84 input  -60.55 | X-H torsion
[ 11005 11000 10999 10996 ] final  -25.09 input  -57.11 | X-H torsion

> <Gold.Protein.ActiveResidues>
 VAL166  LYS551  ARG553  GLY616  TRP617  ASP618  TYR619  PRO620  LYS621  CYS622 
 ASP623  PHE694  ASN695  SER759  ASP760  ASP761  ALA762  ILE779  LEU786  VAL792 
 PHE793  MET794  SER795  GLU796  ALA797  LYS798  CYS799  TRP800  GLU811  SER814 

> <Gold.Protein.RotatedAtoms>
  152.4814  134.4709  159.9635 H   0  0  0  0  0  0  0  0  0  0  0  0  # atno 6907 bound_to 6896
  151.4714  133.3562  159.2832 H   0  0  0  0  0  0  0  0  0  0  0  0  # atno 6908 bound_to 6896
  150.8890  134.8317  159.7340 H   0  0  0  0  0  0  0  0  0  0  0  0  # atno 6909 bound_to 6896
  146.0908  140.5919  142.8865 H   0  0  0  0  0  0  0  0  0  0  0  0  # atno 7974 bound_to 7965
  155.5761  140.0639  157.2794 H   0  0  0  0  0  0  0  0  0  0  0  0  # atno 8008 bound_to 7997
  154.4346  140.1860  156.0975 H   0  0  0  0  0  0  0  0  0  0  0  0  # atno 8009 bound_to 7997
  156.0340  140.3303  155.7174 H   0  0  0  0  0  0  0  0  0  0  0  0  # atno 8010 bound_to 7997
  139.9111  143.6493  152.2575 H   0  0  0  0  0  0  0  0  0  0  0  0  # atno 10167 bound_to 10162
  156.5720  130.4752  149.6358 H   0  0  0  0  0  0  0  0  0  0  0  0  # atno 10718 bound_to 10713
  154.7524  135.3095  154.8534 H   0  0  0  0  0  0  0  0  0  0  0  0  # atno 10763 bound_to 10752
  153.9317  135.6784  153.4749 H   0  0  0  0  0  0  0  0  0  0  0  0  # atno 10764 bound_to 10752
  153.1120  135.4862  154.8979 H   0  0  0  0  0  0  0  0  0  0  0  0  # atno 10765 bound_to 10752
  140.8906  133.7591  156.0416 H   0  0  0  0  0  0  0  0  0  0  0  0  # atno 11005 bound_to 11000
  144.7359  140.4806  143.6904 LP  0  0  0  0  0  0  0  0  0  0  0  0  # atno 17320 bound_to 7965
  145.6042  139.1506  143.3112 LP  0  0  0  0  0  0  0  0  0  0  0  0  # atno 17321 bound_to 7965
  139.6942  144.7643  151.1386 LP  0  0  0  0  0  0  0  0  0  0  0  0  # atno 17342 bound_to 10162
  140.7685  143.5547  150.9165 LP  0  0  0  0  0  0  0  0  0  0  0  0  # atno 17343 bound_to 10162
  156.2706  130.7014  151.1811 LP  0  0  0  0  0  0  0  0  0  0  0  0  # atno 17370 bound_to 10713
  157.7346  131.0580  150.5516 LP  0  0  0  0  0  0  0  0  0  0  0  0  # atno 17371 bound_to 10713
  140.8352  134.3132  157.5334 LP  0  0  0  0  0  0  0  0  0  0  0  0  # atno 17394 bound_to 11000
  139.8729  134.9385  156.3717 LP  0  0  0  0  0  0  0  0  0  0  0  0  # atno 17395 bound_to 11000

$$$$
