AV-unprocessed.smi:1208|AV-procd|sdf|5068|dock2
  -GOLD-   22720 4113D 1   1.00000     0.00000
 Structure written by MMmdl.
 36 37  0  0  0  0  0  0  0  0  1 V2000
  151.8680  144.2091  159.2941 C   0  0  0  0  0  0  0  0  0  0  0  0
  151.8538  142.6795  159.1479 C   0  0  1  0  0  0  0  0  0  0  0  0
  151.5704  142.3515  157.7527 N   0  0  0  0  0  0  0  0  0  0  0  0
  150.5727  141.5645  157.3208 C   0  0  0  0  0  0  0  0  0  0  0  0
  149.7633  141.0251  158.0770 O   0  0  0  0  0  0  0  0  0  0  0  0
  150.4985  141.3589  155.8002 C   0  0  0  0  0  0  0  0  0  0  0  0
  150.2465  139.9653  155.4048 N   0  0  0  0  0  0  0  0  0  0  0  0
  151.3150  139.3600  154.7606 N   0  0  0  0  0  0  0  0  0  0  0  0
  151.2261  138.1304  154.3808 C   0  0  0  0  0  0  0  0  0  0  0  0
  152.3096  137.5697  153.7503 O   0  0  0  0  0  0  0  0  0  0  0  0
  150.0230  137.3612  154.6097 C   0  0  0  0  0  0  0  0  0  0  0  0
  148.9863  137.9603  155.2354 C   0  0  0  0  0  0  0  0  0  0  0  0
  149.0543  139.3529  155.6820 C   0  0  0  0  0  0  0  0  0  0  0  0
  148.1271  139.9222  156.2576 O   0  0  0  0  0  0  0  0  0  0  0  0
  153.1893  142.0378  159.5813 C   0  0  1  0  0  0  0  0  0  0  0  0
  153.5410  142.2257  161.0570 C   0  0  0  0  0  0  0  0  0  0  0  0
  154.4974  141.0794  161.3401 C   0  0  0  0  0  0  0  0  0  0  0  0
  154.2303  140.0851  160.2070 C   0  0  0  0  0  0  0  0  0  0  0  0
  153.1315  140.6224  159.4838 O   0  0  0  0  0  0  0  0  0  0  0  0
  152.0193  137.3857  152.8702 H   0  0  0  0  0  0  0  0  0  0  0  0
  152.0171  144.5089  160.3313 H   0  0  0  0  0  0  0  0  0  0  0  0
  150.9230  144.6427  158.9657 H   0  0  0  0  0  0  0  0  0  0  0  0
  152.6648  144.6581  158.6999 H   0  0  0  0  0  0  0  0  0  0  0  0
  151.0534  142.2950  159.7828 H   0  0  0  0  0  0  0  0  0  0  0  0
  152.1887  142.7486  157.0605 H   0  0  0  0  0  0  0  0  0  0  0  0
  149.7298  142.0167  155.3909 H   0  0  0  0  0  0  0  0  0  0  0  0
  151.4372  141.7024  155.3617 H   0  0  0  0  0  0  0  0  0  0  0  0
  149.9647  136.3327  154.2847 H   0  0  0  0  0  0  0  0  0  0  0  0
  148.0819  137.3975  155.4133 H   0  0  0  0  0  0  0  0  0  0  0  0
  154.0080  142.4007  158.9567 H   0  0  0  0  0  0  0  0  0  0  0  0
  153.9788  143.2017  161.2680 H   0  0  0  0  0  0  0  0  0  0  0  0
  152.6474  142.1159  161.6729 H   0  0  0  0  0  0  0  0  0  0  0  0
  155.5340  141.4169  161.3114 H   0  0  0  0  0  0  0  0  0  0  0  0
  154.3129  140.6423  162.3219 H   0  0  0  0  0  0  0  0  0  0  0  0
  155.0959  140.0131  159.5471 H   0  0  0  0  0  0  0  0  0  0  0  0
  153.9985  139.0854  160.5749 H   0  0  0  0  0  0  0  0  0  0  0  0
  1  2  1  0  0  0  0
  1 21  1  0  0  0  0
  1 22  1  0  0  0  0
  1 23  1  0  0  0  0
  2  3  1  0  0  0  0
  2 15  1  0  0  0  0
  2 24  1  0  0  0  0
  3  4  1  0  0  0  0
  3 25  1  0  0  0  0
  4  5  2  0  0  0  0
  4  6  1  0  0  0  0
  6 26  1  0  0  0  0
  6 27  1  0  0  0  0
  6  7  1  0  0  0  0
  7  8  1  0  0  0  0
  7 13  1  0  0  0  0
  8  9  2  0  0  0  0
  9 10  1  0  0  0  0
  9 11  1  0  0  0  0
 10 20  1  0  0  0  0
 11 28  1  0  0  0  0
 11 12  2  0  0  0  0
 12 29  1  0  0  0  0
 12 13  1  0  0  0  0
 13 14  2  0  0  0  0
 15 19  1  0  0  0  0
 15 16  1  0  0  0  0
 15 30  1  0  0  0  0
 16 17  1  0  0  0  0
 16 31  1  0  0  0  0
 16 32  1  0  0  0  0
 17 18  1  0  0  0  0
 17 33  1  0  0  0  0
 17 34  1  0  0  0  0
 18 19  1  0  0  0  0
 18 35  1  0  0  0  0
 18 36  1  0  0  0  0
M  END
> <s_m_source_file>
AV-unprocessed.smi

> <i_m_source_file_index>
1208

> <i_lp_mmshare_version>
43012

> <i_f3d_flags>
0

> <s_epik_input>
TzFbQ0gyXVtDSDJdW0NIMl1bQ0BIXTFbQ0BIXShbQ0gzXSlbTkhdQyg9TylbQ0gyXW4yW25IXWMoPU8pW2NIXVtjSF1jMj1P

> <s_epik_cmdline>
J2VwaWtfcHl0aG9uJywgJy1waCcsICc3LjAnLCAnLXRuJywgJzgnLCAnLW1hJywgJzIwMCcsICctbWV0YWxfYmluZGluZycsICctaW1hZScsICc8aW5maWxlLm1hZT4nLCAnLW9tYWUnLCAnPG91dGZpbGUubWFlPic=

> <r_lp_tautomer_probability>
0.9996

> <r_epik_Ionization_Penalty>
2.12735

> <r_epik_Ionization_Penalty_Charging>
3.86665e-08

> <r_epik_Ionization_Penalty_Neutral>
2.12735

> <r_epik_State_Penalty>
1.70441

> <r_epik_Charging_Adjusted_Penalty>
1.70441

> <i_epik_Tot_Q>
0

> <i_epik_Tot_abs_Q>
0

> <r_epik_Metal_State_Penalty>
1.70441

> <b_epik_Metal_Only>
0

> <s_lp_Force_Field>
OPLS_2005

> <r_lp_Energy>
29.9915

> <b_lp_Chiralities_Consistent>
1

> <s_lp_Variant>
AV-unprocessed.smi:1208-8

> <Gold.Version>
5.8.1

> <Gold.Id.Protein>
6NUR|6NUR_protein|mol2

> <Gold.PLP.Fitness>
41.3522

> <Gold.PLP.PLP>
-34.1958

> <Gold.PLP.part.hbond>
-3.0000

> <Gold.PLP.part.metal>
0.0000

> <Gold.PLP.part.buried>
-3.2413

> <Gold.PLP.part.nonpolar>
-28.7003

> <Gold.PLP.part.repulsive>
0.1640

> <Gold.PLP.ligand.clash>
0.0000

> <Gold.PLP.ligand.torsion>
0.3143

> <Gold.PLP.Chemscore.Hbond>
2.5841

> <Gold.PLP.Chemscore.CHOScore>
0.0000

> <Gold.PLP.Chemscore.Metal>
0.0000

> <Gold.Chemscore.Hbonds>
donor molecule, donor type, donor heavy atom, donor atom, acceptor molecule, acceptor atom, score
      L1  H    10    20       P1  7949  0.73
      P1  H  7989  7998       L1     8  0.80
      P1  H 10752 10763       L1    10  0.64

> <Gold.PLP.Chemscore.Internal.Correction>
0.0328

> <Gold.Rescore>
     Score         DG    S(hbond)    S(metal)    S(lipo)     H(rot)  DE(clash)    DE(int)     intcor
      9.04     -10.85       1.02        0.00      74.29       2.63       0.06       1.75       ----

> <Gold.Chemscore.Fitness>
9.0424

> <Gold.Chemscore.DG>
-10.8538

> <Gold.Chemscore.ZeroCoef>
-5.4800

> <Gold.Chemscore.Hbond>
1.0195

> <Gold.Chemscore.Metal>
0.0000

> <Gold.Chemscore.Lipo>
74.2933

> <Gold.Chemscore.Internal_Hbond>
0.0000

> <Gold.Chemscore.DEClash>
0.0628

> <Gold.Chemscore.DEInternal>
1.7486

> <Gold.Chemscore.Rot>
2.6264

> <Gold.Chemscore.Internal.Correction>
   9.000000E+99

> <Gold.Chemscore.Hbonds>
donor molecule, donor type, donor heavy atom, donor atom, acceptor molecule, acceptor atom, score
      L1  H    10    20       P1  7949  0.70
      P1  H  7989  7998       L1     8  0.11
      P1  H 10752 10763       L1    10  0.09

> <Gold.Chemscore.Hbond.Weighted>
-3.4052

> <Gold.Chemscore.Metal.Weighted>
-0.0000

> <Gold.Chemscore.Lipo.Weighted>
-8.6923

> <Gold.Chemscore.Internal_Hbond.Weighted>
0.0000

> <Gold.Chemscore.DEClash.Weighted>
0.0628

> <Gold.Chemscore.DEInternal.Weighted>
1.7486

> <Gold.Chemscore.Rot.Weighted>
6.7237

> <Gold.Chemscore.Internal.Correction.Weighted>
   9.000000E+99

> <Gold.Protein.RotatedTorsions>
[ 6907 6896 6895 6894 ] final   13.18 input  -60.11 | X-H torsion
[ 7974 7965 7964 7962 ] final   16.69 input  175.53 | X-H torsion
[ 8008 7997 7996 7995 ] final -133.44 input   59.86 | X-H torsion
[ 10167 10162 10161 10158 ] final   73.02 input  -65.29 | X-H torsion
[ 10718 10713 10712 10709 ] final  -23.98 input   66.30 | X-H torsion
[ 10763 10752 10751 10750 ] final   33.12 input  -60.55 | X-H torsion
[ 11005 11000 10999 10996 ] final   64.85 input  -57.11 | X-H torsion

> <Gold.Protein.ActiveResidues>
 VAL166  LYS551  ARG553  GLY616  TRP617  ASP618  TYR619  PRO620  LYS621  CYS622 
 ASP623  PHE694  ASN695  SER759  ASP760  ASP761  ALA762  ILE779  LEU786  VAL792 
 PHE793  MET794  SER795  GLU796  ALA797  LYS798  CYS799  TRP800  GLU811  SER814 

> <Gold.Protein.RotatedAtoms>
  151.7822  135.0758  160.0375 H   0  0  0  0  0  0  0  0  0  0  0  0  # atno 6907 bound_to 6896
  152.3215  133.5854  159.5756 H   0  0  0  0  0  0  0  0  0  0  0  0  # atno 6908 bound_to 6896
  150.7372  133.9920  159.3652 H   0  0  0  0  0  0  0  0  0  0  0  0  # atno 6909 bound_to 6896
  146.2242  139.8712  142.8587 H   0  0  0  0  0  0  0  0  0  0  0  0  # atno 7974 bound_to 7965
  155.3456  140.0474  157.3045 H   0  0  0  0  0  0  0  0  0  0  0  0  # atno 8008 bound_to 7997
  154.5254  140.2239  155.8864 H   0  0  0  0  0  0  0  0  0  0  0  0  # atno 8009 bound_to 7997
  156.1734  140.3090  155.9020 H   0  0  0  0  0  0  0  0  0  0  0  0  # atno 8010 bound_to 7997
  140.0290  144.5480  150.7522 H   0  0  0  0  0  0  0  0  0  0  0  0  # atno 10167 bound_to 10162
  156.4837  130.4551  149.6796 H   0  0  0  0  0  0  0  0  0  0  0  0  # atno 10718 bound_to 10713
  153.0228  135.6395  154.1461 H   0  0  0  0  0  0  0  0  0  0  0  0  # atno 10763 bound_to 10752
  154.1194  135.2847  155.3213 H   0  0  0  0  0  0  0  0  0  0  0  0  # atno 10764 bound_to 10752
  154.6274  135.5504  153.7705 H   0  0  0  0  0  0  0  0  0  0  0  0  # atno 10765 bound_to 10752
  139.9932  134.6558  156.0055 H   0  0  0  0  0  0  0  0  0  0  0  0  # atno 11005 bound_to 11000
  145.2606  141.0076  143.3828 LP  0  0  0  0  0  0  0  0  0  0  0  0  # atno 17320 bound_to 7965
  144.9301  139.4308  143.6499 LP  0  0  0  0  0  0  0  0  0  0  0  0  # atno 17321 bound_to 7965
  140.7310  143.2689  151.3951 LP  0  0  0  0  0  0  0  0  0  0  0  0  # atno 17342 bound_to 10162
  139.6089  144.1140  152.2278 LP  0  0  0  0  0  0  0  0  0  0  0  0  # atno 17343 bound_to 10162
  156.3495  130.7425  151.2382 LP  0  0  0  0  0  0  0  0  0  0  0  0  # atno 17370 bound_to 10713
  157.7481  131.0381  150.4486 LP  0  0  0  0  0  0  0  0  0  0  0  0  # atno 17371 bound_to 10713
  141.1583  133.6541  156.4234 LP  0  0  0  0  0  0  0  0  0  0  0  0  # atno 17394 bound_to 11000
  140.4868  134.6613  157.5194 LP  0  0  0  0  0  0  0  0  0  0  0  0  # atno 17395 bound_to 11000

$$$$
