AV-unprocessed.smi:2159|AV-procd|sdf|8794|dock6
  -GOLD-   2272011573D 1   1.00000     0.00000
 Structure written by MMmdl.
 48 50  0  0  0  0  0  0  0  0  2 V2000
  152.0804  135.3058  156.5267 O   0  0  0  0  0  0  0  0  0  0  0  0
  151.3082  136.2641  156.4818 C   0  0  0  0  0  0  0  0  0  0  0  0
  151.6428  137.5690  157.2098 C   0  0  0  0  0  0  0  0  0  0  0  0
  151.5731  138.8040  156.2894 C   0  0  0  0  0  0  0  0  0  0  0  0
  151.6176  140.0473  157.0627 N   0  0  0  0  0  0  0  0  0  0  0  0
  152.5079  140.3009  158.0407 C   0  0  0  0  0  0  0  0  0  0  0  0
  153.4623  139.6013  158.3785 O   0  0  0  0  0  0  0  0  0  0  0  0
  152.1096  141.5886  158.7464 C   0  0  1  0  0  0  0  0  0  0  0  0
  153.1368  142.5676  159.3166 C   0  0  0  0  0  0  0  0  0  0  0  0
  152.3376  143.7339  159.9567 C   0  0  0  0  0  0  0  0  0  0  0  0
  151.2574  144.3513  159.0200 C   0  0  0  0  0  0  0  0  0  0  0  0
  150.3605  143.3006  158.3129 C   0  0  0  0  0  0  0  0  0  0  0  0
  151.2999  142.2808  157.6678 C   0  0  2  0  0  0  0  0  0  0  0  0
  150.7926  141.0932  156.8635 C   0  0  0  0  0  0  0  0  0  0  0  0
  149.8251  141.1447  156.1046 O   0  0  0  0  0  0  0  0  0  0  0  0
  150.1417  136.2334  155.8188 N   0  0  0  0  0  0  0  0  0  0  0  0
  149.6397  135.0870  155.0704 C   0  0  0  0  0  0  0  0  0  0  0  0
  148.1121  134.9565  155.1931 C   0  0  0  0  0  0  0  0  0  0  0  0
  147.5477  133.9058  154.2574 C   0  0  0  0  0  0  0  0  0  0  0  0
  146.8822  132.7539  154.7306 C   0  0  0  0  0  0  0  0  0  0  0  0
  146.3800  131.8187  153.8015 C   0  0  0  0  0  0  0  0  0  0  0  0
  146.5525  132.0548  152.4218 C   0  0  0  0  0  0  0  0  0  0  0  0
  147.2233  133.2228  152.0048 C   0  0  0  0  0  0  0  0  0  0  0  0
  147.6900  134.0949  152.9253 N   0  3  0  0  0  0  0  0  0  0  0  0
  150.9586  137.6993  158.0498 H   0  0  0  0  0  0  0  0  0  0  0  0
  152.6434  137.4748  157.6330 H   0  0  0  0  0  0  0  0  0  0  0  0
  152.3967  138.7922  155.5730 H   0  0  0  0  0  0  0  0  0  0  0  0
  150.6608  138.7737  155.6904 H   0  0  0  0  0  0  0  0  0  0  0  0
  151.4554  141.2747  159.5632 H   0  0  0  0  0  0  0  0  0  0  0  0
  153.7637  142.0808  160.0643 H   0  0  0  0  0  0  0  0  0  0  0  0
  153.7991  142.9373  158.5328 H   0  0  0  0  0  0  0  0  0  0  0  0
  151.8433  143.3642  160.8560 H   0  0  0  0  0  0  0  0  0  0  0  0
  153.0241  144.5118  160.2920 H   0  0  0  0  0  0  0  0  0  0  0  0
  150.6357  145.0488  159.5818 H   0  0  0  0  0  0  0  0  0  0  0  0
  151.7612  144.9476  158.2584 H   0  0  0  0  0  0  0  0  0  0  0  0
  149.6942  142.8173  159.0286 H   0  0  0  0  0  0  0  0  0  0  0  0
  149.7322  143.7804  157.5618 H   0  0  0  0  0  0  0  0  0  0  0  0
  151.9646  142.8200  156.9886 H   0  0  0  0  0  0  0  0  0  0  0  0
  149.5652  137.0627  155.8315 H   0  0  0  0  0  0  0  0  0  0  0  0
  149.9194  135.2127  154.0240 H   0  0  0  0  0  0  0  0  0  0  0  0
  150.1329  134.1767  155.4158 H   0  0  0  0  0  0  0  0  0  0  0  0
  147.8335  134.6944  156.2149 H   0  0  0  0  0  0  0  0  0  0  0  0
  147.6373  135.9161  154.9833 H   0  0  0  0  0  0  0  0  0  0  0  0
  146.7566  132.5872  155.7908 H   0  0  0  0  0  0  0  0  0  0  0  0
  145.8688  130.9306  154.1435 H   0  0  0  0  0  0  0  0  0  0  0  0
  146.1753  131.3507  151.6944 H   0  0  0  0  0  0  0  0  0  0  0  0
  147.3998  133.4837  150.9714 H   0  0  0  0  0  0  0  0  0  0  0  0
  148.1723  134.9340  152.6017 H   0  0  0  0  0  0  0  0  0  0  0  0
  1  2  2  0  0  0  0
  2  3  1  0  0  0  0
  2 16  1  0  0  0  0
  3  4  1  0  0  0  0
  3 25  1  0  0  0  0
  3 26  1  0  0  0  0
  4  5  1  0  0  0  0
  4 27  1  0  0  0  0
  4 28  1  0  0  0  0
  5 14  1  0  0  0  0
  5  6  1  0  0  0  0
  6  7  2  0  0  0  0
  6  8  1  0  0  0  0
  8 13  1  0  0  0  0
  8  9  1  0  0  0  0
  8 29  1  0  0  0  0
  9 10  1  0  0  0  0
  9 30  1  0  0  0  0
  9 31  1  0  0  0  0
 10 11  1  0  0  0  0
 10 32  1  0  0  0  0
 10 33  1  0  0  0  0
 11 12  1  0  0  0  0
 11 34  1  0  0  0  0
 11 35  1  0  0  0  0
 12 13  1  0  0  0  0
 12 36  1  0  0  0  0
 12 37  1  0  0  0  0
 13 14  1  0  0  0  0
 13 38  1  0  0  0  0
 14 15  2  0  0  0  0
 16 17  1  0  0  0  0
 16 39  1  0  0  0  0
 17 18  1  0  0  0  0
 17 40  1  0  0  0  0
 17 41  1  0  0  0  0
 18 19  1  0  0  0  0
 18 42  1  0  0  0  0
 18 43  1  0  0  0  0
 19 24  1  0  0  0  0
 19 20  2  0  0  0  0
 20 21  1  0  0  0  0
 20 44  1  0  0  0  0
 21 22  2  0  0  0  0
 21 45  1  0  0  0  0
 22 23  1  0  0  0  0
 22 46  1  0  0  0  0
 23 24  2  0  0  0  0
 23 47  1  0  0  0  0
 24 48  1  0  0  0  0
M  CHG  1  24   1
M  END
> <s_m_source_file>
AV-unprocessed.smi

> <i_m_source_file_index>
2159

> <i_lp_mmshare_version>
43012

> <i_f3d_flags>
0

> <s_epik_input>
bjFbY0hdW2NIXVtjSF1bY0hdYzFbQ0gyXVtDSDJdW05IXUMoPU8pW0NIMl1bQ0gyXU4oQzI9TylDKD1PKVtDQEhdKFtDQEBIXTIzKVtDSDJdW0NIMl1bQ0gyXVtDSDJdMw==

> <s_epik_cmdline>
J2VwaWtfcHl0aG9uJywgJy1waCcsICc3LjAnLCAnLXRuJywgJzgnLCAnLW1hJywgJzIwMCcsICctbWV0YWxfYmluZGluZycsICctaW1hZScsICc8aW5maWxlLm1hZT4nLCAnLW9tYWUnLCAnPG91dGZpbGUubWFlPic=

> <r_lp_tautomer_probability>
1

> <r_epik_Ionization_Penalty>
1.85146

> <r_epik_Ionization_Penalty_Charging>
1.85146

> <r_epik_Ionization_Penalty_Neutral>
2.95922e-08

> <r_epik_State_Penalty>
1.96899

> <r_epik_Charging_Adjusted_Penalty>
3.82044

> <i_epik_Tot_Q>
1

> <i_epik_Tot_abs_Q>
1

> <r_epik_Metal_State_Penalty>
1.99467

> <b_epik_Metal_Only>
0

> <s_lp_Force_Field>
OPLS_2005

> <r_lp_Energy>
36.2537

> <b_lp_Chiralities_Consistent>
1

> <s_lp_Variant>
AV-unprocessed.smi:2159-4

> <Gold.Version>
5.8.1

> <Gold.Id.Protein>
6NUR|6NUR_protein|mol2

> <Gold.PLP.Fitness>
48.1541

> <Gold.PLP.PLP>
-36.9501

> <Gold.PLP.part.hbond>
-3.0000

> <Gold.PLP.part.metal>
0.0000

> <Gold.PLP.part.buried>
-4.6473

> <Gold.PLP.part.nonpolar>
-29.1997

> <Gold.PLP.part.repulsive>
0.1186

> <Gold.PLP.ligand.clash>
0.0000

> <Gold.PLP.ligand.torsion>
0.4244

> <Gold.PLP.Chemscore.Hbond>
4.0000

> <Gold.PLP.Chemscore.CHOScore>
0.0000

> <Gold.PLP.Chemscore.Metal>
0.0000

> <Gold.Chemscore.Hbonds>
donor molecule, donor type, donor heavy atom, donor atom, acceptor molecule, acceptor atom, score
      L1  H    24    48       P1  7948  2.00
      P1  H  7997  8008       L1     7  1.00
      P1  H 10752 10764       L1     1  1.00

> <Gold.PLP.Chemscore.Internal.Correction>
0.0530

> <Gold.Rescore>
     Score         DG    S(hbond)    S(metal)    S(lipo)     H(rot)  DE(clash)    DE(int)     intcor
     19.74     -20.86       2.87        0.00      95.38       2.10       0.02       1.11       ----

> <Gold.Chemscore.Fitness>
19.7368

> <Gold.Chemscore.DG>
-20.8628

> <Gold.Chemscore.ZeroCoef>
-5.4800

> <Gold.Chemscore.Hbond>
2.8711

> <Gold.Chemscore.Metal>
0.0000

> <Gold.Chemscore.Lipo>
95.3756

> <Gold.Chemscore.Internal_Hbond>
0.0000

> <Gold.Chemscore.DEClash>
0.0180

> <Gold.Chemscore.DEInternal>
1.1081

> <Gold.Chemscore.Rot>
2.0959

> <Gold.Chemscore.Internal.Correction>
   9.000000E+99

> <Gold.Chemscore.Hbonds>
donor molecule, donor type, donor heavy atom, donor atom, acceptor molecule, acceptor atom, score
      L1  H    24    48       P1  7948  0.74
      P1  H  7997  8008       L1     7  0.30
      P1  H 10752 10764       L1     1  0.78

> <Gold.Chemscore.Hbond.Weighted>
-9.5894

> <Gold.Chemscore.Metal.Weighted>
-0.0000

> <Gold.Chemscore.Lipo.Weighted>
-11.1589

> <Gold.Chemscore.Internal_Hbond.Weighted>
0.0000

> <Gold.Chemscore.DEClash.Weighted>
0.0180

> <Gold.Chemscore.DEInternal.Weighted>
1.1081

> <Gold.Chemscore.Rot.Weighted>
5.3655

> <Gold.Chemscore.Internal.Correction.Weighted>
   9.000000E+99

> <Gold.Protein.RotatedTorsions>
[ 6907 6896 6895 6894 ] final   97.53 input  -60.11 | X-H torsion
[ 7974 7965 7964 7962 ] final  -24.34 input  175.53 | X-H torsion
[ 8008 7997 7996 7995 ] final  -92.26 input   59.86 | X-H torsion
[ 10167 10162 10161 10158 ] final   74.34 input  -65.29 | X-H torsion
[ 10718 10713 10712 10709 ] final  -59.90 input   66.30 | X-H torsion
[ 10763 10752 10751 10750 ] final  -16.17 input  -60.55 | X-H torsion
[ 11005 11000 10999 10996 ] final -179.38 input  -57.11 | X-H torsion

> <Gold.Protein.ActiveResidues>
 VAL166  LYS551  ARG553  GLY616  TRP617  ASP618  TYR619  PRO620  LYS621  CYS622 
 ASP623  PHE694  ASN695  SER759  ASP760  ASP761  ALA762  ILE779  LEU786  VAL792 
 PHE793  MET794  SER795  GLU796  ALA797  LYS798  CYS799  TRP800  GLU811  SER814 

> <Gold.Protein.RotatedAtoms>
  152.5422  134.0719  159.8197 H   0  0  0  0  0  0  0  0  0  0  0  0  # atno 6907 bound_to 6896
  151.0832  133.5366  159.2626 H   0  0  0  0  0  0  0  0  0  0  0  0  # atno 6908 bound_to 6896
  151.2185  135.0518  159.8994 H   0  0  0  0  0  0  0  0  0  0  0  0  # atno 6909 bound_to 6896
  146.1561  140.4738  142.8591 H   0  0  0  0  0  0  0  0  0  0  0  0  # atno 7974 bound_to 7965
  154.7209  140.0511  157.0638 H   0  0  0  0  0  0  0  0  0  0  0  0  # atno 8008 bound_to 7997
  155.0429  140.3170  155.4699 H   0  0  0  0  0  0  0  0  0  0  0  0  # atno 8009 bound_to 7997
  156.2816  140.2129  156.5553 H   0  0  0  0  0  0  0  0  0  0  0  0  # atno 8010 bound_to 7997
  140.0148  144.5586  150.7629 H   0  0  0  0  0  0  0  0  0  0  0  0  # atno 10167 bound_to 10162
  156.1028  130.4184  150.0780 H   0  0  0  0  0  0  0  0  0  0  0  0  # atno 10718 bound_to 10713
  153.5545  135.7011  153.5576 H   0  0  0  0  0  0  0  0  0  0  0  0  # atno 10763 bound_to 10752
  153.3485  135.4001  155.1627 H   0  0  0  0  0  0  0  0  0  0  0  0  # atno 10764 bound_to 10752
  154.8656  135.3759  154.5058 H   0  0  0  0  0  0  0  0  0  0  0  0  # atno 10765 bound_to 10752
  140.4193  134.6620  157.4655 H   0  0  0  0  0  0  0  0  0  0  0  0  # atno 11005 bound_to 11000
  144.7965  140.6132  143.6507 LP  0  0  0  0  0  0  0  0  0  0  0  0  # atno 17320 bound_to 7965
  145.4705  139.1504  143.3816 LP  0  0  0  0  0  0  0  0  0  0  0  0  # atno 17321 bound_to 7965
  140.7367  143.2756  151.3753 LP  0  0  0  0  0  0  0  0  0  0  0  0  # atno 17342 bound_to 10162
  139.6180  144.0963  152.2364 LP  0  0  0  0  0  0  0  0  0  0  0  0  # atno 17343 bound_to 10162
  156.8763  130.9541  151.3604 LP  0  0  0  0  0  0  0  0  0  0  0  0  # atno 17370 bound_to 10713
  157.6201  130.8648  149.9094 LP  0  0  0  0  0  0  0  0  0  0  0  0  # atno 17371 bound_to 10713
  140.0211  134.6545  155.9238 LP  0  0  0  0  0  0  0  0  0  0  0  0  # atno 17394 bound_to 11000
  141.1790  133.6544  156.4944 LP  0  0  0  0  0  0  0  0  0  0  0  0  # atno 17395 bound_to 11000

$$$$
