AV-unprocessed.smi:189|AV-procd|sdf|1486|dock3
  -GOLD-   2262019303D 1   1.00000     0.00000
 Structure written by MMmdl.
 53 57  0  0  0  0  0  0  0  0  1 V2000
  149.3644  141.8059  156.0666 C   0  0  0  0  0  0  0  0  0  0  0  0
  150.8187  141.8058  156.5595 C   0  0  1  0  0  0  0  0  0  0  0  0
  151.1306  142.9247  157.5833 C   0  0  0  0  0  0  0  0  0  0  0  0
  151.6486  142.1628  158.8029 C   0  0  2  0  0  0  0  0  0  0  0  0
  152.7049  142.8217  159.6981 C   0  0  0  0  0  0  0  0  0  0  0  0
  153.1275  141.8220  160.7966 C   0  0  0  0  0  0  0  0  0  0  0  0
  153.5745  140.4590  160.2180 C   0  0  0  0  0  0  0  0  0  0  0  0
  152.5350  139.8578  159.2484 C   0  0  0  0  0  0  0  0  0  0  0  0
  152.2021  140.8989  158.1685 C   0  0  1  0  0  0  0  0  0  0  0  0
  151.1730  140.5400  157.2098 N   0  0  0  0  0  0  0  0  0  0  0  0
  151.4833  139.5104  156.3900 C   0  0  0  0  0  0  0  0  0  0  0  0
  152.5121  139.6157  155.5075 N   0  0  0  0  0  0  0  0  0  0  0  0
  152.8196  138.5835  154.7165 C   0  0  0  0  0  0  0  0  0  0  0  0
  152.2423  137.3816  154.6494 N   0  0  0  0  0  0  0  0  0  0  0  0
  151.2102  137.2763  155.5354 C   0  0  0  0  0  0  0  0  0  0  0  0
  150.7702  138.2850  156.4365 C   0  0  0  0  0  0  0  0  0  0  0  0
  149.7019  137.8201  157.1917 N   0  0  0  0  0  0  0  0  0  0  0  0
  149.5193  136.6015  156.7606 C   0  0  0  0  0  0  0  0  0  0  0  0
  150.3750  136.1956  155.7601 N   0  0  0  0  0  0  0  0  0  0  0  0
  150.3960  134.8960  155.1051 C   0  0  0  0  0  0  0  0  0  0  0  0
  149.0078  134.4261  154.6073 C   0  0  2  0  0  0  0  0  0  0  0  0
  148.3535  135.5155  153.9820 O   0  0  0  0  0  0  0  0  0  0  0  0
  148.1281  133.9028  155.7450 C   0  0  0  0  0  0  0  0  0  0  0  0
  148.0841  132.3993  155.5013 C   0  0  0  0  0  0  0  0  0  0  0  0
  148.0958  132.3150  154.0876 O   0  0  0  0  0  0  0  0  0  0  0  0
  149.0692  133.2396  153.6239 C   0  0  0  0  0  0  0  0  0  0  0  0
  149.1119  142.7568  155.5971 H   0  0  0  0  0  0  0  0  0  0  0  0
  148.6684  141.6442  156.8904 H   0  0  0  0  0  0  0  0  0  0  0  0
  149.1975  141.0195  155.3298 H   0  0  0  0  0  0  0  0  0  0  0  0
  151.4641  141.9626  155.6940 H   0  0  0  0  0  0  0  0  0  0  0  0
  151.8995  143.5881  157.1851 H   0  0  0  0  0  0  0  0  0  0  0  0
  150.2607  143.5339  157.8313 H   0  0  0  0  0  0  0  0  0  0  0  0
  150.7857  141.8994  159.4187 H   0  0  0  0  0  0  0  0  0  0  0  0
  153.5726  143.1141  159.1053 H   0  0  0  0  0  0  0  0  0  0  0  0
  152.3071  143.7316  160.1481 H   0  0  0  0  0  0  0  0  0  0  0  0
  153.9290  142.2501  161.3994 H   0  0  0  0  0  0  0  0  0  0  0  0
  152.2884  141.6612  161.4748 H   0  0  0  0  0  0  0  0  0  0  0  0
  154.5200  140.5898  159.6903 H   0  0  0  0  0  0  0  0  0  0  0  0
  153.7729  139.7584  161.0296 H   0  0  0  0  0  0  0  0  0  0  0  0
  152.9298  138.9474  158.7964 H   0  0  0  0  0  0  0  0  0  0  0  0
  151.6326  139.5749  159.7923 H   0  0  0  0  0  0  0  0  0  0  0  0
  153.1167  141.1417  157.6229 H   0  0  0  0  0  0  0  0  0  0  0  0
  153.6479  138.7428  154.0418 H   0  0  0  0  0  0  0  0  0  0  0  0
  148.7471  135.9607  157.1612 H   0  0  0  0  0  0  0  0  0  0  0  0
  151.0938  134.9458  154.2681 H   0  0  0  0  0  0  0  0  0  0  0  0
  150.8130  134.1700  155.8044 H   0  0  0  0  0  0  0  0  0  0  0  0
  148.8572  135.7700  153.2236 H   0  0  0  0  0  0  0  0  0  0  0  0
  148.5063  134.1499  156.7376 H   0  0  0  0  0  0  0  0  0  0  0  0
  147.1150  134.3026  155.6737 H   0  0  0  0  0  0  0  0  0  0  0  0
  148.9699  131.9089  155.9085 H   0  0  0  0  0  0  0  0  0  0  0  0
  147.1989  131.9277  155.9286 H   0  0  0  0  0  0  0  0  0  0  0  0
  148.8891  133.5211  152.5855 H   0  0  0  0  0  0  0  0  0  0  0  0
  150.0380  132.7417  153.6660 H   0  0  0  0  0  0  0  0  0  0  0  0
  1  2  1  0  0  0  0
  1 27  1  0  0  0  0
  1 28  1  0  0  0  0
  1 29  1  0  0  0  0
  2 10  1  0  0  0  0
  2  3  1  0  0  0  0
  2 30  1  0  0  0  0
  3  4  1  0  0  0  0
  3 31  1  0  0  0  0
  3 32  1  0  0  0  0
  4  9  1  0  0  0  0
  4  5  1  0  0  0  0
  4 33  1  0  0  0  0
  5  6  1  0  0  0  0
  5 34  1  0  0  0  0
  5 35  1  0  0  0  0
  6  7  1  0  0  0  0
  6 36  1  0  0  0  0
  6 37  1  0  0  0  0
  7  8  1  0  0  0  0
  7 38  1  0  0  0  0
  7 39  1  0  0  0  0
  8  9  1  0  0  0  0
  8 40  1  0  0  0  0
  8 41  1  0  0  0  0
  9 10  1  0  0  0  0
  9 42  1  0  0  0  0
 10 11  1  0  0  0  0
 11 16  1  0  0  0  0
 11 12  2  0  0  0  0
 12 13  1  0  0  0  0
 13 14  2  0  0  0  0
 13 43  1  0  0  0  0
 14 15  1  0  0  0  0
 15 19  1  0  0  0  0
 15 16  2  0  0  0  0
 16 17  1  0  0  0  0
 17 18  2  0  0  0  0
 18 19  1  0  0  0  0
 18 44  1  0  0  0  0
 19 20  1  0  0  0  0
 20 21  1  0  0  0  0
 20 45  1  0  0  0  0
 20 46  1  0  0  0  0
 21 26  1  0  0  0  0
 21 22  1  0  0  0  0
 21 23  1  0  0  0  0
 22 47  1  0  0  0  0
 23 24  1  0  0  0  0
 23 48  1  0  0  0  0
 23 49  1  0  0  0  0
 24 25  1  0  0  0  0
 24 50  1  0  0  0  0
 24 51  1  0  0  0  0
 25 26  1  0  0  0  0
 26 52  1  0  0  0  0
 26 53  1  0  0  0  0
M  END
> <s_m_source_file>
AV-unprocessed.smi

> <i_m_source_file_index>
189

> <i_lp_mmshare_version>
43012

> <i_f3d_flags>
0

> <s_epik_input>
W0NIMl0xW0NIMl1bQ0gyXVtDSDJdW0NASF0oW0NASF0xMilOKFtDQEhdKFtDSDNdKVtDSDJdMiljKG5bY0hdbjMpYyhjMzQpbltjSF1uNFtDSDJdW0NAQF01KFtPSF0pW0NIMl1bQ0gyXU9bQ0gyXTU=

> <s_epik_cmdline>
J2VwaWtfcHl0aG9uJywgJy1waCcsICc3LjAnLCAnLXRuJywgJzgnLCAnLW1hJywgJzIwMCcsICctbWV0YWxfYmluZGluZycsICctaW1hZScsICc8aW5maWxlLm1hZT4nLCAnLW9tYWUnLCAnPG91dGZpbGUubWFlPic=

> <r_lp_tautomer_probability>
1

> <r_epik_Ionization_Penalty>
0.00594261

> <r_epik_Ionization_Penalty_Charging>
0

> <r_epik_Ionization_Penalty_Neutral>
0.00594261

> <r_epik_State_Penalty>
0.00429776

> <r_epik_Charging_Adjusted_Penalty>
0.00429776

> <i_epik_Tot_Q>
0

> <i_epik_Tot_abs_Q>
0

> <r_epik_Metal_State_Penalty>
-0

> <b_epik_Metal_Only>
0

> <s_lp_Force_Field>
OPLS_2005

> <r_lp_Energy>
58.4258

> <b_lp_Chiralities_Consistent>
1

> <s_lp_Variant>
AV-unprocessed.smi:189-12

> <Gold.Version>
5.8.1

> <Gold.Id.Protein>
6NUR|6NUR_protein|mol2

> <Gold.PLP.Fitness>
50.9145

> <Gold.PLP.PLP>
-43.3613

> <Gold.PLP.part.hbond>
-3.1416

> <Gold.PLP.part.metal>
0.0000

> <Gold.PLP.part.buried>
-5.9392

> <Gold.PLP.part.nonpolar>
-35.1803

> <Gold.PLP.part.repulsive>
0.1533

> <Gold.PLP.ligand.clash>
0.0000

> <Gold.PLP.ligand.torsion>
0.3177

> <Gold.PLP.Chemscore.Hbond>
2.7211

> <Gold.PLP.Chemscore.CHOScore>
0.0000

> <Gold.PLP.Chemscore.Metal>
0.0000

> <Gold.Chemscore.Hbonds>
donor molecule, donor type, donor heavy atom, donor atom, acceptor molecule, acceptor atom, score
      L1  H    22    47       P1  7948  0.73
      P1  H  7997  8008       L1    12  1.00
      P1  H 10752 10765       L1    14  0.77

> <Gold.PLP.Chemscore.Internal.Correction>
0.0254

> <Gold.Rescore>
     Score         DG    S(hbond)    S(metal)    S(lipo)     H(rot)  DE(clash)    DE(int)     intcor
     20.07     -20.33       2.60        0.00      97.02       2.03       0.05       0.21       ----

> <Gold.Chemscore.Fitness>
20.0654

> <Gold.Chemscore.DG>
-20.3342

> <Gold.Chemscore.ZeroCoef>
-5.4800

> <Gold.Chemscore.Hbond>
2.6045

> <Gold.Chemscore.Metal>
0.0000

> <Gold.Chemscore.Lipo>
97.0192

> <Gold.Chemscore.Internal_Hbond>
0.0000

> <Gold.Chemscore.DEClash>
0.0545

> <Gold.Chemscore.DEInternal>
0.2143

> <Gold.Chemscore.Rot>
2.0297

> <Gold.Chemscore.Internal.Correction>
   9.000000E+99

> <Gold.Chemscore.Hbonds>
donor molecule, donor type, donor heavy atom, donor atom, acceptor molecule, acceptor atom, score
      L1  H    22    47       P1  7948  0.67
      P1  H  7997  8008       L1    12  0.24
      P1  H 10752 10765       L1    14  0.46

> <Gold.Chemscore.Hbond.Weighted>
-8.6989

> <Gold.Chemscore.Metal.Weighted>
-0.0000

> <Gold.Chemscore.Lipo.Weighted>
-11.3512

> <Gold.Chemscore.Internal_Hbond.Weighted>
0.0000

> <Gold.Chemscore.DEClash.Weighted>
0.0545

> <Gold.Chemscore.DEInternal.Weighted>
0.2143

> <Gold.Chemscore.Rot.Weighted>
5.1960

> <Gold.Chemscore.Internal.Correction.Weighted>
   9.000000E+99

> <Gold.Protein.RotatedTorsions>
[ 6907 6896 6895 6894 ] final -114.69 input  -60.11 | X-H torsion
[ 7974 7965 7964 7962 ] final   91.44 input  175.53 | X-H torsion
[ 8008 7997 7996 7995 ] final  -31.31 input   59.86 | X-H torsion
[ 10167 10162 10161 10158 ] final  179.85 input  -65.29 | X-H torsion
[ 10718 10713 10712 10709 ] final -166.09 input   66.30 | X-H torsion
[ 10763 10752 10751 10750 ] final  170.84 input  -60.55 | X-H torsion
[ 11005 11000 10999 10996 ] final -132.96 input  -57.11 | X-H torsion

> <Gold.Protein.ActiveResidues>
 VAL166  LYS551  ARG553  GLY616  TRP617  ASP618  TYR619  PRO620  LYS621  CYS622 
 ASP623  PHE694  ASN695  SER759  ASP760  ASP761  ALA762  ILE779  LEU786  VAL792 
 PHE793  MET794  SER795  GLU796  ALA797  LYS798  CYS799  TRP800  GLU811  SER814 

> <Gold.Protein.RotatedAtoms>
  150.7921  133.8764  159.3273 H   0  0  0  0  0  0  0  0  0  0  0  0  # atno 6907 bound_to 6896
  151.6599  135.0989  160.0187 H   0  0  0  0  0  0  0  0  0  0  0  0  # atno 6908 bound_to 6896
  152.3997  133.6760  159.6341 H   0  0  0  0  0  0  0  0  0  0  0  0  # atno 6909 bound_to 6896
  145.5056  139.2276  143.2753 H   0  0  0  0  0  0  0  0  0  0  0  0  # atno 7974 bound_to 7965
  154.4218  140.1768  156.1546 H   0  0  0  0  0  0  0  0  0  0  0  0  # atno 8008 bound_to 7997
  155.9888  140.3371  155.6708 H   0  0  0  0  0  0  0  0  0  0  0  0  # atno 8009 bound_to 7997
  155.6401  140.0679  157.2612 H   0  0  0  0  0  0  0  0  0  0  0  0  # atno 8010 bound_to 7997
  139.5354  144.2512  152.0783 H   0  0  0  0  0  0  0  0  0  0  0  0  # atno 10167 bound_to 10162
  156.6629  130.9053  151.3032 H   0  0  0  0  0  0  0  0  0  0  0  0  # atno 10718 bound_to 10713
  154.4034  135.2755  155.2082 H   0  0  0  0  0  0  0  0  0  0  0  0  # atno 10763 bound_to 10752
  154.4098  135.6025  153.5950 H   0  0  0  0  0  0  0  0  0  0  0  0  # atno 10764 bound_to 10752
  152.9831  135.5947  154.4305 H   0  0  0  0  0  0  0  0  0  0  0  0  # atno 10765 bound_to 10752
  140.9124  134.1551  157.4379 H   0  0  0  0  0  0  0  0  0  0  0  0  # atno 11005 bound_to 11000
  146.2199  140.5859  142.9022 LP  0  0  0  0  0  0  0  0  0  0  0  0  # atno 17320 bound_to 7965
  144.7756  140.5732  143.6640 LP  0  0  0  0  0  0  0  0  0  0  0  0  # atno 17321 bound_to 7965
  140.1982  144.4685  150.6445 LP  0  0  0  0  0  0  0  0  0  0  0  0  # atno 17342 bound_to 10162
  140.6558  143.2237  151.5973 LP  0  0  0  0  0  0  0  0  0  0  0  0  # atno 17343 bound_to 10162
  157.7103  130.9433  150.1068 LP  0  0  0  0  0  0  0  0  0  0  0  0  # atno 17370 bound_to 10713
  156.1997  130.3659  149.8803 LP  0  0  0  0  0  0  0  0  0  0  0  0  # atno 17371 bound_to 10713
  139.8760  134.9940  156.5674 LP  0  0  0  0  0  0  0  0  0  0  0  0  # atno 17394 bound_to 11000
  140.8094  133.8441  155.8796 LP  0  0  0  0  0  0  0  0  0  0  0  0  # atno 17395 bound_to 11000

$$$$
