AV-unprocessed.smi:937|AV-procd|sdf|4212|dock9
  -GOLD-   22720 2123D 1   1.00000     0.00000
 Structure written by MMmdl.
 45 46  0  0  0  0  0  0  0  0  1 V2000
  153.6083  141.0218  159.9466 C   0  0  0  0  0  0  0  0  0  0  0  0
  152.7997  140.5128  158.7717 C   0  0  0  0  0  0  0  0  0  0  0  0
  151.6400  141.1915  158.3413 C   0  0  0  0  0  0  0  0  0  0  0  0
  150.9242  140.6683  157.2471 C   0  0  0  0  0  0  0  0  0  0  0  0
  151.3939  139.4923  156.6269 C   0  0  0  0  0  0  0  0  0  0  0  0
  150.6565  138.8794  155.4526 C   0  0  0  0  0  0  0  0  0  0  0  0
  151.5079  137.8332  154.7213 C   0  0  0  0  0  0  0  0  0  0  0  0
  150.6663  136.7800  154.1711 N   0  0  0  0  0  0  0  0  0  0  0  0
  150.6520  135.5103  154.6074 C   0  0  0  0  0  0  0  0  0  0  0  0
  151.3507  135.1054  155.5344 O   0  0  0  0  0  0  0  0  0  0  0  0
  149.8156  134.6935  153.9418 N   0  0  0  0  0  0  0  0  0  0  0  0
  149.5622  133.2657  154.1610 C   0  0  1  0  0  0  0  0  0  0  0  0
  148.9752  132.9944  155.5634 C   0  0  0  0  0  0  0  0  0  0  0  0
  147.5377  133.5209  155.7004 C   0  0  0  0  0  0  0  0  0  0  0  0
  146.6272  132.9476  154.6037 C   0  0  0  0  0  0  0  0  0  0  0  0
  147.1765  133.2456  153.1927 C   0  0  2  0  0  0  0  0  0  0  0  0
  146.2605  132.6847  152.0853 C   0  0  0  0  0  0  0  0  0  0  0  0
  145.0090  133.1187  152.2388 F   0  0  0  0  0  0  0  0  0  0  0  0
  146.7049  133.0656  150.8877 F   0  0  0  0  0  0  0  0  0  0  0  0
  146.2623  131.3522  152.1244 F   0  0  0  0  0  0  0  0  0  0  0  0
  148.6261  132.7223  153.0624 C   0  0  0  0  0  0  0  0  0  0  0  0
  152.5662  138.8927  157.1336 C   0  0  0  0  0  0  0  0  0  0  0  0
  153.2584  139.3864  158.1827 N   0  0  0  0  0  0  0  0  0  0  0  0
  153.1831  141.9404  160.3519 H   0  0  0  0  0  0  0  0  0  0  0  0
  154.6344  141.2285  159.6409 H   0  0  0  0  0  0  0  0  0  0  0  0
  153.6289  140.2770  160.7427 H   0  0  0  0  0  0  0  0  0  0  0  0
  151.3034  142.0902  158.8371 H   0  0  0  0  0  0  0  0  0  0  0  0
  150.0303  141.1614  156.8945 H   0  0  0  0  0  0  0  0  0  0  0  0
  149.7282  138.4287  155.8065 H   0  0  0  0  0  0  0  0  0  0  0  0
  150.3700  139.6763  154.7649 H   0  0  0  0  0  0  0  0  0  0  0  0
  152.0724  138.3115  153.9191 H   0  0  0  0  0  0  0  0  0  0  0  0
  152.2322  137.3888  155.4052 H   0  0  0  0  0  0  0  0  0  0  0  0
  150.0614  137.0282  153.4019 H   0  0  0  0  0  0  0  0  0  0  0  0
  149.3134  135.1081  153.1702 H   0  0  0  0  0  0  0  0  0  0  0  0
  150.5103  132.7326  154.0699 H   0  0  0  0  0  0  0  0  0  0  0  0
  148.9760  131.9190  155.7457 H   0  0  0  0  0  0  0  0  0  0  0  0
  149.6053  133.4285  156.3402 H   0  0  0  0  0  0  0  0  0  0  0  0
  147.1413  133.2607  156.6822 H   0  0  0  0  0  0  0  0  0  0  0  0
  147.5356  134.6104  155.6486 H   0  0  0  0  0  0  0  0  0  0  0  0
  146.5275  131.8703  154.7419 H   0  0  0  0  0  0  0  0  0  0  0  0
  145.6259  133.3652  154.7126 H   0  0  0  0  0  0  0  0  0  0  0  0
  147.1988  134.3297  153.0710 H   0  0  0  0  0  0  0  0  0  0  0  0
  149.0297  132.9729  152.0805 H   0  0  0  0  0  0  0  0  0  0  0  0
  148.6189  131.6328  153.1136 H   0  0  0  0  0  0  0  0  0  0  0  0
  152.9575  137.9898  156.6885 H   0  0  0  0  0  0  0  0  0  0  0  0
  1  2  1  0  0  0  0
  1 24  1  0  0  0  0
  1 25  1  0  0  0  0
  1 26  1  0  0  0  0
  2 23  1  0  0  0  0
  2  3  2  0  0  0  0
  3  4  1  0  0  0  0
  3 27  1  0  0  0  0
  4  5  2  0  0  0  0
  4 28  1  0  0  0  0
  5  6  1  0  0  0  0
  5 22  1  0  0  0  0
  6  7  1  0  0  0  0
  6 29  1  0  0  0  0
  6 30  1  0  0  0  0
  7  8  1  0  0  0  0
  7 31  1  0  0  0  0
  7 32  1  0  0  0  0
  8  9  1  0  0  0  0
  8 33  1  0  0  0  0
  9 10  2  0  0  0  0
  9 11  1  0  0  0  0
 11 12  1  0  0  0  0
 11 34  1  0  0  0  0
 12 21  1  0  0  0  0
 12 13  1  0  0  0  0
 12 35  1  0  0  0  0
 13 14  1  0  0  0  0
 13 36  1  0  0  0  0
 13 37  1  0  0  0  0
 14 15  1  0  0  0  0
 14 38  1  0  0  0  0
 14 39  1  0  0  0  0
 15 16  1  0  0  0  0
 15 40  1  0  0  0  0
 15 41  1  0  0  0  0
 16 17  1  0  0  0  0
 16 21  1  0  0  0  0
 16 42  1  0  0  0  0
 17 18  1  0  0  0  0
 17 19  1  0  0  0  0
 17 20  1  0  0  0  0
 21 43  1  0  0  0  0
 21 44  1  0  0  0  0
 22 23  2  0  0  0  0
 22 45  1  0  0  0  0
M  END
> <s_m_source_file>
AV-unprocessed.smi

> <i_m_source_file_index>
937

> <i_lp_mmshare_version>
43012

> <i_f3d_flags>
0

> <s_epik_input>
W0NIM11jMVtjSF1bY0hdYyhbY0hdbjEpW0NIMl1bQ0gyXVtOSF1DKD1PKVtOSF1bQ0BASF0yW0NIMl1bQ0gyXVtDSDJdW0NAQEhdKEMoRikoRilGKVtDSDJdMg==

> <s_epik_cmdline>
J2VwaWtfcHl0aG9uJywgJy1waCcsICc3LjAnLCAnLXRuJywgJzgnLCAnLW1hJywgJzIwMCcsICctbWV0YWxfYmluZGluZycsICctaW1hZScsICc8aW5maWxlLm1hZT4nLCAnLW9tYWUnLCAnPG91dGZpbGUubWFlPic=

> <r_epik_Ionization_Penalty>
0.0563445

> <r_epik_Ionization_Penalty_Charging>
0

> <r_epik_Ionization_Penalty_Neutral>
0.0563445

> <r_epik_State_Penalty>
0.0485409

> <r_epik_Charging_Adjusted_Penalty>
0.0485409

> <i_epik_Tot_Q>
0

> <i_epik_Tot_abs_Q>
0

> <r_epik_Metal_State_Penalty>
0.0443056

> <b_epik_Metal_Only>
0

> <s_lp_Force_Field>
OPLS_2005

> <r_lp_Energy>
18.524

> <b_lp_Chiralities_Consistent>
1

> <s_lp_Variant>
AV-unprocessed.smi:937-4

> <Gold.Version>
5.8.1

> <Gold.Id.Protein>
6NUR|6NUR_protein|mol2

> <Gold.PLP.Fitness>
46.7477

> <Gold.PLP.PLP>
-37.0286

> <Gold.PLP.part.hbond>
-5.4979

> <Gold.PLP.part.metal>
0.0000

> <Gold.PLP.part.buried>
-2.3478

> <Gold.PLP.part.nonpolar>
-30.7698

> <Gold.PLP.part.repulsive>
0.1765

> <Gold.PLP.ligand.clash>
0.0000

> <Gold.PLP.ligand.torsion>
0.4671

> <Gold.PLP.Chemscore.Hbond>
3.5353

> <Gold.PLP.Chemscore.CHOScore>
0.0000

> <Gold.PLP.Chemscore.Metal>
0.0000

> <Gold.Chemscore.Hbonds>
donor molecule, donor type, donor heavy atom, donor atom, acceptor molecule, acceptor atom, score
      L1  H     8    33       P1  7948  0.76
      L1  H    11    34       P1  7948  0.60
      P1  H  7997  8010       L1    23  0.85
      P1  H 10752 10764       L1    10  0.91

> <Gold.PLP.Chemscore.Internal.Correction>
0.0476

> <Gold.Rescore>
     Score         DG    S(hbond)    S(metal)    S(lipo)     H(rot)  DE(clash)    DE(int)     intcor
     17.26     -17.99       2.14        0.00      80.55       1.58       0.26       0.47       ----

> <Gold.Chemscore.Fitness>
17.2635

> <Gold.Chemscore.DG>
-17.9948

> <Gold.Chemscore.ZeroCoef>
-5.4800

> <Gold.Chemscore.Hbond>
2.1400

> <Gold.Chemscore.Metal>
0.0000

> <Gold.Chemscore.Lipo>
80.5521

> <Gold.Chemscore.Internal_Hbond>
0.0000

> <Gold.Chemscore.DEClash>
0.2610

> <Gold.Chemscore.DEInternal>
0.4702

> <Gold.Chemscore.Rot>
1.5849

> <Gold.Chemscore.Internal.Correction>
   9.000000E+99

> <Gold.Chemscore.Hbonds>
donor molecule, donor type, donor heavy atom, donor atom, acceptor molecule, acceptor atom, score
      L1  H     8    33       P1  7948  0.14
      L1  H    11    34       P1  7948  0.04
      P1  H  7997  8010       L1    23  0.06
      P1  H 10752 10764       L1    10  0.36

> <Gold.Chemscore.Hbond.Weighted>
-7.1476

> <Gold.Chemscore.Metal.Weighted>
-0.0000

> <Gold.Chemscore.Lipo.Weighted>
-9.4246

> <Gold.Chemscore.Internal_Hbond.Weighted>
0.0000

> <Gold.Chemscore.DEClash.Weighted>
0.2610

> <Gold.Chemscore.DEInternal.Weighted>
0.4702

> <Gold.Chemscore.Rot.Weighted>
4.0574

> <Gold.Chemscore.Internal.Correction.Weighted>
   9.000000E+99

> <Gold.Protein.RotatedTorsions>
[ 6907 6896 6895 6894 ] final  115.11 input  -60.11 | X-H torsion
[ 7974 7965 7964 7962 ] final -115.39 input  175.53 | X-H torsion
[ 8008 7997 7996 7995 ] final   19.72 input   59.86 | X-H torsion
[ 10167 10162 10161 10158 ] final -142.98 input  -65.29 | X-H torsion
[ 10718 10713 10712 10709 ] final -162.89 input   66.30 | X-H torsion
[ 10763 10752 10751 10750 ] final  -35.58 input  -60.55 | X-H torsion
[ 11005 11000 10999 10996 ] final   17.83 input  -57.11 | X-H torsion

> <Gold.Protein.ActiveResidues>
 VAL166  LYS551  ARG553  GLY616  TRP617  ASP618  TYR619  PRO620  LYS621  CYS622 
 ASP623  PHE694  ASN695  SER759  ASP760  ASP761  ALA762  ILE779  LEU786  VAL792 
 PHE793  MET794  SER795  GLU796  ALA797  LYS798  CYS799  TRP800  GLU811  SER814 

> <Gold.Protein.RotatedAtoms>
  152.4762  133.8144  159.7019 H   0  0  0  0  0  0  0  0  0  0  0  0  # atno 6907 bound_to 6896
  150.8780  133.7402  159.2947 H   0  0  0  0  0  0  0  0  0  0  0  0  # atno 6908 bound_to 6896
  151.4915  135.1061  159.9857 H   0  0  0  0  0  0  0  0  0  0  0  0  # atno 6909 bound_to 6896
  145.1090  140.8600  143.3881 H   0  0  0  0  0  0  0  0  0  0  0  0  # atno 7974 bound_to 7965
  154.9249  140.3032  155.5197 H   0  0  0  0  0  0  0  0  0  0  0  0  # atno 8008 bound_to 7997
  156.3007  140.2364  156.4239 H   0  0  0  0  0  0  0  0  0  0  0  0  # atno 8009 bound_to 7997
  154.8294  140.0419  157.1455 H   0  0  0  0  0  0  0  0  0  0  0  0  # atno 8010 bound_to 7997
  139.8037  143.7798  152.2660 H   0  0  0  0  0  0  0  0  0  0  0  0  # atno 10167 bound_to 10162
  156.6169  130.8874  151.2949 H   0  0  0  0  0  0  0  0  0  0  0  0  # atno 10718 bound_to 10713
  153.8655  135.6836  153.4779 H   0  0  0  0  0  0  0  0  0  0  0  0  # atno 10763 bound_to 10752
  153.1317  135.4695  154.9357 H   0  0  0  0  0  0  0  0  0  0  0  0  # atno 10764 bound_to 10752
  154.7739  135.3247  154.8083 H   0  0  0  0  0  0  0  0  0  0  0  0  # atno 10765 bound_to 10752
  140.4316  134.1414  155.7681 H   0  0  0  0  0  0  0  0  0  0  0  0  # atno 11005 bound_to 11000
  145.0868  139.2919  143.5755 LP  0  0  0  0  0  0  0  0  0  0  0  0  # atno 17320 bound_to 7965
  146.3527  140.0393  142.8644 LP  0  0  0  0  0  0  0  0  0  0  0  0  # atno 17321 bound_to 7965
  139.7926  144.7404  150.9934 LP  0  0  0  0  0  0  0  0  0  0  0  0  # atno 17342 bound_to 10162
  140.7819  143.4427  151.0528 LP  0  0  0  0  0  0  0  0  0  0  0  0  # atno 17343 bound_to 10162
  157.7239  130.9595  150.1551 LP  0  0  0  0  0  0  0  0  0  0  0  0  # atno 17370 bound_to 10713
  156.2344  130.3685  149.8408 LP  0  0  0  0  0  0  0  0  0  0  0  0  # atno 17371 bound_to 10713
  141.1743  133.8545  157.1471 LP  0  0  0  0  0  0  0  0  0  0  0  0  # atno 17394 bound_to 11000
  140.0130  134.9979  157.0436 LP  0  0  0  0  0  0  0  0  0  0  0  0  # atno 17395 bound_to 11000

$$$$
