AV-unprocessed.smi:2527|AV-procd|sdf|9947|dock10
  -GOLD-   2272013593D 1   1.00000     0.00000
 Structure written by MMmdl.
 36 38  0  0  0  0  0  0  0  0  3 V2000
  148.0886  127.7170  151.6259 C   0  0  0  0  0  0  0  0  0  0  0  0
  147.5612  128.7772  152.4034 O   0  0  0  0  0  0  0  0  0  0  0  0
  148.4848  129.2562  153.3678 C   0  0  0  0  0  0  0  0  0  0  0  0
  147.8335  130.3592  154.2141 C   0  0  0  0  0  0  0  0  0  0  0  0
  147.6808  131.6161  153.4669 N   0  0  0  0  0  0  0  0  0  0  0  0
  148.3841  132.7796  153.5537 C   0  0  0  0  0  0  0  0  0  0  0  0
  149.7309  133.1033  154.6453 S   0  0  0  0  0  0  0  0  0  0  0  0
  149.1816  134.4658  155.7086 C   0  0  0  0  0  0  0  0  0  0  0  0
  149.6626  135.8160  155.2634 C   0  0  0  0  0  0  0  0  0  0  0  0
  150.9945  136.0159  155.0793 N   0  5  0  0  0  0  0  0  0  0  0  0
  151.0730  137.2998  154.6859 C   0  0  0  0  0  0  0  0  0  0  0  0
  152.0596  137.9709  154.3912 O   0  0  0  0  0  0  0  0  0  0  0  0
  149.8246  137.7724  154.6621 N   0  0  0  0  0  0  0  0  0  0  0  0
  148.9298  136.8388  155.0259 N   0  0  0  0  0  0  0  0  0  0  0  0
  147.8620  133.6468  152.6428 N   0  3  0  0  0  0  0  0  0  0  0  0
  146.8130  133.0292  151.9593 C   0  0  0  0  0  0  0  0  0  0  0  0
  145.9835  133.5010  150.9465 C   0  0  0  0  0  0  0  0  0  0  0  0
  145.0067  132.6082  150.4580 C   0  0  0  0  0  0  0  0  0  0  0  0
  143.9442  133.1233  149.2003 Cl  0  0  0  0  0  0  0  0  0  0  0  0
  144.8839  131.3026  150.9769 C   0  0  0  0  0  0  0  0  0  0  0  0
  145.7293  130.8348  152.0043 C   0  0  0  0  0  0  0  0  0  0  0  0
  146.6915  131.7244  152.4822 C   0  0  0  0  0  0  0  0  0  0  0  0
  149.5178  138.7004  154.4100 H   0  0  0  0  0  0  0  0  0  0  0  0
  147.3421  127.3854  150.9044 H   0  0  0  0  0  0  0  0  0  0  0  0
  148.3556  126.8640  152.2510 H   0  0  0  0  0  0  0  0  0  0  0  0
  148.9729  128.0364  151.0729 H   0  0  0  0  0  0  0  0  0  0  0  0
  148.8071  128.4381  154.0135 H   0  0  0  0  0  0  0  0  0  0  0  0
  149.3739  129.6480  152.8706 H   0  0  0  0  0  0  0  0  0  0  0  0
  146.8610  130.0432  154.5912 H   0  0  0  0  0  0  0  0  0  0  0  0
  148.4473  130.5677  155.0908 H   0  0  0  0  0  0  0  0  0  0  0  0
  148.0917  134.4580  155.7394 H   0  0  0  0  0  0  0  0  0  0  0  0
  149.5191  134.2667  156.7267 H   0  0  0  0  0  0  0  0  0  0  0  0
  146.0783  134.5002  150.5475 H   0  0  0  0  0  0  0  0  0  0  0  0
  144.1260  130.6437  150.5785 H   0  0  0  0  0  0  0  0  0  0  0  0
  145.6286  129.8305  152.3883 H   0  0  0  0  0  0  0  0  0  0  0  0
  148.2013  134.5898  152.5033 H   0  0  0  0  0  0  0  0  0  0  0  0
  1  2  1  0  0  0  0
  1 24  1  0  0  0  0
  1 25  1  0  0  0  0
  1 26  1  0  0  0  0
  2  3  1  0  0  0  0
  3  4  1  0  0  0  0
  3 27  1  0  0  0  0
  3 28  1  0  0  0  0
  4  5  1  0  0  0  0
  4 29  1  0  0  0  0
  4 30  1  0  0  0  0
  5 22  1  0  0  0  0
  5  6  1  0  0  0  0
  6  7  1  0  0  0  0
  6 15  2  0  0  0  0
  7  8  1  0  0  0  0
  8 31  1  0  0  0  0
  8 32  1  0  0  0  0
  8  9  1  0  0  0  0
  9 14  2  0  0  0  0
  9 10  1  0  0  0  0
 10 11  1  0  0  0  0
 11 13  1  0  0  0  0
 11 12  2  0  0  0  0
 13 14  1  0  0  0  0
 13 23  1  0  0  0  0
 15 16  1  0  0  0  0
 15 36  1  0  0  0  0
 16 22  2  0  0  0  0
 16 17  1  0  0  0  0
 17 18  2  0  0  0  0
 17 33  1  0  0  0  0
 18 19  1  0  0  0  0
 18 20  1  0  0  0  0
 20 21  2  0  0  0  0
 20 34  1  0  0  0  0
 21 22  1  0  0  0  0
 21 35  1  0  0  0  0
M  CHG  1  10  -1
M  CHG  1  15   1
M  END
> <s_m_source_file>
AV-unprocessed.smi

> <i_m_source_file_index>
2527

> <i_lp_mmshare_version>
43012

> <i_f3d_flags>
0

> <s_epik_input>
W2NIXTFjKENsKVtjSF1bY0hdYyhjMTIpbihbQ0gyXVtDSDJdT1tDSDNdKWMobjIpU1tDSDJdYzNuYyg9TylbbkhdW25IXTM=

> <s_epik_cmdline>
J2VwaWtfcHl0aG9uJywgJy1waCcsICc3LjAnLCAnLXRuJywgJzgnLCAnLW1hJywgJzIwMCcsICctbWV0YWxfYmluZGluZycsICctaW1hZScsICc8aW5maWxlLm1hZT4nLCAnLW9tYWUnLCAnPG91dGZpbGUubWFlPic=

> <r_lp_tautomer_probability>
0.999897

> <r_epik_Ionization_Penalty>
3.64286

> <r_epik_Ionization_Penalty_Charging>
2.48685

> <r_epik_Ionization_Penalty_Neutral>
1.15601

> <r_epik_State_Penalty>
3.71863

> <r_epik_Charging_Adjusted_Penalty>
6.20549

> <i_epik_Tot_Q>
0

> <i_epik_Tot_abs_Q>
2

> <r_epik_Metal_State_Penalty>
2.92967

> <b_epik_Metal_Only>
1

> <s_lp_Force_Field>
OPLS_2005

> <r_lp_Energy>
23.3692

> <b_lp_Chiralities_Consistent>
1

> <s_lp_Variant>
AV-unprocessed.smi:2527-6

> <Gold.Version>
5.8.1

> <Gold.Id.Protein>
6NUR|6NUR_protein|mol2

> <Gold.PLP.Fitness>
51.1920

> <Gold.PLP.PLP>
-40.1698

> <Gold.PLP.part.hbond>
-2.5177

> <Gold.PLP.part.metal>
0.0000

> <Gold.PLP.part.buried>
-4.8932

> <Gold.PLP.part.nonpolar>
-33.9543

> <Gold.PLP.part.repulsive>
0.5946

> <Gold.PLP.ligand.clash>
0.0000

> <Gold.PLP.ligand.torsion>
0.5131

> <Gold.PLP.Chemscore.Hbond>
4.0000

> <Gold.PLP.Chemscore.CHOScore>
0.0000

> <Gold.PLP.Chemscore.Metal>
0.0000

> <Gold.Chemscore.Hbonds>
donor molecule, donor type, donor heavy atom, donor atom, acceptor molecule, acceptor atom, score
      L1  H    15    36       P1  7948  2.00
      P1  H 10752 10765       L1    10  1.57

> <Gold.PLP.Chemscore.Internal.Correction>
0.0485

> <Gold.Rescore>
     Score         DG    S(hbond)    S(metal)    S(lipo)     H(rot)  DE(clash)    DE(int)     intcor
     13.01     -13.83       1.78        0.00      83.54       2.88       0.11       0.70       ----

> <Gold.Chemscore.Fitness>
13.0136

> <Gold.Chemscore.DG>
-13.8262

> <Gold.Chemscore.ZeroCoef>
-5.4800

> <Gold.Chemscore.Hbond>
1.7777

> <Gold.Chemscore.Metal>
0.0000

> <Gold.Chemscore.Lipo>
83.5364

> <Gold.Chemscore.Internal_Hbond>
0.0000

> <Gold.Chemscore.DEClash>
0.1096

> <Gold.Chemscore.DEInternal>
0.7030

> <Gold.Chemscore.Rot>
2.8770

> <Gold.Chemscore.Internal.Correction>
   9.000000E+99

> <Gold.Chemscore.Hbonds>
donor molecule, donor type, donor heavy atom, donor atom, acceptor molecule, acceptor atom, score
      L1  H    15    36       P1  7948  0.30
      P1  H 10752 10765       L1    10  0.13

> <Gold.Chemscore.Hbond.Weighted>
-5.9375

> <Gold.Chemscore.Metal.Weighted>
-0.0000

> <Gold.Chemscore.Lipo.Weighted>
-9.7738

> <Gold.Chemscore.Internal_Hbond.Weighted>
0.0000

> <Gold.Chemscore.DEClash.Weighted>
0.1096

> <Gold.Chemscore.DEInternal.Weighted>
0.7030

> <Gold.Chemscore.Rot.Weighted>
7.3650

> <Gold.Chemscore.Internal.Correction.Weighted>
   9.000000E+99

> <Gold.Protein.RotatedTorsions>
[ 6907 6896 6895 6894 ] final  -31.21 input  -60.11 | X-H torsion
[ 7974 7965 7964 7962 ] final  -55.39 input  175.53 | X-H torsion
[ 8008 7997 7996 7995 ] final  -31.26 input   59.86 | X-H torsion
[ 10167 10162 10161 10158 ] final   88.94 input  -65.29 | X-H torsion
[ 10718 10713 10712 10709 ] final -177.57 input   66.30 | X-H torsion
[ 10763 10752 10751 10750 ] final -169.69 input  -60.55 | X-H torsion
[ 11005 11000 10999 10996 ] final   45.45 input  -57.11 | X-H torsion

> <Gold.Protein.ActiveResidues>
 VAL166  LYS551  ARG553  GLY616  TRP617  ASP618  TYR619  PRO620  LYS621  CYS622 
 ASP623  PHE694  ASN695  SER759  ASP760  ASP761  ALA762  ILE779  LEU786  VAL792 
 PHE793  MET794  SER795  GLU796  ALA797  LYS798  CYS799  TRP800  GLU811  SER814 

> <Gold.Protein.RotatedAtoms>
  151.0951  134.9939  159.8421 H   0  0  0  0  0  0  0  0  0  0  0  0  # atno 6907 bound_to 6896
  152.5432  134.2018  159.8725 H   0  0  0  0  0  0  0  0  0  0  0  0  # atno 6908 bound_to 6896
  151.2057  133.4541  159.2630 H   0  0  0  0  0  0  0  0  0  0  0  0  # atno 6909 bound_to 6896
  145.8747  140.8190  142.9870 H   0  0  0  0  0  0  0  0  0  0  0  0  # atno 7974 bound_to 7965
  154.4220  140.1769  156.1538 H   0  0  0  0  0  0  0  0  0  0  0  0  # atno 8008 bound_to 7997
  155.9894  140.3370  155.6714 H   0  0  0  0  0  0  0  0  0  0  0  0  # atno 8009 bound_to 7997
  155.6393  140.0678  157.2614 H   0  0  0  0  0  0  0  0  0  0  0  0  # atno 8010 bound_to 7997
  139.8623  144.6537  150.9044 H   0  0  0  0  0  0  0  0  0  0  0  0  # atno 10167 bound_to 10162
  156.8314  130.9654  151.3106 H   0  0  0  0  0  0  0  0  0  0  0  0  # atno 10718 bound_to 10713
  154.6496  135.2909  155.0003 H   0  0  0  0  0  0  0  0  0  0  0  0  # atno 10763 bound_to 10752
  154.1101  135.6564  153.4887 H   0  0  0  0  0  0  0  0  0  0  0  0  # atno 10764 bound_to 10752
  153.0369  135.5263  154.7398 H   0  0  0  0  0  0  0  0  0  0  0  0  # atno 10765 bound_to 10752
  140.1458  134.4524  155.8416 H   0  0  0  0  0  0  0  0  0  0  0  0  # atno 11005 bound_to 11000
  144.6726  140.1292  143.7445 LP  0  0  0  0  0  0  0  0  0  0  0  0  # atno 17320 bound_to 7965
  145.9095  139.2478  143.1446 LP  0  0  0  0  0  0  0  0  0  0  0  0  # atno 17321 bound_to 7965
  140.7773  143.3734  151.1608 LP  0  0  0  0  0  0  0  0  0  0  0  0  # atno 17342 bound_to 10162
  139.7362  143.8995  152.3035 LP  0  0  0  0  0  0  0  0  0  0  0  0  # atno 17343 bound_to 10162
  157.6404  130.8801  149.9438 LP  0  0  0  0  0  0  0  0  0  0  0  0  # atno 17370 bound_to 10713
  156.0932  130.3661  150.0356 LP  0  0  0  0  0  0  0  0  0  0  0  0  # atno 17371 bound_to 10713
  141.2192  133.6852  156.7331 LP  0  0  0  0  0  0  0  0  0  0  0  0  # atno 17394 bound_to 11000
  140.2665  134.8426  157.3808 LP  0  0  0  0  0  0  0  0  0  0  0  0  # atno 17395 bound_to 11000

$$$$
