AV-unprocessed.smi:2052|AV-procd|sdf|8328|dock3
  -GOLD-   2272010593D 1   1.00000     0.00000
 Structure written by MMmdl.
 41 42  0  0  0  0  0  0  0  0  1 V2000
  147.6593  141.0459  153.9672 C   0  0  0  0  0  0  0  0  0  0  0  0
  149.1301  141.5088  154.9219 S   0  0  0  0  0  0  0  0  0  0  0  0
  150.1976  140.0681  154.6254 C   0  0  2  0  0  0  0  0  0  0  0  0
  149.3514  138.7898  154.5167 C   0  0  0  0  0  0  0  0  0  0  0  0
  151.2775  139.9229  155.7043 C   0  0  0  0  0  0  0  0  0  0  0  0
  152.4700  139.9995  155.4067 O   0  0  0  0  0  0  0  0  0  0  0  0
  150.8463  139.7186  156.9589 N   0  0  0  0  0  0  0  0  0  0  0  0
  151.7095  139.6097  158.1309 C   0  0  0  0  0  0  0  0  0  0  0  0
  152.1041  140.9444  158.7504 C   0  0  0  0  0  0  0  0  0  0  0  0
  151.7821  142.1451  158.0885 C   0  0  0  0  0  0  0  0  0  0  0  0
  152.1642  143.3623  158.6821 C   0  0  0  0  0  0  0  0  0  0  0  0
  152.8236  143.4384  159.8568 N   0  0  0  0  0  0  0  0  0  0  0  0
  153.1389  142.2906  160.5063 C   0  0  0  0  0  0  0  0  0  0  0  0
  153.8185  142.3817  161.7401 N   0  0  0  0  0  0  0  0  0  0  0  0
  153.1801  143.1307  162.8209 C   0  0  0  0  0  0  0  0  0  0  0  0
  154.1750  143.3632  163.9705 C   0  0  0  0  0  0  0  0  0  0  0  0
  154.7049  142.1154  164.4057 O   0  0  0  0  0  0  0  0  0  0  0  0
  155.4162  141.4507  163.3668 C   0  0  0  0  0  0  0  0  0  0  0  0
  154.4673  141.1534  162.1930 C   0  0  0  0  0  0  0  0  0  0  0  0
  152.8055  141.0224  159.9746 C   0  0  0  0  0  0  0  0  0  0  0  0
  146.8871  141.8070  154.0785 H   0  0  0  0  0  0  0  0  0  0  0  0
  147.2596  140.0951  154.3195 H   0  0  0  0  0  0  0  0  0  0  0  0
  147.8988  140.9538  152.9079 H   0  0  0  0  0  0  0  0  0  0  0  0
  150.6847  140.2206  153.6611 H   0  0  0  0  0  0  0  0  0  0  0  0
  149.9775  137.9119  154.3513 H   0  0  0  0  0  0  0  0  0  0  0  0
  148.6543  138.8556  153.6810 H   0  0  0  0  0  0  0  0  0  0  0  0
  148.7657  138.6170  155.4206 H   0  0  0  0  0  0  0  0  0  0  0  0
  149.8509  139.6636  157.1178 H   0  0  0  0  0  0  0  0  0  0  0  0
  151.1838  139.0255  158.8864 H   0  0  0  0  0  0  0  0  0  0  0  0
  152.6069  139.0447  157.8725 H   0  0  0  0  0  0  0  0  0  0  0  0
  151.2532  142.1371  157.1468 H   0  0  0  0  0  0  0  0  0  0  0  0
  151.9336  144.3011  158.2010 H   0  0  0  0  0  0  0  0  0  0  0  0
  152.8210  144.0928  162.4531 H   0  0  0  0  0  0  0  0  0  0  0  0
  152.3143  142.5751  163.1837 H   0  0  0  0  0  0  0  0  0  0  0  0
  154.9842  144.0251  163.6576 H   0  0  0  0  0  0  0  0  0  0  0  0
  153.6735  143.8480  164.8081 H   0  0  0  0  0  0  0  0  0  0  0  0
  156.2594  142.0612  163.0395 H   0  0  0  0  0  0  0  0  0  0  0  0
  155.8298  140.5216  163.7587 H   0  0  0  0  0  0  0  0  0  0  0  0
  153.6988  140.4454  162.5057 H   0  0  0  0  0  0  0  0  0  0  0  0
  155.0317  140.6740  161.3944 H   0  0  0  0  0  0  0  0  0  0  0  0
  153.0917  140.1201  160.4935 H   0  0  0  0  0  0  0  0  0  0  0  0
  1  2  1  0  0  0  0
  1 21  1  0  0  0  0
  1 22  1  0  0  0  0
  1 23  1  0  0  0  0
  2  3  1  0  0  0  0
  3  4  1  0  0  0  0
  3  5  1  0  0  0  0
  3 24  1  0  0  0  0
  4 25  1  0  0  0  0
  4 26  1  0  0  0  0
  4 27  1  0  0  0  0
  5  6  2  0  0  0  0
  5  7  1  0  0  0  0
  7  8  1  0  0  0  0
  7 28  1  0  0  0  0
  8  9  1  0  0  0  0
  8 29  1  0  0  0  0
  8 30  1  0  0  0  0
  9 20  1  0  0  0  0
  9 10  2  0  0  0  0
 10 11  1  0  0  0  0
 10 31  1  0  0  0  0
 11 12  2  0  0  0  0
 11 32  1  0  0  0  0
 12 13  1  0  0  0  0
 13 14  1  0  0  0  0
 13 20  2  0  0  0  0
 14 19  1  0  0  0  0
 14 15  1  0  0  0  0
 15 16  1  0  0  0  0
 15 33  1  0  0  0  0
 15 34  1  0  0  0  0
 16 17  1  0  0  0  0
 16 35  1  0  0  0  0
 16 36  1  0  0  0  0
 17 18  1  0  0  0  0
 18 19  1  0  0  0  0
 18 37  1  0  0  0  0
 18 38  1  0  0  0  0
 19 39  1  0  0  0  0
 19 40  1  0  0  0  0
 20 41  1  0  0  0  0
M  END
> <s_m_source_file>
AV-unprocessed.smi

> <i_m_source_file_index>
2052

> <i_lp_mmshare_version>
43012

> <i_f3d_flags>
0

> <s_epik_input>
W0NIM11TW0NASF0oW0NIM10pQyg9TylbTkhdW0NIMl1jMVtjSF1bY0hdbmMoW2NIXTEpTjJbQ0gyXVtDSDJdT1tDSDJdW0NIMl0y

> <s_epik_cmdline>
J2VwaWtfcHl0aG9uJywgJy1waCcsICc3LjAnLCAnLXRuJywgJzgnLCAnLW1hJywgJzIwMCcsICctbWV0YWxfYmluZGluZycsICctaW1hZScsICc8aW5maWxlLm1hZT4nLCAnLW9tYWUnLCAnPG91dGZpbGUubWFlPic=

> <r_lp_tautomer_probability>
1

> <r_epik_Ionization_Penalty>
0.00463955

> <r_epik_Ionization_Penalty_Charging>
0

> <r_epik_Ionization_Penalty_Neutral>
0.00463955

> <r_epik_State_Penalty>
0.00335544

> <r_epik_Charging_Adjusted_Penalty>
0.00335544

> <i_epik_Tot_Q>
0

> <i_epik_Tot_abs_Q>
0

> <r_epik_Metal_State_Penalty>
-0

> <b_epik_Metal_Only>
0

> <s_lp_Force_Field>
OPLS_2005

> <r_lp_Energy>
14.3355

> <b_lp_Chiralities_Consistent>
1

> <s_lp_Variant>
AV-unprocessed.smi:2052-1

> <Gold.Version>
5.8.1

> <Gold.Id.Protein>
6NUR|6NUR_protein|mol2

> <Gold.PLP.Fitness>
42.4657

> <Gold.PLP.PLP>
-40.5315

> <Gold.PLP.part.hbond>
-2.3959

> <Gold.PLP.part.metal>
0.0000

> <Gold.PLP.part.buried>
3.6182

> <Gold.PLP.part.nonpolar>
-39.7899

> <Gold.PLP.part.repulsive>
0.0801

> <Gold.PLP.ligand.clash>
0.0000

> <Gold.PLP.ligand.torsion>
0.7231

> <Gold.PLP.Chemscore.Hbond>
1.0000

> <Gold.PLP.Chemscore.CHOScore>
0.0000

> <Gold.PLP.Chemscore.Metal>
0.0000

> <Gold.Chemscore.Hbonds>
donor molecule, donor type, donor heavy atom, donor atom, acceptor molecule, acceptor atom, score
      P1  H  7989  7998       L1     6  0.06
      P1  H  7997  8009       L1     6  0.99

> <Gold.PLP.Chemscore.Internal.Correction>
0.3804

> <Gold.Rescore>
     Score         DG    S(hbond)    S(metal)    S(lipo)     H(rot)  DE(clash)    DE(int)     intcor
     14.98     -17.55       0.99        0.00     111.53       1.67       1.92       0.66       ----

> <Gold.Chemscore.Fitness>
14.9804

> <Gold.Chemscore.DG>
-17.5529

> <Gold.Chemscore.ZeroCoef>
-5.4800

> <Gold.Chemscore.Hbond>
0.9863

> <Gold.Chemscore.Metal>
0.0000

> <Gold.Chemscore.Lipo>
111.5333

> <Gold.Chemscore.Internal_Hbond>
0.0000

> <Gold.Chemscore.DEClash>
1.9158

> <Gold.Chemscore.DEInternal>
0.6567

> <Gold.Chemscore.Rot>
1.6682

> <Gold.Chemscore.Internal.Correction>
   9.000000E+99

> <Gold.Chemscore.Hbonds>
donor molecule, donor type, donor heavy atom, donor atom, acceptor molecule, acceptor atom, score
      P1  H  7997  8009       L1     6  0.92

> <Gold.Chemscore.Hbond.Weighted>
-3.2942

> <Gold.Chemscore.Metal.Weighted>
-0.0000

> <Gold.Chemscore.Lipo.Weighted>
-13.0494

> <Gold.Chemscore.Internal_Hbond.Weighted>
0.0000

> <Gold.Chemscore.DEClash.Weighted>
1.9158

> <Gold.Chemscore.DEInternal.Weighted>
0.6567

> <Gold.Chemscore.Rot.Weighted>
4.2707

> <Gold.Chemscore.Internal.Correction.Weighted>
   9.000000E+99

> <Gold.Protein.RotatedTorsions>
[ 6907 6896 6895 6894 ] final  150.21 input  -60.11 | X-H torsion
[ 7974 7965 7964 7962 ] final  141.07 input  175.53 | X-H torsion
[ 8008 7997 7996 7995 ] final -153.08 input   59.86 | X-H torsion
[ 10167 10162 10161 10158 ] final -121.25 input  -65.29 | X-H torsion
[ 10718 10713 10712 10709 ] final  112.15 input   66.30 | X-H torsion
[ 10763 10752 10751 10750 ] final  -76.34 input  -60.55 | X-H torsion
[ 11005 11000 10999 10996 ] final  144.56 input  -57.11 | X-H torsion

> <Gold.Protein.ActiveResidues>
 VAL166  LYS551  ARG553  GLY616  TRP617  ASP618  TYR619  PRO620  LYS621  CYS622 
 ASP623  PHE694  ASN695  SER759  ASP760  ASP761  ALA762  ILE779  LEU786  VAL792 
 PHE793  MET794  SER795  GLU796  ALA797  LYS798  CYS799  TRP800  GLU811  SER814 

> <Gold.Protein.RotatedAtoms>
  152.1175  133.4335  159.4659 H   0  0  0  0  0  0  0  0  0  0  0  0  # atno 6907 bound_to 6896
  150.6870  134.2574  159.4544 H   0  0  0  0  0  0  0  0  0  0  0  0  # atno 6908 bound_to 6896
  152.0448  134.9689  160.0625 H   0  0  0  0  0  0  0  0  0  0  0  0  # atno 6909 bound_to 6896
  144.9129  139.5269  143.5700 H   0  0  0  0  0  0  0  0  0  0  0  0  # atno 7974 bound_to 7965
  155.6652  140.0727  157.2540 H   0  0  0  0  0  0  0  0  0  0  0  0  # atno 8008 bound_to 7997
  154.4134  140.1709  156.1870 H   0  0  0  0  0  0  0  0  0  0  0  0  # atno 8009 bound_to 7997
  155.9663  140.3365  155.6539 H   0  0  0  0  0  0  0  0  0  0  0  0  # atno 8010 bound_to 7997
  140.0270  143.5286  152.2194 H   0  0  0  0  0  0  0  0  0  0  0  0  # atno 10167 bound_to 10162
  157.6407  131.0963  150.6853 H   0  0  0  0  0  0  0  0  0  0  0  0  # atno 10718 bound_to 10713
  154.4986  135.5801  153.6513 H   0  0  0  0  0  0  0  0  0  0  0  0  # atno 10763 bound_to 10752
  152.9874  135.6130  154.3032 H   0  0  0  0  0  0  0  0  0  0  0  0  # atno 10764 bound_to 10752
  154.2938  135.2848  155.2622 H   0  0  0  0  0  0  0  0  0  0  0  0  # atno 10765 bound_to 10752
  140.0642  134.9188  157.1236 H   0  0  0  0  0  0  0  0  0  0  0  0  # atno 11005 bound_to 11000
  146.3167  139.7949  142.8977 LP  0  0  0  0  0  0  0  0  0  0  0  0  # atno 17320 bound_to 7965
  145.3424  141.0290  143.3385 LP  0  0  0  0  0  0  0  0  0  0  0  0  # atno 17321 bound_to 7965
  139.6101  144.7606  151.2971 LP  0  0  0  0  0  0  0  0  0  0  0  0  # atno 17342 bound_to 10162
  140.7318  143.6841  150.7976 LP  0  0  0  0  0  0  0  0  0  0  0  0  # atno 17343 bound_to 10162
  156.7178  130.4671  149.5530 LP  0  0  0  0  0  0  0  0  0  0  0  0  # atno 17370 bound_to 10713
  156.1686  130.6422  151.0809 LP  0  0  0  0  0  0  0  0  0  0  0  0  # atno 17371 bound_to 10713
  140.3724  134.2376  155.7177 LP  0  0  0  0  0  0  0  0  0  0  0  0  # atno 17394 bound_to 11000
  141.1986  133.8032  157.0576 LP  0  0  0  0  0  0  0  0  0  0  0  0  # atno 17395 bound_to 11000

$$$$
