AV-unprocessed.smi:2226|AV-procd|sdf|9018|dock5
  -GOLD-   2272012223D 1   1.00000     0.00000
 Structure written by MMmdl.
 39 41  0  0  0  0  0  0  0  0  3 V2000
  146.9809  136.2611  154.3036 C   0  0  0  0  0  0  0  0  0  0  0  0
  148.3743  136.7669  154.3008 N   0  3  2  0  0  0  0  0  0  0  0  0
  149.3352  135.9477  155.0784 C   0  0  1  0  0  0  0  0  0  0  0  0
  150.7734  136.3170  154.6452 C   0  0  0  0  0  0  0  0  0  0  0  0
  151.0793  137.8262  154.7289 C   0  0  0  0  0  0  0  0  0  0  0  0
  149.9141  138.6912  154.2064 C   0  0  0  0  0  0  0  0  0  0  0  0
  148.5189  138.1993  154.6581 C   0  0  2  0  0  0  0  0  0  0  0  0
  148.1995  138.4401  156.1541 C   0  0  0  0  0  0  0  0  0  0  0  0
  148.9522  137.5095  157.1325 C   0  0  1  0  0  0  0  0  0  0  0  0
  148.2607  137.5187  158.4197 N   0  0  0  0  0  0  0  0  0  0  0  0
  148.6453  136.8735  159.5312 C   0  0  0  0  0  0  0  0  0  0  0  0
  149.6710  136.1904  159.5126 O   0  0  0  0  0  0  0  0  0  0  0  0
  147.8062  137.0712  160.5776 N   0  5  0  0  0  0  0  0  0  0  0  0
  147.2984  136.0839  161.3462 C   0  0  0  0  0  0  0  0  0  0  0  0
  147.4070  135.8936  162.6672 N   0  0  0  0  0  0  0  0  0  0  0  0
  146.7025  134.7364  162.9571 C   0  0  0  0  0  0  0  0  0  0  0  0
  146.1858  134.2605  161.7849 C   0  0  0  0  0  0  0  0  0  0  0  0
  146.5537  135.0980  160.7688 O   0  0  0  0  0  0  0  0  0  0  0  0
  149.0677  136.0594  156.5994 C   0  0  0  0  0  0  0  0  0  0  0  0
  146.5350  136.2791  155.2978 H   0  0  0  0  0  0  0  0  0  0  0  0
  146.9502  135.2339  153.9390 H   0  0  0  0  0  0  0  0  0  0  0  0
  146.3571  136.8638  153.6429 H   0  0  0  0  0  0  0  0  0  0  0  0
  149.1873  134.9036  154.7986 H   0  0  0  0  0  0  0  0  0  0  0  0
  151.5037  135.7541  155.2274 H   0  0  0  0  0  0  0  0  0  0  0  0
  150.9098  135.9996  153.6104 H   0  0  0  0  0  0  0  0  0  0  0  0
  151.3317  138.1051  155.7483 H   0  0  0  0  0  0  0  0  0  0  0  0
  151.9804  138.0463  154.1557 H   0  0  0  0  0  0  0  0  0  0  0  0
  150.0628  139.7327  154.4931 H   0  0  0  0  0  0  0  0  0  0  0  0
  149.9433  138.6765  153.1162 H   0  0  0  0  0  0  0  0  0  0  0  0
  147.7890  138.7633  154.0757 H   0  0  0  0  0  0  0  0  0  0  0  0
  148.3929  139.4817  156.4138 H   0  0  0  0  0  0  0  0  0  0  0  0
  147.1261  138.3062  156.2949 H   0  0  0  0  0  0  0  0  0  0  0  0
  149.9468  137.9163  157.2993 H   0  0  0  0  0  0  0  0  0  0  0  0
  147.4172  138.0702  158.4802 H   0  0  0  0  0  0  0  0  0  0  0  0
  146.6259  134.3492  163.9622 H   0  0  0  0  0  0  0  0  0  0  0  0
  145.5812  133.4062  161.5198 H   0  0  0  0  0  0  0  0  0  0  0  0
  148.1398  135.5299  156.8192 H   0  0  0  0  0  0  0  0  0  0  0  0
  149.8397  135.5214  157.1506 H   0  0  0  0  0  0  0  0  0  0  0  0
  148.6711  136.6947  153.3381 H   0  0  0  0  0  0  0  0  0  0  0  0
  1  2  1  0  0  0  0
  1 20  1  0  0  0  0
  1 21  1  0  0  0  0
  1 22  1  0  0  0  0
  2  7  1  0  0  0  0
  2  3  1  0  0  0  0
  2 39  1  0  0  0  0
  3 19  1  0  0  0  0
  3  4  1  0  0  0  0
  3 23  1  0  0  0  0
  4  5  1  0  0  0  0
  4 24  1  0  0  0  0
  4 25  1  0  0  0  0
  5  6  1  0  0  0  0
  5 26  1  0  0  0  0
  5 27  1  0  0  0  0
  6  7  1  0  0  0  0
  6 28  1  0  0  0  0
  6 29  1  0  0  0  0
  7  8  1  0  0  0  0
  7 30  1  0  0  0  0
  8  9  1  0  0  0  0
  8 31  1  0  0  0  0
  8 32  1  0  0  0  0
  9 10  1  0  0  0  0
  9 19  1  0  0  0  0
  9 33  1  0  0  0  0
 10 34  1  0  0  0  0
 10 11  1  0  0  0  0
 11 13  1  0  0  0  0
 11 12  2  0  0  0  0
 13 14  1  0  0  0  0
 14 18  1  0  0  0  0
 14 15  2  0  0  0  0
 15 16  1  0  0  0  0
 16 35  1  0  0  0  0
 16 17  2  0  0  0  0
 17 36  1  0  0  0  0
 17 18  1  0  0  0  0
 19 37  1  0  0  0  0
 19 38  1  0  0  0  0
M  CHG  1   2   1
M  CHG  1  13  -1
M  END
> <s_m_source_file>
AV-unprocessed.smi

> <i_m_source_file_index>
2226

> <i_lp_mmshare_version>
43012

> <i_f3d_flags>
0

> <s_epik_input>
W0NIMl0xW0NIMl1bQ0gyXVtDQEhdKE4oW0NIM10pW0NIXTEyKVtDSDJdW0NASF0oW0NIMl0yKVtOSF1DKD1PKVtOSF1jM25bY0hdW2NIXW8z

> <s_epik_cmdline>
J2VwaWtfcHl0aG9uJywgJy1waCcsICc3LjAnLCAnLXRuJywgJzgnLCAnLW1hJywgJzIwMCcsICctbWV0YWxfYmluZGluZycsICctaW1hZScsICc8aW5maWxlLm1hZT4nLCAnLW9tYWUnLCAnPG91dGZpbGUubWFlPic=

> <r_lp_tautomer_probability>
0.107061

> <r_epik_Ionization_Penalty>
10.5612

> <r_epik_Ionization_Penalty_Charging>
7.48913

> <r_epik_Ionization_Penalty_Neutral>
3.07202

> <r_epik_State_Penalty>
5.6431

> <r_epik_Charging_Adjusted_Penalty>
13.1322

> <i_epik_Tot_Q>
0

> <i_epik_Tot_abs_Q>
2

> <r_epik_Metal_State_Penalty>
1.58163

> <b_epik_Metal_Only>
1

> <s_lp_Force_Field>
OPLS_2005

> <r_lp_Energy>
28.9751

> <b_lp_Chiralities_Consistent>
1

> <s_lp_Variant>
AV-unprocessed.smi:2226-18

> <Gold.Version>
5.8.1

> <Gold.Id.Protein>
6NUR|6NUR_protein|mol2

> <Gold.PLP.Fitness>
42.4456

> <Gold.PLP.PLP>
-25.4197

> <Gold.PLP.part.hbond>
-4.0000

> <Gold.PLP.part.metal>
0.0000

> <Gold.PLP.part.buried>
-2.3376

> <Gold.PLP.part.nonpolar>
-20.7886

> <Gold.PLP.part.repulsive>
0.1255

> <Gold.PLP.ligand.clash>
0.0000

> <Gold.PLP.ligand.torsion>
0.9846

> <Gold.PLP.Chemscore.Hbond>
6.3280

> <Gold.PLP.Chemscore.CHOScore>
0.0000

> <Gold.PLP.Chemscore.Metal>
0.0000

> <Gold.Chemscore.Hbonds>
donor molecule, donor type, donor heavy atom, donor atom, acceptor molecule, acceptor atom, score
      L1  H     2    39       P1  7948  2.00
      P1  H  6896  6909       L1    12  1.00
      P1  H  6931  6943       L1    13  1.16
      P1  H  6934  6947       L1    13  1.57

> <Gold.PLP.Chemscore.Internal.Correction>
0.0112

> <Gold.Rescore>
     Score         DG    S(hbond)    S(metal)    S(lipo)     H(rot)  DE(clash)    DE(int)     intcor
     16.55     -18.43       2.93        0.00      48.96       1.00       0.00       1.88       ----

> <Gold.Chemscore.Fitness>
16.5528

> <Gold.Chemscore.DG>
-18.4311

> <Gold.Chemscore.ZeroCoef>
-5.4800

> <Gold.Chemscore.Hbond>
2.9291

> <Gold.Chemscore.Metal>
0.0000

> <Gold.Chemscore.Lipo>
48.9560

> <Gold.Chemscore.Internal_Hbond>
0.0000

> <Gold.Chemscore.DEClash>
0.0000

> <Gold.Chemscore.DEInternal>
1.8783

> <Gold.Chemscore.Rot>
1.0000

> <Gold.Chemscore.Internal.Correction>
   9.000000E+99

> <Gold.Chemscore.Hbonds>
donor molecule, donor type, donor heavy atom, donor atom, acceptor molecule, acceptor atom, score
      L1  H     2    39       P1  7948  0.97
      P1  H  6896  6909       L1    12  1.00
      P1  H  6931  6943       L1    13  0.09
      P1  H  6934  6947       L1    13  0.66

> <Gold.Chemscore.Hbond.Weighted>
-9.7833

> <Gold.Chemscore.Metal.Weighted>
-0.0000

> <Gold.Chemscore.Lipo.Weighted>
-5.7279

> <Gold.Chemscore.Internal_Hbond.Weighted>
0.0000

> <Gold.Chemscore.DEClash.Weighted>
0.0000

> <Gold.Chemscore.DEInternal.Weighted>
1.8783

> <Gold.Chemscore.Rot.Weighted>
2.5600

> <Gold.Chemscore.Internal.Correction.Weighted>
   9.000000E+99

> <Gold.Protein.RotatedTorsions>
[ 6907 6896 6895 6894 ] final   69.52 input  -60.11 | X-H torsion
[ 7974 7965 7964 7962 ] final  -54.28 input  175.53 | X-H torsion
[ 8008 7997 7996 7995 ] final -133.05 input   59.86 | X-H torsion
[ 10167 10162 10161 10158 ] final  -49.72 input  -65.29 | X-H torsion
[ 10718 10713 10712 10709 ] final  100.39 input   66.30 | X-H torsion
[ 10763 10752 10751 10750 ] final   -3.64 input  -60.55 | X-H torsion
[ 11005 11000 10999 10996 ] final -124.03 input  -57.11 | X-H torsion

> <Gold.Protein.ActiveResidues>
 VAL166  LYS551  ARG553  GLY616  TRP617  ASP618  TYR619  PRO620  LYS621  CYS622 
 ASP623  PHE694  ASN695  SER759  ASP760  ASP761  ALA762  ILE779  LEU786  VAL792 
 PHE793  MET794  SER795  GLU796  ALA797  LYS798  CYS799  TRP800  GLU811  SER814 

> <Gold.Protein.RotatedAtoms>
  152.4691  134.5004  159.9722 H   0  0  0  0  0  0  0  0  0  0  0  0  # atno 6907 bound_to 6896
  151.5034  133.3493  159.2880 H   0  0  0  0  0  0  0  0  0  0  0  0  # atno 6908 bound_to 6896
  150.8691  134.8089  159.7203 H   0  0  0  0  0  0  0  0  0  0  0  0  # atno 6909 bound_to 6896
  145.8874  140.8097  142.9809 H   0  0  0  0  0  0  0  0  0  0  0  0  # atno 7974 bound_to 7965
  155.3391  140.0471  157.3044 H   0  0  0  0  0  0  0  0  0  0  0  0  # atno 8008 bound_to 7997
  154.5287  140.2249  155.8808 H   0  0  0  0  0  0  0  0  0  0  0  0  # atno 8009 bound_to 7997
  156.1766  140.3083  155.9077 H   0  0  0  0  0  0  0  0  0  0  0  0  # atno 8010 bound_to 7997
  140.6672  143.2686  151.4256 H   0  0  0  0  0  0  0  0  0  0  0  0  # atno 10167 bound_to 10162
  157.6855  131.0697  150.5093 H   0  0  0  0  0  0  0  0  0  0  0  0  # atno 10718 bound_to 10713
  153.3741  135.6996  153.6615 H   0  0  0  0  0  0  0  0  0  0  0  0  # atno 10763 bound_to 10752
  153.5253  135.3603  155.2651 H   0  0  0  0  0  0  0  0  0  0  0  0  # atno 10764 bound_to 10752
  154.8685  135.4167  154.3025 H   0  0  0  0  0  0  0  0  0  0  0  0  # atno 10765 bound_to 10752
  140.9873  134.0588  157.3696 H   0  0  0  0  0  0  0  0  0  0  0  0  # atno 11005 bound_to 11000
  144.6729  140.1476  143.7432 LP  0  0  0  0  0  0  0  0  0  0  0  0  # atno 17320 bound_to 7965
  145.8950  139.2397  143.1527 LP  0  0  0  0  0  0  0  0  0  0  0  0  # atno 17321 bound_to 7965
  139.5925  144.1468  152.2105 LP  0  0  0  0  0  0  0  0  0  0  0  0  # atno 17342 bound_to 10162
  140.0827  144.5687  150.7110 LP  0  0  0  0  0  0  0  0  0  0  0  0  # atno 17343 bound_to 10162
  156.5410  130.4208  149.6154 LP  0  0  0  0  0  0  0  0  0  0  0  0  # atno 17370 bound_to 10713
  156.2985  130.7163  151.2029 LP  0  0  0  0  0  0  0  0  0  0  0  0  # atno 17371 bound_to 10713
  139.8976  135.0151  156.7109 LP  0  0  0  0  0  0  0  0  0  0  0  0  # atno 17394 bound_to 11000
  140.7094  133.9236  155.8075 LP  0  0  0  0  0  0  0  0  0  0  0  0  # atno 17395 bound_to 11000

$$$$
