AV-unprocessed.smi:849|AV-procd|sdf|3944|dock2
  -GOLD-   22720 1413D 1   1.00000     0.00000
 Structure written by MMmdl.
 36 38  0  0  0  0  0  0  0  0  1 V2000
  153.0495  139.2822  155.5283 O   0  0  0  0  0  0  0  0  0  0  0  0
  152.1345  139.9296  156.3892 C   0  0  0  0  0  0  0  0  0  0  0  0
  150.8406  140.3149  155.7292 C   0  0  0  0  0  0  0  0  0  0  0  0
  150.4546  139.8234  154.5493 N   0  0  0  0  0  0  0  0  0  0  0  0
  149.2345  140.4353  154.3448 C   0  0  0  0  0  0  0  0  0  0  0  0
  148.3226  140.3297  153.2704 C   0  0  0  0  0  0  0  0  0  0  0  0
  147.1191  141.0650  153.2812 C   0  0  0  0  0  0  0  0  0  0  0  0
  146.8105  141.9129  154.3644 C   0  0  0  0  0  0  0  0  0  0  0  0
  147.7053  142.0316  155.4452 C   0  0  0  0  0  0  0  0  0  0  0  0
  148.9060  141.2969  155.4284 C   0  0  0  0  0  0  0  0  0  0  0  0
  149.9818  141.1952  156.3052 N   0  0  0  0  0  0  0  0  0  0  0  0
  150.1166  141.9016  157.5724 C   0  0  0  0  0  0  0  0  0  0  0  0
  151.3741  142.7951  157.6234 C   0  0  1  0  0  0  0  0  0  0  0  0
  151.1531  143.9051  156.7761 O   0  0  0  0  0  0  0  0  0  0  0  0
  151.7371  143.2175  159.0469 C   0  0  0  0  0  0  0  0  0  0  0  0
  151.5353  144.5612  159.4396 C   0  0  0  0  0  0  0  0  0  0  0  0
  151.8406  144.9825  160.7473 C   0  0  0  0  0  0  0  0  0  0  0  0
  152.3510  144.0625  161.6799 C   0  0  0  0  0  0  0  0  0  0  0  0
  152.5542  142.7227  161.3025 C   0  0  0  0  0  0  0  0  0  0  0  0
  152.2508  142.2940  159.9946 C   0  0  0  0  0  0  0  0  0  0  0  0
  152.5167  140.6313  159.6014 Cl  0  0  0  0  0  0  0  0  0  0  0  0
  152.7669  139.4115  154.6362 H   0  0  0  0  0  0  0  0  0  0  0  0
  151.9241  139.2678  157.2294 H   0  0  0  0  0  0  0  0  0  0  0  0
  152.6160  140.8222  156.7855 H   0  0  0  0  0  0  0  0  0  0  0  0
  148.5505  139.6827  152.4366 H   0  0  0  0  0  0  0  0  0  0  0  0
  146.4298  140.9779  152.4542 H   0  0  0  0  0  0  0  0  0  0  0  0
  145.8871  142.4733  154.3646 H   0  0  0  0  0  0  0  0  0  0  0  0
  147.4735  142.6827  156.2750 H   0  0  0  0  0  0  0  0  0  0  0  0
  149.2235  142.5167  157.6933 H   0  0  0  0  0  0  0  0  0  0  0  0
  150.1071  141.1937  158.4010 H   0  0  0  0  0  0  0  0  0  0  0  0
  152.2096  142.2629  157.1711 H   0  0  0  0  0  0  0  0  0  0  0  0
  150.2442  144.1552  156.8390 H   0  0  0  0  0  0  0  0  0  0  0  0
  151.1355  145.2787  158.7385 H   0  0  0  0  0  0  0  0  0  0  0  0
  151.6808  146.0113  161.0350 H   0  0  0  0  0  0  0  0  0  0  0  0
  152.5857  144.3829  162.6844 H   0  0  0  0  0  0  0  0  0  0  0  0
  152.9447  142.0188  162.0229 H   0  0  0  0  0  0  0  0  0  0  0  0
  1  2  1  0  0  0  0
  1 22  1  0  0  0  0
  2  3  1  0  0  0  0
  2 23  1  0  0  0  0
  2 24  1  0  0  0  0
  3 11  1  0  0  0  0
  3  4  2  0  0  0  0
  4  5  1  0  0  0  0
  5 10  2  0  0  0  0
  5  6  1  0  0  0  0
  6  7  2  0  0  0  0
  6 25  1  0  0  0  0
  7  8  1  0  0  0  0
  7 26  1  0  0  0  0
  8  9  2  0  0  0  0
  8 27  1  0  0  0  0
  9 10  1  0  0  0  0
  9 28  1  0  0  0  0
 10 11  1  0  0  0  0
 11 12  1  0  0  0  0
 12 13  1  0  0  0  0
 12 29  1  0  0  0  0
 12 30  1  0  0  0  0
 13 14  1  0  0  0  0
 13 15  1  0  0  0  0
 13 31  1  0  0  0  0
 14 32  1  0  0  0  0
 15 20  1  0  0  0  0
 15 16  2  0  0  0  0
 16 17  1  0  0  0  0
 16 33  1  0  0  0  0
 17 18  2  0  0  0  0
 17 34  1  0  0  0  0
 18 19  1  0  0  0  0
 18 35  1  0  0  0  0
 19 20  2  0  0  0  0
 19 36  1  0  0  0  0
 20 21  1  0  0  0  0
M  END
> <s_m_source_file>
AV-unprocessed.smi

> <i_m_source_file_index>
849

> <i_lp_mmshare_version>
43012

> <i_f3d_flags>
0

> <s_epik_input>
W2NIXTFbY0hdW2NIXVtjSF1jKGMxMiluKGMobjIpW0NIMl1bT0hdKVtDSDJdW0NASF0oW09IXSljM1tjSF1bY0hdW2NIXVtjSF1jM0Ns

> <s_epik_cmdline>
J2VwaWtfcHl0aG9uJywgJy1waCcsICc3LjAnLCAnLXRuJywgJzgnLCAnLW1hJywgJzIwMCcsICctbWV0YWxfYmluZGluZycsICctaW1hZScsICc8aW5maWxlLm1hZT4nLCAnLW9tYWUnLCAnPG91dGZpbGUubWFlPic=

> <r_epik_Ionization_Penalty>
0.0634742

> <r_epik_Ionization_Penalty_Charging>
0

> <r_epik_Ionization_Penalty_Neutral>
0.0634742

> <r_epik_State_Penalty>
0.0551572

> <r_epik_Charging_Adjusted_Penalty>
0.0551572

> <i_epik_Tot_Q>
0

> <i_epik_Tot_abs_Q>
0

> <r_epik_Metal_State_Penalty>
5.78034e-05

> <b_epik_Metal_Only>
0

> <s_lp_Force_Field>
OPLS_2005

> <r_lp_Energy>
13.628

> <b_lp_Chiralities_Consistent>
1

> <s_lp_Variant>
AV-unprocessed.smi:849-2

> <Gold.Version>
5.8.1

> <Gold.Id.Protein>
6NUR|6NUR_protein|mol2

> <Gold.PLP.Fitness>
55.5636

> <Gold.PLP.PLP>
-49.2625

> <Gold.PLP.part.hbond>
-3.0000

> <Gold.PLP.part.metal>
0.0000

> <Gold.PLP.part.buried>
0.4859

> <Gold.PLP.part.nonpolar>
-46.0636

> <Gold.PLP.part.repulsive>
0.1079

> <Gold.PLP.ligand.clash>
0.0000

> <Gold.PLP.ligand.torsion>
0.5439

> <Gold.PLP.Chemscore.Hbond>
2.4560

> <Gold.PLP.Chemscore.CHOScore>
0.0000

> <Gold.PLP.Chemscore.Metal>
0.0000

> <Gold.Chemscore.Hbonds>
donor molecule, donor type, donor heavy atom, donor atom, acceptor molecule, acceptor atom, score
      L1  H    14    32       P1  8028  0.74
      P1  H  7989  7998       L1     4  0.85
      P1  H  7997  8008       L1     1  0.88

> <Gold.PLP.Chemscore.Internal.Correction>
0.0209

> <Gold.Rescore>
     Score         DG    S(hbond)    S(metal)    S(lipo)     H(rot)  DE(clash)    DE(int)     intcor
     16.26     -18.06       0.94        0.00     138.06       2.62       1.65       0.15       ----

> <Gold.Chemscore.Fitness>
16.2640

> <Gold.Chemscore.DG>
-18.0632

> <Gold.Chemscore.ZeroCoef>
-5.4800

> <Gold.Chemscore.Hbond>
0.9417

> <Gold.Chemscore.Metal>
0.0000

> <Gold.Chemscore.Lipo>
138.0624

> <Gold.Chemscore.Internal_Hbond>
0.0000

> <Gold.Chemscore.DEClash>
1.6457

> <Gold.Chemscore.DEInternal>
0.1535

> <Gold.Chemscore.Rot>
2.6232

> <Gold.Chemscore.Internal.Correction>
   9.000000E+99

> <Gold.Chemscore.Hbonds>
donor molecule, donor type, donor heavy atom, donor atom, acceptor molecule, acceptor atom, score
      L1  H    14    32       P1  8028  0.72
      P1  H  7989  7998       L1     4  0.06
      P1  H  7997  8008       L1     1  0.23

> <Gold.Chemscore.Hbond.Weighted>
-3.1453

> <Gold.Chemscore.Metal.Weighted>
-0.0000

> <Gold.Chemscore.Lipo.Weighted>
-16.1533

> <Gold.Chemscore.Internal_Hbond.Weighted>
0.0000

> <Gold.Chemscore.DEClash.Weighted>
1.6457

> <Gold.Chemscore.DEInternal.Weighted>
0.1535

> <Gold.Chemscore.Rot.Weighted>
6.7154

> <Gold.Chemscore.Internal.Correction.Weighted>
   9.000000E+99

> <Gold.Protein.RotatedTorsions>
[ 6907 6896 6895 6894 ] final  -53.52 input  -60.11 | X-H torsion
[ 7974 7965 7964 7962 ] final -148.13 input  175.53 | X-H torsion
[ 8008 7997 7996 7995 ] final   -3.35 input   59.86 | X-H torsion
[ 10167 10162 10161 10158 ] final -170.90 input  -65.29 | X-H torsion
[ 10718 10713 10712 10709 ] final   28.16 input   66.30 | X-H torsion
[ 10763 10752 10751 10750 ] final   74.18 input  -60.55 | X-H torsion
[ 11005 11000 10999 10996 ] final   27.72 input  -57.11 | X-H torsion

> <Gold.Protein.ActiveResidues>
 VAL166  LYS551  ARG553  GLY616  TRP617  ASP618  TYR619  PRO620  LYS621  CYS622 
 ASP623  PHE694  ASN695  SER759  ASP760  ASP761  ALA762  ILE779  LEU786  VAL792 
 PHE793  MET794  SER795  GLU796  ALA797  LYS798  CYS799  TRP800  GLU811  SER814 

> <Gold.Protein.RotatedAtoms>
  150.8420  134.7715  159.6939 H   0  0  0  0  0  0  0  0  0  0  0  0  # atno 6907 bound_to 6896
  152.4505  134.5400  159.9846 H   0  0  0  0  0  0  0  0  0  0  0  0  # atno 6908 bound_to 6896
  151.5538  133.3375  159.2994 H   0  0  0  0  0  0  0  0  0  0  0  0  # atno 6909 bound_to 6896
  144.8049  140.5236  143.5682 H   0  0  0  0  0  0  0  0  0  0  0  0  # atno 7974 bound_to 7965
  154.6258  140.2511  155.7493 H   0  0  0  0  0  0  0  0  0  0  0  0  # atno 8008 bound_to 7997
  156.2452  140.2917  156.0507 H   0  0  0  0  0  0  0  0  0  0  0  0  # atno 8009 bound_to 7997
  155.1824  140.0389  157.2875 H   0  0  0  0  0  0  0  0  0  0  0  0  # atno 8010 bound_to 7997
  139.5834  144.1373  152.1544 H   0  0  0  0  0  0  0  0  0  0  0  0  # atno 10167 bound_to 10162
  157.2298  130.7018  149.6308 H   0  0  0  0  0  0  0  0  0  0  0  0  # atno 10718 bound_to 10713
  153.0570  135.5035  154.8004 H   0  0  0  0  0  0  0  0  0  0  0  0  # atno 10763 bound_to 10752
  154.6823  135.2970  154.9599 H   0  0  0  0  0  0  0  0  0  0  0  0  # atno 10764 bound_to 10752
  154.0381  135.6720  153.4840 H   0  0  0  0  0  0  0  0  0  0  0  0  # atno 10765 bound_to 10752
  140.3232  134.2520  155.7714 H   0  0  0  0  0  0  0  0  0  0  0  0  # atno 11005 bound_to 11000
  145.5463  139.1476  143.3419 LP  0  0  0  0  0  0  0  0  0  0  0  0  # atno 17320 bound_to 7965
  146.2338  140.5602  142.8964 LP  0  0  0  0  0  0  0  0  0  0  0  0  # atno 17321 bound_to 7965
  140.0931  144.5604  150.7041 LP  0  0  0  0  0  0  0  0  0  0  0  0  # atno 17342 bound_to 10162
  140.7109  143.2504  151.4584 LP  0  0  0  0  0  0  0  0  0  0  0  0  # atno 17343 bound_to 10162
  155.9676  130.4492  150.5651 LP  0  0  0  0  0  0  0  0  0  0  0  0  # atno 17370 bound_to 10713
  157.3490  131.0730  151.1728 LP  0  0  0  0  0  0  0  0  0  0  0  0  # atno 17371 bound_to 10713
  141.2081  133.7786  157.0076 LP  0  0  0  0  0  0  0  0  0  0  0  0  # atno 17394 bound_to 11000
  140.0924  134.9584  157.1796 LP  0  0  0  0  0  0  0  0  0  0  0  0  # atno 17395 bound_to 11000

$$$$
