AV-unprocessed.smi:2047|AV-procd|sdf|8319|dock6
  -GOLD-   2272010583D 1   1.00000     0.00000
 Structure written by MMmdl.
 42 44  0  0  0  0  0  0  0  0  3 V2000
  153.2209  138.1063  156.6320 O   0  0  0  0  0  0  0  0  0  0  0  0
  152.1619  137.8122  156.0658 C   0  0  0  0  0  0  0  0  0  0  0  0
  151.1753  138.7183  155.9585 N   0  0  0  0  0  0  0  0  0  0  0  0
  151.1427  140.0637  156.4222 C   0  0  0  0  0  0  0  0  0  0  0  0
  151.9121  140.4912  157.5336 C   0  0  0  0  0  0  0  0  0  0  0  0
  151.8391  141.8308  157.9612 C   0  0  0  0  0  0  0  0  0  0  0  0
  150.9895  142.7191  157.2783 C   0  0  0  0  0  0  0  0  0  0  0  0
  150.2554  142.2758  156.2367 N   0  3  0  0  0  0  0  0  0  0  0  0
  150.2854  140.9987  155.7805 C   0  0  0  0  0  0  0  0  0  0  0  0
  149.4524  140.6403  154.6988 N   0  0  0  0  0  0  0  0  0  0  0  0
  148.4512  139.6256  155.0187 C   0  0  0  0  0  0  0  0  0  0  0  0
  147.1897  139.9970  154.2357 C   0  0  0  0  0  0  0  0  0  0  0  0
  147.3242  141.5036  154.0531 C   0  0  0  0  0  0  0  0  0  0  0  0
  148.8312  141.6801  153.8805 C   0  0  0  0  0  0  0  0  0  0  0  0
  151.8311  136.6301  155.4810 N   0  5  0  0  0  0  0  0  0  0  0  0
  151.1827  135.5084  156.1662 C   0  0  2  0  0  0  0  0  0  0  0  0
  150.6876  134.4592  155.1511 C   0  0  0  0  0  0  0  0  0  0  0  0
  149.7220  133.5023  155.8646 C   0  0  0  0  0  0  0  0  0  0  0  0
  148.8755  134.5106  157.1425 S   0  0  0  0  0  0  0  0  0  0  0  0
  147.5243  134.8606  156.6772 O   0  0  0  0  0  0  0  0  0  0  0  0
  149.0792  133.8845  158.4584 O   0  0  0  0  0  0  0  0  0  0  0  0
  149.9657  135.9791  156.9783 C   0  0  0  0  0  0  0  0  0  0  0  0
  150.3928  138.4333  155.3883 H   0  0  0  0  0  0  0  0  0  0  0  0
  152.5495  139.8064  158.0722 H   0  0  0  0  0  0  0  0  0  0  0  0
  152.4234  142.1687  158.8044 H   0  0  0  0  0  0  0  0  0  0  0  0
  150.8677  143.7609  157.5372 H   0  0  0  0  0  0  0  0  0  0  0  0
  148.8007  138.6281  154.7516 H   0  0  0  0  0  0  0  0  0  0  0  0
  148.2407  139.6309  156.0896 H   0  0  0  0  0  0  0  0  0  0  0  0
  147.2010  139.5062  153.2614 H   0  0  0  0  0  0  0  0  0  0  0  0
  146.2718  139.7081  154.7483 H   0  0  0  0  0  0  0  0  0  0  0  0
  146.7514  141.8856  153.2077 H   0  0  0  0  0  0  0  0  0  0  0  0
  146.9884  142.0195  154.9537 H   0  0  0  0  0  0  0  0  0  0  0  0
  149.1485  142.6961  154.1136 H   0  0  0  0  0  0  0  0  0  0  0  0
  149.1094  141.4933  152.8427 H   0  0  0  0  0  0  0  0  0  0  0  0
  151.8638  134.9974  156.8487 H   0  0  0  0  0  0  0  0  0  0  0  0
  150.1481  134.9591  154.3451 H   0  0  0  0  0  0  0  0  0  0  0  0
  151.5157  133.9183  154.6919 H   0  0  0  0  0  0  0  0  0  0  0  0
  148.9903  133.0606  155.1884 H   0  0  0  0  0  0  0  0  0  0  0  0
  150.2598  132.6966  156.3668 H   0  0  0  0  0  0  0  0  0  0  0  0
  150.2357  136.3610  157.9629 H   0  0  0  0  0  0  0  0  0  0  0  0
  149.4060  136.7493  156.4466 H   0  0  0  0  0  0  0  0  0  0  0  0
  149.6380  142.9388  155.7681 H   0  0  0  0  0  0  0  0  0  0  0  0
  1  2  2  0  0  0  0
  2  3  1  0  0  0  0
  2 15  1  0  0  0  0
  3  4  1  0  0  0  0
  3 23  1  0  0  0  0
  4  9  1  0  0  0  0
  4  5  2  0  0  0  0
  5  6  1  0  0  0  0
  5 24  1  0  0  0  0
  6  7  2  0  0  0  0
  6 25  1  0  0  0  0
  7  8  1  0  0  0  0
  7 26  1  0  0  0  0
  8  9  2  0  0  0  0
  8 42  1  0  0  0  0
  9 10  1  0  0  0  0
 10 14  1  0  0  0  0
 10 11  1  0  0  0  0
 11 12  1  0  0  0  0
 11 27  1  0  0  0  0
 11 28  1  0  0  0  0
 12 13  1  0  0  0  0
 12 29  1  0  0  0  0
 12 30  1  0  0  0  0
 13 14  1  0  0  0  0
 13 31  1  0  0  0  0
 13 32  1  0  0  0  0
 14 33  1  0  0  0  0
 14 34  1  0  0  0  0
 15 16  1  0  0  0  0
 16 22  1  0  0  0  0
 16 17  1  0  0  0  0
 16 35  1  0  0  0  0
 17 18  1  0  0  0  0
 17 36  1  0  0  0  0
 17 37  1  0  0  0  0
 18 19  1  0  0  0  0
 18 38  1  0  0  0  0
 18 39  1  0  0  0  0
 19 20  2  0  0  0  0
 19 21  2  0  0  0  0
 19 22  1  0  0  0  0
 22 40  1  0  0  0  0
 22 41  1  0  0  0  0
M  CHG  1   8   1
M  CHG  1  15  -1
M  END
> <s_m_source_file>
AV-unprocessed.smi

> <i_m_source_file_index>
2047

> <i_lp_mmshare_version>
43012

> <i_f3d_flags>
0

> <s_epik_input>
Tz1TMSg9TylbQ0gyXVtDSDJdW0NASF0oW0NIMl0xKVtOSF1DKD1PKVtOSF1jMltjSF1bY0hdW2NIXW5jMk4zW0NIMl1bQ0gyXVtDSDJdW0NIMl0z

> <s_epik_cmdline>
J2VwaWtfcHl0aG9uJywgJy1waCcsICc3LjAnLCAnLXRuJywgJzgnLCAnLW1hJywgJzIwMCcsICctbWV0YWxfYmluZGluZycsICctaW1hZScsICc8aW5maWxlLm1hZT4nLCAnLW9tYWUnLCAnPG91dGZpbGUubWFlPic=

> <r_lp_tautomer_probability>
0.999994

> <r_epik_Ionization_Penalty>
8.27033

> <r_epik_Ionization_Penalty_Charging>
8.27033

> <r_epik_Ionization_Penalty_Neutral>
3.23223e-06

> <r_epik_State_Penalty>
7.90314

> <r_epik_Charging_Adjusted_Penalty>
16.1735

> <i_epik_Tot_Q>
0

> <i_epik_Tot_abs_Q>
2

> <r_epik_Metal_State_Penalty>
3.89381

> <b_epik_Metal_Only>
1

> <s_lp_Force_Field>
OPLS_2005

> <r_lp_Energy>
38.7939

> <b_lp_Chiralities_Consistent>
1

> <s_lp_Variant>
AV-unprocessed.smi:2047-5

> <Gold.Version>
5.8.1

> <Gold.Id.Protein>
6NUR|6NUR_protein|mol2

> <Gold.PLP.Fitness>
39.8275

> <Gold.PLP.PLP>
-26.3974

> <Gold.PLP.part.hbond>
-3.4893

> <Gold.PLP.part.metal>
0.0000

> <Gold.PLP.part.buried>
-2.7288

> <Gold.PLP.part.nonpolar>
-21.5275

> <Gold.PLP.part.repulsive>
0.3501

> <Gold.PLP.ligand.clash>
0.0000

> <Gold.PLP.ligand.torsion>
1.2041

> <Gold.PLP.Chemscore.Hbond>
5.2198

> <Gold.PLP.Chemscore.CHOScore>
0.0000

> <Gold.PLP.Chemscore.Metal>
0.0000

> <Gold.Chemscore.Hbonds>
donor molecule, donor type, donor heavy atom, donor atom, acceptor molecule, acceptor atom, score
      L1  H     8    42       P1  8028  1.98
      P1  H  6896  6909       L1    21  1.00
      P1  H  7997  8009       L1     1  0.34
      P1  H 10752 10765       L1    15  1.50

> <Gold.PLP.Chemscore.Internal.Correction>
0.1791

> <Gold.Rescore>
     Score         DG    S(hbond)    S(metal)    S(lipo)     H(rot)  DE(clash)    DE(int)     intcor
     16.02     -19.69       2.88        0.00      66.64       1.25       0.40       3.28       ----

> <Gold.Chemscore.Fitness>
16.0193

> <Gold.Chemscore.DG>
-19.6932

> <Gold.Chemscore.ZeroCoef>
-5.4800

> <Gold.Chemscore.Hbond>
2.8777

> <Gold.Chemscore.Metal>
0.0000

> <Gold.Chemscore.Lipo>
66.6374

> <Gold.Chemscore.Internal_Hbond>
0.0000

> <Gold.Chemscore.DEClash>
0.3951

> <Gold.Chemscore.DEInternal>
3.2788

> <Gold.Chemscore.Rot>
1.2480

> <Gold.Chemscore.Internal.Correction>
   9.000000E+99

> <Gold.Chemscore.Hbonds>
donor molecule, donor type, donor heavy atom, donor atom, acceptor molecule, acceptor atom, score
      L1  H     8    42       P1  8028  0.93
      P1  H  6896  6909       L1    21  0.99
      P1  H  7997  8009       L1     1  0.34
      P1  H 10752 10765       L1    15  0.13

> <Gold.Chemscore.Hbond.Weighted>
-9.6115

> <Gold.Chemscore.Metal.Weighted>
-0.0000

> <Gold.Chemscore.Lipo.Weighted>
-7.7966

> <Gold.Chemscore.Internal_Hbond.Weighted>
0.0000

> <Gold.Chemscore.DEClash.Weighted>
0.3951

> <Gold.Chemscore.DEInternal.Weighted>
3.2788

> <Gold.Chemscore.Rot.Weighted>
3.1948

> <Gold.Chemscore.Internal.Correction.Weighted>
   9.000000E+99

> <Gold.Protein.RotatedTorsions>
[ 6907 6896 6895 6894 ] final   13.59 input  -60.11 | X-H torsion
[ 7974 7965 7964 7962 ] final  -85.65 input  175.53 | X-H torsion
[ 8008 7997 7996 7995 ] final -171.31 input   59.86 | X-H torsion
[ 10167 10162 10161 10158 ] final  -61.45 input  -65.29 | X-H torsion
[ 10718 10713 10712 10709 ] final -165.32 input   66.30 | X-H torsion
[ 10763 10752 10751 10750 ] final  168.52 input  -60.55 | X-H torsion
[ 11005 11000 10999 10996 ] final   -2.85 input  -57.11 | X-H torsion

> <Gold.Protein.ActiveResidues>
 VAL166  LYS551  ARG553  GLY616  TRP617  ASP618  TYR619  PRO620  LYS621  CYS622 
 ASP623  PHE694  ASN695  SER759  ASP760  ASP761  ALA762  ILE779  LEU786  VAL792 
 PHE793  MET794  SER795  GLU796  ALA797  LYS798  CYS799  TRP800  GLU811  SER814 

> <Gold.Protein.RotatedAtoms>
  151.7887  135.0741  160.0383 H   0  0  0  0  0  0  0  0  0  0  0  0  # atno 6907 bound_to 6896
  152.3171  133.5810  159.5728 H   0  0  0  0  0  0  0  0  0  0  0  0  # atno 6908 bound_to 6896
  150.7350  133.9982  159.3671 H   0  0  0  0  0  0  0  0  0  0  0  0  # atno 6909 bound_to 6896
  145.4904  140.9553  143.1815 H   0  0  0  0  0  0  0  0  0  0  0  0  # atno 7974 bound_to 7965
  155.9298  140.1089  157.1141 H   0  0  0  0  0  0  0  0  0  0  0  0  # atno 8008 bound_to 7997
  154.4069  140.1239  156.4854 H   0  0  0  0  0  0  0  0  0  0  0  0  # atno 8009 bound_to 7997
  155.7093  140.3471  155.4969 H   0  0  0  0  0  0  0  0  0  0  0  0  # atno 8010 bound_to 7997
  140.6005  143.2360  151.5939 H   0  0  0  0  0  0  0  0  0  0  0  0  # atno 10167 bound_to 10162
  156.6518  130.9010  151.3014 H   0  0  0  0  0  0  0  0  0  0  0  0  # atno 10718 bound_to 10713
  154.3697  135.2753  155.2273 H   0  0  0  0  0  0  0  0  0  0  0  0  # atno 10763 bound_to 10752
  154.4426  135.5950  153.6142 H   0  0  0  0  0  0  0  0  0  0  0  0  # atno 10764 bound_to 10752
  152.9839  135.6022  154.3927 H   0  0  0  0  0  0  0  0  0  0  0  0  # atno 10765 bound_to 10752
  140.6628  133.9305  155.8447 H   0  0  0  0  0  0  0  0  0  0  0  0  # atno 11005 bound_to 11000
  144.7837  139.6471  143.7143 LP  0  0  0  0  0  0  0  0  0  0  0  0  # atno 17320 bound_to 7965
  146.2288  139.5773  142.9569 LP  0  0  0  0  0  0  0  0  0  0  0  0  # atno 17321 bound_to 7965
  139.5288  144.2978  152.1098 LP  0  0  0  0  0  0  0  0  0  0  0  0  # atno 17342 bound_to 10162
  140.2158  144.4516  150.6364 LP  0  0  0  0  0  0  0  0  0  0  0  0  # atno 17343 bound_to 10162
  157.7138  130.9473  150.1183 LP  0  0  0  0  0  0  0  0  0  0  0  0  # atno 17370 bound_to 10713
  156.2079  130.3664  149.8707 LP  0  0  0  0  0  0  0  0  0  0  0  0  # atno 17371 bound_to 10713
  141.0452  134.0565  157.3853 LP  0  0  0  0  0  0  0  0  0  0  0  0  # atno 17394 bound_to 11000
  139.9007  135.0163  156.7254 LP  0  0  0  0  0  0  0  0  0  0  0  0  # atno 17395 bound_to 11000

$$$$
