AV-unprocessed.smi:49|AV-procd|sdf|474|dock1
  -GOLD-   2262016343D 1   1.00000     0.00000
 Structure written by MMmdl.
 27 28  0  0  0  0  0  0  0  0  1 V2000
  152.0283  144.1700  159.0459 C   0  0  0  0  0  0  0  0  0  0  0  0
  151.8416  142.7523  159.5970 C   0  0  0  0  0  0  0  0  0  0  0  0
  151.9809  141.7022  158.5439 C   0  0  0  0  0  0  0  0  0  0  0  0
  151.2300  141.6098  157.4516 N   0  0  0  0  0  0  0  0  0  0  0  0
  151.7786  140.5000  156.8709 C   0  0  0  0  0  0  0  0  0  0  0  0
  151.3019  139.9739  155.5510 C   0  0  1  0  0  0  0  0  0  0  0  0
  152.1403  138.7755  155.0643 C   0  0  0  0  0  0  0  0  0  0  0  0
  151.1538  137.6104  155.0364 C   0  0  2  0  0  0  0  0  0  0  0  0
  151.4547  136.6574  154.0391 O   0  0  0  0  0  0  0  0  0  0  0  0
  149.8221  138.3073  154.7904 C   0  0  0  0  0  0  0  0  0  0  0  0
  149.9041  139.5283  155.5773 N   0  0  0  0  0  0  0  0  0  0  0  0
  152.8077  139.9526  157.5202 N   0  0  0  0  0  0  0  0  0  0  0  0
  152.9126  140.7488  158.6046 N   0  0  0  0  0  0  0  0  0  0  0  0
  151.4010  140.7740  154.8162 H   0  0  0  0  0  0  0  0  0  0  0  0
  151.1354  137.1202  156.0111 H   0  0  0  0  0  0  0  0  0  0  0  0
  153.6069  140.6112  159.3253 H   0  0  0  0  0  0  0  0  0  0  0  0
  151.9187  144.9115  159.8373 H   0  0  0  0  0  0  0  0  0  0  0  0
  151.2888  144.3930  158.2762 H   0  0  0  0  0  0  0  0  0  0  0  0
  153.0183  144.2942  158.6062 H   0  0  0  0  0  0  0  0  0  0  0  0
  152.5693  142.5628  160.3871 H   0  0  0  0  0  0  0  0  0  0  0  0
  150.8559  142.6590  160.0536 H   0  0  0  0  0  0  0  0  0  0  0  0
  152.5081  138.9841  154.0583 H   0  0  0  0  0  0  0  0  0  0  0  0
  153.0084  138.5649  155.6907 H   0  0  0  0  0  0  0  0  0  0  0  0
  151.0160  136.9100  153.2410 H   0  0  0  0  0  0  0  0  0  0  0  0
  149.7213  138.5583  153.7334 H   0  0  0  0  0  0  0  0  0  0  0  0
  148.9657  137.6952  155.0738 H   0  0  0  0  0  0  0  0  0  0  0  0
  149.3117  140.2321  155.1489 H   0  0  0  0  0  0  0  0  0  0  0  0
  1  2  1  0  0  0  0
  1 17  1  0  0  0  0
  1 18  1  0  0  0  0
  1 19  1  0  0  0  0
  2  3  1  0  0  0  0
  2 20  1  0  0  0  0
  2 21  1  0  0  0  0
  3 13  1  0  0  0  0
  3  4  2  0  0  0  0
  4  5  1  0  0  0  0
  5  6  1  0  0  0  0
  5 12  2  0  0  0  0
  6 14  1  0  0  0  0
  6 11  1  0  0  0  0
  6  7  1  0  0  0  0
  7  8  1  0  0  0  0
  7 22  1  0  0  0  0
  7 23  1  0  0  0  0
  8 15  1  0  0  0  0
  8  9  1  0  0  0  0
  8 10  1  0  0  0  0
  9 24  1  0  0  0  0
 10 11  1  0  0  0  0
 10 25  1  0  0  0  0
 10 26  1  0  0  0  0
 11 27  1  0  0  0  0
 12 13  1  0  0  0  0
 13 16  1  0  0  0  0
M  END
> <s_m_source_file>
AV-unprocessed.smi

> <i_m_source_file_index>
49

> <i_lp_mmshare_version>
43012

> <i_f3d_flags>
0

> <s_epik_input>
W0NIM11bQ0gyXWMxbmMobltuSF0xKVtDQEBIXTJbQ0gyXVtDQEBIXShbT0hdKVtDSDJdW05IXTI=

> <s_epik_cmdline>
J2VwaWtfcHl0aG9uJywgJy1waCcsICc3LjAnLCAnLXRuJywgJzgnLCAnLW1hJywgJzIwMCcsICctbWV0YWxfYmluZGluZycsICctaW1hZScsICc8aW5maWxlLm1hZT4nLCAnLW9tYWUnLCAnPG91dGZpbGUubWFlPic=

> <r_lp_tautomer_probability>
0.948284

> <r_epik_Ionization_Penalty>
1.6657

> <r_epik_Ionization_Penalty_Charging>
0

> <r_epik_Ionization_Penalty_Neutral>
1.6657

> <r_epik_State_Penalty>
2.01417

> <r_epik_Charging_Adjusted_Penalty>
2.01417

> <i_epik_Tot_Q>
0

> <i_epik_Tot_abs_Q>
0

> <r_epik_Metal_State_Penalty>
2.28256

> <b_epik_Metal_Only>
0

> <s_lp_Force_Field>
OPLS_2005

> <r_lp_Energy>
18.9317

> <b_lp_Chiralities_Consistent>
1

> <s_lp_Variant>
AV-unprocessed.smi:49-12

> <Gold.Version>
5.8.1

> <Gold.Id.Protein>
6NUR|6NUR_protein|mol2

> <Gold.PLP.Fitness>
33.8986

> <Gold.PLP.PLP>
-26.0389

> <Gold.PLP.part.hbond>
-3.0000

> <Gold.PLP.part.metal>
0.0000

> <Gold.PLP.part.buried>
-3.0506

> <Gold.PLP.part.nonpolar>
-20.1446

> <Gold.PLP.part.repulsive>
0.1325

> <Gold.PLP.ligand.clash>
0.0000

> <Gold.PLP.ligand.torsion>
0.0125

> <Gold.PLP.Chemscore.Hbond>
2.6240

> <Gold.PLP.Chemscore.CHOScore>
0.0000

> <Gold.PLP.Chemscore.Metal>
0.0000

> <Gold.Chemscore.Hbonds>
donor molecule, donor type, donor heavy atom, donor atom, acceptor molecule, acceptor atom, score
      L1  H     9    24       P1  7949  0.51
      P1  H  7997  8010       L1    12  1.00
      P1  H 10752 10763       L1     9  1.00

> <Gold.PLP.Chemscore.Internal.Correction>
0.0128

> <Gold.Rescore>
     Score         DG    S(hbond)    S(metal)    S(lipo)     H(rot)  DE(clash)    DE(int)     intcor
     14.24     -14.32       2.32        0.00      50.02       1.86       0.02       0.06       ----

> <Gold.Chemscore.Fitness>
14.2351

> <Gold.Chemscore.DG>
-14.3235

> <Gold.Chemscore.ZeroCoef>
-5.4800

> <Gold.Chemscore.Hbond>
2.3180

> <Gold.Chemscore.Metal>
0.0000

> <Gold.Chemscore.Lipo>
50.0171

> <Gold.Chemscore.Internal_Hbond>
0.0000

> <Gold.Chemscore.DEClash>
0.0239

> <Gold.Chemscore.DEInternal>
0.0645

> <Gold.Chemscore.Rot>
1.8558

> <Gold.Chemscore.Internal.Correction>
   9.000000E+99

> <Gold.Chemscore.Hbonds>
donor molecule, donor type, donor heavy atom, donor atom, acceptor molecule, acceptor atom, score
      L1  H     9    24       P1  7949  0.15
      P1  H  7997  8010       L1    12  0.42
      P1  H 10752 10763       L1     9  0.96

> <Gold.Chemscore.Hbond.Weighted>
-7.7422

> <Gold.Chemscore.Metal.Weighted>
-0.0000

> <Gold.Chemscore.Lipo.Weighted>
-5.8520

> <Gold.Chemscore.Internal_Hbond.Weighted>
0.0000

> <Gold.Chemscore.DEClash.Weighted>
0.0239

> <Gold.Chemscore.DEInternal.Weighted>
0.0645

> <Gold.Chemscore.Rot.Weighted>
4.7507

> <Gold.Chemscore.Internal.Correction.Weighted>
   9.000000E+99

> <Gold.Protein.RotatedTorsions>
[ 6907 6896 6895 6894 ] final -146.59 input  -60.11 | X-H torsion
[ 7974 7965 7964 7962 ] final   19.94 input  175.53 | X-H torsion
[ 8008 7997 7996 7995 ] final   54.44 input   59.86 | X-H torsion
[ 10167 10162 10161 10158 ] final  -26.73 input  -65.29 | X-H torsion
[ 10718 10713 10712 10709 ] final -129.06 input   66.30 | X-H torsion
[ 10763 10752 10751 10750 ] final   40.01 input  -60.55 | X-H torsion
[ 11005 11000 10999 10996 ] final -135.55 input  -57.11 | X-H torsion

> <Gold.Protein.ActiveResidues>
 VAL166  LYS551  ARG553  GLY616  TRP617  ASP618  TYR619  PRO620  LYS621  CYS622 
 ASP623  PHE694  ASN695  SER759  ASP760  ASP761  ALA762  ILE779  LEU786  VAL792 
 PHE793  MET794  SER795  GLU796  ALA797  LYS798  CYS799  TRP800  GLU811  SER814 

> <Gold.Protein.RotatedAtoms>
  151.1438  133.4953  159.2596 H   0  0  0  0  0  0  0  0  0  0  0  0  # atno 6907 bound_to 6896
  151.1627  135.0280  159.8727 H   0  0  0  0  0  0  0  0  0  0  0  0  # atno 6908 bound_to 6896
  152.5463  134.1310  159.8492 H   0  0  0  0  0  0  0  0  0  0  0  0  # atno 6909 bound_to 6896
  146.2130  139.8241  142.8673 H   0  0  0  0  0  0  0  0  0  0  0  0  # atno 7974 bound_to 7965
  155.4847  140.3469  155.4345 H   0  0  0  0  0  0  0  0  0  0  0  0  # atno 8008 bound_to 7997
  156.1016  140.1437  156.9488 H   0  0  0  0  0  0  0  0  0  0  0  0  # atno 8009 bound_to 7997
  154.4697  140.0905  156.7092 H   0  0  0  0  0  0  0  0  0  0  0  0  # atno 8010 bound_to 7997
  140.7281  143.4154  151.1038 H   0  0  0  0  0  0  0  0  0  0  0  0  # atno 10167 bound_to 10162
  156.2011  130.6858  151.0540 H   0  0  0  0  0  0  0  0  0  0  0  0  # atno 10718 bound_to 10713
  152.9949  135.6204  154.2558 H   0  0  0  0  0  0  0  0  0  0  0  0  # atno 10763 bound_to 10752
  154.2295  135.2792  155.2897 H   0  0  0  0  0  0  0  0  0  0  0  0  # atno 10764 bound_to 10752
  154.5461  135.5747  153.6939 H   0  0  0  0  0  0  0  0  0  0  0  0  # atno 10765 bound_to 10752
  140.8887  134.1839  157.4542 H   0  0  0  0  0  0  0  0  0  0  0  0  # atno 11005 bound_to 11000
  145.3066  141.0208  143.3578 LP  0  0  0  0  0  0  0  0  0  0  0  0  # atno 17320 bound_to 7965
  144.8967  139.4703  143.6652 LP  0  0  0  0  0  0  0  0  0  0  0  0  # atno 17321 bound_to 7965
  139.7792  143.8380  152.3135 LP  0  0  0  0  0  0  0  0  0  0  0  0  # atno 17342 bound_to 10162
  139.8325  144.7247  150.9432 LP  0  0  0  0  0  0  0  0  0  0  0  0  # atno 17343 bound_to 10162
  157.6986  131.0784  150.6892 LP  0  0  0  0  0  0  0  0  0  0  0  0  # atno 17370 bound_to 10713
  156.6949  130.4606  149.5589 LP  0  0  0  0  0  0  0  0  0  0  0  0  # atno 17371 bound_to 10713
  139.8727  134.9849  156.5260 LP  0  0  0  0  0  0  0  0  0  0  0  0  # atno 17394 bound_to 11000
  140.8373  133.8232  155.9041 LP  0  0  0  0  0  0  0  0  0  0  0  0  # atno 17395 bound_to 11000

$$$$
