AV-unprocessed.smi:2198|AV-procd|sdf|8917|dock10
  -GOLD-   2272012133D 1   1.00000     0.00000
 Structure written by MMmdl.
 43 44  0  0  0  0  0  0  0  0  1 V2000
  144.5826  144.1165  154.6785 C   0  0  0  0  0  0  0  0  0  0  0  0
  145.6414  143.0723  154.9590 C   0  0  0  0  0  0  0  0  0  0  0  0
  145.9299  142.2659  153.8706 N   0  0  0  0  0  0  0  0  0  0  0  0
  146.8915  141.2835  154.0290 C   0  0  0  0  0  0  0  0  0  0  0  0
  147.1519  140.4504  152.7861 C   0  0  0  0  0  0  0  0  0  0  0  0
  147.5287  141.1089  155.2148 C   0  0  0  0  0  0  0  0  0  0  0  0
  148.5942  140.0361  155.4312 C   0  0  0  0  0  0  0  0  0  0  0  0
  149.9790  140.5616  155.8129 C   0  0  0  0  0  0  0  0  0  0  0  0
  150.9058  140.4939  155.0061 O   0  0  0  0  0  0  0  0  0  0  0  0
  150.1035  141.0889  157.0407 N   0  0  0  0  0  0  0  0  0  0  0  0
  151.3257  141.6640  157.5932 C   0  0  2  0  0  0  0  0  0  0  0  0
  151.7561  140.9069  158.8653 C   0  0  0  0  0  0  0  0  0  0  0  0
  152.9981  141.5486  159.5026 C   0  0  0  0  0  0  0  0  0  0  0  0
  152.7689  143.0395  159.7966 C   0  0  0  0  0  0  0  0  0  0  0  0
  152.3465  143.8066  158.5290 C   0  0  2  0  0  0  0  0  0  0  0  0
  152.1149  145.2952  158.8245 C   0  0  0  0  0  0  0  0  0  0  0  0
  151.1002  143.1571  157.8964 C   0  0  0  0  0  0  0  0  0  0  0  0
  147.1693  141.9960  156.3466 C   0  0  0  0  0  0  0  0  0  0  0  0
  147.6991  141.8787  157.4508 O   0  0  0  0  0  0  0  0  0  0  0  0
  146.1942  142.9832  156.1304 N   0  0  0  0  0  0  0  0  0  0  0  0
  145.4776  142.3602  152.9726 H   0  0  0  0  0  0  0  0  0  0  0  0
  144.4655  144.7911  155.5275 H   0  0  0  0  0  0  0  0  0  0  0  0
  143.6211  143.6393  154.4871 H   0  0  0  0  0  0  0  0  0  0  0  0
  144.8547  144.7121  153.8066 H   0  0  0  0  0  0  0  0  0  0  0  0
  148.1923  140.5433  152.4744 H   0  0  0  0  0  0  0  0  0  0  0  0
  146.5250  140.7673  151.9517 H   0  0  0  0  0  0  0  0  0  0  0  0
  146.9415  139.3986  152.9805 H   0  0  0  0  0  0  0  0  0  0  0  0
  148.7003  139.4123  154.5432 H   0  0  0  0  0  0  0  0  0  0  0  0
  148.2433  139.3516  156.2045 H   0  0  0  0  0  0  0  0  0  0  0  0
  149.2870  141.1017  157.6345 H   0  0  0  0  0  0  0  0  0  0  0  0
  152.1228  141.5878  156.8509 H   0  0  0  0  0  0  0  0  0  0  0  0
  150.9394  140.9035  159.5886 H   0  0  0  0  0  0  0  0  0  0  0  0
  151.9653  139.8626  158.6304 H   0  0  0  0  0  0  0  0  0  0  0  0
  153.2565  141.0236  160.4228 H   0  0  0  0  0  0  0  0  0  0  0  0
  153.8509  141.4351  158.8323 H   0  0  0  0  0  0  0  0  0  0  0  0
  152.0019  143.1445  160.5654 H   0  0  0  0  0  0  0  0  0  0  0  0
  153.6804  143.4734  160.2089 H   0  0  0  0  0  0  0  0  0  0  0  0
  153.1628  143.7389  157.8081 H   0  0  0  0  0  0  0  0  0  0  0  0
  151.3060  145.4366  159.5420 H   0  0  0  0  0  0  0  0  0  0  0  0
  151.8535  145.8397  157.9167 H   0  0  0  0  0  0  0  0  0  0  0  0
  153.0115  145.7574  159.2384 H   0  0  0  0  0  0  0  0  0  0  0  0
  150.8376  143.6822  156.9769 H   0  0  0  0  0  0  0  0  0  0  0  0
  150.2489  143.2708  158.5695 H   0  0  0  0  0  0  0  0  0  0  0  0
  1 22  1  0  0  0  0
  1 23  1  0  0  0  0
  1 24  1  0  0  0  0
  1  2  1  0  0  0  0
  2  3  1  0  0  0  0
  2 20  2  0  0  0  0
  3  4  1  0  0  0  0
  3 21  1  0  0  0  0
  4  6  2  0  0  0  0
  4  5  1  0  0  0  0
  5 25  1  0  0  0  0
  5 26  1  0  0  0  0
  5 27  1  0  0  0  0
  6 18  1  0  0  0  0
  6  7  1  0  0  0  0
  7  8  1  0  0  0  0
  7 28  1  0  0  0  0
  7 29  1  0  0  0  0
  8  9  2  0  0  0  0
  8 10  1  0  0  0  0
 10 11  1  0  0  0  0
 10 30  1  0  0  0  0
 11 17  1  0  0  0  0
 11 12  1  0  0  0  0
 11 31  1  0  0  0  0
 12 13  1  0  0  0  0
 12 32  1  0  0  0  0
 12 33  1  0  0  0  0
 13 14  1  0  0  0  0
 13 34  1  0  0  0  0
 13 35  1  0  0  0  0
 14 15  1  0  0  0  0
 14 36  1  0  0  0  0
 14 37  1  0  0  0  0
 15 16  1  0  0  0  0
 15 17  1  0  0  0  0
 15 38  1  0  0  0  0
 16 39  1  0  0  0  0
 16 40  1  0  0  0  0
 16 41  1  0  0  0  0
 17 42  1  0  0  0  0
 17 43  1  0  0  0  0
 18 19  2  0  0  0  0
 18 20  1  0  0  0  0
M  END
> <s_m_source_file>
AV-unprocessed.smi

> <i_m_source_file_index>
2198

> <i_lp_mmshare_version>
43012

> <i_f3d_flags>
0

> <s_epik_input>
W0NIM11jMW5jKFtDSDNdKWMoYyg9TylbbkhdMSlbQ0gyXUMoPU8pW05IXVtDQEBIXTJbQ0gyXVtDSDJdW0NIMl1bQ0BASF0oW0NIM10pW0NIMl0y

> <s_epik_cmdline>
J2VwaWtfcHl0aG9uJywgJy1waCcsICc3LjAnLCAnLXRuJywgJzgnLCAnLW1hJywgJzIwMCcsICctbWV0YWxfYmluZGluZycsICctaW1hZScsICc8aW5maWxlLm1hZT4nLCAnLW9tYWUnLCAnPG91dGZpbGUubWFlPic=

> <r_lp_tautomer_probability>
0.156392

> <r_epik_Ionization_Penalty>
0.0136514

> <r_epik_Ionization_Penalty_Charging>
0.0135207

> <r_epik_Ionization_Penalty_Neutral>
0.000130657

> <r_epik_State_Penalty>
1.15342

> <r_epik_Charging_Adjusted_Penalty>
1.16694

> <i_epik_Tot_Q>
0

> <i_epik_Tot_abs_Q>
0

> <r_epik_Metal_State_Penalty>
1.31404

> <b_epik_Metal_Only>
0

> <s_lp_Force_Field>
OPLS_2005

> <r_lp_Energy>
14.0485

> <b_lp_Chiralities_Consistent>
1

> <s_lp_Variant>
AV-unprocessed.smi:2198-7

> <Gold.Version>
5.8.1

> <Gold.Id.Protein>
6NUR|6NUR_protein|mol2

> <Gold.PLP.Fitness>
41.2088

> <Gold.PLP.PLP>
-38.4208

> <Gold.PLP.part.hbond>
-1.5154

> <Gold.PLP.part.metal>
0.0000

> <Gold.PLP.part.buried>
-3.8805

> <Gold.PLP.part.nonpolar>
-32.6915

> <Gold.PLP.part.repulsive>
0.4541

> <Gold.PLP.ligand.clash>
0.0000

> <Gold.PLP.ligand.torsion>
0.1086

> <Gold.PLP.Chemscore.Hbond>
1.0000

> <Gold.PLP.Chemscore.CHOScore>
0.0000

> <Gold.PLP.Chemscore.Metal>
0.0000

> <Gold.Chemscore.Hbonds>
donor molecule, donor type, donor heavy atom, donor atom, acceptor molecule, acceptor atom, score
      P1  H  7989  7998       L1     9  1.00

> <Gold.PLP.Chemscore.Internal.Correction>
0.0051

> <Gold.Rescore>
     Score         DG    S(hbond)    S(metal)    S(lipo)     H(rot)  DE(clash)    DE(int)     intcor
     14.94     -16.70       0.97        0.00     100.64       1.48       0.01       1.75       ----

> <Gold.Chemscore.Fitness>
14.9358

> <Gold.Chemscore.DG>
-16.7030

> <Gold.Chemscore.ZeroCoef>
-5.4800

> <Gold.Chemscore.Hbond>
0.9692

> <Gold.Chemscore.Metal>
0.0000

> <Gold.Chemscore.Lipo>
100.6412

> <Gold.Chemscore.Internal_Hbond>
0.0000

> <Gold.Chemscore.DEClash>
0.0137

> <Gold.Chemscore.DEInternal>
1.7535

> <Gold.Chemscore.Rot>
1.4801

> <Gold.Chemscore.Internal.Correction>
   9.000000E+99

> <Gold.Chemscore.Hbonds>
donor molecule, donor type, donor heavy atom, donor atom, acceptor molecule, acceptor atom, score
      P1  H  7989  7998       L1     9  0.95

> <Gold.Chemscore.Hbond.Weighted>
-3.2371

> <Gold.Chemscore.Metal.Weighted>
-0.0000

> <Gold.Chemscore.Lipo.Weighted>
-11.7750

> <Gold.Chemscore.Internal_Hbond.Weighted>
0.0000

> <Gold.Chemscore.DEClash.Weighted>
0.0137

> <Gold.Chemscore.DEInternal.Weighted>
1.7535

> <Gold.Chemscore.Rot.Weighted>
3.7891

> <Gold.Chemscore.Internal.Correction.Weighted>
   9.000000E+99

> <Gold.Protein.RotatedTorsions>
[ 6907 6896 6895 6894 ] final   60.51 input  -60.11 | X-H torsion
[ 7974 7965 7964 7962 ] final   85.19 input  175.53 | X-H torsion
[ 8008 7997 7996 7995 ] final -139.73 input   59.86 | X-H torsion
[ 10167 10162 10161 10158 ] final   38.21 input  -65.29 | X-H torsion
[ 10718 10713 10712 10709 ] final   25.40 input   66.30 | X-H torsion
[ 10763 10752 10751 10750 ] final  -96.30 input  -60.55 | X-H torsion
[ 11005 11000 10999 10996 ] final  134.77 input  -57.11 | X-H torsion

> <Gold.Protein.ActiveResidues>
 VAL166  LYS551  ARG553  GLY616  TRP617  ASP618  TYR619  PRO620  LYS621  CYS622 
 ASP623  PHE694  ASN695  SER759  ASP760  ASP761  ALA762  ILE779  LEU786  VAL792 
 PHE793  MET794  SER795  GLU796  ALA797  LYS798  CYS799  TRP800  GLU811  SER814 

> <Gold.Protein.RotatedAtoms>
  152.4009  134.6288  160.0069 H   0  0  0  0  0  0  0  0  0  0  0  0  # atno 6907 bound_to 6896
  151.6493  133.3316  159.3156 H   0  0  0  0  0  0  0  0  0  0  0  0  # atno 6908 bound_to 6896
  150.7909  134.6975  159.6576 H   0  0  0  0  0  0  0  0  0  0  0  0  # atno 6909 bound_to 6896
  145.5888  139.2335  143.2311 H   0  0  0  0  0  0  0  0  0  0  0  0  # atno 7974 bound_to 7965
  155.4497  140.0538  157.3002 H   0  0  0  0  0  0  0  0  0  0  0  0  # atno 8008 bound_to 7997
  154.4782  140.2070  155.9782 H   0  0  0  0  0  0  0  0  0  0  0  0  # atno 8009 bound_to 7997
  156.1166  140.3195  155.8152 H   0  0  0  0  0  0  0  0  0  0  0  0  # atno 8010 bound_to 7997
  140.3958  144.1791  150.6132 H   0  0  0  0  0  0  0  0  0  0  0  0  # atno 10167 bound_to 10162
  157.1929  130.6854  149.6157 H   0  0  0  0  0  0  0  0  0  0  0  0  # atno 10718 bound_to 10713
  154.7227  135.5089  153.8837 H   0  0  0  0  0  0  0  0  0  0  0  0  # atno 10763 bound_to 10752
  153.0877  135.6650  153.9925 H   0  0  0  0  0  0  0  0  0  0  0  0  # atno 10764 bound_to 10752
  153.9745  135.3035  155.3404 H   0  0  0  0  0  0  0  0  0  0  0  0  # atno 10765 bound_to 10752
  139.9936  134.9505  156.9914 H   0  0  0  0  0  0  0  0  0  0  0  0  # atno 11005 bound_to 11000
  146.1662  140.6714  142.9254 LP  0  0  0  0  0  0  0  0  0  0  0  0  # atno 17320 bound_to 7965
  144.7360  140.4811  143.6903 LP  0  0  0  0  0  0  0  0  0  0  0  0  # atno 17321 bound_to 7965
  140.4792  143.2385  151.8980 LP  0  0  0  0  0  0  0  0  0  0  0  0  # atno 17342 bound_to 10162
  139.4787  144.5288  151.8697 LP  0  0  0  0  0  0  0  0  0  0  0  0  # atno 17343 bound_to 10162
  155.9709  130.4608  150.6088 LP  0  0  0  0  0  0  0  0  0  0  0  0  # atno 17370 bound_to 10713
  157.3843  131.0786  151.1449 LP  0  0  0  0  0  0  0  0  0  0  0  0  # atno 17371 bound_to 10713
  140.4860  134.1241  155.7224 LP  0  0  0  0  0  0  0  0  0  0  0  0  # atno 17394 bound_to 11000
  141.1586  133.8835  157.1909 LP  0  0  0  0  0  0  0  0  0  0  0  0  # atno 17395 bound_to 11000

$$$$
