AV-unprocessed.smi:1701|AV-procd|sdf|6832|dock2
  -GOLD-   22720 8 13D 1   1.00000     0.00000
 Structure written by MMmdl.
 54 56  0  0  0  0  0  0  0  0  2 V2000
  153.1417  142.3359  160.5987 C   0  0  0  0  0  0  0  0  0  0  0  0
  152.5263  141.5864  159.4067 C   0  0  0  0  0  0  0  0  0  0  0  0
  151.4204  142.3143  158.7851 N   0  0  0  0  0  0  0  0  0  0  0  0
  151.4344  143.7744  158.9012 C   0  0  0  0  0  0  0  0  0  0  0  0
  152.4544  144.4422  157.9653 C   0  0  0  0  0  0  0  0  0  0  0  0
  150.9331  141.7352  157.5927 C   0  0  0  0  0  0  0  0  0  0  0  0
  151.8012  140.9844  156.7670 C   0  0  0  0  0  0  0  0  0  0  0  0
  151.3047  140.4228  155.5753 C   0  0  0  0  0  0  0  0  0  0  0  0
  149.9487  140.6349  155.2319 C   0  0  0  0  0  0  0  0  0  0  0  0
  149.3148  140.1112  154.0732 N   0  0  0  0  0  0  0  0  0  0  0  0
  148.0683  139.6190  153.9325 C   0  0  0  0  0  0  0  0  0  0  0  0
  147.2538  139.4959  154.8437 O   0  0  0  0  0  0  0  0  0  0  0  0
  147.7582  139.2559  152.6742 N   0  0  0  0  0  0  0  0  0  0  0  0
  146.5040  138.6890  152.1683 C   0  0  1  0  0  0  0  0  0  0  0  0
  146.5630  138.3659  150.6628 C   0  0  0  0  0  0  0  0  0  0  0  0
  145.8173  137.0354  150.5213 C   0  0  0  0  0  0  0  0  0  0  0  0
  146.1344  136.3489  151.7784 N   0  3  2  0  0  0  0  0  0  0  0  0
  145.3916  135.1190  152.1194 C   0  0  0  0  0  0  0  0  0  0  0  0
  146.0410  134.4907  153.3709 C   0  0  0  0  0  0  0  0  0  0  0  0
  146.1711  135.5022  154.5325 C   0  0  0  0  0  0  0  0  0  0  0  0
  146.8359  136.8200  154.0774 C   0  0  0  0  0  0  0  0  0  0  0  0
  146.0842  137.3616  152.8476 C   0  0  1  0  0  0  0  0  0  0  0  0
  149.1611  141.3902  156.1230 C   0  0  0  0  0  0  0  0  0  0  0  0
  149.6323  141.9289  157.2659 N   0  0  0  0  0  0  0  0  0  0  0  0
  153.9462  141.7516  161.0452 H   0  0  0  0  0  0  0  0  0  0  0  0
  152.4019  142.5263  161.3765 H   0  0  0  0  0  0  0  0  0  0  0  0
  153.5619  143.2943  160.2924 H   0  0  0  0  0  0  0  0  0  0  0  0
  153.3011  141.3626  158.6740 H   0  0  0  0  0  0  0  0  0  0  0  0
  152.1546  140.6185  159.7440 H   0  0  0  0  0  0  0  0  0  0  0  0
  150.4408  144.1553  158.6633 H   0  0  0  0  0  0  0  0  0  0  0  0
  151.6274  144.0636  159.9350 H   0  0  0  0  0  0  0  0  0  0  0  0
  152.3972  145.5277  158.0483 H   0  0  0  0  0  0  0  0  0  0  0  0
  152.2610  144.1802  156.9248 H   0  0  0  0  0  0  0  0  0  0  0  0
  153.4784  144.1514  158.1983 H   0  0  0  0  0  0  0  0  0  0  0  0
  152.8324  140.8220  157.0440 H   0  0  0  0  0  0  0  0  0  0  0  0
  151.9703  139.8333  154.9651 H   0  0  0  0  0  0  0  0  0  0  0  0
  149.8933  140.0833  153.2467 H   0  0  0  0  0  0  0  0  0  0  0  0
  148.4711  139.4259  151.9792 H   0  0  0  0  0  0  0  0  0  0  0  0
  145.7005  139.4148  152.3065 H   0  0  0  0  0  0  0  0  0  0  0  0
  146.1294  139.1538  150.0459 H   0  0  0  0  0  0  0  0  0  0  0  0
  147.5980  138.2319  150.3439 H   0  0  0  0  0  0  0  0  0  0  0  0
  144.7410  137.2021  150.4518 H   0  0  0  0  0  0  0  0  0  0  0  0
  146.1383  136.4631  149.6504 H   0  0  0  0  0  0  0  0  0  0  0  0
  144.3410  135.3513  152.3001 H   0  0  0  0  0  0  0  0  0  0  0  0
  145.4303  134.4199  151.2834 H   0  0  0  0  0  0  0  0  0  0  0  0
  145.4672  133.6215  153.6937 H   0  0  0  0  0  0  0  0  0  0  0  0
  147.0336  134.1214  153.1092 H   0  0  0  0  0  0  0  0  0  0  0  0
  145.1785  135.7198  154.9294 H   0  0  0  0  0  0  0  0  0  0  0  0
  146.7383  135.0603  155.3523 H   0  0  0  0  0  0  0  0  0  0  0  0
  146.8101  137.5402  154.8950 H   0  0  0  0  0  0  0  0  0  0  0  0
  147.8859  136.6475  153.8372 H   0  0  0  0  0  0  0  0  0  0  0  0
  145.0365  137.4862  153.1302 H   0  0  0  0  0  0  0  0  0  0  0  0
  148.1172  141.5716  155.9128 H   0  0  0  0  0  0  0  0  0  0  0  0
  147.1048  136.0811  151.6972 H   0  0  0  0  0  0  0  0  0  0  0  0
  1  2  1  0  0  0  0
  1 25  1  0  0  0  0
  1 26  1  0  0  0  0
  1 27  1  0  0  0  0
  2  3  1  0  0  0  0
  2 28  1  0  0  0  0
  2 29  1  0  0  0  0
  3  4  1  0  0  0  0
  3  6  1  0  0  0  0
  4  5  1  0  0  0  0
  4 30  1  0  0  0  0
  4 31  1  0  0  0  0
  5 32  1  0  0  0  0
  5 33  1  0  0  0  0
  5 34  1  0  0  0  0
  6 24  1  0  0  0  0
  6  7  2  0  0  0  0
  7  8  1  0  0  0  0
  7 35  1  0  0  0  0
  8  9  2  0  0  0  0
  8 36  1  0  0  0  0
  9 10  1  0  0  0  0
  9 23  1  0  0  0  0
 10 11  1  0  0  0  0
 10 37  1  0  0  0  0
 11 12  2  0  0  0  0
 11 13  1  0  0  0  0
 13 14  1  0  0  0  0
 13 38  1  0  0  0  0
 14 22  1  0  0  0  0
 14 15  1  0  0  0  0
 14 39  1  0  0  0  0
 15 16  1  0  0  0  0
 15 40  1  0  0  0  0
 15 41  1  0  0  0  0
 16 17  1  0  0  0  0
 16 42  1  0  0  0  0
 16 43  1  0  0  0  0
 17 22  1  0  0  0  0
 17 18  1  0  0  0  0
 17 54  1  0  0  0  0
 18 19  1  0  0  0  0
 18 44  1  0  0  0  0
 18 45  1  0  0  0  0
 19 20  1  0  0  0  0
 19 46  1  0  0  0  0
 19 47  1  0  0  0  0
 20 21  1  0  0  0  0
 20 48  1  0  0  0  0
 20 49  1  0  0  0  0
 21 22  1  0  0  0  0
 21 50  1  0  0  0  0
 21 51  1  0  0  0  0
 22 52  1  0  0  0  0
 23 24  2  0  0  0  0
 23 53  1  0  0  0  0
M  CHG  1  17   1
M  END
> <s_m_source_file>
AV-unprocessed.smi

> <i_m_source_file_index>
1701

> <i_lp_mmshare_version>
43012

> <i_f3d_flags>
0

> <s_epik_input>
W0NIM11bQ0gyXU4oW0NIMl1bQ0gzXSljMVtjSF1bY0hdYyhbY0hdbjEpW05IXUMoPU8pW05IXVtDQEhdKFtDSDJdW0NIMl0yKVtDQEBIXShOMjMpW0NIMl1bQ0gyXVtDSDJdW0NIMl0z

> <s_epik_cmdline>
J2VwaWtfcHl0aG9uJywgJy1waCcsICc3LjAnLCAnLXRuJywgJzgnLCAnLW1hJywgJzIwMCcsICctbWV0YWxfYmluZGluZycsICctaW1hZScsICc8aW5maWxlLm1hZT4nLCAnLW9tYWUnLCAnPG91dGZpbGUubWFlPic=

> <r_lp_tautomer_probability>
1

> <r_epik_Ionization_Penalty>
0.56662

> <r_epik_Ionization_Penalty_Charging>
0.000974069

> <r_epik_Ionization_Penalty_Neutral>
0.565646

> <r_epik_State_Penalty>
2.0247

> <r_epik_Charging_Adjusted_Penalty>
2.02568

> <i_epik_Tot_Q>
1

> <i_epik_Tot_abs_Q>
1

> <r_epik_Metal_State_Penalty>
1.51504

> <b_epik_Metal_Only>
0

> <s_lp_Force_Field>
OPLS_2005

> <r_lp_Energy>
60.356

> <b_lp_Chiralities_Consistent>
1

> <s_lp_Variant>
AV-unprocessed.smi:1701-12

> <Gold.Version>
5.8.1

> <Gold.Id.Protein>
6NUR|6NUR_protein|mol2

> <Gold.PLP.Fitness>
48.0514

> <Gold.PLP.PLP>
-39.3227

> <Gold.PLP.part.hbond>
-2.9836

> <Gold.PLP.part.metal>
0.0000

> <Gold.PLP.part.buried>
5.7757

> <Gold.PLP.part.nonpolar>
-42.7346

> <Gold.PLP.part.repulsive>
0.4625

> <Gold.PLP.ligand.clash>
0.0000

> <Gold.PLP.ligand.torsion>
1.4075

> <Gold.PLP.Chemscore.Hbond>
3.5621

> <Gold.PLP.Chemscore.CHOScore>
0.0000

> <Gold.PLP.Chemscore.Metal>
0.0000

> <Gold.Chemscore.Hbonds>
donor molecule, donor type, donor heavy atom, donor atom, acceptor molecule, acceptor atom, score
      L1  H    10    37       P1  7957  0.61
      L1  H    13    38       P1  7957  0.94
      L1  H    17    54       P1  7948  2.00

> <Gold.PLP.Chemscore.Internal.Correction>
0.8574

> <Gold.Rescore>
     Score         DG    S(hbond)    S(metal)    S(lipo)     H(rot)  DE(clash)    DE(int)     intcor
     16.40     -21.55       2.00        0.00     108.43       1.28       1.34       3.81       ----

> <Gold.Chemscore.Fitness>
16.4037

> <Gold.Chemscore.DG>
-21.5467

> <Gold.Chemscore.ZeroCoef>
-5.4800

> <Gold.Chemscore.Hbond>
1.9960

> <Gold.Chemscore.Metal>
0.0000

> <Gold.Chemscore.Lipo>
108.4330

> <Gold.Chemscore.Internal_Hbond>
0.0000

> <Gold.Chemscore.DEClash>
1.3371

> <Gold.Chemscore.DEInternal>
3.8058

> <Gold.Chemscore.Rot>
1.2838

> <Gold.Chemscore.Internal.Correction>
   9.000000E+99

> <Gold.Chemscore.Hbonds>
donor molecule, donor type, donor heavy atom, donor atom, acceptor molecule, acceptor atom, score
      L1  H    10    37       P1  7957  0.61
      L1  H    13    38       P1  7957  0.90
      L1  H    17    54       P1  7948  0.99

> <Gold.Chemscore.Hbond.Weighted>
-6.6665

> <Gold.Chemscore.Metal.Weighted>
-0.0000

> <Gold.Chemscore.Lipo.Weighted>
-12.6867

> <Gold.Chemscore.Internal_Hbond.Weighted>
0.0000

> <Gold.Chemscore.DEClash.Weighted>
1.3371

> <Gold.Chemscore.DEInternal.Weighted>
3.8058

> <Gold.Chemscore.Rot.Weighted>
3.2865

> <Gold.Chemscore.Internal.Correction.Weighted>
   9.000000E+99

> <Gold.Protein.RotatedTorsions>
[ 6907 6896 6895 6894 ] final -121.23 input  -60.11 | X-H torsion
[ 7974 7965 7964 7962 ] final   18.70 input  175.53 | X-H torsion
[ 8008 7997 7996 7995 ] final   64.10 input   59.86 | X-H torsion
[ 10167 10162 10161 10158 ] final -177.79 input  -65.29 | X-H torsion
[ 10718 10713 10712 10709 ] final   78.35 input   66.30 | X-H torsion
[ 10763 10752 10751 10750 ] final   28.58 input  -60.55 | X-H torsion
[ 11005 11000 10999 10996 ] final -131.25 input  -57.11 | X-H torsion

> <Gold.Protein.ActiveResidues>
 VAL166  LYS551  ARG553  GLY616  TRP617  ASP618  TYR619  PRO620  LYS621  CYS622 
 ASP623  PHE694  ASN695  SER759  ASP760  ASP761  ALA762  ILE779  LEU786  VAL792 
 PHE793  MET794  SER795  GLU796  ALA797  LYS798  CYS799  TRP800  GLU811  SER814 

> <Gold.Protein.RotatedAtoms>
  150.8465  133.7854  159.3041 H   0  0  0  0  0  0  0  0  0  0  0  0  # atno 6907 bound_to 6896
  151.5539  135.1065  159.9966 H   0  0  0  0  0  0  0  0  0  0  0  0  # atno 6908 bound_to 6896
  152.4517  133.7600  159.6797 H   0  0  0  0  0  0  0  0  0  0  0  0  # atno 6909 bound_to 6896
  146.2175  139.8419  142.8639 H   0  0  0  0  0  0  0  0  0  0  0  0  # atno 7974 bound_to 7965
  155.6407  140.3497  155.4714 H   0  0  0  0  0  0  0  0  0  0  0  0  # atno 8008 bound_to 7997
  155.9928  140.1197  157.0645 H   0  0  0  0  0  0  0  0  0  0  0  0  # atno 8009 bound_to 7997
  154.4224  140.1116  156.5576 H   0  0  0  0  0  0  0  0  0  0  0  0  # atno 8010 bound_to 7997
  139.5463  144.2227  152.0994 H   0  0  0  0  0  0  0  0  0  0  0  0  # atno 10167 bound_to 10162
  157.6742  130.9864  150.1773 H   0  0  0  0  0  0  0  0  0  0  0  0  # atno 10718 bound_to 10713
  153.0482  135.6509  154.0760 H   0  0  0  0  0  0  0  0  0  0  0  0  # atno 10763 bound_to 10752
  154.0454  135.2900  155.3350 H   0  0  0  0  0  0  0  0  0  0  0  0  # atno 10764 bound_to 10752
  154.6754  135.5340  153.8259 H   0  0  0  0  0  0  0  0  0  0  0  0  # atno 10765 bound_to 10752
  140.9275  134.1363  157.4263 H   0  0  0  0  0  0  0  0  0  0  0  0  # atno 11005 bound_to 11000
  145.2890  141.0161  143.3674 LP  0  0  0  0  0  0  0  0  0  0  0  0  # atno 17320 bound_to 7965
  144.9092  139.4551  143.6595 LP  0  0  0  0  0  0  0  0  0  0  0  0  # atno 17321 bound_to 7965
  140.1714  144.4932  150.6577 LP  0  0  0  0  0  0  0  0  0  0  0  0  # atno 17342 bound_to 10162
  140.6712  143.2286  151.5620 LP  0  0  0  0  0  0  0  0  0  0  0  0  # atno 17343 bound_to 10162
  156.2514  130.3701  149.8229 LP  0  0  0  0  0  0  0  0  0  0  0  0  # atno 17370 bound_to 10713
  156.6000  130.8543  151.3429 LP  0  0  0  0  0  0  0  0  0  0  0  0  # atno 17371 bound_to 10713
  139.8789  134.9993  156.5949 LP  0  0  0  0  0  0  0  0  0  0  0  0  # atno 17394 bound_to 11000
  140.7907  133.8585  155.8643 LP  0  0  0  0  0  0  0  0  0  0  0  0  # atno 17395 bound_to 11000

$$$$
