AV-unprocessed.smi:581|AV-procd|sdf|2994|dock8
  -GOLD-   2262023503D 1   1.00000     0.00000
 Structure written by MMmdl.
 34 35  0  0  0  0  0  0  0  0  3 V2000
  149.2276  140.2072  154.4342 C   0  0  0  0  0  0  0  0  0  0  0  0
  150.4412  139.9878  155.3200 C   0  0  0  0  0  0  0  0  0  0  0  0
  150.7021  140.9951  156.2612 N   0  0  0  0  0  0  0  0  0  0  0  0
  151.7169  140.8910  157.0658 C   0  0  0  0  0  0  0  0  0  0  0  0
  152.0098  141.8697  158.0198 N   0  0  0  0  0  0  0  0  0  0  0  0
  152.3668  141.5059  159.3933 C   0  0  0  0  0  0  0  0  0  0  0  0
  153.1774  142.6209  160.0743 C   0  0  0  0  0  0  0  0  0  0  0  0
  152.4499  143.8409  160.0253 O   0  0  0  0  0  0  0  0  0  0  0  0
  152.2160  144.2486  158.6842 C   0  0  0  0  0  0  0  0  0  0  0  0
  151.3747  143.1865  157.9570 C   0  0  0  0  0  0  0  0  0  0  0  0
  152.5851  139.8113  157.0305 N   0  5  0  0  0  0  0  0  0  0  0  0
  152.3888  138.7918  156.1465 C   0  0  0  0  0  0  0  0  0  0  0  0
  153.1369  137.8159  156.1025 O   0  0  0  0  0  0  0  0  0  0  0  0
  151.2384  138.8860  155.2306 C   0  0  0  0  0  0  0  0  0  0  0  0
  151.0078  137.7649  154.2182 C   0  0  0  0  0  0  0  0  0  0  0  0
  150.0903  136.6601  154.7723 C   0  0  0  0  0  0  0  0  0  0  0  0
  150.6008  136.1620  156.1245 C   0  0  0  0  0  0  0  0  0  0  0  0
  149.8154  136.2326  157.0951 O   0  0  0  0  0  0  0  0  0  0  0  0
  151.7700  135.7195  156.1658 O   0  5  0  0  0  0  0  0  0  0  0  0
  148.5773  139.3321  154.4478 H   0  0  0  0  0  0  0  0  0  0  0  0
  149.5377  140.3949  153.4059 H   0  0  0  0  0  0  0  0  0  0  0  0
  148.6420  141.0631  154.7719 H   0  0  0  0  0  0  0  0  0  0  0  0
  151.4487  141.3213  159.9523 H   0  0  0  0  0  0  0  0  0  0  0  0
  152.9426  140.5807  159.4289 H   0  0  0  0  0  0  0  0  0  0  0  0
  153.3664  142.3633  161.1165 H   0  0  0  0  0  0  0  0  0  0  0  0
  154.1502  142.7420  159.5948 H   0  0  0  0  0  0  0  0  0  0  0  0
  151.6897  145.2031  158.6909 H   0  0  0  0  0  0  0  0  0  0  0  0
  153.1644  144.4115  158.1695 H   0  0  0  0  0  0  0  0  0  0  0  0
  151.2357  143.4942  156.9195 H   0  0  0  0  0  0  0  0  0  0  0  0
  150.3828  143.1226  158.4063 H   0  0  0  0  0  0  0  0  0  0  0  0
  150.5787  138.1743  153.3036 H   0  0  0  0  0  0  0  0  0  0  0  0
  151.9677  137.3439  153.9148 H   0  0  0  0  0  0  0  0  0  0  0  0
  149.0716  137.0325  154.8878 H   0  0  0  0  0  0  0  0  0  0  0  0
  150.0409  135.8224  154.0754 H   0  0  0  0  0  0  0  0  0  0  0  0
  1  2  1  0  0  0  0
  1 20  1  0  0  0  0
  1 21  1  0  0  0  0
  1 22  1  0  0  0  0
  2 14  2  0  0  0  0
  2  3  1  0  0  0  0
  3  4  2  0  0  0  0
  4  5  1  0  0  0  0
  4 11  1  0  0  0  0
  5 10  1  0  0  0  0
  5  6  1  0  0  0  0
  6  7  1  0  0  0  0
  6 23  1  0  0  0  0
  6 24  1  0  0  0  0
  7  8  1  0  0  0  0
  7 25  1  0  0  0  0
  7 26  1  0  0  0  0
  8  9  1  0  0  0  0
  9 10  1  0  0  0  0
  9 27  1  0  0  0  0
  9 28  1  0  0  0  0
 10 29  1  0  0  0  0
 10 30  1  0  0  0  0
 11 12  1  0  0  0  0
 12 13  2  0  0  0  0
 12 14  1  0  0  0  0
 14 15  1  0  0  0  0
 15 16  1  0  0  0  0
 15 31  1  0  0  0  0
 15 32  1  0  0  0  0
 16 17  1  0  0  0  0
 16 33  1  0  0  0  0
 16 34  1  0  0  0  0
 17 18  2  0  0  0  0
 17 19  1  0  0  0  0
M  CHG  1  11  -1
M  CHG  1  19  -1
M  END
> <s_m_source_file>
AV-unprocessed.smi

> <i_m_source_file_index>
581

> <i_lp_mmshare_version>
43012

> <i_f3d_flags>
0

> <s_epik_input>
W0NIMl0xW0NIMl1PW0NIMl1bQ0gyXU4xYyhuYzJbQ0gzXSlbbkhdYyg9TyljMltDSDJdW0NIMl1DKD1PKVtPSF0=

> <s_epik_cmdline>
J2VwaWtfcHl0aG9uJywgJy1waCcsICc3LjAnLCAnLXRuJywgJzgnLCAnLW1hJywgJzIwMCcsICctbWV0YWxfYmluZGluZycsICctaW1hZScsICc8aW5maWxlLm1hZT4nLCAnLW9tYWUnLCAnPG91dGZpbGUubWFlPic=

> <r_lp_tautomer_probability>
0.878553

> <r_epik_Ionization_Penalty>
5.42566

> <r_epik_Ionization_Penalty_Charging>
0.003235

> <r_epik_Ionization_Penalty_Neutral>
5.42243

> <r_epik_State_Penalty>
3.98511

> <r_epik_Charging_Adjusted_Penalty>
3.98834

> <i_epik_Tot_Q>
-2

> <i_epik_Tot_abs_Q>
2

> <r_epik_Metal_State_Penalty>
0.64219

> <b_epik_Metal_Only>
1

> <s_lp_Force_Field>
OPLS_2005

> <r_lp_Energy>
30.9787

> <b_lp_Chiralities_Consistent>
1

> <s_lp_Variant>
AV-unprocessed.smi:581-4

> <Gold.Version>
5.8.1

> <Gold.Id.Protein>
6NUR|6NUR_protein|mol2

> <Gold.PLP.Fitness>
45.6412

> <Gold.PLP.PLP>
-35.0628

> <Gold.PLP.part.hbond>
-2.4639

> <Gold.PLP.part.metal>
0.0000

> <Gold.PLP.part.buried>
-3.6112

> <Gold.PLP.part.nonpolar>
-28.8692

> <Gold.PLP.part.repulsive>
0.0769

> <Gold.PLP.ligand.clash>
0.0000

> <Gold.PLP.ligand.torsion>
0.8170

> <Gold.PLP.Chemscore.Hbond>
4.0000

> <Gold.PLP.Chemscore.CHOScore>
0.0000

> <Gold.PLP.Chemscore.Metal>
0.0000

> <Gold.Chemscore.Hbonds>
donor molecule, donor type, donor heavy atom, donor atom, acceptor molecule, acceptor atom, score
      P1  H  7997  8009       L1    11  2.00
      P1  H 10752 10765       L1    19  2.00

> <Gold.PLP.Chemscore.Internal.Correction>
0.2123

> <Gold.Rescore>
     Score         DG    S(hbond)    S(metal)    S(lipo)     H(rot)  DE(clash)    DE(int)     intcor
     12.85     -14.96       1.61        0.00      75.77       1.86       0.24       1.87       ----

> <Gold.Chemscore.Fitness>
12.8538

> <Gold.Chemscore.DG>
-14.9622

> <Gold.Chemscore.ZeroCoef>
-5.4800

> <Gold.Chemscore.Hbond>
1.6126

> <Gold.Chemscore.Metal>
0.0000

> <Gold.Chemscore.Lipo>
75.7748

> <Gold.Chemscore.Internal_Hbond>
0.0000

> <Gold.Chemscore.DEClash>
0.2399

> <Gold.Chemscore.DEInternal>
1.8685

> <Gold.Chemscore.Rot>
1.8630

> <Gold.Chemscore.Internal.Correction>
   9.000000E+99

> <Gold.Chemscore.Hbonds>
donor molecule, donor type, donor heavy atom, donor atom, acceptor molecule, acceptor atom, score
      P1  H  7997  8009       L1    11  0.25
      P1  H 10752 10765       L1    19  1.00

> <Gold.Chemscore.Hbond.Weighted>
-5.3859

> <Gold.Chemscore.Metal.Weighted>
-0.0000

> <Gold.Chemscore.Lipo.Weighted>
-8.8657

> <Gold.Chemscore.Internal_Hbond.Weighted>
0.0000

> <Gold.Chemscore.DEClash.Weighted>
0.2399

> <Gold.Chemscore.DEInternal.Weighted>
1.8685

> <Gold.Chemscore.Rot.Weighted>
4.7694

> <Gold.Chemscore.Internal.Correction.Weighted>
   9.000000E+99

> <Gold.Protein.RotatedTorsions>
[ 6907 6896 6895 6894 ] final  -16.99 input  -60.11 | X-H torsion
[ 7974 7965 7964 7962 ] final   -0.75 input  175.53 | X-H torsion
[ 8008 7997 7996 7995 ] final  167.73 input   59.86 | X-H torsion
[ 10167 10162 10161 10158 ] final   41.07 input  -65.29 | X-H torsion
[ 10718 10713 10712 10709 ] final -127.99 input   66.30 | X-H torsion
[ 10763 10752 10751 10750 ] final -160.44 input  -60.55 | X-H torsion
[ 11005 11000 10999 10996 ] final   11.11 input  -57.11 | X-H torsion

> <Gold.Protein.ActiveResidues>
 VAL166  LYS551  ARG553  GLY616  TRP617  ASP618  TYR619  PRO620  LYS621  CYS622 
 ASP623  PHE694  ASN695  SER759  ASP760  ASP761  ALA762  ILE779  LEU786  VAL792 
 PHE793  MET794  SER795  GLU796  ALA797  LYS798  CYS799  TRP800  GLU811  SER814 

> <Gold.Protein.RotatedAtoms>
  151.3001  135.0766  159.9235 H   0  0  0  0  0  0  0  0  0  0  0  0  # atno 6907 bound_to 6896
  152.5299  133.9842  159.7831 H   0  0  0  0  0  0  0  0  0  0  0  0  # atno 6908 bound_to 6896
  151.0127  133.5899  159.2711 H   0  0  0  0  0  0  0  0  0  0  0  0  # atno 6909 bound_to 6896
  146.2424  140.1316  142.8337 H   0  0  0  0  0  0  0  0  0  0  0  0  # atno 7974 bound_to 7965
  156.1608  140.1609  156.8614 H   0  0  0  0  0  0  0  0  0  0  0  0  # atno 8008 bound_to 7997
  154.5159  140.0789  156.8116 H   0  0  0  0  0  0  0  0  0  0  0  0  # atno 8009 bound_to 7997
  155.3710  140.3400  155.4245 H   0  0  0  0  0  0  0  0  0  0  0  0  # atno 8010 bound_to 7997
  140.3679  144.2143  150.6134 H   0  0  0  0  0  0  0  0  0  0  0  0  # atno 10167 bound_to 10162
  156.1909  130.6794  151.0423 H   0  0  0  0  0  0  0  0  0  0  0  0  # atno 10718 bound_to 10713
  154.7390  135.3064  154.8761 H   0  0  0  0  0  0  0  0  0  0  0  0  # atno 10763 bound_to 10752
  153.9581  135.6756  153.4749 H   0  0  0  0  0  0  0  0  0  0  0  0  # atno 10764 bound_to 10752
  153.0990  135.4921  154.8756 H   0  0  0  0  0  0  0  0  0  0  0  0  # atno 10765 bound_to 10752
  140.5069  134.0690  155.7808 H   0  0  0  0  0  0  0  0  0  0  0  0  # atno 11005 bound_to 11000
  145.0321  140.8879  143.5103 LP  0  0  0  0  0  0  0  0  0  0  0  0  # atno 17320 bound_to 7965
  145.1382  139.2589  143.5504 LP  0  0  0  0  0  0  0  0  0  0  0  0  # atno 17321 bound_to 7965
  140.5062  143.2303  151.8604 LP  0  0  0  0  0  0  0  0  0  0  0  0  # atno 17342 bound_to 10162
  139.4807  144.5002  151.9070 LP  0  0  0  0  0  0  0  0  0  0  0  0  # atno 17343 bound_to 10162
  157.6928  131.0804  150.7057 LP  0  0  0  0  0  0  0  0  0  0  0  0  # atno 17370 bound_to 10713
  156.7114  130.4653  149.5546 LP  0  0  0  0  0  0  0  0  0  0  0  0  # atno 17371 bound_to 10713
  141.1406  133.9145  157.2334 LP  0  0  0  0  0  0  0  0  0  0  0  0  # atno 17394 bound_to 11000
  139.9681  135.0136  156.9440 LP  0  0  0  0  0  0  0  0  0  0  0  0  # atno 17395 bound_to 11000

$$$$
