AV-unprocessed.smi:2510|AV-procd|sdf|9874|dock10
  -GOLD-   2272013503D 1   1.00000     0.00000
 Structure written by MMmdl.
 48 49  0  0  0  0  0  0  0  0  1 V2000
  148.5072  141.7069  154.0491 C   0  0  0  0  0  0  0  0  0  0  0  0
  148.2654  140.1884  154.0452 C   0  0  0  0  0  0  0  0  0  0  0  0
  149.1140  139.3359  155.0317 C   0  0  0  0  0  0  0  0  0  0  0  0
  149.2175  140.1570  156.3405 C   0  0  0  0  0  0  0  0  0  0  0  0
  149.7021  139.3639  157.5672 C   0  0  0  0  0  0  0  0  0  0  0  0
  148.7159  137.8467  155.2657 C   0  0  1  0  0  0  0  0  0  0  0  0
  148.0135  137.2274  154.1407 N   0  0  0  0  0  0  0  0  0  0  0  0
  146.7300  136.8363  154.1661 C   0  0  0  0  0  0  0  0  0  0  0  0
  146.0009  136.9691  155.1488 O   0  0  0  0  0  0  0  0  0  0  0  0
  146.1823  136.1998  152.8881 C   0  0  0  0  0  0  0  0  0  0  0  0
  145.9086  134.7361  153.1105 C   0  0  0  0  0  0  0  0  0  0  0  0
  146.5769  133.6176  152.5291 C   0  0  0  0  0  0  0  0  0  0  0  0
  145.9534  132.5301  153.0728 C   0  0  0  0  0  0  0  0  0  0  0  0
  146.1830  131.0684  152.8909 C   0  0  0  0  0  0  0  0  0  0  0  0
  144.9808  133.0243  153.9107 N   0  0  0  0  0  0  0  0  0  0  0  0
  144.9416  134.3694  153.9406 N   0  0  0  0  0  0  0  0  0  0  0  0
  150.2066  137.4630  155.2999 C   0  0  1  0  0  0  0  0  0  0  0  0
  150.6744  136.1225  154.7378 C   0  0  0  0  0  0  0  0  0  0  0  0
  150.4638  138.7582  154.5163 C   0  0  2  0  0  0  0  0  0  0  0  0
  151.5837  139.5174  154.9484 O   0  0  0  0  0  0  0  0  0  0  0  0
  152.8115  138.8189  154.8374 C   0  0  0  0  0  0  0  0  0  0  0  0
  144.3448  132.4633  154.4596 H   0  0  0  0  0  0  0  0  0  0  0  0
  147.9061  142.1908  153.2791 H   0  0  0  0  0  0  0  0  0  0  0  0
  149.5478  141.9590  153.8534 H   0  0  0  0  0  0  0  0  0  0  0  0
  148.2248  142.1506  155.0040 H   0  0  0  0  0  0  0  0  0  0  0  0
  147.2009  140.0524  154.2392 H   0  0  0  0  0  0  0  0  0  0  0  0
  148.4111  139.8214  153.0290 H   0  0  0  0  0  0  0  0  0  0  0  0
  149.8960  140.9993  156.2057 H   0  0  0  0  0  0  0  0  0  0  0  0
  148.2547  140.6126  156.5754 H   0  0  0  0  0  0  0  0  0  0  0  0
  149.7805  140.0176  158.4362 H   0  0  0  0  0  0  0  0  0  0  0  0
  150.6846  138.9225  157.4035 H   0  0  0  0  0  0  0  0  0  0  0  0
  149.0151  138.5599  157.8299 H   0  0  0  0  0  0  0  0  0  0  0  0
  148.2384  137.6590  156.2281 H   0  0  0  0  0  0  0  0  0  0  0  0
  148.5390  137.0866  153.2899 H   0  0  0  0  0  0  0  0  0  0  0  0
  145.2788  136.7296  152.5823 H   0  0  0  0  0  0  0  0  0  0  0  0
  146.9049  136.3282  152.0814 H   0  0  0  0  0  0  0  0  0  0  0  0
  147.3971  133.6174  151.8263 H   0  0  0  0  0  0  0  0  0  0  0  0
  146.8161  130.8789  152.0239 H   0  0  0  0  0  0  0  0  0  0  0  0
  145.2406  130.5407  152.7416 H   0  0  0  0  0  0  0  0  0  0  0  0
  146.6750  130.6437  153.7661 H   0  0  0  0  0  0  0  0  0  0  0  0
  150.5672  137.5822  156.3229 H   0  0  0  0  0  0  0  0  0  0  0  0
  150.4925  136.0474  153.6654 H   0  0  0  0  0  0  0  0  0  0  0  0
  150.1565  135.2930  155.2197 H   0  0  0  0  0  0  0  0  0  0  0  0
  151.7423  135.9766  154.8973 H   0  0  0  0  0  0  0  0  0  0  0  0
  150.4836  138.5644  153.4435 H   0  0  0  0  0  0  0  0  0  0  0  0
  153.6309  139.4741  155.1326 H   0  0  0  0  0  0  0  0  0  0  0  0
  152.9925  138.4958  153.8113 H   0  0  0  0  0  0  0  0  0  0  0  0
  152.8328  137.9463  155.4900 H   0  0  0  0  0  0  0  0  0  0  0  0
  1  2  1  0  0  0  0
  1 23  1  0  0  0  0
  1 24  1  0  0  0  0
  1 25  1  0  0  0  0
  2  3  1  0  0  0  0
  2 26  1  0  0  0  0
  2 27  1  0  0  0  0
  3 19  1  0  0  0  0
  3  4  1  0  0  0  0
  3  6  1  0  0  0  0
  4  5  1  0  0  0  0
  4 28  1  0  0  0  0
  4 29  1  0  0  0  0
  5 30  1  0  0  0  0
  5 31  1  0  0  0  0
  5 32  1  0  0  0  0
  6  7  1  0  0  0  0
  6 17  1  0  0  0  0
  6 33  1  0  0  0  0
  7  8  1  0  0  0  0
  7 34  1  0  0  0  0
  8  9  2  0  0  0  0
  8 10  1  0  0  0  0
 10 11  1  0  0  0  0
 10 35  1  0  0  0  0
 10 36  1  0  0  0  0
 11 16  2  0  0  0  0
 11 12  1  0  0  0  0
 12 13  2  0  0  0  0
 12 37  1  0  0  0  0
 13 14  1  0  0  0  0
 13 15  1  0  0  0  0
 14 38  1  0  0  0  0
 14 39  1  0  0  0  0
 14 40  1  0  0  0  0
 15 22  1  0  0  0  0
 15 16  1  0  0  0  0
 17 18  1  0  0  0  0
 17 19  1  0  0  0  0
 17 41  1  0  0  0  0
 18 42  1  0  0  0  0
 18 43  1  0  0  0  0
 18 44  1  0  0  0  0
 19 20  1  0  0  0  0
 19 45  1  0  0  0  0
 20 21  1  0  0  0  0
 21 46  1  0  0  0  0
 21 47  1  0  0  0  0
 21 48  1  0  0  0  0
M  END
> <s_m_source_file>
AV-unprocessed.smi

> <i_m_source_file_index>
2510

> <i_lp_mmshare_version>
43012

> <i_f3d_flags>
0

> <s_epik_input>
W0NIM11PW0NAQEhdMVtDQEhdKFtDSDNdKVtDQEBIXShDMShbQ0gyXVtDSDNdKVtDSDJdW0NIM10pW05IXUMoPU8pW0NIMl1jMltjSF1jKFtDSDNdKVtuSF1uMg==

> <s_epik_cmdline>
J2VwaWtfcHl0aG9uJywgJy1waCcsICc3LjAnLCAnLXRuJywgJzgnLCAnLW1hJywgJzIwMCcsICctbWV0YWxfYmluZGluZycsICctaW1hZScsICc8aW5maWxlLm1hZT4nLCAnLW9tYWUnLCAnPG91dGZpbGUubWFlPic=

> <r_lp_tautomer_probability>
0.5

> <r_epik_Ionization_Penalty>
9.73156e-05

> <r_epik_Ionization_Penalty_Charging>
0

> <r_epik_Ionization_Penalty_Neutral>
9.73156e-05

> <r_epik_State_Penalty>
0.41068

> <r_epik_Charging_Adjusted_Penalty>
0.41068

> <i_epik_Tot_Q>
0

> <i_epik_Tot_abs_Q>
0

> <r_epik_Metal_State_Penalty>
0.410699

> <b_epik_Metal_Only>
0

> <s_lp_Force_Field>
OPLS_2005

> <r_lp_Energy>
25.9502

> <b_lp_Chiralities_Consistent>
1

> <s_lp_Variant>
AV-unprocessed.smi:2510-5

> <Gold.Version>
5.8.1

> <Gold.Id.Protein>
6NUR|6NUR_protein|mol2

> <Gold.PLP.Fitness>
33.3470

> <Gold.PLP.PLP>
-25.7063

> <Gold.PLP.part.hbond>
-3.0000

> <Gold.PLP.part.metal>
0.0000

> <Gold.PLP.part.buried>
-0.0755

> <Gold.PLP.part.nonpolar>
-21.7659

> <Gold.PLP.part.repulsive>
0.1450

> <Gold.PLP.ligand.clash>
0.0000

> <Gold.PLP.ligand.torsion>
0.9578

> <Gold.PLP.Chemscore.Hbond>
3.0000

> <Gold.PLP.Chemscore.CHOScore>
0.0000

> <Gold.PLP.Chemscore.Metal>
0.0000

> <Gold.Chemscore.Hbonds>
donor molecule, donor type, donor heavy atom, donor atom, acceptor molecule, acceptor atom, score
      L1  H     7    34       P1  7948  1.00
      L1  H    15    22       P1 10957  1.00
      P1  H  7989  7998       L1    20  1.00

> <Gold.PLP.Chemscore.Internal.Correction>
0.5563

> <Gold.Rescore>
     Score         DG    S(hbond)    S(metal)    S(lipo)     H(rot)  DE(clash)    DE(int)     intcor
     13.86     -16.49       2.12        0.00      73.13       1.81       0.63       2.00       ----

> <Gold.Chemscore.Fitness>
13.8636

> <Gold.Chemscore.DG>
-16.4930

> <Gold.Chemscore.ZeroCoef>
-5.4800

> <Gold.Chemscore.Hbond>
2.1230

> <Gold.Chemscore.Metal>
0.0000

> <Gold.Chemscore.Lipo>
73.1318

> <Gold.Chemscore.Internal_Hbond>
0.0000

> <Gold.Chemscore.DEClash>
0.6321

> <Gold.Chemscore.DEInternal>
1.9973

> <Gold.Chemscore.Rot>
1.8102

> <Gold.Chemscore.Internal.Correction>
   9.000000E+99

> <Gold.Chemscore.Hbonds>
donor molecule, donor type, donor heavy atom, donor atom, acceptor molecule, acceptor atom, score
      L1  H     7    34       P1  7948  0.98
      L1  H    15    22       P1 10957  0.79
      P1  H  7989  7998       L1    20  0.11

> <Gold.Chemscore.Hbond.Weighted>
-7.0907

> <Gold.Chemscore.Metal.Weighted>
-0.0000

> <Gold.Chemscore.Lipo.Weighted>
-8.5564

> <Gold.Chemscore.Internal_Hbond.Weighted>
0.0000

> <Gold.Chemscore.DEClash.Weighted>
0.6321

> <Gold.Chemscore.DEInternal.Weighted>
1.9973

> <Gold.Chemscore.Rot.Weighted>
4.6341

> <Gold.Chemscore.Internal.Correction.Weighted>
   9.000000E+99

> <Gold.Protein.RotatedTorsions>
[ 6907 6896 6895 6894 ] final -117.08 input  -60.11 | X-H torsion
[ 7974 7965 7964 7962 ] final  -79.62 input  175.53 | X-H torsion
[ 8008 7997 7996 7995 ] final  -88.13 input   59.86 | X-H torsion
[ 10167 10162 10161 10158 ] final  111.58 input  -65.29 | X-H torsion
[ 10718 10713 10712 10709 ] final   29.54 input   66.30 | X-H torsion
[ 10763 10752 10751 10750 ] final  -14.11 input  -60.55 | X-H torsion
[ 11005 11000 10999 10996 ] final  105.43 input  -57.11 | X-H torsion

> <Gold.Protein.ActiveResidues>
 VAL166  LYS551  ARG553  GLY616  TRP617  ASP618  TYR619  PRO620  LYS621  CYS622 
 ASP623  PHE694  ASN695  SER759  ASP760  ASP761  ALA762  ILE779  LEU786  VAL792 
 PHE793  MET794  SER795  GLU796  ALA797  LYS798  CYS799  TRP800  GLU811  SER814 

> <Gold.Protein.RotatedAtoms>
  150.8108  133.8426  159.3183 H   0  0  0  0  0  0  0  0  0  0  0  0  # atno 6907 bound_to 6896
  151.6212  135.1030  160.0111 H   0  0  0  0  0  0  0  0  0  0  0  0  # atno 6908 bound_to 6896
  152.4199  133.7059  159.6508 H   0  0  0  0  0  0  0  0  0  0  0  0  # atno 6909 bound_to 6896
  145.5708  140.9466  143.1396 H   0  0  0  0  0  0  0  0  0  0  0  0  # atno 7974 bound_to 7965
  154.6712  140.0557  157.0167 H   0  0  0  0  0  0  0  0  0  0  0  0  # atno 8008 bound_to 7997
  155.1086  140.3236  155.4509 H   0  0  0  0  0  0  0  0  0  0  0  0  # atno 8009 bound_to 7997
  156.2658  140.2018  156.6211 H   0  0  0  0  0  0  0  0  0  0  0  0  # atno 8010 bound_to 7997
  139.6600  144.7129  151.1883 H   0  0  0  0  0  0  0  0  0  0  0  0  # atno 10167 bound_to 10162
  157.2480  130.7101  149.6391 H   0  0  0  0  0  0  0  0  0  0  0  0  # atno 10718 bound_to 10713
  153.5233  135.7015  153.5720 H   0  0  0  0  0  0  0  0  0  0  0  0  # atno 10763 bound_to 10752
  153.3760  135.3932  155.1822 H   0  0  0  0  0  0  0  0  0  0  0  0  # atno 10764 bound_to 10752
  154.8692  135.3823  154.4724 H   0  0  0  0  0  0  0  0  0  0  0  0  # atno 10765 bound_to 10752
  139.8802  134.9335  156.5512 H   0  0  0  0  0  0  0  0  0  0  0  0  # atno 11005 bound_to 11000
  144.7438  139.7375  143.7300 LP  0  0  0  0  0  0  0  0  0  0  0  0  # atno 17320 bound_to 7965
  146.1785  139.4967  142.9882 LP  0  0  0  0  0  0  0  0  0  0  0  0  # atno 17321 bound_to 7965
  140.7576  143.6010  150.8700 LP  0  0  0  0  0  0  0  0  0  0  0  0  # atno 17342 bound_to 10162
  139.9666  143.6103  152.2986 LP  0  0  0  0  0  0  0  0  0  0  0  0  # atno 17343 bound_to 10162
  155.9667  130.4437  150.5431 LP  0  0  0  0  0  0  0  0  0  0  0  0  # atno 17370 bound_to 10713
  157.3309  131.0699  151.1862 LP  0  0  0  0  0  0  0  0  0  0  0  0  # atno 17371 bound_to 10713
  140.8238  133.8332  155.8920 LP  0  0  0  0  0  0  0  0  0  0  0  0  # atno 17394 bound_to 11000
  140.9393  134.1921  157.4809 LP  0  0  0  0  0  0  0  0  0  0  0  0  # atno 17395 bound_to 11000

$$$$
