AV-unprocessed.smi:1601|AV-procd|sdf|6433|dock10
  -GOLD-   22720 7 73D 1   1.00000     0.00000
 Structure written by MMmdl.
 41 42  0  0  0  0  0  0  0  0  1 V2000
  147.7807  140.1913  154.5298 C   0  0  0  0  0  0  0  0  0  0  0  0
  148.3489  141.4655  155.2078 C   0  0  2  0  0  0  0  0  0  0  0  0
  149.6541  141.0927  155.9630 C   0  0  0  0  0  0  0  0  0  0  0  0
  150.1263  142.1777  156.8146 N   0  0  0  0  0  0  0  0  0  0  0  0
  150.8229  142.0177  157.9499 C   0  0  0  0  0  0  0  0  0  0  0  0
  151.0932  140.9111  158.4179 O   0  0  0  0  0  0  0  0  0  0  0  0
  151.2714  143.3087  158.6582 C   0  0  1  0  0  0  0  0  0  0  0  0
  150.0958  144.2352  159.0316 C   0  0  0  0  0  0  0  0  0  0  0  0
  152.1063  142.9992  159.8150 N   0  0  0  0  0  0  0  0  0  0  0  0
  153.2419  142.2154  159.8571 C   0  0  0  0  0  0  0  0  0  0  0  0
  153.6659  142.1755  161.1543 C   0  0  0  0  0  0  0  0  0  0  0  0
  152.7092  142.9685  161.8467 C   0  0  0  0  0  0  0  0  0  0  0  0
  151.7751  143.4543  161.0460 N   0  0  0  0  0  0  0  0  0  0  0  0
  147.3523  142.1513  156.0634 N   0  0  0  0  0  0  0  0  0  0  0  0
  146.1528  142.5613  155.3236 C   0  0  0  0  0  0  0  0  0  0  0  0
  145.1032  143.2449  156.2171 C   0  0  0  0  0  0  0  0  0  0  0  0
  144.7465  142.3800  157.2862 O   0  0  0  0  0  0  0  0  0  0  0  0
  145.8700  142.0225  158.0790 C   0  0  0  0  0  0  0  0  0  0  0  0
  146.9236  141.3272  157.1996 C   0  0  0  0  0  0  0  0  0  0  0  0
  148.5283  139.6563  153.9450 H   0  0  0  0  0  0  0  0  0  0  0  0
  146.9829  140.4204  153.8245 H   0  0  0  0  0  0  0  0  0  0  0  0
  147.3871  139.4937  155.2701 H   0  0  0  0  0  0  0  0  0  0  0  0
  148.6309  142.1516  154.4074 H   0  0  0  0  0  0  0  0  0  0  0  0
  149.5092  140.2411  156.6259 H   0  0  0  0  0  0  0  0  0  0  0  0
  150.4287  140.8149  155.2456 H   0  0  0  0  0  0  0  0  0  0  0  0
  149.9408  143.1187  156.4994 H   0  0  0  0  0  0  0  0  0  0  0  0
  151.8968  143.8519  157.9480 H   0  0  0  0  0  0  0  0  0  0  0  0
  149.5257  144.5255  158.1486 H   0  0  0  0  0  0  0  0  0  0  0  0
  150.4579  145.1508  159.4997 H   0  0  0  0  0  0  0  0  0  0  0  0
  149.4062  143.7580  159.7289 H   0  0  0  0  0  0  0  0  0  0  0  0
  153.6490  141.7547  158.9691 H   0  0  0  0  0  0  0  0  0  0  0  0
  154.5264  141.6561  161.5493 H   0  0  0  0  0  0  0  0  0  0  0  0
  152.6638  143.2017  162.9004 H   0  0  0  0  0  0  0  0  0  0  0  0
  146.4071  143.2712  154.5392 H   0  0  0  0  0  0  0  0  0  0  0  0
  145.7039  141.6944  154.8362 H   0  0  0  0  0  0  0  0  0  0  0  0
  145.4864  144.1871  156.6123 H   0  0  0  0  0  0  0  0  0  0  0  0
  144.2101  143.4807  155.6383 H   0  0  0  0  0  0  0  0  0  0  0  0
  146.2885  142.9109  158.5546 H   0  0  0  0  0  0  0  0  0  0  0  0
  145.5437  141.3558  158.8774 H   0  0  0  0  0  0  0  0  0  0  0  0
  146.5240  140.3781  156.8384 H   0  0  0  0  0  0  0  0  0  0  0  0
  147.7689  141.0908  157.8431 H   0  0  0  0  0  0  0  0  0  0  0  0
  1  2  1  0  0  0  0
  1 20  1  0  0  0  0
  1 21  1  0  0  0  0
  1 22  1  0  0  0  0
  2  3  1  0  0  0  0
  2 14  1  0  0  0  0
  2 23  1  0  0  0  0
  3  4  1  0  0  0  0
  3 24  1  0  0  0  0
  3 25  1  0  0  0  0
  4  5  1  0  0  0  0
  4 26  1  0  0  0  0
  5  6  2  0  0  0  0
  5  7  1  0  0  0  0
  7  8  1  0  0  0  0
  7  9  1  0  0  0  0
  7 27  1  0  0  0  0
  8 28  1  0  0  0  0
  8 29  1  0  0  0  0
  8 30  1  0  0  0  0
  9 13  1  0  0  0  0
  9 10  1  0  0  0  0
 10 11  2  0  0  0  0
 10 31  1  0  0  0  0
 11 12  1  0  0  0  0
 11 32  1  0  0  0  0
 12 13  2  0  0  0  0
 12 33  1  0  0  0  0
 14 19  1  0  0  0  0
 14 15  1  0  0  0  0
 15 16  1  0  0  0  0
 15 34  1  0  0  0  0
 15 35  1  0  0  0  0
 16 17  1  0  0  0  0
 16 36  1  0  0  0  0
 16 37  1  0  0  0  0
 17 18  1  0  0  0  0
 18 19  1  0  0  0  0
 18 38  1  0  0  0  0
 18 39  1  0  0  0  0
 19 40  1  0  0  0  0
 19 41  1  0  0  0  0
M  END
> <s_m_source_file>
AV-unprocessed.smi

> <i_m_source_file_index>
1601

> <i_lp_mmshare_version>
43012

> <i_f3d_flags>
0

> <s_epik_input>
W0NIMl0xW0NIMl1PW0NIMl1bQ0gyXU4xW0NASF0oW0NIM10pW0NIMl1bTkhdQyg9TylbQ0BIXShbQ0gzXSluMltjSF1bY0hdW2NIXW4y

> <s_epik_cmdline>
J2VwaWtfcHl0aG9uJywgJy1waCcsICc3LjAnLCAnLXRuJywgJzgnLCAnLW1hJywgJzIwMCcsICctbWV0YWxfYmluZGluZycsICctaW1hZScsICc8aW5maWxlLm1hZT4nLCAnLW9tYWUnLCAnPG91dGZpbGUubWFlPic=

> <r_lp_tautomer_probability>
1

> <r_epik_Ionization_Penalty>
0.203323

> <r_epik_Ionization_Penalty_Charging>
0

> <r_epik_Ionization_Penalty_Neutral>
0.203323

> <r_epik_State_Penalty>
0.193192

> <r_epik_Charging_Adjusted_Penalty>
0.193192

> <i_epik_Tot_Q>
0

> <i_epik_Tot_abs_Q>
0

> <r_epik_Metal_State_Penalty>
0.193187

> <b_epik_Metal_Only>
0

> <s_lp_Force_Field>
OPLS_2005

> <r_lp_Energy>
33.4287

> <b_lp_Chiralities_Consistent>
1

> <s_lp_Variant>
AV-unprocessed.smi:1601-3

> <Gold.Version>
5.8.1

> <Gold.Id.Protein>
6NUR|6NUR_protein|mol2

> <Gold.PLP.Fitness>
39.4720

> <Gold.PLP.PLP>
-36.9874

> <Gold.PLP.part.hbond>
-1.8645

> <Gold.PLP.part.metal>
0.0000

> <Gold.PLP.part.buried>
-4.4255

> <Gold.PLP.part.nonpolar>
-32.4857

> <Gold.PLP.part.repulsive>
1.6485

> <Gold.PLP.ligand.clash>
0.0000

> <Gold.PLP.ligand.torsion>
0.3415

> <Gold.PLP.Chemscore.Hbond>
1.0000

> <Gold.PLP.Chemscore.CHOScore>
0.0000

> <Gold.PLP.Chemscore.Metal>
0.0000

> <Gold.Chemscore.Hbonds>
donor molecule, donor type, donor heavy atom, donor atom, acceptor molecule, acceptor atom, score
      L1  H     4    26       P1  8028  0.84

> <Gold.PLP.Chemscore.Internal.Correction>
0.1676

> <Gold.Rescore>
     Score         DG    S(hbond)    S(metal)    S(lipo)     H(rot)  DE(clash)    DE(int)     intcor
     12.42     -14.08       0.99        0.00      84.39       1.79       0.34       1.31       ----

> <Gold.Chemscore.Fitness>
12.4238

> <Gold.Chemscore.DG>
-14.0768

> <Gold.Chemscore.ZeroCoef>
-5.4800

> <Gold.Chemscore.Hbond>
0.9875

> <Gold.Chemscore.Metal>
0.0000

> <Gold.Chemscore.Lipo>
84.3906

> <Gold.Chemscore.Internal_Hbond>
0.0000

> <Gold.Chemscore.DEClash>
0.3381

> <Gold.Chemscore.DEInternal>
1.3148

> <Gold.Chemscore.Rot>
1.7872

> <Gold.Chemscore.Internal.Correction>
   9.000000E+99

> <Gold.Chemscore.Hbonds>
donor molecule, donor type, donor heavy atom, donor atom, acceptor molecule, acceptor atom, score
      L1  H     4    26       P1  8028  0.82

> <Gold.Chemscore.Hbond.Weighted>
-3.2983

> <Gold.Chemscore.Metal.Weighted>
-0.0000

> <Gold.Chemscore.Lipo.Weighted>
-9.8737

> <Gold.Chemscore.Internal_Hbond.Weighted>
0.0000

> <Gold.Chemscore.DEClash.Weighted>
0.3381

> <Gold.Chemscore.DEInternal.Weighted>
1.3148

> <Gold.Chemscore.Rot.Weighted>
4.5752

> <Gold.Chemscore.Internal.Correction.Weighted>
   9.000000E+99

> <Gold.Protein.RotatedTorsions>
[ 6907 6896 6895 6894 ] final -122.70 input  -60.11 | X-H torsion
[ 7974 7965 7964 7962 ] final  175.90 input  175.53 | X-H torsion
[ 8008 7997 7996 7995 ] final   87.55 input   59.86 | X-H torsion
[ 10167 10162 10161 10158 ] final   -9.28 input  -65.29 | X-H torsion
[ 10718 10713 10712 10709 ] final   93.55 input   66.30 | X-H torsion
[ 10763 10752 10751 10750 ] final  -20.24 input  -60.55 | X-H torsion
[ 11005 11000 10999 10996 ] final   26.69 input  -57.11 | X-H torsion

> <Gold.Protein.ActiveResidues>
 VAL166  LYS551  ARG553  GLY616  TRP617  ASP618  TYR619  PRO620  LYS621  CYS622 
 ASP623  PHE694  ASN695  SER759  ASP760  ASP761  ALA762  ILE779  LEU786  VAL792 
 PHE793  MET794  SER795  GLU796  ALA797  LYS798  CYS799  TRP800  GLU811  SER814 

> <Gold.Protein.RotatedAtoms>
  150.8601  133.7657  159.2995 H   0  0  0  0  0  0  0  0  0  0  0  0  # atno 6907 bound_to 6896
  151.5302  135.1066  159.9910 H   0  0  0  0  0  0  0  0  0  0  0  0  # atno 6908 bound_to 6896
  152.4619  133.7797  159.6900 H   0  0  0  0  0  0  0  0  0  0  0  0  # atno 6909 bound_to 6896
  144.7193  140.0016  143.6440 H   0  0  0  0  0  0  0  0  0  0  0  0  # atno 7974 bound_to 7965
  155.9767  140.3381  155.6625 H   0  0  0  0  0  0  0  0  0  0  0  0  # atno 8008 bound_to 7997
  155.6603  140.0715  157.2574 H   0  0  0  0  0  0  0  0  0  0  0  0  # atno 8009 bound_to 7997
  154.4181  140.1710  156.1756 H   0  0  0  0  0  0  0  0  0  0  0  0  # atno 8010 bound_to 7997
  140.7083  143.5875  150.8927 H   0  0  0  0  0  0  0  0  0  0  0  0  # atno 10167 bound_to 10162
  157.6954  131.0482  150.4051 H   0  0  0  0  0  0  0  0  0  0  0  0  # atno 10718 bound_to 10713
  153.6173  135.6994  153.5324 H   0  0  0  0  0  0  0  0  0  0  0  0  # atno 10763 bound_to 10752
  153.2966  135.4141  155.1215 H   0  0  0  0  0  0  0  0  0  0  0  0  # atno 10764 bound_to 10752
  154.8551  135.3638  154.5713 H   0  0  0  0  0  0  0  0  0  0  0  0  # atno 10765 bound_to 10752
  140.3343  134.2403  155.7698 H   0  0  0  0  0  0  0  0  0  0  0  0  # atno 11005 bound_to 11000
  146.0331  139.3353  143.0743 LP  0  0  0  0  0  0  0  0  0  0  0  0  # atno 17320 bound_to 7965
  145.8428  140.9571  143.0790 LP  0  0  0  0  0  0  0  0  0  0  0  0  # atno 17321 bound_to 7965
  139.9601  143.6173  152.3005 LP  0  0  0  0  0  0  0  0  0  0  0  0  # atno 17342 bound_to 10162
  139.6723  144.7660  151.1760 LP  0  0  0  0  0  0  0  0  0  0  0  0  # atno 17343 bound_to 10162
  156.4441  130.3998  149.6678 LP  0  0  0  0  0  0  0  0  0  0  0  0  # atno 17370 bound_to 10713
  156.3851  130.7599  151.2595 LP  0  0  0  0  0  0  0  0  0  0  0  0  # atno 17371 bound_to 10713
  141.2055  133.7858  157.0228 LP  0  0  0  0  0  0  0  0  0  0  0  0  # atno 17394 bound_to 11000
  140.0834  134.9635  157.1661 LP  0  0  0  0  0  0  0  0  0  0  0  0  # atno 17395 bound_to 11000

$$$$
