AV-unprocessed.smi:3200|AV-procd|sdf|12236|dock7
  -GOLD-   2272018 73D 1   1.00000     0.00000
 Structure written by MMmdl.
 38 39  0  0  0  0  0  0  0  0  2 V2000
  152.7631  130.9640  155.9293 C   0  0  0  0  0  0  0  0  0  0  0  0
  151.4063  131.1875  155.3535 C   0  0  0  0  0  0  0  0  0  0  0  0
  150.5999  130.1714  155.0713 N   0  0  0  0  0  0  0  0  0  0  0  0
  149.4521  130.7991  154.5668 O   0  0  0  0  0  0  0  0  0  0  0  0
  149.7189  132.1268  154.5877 C   0  0  0  0  0  0  0  0  0  0  0  0
  148.6583  133.0821  154.1543 C   0  0  0  0  0  0  0  0  0  0  0  0
  148.1207  132.7591  152.7550 C   0  0  0  0  0  0  0  0  0  0  0  0
  147.2255  133.8291  152.2706 N   0  3  0  0  0  0  0  0  0  0  0  0
  146.4091  133.4678  151.0899 C   0  0  1  0  0  0  0  0  0  0  0  0
  146.1005  131.9664  150.9964 C   0  0  0  0  0  0  0  0  0  0  0  0
  144.7911  131.8646  150.2031 C   0  0  0  0  0  0  0  0  0  0  0  0
  144.2834  133.3026  150.0218 C   0  0  0  0  0  0  0  0  0  0  0  0
  145.0306  134.1623  151.0572 C   0  0  0  0  0  0  0  0  0  0  0  0
  144.2954  134.1034  152.4167 C   0  0  0  0  0  0  0  0  0  0  0  0
  145.1360  135.6264  150.5911 C   0  0  0  0  0  0  0  0  0  0  0  0
  150.9150  132.4287  155.0859 N   0  0  0  0  0  0  0  0  0  0  0  0
  152.8201  129.9928  156.4221 H   0  0  0  0  0  0  0  0  0  0  0  0
  152.9962  131.7348  156.6645 H   0  0  0  0  0  0  0  0  0  0  0  0
  153.5156  130.9979  155.1411 H   0  0  0  0  0  0  0  0  0  0  0  0
  147.8483  133.0558  154.8843 H   0  0  0  0  0  0  0  0  0  0  0  0
  149.0696  134.0922  154.1778 H   0  0  0  0  0  0  0  0  0  0  0  0
  148.9499  132.6393  152.0560 H   0  0  0  0  0  0  0  0  0  0  0  0
  147.5791  131.8127  152.7789 H   0  0  0  0  0  0  0  0  0  0  0  0
  146.6048  134.1041  153.0185 H   0  0  0  0  0  0  0  0  0  0  0  0
  146.9594  133.7578  150.1924 H   0  0  0  0  0  0  0  0  0  0  0  0
  146.9099  131.4119  150.5203 H   0  0  0  0  0  0  0  0  0  0  0  0
  145.9560  131.5410  151.9906 H   0  0  0  0  0  0  0  0  0  0  0  0
  144.9424  131.3815  149.2372 H   0  0  0  0  0  0  0  0  0  0  0  0
  144.0653  131.2669  150.7557 H   0  0  0  0  0  0  0  0  0  0  0  0
  144.5361  133.6344  149.0137 H   0  0  0  0  0  0  0  0  0  0  0  0
  143.1989  133.3737  150.1137 H   0  0  0  0  0  0  0  0  0  0  0  0
  143.2818  134.4961  152.3300 H   0  0  0  0  0  0  0  0  0  0  0  0
  144.8034  134.6986  153.1759 H   0  0  0  0  0  0  0  0  0  0  0  0
  144.2148  133.0849  152.7968 H   0  0  0  0  0  0  0  0  0  0  0  0
  144.1483  136.0757  150.4811 H   0  0  0  0  0  0  0  0  0  0  0  0
  145.6409  135.7078  149.6278 H   0  0  0  0  0  0  0  0  0  0  0  0
  145.6949  136.2305  151.3064 H   0  0  0  0  0  0  0  0  0  0  0  0
  147.7979  134.6228  152.0203 H   0  0  0  0  0  0  0  0  0  0  0  0
  1  2  1  0  0  0  0
  1 17  1  0  0  0  0
  1 18  1  0  0  0  0
  1 19  1  0  0  0  0
  2 16  1  0  0  0  0
  2  3  2  0  0  0  0
  3  4  1  0  0  0  0
  4  5  1  0  0  0  0
  5  6  1  0  0  0  0
  5 16  2  0  0  0  0
  6  7  1  0  0  0  0
  6 20  1  0  0  0  0
  6 21  1  0  0  0  0
  7  8  1  0  0  0  0
  7 22  1  0  0  0  0
  7 23  1  0  0  0  0
  8  9  1  0  0  0  0
  8 24  1  0  0  0  0
  8 38  1  0  0  0  0
  9 13  1  0  0  0  0
  9 10  1  0  0  0  0
  9 25  1  0  0  0  0
 10 11  1  0  0  0  0
 10 26  1  0  0  0  0
 10 27  1  0  0  0  0
 11 12  1  0  0  0  0
 11 28  1  0  0  0  0
 11 29  1  0  0  0  0
 12 13  1  0  0  0  0
 12 30  1  0  0  0  0
 12 31  1  0  0  0  0
 13 14  1  0  0  0  0
 13 15  1  0  0  0  0
 14 32  1  0  0  0  0
 14 33  1  0  0  0  0
 14 34  1  0  0  0  0
 15 35  1  0  0  0  0
 15 36  1  0  0  0  0
 15 37  1  0  0  0  0
M  CHG  1   8   1
M  END
> <s_m_source_file>
AV-unprocessed.smi

> <i_m_source_file_index>
3200

> <i_lp_mmshare_version>
43012

> <i_f3d_flags>
0

> <s_epik_input>
W0NIM11jMW5vYyhuMSlbQ0gyXVtDSDJdW05IXVtDQEBIXShDMihbQ0gzXSlbQ0gzXSlbQ0gyXVtDSDJdW0NIMl0y

> <s_epik_cmdline>
J2VwaWtfcHl0aG9uJywgJy1waCcsICc3LjAnLCAnLXRuJywgJzgnLCAnLW1hJywgJzIwMCcsICctbWV0YWxfYmluZGluZycsICctaW1hZScsICc8aW5maWxlLm1hZT4nLCAnLW9tYWUnLCAnPG91dGZpbGUubWFlPic=

> <r_lp_tautomer_probability>
1

> <r_epik_Ionization_Penalty>
0.000953161

> <r_epik_Ionization_Penalty_Charging>
0.000953161

> <r_epik_Ionization_Penalty_Neutral>
4.23223e-13

> <r_epik_State_Penalty>
0.000619331

> <r_epik_Charging_Adjusted_Penalty>
0.00157249

> <i_epik_Tot_Q>
1

> <i_epik_Tot_abs_Q>
1

> <r_epik_Metal_State_Penalty>
-0

> <b_epik_Metal_Only>
0

> <s_lp_Force_Field>
OPLS_2005

> <r_lp_Energy>
25.6419

> <b_lp_Chiralities_Consistent>
1

> <s_lp_Variant>
AV-unprocessed.smi:3200-2

> <Gold.Version>
5.8.1

> <Gold.Id.Protein>
6NUR|6NUR_protein|mol2

> <Gold.PLP.Fitness>
35.0370

> <Gold.PLP.PLP>
-30.1119

> <Gold.PLP.part.hbond>
-1.0000

> <Gold.PLP.part.metal>
0.0000

> <Gold.PLP.part.buried>
-3.3797

> <Gold.PLP.part.nonpolar>
-26.1872

> <Gold.PLP.part.repulsive>
0.0548

> <Gold.PLP.ligand.clash>
0.0000

> <Gold.PLP.ligand.torsion>
0.5441

> <Gold.PLP.Chemscore.Hbond>
2.0000

> <Gold.PLP.Chemscore.CHOScore>
0.0000

> <Gold.PLP.Chemscore.Metal>
0.0000

> <Gold.Chemscore.Hbonds>
donor molecule, donor type, donor heavy atom, donor atom, acceptor molecule, acceptor atom, score
      L1  H     8    38       P1  7948  2.00

> <Gold.PLP.Chemscore.Internal.Correction>
0.0132

> <Gold.Rescore>
     Score         DG    S(hbond)    S(metal)    S(lipo)     H(rot)  DE(clash)    DE(int)     intcor
     11.48     -12.20       0.88        0.00      71.51       1.79       0.08       0.64       ----

> <Gold.Chemscore.Fitness>
11.4761

> <Gold.Chemscore.DG>
-12.1996

> <Gold.Chemscore.ZeroCoef>
-5.4800

> <Gold.Chemscore.Hbond>
0.8766

> <Gold.Chemscore.Metal>
0.0000

> <Gold.Chemscore.Lipo>
71.5142

> <Gold.Chemscore.Internal_Hbond>
0.0000

> <Gold.Chemscore.DEClash>
0.0836

> <Gold.Chemscore.DEInternal>
0.6399

> <Gold.Chemscore.Rot>
1.7872

> <Gold.Chemscore.Internal.Correction>
   9.000000E+99

> <Gold.Chemscore.Hbonds>
donor molecule, donor type, donor heavy atom, donor atom, acceptor molecule, acceptor atom, score
      L1  H     8    38       P1  7948  0.39

> <Gold.Chemscore.Hbond.Weighted>
-2.9277

> <Gold.Chemscore.Metal.Weighted>
-0.0000

> <Gold.Chemscore.Lipo.Weighted>
-8.3672

> <Gold.Chemscore.Internal_Hbond.Weighted>
0.0000

> <Gold.Chemscore.DEClash.Weighted>
0.0836

> <Gold.Chemscore.DEInternal.Weighted>
0.6399

> <Gold.Chemscore.Rot.Weighted>
4.5753

> <Gold.Chemscore.Internal.Correction.Weighted>
   9.000000E+99

> <Gold.Protein.RotatedTorsions>
[ 6907 6896 6895 6894 ] final  -81.23 input  -60.11 | X-H torsion
[ 7974 7965 7964 7962 ] final -170.08 input  175.53 | X-H torsion
[ 8008 7997 7996 7995 ] final  157.86 input   59.86 | X-H torsion
[ 10167 10162 10161 10158 ] final  -63.72 input  -65.29 | X-H torsion
[ 10718 10713 10712 10709 ] final   76.01 input   66.30 | X-H torsion
[ 10763 10752 10751 10750 ] final -152.24 input  -60.55 | X-H torsion
[ 11005 11000 10999 10996 ] final -140.83 input  -57.11 | X-H torsion

> <Gold.Protein.ActiveResidues>
 VAL166  LYS551  ARG553  GLY616  TRP617  ASP618  TYR619  PRO620  LYS621  CYS622 
 ASP623  PHE694  ASN695  SER759  ASP760  ASP761  ALA762  ILE779  LEU786  VAL792 
 PHE793  MET794  SER795  GLU796  ALA797  LYS798  CYS799  TRP800  GLU811  SER814 

> <Gold.Protein.RotatedAtoms>
  150.6915  134.3848  159.5050 H   0  0  0  0  0  0  0  0  0  0  0  0  # atno 6907 bound_to 6896
  152.1645  134.8882  160.0548 H   0  0  0  0  0  0  0  0  0  0  0  0  # atno 6908 bound_to 6896
  151.9931  133.3763  159.4189 H   0  0  0  0  0  0  0  0  0  0  0  0  # atno 6909 bound_to 6896
  144.7175  140.2125  143.6325 H   0  0  0  0  0  0  0  0  0  0  0  0  # atno 7974 bound_to 7965
  156.2338  140.1874  156.7172 H   0  0  0  0  0  0  0  0  0  0  0  0  # atno 8008 bound_to 7997
  154.6070  140.0627  156.9471 H   0  0  0  0  0  0  0  0  0  0  0  0  # atno 8009 bound_to 7997
  155.2079  140.3297  155.4336 H   0  0  0  0  0  0  0  0  0  0  0  0  # atno 8010 bound_to 7997
  140.5851  143.2332  151.6260 H   0  0  0  0  0  0  0  0  0  0  0  0  # atno 10167 bound_to 10162
  157.6657  130.9754  150.1435 H   0  0  0  0  0  0  0  0  0  0  0  0  # atno 10718 bound_to 10713
  154.8007  135.3241  154.7557 H   0  0  0  0  0  0  0  0  0  0  0  0  # atno 10763 bound_to 10752
  153.8226  135.6886  153.4829 H   0  0  0  0  0  0  0  0  0  0  0  0  # atno 10764 bound_to 10752
  153.1722  135.4619  154.9861 H   0  0  0  0  0  0  0  0  0  0  0  0  # atno 10765 bound_to 10752
  140.8384  134.2432  157.4822 H   0  0  0  0  0  0  0  0  0  0  0  0  # atno 11005 bound_to 11000
  145.8577  139.2207  143.1735 LP  0  0  0  0  0  0  0  0  0  0  0  0  # atno 17320 bound_to 7965
  146.0202  140.8355  142.9927 LP  0  0  0  0  0  0  0  0  0  0  0  0  # atno 17321 bound_to 7965
  139.5193  144.3258  152.0870 LP  0  0  0  0  0  0  0  0  0  0  0  0  # atno 17342 bound_to 10162
  140.2414  144.4265  150.6258 LP  0  0  0  0  0  0  0  0  0  0  0  0  # atno 17343 bound_to 10162
  156.2252  130.3677  149.8509 LP  0  0  0  0  0  0  0  0  0  0  0  0  # atno 17370 bound_to 10713
  156.6351  130.8681  151.3503 LP  0  0  0  0  0  0  0  0  0  0  0  0  # atno 17371 bound_to 10713
  139.8703  134.9623  156.4423 LP  0  0  0  0  0  0  0  0  0  0  0  0  # atno 17394 bound_to 11000
  140.8922  133.7840  155.9585 LP  0  0  0  0  0  0  0  0  0  0  0  0  # atno 17395 bound_to 11000

$$$$
