AV-unprocessed.smi:775|AV-procd|sdf|3695|dock10
  -GOLD-   22720 1113D 1   1.00000     0.00000
 Structure written by MMmdl.
 39 40  0  0  0  0  0  0  0  0  2 V2000
  146.4819  132.5683  153.9792 C   0  0  0  0  0  0  0  0  0  0  0  0
  146.8806  133.8101  153.1663 C   0  0  2  0  0  0  0  0  0  0  0  0
  147.1536  133.4873  151.6767 C   0  0  0  0  0  0  0  0  0  0  0  0
  145.9573  133.1474  150.9232 N   0  0  0  0  0  0  0  0  0  0  0  0
  145.7266  132.0382  150.1353 C   0  0  0  0  0  0  0  0  0  0  0  0
  144.4641  132.1541  149.6289 C   0  0  0  0  0  0  0  0  0  0  0  0
  143.9971  133.3871  150.1637 C   0  0  0  0  0  0  0  0  0  0  0  0
  144.8936  133.9794  150.9359 N   0  0  0  0  0  0  0  0  0  0  0  0
  148.0341  134.4732  153.8166 N   0  3  0  0  0  0  0  0  0  0  0  0
  147.7510  135.1257  155.1146 C   0  0  0  0  0  0  0  0  0  0  0  0
  148.8568  136.1093  155.5285 C   0  0  0  0  0  0  0  0  0  0  0  0
  149.9280  135.6538  155.9331 O   0  0  0  0  0  0  0  0  0  0  0  0
  148.6236  137.4425  155.4358 N   0  0  0  0  0  0  0  0  0  0  0  0
  147.3836  138.0384  154.9275 C   0  0  0  0  0  0  0  0  0  0  0  0
  147.6866  138.7028  153.5733 C   0  0  0  0  0  0  0  0  0  0  0  0
  148.9025  139.5172  153.6182 N   0  0  0  0  0  0  0  0  0  0  0  0
  149.8483  139.4498  154.5737 C   0  0  0  0  0  0  0  0  0  0  0  0
  150.8421  140.1716  154.5500 O   0  0  0  0  0  0  0  0  0  0  0  0
  149.6707  138.4370  155.7218 C   0  0  0  0  0  0  0  0  0  0  0  0
  145.6381  132.0525  153.5199 H   0  0  0  0  0  0  0  0  0  0  0  0
  146.1852  132.8430  154.9921 H   0  0  0  0  0  0  0  0  0  0  0  0
  147.3033  131.8559  154.0612 H   0  0  0  0  0  0  0  0  0  0  0  0
  146.0378  134.5013  153.2092 H   0  0  0  0  0  0  0  0  0  0  0  0
  147.6300  134.3441  151.1978 H   0  0  0  0  0  0  0  0  0  0  0  0
  147.8647  132.6671  151.5781 H   0  0  0  0  0  0  0  0  0  0  0  0
  146.4702  131.2661  150.0019 H   0  0  0  0  0  0  0  0  0  0  0  0
  143.9527  131.4654  148.9726 H   0  0  0  0  0  0  0  0  0  0  0  0
  143.0408  133.8666  150.0142 H   0  0  0  0  0  0  0  0  0  0  0  0
  148.7407  133.7709  153.9839 H   0  0  0  0  0  0  0  0  0  0  0  0
  146.8085  135.6684  155.0478 H   0  0  0  0  0  0  0  0  0  0  0  0
  147.6488  134.3572  155.8819 H   0  0  0  0  0  0  0  0  0  0  0  0
  146.5483  137.3467  154.8310 H   0  0  0  0  0  0  0  0  0  0  0  0
  147.0512  138.7949  155.6404 H   0  0  0  0  0  0  0  0  0  0  0  0
  147.8180  137.9396  152.8053 H   0  0  0  0  0  0  0  0  0  0  0  0
  146.8481  139.3257  153.2608 H   0  0  0  0  0  0  0  0  0  0  0  0
  149.0328  140.1864  152.8730 H   0  0  0  0  0  0  0  0  0  0  0  0
  149.3938  138.9835  156.6238 H   0  0  0  0  0  0  0  0  0  0  0  0
  150.6444  137.9883  155.9238 H   0  0  0  0  0  0  0  0  0  0  0  0
  148.4173  135.1586  153.1808 H   0  0  0  0  0  0  0  0  0  0  0  0
  1  2  1  0  0  0  0
  1 20  1  0  0  0  0
  1 21  1  0  0  0  0
  1 22  1  0  0  0  0
  2  3  1  0  0  0  0
  2  9  1  0  0  0  0
  2 23  1  0  0  0  0
  3  4  1  0  0  0  0
  3 24  1  0  0  0  0
  3 25  1  0  0  0  0
  4  8  1  0  0  0  0
  4  5  1  0  0  0  0
  5  6  2  0  0  0  0
  5 26  1  0  0  0  0
  6  7  1  0  0  0  0
  6 27  1  0  0  0  0
  7  8  2  0  0  0  0
  7 28  1  0  0  0  0
  9 10  1  0  0  0  0
  9 29  1  0  0  0  0
  9 39  1  0  0  0  0
 10 11  1  0  0  0  0
 10 30  1  0  0  0  0
 10 31  1  0  0  0  0
 11 12  2  0  0  0  0
 11 13  1  0  0  0  0
 13 19  1  0  0  0  0
 13 14  1  0  0  0  0
 14 15  1  0  0  0  0
 14 32  1  0  0  0  0
 14 33  1  0  0  0  0
 15 16  1  0  0  0  0
 15 34  1  0  0  0  0
 15 35  1  0  0  0  0
 16 17  1  0  0  0  0
 16 36  1  0  0  0  0
 17 18  2  0  0  0  0
 17 19  1  0  0  0  0
 19 37  1  0  0  0  0
 19 38  1  0  0  0  0
M  CHG  1   9   1
M  END
> <s_m_source_file>
AV-unprocessed.smi

> <i_m_source_file_index>
775

> <i_lp_mmshare_version>
43012

> <i_f3d_flags>
0

> <s_epik_input>
bjFbY0hdW2NIXVtjSF1uMVtDSDJdW0NAQEhdKFtDSDNdKVtOSF1bQ0gyXUMoPU8pTjJbQ0gyXVtDSDJdW05IXUMoPU8pW0NIMl0y

> <s_epik_cmdline>
J2VwaWtfcHl0aG9uJywgJy1waCcsICc3LjAnLCAnLXRuJywgJzgnLCAnLW1hJywgJzIwMCcsICctbWV0YWxfYmluZGluZycsICctaW1hZScsICc8aW5maWxlLm1hZT4nLCAnLW9tYWUnLCAnPG91dGZpbGUubWFlPic=

> <r_lp_tautomer_probability>
1

> <r_epik_Ionization_Penalty>
0.165651

> <r_epik_Ionization_Penalty_Charging>
0.165647

> <r_epik_Ionization_Penalty_Neutral>
3.4358e-06

> <r_epik_State_Penalty>
0.15499

> <r_epik_Charging_Adjusted_Penalty>
0.320637

> <i_epik_Tot_Q>
1

> <i_epik_Tot_abs_Q>
1

> <r_epik_Metal_State_Penalty>
0.155003

> <b_epik_Metal_Only>
0

> <s_lp_Force_Field>
OPLS_2005

> <r_lp_Energy>
21.6432

> <b_lp_Chiralities_Consistent>
1

> <s_lp_Variant>
AV-unprocessed.smi:775-1

> <Gold.Version>
5.8.1

> <Gold.Id.Protein>
6NUR|6NUR_protein|mol2

> <Gold.PLP.Fitness>
42.0461

> <Gold.PLP.PLP>
-25.8739

> <Gold.PLP.part.hbond>
-2.9705

> <Gold.PLP.part.metal>
0.0000

> <Gold.PLP.part.buried>
-5.1458

> <Gold.PLP.part.nonpolar>
-19.0620

> <Gold.PLP.part.repulsive>
0.3798

> <Gold.PLP.ligand.clash>
0.0000

> <Gold.PLP.ligand.torsion>
0.4466

> <Gold.PLP.Chemscore.Hbond>
3.6720

> <Gold.PLP.Chemscore.CHOScore>
2.0000

> <Gold.PLP.Chemscore.Metal>
0.0000

> <Gold.Chemscore.Hbonds>
donor molecule, donor type, donor heavy atom, donor atom, acceptor molecule, acceptor atom, score
      L1  H     9    39       P1  7948  2.00
      L1  H    16    36       P1  7957  0.67
      P1  H  7989  7998       L1    18  0.89
      L1  C     5    26       P1 10747  0.98
      L1  C     7    28       P1 10186  1.00

> <Gold.PLP.Chemscore.Internal.Correction>
0.0494

> <Gold.Rescore>
     Score         DG    S(hbond)    S(metal)    S(lipo)     H(rot)  DE(clash)    DE(int)     intcor
     15.19     -15.71       2.75        0.00      56.60       2.18       0.07       0.45       ----

> <Gold.Chemscore.Fitness>
15.1901

> <Gold.Chemscore.DG>
-15.7103

> <Gold.Chemscore.ZeroCoef>
-5.4800

> <Gold.Chemscore.Hbond>
2.7533

> <Gold.Chemscore.Metal>
0.0000

> <Gold.Chemscore.Lipo>
56.6001

> <Gold.Chemscore.Internal_Hbond>
0.0000

> <Gold.Chemscore.DEClash>
0.0750

> <Gold.Chemscore.DEInternal>
0.4452

> <Gold.Chemscore.Rot>
2.1828

> <Gold.Chemscore.Internal.Correction>
   9.000000E+99

> <Gold.Chemscore.Hbonds>
donor molecule, donor type, donor heavy atom, donor atom, acceptor molecule, acceptor atom, score
      L1  H     9    39       P1  7948  0.91
      L1  H    16    36       P1  7957  0.66
      P1  H  7989  7998       L1    18  0.87

> <Gold.Chemscore.Hbond.Weighted>
-9.1961

> <Gold.Chemscore.Metal.Weighted>
-0.0000

> <Gold.Chemscore.Lipo.Weighted>
-6.6222

> <Gold.Chemscore.Internal_Hbond.Weighted>
0.0000

> <Gold.Chemscore.DEClash.Weighted>
0.0750

> <Gold.Chemscore.DEInternal.Weighted>
0.4452

> <Gold.Chemscore.Rot.Weighted>
5.5880

> <Gold.Chemscore.Internal.Correction.Weighted>
   9.000000E+99

> <Gold.Protein.RotatedTorsions>
[ 6907 6896 6895 6894 ] final  161.50 input  -60.11 | X-H torsion
[ 7974 7965 7964 7962 ] final   30.92 input  175.53 | X-H torsion
[ 8008 7997 7996 7995 ] final  158.07 input   59.86 | X-H torsion
[ 10167 10162 10161 10158 ] final -148.28 input  -65.29 | X-H torsion
[ 10718 10713 10712 10709 ] final   83.37 input   66.30 | X-H torsion
[ 10763 10752 10751 10750 ] final  -74.90 input  -60.55 | X-H torsion
[ 11005 11000 10999 10996 ] final  150.20 input  -57.11 | X-H torsion

> <Gold.Protein.ActiveResidues>
 VAL166  LYS551  ARG553  GLY616  TRP617  ASP618  TYR619  PRO620  LYS621  CYS622 
 ASP623  PHE694  ASN695  SER759  ASP760  ASP761  ALA762  ILE779  LEU786  VAL792 
 PHE793  MET794  SER795  GLU796  ALA797  LYS798  CYS799  TRP800  GLU811  SER814 

> <Gold.Protein.RotatedAtoms>
  151.9547  133.3676  159.4012 H   0  0  0  0  0  0  0  0  0  0  0  0  # atno 6907 bound_to 6896
  150.6974  134.4303  159.5255 H   0  0  0  0  0  0  0  0  0  0  0  0  # atno 6908 bound_to 6896
  152.1982  134.8611  160.0561 H   0  0  0  0  0  0  0  0  0  0  0  0  # atno 6909 bound_to 6896
  146.1582  139.6725  142.9052 H   0  0  0  0  0  0  0  0  0  0  0  0  # atno 7974 bound_to 7965
  156.2326  140.1868  156.7204 H   0  0  0  0  0  0  0  0  0  0  0  0  # atno 8008 bound_to 7997
  154.6048  140.0630  156.9444 H   0  0  0  0  0  0  0  0  0  0  0  0  # atno 8009 bound_to 7997
  155.2113  140.3300  155.4331 H   0  0  0  0  0  0  0  0  0  0  0  0  # atno 8010 bound_to 7997
  139.7545  143.8468  152.2594 H   0  0  0  0  0  0  0  0  0  0  0  0  # atno 10167 bound_to 10162
  157.6877  131.0088  150.2514 H   0  0  0  0  0  0  0  0  0  0  0  0  # atno 10718 bound_to 10713
  154.4793  135.5849  153.6378 H   0  0  0  0  0  0  0  0  0  0  0  0  # atno 10763 bound_to 10752
  152.9845  135.6086  154.3266 H   0  0  0  0  0  0  0  0  0  0  0  0  # atno 10764 bound_to 10752
  154.3156  135.2844  155.2524 H   0  0  0  0  0  0  0  0  0  0  0  0  # atno 10765 bound_to 10752
  140.1110  134.8924  157.1936 H   0  0  0  0  0  0  0  0  0  0  0  0  # atno 11005 bound_to 11000
  145.4655  141.0434  143.2728 LP  0  0  0  0  0  0  0  0  0  0  0  0  # atno 17320 bound_to 7965
  144.7992  139.6175  143.7079 LP  0  0  0  0  0  0  0  0  0  0  0  0  # atno 17321 bound_to 7965
  139.8456  144.7189  150.9277 LP  0  0  0  0  0  0  0  0  0  0  0  0  # atno 17342 bound_to 10162
  140.7801  143.3944  151.1254 LP  0  0  0  0  0  0  0  0  0  0  0  0  # atno 17343 bound_to 10162
  156.3110  130.3772  149.7662 LP  0  0  0  0  0  0  0  0  0  0  0  0  # atno 17370 bound_to 10713
  156.5262  130.8237  151.3221 LP  0  0  0  0  0  0  0  0  0  0  0  0  # atno 17371 bound_to 10713
  140.3091  134.3044  155.7271 LP  0  0  0  0  0  0  0  0  0  0  0  0  # atno 17394 bound_to 11000
  141.2130  133.7639  156.9750 LP  0  0  0  0  0  0  0  0  0  0  0  0  # atno 17395 bound_to 11000

$$$$
