AV-unprocessed.smi:1072|AV-procd|sdf|4683|dock9
  -GOLD-   22720 3203D 1   1.00000     0.00000
 Structure written by MMmdl.
 46 47  0  0  0  0  0  0  0  0  1 V2000
  150.1616  132.4477  156.7605 C   0  0  0  0  0  0  0  0  0  0  0  0
  149.2194  133.5282  157.2473 C   0  0  0  0  0  0  0  0  0  0  0  0
  149.6027  134.5828  157.8884 N   0  0  0  0  0  0  0  0  0  0  0  0
  148.6366  135.5171  158.2869 C   0  0  0  0  0  0  0  0  0  0  0  0
  149.1663  136.7322  159.0292 C   0  0  0  0  0  0  0  0  0  0  0  0
  147.3106  135.3358  158.0161 C   0  0  0  0  0  0  0  0  0  0  0  0
  146.2366  136.3392  158.4337 C   0  0  0  0  0  0  0  0  0  0  0  0
  146.1942  136.6853  159.9240 C   0  0  0  0  0  0  0  0  0  0  0  0
  146.0678  137.8561  160.2824 O   0  0  0  0  0  0  0  0  0  0  0  0
  146.3132  135.6480  160.7710 N   0  0  0  0  0  0  0  0  0  0  0  0
  146.3482  135.6620  162.2409 C   0  0  1  0  0  0  0  0  0  0  0  0
  147.7311  136.1512  162.7227 C   0  0  0  0  0  0  0  0  0  0  0  0
  145.2235  136.5505  162.8360 C   0  0  0  0  0  0  0  0  0  0  0  0
  143.8134  136.0247  162.5135 C   0  0  0  0  0  0  0  0  0  0  0  0
  143.6274  134.5773  163.0029 C   0  0  1  0  0  0  0  0  0  0  0  0
  142.2241  134.0494  162.6737 C   0  0  0  0  0  0  0  0  0  0  0  0
  144.7247  133.6696  162.4182 C   0  0  0  0  0  0  0  0  0  0  0  0
  146.1343  134.2088  162.7291 C   0  0  0  0  0  0  0  0  0  0  0  0
  146.8842  134.1277  157.2835 C   0  0  0  0  0  0  0  0  0  0  0  0
  145.7202  133.8683  156.9825 O   0  0  0  0  0  0  0  0  0  0  0  0
  147.8821  133.2830  156.9396 N   0  0  0  0  0  0  0  0  0  0  0  0
  147.6413  132.4421  156.4354 H   0  0  0  0  0  0  0  0  0  0  0  0
  150.8803  132.8674  156.0565 H   0  0  0  0  0  0  0  0  0  0  0  0
  149.6256  131.6398  156.2611 H   0  0  0  0  0  0  0  0  0  0  0  0
  150.7120  132.0235  157.6003 H   0  0  0  0  0  0  0  0  0  0  0  0
  148.7709  136.7620  160.0445 H   0  0  0  0  0  0  0  0  0  0  0  0
  148.8819  137.6517  158.5175 H   0  0  0  0  0  0  0  0  0  0  0  0
  150.2547  136.7125  159.0946 H   0  0  0  0  0  0  0  0  0  0  0  0
  146.3381  137.2690  157.8732 H   0  0  0  0  0  0  0  0  0  0  0  0
  145.2653  135.9414  158.1374 H   0  0  0  0  0  0  0  0  0  0  0  0
  146.4060  134.7358  160.3485 H   0  0  0  0  0  0  0  0  0  0  0  0
  147.8159  136.0853  163.8077 H   0  0  0  0  0  0  0  0  0  0  0  0
  147.9158  137.1908  162.4523 H   0  0  0  0  0  0  0  0  0  0  0  0
  148.5356  135.5516  162.2950 H   0  0  0  0  0  0  0  0  0  0  0  0
  145.3372  136.5917  163.9202 H   0  0  0  0  0  0  0  0  0  0  0  0
  145.3151  137.5822  162.4976 H   0  0  0  0  0  0  0  0  0  0  0  0
  143.0701  136.6722  162.9801 H   0  0  0  0  0  0  0  0  0  0  0  0
  143.6341  136.0807  161.4390 H   0  0  0  0  0  0  0  0  0  0  0  0
  143.7331  134.5739  164.0888 H   0  0  0  0  0  0  0  0  0  0  0  0
  142.0487  134.0348  161.5976 H   0  0  0  0  0  0  0  0  0  0  0  0
  141.4541  134.6734  163.1283 H   0  0  0  0  0  0  0  0  0  0  0  0
  142.0885  133.0341  163.0473 H   0  0  0  0  0  0  0  0  0  0  0  0
  144.6258  132.6617  162.8227 H   0  0  0  0  0  0  0  0  0  0  0  0
  144.5918  133.5776  161.3394 H   0  0  0  0  0  0  0  0  0  0  0  0
  146.8821  133.5489  162.2869 H   0  0  0  0  0  0  0  0  0  0  0  0
  146.2937  134.1605  163.8075 H   0  0  0  0  0  0  0  0  0  0  0  0
  1  2  1  0  0  0  0
  1 23  1  0  0  0  0
  1 24  1  0  0  0  0
  1 25  1  0  0  0  0
  2 21  1  0  0  0  0
  2  3  2  0  0  0  0
  3  4  1  0  0  0  0
  4  5  1  0  0  0  0
  4  6  2  0  0  0  0
  5 26  1  0  0  0  0
  5 27  1  0  0  0  0
  5 28  1  0  0  0  0
  6  7  1  0  0  0  0
  6 19  1  0  0  0  0
  7  8  1  0  0  0  0
  7 29  1  0  0  0  0
  7 30  1  0  0  0  0
  8  9  2  0  0  0  0
  8 10  1  0  0  0  0
 10 11  1  0  0  0  0
 10 31  1  0  0  0  0
 11 18  1  0  0  0  0
 11 12  1  0  0  0  0
 11 13  1  0  0  0  0
 12 32  1  0  0  0  0
 12 33  1  0  0  0  0
 12 34  1  0  0  0  0
 13 14  1  0  0  0  0
 13 35  1  0  0  0  0
 13 36  1  0  0  0  0
 14 15  1  0  0  0  0
 14 37  1  0  0  0  0
 14 38  1  0  0  0  0
 15 16  1  0  0  0  0
 15 17  1  0  0  0  0
 15 39  1  0  0  0  0
 16 40  1  0  0  0  0
 16 41  1  0  0  0  0
 16 42  1  0  0  0  0
 17 18  1  0  0  0  0
 17 43  1  0  0  0  0
 17 44  1  0  0  0  0
 18 45  1  0  0  0  0
 18 46  1  0  0  0  0
 19 20  2  0  0  0  0
 19 21  1  0  0  0  0
 21 22  1  0  0  0  0
M  END
> <s_m_source_file>
AV-unprocessed.smi

> <i_m_source_file_index>
1072

> <i_lp_mmshare_version>
43012

> <i_f3d_flags>
0

> <s_epik_input>
W0NIM11jMW5jKFtDSDNdKWMoYyg9TylbbkhdMSlbQ0gyXUMoPU8pW05IXVtDQEBdMihbQ0gzXSlbQ0gyXVtDSDJdW0NAQEhdKFtDSDNdKVtDSDJdW0NIMl0y

> <s_epik_cmdline>
J2VwaWtfcHl0aG9uJywgJy1waCcsICc3LjAnLCAnLXRuJywgJzgnLCAnLW1hJywgJzIwMCcsICctbWV0YWxfYmluZGluZycsICctaW1hZScsICc8aW5maWxlLm1hZT4nLCAnLW9tYWUnLCAnPG91dGZpbGUubWFlPic=

> <r_lp_tautomer_probability>
0.839158

> <r_epik_Ionization_Penalty>
0.000352328

> <r_epik_Ionization_Penalty_Charging>
0.000314696

> <r_epik_Ionization_Penalty_Neutral>
3.76315e-05

> <r_epik_State_Penalty>
0.09125

> <r_epik_Charging_Adjusted_Penalty>
0.0915647

> <i_epik_Tot_Q>
0

> <i_epik_Tot_abs_Q>
0

> <r_epik_Metal_State_Penalty>
0.245598

> <b_epik_Metal_Only>
0

> <s_lp_Force_Field>
OPLS_2005

> <r_lp_Energy>
11.0611

> <b_lp_Chiralities_Consistent>
1

> <s_lp_Variant>
AV-unprocessed.smi:1072-1

> <Gold.Version>
5.8.1

> <Gold.Id.Protein>
6NUR|6NUR_protein|mol2

> <Gold.PLP.Fitness>
33.3309

> <Gold.PLP.PLP>
-28.3481

> <Gold.PLP.part.hbond>
-1.8725

> <Gold.PLP.part.metal>
0.0000

> <Gold.PLP.part.buried>
-4.8592

> <Gold.PLP.part.nonpolar>
-22.6517

> <Gold.PLP.part.repulsive>
0.0893

> <Gold.PLP.ligand.clash>
0.0000

> <Gold.PLP.ligand.torsion>
0.4990

> <Gold.PLP.Chemscore.Hbond>
1.9920

> <Gold.PLP.Chemscore.CHOScore>
0.0000

> <Gold.PLP.Chemscore.Metal>
0.0000

> <Gold.Chemscore.Hbonds>
donor molecule, donor type, donor heavy atom, donor atom, acceptor molecule, acceptor atom, score
      P1  H  6896  6908       L1     3  1.00
      P1  H  6934  6947       L1     9  1.00

> <Gold.PLP.Chemscore.Internal.Correction>
0.0048

> <Gold.Rescore>
     Score         DG    S(hbond)    S(metal)    S(lipo)     H(rot)  DE(clash)    DE(int)     intcor
     14.68     -15.93       1.71        0.00      72.77       1.47       0.07       1.18       ----

> <Gold.Chemscore.Fitness>
14.6812

> <Gold.Chemscore.DG>
-15.9289

> <Gold.Chemscore.ZeroCoef>
-5.4800

> <Gold.Chemscore.Hbond>
1.7052

> <Gold.Chemscore.Metal>
0.0000

> <Gold.Chemscore.Lipo>
72.7708

> <Gold.Chemscore.Internal_Hbond>
0.0000

> <Gold.Chemscore.DEClash>
0.0650

> <Gold.Chemscore.DEInternal>
1.1826

> <Gold.Chemscore.Rot>
1.4690

> <Gold.Chemscore.Internal.Correction>
   9.000000E+99

> <Gold.Chemscore.Hbonds>
donor molecule, donor type, donor heavy atom, donor atom, acceptor molecule, acceptor atom, score
      P1  H  6896  6908       L1     3  0.37
      P1  H  6934  6947       L1     9  0.98

> <Gold.Chemscore.Hbond.Weighted>
-5.6954

> <Gold.Chemscore.Metal.Weighted>
-0.0000

> <Gold.Chemscore.Lipo.Weighted>
-8.5142

> <Gold.Chemscore.Internal_Hbond.Weighted>
0.0000

> <Gold.Chemscore.DEClash.Weighted>
0.0650

> <Gold.Chemscore.DEInternal.Weighted>
1.1826

> <Gold.Chemscore.Rot.Weighted>
3.7607

> <Gold.Chemscore.Internal.Correction.Weighted>
   9.000000E+99

> <Gold.Protein.RotatedTorsions>
[ 6907 6896 6895 6894 ] final  158.23 input  -60.11 | X-H torsion
[ 7974 7965 7964 7962 ] final  -28.00 input  175.53 | X-H torsion
[ 8008 7997 7996 7995 ] final  179.51 input   59.86 | X-H torsion
[ 10167 10162 10161 10158 ] final -168.29 input  -65.29 | X-H torsion
[ 10718 10713 10712 10709 ] final   55.90 input   66.30 | X-H torsion
[ 10763 10752 10751 10750 ] final  -13.32 input  -60.55 | X-H torsion
[ 11005 11000 10999 10996 ] final   72.31 input  -57.11 | X-H torsion

> <Gold.Protein.ActiveResidues>
 VAL166  LYS551  ARG553  GLY616  TRP617  ASP618  TYR619  PRO620  LYS621  CYS622 
 ASP623  PHE694  ASN695  SER759  ASP760  ASP761  ALA762  ILE779  LEU786  VAL792 
 PHE793  MET794  SER795  GLU796  ALA797  LYS798  CYS799  TRP800  GLU811  SER814 

> <Gold.Protein.RotatedAtoms>
  152.0035  133.3834  159.4190 H   0  0  0  0  0  0  0  0  0  0  0  0  # atno 6907 bound_to 6896
  150.6907  134.3808  159.5042 H   0  0  0  0  0  0  0  0  0  0  0  0  # atno 6908 bound_to 6896
  152.1559  134.8951  160.0595 H   0  0  0  0  0  0  0  0  0  0  0  0  # atno 6909 bound_to 6896
  146.1319  140.5225  142.8690 H   0  0  0  0  0  0  0  0  0  0  0  0  # atno 7974 bound_to 7965
  156.0426  140.1307  157.0139 H   0  0  0  0  0  0  0  0  0  0  0  0  # atno 8008 bound_to 7997
  154.4398  140.1027  156.6329 H   0  0  0  0  0  0  0  0  0  0  0  0  # atno 8009 bound_to 7997
  155.5644  140.3465  155.4501 H   0  0  0  0  0  0  0  0  0  0  0  0  # atno 8010 bound_to 7997
  139.5995  144.1041  152.1727 H   0  0  0  0  0  0  0  0  0  0  0  0  # atno 10167 bound_to 10162
  157.5385  130.8680  149.8787 H   0  0  0  0  0  0  0  0  0  0  0  0  # atno 10718 bound_to 10713
  153.5116  135.7016  153.5778 H   0  0  0  0  0  0  0  0  0  0  0  0  # atno 10763 bound_to 10752
  153.3866  135.3906  155.1894 H   0  0  0  0  0  0  0  0  0  0  0  0  # atno 10764 bound_to 10752
  154.8703  135.3848  154.4596 H   0  0  0  0  0  0  0  0  0  0  0  0  # atno 10765 bound_to 10752
  139.9498  134.7248  156.0891 H   0  0  0  0  0  0  0  0  0  0  0  0  # atno 11005 bound_to 11000
  144.7699  140.5614  143.6677 LP  0  0  0  0  0  0  0  0  0  0  0  0  # atno 17320 bound_to 7965
  145.5242  139.1476  143.3535 LP  0  0  0  0  0  0  0  0  0  0  0  0  # atno 17321 bound_to 7965
  140.0634  144.5838  150.7246 LP  0  0  0  0  0  0  0  0  0  0  0  0  # atno 17342 bound_to 10162
  140.7238  143.2615  151.4189 LP  0  0  0  0  0  0  0  0  0  0  0  0  # atno 17343 bound_to 10162
  156.0477  130.3724  150.1276 LP  0  0  0  0  0  0  0  0  0  0  0  0  # atno 17370 bound_to 10713
  156.9457  130.9759  151.3508 LP  0  0  0  0  0  0  0  0  0  0  0  0  # atno 17371 bound_to 10713
  141.1158  133.6628  156.3089 LP  0  0  0  0  0  0  0  0  0  0  0  0  # atno 17394 bound_to 11000
  140.5747  134.5805  157.5466 LP  0  0  0  0  0  0  0  0  0  0  0  0  # atno 17395 bound_to 11000

$$$$
