AV-unprocessed.smi:1643|AV-procd|sdf|6579|dock2
  -GOLD-   22720 7263D 1   1.00000     0.00000
 Structure written by MMmdl.
 55 57  0  0  0  0  0  0  0  0  3 V2000
  148.9900  131.2680  154.1383 C   0  0  0  0  0  0  0  0  0  0  0  0
  148.5276  132.0298  155.3840 C   0  0  0  0  0  0  0  0  0  0  0  0
  147.7131  131.4824  156.1272 O   0  0  0  0  0  0  0  0  0  0  0  0
  149.0294  133.2661  155.6265 N   0  0  0  0  0  0  0  0  0  0  0  0
  148.6515  134.0118  156.8371 C   0  0  0  0  0  0  0  0  0  0  0  0
  147.5582  135.0525  156.5359 C   0  0  0  0  0  0  0  0  0  0  0  0
  147.6591  135.7011  155.1391 C   0  0  0  0  0  0  0  0  0  0  0  0
  148.9698  136.3515  154.8604 N   0  3  1  0  0  0  0  0  0  0  0  0
  149.1453  137.6323  155.6011 C   0  0  0  0  0  0  0  0  0  0  0  0
  149.8373  138.7307  154.7596 C   0  0  2  0  0  0  0  0  0  0  0  0
  150.2225  138.2096  153.5046 O   0  0  0  0  0  0  0  0  0  0  0  0
  151.1187  139.3016  155.4066 C   0  0  0  0  0  0  0  0  0  0  0  0
  150.9447  140.6398  155.9872 N   0  0  0  0  0  0  0  0  0  0  0  0
  150.2028  141.6950  155.5515 C   0  0  0  0  0  0  0  0  0  0  0  0
  150.3646  142.7080  156.4469 N   0  3  0  0  0  0  0  0  0  0  0  0
  151.2093  142.2891  157.4772 C   0  0  0  0  0  0  0  0  0  0  0  0
  151.6637  142.9545  158.6095 C   0  0  0  0  0  0  0  0  0  0  0  0
  152.5173  142.2385  159.4789 C   0  0  0  0  0  0  0  0  0  0  0  0
  153.0319  142.9366  160.7264 C   0  0  0  0  0  0  0  0  0  0  0  0
  152.8864  140.8971  159.1992 C   0  0  0  0  0  0  0  0  0  0  0  0
  153.8006  140.1358  160.1445 C   0  0  0  0  0  0  0  0  0  0  0  0
  152.4140  140.2381  158.0414 C   0  0  0  0  0  0  0  0  0  0  0  0
  151.5780  140.9599  157.1931 C   0  0  0  0  0  0  0  0  0  0  0  0
  150.1733  135.4632  154.9173 C   0  0  0  0  0  0  0  0  0  0  0  0
  149.9325  133.9485  154.6746 C   0  0  0  0  0  0  0  0  0  0  0  0
  150.0780  131.2215  154.0858 H   0  0  0  0  0  0  0  0  0  0  0  0
  148.6116  131.7418  153.2324 H   0  0  0  0  0  0  0  0  0  0  0  0
  148.6172  130.2434  154.1567 H   0  0  0  0  0  0  0  0  0  0  0  0
  148.3078  133.3520  157.6354 H   0  0  0  0  0  0  0  0  0  0  0  0
  149.5280  134.4903  157.2707 H   0  0  0  0  0  0  0  0  0  0  0  0
  146.5856  134.5644  156.6075 H   0  0  0  0  0  0  0  0  0  0  0  0
  147.5632  135.8183  157.3121 H   0  0  0  0  0  0  0  0  0  0  0  0
  147.4563  134.9630  154.3623 H   0  0  0  0  0  0  0  0  0  0  0  0
  146.8590  136.4332  155.0238 H   0  0  0  0  0  0  0  0  0  0  0  0
  148.1535  137.9930  155.8714 H   0  0  0  0  0  0  0  0  0  0  0  0
  149.6642  137.4679  156.5468 H   0  0  0  0  0  0  0  0  0  0  0  0
  149.1332  139.5443  154.5833 H   0  0  0  0  0  0  0  0  0  0  0  0
  149.9621  138.8170  152.8287 H   0  0  0  0  0  0  0  0  0  0  0  0
  151.4629  138.6439  156.2062 H   0  0  0  0  0  0  0  0  0  0  0  0
  151.9314  139.3556  154.6802 H   0  0  0  0  0  0  0  0  0  0  0  0
  149.5961  141.7254  154.6576 H   0  0  0  0  0  0  0  0  0  0  0  0
  151.3753  143.9745  158.8186 H   0  0  0  0  0  0  0  0  0  0  0  0
  154.1197  143.0049  160.7060 H   0  0  0  0  0  0  0  0  0  0  0  0
  152.7352  142.3897  161.6216 H   0  0  0  0  0  0  0  0  0  0  0  0
  152.6356  143.9489  160.8096 H   0  0  0  0  0  0  0  0  0  0  0  0
  154.0045  139.1288  159.7794 H   0  0  0  0  0  0  0  0  0  0  0  0
  153.3427  140.0463  161.1299 H   0  0  0  0  0  0  0  0  0  0  0  0
  154.7555  140.6503  160.2516 H   0  0  0  0  0  0  0  0  0  0  0  0
  152.6910  139.2155  157.8313 H   0  0  0  0  0  0  0  0  0  0  0  0
  150.8665  135.8161  154.1538 H   0  0  0  0  0  0  0  0  0  0  0  0
  150.7045  135.6042  155.8586 H   0  0  0  0  0  0  0  0  0  0  0  0
  150.8961  133.4379  154.6972 H   0  0  0  0  0  0  0  0  0  0  0  0
  149.5501  133.8365  153.6593 H   0  0  0  0  0  0  0  0  0  0  0  0
  148.8936  136.6204  153.8897 H   0  0  0  0  0  0  0  0  0  0  0  0
  149.9223  143.6148  156.3643 H   0  0  0  0  0  0  0  0  0  0  0  0
  1  2  1  0  0  0  0
  1 26  1  0  0  0  0
  1 27  1  0  0  0  0
  1 28  1  0  0  0  0
  2  3  2  0  0  0  0
  2  4  1  0  0  0  0
  4 25  1  0  0  0  0
  4  5  1  0  0  0  0
  5  6  1  0  0  0  0
  5 29  1  0  0  0  0
  5 30  1  0  0  0  0
  6  7  1  0  0  0  0
  6 31  1  0  0  0  0
  6 32  1  0  0  0  0
  7  8  1  0  0  0  0
  7 33  1  0  0  0  0
  7 34  1  0  0  0  0
  8  9  1  0  0  0  0
  8 24  1  0  0  0  0
  8 54  1  0  0  0  0
  9 10  1  0  0  0  0
  9 35  1  0  0  0  0
  9 36  1  0  0  0  0
 10 11  1  0  0  0  0
 10 12  1  0  0  0  0
 10 37  1  0  0  0  0
 11 38  1  0  0  0  0
 12 13  1  0  0  0  0
 12 39  1  0  0  0  0
 12 40  1  0  0  0  0
 13 23  1  0  0  0  0
 13 14  1  0  0  0  0
 14 15  2  0  0  0  0
 14 41  1  0  0  0  0
 15 16  1  0  0  0  0
 15 55  1  0  0  0  0
 16 23  2  0  0  0  0
 16 17  1  0  0  0  0
 17 18  2  0  0  0  0
 17 42  1  0  0  0  0
 18 19  1  0  0  0  0
 18 20  1  0  0  0  0
 19 43  1  0  0  0  0
 19 44  1  0  0  0  0
 19 45  1  0  0  0  0
 20 21  1  0  0  0  0
 20 22  2  0  0  0  0
 21 46  1  0  0  0  0
 21 47  1  0  0  0  0
 21 48  1  0  0  0  0
 22 23  1  0  0  0  0
 22 49  1  0  0  0  0
 24 25  1  0  0  0  0
 24 50  1  0  0  0  0
 24 51  1  0  0  0  0
 25 52  1  0  0  0  0
 25 53  1  0  0  0  0
M  CHG  1   8   1
M  CHG  1  15   1
M  END
> <s_m_source_file>
AV-unprocessed.smi

> <i_m_source_file_index>
1643

> <i_lp_mmshare_version>
43012

> <i_f3d_flags>
0

> <s_epik_input>
W0NIM11DKD1PKU4xW0NIMl1bQ0gyXVtDSDJdTihbQ0gyXVtDSDJdMSlbQ0gyXVtDQEhdKFtPSF0pW0NIMl1uKFtjSF1uMiljKGMyMylbY0hdYyhbQ0gzXSljKFtjSF0zKVtDSDNd

> <s_epik_cmdline>
J2VwaWtfcHl0aG9uJywgJy1waCcsICc3LjAnLCAnLXRuJywgJzgnLCAnLW1hJywgJzIwMCcsICctbWV0YWxfYmluZGluZycsICctaW1hZScsICc8aW5maWxlLm1hZT4nLCAnLW9tYWUnLCAnPG91dGZpbGUubWFlPic=

> <r_epik_Ionization_Penalty>
1.2865

> <r_epik_Ionization_Penalty_Charging>
1.2865

> <r_epik_Ionization_Penalty_Neutral>
2.89706e-06

> <r_epik_State_Penalty>
1.3566

> <r_epik_Charging_Adjusted_Penalty>
2.6431

> <i_epik_Tot_Q>
2

> <i_epik_Tot_abs_Q>
2

> <r_epik_Metal_State_Penalty>
5.37339

> <b_epik_Metal_Only>
0

> <s_lp_Force_Field>
OPLS_2005

> <r_lp_Energy>
60.8109

> <b_lp_Chiralities_Consistent>
1

> <s_lp_Variant>
AV-unprocessed.smi:1643-8

> <Gold.Version>
5.8.1

> <Gold.Id.Protein>
6NUR|6NUR_protein|mol2

> <Gold.PLP.Fitness>
54.4350

> <Gold.PLP.PLP>
-43.6145

> <Gold.PLP.part.hbond>
-4.7252

> <Gold.PLP.part.metal>
0.0000

> <Gold.PLP.part.buried>
-4.0646

> <Gold.PLP.part.nonpolar>
-34.3645

> <Gold.PLP.part.repulsive>
0.0700

> <Gold.PLP.ligand.clash>
0.0000

> <Gold.PLP.ligand.torsion>
2.1318

> <Gold.PLP.Chemscore.Hbond>
5.0000

> <Gold.PLP.Chemscore.CHOScore>
0.0000

> <Gold.PLP.Chemscore.Metal>
0.0000

> <Gold.Chemscore.Hbonds>
donor molecule, donor type, donor heavy atom, donor atom, acceptor molecule, acceptor atom, score
      L1  H     8    54       P1  7948  1.89
      L1  H    11    38       P1  7957  0.88
      L1  H    15    55       P1  8028  2.00

> <Gold.PLP.Chemscore.Internal.Correction>
0.0840

> <Gold.Rescore>
     Score         DG    S(hbond)    S(metal)    S(lipo)     H(rot)  DE(clash)    DE(int)     intcor
     19.36     -21.63       2.74        0.00     107.37       2.17       0.03       2.24       ----

> <Gold.Chemscore.Fitness>
19.3640

> <Gold.Chemscore.DG>
-21.6330

> <Gold.Chemscore.ZeroCoef>
-5.4800

> <Gold.Chemscore.Hbond>
2.7416

> <Gold.Chemscore.Metal>
0.0000

> <Gold.Chemscore.Lipo>
107.3732

> <Gold.Chemscore.Internal_Hbond>
0.0000

> <Gold.Chemscore.DEClash>
0.0292

> <Gold.Chemscore.DEInternal>
2.2398

> <Gold.Chemscore.Rot>
2.1744

> <Gold.Chemscore.Internal.Correction>
   9.000000E+99

> <Gold.Chemscore.Hbonds>
donor molecule, donor type, donor heavy atom, donor atom, acceptor molecule, acceptor atom, score
      L1  H     8    54       P1  7948  0.87
      L1  H    11    38       P1  7957  0.60
      L1  H    15    55       P1  8028  0.98

> <Gold.Chemscore.Hbond.Weighted>
-9.1569

> <Gold.Chemscore.Metal.Weighted>
-0.0000

> <Gold.Chemscore.Lipo.Weighted>
-12.5627

> <Gold.Chemscore.Internal_Hbond.Weighted>
0.0000

> <Gold.Chemscore.DEClash.Weighted>
0.0292

> <Gold.Chemscore.DEInternal.Weighted>
2.2398

> <Gold.Chemscore.Rot.Weighted>
5.5666

> <Gold.Chemscore.Internal.Correction.Weighted>
   9.000000E+99

> <Gold.Protein.RotatedTorsions>
[ 6907 6896 6895 6894 ] final -142.47 input  -60.11 | X-H torsion
[ 7974 7965 7964 7962 ] final  -65.96 input  175.53 | X-H torsion
[ 8008 7997 7996 7995 ] final  109.75 input   59.86 | X-H torsion
[ 10167 10162 10161 10158 ] final  119.53 input  -65.29 | X-H torsion
[ 10718 10713 10712 10709 ] final -163.56 input   66.30 | X-H torsion
[ 10763 10752 10751 10750 ] final  166.96 input  -60.55 | X-H torsion
[ 11005 11000 10999 10996 ] final  179.04 input  -57.11 | X-H torsion

> <Gold.Protein.ActiveResidues>
 VAL166  LYS551  ARG553  GLY616  TRP617  ASP618  TYR619  PRO620  LYS621  CYS622 
 ASP623  PHE694  ASN695  SER759  ASP760  ASP761  ALA762  ILE779  LEU786  VAL792 
 PHE793  MET794  SER795  GLU796  ALA797  LYS798  CYS799  TRP800  GLU811  SER814 

> <Gold.Protein.RotatedAtoms>
  151.0875  133.5342  159.2616 H   0  0  0  0  0  0  0  0  0  0  0  0  # atno 6907 bound_to 6896
  151.2222  135.0522  159.8964 H   0  0  0  0  0  0  0  0  0  0  0  0  # atno 6908 bound_to 6896
  152.5430  134.0676  159.8233 H   0  0  0  0  0  0  0  0  0  0  0  0  # atno 6909 bound_to 6896
  145.7477  140.8923  143.0496 H   0  0  0  0  0  0  0  0  0  0  0  0  # atno 7974 bound_to 7965
  156.2003  140.3051  155.9512 H   0  0  0  0  0  0  0  0  0  0  0  0  # atno 8008 bound_to 7997
  155.2970  140.0444  157.3044 H   0  0  0  0  0  0  0  0  0  0  0  0  # atno 8009 bound_to 7997
  154.5562  140.2306  155.8416 H   0  0  0  0  0  0  0  0  0  0  0  0  # atno 8010 bound_to 7997
  139.6040  144.7065  151.2996 H   0  0  0  0  0  0  0  0  0  0  0  0  # atno 10167 bound_to 10162
  156.6265  130.8912  151.2968 H   0  0  0  0  0  0  0  0  0  0  0  0  # atno 10718 bound_to 10713
  154.3468  135.2753  155.2393 H   0  0  0  0  0  0  0  0  0  0  0  0  # atno 10763 bound_to 10752
  154.4640  135.5900  153.6279 H   0  0  0  0  0  0  0  0  0  0  0  0  # atno 10764 bound_to 10752
  152.9853  135.6072  154.3674 H   0  0  0  0  0  0  0  0  0  0  0  0  # atno 10765 bound_to 10752
  140.4018  134.6770  157.4566 H   0  0  0  0  0  0  0  0  0  0  0  0  # atno 11005 bound_to 11000
  144.6856  139.9548  143.7479 LP  0  0  0  0  0  0  0  0  0  0  0  0  # atno 17320 bound_to 7965
  146.0387  139.3401  143.0711 LP  0  0  0  0  0  0  0  0  0  0  0  0  # atno 17321 bound_to 7965
  140.7271  143.6972  150.7874 LP  0  0  0  0  0  0  0  0  0  0  0  0  # atno 17342 bound_to 10162
  140.0554  143.5208  152.2653 LP  0  0  0  0  0  0  0  0  0  0  0  0  # atno 17343 bound_to 10162
  157.7212  130.9562  150.1448 LP  0  0  0  0  0  0  0  0  0  0  0  0  # atno 17370 bound_to 10713
  156.2269  130.3678  149.8490 LP  0  0  0  0  0  0  0  0  0  0  0  0  # atno 17371 bound_to 10713
  140.0331  134.6377  155.9080 LP  0  0  0  0  0  0  0  0  0  0  0  0  # atno 17394 bound_to 11000
  141.1854  133.6555  156.5196 LP  0  0  0  0  0  0  0  0  0  0  0  0  # atno 17395 bound_to 11000

$$$$
