AV-unprocessed.smi:480|AV-procd|sdf|2676|dock6
  -GOLD-   2262023 93D 1   1.00000     0.00000
 Structure written by MMmdl.
 46 48  0  0  0  0  0  0  0  0  1 V2000
  152.0296  139.0540  154.9491 C   0  0  0  0  0  0  0  0  0  0  0  0
  150.7956  139.6936  155.5978 C   0  0  0  0  0  0  0  0  0  0  0  0
  151.1450  140.6384  156.7125 C   0  0  0  0  0  0  0  0  0  0  0  0
  150.8123  141.9284  156.6348 N   0  0  0  0  0  0  0  0  0  0  0  0
  151.2986  142.4458  157.8177 C   0  0  0  0  0  0  0  0  0  0  0  0
  151.2621  143.7634  158.3280 C   0  0  0  0  0  0  0  0  0  0  0  0
  151.8334  144.0586  159.5831 C   0  0  0  0  0  0  0  0  0  0  0  0
  152.4470  143.0426  160.3442 C   0  0  0  0  0  0  0  0  0  0  0  0
  152.4922  141.7233  159.8540 C   0  0  0  0  0  0  0  0  0  0  0  0
  151.9210  141.4339  158.5998 C   0  0  0  0  0  0  0  0  0  0  0  0
  151.7968  140.2680  157.8489 N   0  0  0  0  0  0  0  0  0  0  0  0
  152.2779  138.9554  158.2677 C   0  0  0  0  0  0  0  0  0  0  0  0
  151.1506  138.0349  158.7758 C   0  0  2  0  0  0  0  0  0  0  0  0
  151.7066  137.0356  159.6055 O   0  0  0  0  0  0  0  0  0  0  0  0
  150.4109  137.3503  157.6153 C   0  0  0  0  0  0  0  0  0  0  0  0
  151.1268  136.1834  157.2313 O   0  0  0  0  0  0  0  0  0  0  0  0
  150.5332  135.3202  156.3349 C   0  0  0  0  0  0  0  0  0  0  0  0
  150.7891  133.9264  156.2805 C   0  0  0  0  0  0  0  0  0  0  0  0
  150.1393  133.1177  155.3278 C   0  0  0  0  0  0  0  0  0  0  0  0
  149.2272  133.6866  154.4177 C   0  0  0  0  0  0  0  0  0  0  0  0
  148.5271  132.8159  153.3955 C   0  0  0  0  0  0  0  0  0  0  0  0
  147.5524  133.5779  152.6004 C   0  0  0  0  0  0  0  0  0  0  0  0
  146.7858  134.1776  151.9746 N   0  0  0  0  0  0  0  0  0  0  0  0
  148.9663  135.0697  154.4670 C   0  0  0  0  0  0  0  0  0  0  0  0
  149.6159  135.8772  155.4202 C   0  0  0  0  0  0  0  0  0  0  0  0
  151.7386  138.3825  154.1413 H   0  0  0  0  0  0  0  0  0  0  0  0
  152.6048  138.4754  155.6705 H   0  0  0  0  0  0  0  0  0  0  0  0
  152.6901  139.8123  154.5277 H   0  0  0  0  0  0  0  0  0  0  0  0
  150.2440  140.2531  154.8416 H   0  0  0  0  0  0  0  0  0  0  0  0
  150.1177  138.9138  155.9345 H   0  0  0  0  0  0  0  0  0  0  0  0
  150.7932  144.5475  157.7525 H   0  0  0  0  0  0  0  0  0  0  0  0
  151.8002  145.0689  159.9638 H   0  0  0  0  0  0  0  0  0  0  0  0
  152.8824  143.2763  161.3048 H   0  0  0  0  0  0  0  0  0  0  0  0
  152.9607  140.9430  160.4352 H   0  0  0  0  0  0  0  0  0  0  0  0
  152.7561  138.4950  157.4024 H   0  0  0  0  0  0  0  0  0  0  0  0
  153.0662  139.0512  159.0109 H   0  0  0  0  0  0  0  0  0  0  0  0
  150.4440  138.6262  159.3598 H   0  0  0  0  0  0  0  0  0  0  0  0
  151.7982  137.3881  160.4776 H   0  0  0  0  0  0  0  0  0  0  0  0
  149.4192  137.0463  157.9539 H   0  0  0  0  0  0  0  0  0  0  0  0
  150.2806  138.0374  156.7769 H   0  0  0  0  0  0  0  0  0  0  0  0
  151.4804  133.4511  156.9596 H   0  0  0  0  0  0  0  0  0  0  0  0
  150.3435  132.0574  155.2981 H   0  0  0  0  0  0  0  0  0  0  0  0
  149.2578  132.3748  152.7170 H   0  0  0  0  0  0  0  0  0  0  0  0
  148.0045  131.9979  153.8917 H   0  0  0  0  0  0  0  0  0  0  0  0
  148.2663  135.5142  153.7747 H   0  0  0  0  0  0  0  0  0  0  0  0
  149.4086  136.9371  155.4484 H   0  0  0  0  0  0  0  0  0  0  0  0
  1  2  1  0  0  0  0
  1 26  1  0  0  0  0
  1 27  1  0  0  0  0
  1 28  1  0  0  0  0
  2  3  1  0  0  0  0
  2 29  1  0  0  0  0
  2 30  1  0  0  0  0
  3 11  1  0  0  0  0
  3  4  2  0  0  0  0
  4  5  1  0  0  0  0
  5 10  2  0  0  0  0
  5  6  1  0  0  0  0
  6  7  2  0  0  0  0
  6 31  1  0  0  0  0
  7  8  1  0  0  0  0
  7 32  1  0  0  0  0
  8  9  2  0  0  0  0
  8 33  1  0  0  0  0
  9 10  1  0  0  0  0
  9 34  1  0  0  0  0
 10 11  1  0  0  0  0
 11 12  1  0  0  0  0
 12 13  1  0  0  0  0
 12 35  1  0  0  0  0
 12 36  1  0  0  0  0
 13 14  1  0  0  0  0
 13 15  1  0  0  0  0
 13 37  1  0  0  0  0
 14 38  1  0  0  0  0
 15 16  1  0  0  0  0
 15 39  1  0  0  0  0
 15 40  1  0  0  0  0
 16 17  1  0  0  0  0
 17 25  1  0  0  0  0
 17 18  2  0  0  0  0
 18 19  1  0  0  0  0
 18 41  1  0  0  0  0
 19 20  2  0  0  0  0
 19 42  1  0  0  0  0
 20 21  1  0  0  0  0
 20 24  1  0  0  0  0
 21 22  1  0  0  0  0
 21 43  1  0  0  0  0
 21 44  1  0  0  0  0
 22 23  3  0  0  0  0
 24 25  2  0  0  0  0
 24 45  1  0  0  0  0
 25 46  1  0  0  0  0
M  END
> <s_m_source_file>
AV-unprocessed.smi

> <i_m_source_file_index>
480

> <i_lp_mmshare_version>
43012

> <i_f3d_flags>
0

> <s_epik_input>
W2NIXTFbY0hdW2NIXVtjSF1jKGMxMiluKGMobjIpW0NIMl1bQ0gzXSlbQ0gyXVtDQEhdKFtPSF0pW0NIMl1PYzNbY0hdW2NIXWMoW0NIMl1DI04pW2NIXVtjSF0z

> <s_epik_cmdline>
J2VwaWtfcHl0aG9uJywgJy1waCcsICc3LjAnLCAnLXRuJywgJzgnLCAnLW1hJywgJzIwMCcsICctbWV0YWxfYmluZGluZycsICctaW1hZScsICc8aW5maWxlLm1hZT4nLCAnLW9tYWUnLCAnPG91dGZpbGUubWFlPic=

> <r_lp_tautomer_probability>
1

> <r_epik_Ionization_Penalty>
0.114213

> <r_epik_Ionization_Penalty_Charging>
0

> <r_epik_Ionization_Penalty_Neutral>
0.114213

> <r_epik_State_Penalty>
0.103875

> <r_epik_Charging_Adjusted_Penalty>
0.103875

> <i_epik_Tot_Q>
0

> <i_epik_Tot_abs_Q>
0

> <r_epik_Metal_State_Penalty>
0.000113526

> <b_epik_Metal_Only>
0

> <s_lp_Force_Field>
OPLS_2005

> <r_lp_Energy>
17.1637

> <b_lp_Chiralities_Consistent>
1

> <s_lp_Variant>
AV-unprocessed.smi:480-1

> <Gold.Version>
5.8.1

> <Gold.Id.Protein>
6NUR|6NUR_protein|mol2

> <Gold.PLP.Fitness>
52.2918

> <Gold.PLP.PLP>
-51.2582

> <Gold.PLP.part.hbond>
-1.3264

> <Gold.PLP.part.metal>
0.0000

> <Gold.PLP.part.buried>
-6.7029

> <Gold.PLP.part.nonpolar>
-43.7371

> <Gold.PLP.part.repulsive>
0.6611

> <Gold.PLP.ligand.clash>
0.0000

> <Gold.PLP.ligand.torsion>
1.1169

> <Gold.PLP.Chemscore.Hbond>
1.0000

> <Gold.PLP.Chemscore.CHOScore>
0.0000

> <Gold.PLP.Chemscore.Metal>
0.0000

> <Gold.Chemscore.Hbonds>
donor molecule, donor type, donor heavy atom, donor atom, acceptor molecule, acceptor atom, score
      P1  H  6896  6908       L1    14  1.00

> <Gold.PLP.Chemscore.Internal.Correction>
0.2674

> <Gold.Rescore>
     Score         DG    S(hbond)    S(metal)    S(lipo)     H(rot)  DE(clash)    DE(int)     intcor
     15.39     -16.55       0.94        0.00     124.08       2.58       0.00       1.15       ----

> <Gold.Chemscore.Fitness>
15.3937

> <Gold.Chemscore.DG>
-16.5480

> <Gold.Chemscore.ZeroCoef>
-5.4800

> <Gold.Chemscore.Hbond>
0.9414

> <Gold.Chemscore.Metal>
0.0000

> <Gold.Chemscore.Lipo>
124.0850

> <Gold.Chemscore.Internal_Hbond>
0.0000

> <Gold.Chemscore.DEClash>
0.0048

> <Gold.Chemscore.DEInternal>
1.1495

> <Gold.Chemscore.Rot>
2.5759

> <Gold.Chemscore.Internal.Correction>
   9.000000E+99

> <Gold.Chemscore.Hbonds>
donor molecule, donor type, donor heavy atom, donor atom, acceptor molecule, acceptor atom, score
      P1  H  6896  6908       L1    14  0.30

> <Gold.Chemscore.Hbond.Weighted>
-3.1444

> <Gold.Chemscore.Metal.Weighted>
-0.0000

> <Gold.Chemscore.Lipo.Weighted>
-14.5179

> <Gold.Chemscore.Internal_Hbond.Weighted>
0.0000

> <Gold.Chemscore.DEClash.Weighted>
0.0048

> <Gold.Chemscore.DEInternal.Weighted>
1.1495

> <Gold.Chemscore.Rot.Weighted>
6.5943

> <Gold.Chemscore.Internal.Correction.Weighted>
   9.000000E+99

> <Gold.Protein.RotatedTorsions>
[ 6907 6896 6895 6894 ] final -119.62 input  -60.11 | X-H torsion
[ 7974 7965 7964 7962 ] final  156.22 input  175.53 | X-H torsion
[ 8008 7997 7996 7995 ] final  -88.53 input   59.86 | X-H torsion
[ 10167 10162 10161 10158 ] final -154.62 input  -65.29 | X-H torsion
[ 10718 10713 10712 10709 ] final -175.36 input   66.30 | X-H torsion
[ 10763 10752 10751 10750 ] final  144.42 input  -60.55 | X-H torsion
[ 11005 11000 10999 10996 ] final  141.58 input  -57.11 | X-H torsion

> <Gold.Protein.ActiveResidues>
 VAL166  LYS551  ARG553  GLY616  TRP617  ASP618  TYR619  PRO620  LYS621  CYS622 
 ASP623  PHE694  ASN695  SER759  ASP760  ASP761  ALA762  ILE779  LEU786  VAL792 
 PHE793  MET794  SER795  GLU796  ALA797  LYS798  CYS799  TRP800  GLU811  SER814 

> <Gold.Protein.RotatedAtoms>
  150.8322  133.8073  159.3093 H   0  0  0  0  0  0  0  0  0  0  0  0  # atno 6907 bound_to 6896
  151.5800  135.1057  160.0024 H   0  0  0  0  0  0  0  0  0  0  0  0  # atno 6908 bound_to 6896
  152.4399  133.7388  159.6685 H   0  0  0  0  0  0  0  0  0  0  0  0  # atno 6909 bound_to 6896
  144.7976  139.7174  143.6195 H   0  0  0  0  0  0  0  0  0  0  0  0  # atno 7974 bound_to 7965
  154.6759  140.0552  157.0215 H   0  0  0  0  0  0  0  0  0  0  0  0  # atno 8008 bound_to 7997
  155.1021  140.3230  155.4525 H   0  0  0  0  0  0  0  0  0  0  0  0  # atno 8009 bound_to 7997
  156.2676  140.2029  156.6146 H   0  0  0  0  0  0  0  0  0  0  0  0  # atno 8010 bound_to 7997
  139.6999  143.9281  152.2424 H   0  0  0  0  0  0  0  0  0  0  0  0  # atno 10167 bound_to 10162
  156.7988  130.9544  151.3119 H   0  0  0  0  0  0  0  0  0  0  0  0  # atno 10718 bound_to 10713
  153.9885  135.2934  155.3414 H   0  0  0  0  0  0  0  0  0  0  0  0  # atno 10763 bound_to 10752
  154.7228  135.5102  153.8842 H   0  0  0  0  0  0  0  0  0  0  0  0  # atno 10764 bound_to 10752
  153.0820  135.6682  154.0140 H   0  0  0  0  0  0  0  0  0  0  0  0  # atno 10765 bound_to 10752
  140.0412  134.9304  157.0846 H   0  0  0  0  0  0  0  0  0  0  0  0  # atno 11005 bound_to 11000
  146.2249  139.5704  142.9594 LP  0  0  0  0  0  0  0  0  0  0  0  0  # atno 17320 bound_to 7965
  145.5633  141.0402  143.2214 LP  0  0  0  0  0  0  0  0  0  0  0  0  # atno 17321 bound_to 7965
  139.9120  144.6850  150.8552 LP  0  0  0  0  0  0  0  0  0  0  0  0  # atno 17342 bound_to 10162
  140.7706  143.3436  151.2157 LP  0  0  0  0  0  0  0  0  0  0  0  0  # atno 17343 bound_to 10162
  157.6564  130.8928  149.9738 LP  0  0  0  0  0  0  0  0  0  0  0  0  # atno 17370 bound_to 10713
  156.1114  130.3650  150.0043 LP  0  0  0  0  0  0  0  0  0  0  0  0  # atno 17371 bound_to 10713
  140.4067  134.2025  155.7163 LP  0  0  0  0  0  0  0  0  0  0  0  0  # atno 17394 bound_to 11000
  141.1884  133.8261  157.0997 LP  0  0  0  0  0  0  0  0  0  0  0  0  # atno 17395 bound_to 11000

$$$$
