AV-unprocessed.smi:1007|AV-procd|sdf|4408|dock4
  -GOLD-   22720 2353D 1   1.00000     0.00000
 Structure written by MMmdl.
 57 59  0  0  0  0  0  0  0  0  3 V2000
  143.1848  135.4485  152.2164 C   0  0  0  0  0  0  0  0  0  0  0  0
  144.0014  136.0313  153.2172 O   0  0  0  0  0  0  0  0  0  0  0  0
  145.2108  136.5564  152.6955 C   0  0  0  0  0  0  0  0  0  0  0  0
  146.1378  136.9179  153.8662 C   0  0  0  0  0  0  0  0  0  0  0  0
  147.2331  137.8353  153.4609 N   0  3  2  0  0  0  0  0  0  0  0  0
  148.0915  138.2277  154.6065 C   0  0  0  0  0  0  0  0  0  0  0  0
  149.2771  139.0945  154.1405 C   0  0  0  0  0  0  0  0  0  0  0  0
  148.8208  140.2966  153.3992 N   0  3  2  0  0  0  0  0  0  0  0  0
  148.2685  141.3568  154.2845 C   0  0  0  0  0  0  0  0  0  0  0  0
  148.9947  141.4420  155.6458 C   0  0  2  0  0  0  0  0  0  0  0  0
  148.3400  142.3995  156.4524 O   0  0  0  0  0  0  0  0  0  0  0  0
  150.4758  141.8537  155.5285 C   0  0  0  0  0  0  0  0  0  0  0  0
  151.2932  141.2835  156.5839 N   0  0  0  0  0  0  0  0  0  0  0  0
  151.8926  140.0774  156.5811 C   0  0  0  0  0  0  0  0  0  0  0  0
  152.6212  139.7581  157.6463 N   0  0  0  0  0  0  0  0  0  0  0  0
  152.4681  140.8830  158.4384 C   0  0  0  0  0  0  0  0  0  0  0  0
  152.9966  141.1879  159.7116 C   0  0  0  0  0  0  0  0  0  0  0  0
  152.7119  142.4224  160.3379 C   0  0  0  0  0  0  0  0  0  0  0  0
  153.3020  142.7088  161.7077 C   0  0  0  0  0  0  0  0  0  0  0  0
  151.8850  143.3746  159.6893 C   0  0  0  0  0  0  0  0  0  0  0  0
  151.5641  144.7070  160.3433 C   0  0  0  0  0  0  0  0  0  0  0  0
  151.3472  143.0851  158.4181 C   0  0  0  0  0  0  0  0  0  0  0  0
  151.6395  141.8543  157.8043 C   0  0  0  0  0  0  0  0  0  0  0  0
  147.9432  139.9139  152.2612 C   0  0  0  0  0  0  0  0  0  0  0  0
  146.7623  139.0244  152.7037 C   0  0  0  0  0  0  0  0  0  0  0  0
  142.2710  135.0623  152.6681 H   0  0  0  0  0  0  0  0  0  0  0  0
  143.6941  134.6181  151.7257 H   0  0  0  0  0  0  0  0  0  0  0  0
  142.9025  136.1823  151.4602 H   0  0  0  0  0  0  0  0  0  0  0  0
  145.6808  135.8434  152.0178 H   0  0  0  0  0  0  0  0  0  0  0  0
  144.9965  137.4541  152.1140 H   0  0  0  0  0  0  0  0  0  0  0  0
  145.5671  137.3624  154.6829 H   0  0  0  0  0  0  0  0  0  0  0  0
  146.5611  135.9915  154.2571 H   0  0  0  0  0  0  0  0  0  0  0  0
  147.4939  138.7610  155.3477 H   0  0  0  0  0  0  0  0  0  0  0  0
  148.4763  137.3332  155.0978 H   0  0  0  0  0  0  0  0  0  0  0  0
  149.8998  139.3827  154.9884 H   0  0  0  0  0  0  0  0  0  0  0  0
  149.9179  138.5071  153.4814 H   0  0  0  0  0  0  0  0  0  0  0  0
  148.3082  142.3100  153.7605 H   0  0  0  0  0  0  0  0  0  0  0  0
  147.2112  141.1649  154.4733 H   0  0  0  0  0  0  0  0  0  0  0  0
  148.9500  140.4841  156.1626 H   0  0  0  0  0  0  0  0  0  0  0  0
  148.3477  143.2324  156.0048 H   0  0  0  0  0  0  0  0  0  0  0  0
  150.8860  141.5441  154.5662 H   0  0  0  0  0  0  0  0  0  0  0  0
  150.5715  142.9398  155.5720 H   0  0  0  0  0  0  0  0  0  0  0  0
  151.7969  139.3997  155.7450 H   0  0  0  0  0  0  0  0  0  0  0  0
  153.6259  140.4623  160.2063 H   0  0  0  0  0  0  0  0  0  0  0  0
  152.5115  142.9079  162.4316 H   0  0  0  0  0  0  0  0  0  0  0  0
  153.9605  143.5765  161.6661 H   0  0  0  0  0  0  0  0  0  0  0  0
  153.8849  141.8639  162.0751 H   0  0  0  0  0  0  0  0  0  0  0  0
  150.9418  145.3275  159.6981 H   0  0  0  0  0  0  0  0  0  0  0  0
  152.4793  145.2597  160.5570 H   0  0  0  0  0  0  0  0  0  0  0  0
  151.0261  144.5525  161.2790 H   0  0  0  0  0  0  0  0  0  0  0  0
  150.7153  143.8018  157.9148 H   0  0  0  0  0  0  0  0  0  0  0  0
  147.5768  140.7925  151.7321 H   0  0  0  0  0  0  0  0  0  0  0  0
  148.5504  139.3655  151.5398 H   0  0  0  0  0  0  0  0  0  0  0  0
  146.2124  138.7108  151.8172 H   0  0  0  0  0  0  0  0  0  0  0  0
  146.0611  139.5944  153.3147 H   0  0  0  0  0  0  0  0  0  0  0  0
  149.6531  140.7056  152.9967 H   0  0  0  0  0  0  0  0  0  0  0  0
  147.8251  137.3037  152.8380 H   0  0  0  0  0  0  0  0  0  0  0  0
  1  2  1  0  0  0  0
  1 26  1  0  0  0  0
  1 27  1  0  0  0  0
  1 28  1  0  0  0  0
  2  3  1  0  0  0  0
  3  4  1  0  0  0  0
  3 29  1  0  0  0  0
  3 30  1  0  0  0  0
  4  5  1  0  0  0  0
  4 31  1  0  0  0  0
  4 32  1  0  0  0  0
  5 25  1  0  0  0  0
  5  6  1  0  0  0  0
  5 57  1  0  0  0  0
  6  7  1  0  0  0  0
  6 33  1  0  0  0  0
  6 34  1  0  0  0  0
  7  8  1  0  0  0  0
  7 35  1  0  0  0  0
  7 36  1  0  0  0  0
  8  9  1  0  0  0  0
  8 24  1  0  0  0  0
  8 56  1  0  0  0  0
  9 10  1  0  0  0  0
  9 37  1  0  0  0  0
  9 38  1  0  0  0  0
 10 11  1  0  0  0  0
 10 12  1  0  0  0  0
 10 39  1  0  0  0  0
 11 40  1  0  0  0  0
 12 13  1  0  0  0  0
 12 41  1  0  0  0  0
 12 42  1  0  0  0  0
 13 23  1  0  0  0  0
 13 14  1  0  0  0  0
 14 15  2  0  0  0  0
 14 43  1  0  0  0  0
 15 16  1  0  0  0  0
 16 23  2  0  0  0  0
 16 17  1  0  0  0  0
 17 18  2  0  0  0  0
 17 44  1  0  0  0  0
 18 19  1  0  0  0  0
 18 20  1  0  0  0  0
 19 45  1  0  0  0  0
 19 46  1  0  0  0  0
 19 47  1  0  0  0  0
 20 21  1  0  0  0  0
 20 22  2  0  0  0  0
 21 48  1  0  0  0  0
 21 49  1  0  0  0  0
 21 50  1  0  0  0  0
 22 23  1  0  0  0  0
 22 51  1  0  0  0  0
 24 25  1  0  0  0  0
 24 52  1  0  0  0  0
 24 53  1  0  0  0  0
 25 54  1  0  0  0  0
 25 55  1  0  0  0  0
M  CHG  1   5   1
M  CHG  1   8   1
M  END
> <s_m_source_file>
AV-unprocessed.smi

> <i_m_source_file_index>
1007

> <i_lp_mmshare_version>
43012

> <i_f3d_flags>
0

> <s_epik_input>
W0NIM11PW0NIMl1bQ0gyXU4xW0NIMl1bQ0gyXU4oW0NIMl1bQ0gyXTEpW0NIMl1bQ0BIXShbT0hdKVtDSDJdbihbY0hdbjIpYyhjMjMpW2NIXWMoW0NIM10pYyhbY0hdMylbQ0gzXQ==

> <s_epik_cmdline>
J2VwaWtfcHl0aG9uJywgJy1waCcsICc3LjAnLCAnLXRuJywgJzgnLCAnLW1hJywgJzIwMCcsICctbWV0YWxfYmluZGluZycsICctaW1hZScsICc8aW5maWxlLm1hZT4nLCAnLW9tYWUnLCAnPG91dGZpbGUubWFlPic=

> <r_epik_Ionization_Penalty>
3.88944

> <r_epik_Ionization_Penalty_Charging>
3.80608

> <r_epik_Ionization_Penalty_Neutral>
0.0833653

> <r_epik_State_Penalty>
2.70739

> <r_epik_Charging_Adjusted_Penalty>
6.51347

> <i_epik_Tot_Q>
2

> <i_epik_Tot_abs_Q>
2

> <r_epik_Metal_State_Penalty>
2.62239

> <b_epik_Metal_Only>
0

> <s_lp_Force_Field>
OPLS_2005

> <r_lp_Energy>
30.4149

> <b_lp_Chiralities_Consistent>
1

> <s_lp_Variant>
AV-unprocessed.smi:1007-11

> <Gold.Version>
5.8.1

> <Gold.Id.Protein>
6NUR|6NUR_protein|mol2

> <Gold.PLP.Fitness>
55.1486

> <Gold.PLP.PLP>
-44.6409

> <Gold.PLP.part.hbond>
-3.8669

> <Gold.PLP.part.metal>
0.0000

> <Gold.PLP.part.buried>
-0.4234

> <Gold.PLP.part.nonpolar>
-39.5621

> <Gold.PLP.part.repulsive>
0.2184

> <Gold.PLP.ligand.clash>
0.0000

> <Gold.PLP.ligand.torsion>
1.0755

> <Gold.PLP.Chemscore.Hbond>
4.1440

> <Gold.PLP.Chemscore.CHOScore>
0.0000

> <Gold.PLP.Chemscore.Metal>
0.0000

> <Gold.Chemscore.Hbonds>
donor molecule, donor type, donor heavy atom, donor atom, acceptor molecule, acceptor atom, score
      L1  H     5    57       P1  7948  2.00
      L1  H     8    56       P1  7957  0.06
      L1  H    11    40       P1  8028  1.00
      P1  H  7997  8009       L1    15  0.99

> <Gold.PLP.Chemscore.Internal.Correction>
0.2267

> <Gold.Rescore>
     Score         DG    S(hbond)    S(metal)    S(lipo)     H(rot)  DE(clash)    DE(int)     intcor
     18.71     -21.89       2.27        0.00     133.14       2.63       2.08       1.11       ----

> <Gold.Chemscore.Fitness>
18.7119

> <Gold.Chemscore.DG>
-21.8926

> <Gold.Chemscore.ZeroCoef>
-5.4800

> <Gold.Chemscore.Hbond>
2.2696

> <Gold.Chemscore.Metal>
0.0000

> <Gold.Chemscore.Lipo>
133.1375

> <Gold.Chemscore.Internal_Hbond>
0.0000

> <Gold.Chemscore.DEClash>
2.0751

> <Gold.Chemscore.DEInternal>
1.1056

> <Gold.Chemscore.Rot>
2.6347

> <Gold.Chemscore.Internal.Correction>
   9.000000E+99

> <Gold.Chemscore.Hbonds>
donor molecule, donor type, donor heavy atom, donor atom, acceptor molecule, acceptor atom, score
      L1  H     5    57       P1  7948  1.00
      L1  H     8    56       P1  7957  0.09
      L1  H    11    40       P1  8028  0.83
      P1  H  7997  8009       L1    15  0.07

> <Gold.Chemscore.Hbond.Weighted>
-7.5803

> <Gold.Chemscore.Metal.Weighted>
-0.0000

> <Gold.Chemscore.Lipo.Weighted>
-15.5771

> <Gold.Chemscore.Internal_Hbond.Weighted>
0.0000

> <Gold.Chemscore.DEClash.Weighted>
2.0751

> <Gold.Chemscore.DEInternal.Weighted>
1.1056

> <Gold.Chemscore.Rot.Weighted>
6.7448

> <Gold.Chemscore.Internal.Correction.Weighted>
   9.000000E+99

> <Gold.Protein.RotatedTorsions>
[ 6907 6896 6895 6894 ] final   83.44 input  -60.11 | X-H torsion
[ 7974 7965 7964 7962 ] final  116.01 input  175.53 | X-H torsion
[ 8008 7997 7996 7995 ] final  164.28 input   59.86 | X-H torsion
[ 10167 10162 10161 10158 ] final  -53.96 input  -65.29 | X-H torsion
[ 10718 10713 10712 10709 ] final -137.77 input   66.30 | X-H torsion
[ 10763 10752 10751 10750 ] final   -8.50 input  -60.55 | X-H torsion
[ 11005 11000 10999 10996 ] final  -34.62 input  -57.11 | X-H torsion

> <Gold.Protein.ActiveResidues>
 VAL166  LYS551  ARG553  GLY616  TRP617  ASP618  TYR619  PRO620  LYS621  CYS622 
 ASP623  PHE694  ASN695  SER759  ASP760  ASP761  ALA762  ILE779  LEU786  VAL792 
 PHE793  MET794  SER795  GLU796  ALA797  LYS798  CYS799  TRP800  GLU811  SER814 

> <Gold.Protein.RotatedAtoms>
  152.5327  134.2895  159.9037 H   0  0  0  0  0  0  0  0  0  0  0  0  # atno 6907 bound_to 6896
  151.2847  133.4186  159.2637 H   0  0  0  0  0  0  0  0  0  0  0  0  # atno 6908 bound_to 6896
  151.0253  134.9515  159.8138 H   0  0  0  0  0  0  0  0  0  0  0  0  # atno 6909 bound_to 6896
  145.1849  139.3030  143.4398 H   0  0  0  0  0  0  0  0  0  0  0  0  # atno 7974 bound_to 7965
  156.1892  140.1701  156.8125 H   0  0  0  0  0  0  0  0  0  0  0  0  # atno 8008 bound_to 7997
  154.5451  140.0729  156.8607 H   0  0  0  0  0  0  0  0  0  0  0  0  # atno 8009 bound_to 7997
  155.3139  140.3369  155.4245 H   0  0  0  0  0  0  0  0  0  0  0  0  # atno 8010 bound_to 7997
  140.6457  143.2534  151.4867 H   0  0  0  0  0  0  0  0  0  0  0  0  # atno 10167 bound_to 10162
  156.2919  130.7379  151.1407 H   0  0  0  0  0  0  0  0  0  0  0  0  # atno 10718 bound_to 10713
  153.4414  135.7014  153.6167 H   0  0  0  0  0  0  0  0  0  0  0  0  # atno 10763 bound_to 10752
  153.4540  135.3751  155.2300 H   0  0  0  0  0  0  0  0  0  0  0  0  # atno 10764 bound_to 10752
  154.8727  135.4004  154.3813 H   0  0  0  0  0  0  0  0  0  0  0  0  # atno 10765 bound_to 10752
  140.9731  133.7098  156.1557 H   0  0  0  0  0  0  0  0  0  0  0  0  # atno 11005 bound_to 11000
  146.3446  140.2042  142.8589 LP  0  0  0  0  0  0  0  0  0  0  0  0  # atno 17320 bound_to 7965
  145.0099  140.8705  143.5231 LP  0  0  0  0  0  0  0  0  0  0  0  0  # atno 17321 bound_to 7965
  139.5667  144.2025  152.1776 LP  0  0  0  0  0  0  0  0  0  0  0  0  # atno 17342 bound_to 10162
  140.1309  144.5289  150.6803 LP  0  0  0  0  0  0  0  0  0  0  0  0  # atno 17343 bound_to 10162
  157.7344  131.0581  150.5523 LP  0  0  0  0  0  0  0  0  0  0  0  0  # atno 17370 bound_to 10713
  156.5640  130.4263  149.6050 LP  0  0  0  0  0  0  0  0  0  0  0  0  # atno 17371 bound_to 10713
  140.7299  134.4266  157.5567 LP  0  0  0  0  0  0  0  0  0  0  0  0  # atno 17394 bound_to 11000
  139.8920  134.8766  156.2293 LP  0  0  0  0  0  0  0  0  0  0  0  0  # atno 17395 bound_to 11000

$$$$
