AV-unprocessed.smi:1213|AV-procd|sdf|5091|dock1
  -GOLD-   22720 4143D 1   1.00000     0.00000
 Structure written by MMmdl.
 36 37  0  0  0  0  0  0  0  0  3 V2000
  146.7711  139.1429  151.0883 N   0  0  0  0  0  0  0  0  0  0  0  0
  146.5928  138.6727  152.3251 C   0  0  0  0  0  0  0  0  0  0  0  0
  145.5761  138.0644  152.6549 O   0  0  0  0  0  0  0  0  0  0  0  0
  147.7319  138.9042  153.3235 C   0  0  0  0  0  0  0  0  0  0  0  0
  148.2730  137.6433  153.8936 N   0  3  2  0  0  0  0  0  0  0  0  0
  147.2827  136.9097  154.7270 C   0  0  0  0  0  0  0  0  0  0  0  0
  147.8433  135.5547  155.1931 C   0  0  0  0  0  0  0  0  0  0  0  0
  149.1734  135.7182  155.9549 C   0  0  2  0  0  0  0  0  0  0  0  0
  148.9807  136.3827  157.2434 N   0  0  0  0  0  0  0  0  0  0  0  0
  148.8917  135.7880  158.4411 C   0  0  0  0  0  0  0  0  0  0  0  0
  148.9900  134.5624  158.5302 O   0  0  0  0  0  0  0  0  0  0  0  0
  148.6857  136.6549  159.4577 N   0  5  0  0  0  0  0  0  0  0  0  0
  148.1395  136.2260  160.6071 C   0  0  0  0  0  0  0  0  0  0  0  0
  147.8696  137.0392  161.6343 N   0  0  0  0  0  0  0  0  0  0  0  0
  147.2941  136.3838  162.7243 C   0  0  0  0  0  0  0  0  0  0  0  0
  147.1151  135.0415  162.5195 C   0  0  0  0  0  0  0  0  0  0  0  0
  147.6657  134.5577  160.9409 S   0  0  0  0  0  0  0  0  0  0  0  0
  150.1594  136.5209  155.0899 C   0  0  0  0  0  0  0  0  0  0  0  0
  149.5528  137.8557  154.6176 C   0  0  0  0  0  0  0  0  0  0  0  0
  146.0489  139.0133  150.3939 H   0  0  0  0  0  0  0  0  0  0  0  0
  147.6250  139.6250  150.8465 H   0  0  0  0  0  0  0  0  0  0  0  0
  148.5188  139.4281  152.7794 H   0  0  0  0  0  0  0  0  0  0  0  0
  147.4106  139.5696  154.1266 H   0  0  0  0  0  0  0  0  0  0  0  0
  147.0049  137.5195  155.5883 H   0  0  0  0  0  0  0  0  0  0  0  0
  146.3683  136.7382  154.1588 H   0  0  0  0  0  0  0  0  0  0  0  0
  147.1069  135.0381  155.8097 H   0  0  0  0  0  0  0  0  0  0  0  0
  148.0051  134.9170  154.3231 H   0  0  0  0  0  0  0  0  0  0  0  0
  149.6033  134.7326  156.1413 H   0  0  0  0  0  0  0  0  0  0  0  0
  148.9069  137.3892  157.2304 H   0  0  0  0  0  0  0  0  0  0  0  0
  147.0420  136.9528  163.6068 H   0  0  0  0  0  0  0  0  0  0  0  0
  146.6938  134.3122  163.1945 H   0  0  0  0  0  0  0  0  0  0  0  0
  151.0830  136.7032  155.6410 H   0  0  0  0  0  0  0  0  0  0  0  0
  150.4389  135.9268  154.2187 H   0  0  0  0  0  0  0  0  0  0  0  0
  150.2664  138.3566  153.9625 H   0  0  0  0  0  0  0  0  0  0  0  0
  149.3848  138.5204  155.4667 H   0  0  0  0  0  0  0  0  0  0  0  0
  148.4895  137.0494  153.1055 H   0  0  0  0  0  0  0  0  0  0  0  0
  1  2  1  0  0  0  0
  1 20  1  0  0  0  0
  1 21  1  0  0  0  0
  2  3  2  0  0  0  0
  2  4  1  0  0  0  0
  4  5  1  0  0  0  0
  4 22  1  0  0  0  0
  4 23  1  0  0  0  0
  5 19  1  0  0  0  0
  5  6  1  0  0  0  0
  5 36  1  0  0  0  0
  6  7  1  0  0  0  0
  6 24  1  0  0  0  0
  6 25  1  0  0  0  0
  7  8  1  0  0  0  0
  7 26  1  0  0  0  0
  7 27  1  0  0  0  0
  8  9  1  0  0  0  0
  8 18  1  0  0  0  0
  8 28  1  0  0  0  0
  9 10  1  0  0  0  0
  9 29  1  0  0  0  0
 10 11  2  0  0  0  0
 10 12  1  0  0  0  0
 12 13  1  0  0  0  0
 13 17  1  0  0  0  0
 13 14  2  0  0  0  0
 14 15  1  0  0  0  0
 15 16  2  0  0  0  0
 15 30  1  0  0  0  0
 16 17  1  0  0  0  0
 16 31  1  0  0  0  0
 18 19  1  0  0  0  0
 18 32  1  0  0  0  0
 18 33  1  0  0  0  0
 19 34  1  0  0  0  0
 19 35  1  0  0  0  0
M  CHG  1   5   1
M  CHG  1  12  -1
M  END
> <s_m_source_file>
AV-unprocessed.smi

> <i_m_source_file_index>
1213

> <i_lp_mmshare_version>
43012

> <i_f3d_flags>
0

> <s_epik_input>
W05IMl1DKD1PKVtDSDJdTjFbQ0gyXVtDSDJdW0NIXShbQ0gyXVtDSDJdMSlbTkhdQyg9TylbTkhdYzJuW2NIXVtjSF1zMg==

> <s_epik_cmdline>
J2VwaWtfcHl0aG9uJywgJy1waCcsICc3LjAnLCAnLXRuJywgJzgnLCAnLW1hJywgJzIwMCcsICctbWV0YWxfYmluZGluZycsICctaW1hZScsICc8aW5maWxlLm1hZT4nLCAnLW9tYWUnLCAnPG91dGZpbGUubWFlPic=

> <r_lp_tautomer_probability>
0.999

> <r_epik_Ionization_Penalty>
7.1168

> <r_epik_Ionization_Penalty_Charging>
6.25003

> <r_epik_Ionization_Penalty_Neutral>
0.866763

> <r_epik_State_Penalty>
6.33484

> <r_epik_Charging_Adjusted_Penalty>
12.5849

> <i_epik_Tot_Q>
0

> <i_epik_Tot_abs_Q>
2

> <r_epik_Metal_State_Penalty>
2.3501

> <b_epik_Metal_Only>
1

> <s_lp_Force_Field>
OPLS_2005

> <r_lp_Energy>
4.12503

> <b_lp_Chiralities_Consistent>
1

> <s_lp_Variant>
AV-unprocessed.smi:1213-8

> <Gold.Version>
5.8.1

> <Gold.Id.Protein>
6NUR|6NUR_protein|mol2

> <Gold.PLP.Fitness>
47.3964

> <Gold.PLP.PLP>
-29.7007

> <Gold.PLP.part.hbond>
-5.5911

> <Gold.PLP.part.metal>
0.0000

> <Gold.PLP.part.buried>
-3.4585

> <Gold.PLP.part.nonpolar>
-21.1942

> <Gold.PLP.part.repulsive>
0.7005

> <Gold.PLP.ligand.clash>
0.0000

> <Gold.PLP.ligand.torsion>
0.4404

> <Gold.PLP.Chemscore.Hbond>
6.1586

> <Gold.PLP.Chemscore.CHOScore>
0.0000

> <Gold.PLP.Chemscore.Metal>
0.0000

> <Gold.Chemscore.Hbonds>
donor molecule, donor type, donor heavy atom, donor atom, acceptor molecule, acceptor atom, score
      L1  H     1    20       P1 10171  0.42
      L1  H     1    21       P1  7957  1.00
      L1  H     5    36       P1  7948  2.00
      P1  H  6896  6908       L1    11  1.00
      P1  H  6931  6943       L1    14  1.00
      P1  H  6934  6947       L1    14  0.40

> <Gold.PLP.Chemscore.Internal.Correction>
0.1007

> <Gold.Rescore>
     Score         DG    S(hbond)    S(metal)    S(lipo)     H(rot)  DE(clash)    DE(int)     intcor
     17.01     -20.24       4.24        0.00      49.78       2.04       0.12       3.11       ----

> <Gold.Chemscore.Fitness>
17.0082

> <Gold.Chemscore.DG>
-20.2389

> <Gold.Chemscore.ZeroCoef>
-5.4800

> <Gold.Chemscore.Hbond>
4.2366

> <Gold.Chemscore.Metal>
0.0000

> <Gold.Chemscore.Lipo>
49.7768

> <Gold.Chemscore.Internal_Hbond>
0.0000

> <Gold.Chemscore.DEClash>
0.1225

> <Gold.Chemscore.DEInternal>
3.1081

> <Gold.Chemscore.Rot>
2.0373

> <Gold.Chemscore.Internal.Correction>
   9.000000E+99

> <Gold.Chemscore.Hbonds>
donor molecule, donor type, donor heavy atom, donor atom, acceptor molecule, acceptor atom, score
      L1  H     1    20       P1 10171  0.40
      L1  H     1    21       P1  7957  0.62
      L1  H     5    36       P1  7948  0.95
      P1  H  6896  6908       L1    11  0.40
      P1  H  6931  6943       L1    14  0.87
      P1  H  6934  6947       L1    14  0.32

> <Gold.Chemscore.Hbond.Weighted>
-14.1504

> <Gold.Chemscore.Metal.Weighted>
-0.0000

> <Gold.Chemscore.Lipo.Weighted>
-5.8239

> <Gold.Chemscore.Internal_Hbond.Weighted>
0.0000

> <Gold.Chemscore.DEClash.Weighted>
0.1225

> <Gold.Chemscore.DEInternal.Weighted>
3.1081

> <Gold.Chemscore.Rot.Weighted>
5.2154

> <Gold.Chemscore.Internal.Correction.Weighted>
   9.000000E+99

> <Gold.Protein.RotatedTorsions>
[ 6907 6896 6895 6894 ] final  154.19 input  -60.11 | X-H torsion
[ 7974 7965 7964 7962 ] final   86.82 input  175.53 | X-H torsion
[ 8008 7997 7996 7995 ] final  145.77 input   59.86 | X-H torsion
[ 10167 10162 10161 10158 ] final   95.06 input  -65.29 | X-H torsion
[ 10718 10713 10712 10709 ] final -106.85 input   66.30 | X-H torsion
[ 10763 10752 10751 10750 ] final   90.54 input  -60.55 | X-H torsion
[ 11005 11000 10999 10996 ] final    5.02 input  -57.11 | X-H torsion

> <Gold.Protein.ActiveResidues>
 VAL166  LYS551  ARG553  GLY616  TRP617  ASP618  TYR619  PRO620  LYS621  CYS622 
 ASP623  PHE694  ASN695  SER759  ASP760  ASP761  ALA762  ILE779  LEU786  VAL792 
 PHE793  MET794  SER795  GLU796  ALA797  LYS798  CYS799  TRP800  GLU811  SER814 

> <Gold.Protein.RotatedAtoms>
  152.0620  133.4066  159.4421 H   0  0  0  0  0  0  0  0  0  0  0  0  # atno 6907 bound_to 6896
  150.6866  134.3190  159.4787 H   0  0  0  0  0  0  0  0  0  0  0  0  # atno 6908 bound_to 6896
  152.1012  134.9340  160.0620 H   0  0  0  0  0  0  0  0  0  0  0  0  # atno 6909 bound_to 6896
  145.5672  139.2310  143.2426 H   0  0  0  0  0  0  0  0  0  0  0  0  # atno 7974 bound_to 7965
  156.2874  140.2200  156.5269 H   0  0  0  0  0  0  0  0  0  0  0  0  # atno 8008 bound_to 7997
  154.7482  140.0482  157.0892 H   0  0  0  0  0  0  0  0  0  0  0  0  # atno 8009 bound_to 7997
  155.0144  140.3117  155.4820 H   0  0  0  0  0  0  0  0  0  0  0  0  # atno 8010 bound_to 7997
  139.8024  144.6808  150.9747 H   0  0  0  0  0  0  0  0  0  0  0  0  # atno 10167 bound_to 10162
  156.0409  130.5633  150.7739 H   0  0  0  0  0  0  0  0  0  0  0  0  # atno 10718 bound_to 10713
  153.1986  135.4430  155.0239 H   0  0  0  0  0  0  0  0  0  0  0  0  # atno 10763 bound_to 10752
  154.8134  135.3304  154.7247 H   0  0  0  0  0  0  0  0  0  0  0  0  # atno 10764 bound_to 10752
  153.7694  135.6986  153.4965 H   0  0  0  0  0  0  0  0  0  0  0  0  # atno 10765 bound_to 10752
  140.5754  134.0063  155.8025 H   0  0  0  0  0  0  0  0  0  0  0  0  # atno 11005 bound_to 11000
  146.1810  140.6498  142.9189 LP  0  0  0  0  0  0  0  0  0  0  0  0  # atno 17320 bound_to 7965
  144.7455  140.5055  143.6839 LP  0  0  0  0  0  0  0  0  0  0  0  0  # atno 17321 bound_to 7965
  140.7820  143.4267  151.0757 LP  0  0  0  0  0  0  0  0  0  0  0  0  # atno 17342 bound_to 10162
  139.7939  143.8180  152.3155 LP  0  0  0  0  0  0  0  0  0  0  0  0  # atno 17343 bound_to 10162
  157.5225  131.0932  151.0060 LP  0  0  0  0  0  0  0  0  0  0  0  0  # atno 17370 bound_to 10713
  157.0387  130.5740  149.5353 LP  0  0  0  0  0  0  0  0  0  0  0  0  # atno 17371 bound_to 10713
  141.1030  133.9738  157.3046 LP  0  0  0  0  0  0  0  0  0  0  0  0  # atno 17394 bound_to 11000
  139.9342  135.0198  156.8501 LP  0  0  0  0  0  0  0  0  0  0  0  0  # atno 17395 bound_to 11000

$$$$
