AV-unprocessed.smi:2507|AV-procd|sdf|9863|dock10
  -GOLD-   2272013493D 1   1.00000     0.00000
 Structure written by MMmdl.
 44 45  0  0  0  0  0  0  0  0  1 V2000
  142.1807  135.6449  153.5644 C   0  0  0  0  0  0  0  0  0  0  0  0
  143.6576  135.2404  153.6340 C   0  0  0  0  0  0  0  0  0  0  0  0
  144.1542  134.6878  152.3260 C   0  0  0  0  0  0  0  0  0  0  0  0
  143.5034  133.6917  151.7399 N   0  0  0  0  0  0  0  0  0  0  0  0
  144.1926  133.4365  150.6023 N   0  0  0  0  0  0  0  0  0  0  0  0
  143.7373  132.3849  149.7186 C   0  0  0  0  0  0  0  0  0  0  0  0
  145.2853  134.2658  150.4557 C   0  0  0  0  0  0  0  0  0  0  0  0
  145.2812  135.0798  151.5531 C   0  0  0  0  0  0  0  0  0  0  0  0
  146.1861  136.1157  151.9015 N   0  0  0  0  0  0  0  0  0  0  0  0
  145.8962  137.2925  152.4800 C   0  0  0  0  0  0  0  0  0  0  0  0
  144.7722  137.6529  152.8303 O   0  0  0  0  0  0  0  0  0  0  0  0
  146.9944  138.0438  152.6339 N   0  0  0  0  0  0  0  0  0  0  0  0
  147.0038  139.3745  153.2260 C   0  0  0  0  0  0  0  0  0  0  0  0
  148.4256  139.9551  153.2317 C   0  0  0  0  0  0  0  0  0  0  0  0
  149.0369  140.0217  154.6405 C   0  0  2  0  0  0  0  0  0  0  0  0
  148.4778  141.2028  155.4579 C   0  0  0  0  0  0  0  0  0  0  0  0
  149.1650  141.2851  156.8257 C   0  0  0  0  0  0  0  0  0  0  0  0
  150.6856  141.3142  156.6396 C   0  0  0  0  0  0  0  0  0  0  0  0
  151.1392  140.1396  155.7582 C   0  0  0  0  0  0  0  0  0  0  0  0
  150.4496  140.1725  154.5124 O   0  0  0  0  0  0  0  0  0  0  0  0
  141.8437  136.0492  154.5190 H   0  0  0  0  0  0  0  0  0  0  0  0
  141.5488  134.7891  153.3248 H   0  0  0  0  0  0  0  0  0  0  0  0
  142.0170  136.4076  152.8024 H   0  0  0  0  0  0  0  0  0  0  0  0
  144.2541  136.1053  153.9250 H   0  0  0  0  0  0  0  0  0  0  0  0
  143.7936  134.5030  154.4258 H   0  0  0  0  0  0  0  0  0  0  0  0
  144.3575  132.3551  148.8224 H   0  0  0  0  0  0  0  0  0  0  0  0
  142.7027  132.5682  149.4267 H   0  0  0  0  0  0  0  0  0  0  0  0
  143.8021  131.4227  150.2276 H   0  0  0  0  0  0  0  0  0  0  0  0
  145.9460  134.1985  149.6041 H   0  0  0  0  0  0  0  0  0  0  0  0
  147.1547  135.9482  151.6719 H   0  0  0  0  0  0  0  0  0  0  0  0
  147.8797  137.6727  152.3216 H   0  0  0  0  0  0  0  0  0  0  0  0
  146.3373  140.0303  152.6631 H   0  0  0  0  0  0  0  0  0  0  0  0
  146.6141  139.3137  154.2431 H   0  0  0  0  0  0  0  0  0  0  0  0
  149.0707  139.3624  152.5815 H   0  0  0  0  0  0  0  0  0  0  0  0
  148.3987  140.9589  152.8056 H   0  0  0  0  0  0  0  0  0  0  0  0
  148.8205  139.0878  155.1627 H   0  0  0  0  0  0  0  0  0  0  0  0
  148.6357  142.1349  154.9140 H   0  0  0  0  0  0  0  0  0  0  0  0
  147.4005  141.0965  155.5896 H   0  0  0  0  0  0  0  0  0  0  0  0
  148.8303  142.1697  157.3680 H   0  0  0  0  0  0  0  0  0  0  0  0
  148.8852  140.4211  157.4299 H   0  0  0  0  0  0  0  0  0  0  0  0
  150.9795  142.2546  156.1721 H   0  0  0  0  0  0  0  0  0  0  0  0
  151.1858  141.2755  157.6076 H   0  0  0  0  0  0  0  0  0  0  0  0
  152.2106  140.2057  155.5685 H   0  0  0  0  0  0  0  0  0  0  0  0
  150.9630  139.1859  156.2578 H   0  0  0  0  0  0  0  0  0  0  0  0
  1  2  1  0  0  0  0
  1 21  1  0  0  0  0
  1 22  1  0  0  0  0
  1 23  1  0  0  0  0
  2  3  1  0  0  0  0
  2 24  1  0  0  0  0
  2 25  1  0  0  0  0
  3  8  1  0  0  0  0
  3  4  2  0  0  0  0
  4  5  1  0  0  0  0
  5  6  1  0  0  0  0
  5  7  1  0  0  0  0
  6 26  1  0  0  0  0
  6 27  1  0  0  0  0
  6 28  1  0  0  0  0
  7  8  2  0  0  0  0
  7 29  1  0  0  0  0
  8  9  1  0  0  0  0
  9 10  1  0  0  0  0
  9 30  1  0  0  0  0
 10 11  2  0  0  0  0
 10 12  1  0  0  0  0
 12 13  1  0  0  0  0
 12 31  1  0  0  0  0
 13 14  1  0  0  0  0
 13 32  1  0  0  0  0
 13 33  1  0  0  0  0
 14 15  1  0  0  0  0
 14 34  1  0  0  0  0
 14 35  1  0  0  0  0
 15 20  1  0  0  0  0
 15 16  1  0  0  0  0
 15 36  1  0  0  0  0
 16 17  1  0  0  0  0
 16 37  1  0  0  0  0
 16 38  1  0  0  0  0
 17 18  1  0  0  0  0
 17 39  1  0  0  0  0
 17 40  1  0  0  0  0
 18 19  1  0  0  0  0
 18 41  1  0  0  0  0
 18 42  1  0  0  0  0
 19 20  1  0  0  0  0
 19 43  1  0  0  0  0
 19 44  1  0  0  0  0
M  END
> <s_m_source_file>
AV-unprocessed.smi

> <i_m_source_file_index>
2507

> <i_lp_mmshare_version>
43012

> <i_f3d_flags>
0

> <s_epik_input>
W0NIM11bQ0gyXWMxbm4oW0NIM10pW2NIXWMxW05IXUMoPU8pW05IXVtDSDJdW0NIMl1bQ0BASF0yW0NIMl1bQ0gyXVtDSDJdW0NIMl1PMg==

> <s_epik_cmdline>
J2VwaWtfcHl0aG9uJywgJy1waCcsICc3LjAnLCAnLXRuJywgJzgnLCAnLW1hJywgJzIwMCcsICctbWV0YWxfYmluZGluZycsICctaW1hZScsICc8aW5maWxlLm1hZT4nLCAnLW9tYWUnLCAnPG91dGZpbGUubWFlPic=

> <r_lp_tautomer_probability>
1

> <r_epik_Ionization_Penalty>
0.00072031

> <r_epik_Ionization_Penalty_Charging>
0

> <r_epik_Ionization_Penalty_Neutral>
0.00072031

> <r_epik_State_Penalty>
-0

> <r_epik_Charging_Adjusted_Penalty>
0

> <i_epik_Tot_Q>
0

> <i_epik_Tot_abs_Q>
0

> <r_epik_Metal_State_Penalty>
-0

> <b_epik_Metal_Only>
0

> <s_lp_Force_Field>
OPLS_2005

> <r_lp_Energy>
7.60695

> <b_lp_Chiralities_Consistent>
1

> <s_lp_Variant>
AV-unprocessed.smi:2507-1

> <Gold.Version>
5.8.1

> <Gold.Id.Protein>
6NUR|6NUR_protein|mol2

> <Gold.PLP.Fitness>
43.2745

> <Gold.PLP.PLP>
-32.8714

> <Gold.PLP.part.hbond>
-3.0000

> <Gold.PLP.part.metal>
0.0000

> <Gold.PLP.part.buried>
-0.7135

> <Gold.PLP.part.nonpolar>
-31.1030

> <Gold.PLP.part.repulsive>
1.4381

> <Gold.PLP.ligand.clash>
0.0000

> <Gold.PLP.ligand.torsion>
0.8190

> <Gold.PLP.Chemscore.Hbond>
3.0000

> <Gold.PLP.Chemscore.CHOScore>
1.0000

> <Gold.PLP.Chemscore.Metal>
0.0000

> <Gold.Chemscore.Hbonds>
donor molecule, donor type, donor heavy atom, donor atom, acceptor molecule, acceptor atom, score
      L1  H     9    30       P1  7948  1.00
      L1  H    12    31       P1  7948  1.00
      P1  H  7989  7998       L1    20  1.00
      L1  C     7    29       P1  7921  1.00

> <Gold.PLP.Chemscore.Internal.Correction>
0.0412

> <Gold.Rescore>
     Score         DG    S(hbond)    S(metal)    S(lipo)     H(rot)  DE(clash)    DE(int)     intcor
     16.74     -19.38       2.81        0.00      71.44       1.50       1.75       0.89       ----

> <Gold.Chemscore.Fitness>
16.7437

> <Gold.Chemscore.DG>
-19.3848

> <Gold.Chemscore.ZeroCoef>
-5.4800

> <Gold.Chemscore.Hbond>
2.8133

> <Gold.Chemscore.Metal>
0.0000

> <Gold.Chemscore.Lipo>
71.4449

> <Gold.Chemscore.Internal_Hbond>
0.0000

> <Gold.Chemscore.DEClash>
1.7509

> <Gold.Chemscore.DEInternal>
0.8902

> <Gold.Chemscore.Rot>
1.5042

> <Gold.Chemscore.Internal.Correction>
   9.000000E+99

> <Gold.Chemscore.Hbonds>
donor molecule, donor type, donor heavy atom, donor atom, acceptor molecule, acceptor atom, score
      L1  H     9    30       P1  7948  0.98
      L1  H    12    31       P1  7948  0.95
      P1  H  7989  7998       L1    20  0.34

> <Gold.Chemscore.Hbond.Weighted>
-9.3965

> <Gold.Chemscore.Metal.Weighted>
-0.0000

> <Gold.Chemscore.Lipo.Weighted>
-8.3591

> <Gold.Chemscore.Internal_Hbond.Weighted>
0.0000

> <Gold.Chemscore.DEClash.Weighted>
1.7509

> <Gold.Chemscore.DEInternal.Weighted>
0.8902

> <Gold.Chemscore.Rot.Weighted>
3.8507

> <Gold.Chemscore.Internal.Correction.Weighted>
   9.000000E+99

> <Gold.Protein.RotatedTorsions>
[ 6907 6896 6895 6894 ] final  173.03 input  -60.11 | X-H torsion
[ 7974 7965 7964 7962 ] final   41.71 input  175.53 | X-H torsion
[ 8008 7997 7996 7995 ] final -111.71 input   59.86 | X-H torsion
[ 10167 10162 10161 10158 ] final -104.94 input  -65.29 | X-H torsion
[ 10718 10713 10712 10709 ] final   59.79 input   66.30 | X-H torsion
[ 10763 10752 10751 10750 ] final  140.62 input  -60.55 | X-H torsion
[ 11005 11000 10999 10996 ] final  175.81 input  -57.11 | X-H torsion

> <Gold.Protein.ActiveResidues>
 VAL166  LYS551  ARG553  GLY616  TRP617  ASP618  TYR619  PRO620  LYS621  CYS622 
 ASP623  PHE694  ASN695  SER759  ASP760  ASP761  ALA762  ILE779  LEU786  VAL792 
 PHE793  MET794  SER795  GLU796  ALA797  LYS798  CYS799  TRP800  GLU811  SER814 

> <Gold.Protein.RotatedAtoms>
  151.7748  133.3344  159.3454 H   0  0  0  0  0  0  0  0  0  0  0  0  # atno 6907 bound_to 6896
  150.7448  134.5985  159.6033 H   0  0  0  0  0  0  0  0  0  0  0  0  # atno 6908 bound_to 6896
  152.3316  134.7253  160.0339 H   0  0  0  0  0  0  0  0  0  0  0  0  # atno 6909 bound_to 6896
  146.0800  139.5384  142.9543 H   0  0  0  0  0  0  0  0  0  0  0  0  # atno 7974 bound_to 7965
  154.9941  140.0395  157.2332 H   0  0  0  0  0  0  0  0  0  0  0  0  # atno 8008 bound_to 7997
  154.7602  140.2783  155.6197 H   0  0  0  0  0  0  0  0  0  0  0  0  # atno 8009 bound_to 7997
  156.2902  140.2630  156.2379 H   0  0  0  0  0  0  0  0  0  0  0  0  # atno 8010 bound_to 7997
  140.2039  143.3797  152.1107 H   0  0  0  0  0  0  0  0  0  0  0  0  # atno 10167 bound_to 10162
  157.5703  130.8902  149.9255 H   0  0  0  0  0  0  0  0  0  0  0  0  # atno 10718 bound_to 10713
  153.9257  135.2995  155.3447 H   0  0  0  0  0  0  0  0  0  0  0  0  # atno 10763 bound_to 10752
  154.7552  135.4961  153.9365 H   0  0  0  0  0  0  0  0  0  0  0  0  # atno 10764 bound_to 10752
  153.1118  135.6761  153.9591 H   0  0  0  0  0  0  0  0  0  0  0  0  # atno 10765 bound_to 10752
  140.3663  134.7069  157.4363 H   0  0  0  0  0  0  0  0  0  0  0  0  # atno 11005 bound_to 11000
  145.6234  141.0318  143.1902 LP  0  0  0  0  0  0  0  0  0  0  0  0  # atno 17320 bound_to 7965
  144.7287  139.7793  143.7355 LP  0  0  0  0  0  0  0  0  0  0  0  0  # atno 17321 bound_to 7965
  139.5206  144.7035  151.5423 LP  0  0  0  0  0  0  0  0  0  0  0  0  # atno 17342 bound_to 10162
  140.6371  143.8962  150.6657 LP  0  0  0  0  0  0  0  0  0  0  0  0  # atno 17343 bound_to 10162
  156.0748  130.3680  150.0700 LP  0  0  0  0  0  0  0  0  0  0  0  0  # atno 17370 bound_to 10713
  156.8853  130.9570  151.3595 LP  0  0  0  0  0  0  0  0  0  0  0  0  # atno 17371 bound_to 10713
  140.0587  134.6027  155.8774 LP  0  0  0  0  0  0  0  0  0  0  0  0  # atno 17394 bound_to 11000
  141.1968  133.6593  156.5712 LP  0  0  0  0  0  0  0  0  0  0  0  0  # atno 17395 bound_to 11000

$$$$
