AV-unprocessed.smi:7|AV-procd|sdf|43|dock5
  -GOLD-   2262015163D 1   1.00000     0.00000
 Structure written by MMmdl.
 45 48  0  0  0  0  0  0  0  0  1 V2000
  151.9459  133.8628  156.9111 O   0  0  0  0  0  0  0  0  0  0  0  0
  151.0494  133.8501  156.0669 C   0  0  0  0  0  0  0  0  0  0  0  0
  150.4559  132.5912  155.5585 C   0  0  0  0  0  0  0  0  0  0  0  0
  150.7475  131.2623  155.8648 N   0  0  0  0  0  0  0  0  0  0  0  0
  149.8925  130.5874  155.0971 C   0  0  0  0  0  0  0  0  0  0  0  0
  149.1003  131.3735  154.3444 N   0  0  0  0  0  0  0  0  0  0  0  0
  148.1271  130.8089  153.4886 C   0  0  0  0  0  0  0  0  0  0  0  0
  147.1057  131.6096  152.9297 C   0  0  0  0  0  0  0  0  0  0  0  0
  146.1386  131.0329  152.0832 C   0  0  0  0  0  0  0  0  0  0  0  0
  146.1872  129.6559  151.7918 C   0  0  0  0  0  0  0  0  0  0  0  0
  147.2025  128.8543  152.3484 C   0  0  0  0  0  0  0  0  0  0  0  0
  148.1695  129.4288  153.1961 C   0  0  0  0  0  0  0  0  0  0  0  0
  149.4526  132.6841  154.6332 C   0  0  0  0  0  0  0  0  0  0  0  0
  148.8963  133.8147  154.0802 N   0  0  0  0  0  0  0  0  0  0  0  0
  149.4454  134.9077  154.5429 C   0  0  0  0  0  0  0  0  0  0  0  0
  150.4996  134.9677  155.5037 N   0  0  0  0  0  0  0  0  0  0  0  0
  150.9683  136.3110  155.8788 C   0  0  0  0  0  0  0  0  0  0  0  0
  150.7565  137.3405  154.7396 C   0  0  2  0  0  0  0  0  0  0  0  0
  151.8043  137.1596  153.8039 O   0  0  0  0  0  0  0  0  0  0  0  0
  150.7618  138.8171  155.2242 C   0  0  0  0  0  0  0  0  0  0  0  0
  150.3252  139.6280  154.1468 O   0  0  0  0  0  0  0  0  0  0  0  0
  149.8423  139.1091  156.4250 C   0  0  0  0  0  0  0  0  0  0  0  0
  150.4434  140.3513  157.0799 C   0  0  0  0  0  0  0  0  0  0  0  0
  151.9526  140.1567  156.9342 C   0  0  0  0  0  0  0  0  0  0  0  0
  152.1550  139.3514  155.6411 C   0  0  0  0  0  0  0  0  0  0  0  0
  149.8430  129.5080  155.0956 H   0  0  0  0  0  0  0  0  0  0  0  0
  147.0550  132.6656  153.1520 H   0  0  0  0  0  0  0  0  0  0  0  0
  145.3581  131.6472  151.6589 H   0  0  0  0  0  0  0  0  0  0  0  0
  145.4453  129.2146  151.1425 H   0  0  0  0  0  0  0  0  0  0  0  0
  147.2404  127.7981  152.1253 H   0  0  0  0  0  0  0  0  0  0  0  0
  148.9464  128.8074  153.6171 H   0  0  0  0  0  0  0  0  0  0  0  0
  149.1069  135.8884  154.2045 H   0  0  0  0  0  0  0  0  0  0  0  0
  150.4217  136.6196  156.7711 H   0  0  0  0  0  0  0  0  0  0  0  0
  152.0114  136.3021  156.2020 H   0  0  0  0  0  0  0  0  0  0  0  0
  149.8119  137.1483  154.2279 H   0  0  0  0  0  0  0  0  0  0  0  0
  151.4235  136.9471  152.9655 H   0  0  0  0  0  0  0  0  0  0  0  0
  149.3943  139.5076  154.0390 H   0  0  0  0  0  0  0  0  0  0  0  0
  148.7975  139.2473  156.1427 H   0  0  0  0  0  0  0  0  0  0  0  0
  149.8757  138.2871  157.1408 H   0  0  0  0  0  0  0  0  0  0  0  0
  150.1315  141.2439  156.5359 H   0  0  0  0  0  0  0  0  0  0  0  0
  150.1344  140.4699  158.1188 H   0  0  0  0  0  0  0  0  0  0  0  0
  152.4913  141.1048  156.9226 H   0  0  0  0  0  0  0  0  0  0  0  0
  152.3262  139.5795  157.7811 H   0  0  0  0  0  0  0  0  0  0  0  0
  152.8685  138.5479  155.8249 H   0  0  0  0  0  0  0  0  0  0  0  0
  152.5989  139.9737  154.8621 H   0  0  0  0  0  0  0  0  0  0  0  0
  1  2  2  0  0  0  0
  2 16  1  0  0  0  0
  2  3  1  0  0  0  0
  3 13  2  0  0  0  0
  3  4  1  0  0  0  0
  4  5  2  0  0  0  0
  5  6  1  0  0  0  0
  5 26  1  0  0  0  0
  6  7  1  0  0  0  0
  6 13  1  0  0  0  0
  7 12  1  0  0  0  0
  7  8  2  0  0  0  0
  8  9  1  0  0  0  0
  8 27  1  0  0  0  0
  9 10  2  0  0  0  0
  9 28  1  0  0  0  0
 10 11  1  0  0  0  0
 10 29  1  0  0  0  0
 11 12  2  0  0  0  0
 11 30  1  0  0  0  0
 12 31  1  0  0  0  0
 13 14  1  0  0  0  0
 14 15  2  0  0  0  0
 15 16  1  0  0  0  0
 15 32  1  0  0  0  0
 16 17  1  0  0  0  0
 17 18  1  0  0  0  0
 17 33  1  0  0  0  0
 17 34  1  0  0  0  0
 18 19  1  0  0  0  0
 18 20  1  0  0  0  0
 18 35  1  0  0  0  0
 19 36  1  0  0  0  0
 20 25  1  0  0  0  0
 20 21  1  0  0  0  0
 20 22  1  0  0  0  0
 21 37  1  0  0  0  0
 22 23  1  0  0  0  0
 22 38  1  0  0  0  0
 22 39  1  0  0  0  0
 23 24  1  0  0  0  0
 23 40  1  0  0  0  0
 23 41  1  0  0  0  0
 24 25  1  0  0  0  0
 24 42  1  0  0  0  0
 24 43  1  0  0  0  0
 25 44  1  0  0  0  0
 25 45  1  0  0  0  0
M  END
> <s_m_source_file>
AV-unprocessed.smi

> <i_m_source_file_index>
7

> <i_lp_mmshare_version>
43012

> <i_f3d_flags>
0

> <s_epik_input>
W0NIMl0xW0NIMl1bQ0gyXVtDSDJdQzEoW09IXSlbQ0BASF0oW09IXSlbQ0gyXW4oYzI9TylbY0hdbmMoYzIzKW4oW2NIXW4zKS1jNFtjSF1bY0hdW2NIXVtjSF1bY0hdNA==

> <s_epik_cmdline>
J2VwaWtfcHl0aG9uJywgJy1waCcsICc3LjAnLCAnLXRuJywgJzgnLCAnLW1hJywgJzIwMCcsICctbWV0YWxfYmluZGluZycsICctaW1hZScsICc8aW5maWxlLm1hZT4nLCAnLW9tYWUnLCAnPG91dGZpbGUubWFlPic=

> <r_lp_tautomer_probability>
1

> <r_epik_Ionization_Penalty>
0.000116694

> <r_epik_Ionization_Penalty_Charging>
6.60428e-09

> <r_epik_Ionization_Penalty_Neutral>
0.000116688

> <r_epik_State_Penalty>
-0

> <r_epik_Charging_Adjusted_Penalty>
6.60428e-09

> <i_epik_Tot_Q>
0

> <i_epik_Tot_abs_Q>
0

> <r_epik_Metal_State_Penalty>
-0

> <b_epik_Metal_Only>
0

> <s_lp_Force_Field>
OPLS_2005

> <r_lp_Energy>
55.7438

> <b_lp_Chiralities_Consistent>
1

> <s_lp_Variant>
AV-unprocessed.smi:7-1

> <Gold.Version>
5.8.1

> <Gold.Id.Protein>
6NUR|6NUR_protein|mol2

> <Gold.PLP.Fitness>
54.0691

> <Gold.PLP.PLP>
-44.0538

> <Gold.PLP.part.hbond>
-5.0000

> <Gold.PLP.part.metal>
0.0000

> <Gold.PLP.part.buried>
-4.5955

> <Gold.PLP.part.nonpolar>
-35.3279

> <Gold.PLP.part.repulsive>
0.1549

> <Gold.PLP.ligand.clash>
0.0000

> <Gold.PLP.ligand.torsion>
0.8090

> <Gold.PLP.Chemscore.Hbond>
3.0998

> <Gold.PLP.Chemscore.CHOScore>
0.7738

> <Gold.PLP.Chemscore.Metal>
0.0000

> <Gold.Chemscore.Hbonds>
donor molecule, donor type, donor heavy atom, donor atom, acceptor molecule, acceptor atom, score
      L1  H    19    36       P1  7949  1.00
      P1  H  6896  6907       L1     1  0.02
      P1  H  7989  7998       L1    21  1.00
      P1  H 10752 10765       L1    19  1.00
      L1  C    15    32       P1  7948  0.73

> <Gold.PLP.Chemscore.Internal.Correction>
0.0123

> <Gold.Rescore>
     Score         DG    S(hbond)    S(metal)    S(lipo)     H(rot)  DE(clash)    DE(int)     intcor
     17.08     -18.46       3.09        0.00      83.80       2.79       0.02       1.35       ----

> <Gold.Chemscore.Fitness>
17.0818

> <Gold.Chemscore.DG>
-18.4594

> <Gold.Chemscore.ZeroCoef>
-5.4800

> <Gold.Chemscore.Hbond>
3.0861

> <Gold.Chemscore.Metal>
0.0000

> <Gold.Chemscore.Lipo>
83.7957

> <Gold.Chemscore.Internal_Hbond>
0.0000

> <Gold.Chemscore.DEClash>
0.0231

> <Gold.Chemscore.DEInternal>
1.3545

> <Gold.Chemscore.Rot>
2.7860

> <Gold.Chemscore.Internal.Correction>
   9.000000E+99

> <Gold.Chemscore.Hbonds>
donor molecule, donor type, donor heavy atom, donor atom, acceptor molecule, acceptor atom, score
      L1  H    19    36       P1  7949  0.84
      P1  H  6896  6907       L1     1  0.04
      P1  H  7989  7998       L1    21  0.90
      P1  H 10752 10765       L1    19  0.33

> <Gold.Chemscore.Hbond.Weighted>
-10.3075

> <Gold.Chemscore.Metal.Weighted>
-0.0000

> <Gold.Chemscore.Lipo.Weighted>
-9.8041

> <Gold.Chemscore.Internal_Hbond.Weighted>
0.0000

> <Gold.Chemscore.DEClash.Weighted>
0.0231

> <Gold.Chemscore.DEInternal.Weighted>
1.3545

> <Gold.Chemscore.Rot.Weighted>
7.1322

> <Gold.Chemscore.Internal.Correction.Weighted>
   9.000000E+99

> <Gold.Protein.RotatedTorsions>
[ 6907 6896 6895 6894 ] final -166.08 input  -60.11 | X-H torsion
[ 7974 7965 7964 7962 ] final  -58.38 input  175.53 | X-H torsion
[ 8008 7997 7996 7995 ] final   41.96 input   59.86 | X-H torsion
[ 10167 10162 10161 10158 ] final  169.71 input  -65.29 | X-H torsion
[ 10718 10713 10712 10709 ] final  170.80 input   66.30 | X-H torsion
[ 10763 10752 10751 10750 ] final  148.06 input  -60.55 | X-H torsion
[ 11005 11000 10999 10996 ] final  -64.34 input  -57.11 | X-H torsion

> <Gold.Protein.ActiveResidues>
 VAL166  LYS551  ARG553  GLY616  TRP617  ASP618  TYR619  PRO620  LYS621  CYS622 
 ASP623  PHE694  ASN695  SER759  ASP760  ASP761  ALA762  ILE779  LEU786  VAL792 
 PHE793  MET794  SER795  GLU796  ALA797  LYS798  CYS799  TRP800  GLU811  SER814 

> <Gold.Protein.RotatedAtoms>
  151.4379  133.3651  159.2777 H   0  0  0  0  0  0  0  0  0  0  0  0  # atno 6907 bound_to 6896
  150.9178  134.8597  159.7479 H   0  0  0  0  0  0  0  0  0  0  0  0  # atno 6908 bound_to 6896
  152.4966  134.4315  159.9565 H   0  0  0  0  0  0  0  0  0  0  0  0  # atno 6909 bound_to 6896
  145.8400  140.8423  143.0039 H   0  0  0  0  0  0  0  0  0  0  0  0  # atno 7974 bound_to 7965
  155.2783  140.3370  155.4260 H   0  0  0  0  0  0  0  0  0  0  0  0  # atno 8008 bound_to 7997
  156.2101  140.1766  156.7754 H   0  0  0  0  0  0  0  0  0  0  0  0  # atno 8009 bound_to 7997
  154.5675  140.0676  156.8898 H   0  0  0  0  0  0  0  0  0  0  0  0  # atno 8010 bound_to 7997
  139.4999  144.3676  151.9759 H   0  0  0  0  0  0  0  0  0  0  0  0  # atno 10167 bound_to 10162
  157.0028  131.0181  151.2825 H   0  0  0  0  0  0  0  0  0  0  0  0  # atno 10718 bound_to 10713
  154.0485  135.2883  155.3344 H   0  0  0  0  0  0  0  0  0  0  0  0  # atno 10763 bound_to 10752
  154.6884  135.5236  153.8361 H   0  0  0  0  0  0  0  0  0  0  0  0  # atno 10764 bound_to 10752
  153.0570  135.6599  154.0683 H   0  0  0  0  0  0  0  0  0  0  0  0  # atno 10765 bound_to 10752
  141.1422  133.6664  156.5818 H   0  0  0  0  0  0  0  0  0  0  0  0  # atno 11005 bound_to 11000
  144.6734  140.0798  143.7470 LP  0  0  0  0  0  0  0  0  0  0  0  0  # atno 17320 bound_to 7965
  145.9476  139.2711  143.1231 LP  0  0  0  0  0  0  0  0  0  0  0  0  # atno 17321 bound_to 7965
  140.3112  144.3536  150.6033 LP  0  0  0  0  0  0  0  0  0  0  0  0  # atno 17342 bound_to 10162
  140.5797  143.2173  151.7450 LP  0  0  0  0  0  0  0  0  0  0  0  0  # atno 17343 bound_to 10162
  157.5377  130.8100  149.7992 LP  0  0  0  0  0  0  0  0  0  0  0  0  # atno 17370 bound_to 10713
  156.0164  130.3812  150.2096 LP  0  0  0  0  0  0  0  0  0  0  0  0  # atno 17371 bound_to 10713
  140.3831  134.7505  157.4674 LP  0  0  0  0  0  0  0  0  0  0  0  0  # atno 17394 bound_to 11000
  140.0622  134.5979  155.8736 LP  0  0  0  0  0  0  0  0  0  0  0  0  # atno 17395 bound_to 11000

$$$$
