AV-unprocessed.smi:870|AV-procd|sdf|4008|dock9
  -GOLD-   22720 1493D 1   1.00000     0.00000
 Structure written by MMmdl.
 46 48  0  0  0  0  0  0  0  0  1 V2000
  152.1135  140.0548  157.2921 C   0  0  0  0  0  0  0  0  0  0  0  0
  152.6463  139.6381  156.0484 O   0  0  0  0  0  0  0  0  0  0  0  0
  151.8309  138.6707  155.4089 C   0  0  0  0  0  0  0  0  0  0  0  0
  150.4790  139.2848  155.2040 C   0  0  0  0  0  0  0  0  0  0  0  0
  150.2987  140.3344  154.4015 N   0  0  0  0  0  0  0  0  0  0  0  0
  148.9451  140.5807  154.5225 C   0  0  0  0  0  0  0  0  0  0  0  0
  148.1351  141.5707  153.9212 C   0  0  0  0  0  0  0  0  0  0  0  0
  146.7549  141.6326  154.2045 C   0  0  0  0  0  0  0  0  0  0  0  0
  146.1664  140.7085  155.0918 C   0  0  0  0  0  0  0  0  0  0  0  0
  146.9553  139.7141  155.7014 C   0  0  0  0  0  0  0  0  0  0  0  0
  148.3321  139.6548  155.4134 C   0  0  0  0  0  0  0  0  0  0  0  0
  149.3657  138.8209  155.8285 N   0  0  0  0  0  0  0  0  0  0  0  0
  149.2452  137.6992  156.7518 C   0  0  0  0  0  0  0  0  0  0  0  0
  148.9235  138.1437  158.1957 C   0  0  1  0  0  0  0  0  0  0  0  0
  147.5516  138.4353  158.3720 O   0  0  0  0  0  0  0  0  0  0  0  0
  149.3602  137.1277  159.2631 C   0  0  0  0  0  0  0  0  0  0  0  0
  148.4103  137.1143  160.3211 O   0  0  0  0  0  0  0  0  0  0  0  0
  147.9971  135.8998  160.8266 C   0  0  0  0  0  0  0  0  0  0  0  0
  148.0213  134.6896  160.0880 C   0  0  0  0  0  0  0  0  0  0  0  0
  147.5823  133.4865  160.6727 C   0  0  0  0  0  0  0  0  0  0  0  0
  147.1149  133.4757  161.9989 C   0  0  0  0  0  0  0  0  0  0  0  0
  147.0871  134.6703  162.7411 C   0  0  0  0  0  0  0  0  0  0  0  0
  147.5255  135.8785  162.1599 C   0  0  0  0  0  0  0  0  0  0  0  0
  147.4949  137.1578  162.9751 C   0  0  0  0  0  0  0  0  0  0  0  0
  152.7810  140.7840  157.7509 H   0  0  0  0  0  0  0  0  0  0  0  0
  152.0118  139.2134  157.9786 H   0  0  0  0  0  0  0  0  0  0  0  0
  151.1366  140.5229  157.1652 H   0  0  0  0  0  0  0  0  0  0  0  0
  152.2468  138.3700  154.4462 H   0  0  0  0  0  0  0  0  0  0  0  0
  151.7422  137.7771  156.0294 H   0  0  0  0  0  0  0  0  0  0  0  0
  148.5770  142.2837  153.2412 H   0  0  0  0  0  0  0  0  0  0  0  0
  146.1450  142.3932  153.7393 H   0  0  0  0  0  0  0  0  0  0  0  0
  145.1086  140.7634  155.3039 H   0  0  0  0  0  0  0  0  0  0  0  0
  146.5073  139.0056  156.3816 H   0  0  0  0  0  0  0  0  0  0  0  0
  148.4861  137.0105  156.3843 H   0  0  0  0  0  0  0  0  0  0  0  0
  150.1837  137.1443  156.7364 H   0  0  0  0  0  0  0  0  0  0  0  0
  149.4494  139.0776  158.3954 H   0  0  0  0  0  0  0  0  0  0  0  0
  147.4760  139.1797  158.9497 H   0  0  0  0  0  0  0  0  0  0  0  0
  149.4056  136.1374  158.8073 H   0  0  0  0  0  0  0  0  0  0  0  0
  150.3575  137.3708  159.6342 H   0  0  0  0  0  0  0  0  0  0  0  0
  148.3727  134.6561  159.0682 H   0  0  0  0  0  0  0  0  0  0  0  0
  147.6048  132.5700  160.1017 H   0  0  0  0  0  0  0  0  0  0  0  0
  146.7782  132.5522  162.4465 H   0  0  0  0  0  0  0  0  0  0  0  0
  146.7281  134.6545  163.7597 H   0  0  0  0  0  0  0  0  0  0  0  0
  147.0077  137.0065  163.9385 H   0  0  0  0  0  0  0  0  0  0  0  0
  146.9525  137.9387  162.4414 H   0  0  0  0  0  0  0  0  0  0  0  0
  148.5104  137.5087  163.1587 H   0  0  0  0  0  0  0  0  0  0  0  0
  1  2  1  0  0  0  0
  1 25  1  0  0  0  0
  1 26  1  0  0  0  0
  1 27  1  0  0  0  0
  2  3  1  0  0  0  0
  3  4  1  0  0  0  0
  3 28  1  0  0  0  0
  3 29  1  0  0  0  0
  4 12  1  0  0  0  0
  4  5  2  0  0  0  0
  5  6  1  0  0  0  0
  6 11  2  0  0  0  0
  6  7  1  0  0  0  0
  7  8  2  0  0  0  0
  7 30  1  0  0  0  0
  8  9  1  0  0  0  0
  8 31  1  0  0  0  0
  9 10  2  0  0  0  0
  9 32  1  0  0  0  0
 10 11  1  0  0  0  0
 10 33  1  0  0  0  0
 11 12  1  0  0  0  0
 12 13  1  0  0  0  0
 13 14  1  0  0  0  0
 13 34  1  0  0  0  0
 13 35  1  0  0  0  0
 14 15  1  0  0  0  0
 14 16  1  0  0  0  0
 14 36  1  0  0  0  0
 15 37  1  0  0  0  0
 16 17  1  0  0  0  0
 16 38  1  0  0  0  0
 16 39  1  0  0  0  0
 17 18  1  0  0  0  0
 18 23  1  0  0  0  0
 18 19  2  0  0  0  0
 19 20  1  0  0  0  0
 19 40  1  0  0  0  0
 20 21  2  0  0  0  0
 20 41  1  0  0  0  0
 21 22  1  0  0  0  0
 21 42  1  0  0  0  0
 22 23  2  0  0  0  0
 22 43  1  0  0  0  0
 23 24  1  0  0  0  0
 24 44  1  0  0  0  0
 24 45  1  0  0  0  0
 24 46  1  0  0  0  0
M  END
> <s_m_source_file>
AV-unprocessed.smi

> <i_m_source_file_index>
870

> <i_lp_mmshare_version>
43012

> <i_f3d_flags>
0

> <s_epik_input>
W2NIXTFbY0hdW2NIXVtjSF1jKGMxMiluKGMobjIpW0NIMl1PW0NIM10pW0NIMl1bQ0BIXShbT0hdKVtDSDJdT2MzW2NIXVtjSF1bY0hdW2NIXWMzW0NIM10=

> <s_epik_cmdline>
J2VwaWtfcHl0aG9uJywgJy1waCcsICc3LjAnLCAnLXRuJywgJzgnLCAnLW1hJywgJzIwMCcsICctbWV0YWxfYmluZGluZycsICctaW1hZScsICc8aW5maWxlLm1hZT4nLCAnLW9tYWUnLCAnPG91dGZpbGUubWFlPic=

> <r_lp_tautomer_probability>
1

> <r_epik_Ionization_Penalty>
0.0447032

> <r_epik_Ionization_Penalty_Charging>
0

> <r_epik_Ionization_Penalty_Neutral>
0.0447032

> <r_epik_State_Penalty>
0.0379025

> <r_epik_Charging_Adjusted_Penalty>
0.0379025

> <i_epik_Tot_Q>
0

> <i_epik_Tot_abs_Q>
0

> <r_epik_Metal_State_Penalty>
3.91398e-05

> <b_epik_Metal_Only>
0

> <s_lp_Force_Field>
OPLS_2005

> <r_lp_Energy>
16.5078

> <b_lp_Chiralities_Consistent>
1

> <s_lp_Variant>
AV-unprocessed.smi:870-2

> <Gold.Version>
5.8.1

> <Gold.Id.Protein>
6NUR|6NUR_protein|mol2

> <Gold.PLP.Fitness>
50.6446

> <Gold.PLP.PLP>
-44.7167

> <Gold.PLP.part.hbond>
-5.0000

> <Gold.PLP.part.metal>
0.0000

> <Gold.PLP.part.buried>
-3.4995

> <Gold.PLP.part.nonpolar>
-37.0953

> <Gold.PLP.part.repulsive>
0.1088

> <Gold.PLP.ligand.clash>
0.0000

> <Gold.PLP.ligand.torsion>
1.5356

> <Gold.PLP.Chemscore.Hbond>
2.9474

> <Gold.PLP.Chemscore.CHOScore>
0.0000

> <Gold.PLP.Chemscore.Metal>
0.0000

> <Gold.Chemscore.Hbonds>
donor molecule, donor type, donor heavy atom, donor atom, acceptor molecule, acceptor atom, score
      P1  H  6931  6943       L1    17  0.70
      P1  H  6934  6947       L1    17  0.13
      P1  H  7989  7998       L1     5  1.00
      P1  H  7997  8008       L1     2  1.00

> <Gold.PLP.Chemscore.Internal.Correction>
0.1570

> <Gold.Rescore>
     Score         DG    S(hbond)    S(metal)    S(lipo)     H(rot)  DE(clash)    DE(int)     intcor
     18.97     -20.53       2.60        0.00     106.18       2.36       0.08       1.49       ----

> <Gold.Chemscore.Fitness>
18.9710

> <Gold.Chemscore.DG>
-20.5337

> <Gold.Chemscore.ZeroCoef>
-5.4800

> <Gold.Chemscore.Hbond>
2.5955

> <Gold.Chemscore.Metal>
0.0000

> <Gold.Chemscore.Lipo>
106.1759

> <Gold.Chemscore.Internal_Hbond>
0.0000

> <Gold.Chemscore.DEClash>
0.0763

> <Gold.Chemscore.DEInternal>
1.4864

> <Gold.Chemscore.Rot>
2.3585

> <Gold.Chemscore.Internal.Correction>
   9.000000E+99

> <Gold.Chemscore.Hbonds>
donor molecule, donor type, donor heavy atom, donor atom, acceptor molecule, acceptor atom, score
      P1  H  6931  6943       L1    17  0.33
      P1  H  6934  6947       L1    17  0.13
      P1  H  7989  7998       L1     5  0.91
      P1  H  7997  8008       L1     2  0.40

> <Gold.Chemscore.Hbond.Weighted>
-8.6689

> <Gold.Chemscore.Metal.Weighted>
-0.0000

> <Gold.Chemscore.Lipo.Weighted>
-12.4226

> <Gold.Chemscore.Internal_Hbond.Weighted>
0.0000

> <Gold.Chemscore.DEClash.Weighted>
0.0763

> <Gold.Chemscore.DEInternal.Weighted>
1.4864

> <Gold.Chemscore.Rot.Weighted>
6.0378

> <Gold.Chemscore.Internal.Correction.Weighted>
   9.000000E+99

> <Gold.Protein.RotatedTorsions>
[ 6907 6896 6895 6894 ] final -126.19 input  -60.11 | X-H torsion
[ 7974 7965 7964 7962 ] final   97.28 input  175.53 | X-H torsion
[ 8008 7997 7996 7995 ] final  -31.82 input   59.86 | X-H torsion
[ 10167 10162 10161 10158 ] final -167.73 input  -65.29 | X-H torsion
[ 10718 10713 10712 10709 ] final  152.02 input   66.30 | X-H torsion
[ 10763 10752 10751 10750 ] final  140.87 input  -60.55 | X-H torsion
[ 11005 11000 10999 10996 ] final  103.99 input  -57.11 | X-H torsion

> <Gold.Protein.ActiveResidues>
 VAL166  LYS551  ARG553  GLY616  TRP617  ASP618  TYR619  PRO620  LYS621  CYS622 
 ASP623  PHE694  ASN695  SER759  ASP760  ASP761  ALA762  ILE779  LEU786  VAL792 
 PHE793  MET794  SER795  GLU796  ALA797  LYS798  CYS799  TRP800  GLU811  SER814 

> <Gold.Protein.RotatedAtoms>
  150.8944  133.7200  159.2895 H   0  0  0  0  0  0  0  0  0  0  0  0  # atno 6907 bound_to 6896
  151.4739  135.1046  159.9769 H   0  0  0  0  0  0  0  0  0  0  0  0  # atno 6908 bound_to 6896
  152.4840  133.8277  159.7142 H   0  0  0  0  0  0  0  0  0  0  0  0  # atno 6909 bound_to 6896
  145.4276  139.2314  143.3162 H   0  0  0  0  0  0  0  0  0  0  0  0  # atno 7974 bound_to 7965
  154.4201  140.1754  156.1628 H   0  0  0  0  0  0  0  0  0  0  0  0  # atno 8008 bound_to 7997
  155.9824  140.3376  155.6651 H   0  0  0  0  0  0  0  0  0  0  0  0  # atno 8009 bound_to 7997
  155.6482  140.0687  157.2586 H   0  0  0  0  0  0  0  0  0  0  0  0  # atno 8010 bound_to 7997
  139.6030  144.0971  152.1763 H   0  0  0  0  0  0  0  0  0  0  0  0  # atno 10167 bound_to 10162
  157.2631  131.0802  151.1652 H   0  0  0  0  0  0  0  0  0  0  0  0  # atno 10718 bound_to 10713
  153.9298  135.2991  155.3446 H   0  0  0  0  0  0  0  0  0  0  0  0  # atno 10763 bound_to 10752
  154.7532  135.4970  153.9331 H   0  0  0  0  0  0  0  0  0  0  0  0  # atno 10764 bound_to 10752
  153.1097  135.6756  153.9626 H   0  0  0  0  0  0  0  0  0  0  0  0  # atno 10765 bound_to 10752
  139.8788  134.9284  156.5294 H   0  0  0  0  0  0  0  0  0  0  0  0  # atno 11005 bound_to 11000
  146.2624  140.5009  142.8848 LP  0  0  0  0  0  0  0  0  0  0  0  0  # atno 17320 bound_to 7965
  144.8204  140.6539  143.6357 LP  0  0  0  0  0  0  0  0  0  0  0  0  # atno 17321 bound_to 7965
  140.0571  144.5886  150.7291 LP  0  0  0  0  0  0  0  0  0  0  0  0  # atno 17342 bound_to 10162
  140.7264  143.2641  151.4105 LP  0  0  0  0  0  0  0  0  0  0  0  0  # atno 17343 bound_to 10162
  157.3153  130.6910  149.6238 LP  0  0  0  0  0  0  0  0  0  0  0  0  # atno 17370 bound_to 10713
  155.9664  130.4351  150.5078 LP  0  0  0  0  0  0  0  0  0  0  0  0  # atno 17371 bound_to 10713
  140.8392  133.8218  155.9058 LP  0  0  0  0  0  0  0  0  0  0  0  0  # atno 17394 bound_to 11000
  140.9254  134.2089  157.4899 LP  0  0  0  0  0  0  0  0  0  0  0  0  # atno 17395 bound_to 11000

$$$$
