AV-unprocessed.smi:2592|AV-procd|sdf|10161|dock8
  -GOLD-   2272014173D 1   1.00000     0.00000
 Structure written by MMmdl.
 42 43  0  0  0  0  0  0  0  0  3 V2000
  151.4876  144.4315  159.7899 C   0  0  0  0  0  0  0  0  0  0  0  0
  151.7525  143.0656  159.2356 C   0  0  0  0  0  0  0  0  0  0  0  0
  151.0638  142.6349  158.0987 N   0  0  0  0  0  0  0  0  0  0  0  0
  151.3996  141.4032  157.7027 C   0  0  0  0  0  0  0  0  0  0  0  0
  150.8526  140.8015  156.6338 N   0  5  0  0  0  0  0  0  0  0  0  0
  151.5234  139.8165  155.9955 C   0  0  0  0  0  0  0  0  0  0  0  0
  152.4988  139.9570  155.2538 O   0  0  0  0  0  0  0  0  0  0  0  0
  151.0398  138.5897  156.2382 N   0  0  0  0  0  0  0  0  0  0  0  0
  151.5765  137.3407  155.7093 C   0  0  0  0  0  0  0  0  0  0  0  0
  150.5072  136.5555  154.9324 C   0  0  0  0  0  0  0  0  0  0  0  0
  150.8567  135.0650  154.7963 C   0  0  0  0  0  0  0  0  0  0  0  0
  149.8032  134.3032  154.0802 N   0  3  0  0  0  0  0  0  0  0  0  0
  150.3061  133.0214  153.5307 C   0  0  0  0  0  0  0  0  0  0  0  0
  149.1955  132.2952  152.7526 C   0  0  0  0  0  0  0  0  0  0  0  0
  148.0752  132.0869  153.6030 O   0  0  0  0  0  0  0  0  0  0  0  0
  147.5262  133.3133  154.0685 C   0  0  0  0  0  0  0  0  0  0  0  0
  148.5805  134.0740  154.8901 C   0  0  0  0  0  0  0  0  0  0  0  0
  152.6109  140.6799  158.7614 S   0  0  0  0  0  0  0  0  0  0  0  0
  152.6303  142.1314  159.7270 C   0  0  0  0  0  0  0  0  0  0  0  0
  153.5231  142.2504  160.9169 C   0  0  0  0  0  0  0  0  0  0  0  0
  150.9982  144.3713  160.7621 H   0  0  0  0  0  0  0  0  0  0  0  0
  150.8431  145.0161  159.1325 H   0  0  0  0  0  0  0  0  0  0  0  0
  152.4152  144.9893  159.9197 H   0  0  0  0  0  0  0  0  0  0  0  0
  150.2373  138.5219  156.8471 H   0  0  0  0  0  0  0  0  0  0  0  0
  152.4115  137.5848  155.0525 H   0  0  0  0  0  0  0  0  0  0  0  0
  151.9855  136.7361  156.5206 H   0  0  0  0  0  0  0  0  0  0  0  0
  149.5480  136.6690  155.4367 H   0  0  0  0  0  0  0  0  0  0  0  0
  150.3881  136.9931  153.9404 H   0  0  0  0  0  0  0  0  0  0  0  0
  151.7917  134.9875  154.2394 H   0  0  0  0  0  0  0  0  0  0  0  0
  151.0412  134.6185  155.7746 H   0  0  0  0  0  0  0  0  0  0  0  0
  151.1532  133.2073  152.8693 H   0  0  0  0  0  0  0  0  0  0  0  0
  150.6663  132.3909  154.3451 H   0  0  0  0  0  0  0  0  0  0  0  0
  148.8988  132.8660  151.8714 H   0  0  0  0  0  0  0  0  0  0  0  0
  149.5550  131.3284  152.3993 H   0  0  0  0  0  0  0  0  0  0  0  0
  147.1804  133.9148  153.2261 H   0  0  0  0  0  0  0  0  0  0  0  0
  146.6532  133.0979  154.6848 H   0  0  0  0  0  0  0  0  0  0  0  0
  148.8345  133.5054  155.7862 H   0  0  0  0  0  0  0  0  0  0  0  0
  148.1574  135.0211  155.2225 H   0  0  0  0  0  0  0  0  0  0  0  0
  154.3680  142.9039  160.6996 H   0  0  0  0  0  0  0  0  0  0  0  0
  153.9159  141.2778  161.2137 H   0  0  0  0  0  0  0  0  0  0  0  0
  152.9832  142.6668  161.7676 H   0  0  0  0  0  0  0  0  0  0  0  0
  149.5314  134.8652  153.2861 H   0  0  0  0  0  0  0  0  0  0  0  0
  1  2  1  0  0  0  0
  1 21  1  0  0  0  0
  1 22  1  0  0  0  0
  1 23  1  0  0  0  0
  2 19  2  0  0  0  0
  2  3  1  0  0  0  0
  3  4  2  0  0  0  0
  4  5  1  0  0  0  0
  4 18  1  0  0  0  0
  5  6  1  0  0  0  0
  6  7  2  0  0  0  0
  6  8  1  0  0  0  0
  8  9  1  0  0  0  0
  8 24  1  0  0  0  0
  9 10  1  0  0  0  0
  9 25  1  0  0  0  0
  9 26  1  0  0  0  0
 10 11  1  0  0  0  0
 10 27  1  0  0  0  0
 10 28  1  0  0  0  0
 11 12  1  0  0  0  0
 11 29  1  0  0  0  0
 11 30  1  0  0  0  0
 12 17  1  0  0  0  0
 12 13  1  0  0  0  0
 12 42  1  0  0  0  0
 13 14  1  0  0  0  0
 13 31  1  0  0  0  0
 13 32  1  0  0  0  0
 14 15  1  0  0  0  0
 14 33  1  0  0  0  0
 14 34  1  0  0  0  0
 15 16  1  0  0  0  0
 16 17  1  0  0  0  0
 16 35  1  0  0  0  0
 16 36  1  0  0  0  0
 17 37  1  0  0  0  0
 17 38  1  0  0  0  0
 18 19  1  0  0  0  0
 19 20  1  0  0  0  0
 20 39  1  0  0  0  0
 20 40  1  0  0  0  0
 20 41  1  0  0  0  0
M  CHG  1   5  -1
M  CHG  1  12   1
M  END
> <s_m_source_file>
AV-unprocessed.smi

> <i_m_source_file_index>
2592

> <i_lp_mmshare_version>
43012

> <i_f3d_flags>
0

> <s_epik_input>
W0NIM11jMW5jKHNjMVtDSDNdKVtOSF1DKD1PKVtOSF1bQ0gyXVtDSDJdW0NIMl1OMltDSDJdW0NIMl1PW0NIMl1bQ0gyXTI=

> <s_epik_cmdline>
J2VwaWtfcHl0aG9uJywgJy1waCcsICc3LjAnLCAnLXRuJywgJzgnLCAnLW1hJywgJzIwMCcsICctbWV0YWxfYmluZGluZycsICctaW1hZScsICc8aW5maWxlLm1hZT4nLCAnLW9tYWUnLCAnPG91dGZpbGUubWFlPic=

> <r_lp_tautomer_probability>
0.999

> <r_epik_Ionization_Penalty>
7.73516

> <r_epik_Ionization_Penalty_Charging>
6.31615

> <r_epik_Ionization_Penalty_Neutral>
1.41901

> <r_epik_State_Penalty>
6.31054

> <r_epik_Charging_Adjusted_Penalty>
12.6267

> <i_epik_Tot_Q>
0

> <i_epik_Tot_abs_Q>
2

> <r_epik_Metal_State_Penalty>
2.25864

> <b_epik_Metal_Only>
1

> <s_lp_Force_Field>
OPLS_2005

> <r_lp_Energy>
6.70997

> <b_lp_Chiralities_Consistent>
1

> <s_lp_Variant>
AV-unprocessed.smi:2592-3

> <Gold.Version>
5.8.1

> <Gold.Id.Protein>
6NUR|6NUR_protein|mol2

> <Gold.PLP.Fitness>
44.7874

> <Gold.PLP.PLP>
-37.8466

> <Gold.PLP.part.hbond>
-2.2078

> <Gold.PLP.part.metal>
0.0000

> <Gold.PLP.part.buried>
-4.7912

> <Gold.PLP.part.nonpolar>
-30.8046

> <Gold.PLP.part.repulsive>
0.2288

> <Gold.PLP.ligand.clash>
0.0000

> <Gold.PLP.ligand.torsion>
1.0663

> <Gold.PLP.Chemscore.Hbond>
3.0000

> <Gold.PLP.Chemscore.CHOScore>
0.0000

> <Gold.PLP.Chemscore.Metal>
0.0000

> <Gold.Chemscore.Hbonds>
donor molecule, donor type, donor heavy atom, donor atom, acceptor molecule, acceptor atom, score
      L1  H    12    42       P1  7948  0.60
      P1  H  7989  7998       L1     7  0.45
      P1  H  7997  8010       L1     7  0.80

> <Gold.PLP.Chemscore.Internal.Correction>
0.0734

> <Gold.Rescore>
     Score         DG    S(hbond)    S(metal)    S(lipo)     H(rot)  DE(clash)    DE(int)     intcor
     15.85     -16.89       1.97        0.00      78.71       1.72       0.00       1.04       ----

> <Gold.Chemscore.Fitness>
15.8480

> <Gold.Chemscore.DG>
-16.8851

> <Gold.Chemscore.ZeroCoef>
-5.4800

> <Gold.Chemscore.Hbond>
1.9724

> <Gold.Chemscore.Metal>
0.0000

> <Gold.Chemscore.Lipo>
78.7061

> <Gold.Chemscore.Internal_Hbond>
0.0000

> <Gold.Chemscore.DEClash>
0.0000

> <Gold.Chemscore.DEInternal>
1.0372

> <Gold.Chemscore.Rot>
1.7154

> <Gold.Chemscore.Internal.Correction>
   9.000000E+99

> <Gold.Chemscore.Hbonds>
donor molecule, donor type, donor heavy atom, donor atom, acceptor molecule, acceptor atom, score
      P1  H  7989  7998       L1     7  0.20
      P1  H  7997  8010       L1     7  0.68

> <Gold.Chemscore.Hbond.Weighted>
-6.5879

> <Gold.Chemscore.Metal.Weighted>
-0.0000

> <Gold.Chemscore.Lipo.Weighted>
-9.2086

> <Gold.Chemscore.Internal_Hbond.Weighted>
0.0000

> <Gold.Chemscore.DEClash.Weighted>
0.0000

> <Gold.Chemscore.DEInternal.Weighted>
1.0372

> <Gold.Chemscore.Rot.Weighted>
4.3914

> <Gold.Chemscore.Internal.Correction.Weighted>
   9.000000E+99

> <Gold.Protein.RotatedTorsions>
[ 6907 6896 6895 6894 ] final  122.83 input  -60.11 | X-H torsion
[ 7974 7965 7964 7962 ] final -175.50 input  175.53 | X-H torsion
[ 8008 7997 7996 7995 ] final   80.19 input   59.86 | X-H torsion
[ 10167 10162 10161 10158 ] final  -20.32 input  -65.29 | X-H torsion
[ 10718 10713 10712 10709 ] final   22.80 input   66.30 | X-H torsion
[ 10763 10752 10751 10750 ] final  147.28 input  -60.55 | X-H torsion
[ 11005 11000 10999 10996 ] final   65.75 input  -57.11 | X-H torsion

> <Gold.Protein.ActiveResidues>
 VAL166  LYS551  ARG553  GLY616  TRP617  ASP618  TYR619  PRO620  LYS621  CYS622 
 ASP623  PHE694  ASN695  SER759  ASP760  ASP761  ALA762  ILE779  LEU786  VAL792 
 PHE793  MET794  SER795  GLU796  ALA797  LYS798  CYS799  TRP800  GLU811  SER814 

> <Gold.Protein.RotatedAtoms>
  152.4211  133.7118  159.6482 H   0  0  0  0  0  0  0  0  0  0  0  0  # atno 6907 bound_to 6896
  150.8087  133.8451  159.3199 H   0  0  0  0  0  0  0  0  0  0  0  0  # atno 6908 bound_to 6896
  151.6167  135.1037  160.0144 H   0  0  0  0  0  0  0  0  0  0  0  0  # atno 6909 bound_to 6896
  144.7128  140.1311  143.6398 H   0  0  0  0  0  0  0  0  0  0  0  0  # atno 7974 bound_to 7965
  155.8801  140.3444  155.5882 H   0  0  0  0  0  0  0  0  0  0  0  0  # atno 8008 bound_to 7997
  155.7729  140.0848  157.2118 H   0  0  0  0  0  0  0  0  0  0  0  0  # atno 8009 bound_to 7997
  154.4024  140.1515  156.2950 H   0  0  0  0  0  0  0  0  0  0  0  0  # atno 8010 bound_to 7997
  140.7275  143.4734  151.0216 H   0  0  0  0  0  0  0  0  0  0  0  0  # atno 10167 bound_to 10162
  157.1574  130.6701  149.6032 H   0  0  0  0  0  0  0  0  0  0  0  0  # atno 10718 bound_to 10713
  154.0358  135.2894  155.3362 H   0  0  0  0  0  0  0  0  0  0  0  0  # atno 10763 bound_to 10752
  154.6960  135.5208  153.8461 H   0  0  0  0  0  0  0  0  0  0  0  0  # atno 10764 bound_to 10752
  153.0621  135.6617  154.0567 H   0  0  0  0  0  0  0  0  0  0  0  0  # atno 10765 bound_to 10752
  139.9875  134.6645  156.0151 H   0  0  0  0  0  0  0  0  0  0  0  0  # atno 11005 bound_to 11000
  145.9286  139.2591  143.1339 LP  0  0  0  0  0  0  0  0  0  0  0  0  # atno 17320 bound_to 7965
  145.9546  140.8882  143.0241 LP  0  0  0  0  0  0  0  0  0  0  0  0  # atno 17321 bound_to 7965
  139.8427  143.7542  152.3180 LP  0  0  0  0  0  0  0  0  0  0  0  0  # atno 17342 bound_to 10162
  139.7696  144.7481  151.0243 LP  0  0  0  0  0  0  0  0  0  0  0  0  # atno 17343 bound_to 10162
  155.9760  130.4723  150.6496 LP  0  0  0  0  0  0  0  0  0  0  0  0  # atno 17370 bound_to 10713
  157.4165  131.0831  151.1172 LP  0  0  0  0  0  0  0  0  0  0  0  0  # atno 17371 bound_to 10713
  141.1537  133.6545  156.4093 LP  0  0  0  0  0  0  0  0  0  0  0  0  # atno 17394 bound_to 11000
  140.4974  134.6518  157.5235 LP  0  0  0  0  0  0  0  0  0  0  0  0  # atno 17395 bound_to 11000

$$$$
