AV-unprocessed.smi:870|AV-procd|sdf|4009|dock4
  -GOLD-   22720 1493D 1   1.00000     0.00000
 Structure written by MMmdl.
 47 49  0  0  0  0  0  0  0  0  2 V2000
  147.8183  141.0356  154.2711 C   0  0  0  0  0  0  0  0  0  0  0  0
  149.0227  141.7608  154.4473 O   0  0  0  0  0  0  0  0  0  0  0  0
  150.0676  140.9578  154.9717 C   0  0  0  0  0  0  0  0  0  0  0  0
  150.7995  141.6469  156.0764 C   0  0  0  0  0  0  0  0  0  0  0  0
  150.6802  142.9594  156.4247 N   0  3  0  0  0  0  0  0  0  0  0  0
  151.5217  143.2419  157.5011 C   0  0  0  0  0  0  0  0  0  0  0  0
  151.7437  144.4260  158.1973 C   0  0  0  0  0  0  0  0  0  0  0  0
  152.6736  144.3727  159.2562 C   0  0  0  0  0  0  0  0  0  0  0  0
  153.3403  143.1755  159.5881 C   0  0  0  0  0  0  0  0  0  0  0  0
  153.1076  141.9814  158.8744 C   0  0  0  0  0  0  0  0  0  0  0  0
  152.1880  142.0424  157.8272 C   0  0  0  0  0  0  0  0  0  0  0  0
  151.7110  141.0863  156.9217 N   0  0  0  0  0  0  0  0  0  0  0  0
  152.2137  139.7044  156.9830 C   0  0  0  0  0  0  0  0  0  0  0  0
  151.8452  138.9907  158.2992 C   0  0  2  0  0  0  0  0  0  0  0  0
  152.9146  138.1703  158.7236 O   0  0  0  0  0  0  0  0  0  0  0  0
  150.5885  138.1201  158.1602 C   0  0  0  0  0  0  0  0  0  0  0  0
  150.4521  137.3280  159.3322 O   0  0  0  0  0  0  0  0  0  0  0  0
  150.5366  135.9561  159.2144 C   0  0  0  0  0  0  0  0  0  0  0  0
  150.6996  135.2804  157.9779 C   0  0  0  0  0  0  0  0  0  0  0  0
  150.7787  133.8756  157.9353 C   0  0  0  0  0  0  0  0  0  0  0  0
  150.6970  133.1278  159.1233 C   0  0  0  0  0  0  0  0  0  0  0  0
  150.5353  133.7869  160.3554 C   0  0  0  0  0  0  0  0  0  0  0  0
  150.4553  135.1945  160.4037 C   0  0  0  0  0  0  0  0  0  0  0  0
  150.2785  135.8900  161.7406 C   0  0  0  0  0  0  0  0  0  0  0  0
  147.0491  141.6949  153.8688 H   0  0  0  0  0  0  0  0  0  0  0  0
  147.4564  140.6362  155.2193 H   0  0  0  0  0  0  0  0  0  0  0  0
  147.9535  140.2099  153.5714 H   0  0  0  0  0  0  0  0  0  0  0  0
  149.6599  140.0203  155.3520 H   0  0  0  0  0  0  0  0  0  0  0  0
  150.7798  140.7110  154.1830 H   0  0  0  0  0  0  0  0  0  0  0  0
  151.2327  145.3438  157.9461 H   0  0  0  0  0  0  0  0  0  0  0  0
  152.8788  145.2673  159.8262 H   0  0  0  0  0  0  0  0  0  0  0  0
  154.0442  143.1722  160.4077 H   0  0  0  0  0  0  0  0  0  0  0  0
  153.6207  141.0696  159.1421 H   0  0  0  0  0  0  0  0  0  0  0  0
  151.7817  139.1693  156.1365 H   0  0  0  0  0  0  0  0  0  0  0  0
  153.2913  139.7030  156.8190 H   0  0  0  0  0  0  0  0  0  0  0  0
  151.6747  139.7318  159.0809 H   0  0  0  0  0  0  0  0  0  0  0  0
  152.7620  137.2930  158.4073 H   0  0  0  0  0  0  0  0  0  0  0  0
  149.7096  138.7505  158.0130 H   0  0  0  0  0  0  0  0  0  0  0  0
  150.6885  137.4676  157.2910 H   0  0  0  0  0  0  0  0  0  0  0  0
  150.7677  135.8175  157.0442 H   0  0  0  0  0  0  0  0  0  0  0  0
  150.9024  133.3712  156.9883 H   0  0  0  0  0  0  0  0  0  0  0  0
  150.7579  132.0499  159.0898 H   0  0  0  0  0  0  0  0  0  0  0  0
  150.4721  133.2060  161.2638 H   0  0  0  0  0  0  0  0  0  0  0  0
  150.2348  135.1737  162.5615 H   0  0  0  0  0  0  0  0  0  0  0  0
  149.3547  136.4690  161.7464 H   0  0  0  0  0  0  0  0  0  0  0  0
  151.1114  136.5687  161.9273 H   0  0  0  0  0  0  0  0  0  0  0  0
  150.0644  143.6108  155.9550 H   0  0  0  0  0  0  0  0  0  0  0  0
  1  2  1  0  0  0  0
  1 25  1  0  0  0  0
  1 26  1  0  0  0  0
  1 27  1  0  0  0  0
  2  3  1  0  0  0  0
  3  4  1  0  0  0  0
  3 28  1  0  0  0  0
  3 29  1  0  0  0  0
  4 12  1  0  0  0  0
  4  5  2  0  0  0  0
  5  6  1  0  0  0  0
  5 47  1  0  0  0  0
  6 11  2  0  0  0  0
  6  7  1  0  0  0  0
  7  8  2  0  0  0  0
  7 30  1  0  0  0  0
  8  9  1  0  0  0  0
  8 31  1  0  0  0  0
  9 10  2  0  0  0  0
  9 32  1  0  0  0  0
 10 11  1  0  0  0  0
 10 33  1  0  0  0  0
 11 12  1  0  0  0  0
 12 13  1  0  0  0  0
 13 14  1  0  0  0  0
 13 34  1  0  0  0  0
 13 35  1  0  0  0  0
 14 15  1  0  0  0  0
 14 16  1  0  0  0  0
 14 36  1  0  0  0  0
 15 37  1  0  0  0  0
 16 17  1  0  0  0  0
 16 38  1  0  0  0  0
 16 39  1  0  0  0  0
 17 18  1  0  0  0  0
 18 23  1  0  0  0  0
 18 19  2  0  0  0  0
 19 20  1  0  0  0  0
 19 40  1  0  0  0  0
 20 21  2  0  0  0  0
 20 41  1  0  0  0  0
 21 22  1  0  0  0  0
 21 42  1  0  0  0  0
 22 23  2  0  0  0  0
 22 43  1  0  0  0  0
 23 24  1  0  0  0  0
 24 44  1  0  0  0  0
 24 45  1  0  0  0  0
 24 46  1  0  0  0  0
M  CHG  1   5   1
M  END
> <s_m_source_file>
AV-unprocessed.smi

> <i_m_source_file_index>
870

> <i_lp_mmshare_version>
43012

> <i_f3d_flags>
0

> <s_epik_input>
W2NIXTFbY0hdW2NIXVtjSF1jKGMxMiluKGMobjIpW0NIMl1PW0NIM10pW0NIMl1bQ0BIXShbT0hdKVtDSDJdT2MzW2NIXVtjSF1bY0hdW2NIXWMzW0NIM10=

> <s_epik_cmdline>
J2VwaWtfcHl0aG9uJywgJy1waCcsICc3LjAnLCAnLXRuJywgJzgnLCAnLW1hJywgJzIwMCcsICctbWV0YWxfYmluZGluZycsICctaW1hZScsICc8aW5maWxlLm1hZT4nLCAnLW9tYWUnLCAnPG91dGZpbGUubWFlPic=

> <r_lp_tautomer_probability>
1

> <r_epik_Ionization_Penalty>
1.55338

> <r_epik_Ionization_Penalty_Charging>
1.55338

> <r_epik_Ionization_Penalty_Neutral>
2.3993e-06

> <r_epik_State_Penalty>
1.64778

> <r_epik_Charging_Adjusted_Penalty>
3.20115

> <i_epik_Tot_Q>
1

> <i_epik_Tot_abs_Q>
1

> <r_epik_Metal_State_Penalty>
5.70266

> <b_epik_Metal_Only>
0

> <s_lp_Force_Field>
OPLS_2005

> <r_lp_Energy>
18.2102

> <b_lp_Chiralities_Consistent>
1

> <s_lp_Variant>
AV-unprocessed.smi:870-3

> <Gold.Version>
5.8.1

> <Gold.Id.Protein>
6NUR|6NUR_protein|mol2

> <Gold.PLP.Fitness>
53.0009

> <Gold.PLP.PLP>
-49.4077

> <Gold.PLP.part.hbond>
-4.2396

> <Gold.PLP.part.metal>
0.0000

> <Gold.PLP.part.buried>
-4.6015

> <Gold.PLP.part.nonpolar>
-41.2002

> <Gold.PLP.part.repulsive>
0.3006

> <Gold.PLP.ligand.clash>
0.0000

> <Gold.PLP.ligand.torsion>
1.4012

> <Gold.PLP.Chemscore.Hbond>
2.0927

> <Gold.PLP.Chemscore.CHOScore>
0.0000

> <Gold.PLP.Chemscore.Metal>
0.0000

> <Gold.Chemscore.Hbonds>
donor molecule, donor type, donor heavy atom, donor atom, acceptor molecule, acceptor atom, score
      L1  H     5    47       P1  8028  2.00
      P1  H  8011  8017       L1     2  0.11

> <Gold.PLP.Chemscore.Internal.Correction>
0.1175

> <Gold.Rescore>
     Score         DG    S(hbond)    S(metal)    S(lipo)     H(rot)  DE(clash)    DE(int)     intcor
     15.89     -17.50       1.11        0.00     124.51       2.45       0.12       1.50       ----

> <Gold.Chemscore.Fitness>
15.8850

> <Gold.Chemscore.DG>
-17.4998

> <Gold.Chemscore.ZeroCoef>
-5.4800

> <Gold.Chemscore.Hbond>
1.1144

> <Gold.Chemscore.Metal>
0.0000

> <Gold.Chemscore.Lipo>
124.5149

> <Gold.Chemscore.Internal_Hbond>
0.0000

> <Gold.Chemscore.DEClash>
0.1176

> <Gold.Chemscore.DEInternal>
1.4973

> <Gold.Chemscore.Rot>
2.4494

> <Gold.Chemscore.Internal.Correction>
   9.000000E+99

> <Gold.Chemscore.Hbonds>
donor molecule, donor type, donor heavy atom, donor atom, acceptor molecule, acceptor atom, score
      L1  H     5    47       P1  8028  0.99
      P1  H  8011  8017       L1     2  0.04

> <Gold.Chemscore.Hbond.Weighted>
-3.7220

> <Gold.Chemscore.Metal.Weighted>
-0.0000

> <Gold.Chemscore.Lipo.Weighted>
-14.5682

> <Gold.Chemscore.Internal_Hbond.Weighted>
0.0000

> <Gold.Chemscore.DEClash.Weighted>
0.1176

> <Gold.Chemscore.DEInternal.Weighted>
1.4973

> <Gold.Chemscore.Rot.Weighted>
6.2704

> <Gold.Chemscore.Internal.Correction.Weighted>
   9.000000E+99

> <Gold.Protein.RotatedTorsions>
[ 6907 6896 6895 6894 ] final   86.22 input  -60.11 | X-H torsion
[ 7974 7965 7964 7962 ] final  -13.46 input  175.53 | X-H torsion
[ 8008 7997 7996 7995 ] final   12.67 input   59.86 | X-H torsion
[ 10167 10162 10161 10158 ] final  -36.78 input  -65.29 | X-H torsion
[ 10718 10713 10712 10709 ] final  -26.36 input   66.30 | X-H torsion
[ 10763 10752 10751 10750 ] final  140.34 input  -60.55 | X-H torsion
[ 11005 11000 10999 10996 ] final -106.86 input  -57.11 | X-H torsion

> <Gold.Protein.ActiveResidues>
 VAL166  LYS551  ARG553  GLY616  TRP617  ASP618  TYR619  PRO620  LYS621  CYS622 
 ASP623  PHE694  ASN695  SER759  ASP760  ASP761  ALA762  ILE779  LEU786  VAL792 
 PHE793  MET794  SER795  GLU796  ALA797  LYS798  CYS799  TRP800  GLU811  SER814 

> <Gold.Protein.RotatedAtoms>
  152.5390  134.2464  159.8881 H   0  0  0  0  0  0  0  0  0  0  0  0  # atno 6907 bound_to 6896
  151.2429  133.4383  159.2615 H   0  0  0  0  0  0  0  0  0  0  0  0  # atno 6908 bound_to 6896
  151.0610  134.9750  159.8316 H   0  0  0  0  0  0  0  0  0  0  0  0  # atno 6909 bound_to 6896
  146.2113  140.3207  142.8390 H   0  0  0  0  0  0  0  0  0  0  0  0  # atno 7974 bound_to 7965
  154.8238  140.2888  155.5768 H   0  0  0  0  0  0  0  0  0  0  0  0  # atno 8008 bound_to 7997
  156.3000  140.2545  156.3081 H   0  0  0  0  0  0  0  0  0  0  0  0  # atno 8009 bound_to 7997
  154.9308  140.0383  157.2036 H   0  0  0  0  0  0  0  0  0  0  0  0  # atno 8010 bound_to 7997
  140.7134  143.3386  151.2408 H   0  0  0  0  0  0  0  0  0  0  0  0  # atno 10167 bound_to 10162
  156.4522  130.4486  149.6982 H   0  0  0  0  0  0  0  0  0  0  0  0  # atno 10718 bound_to 10713
  153.9210  135.3000  155.3447 H   0  0  0  0  0  0  0  0  0  0  0  0  # atno 10763 bound_to 10752
  154.7575  135.4950  153.9405 H   0  0  0  0  0  0  0  0  0  0  0  0  # atno 10764 bound_to 10752
  153.1142  135.6766  153.9551 H   0  0  0  0  0  0  0  0  0  0  0  0  # atno 10765 bound_to 10752
  141.0983  133.8931  157.1907 H   0  0  0  0  0  0  0  0  0  0  0  0  # atno 11005 bound_to 11000
  144.8922  140.7538  143.5919 LP  0  0  0  0  0  0  0  0  0  0  0  0  # atno 17320 bound_to 7965
  145.3130  139.1812  143.4629 LP  0  0  0  0  0  0  0  0  0  0  0  0  # atno 17321 bound_to 7965
  139.6887  143.9729  152.2848 LP  0  0  0  0  0  0  0  0  0  0  0  0  # atno 17342 bound_to 10162
  139.9383  144.6698  150.8292 LP  0  0  0  0  0  0  0  0  0  0  0  0  # atno 17343 bound_to 10162
  156.3804  130.7576  151.2568 LP  0  0  0  0  0  0  0  0  0  0  0  0  # atno 17370 bound_to 10713
  157.7502  131.0297  150.4105 LP  0  0  0  0  0  0  0  0  0  0  0  0  # atno 17371 bound_to 10713
  139.9826  135.0093  156.9787 LP  0  0  0  0  0  0  0  0  0  0  0  0  # atno 17394 bound_to 11000
  140.5085  134.1026  155.7265 LP  0  0  0  0  0  0  0  0  0  0  0  0  # atno 17395 bound_to 11000

$$$$
