AV-unprocessed.smi:701|AV-procd|sdf|3408|dock8
  -GOLD-   22720 0393D 1   1.00000     0.00000
 Structure written by MMmdl.
 49 51  0  0  0  0  0  0  0  0  1 V2000
  153.6376  141.5877  161.1664 C   0  0  0  0  0  0  0  0  0  0  0  0
  153.6950  142.3360  159.8329 C   0  0  0  0  0  0  0  0  0  0  0  0
  153.0121  141.5726  158.8530 O   0  0  0  0  0  0  0  0  0  0  0  0
  151.5985  141.7226  158.9092 C   0  0  2  0  0  0  0  0  0  0  0  0
  150.8796  140.7976  157.9180 C   0  0  0  0  0  0  0  0  0  0  0  0
  151.0288  141.9279  156.8990 C   0  0  1  0  0  0  0  0  0  0  0  0
  149.8614  142.0711  156.0371 N   0  0  0  0  0  0  0  0  0  0  0  0
  149.5757  141.2558  155.0119 C   0  0  0  0  0  0  0  0  0  0  0  0
  150.2854  140.3009  154.6934 O   0  0  0  0  0  0  0  0  0  0  0  0
  148.3119  141.5904  154.2083 C   0  0  0  0  0  0  0  0  0  0  0  0
  147.5372  140.3932  153.8522 N   0  0  0  0  0  0  0  0  0  0  0  0
  147.3146  140.0708  152.5210 C   0  0  0  0  0  0  0  0  0  0  0  0
  146.6247  138.9750  152.1247 C   0  0  0  0  0  0  0  0  0  0  0  0
  146.0677  138.0561  153.1115 C   0  0  0  0  0  0  0  0  0  0  0  0
  145.4289  137.0388  152.8522 O   0  0  0  0  0  0  0  0  0  0  0  0
  146.3137  138.4144  154.4397 N   0  0  0  0  0  0  0  0  0  0  0  0
  147.0255  139.5409  154.8547 C   0  0  0  0  0  0  0  0  0  0  0  0
  147.1891  139.7616  156.0542 O   0  0  0  0  0  0  0  0  0  0  0  0
  151.0935  142.9336  158.0781 C   0  0  0  0  0  0  0  0  0  0  0  0
  149.7560  143.5452  158.5585 C   0  0  0  0  0  0  0  0  0  0  0  0
  149.8987  144.3534  159.8604 C   0  0  0  0  0  0  0  0  0  0  0  0
  150.9446  145.4663  159.7144 C   0  0  0  0  0  0  0  0  0  0  0  0
  152.2764  144.9136  159.1905 C   0  0  0  0  0  0  0  0  0  0  0  0
  152.0704  144.1091  157.8967 C   0  0  0  0  0  0  0  0  0  0  0  0
  145.9484  137.8070  155.1586 H   0  0  0  0  0  0  0  0  0  0  0  0
  154.1509  142.1460  161.9493 H   0  0  0  0  0  0  0  0  0  0  0  0
  154.1119  140.6090  161.0866 H   0  0  0  0  0  0  0  0  0  0  0  0
  152.6061  141.4360  161.4848 H   0  0  0  0  0  0  0  0  0  0  0  0
  153.2372  143.3198  159.9400 H   0  0  0  0  0  0  0  0  0  0  0  0
  154.7333  142.4859  159.5338 H   0  0  0  0  0  0  0  0  0  0  0  0
  151.2024  141.6875  159.9250 H   0  0  0  0  0  0  0  0  0  0  0  0
  151.4134  139.8833  157.6587 H   0  0  0  0  0  0  0  0  0  0  0  0
  149.8464  140.5916  158.2026 H   0  0  0  0  0  0  0  0  0  0  0  0
  151.9748  141.8515  156.3573 H   0  0  0  0  0  0  0  0  0  0  0  0
  149.2342  142.8382  156.2310 H   0  0  0  0  0  0  0  0  0  0  0  0
  147.6862  142.2936  154.7620 H   0  0  0  0  0  0  0  0  0  0  0  0
  148.6176  142.1255  153.3082 H   0  0  0  0  0  0  0  0  0  0  0  0
  147.7136  140.7206  151.7551 H   0  0  0  0  0  0  0  0  0  0  0  0
  146.4857  138.7762  151.0718 H   0  0  0  0  0  0  0  0  0  0  0  0
  149.3454  144.1986  157.7873 H   0  0  0  0  0  0  0  0  0  0  0  0
  149.0068  142.7685  158.7125 H   0  0  0  0  0  0  0  0  0  0  0  0
  148.9363  144.7848  160.1367 H   0  0  0  0  0  0  0  0  0  0  0  0
  150.1828  143.6911  160.6785 H   0  0  0  0  0  0  0  0  0  0  0  0
  150.5712  146.2232  159.0234 H   0  0  0  0  0  0  0  0  0  0  0  0
  151.0956  145.9677  160.6706 H   0  0  0  0  0  0  0  0  0  0  0  0
  152.9733  145.7330  159.0128 H   0  0  0  0  0  0  0  0  0  0  0  0
  152.7345  144.2766  159.9481 H   0  0  0  0  0  0  0  0  0  0  0  0
  153.0381  143.7560  157.5396 H   0  0  0  0  0  0  0  0  0  0  0  0
  151.7042  144.7774  157.1162 H   0  0  0  0  0  0  0  0  0  0  0  0
  1  2  1  0  0  0  0
  1 26  1  0  0  0  0
  1 27  1  0  0  0  0
  1 28  1  0  0  0  0
  2  3  1  0  0  0  0
  2 29  1  0  0  0  0
  2 30  1  0  0  0  0
  3  4  1  0  0  0  0
  4 19  1  0  0  0  0
  4  5  1  0  0  0  0
  4 31  1  0  0  0  0
  5  6  1  0  0  0  0
  5 32  1  0  0  0  0
  5 33  1  0  0  0  0
  6  7  1  0  0  0  0
  6 19  1  0  0  0  0
  6 34  1  0  0  0  0
  7  8  1  0  0  0  0
  7 35  1  0  0  0  0
  8  9  2  0  0  0  0
  8 10  1  0  0  0  0
 10 11  1  0  0  0  0
 10 36  1  0  0  0  0
 10 37  1  0  0  0  0
 11 17  1  0  0  0  0
 11 12  1  0  0  0  0
 12 13  2  0  0  0  0
 12 38  1  0  0  0  0
 13 14  1  0  0  0  0
 13 39  1  0  0  0  0
 14 15  2  0  0  0  0
 14 16  1  0  0  0  0
 16 25  1  0  0  0  0
 16 17  1  0  0  0  0
 17 18  2  0  0  0  0
 19 24  1  0  0  0  0
 19 20  1  0  0  0  0
 20 21  1  0  0  0  0
 20 40  1  0  0  0  0
 20 41  1  0  0  0  0
 21 22  1  0  0  0  0
 21 42  1  0  0  0  0
 21 43  1  0  0  0  0
 22 23  1  0  0  0  0
 22 44  1  0  0  0  0
 22 45  1  0  0  0  0
 23 24  1  0  0  0  0
 23 46  1  0  0  0  0
 23 47  1  0  0  0  0
 24 48  1  0  0  0  0
 24 49  1  0  0  0  0
M  END
> <s_m_source_file>
AV-unprocessed.smi

> <i_m_source_file_index>
701

> <i_lp_mmshare_version>
43012

> <i_f3d_flags>
0

> <s_epik_input>
W0NIMl0xW0NIMl1bQ0gyXVtDSDJdW0NIMl1DMTJbQ0BIXShPW0NIMl1bQ0gzXSlbQ0gyXVtDQEhdMltOSF1DKD1PKVtDSDJdbjNbY0hdW2NIXWMoPU8pW25IXWMzPU8=

> <s_epik_cmdline>
J2VwaWtfcHl0aG9uJywgJy1waCcsICc3LjAnLCAnLXRuJywgJzgnLCAnLW1hJywgJzIwMCcsICctbWV0YWxfYmluZGluZycsICctaW1hZScsICc8aW5maWxlLm1hZT4nLCAnLW9tYWUnLCAnPG91dGZpbGUubWFlPic=

> <r_lp_tautomer_probability>
0.999537

> <r_epik_Ionization_Penalty>
0.00304597

> <r_epik_Ionization_Penalty_Charging>
0.00304595

> <r_epik_Ionization_Penalty_Neutral>
1.88422e-08

> <r_epik_State_Penalty>
0.00214084

> <r_epik_Charging_Adjusted_Penalty>
0.00518679

> <i_epik_Tot_Q>
0

> <i_epik_Tot_abs_Q>
0

> <r_epik_Metal_State_Penalty>
0.361872

> <b_epik_Metal_Only>
0

> <s_lp_Force_Field>
OPLS_2005

> <r_lp_Energy>
27.2214

> <b_lp_Chiralities_Consistent>
1

> <s_lp_Variant>
AV-unprocessed.smi:701-1

> <Gold.Version>
5.8.1

> <Gold.Id.Protein>
6NUR|6NUR_protein|mol2

> <Gold.PLP.Fitness>
54.1506

> <Gold.PLP.PLP>
-47.6792

> <Gold.PLP.part.hbond>
-2.0000

> <Gold.PLP.part.metal>
0.0000

> <Gold.PLP.part.buried>
-0.9114

> <Gold.PLP.part.nonpolar>
-45.4078

> <Gold.PLP.part.repulsive>
0.3863

> <Gold.PLP.ligand.clash>
0.0000

> <Gold.PLP.ligand.torsion>
0.6241

> <Gold.PLP.Chemscore.Hbond>
1.8320

> <Gold.PLP.Chemscore.CHOScore>
0.6275

> <Gold.PLP.Chemscore.Metal>
0.0000

> <Gold.Chemscore.Hbonds>
donor molecule, donor type, donor heavy atom, donor atom, acceptor molecule, acceptor atom, score
      L1  H     7    35       P1  8028  0.82
      P1  H  7989  7998       L1     9  1.00
      L1  C    12    38       P1  7957  0.62

> <Gold.PLP.Chemscore.Internal.Correction>
0.3410

> <Gold.Rescore>
     Score         DG    S(hbond)    S(metal)    S(lipo)     H(rot)  DE(clash)    DE(int)     intcor
     18.41     -20.27       1.56        0.00     127.77       2.09       1.17       0.69       ----

> <Gold.Chemscore.Fitness>
18.4093

> <Gold.Chemscore.DG>
-20.2733

> <Gold.Chemscore.ZeroCoef>
-5.4800

> <Gold.Chemscore.Hbond>
1.5579

> <Gold.Chemscore.Metal>
0.0000

> <Gold.Chemscore.Lipo>
127.7655

> <Gold.Chemscore.Internal_Hbond>
0.0000

> <Gold.Chemscore.DEClash>
1.1726

> <Gold.Chemscore.DEInternal>
0.6913

> <Gold.Chemscore.Rot>
2.0933

> <Gold.Chemscore.Internal.Correction>
   9.000000E+99

> <Gold.Chemscore.Hbonds>
donor molecule, donor type, donor heavy atom, donor atom, acceptor molecule, acceptor atom, score
      L1  H     7    35       P1  8028  0.79
      P1  H  7989  7998       L1     9  0.68

> <Gold.Chemscore.Hbond.Weighted>
-5.2035

> <Gold.Chemscore.Metal.Weighted>
-0.0000

> <Gold.Chemscore.Lipo.Weighted>
-14.9486

> <Gold.Chemscore.Internal_Hbond.Weighted>
0.0000

> <Gold.Chemscore.DEClash.Weighted>
1.1726

> <Gold.Chemscore.DEInternal.Weighted>
0.6913

> <Gold.Chemscore.Rot.Weighted>
5.3588

> <Gold.Chemscore.Internal.Correction.Weighted>
   9.000000E+99

> <Gold.Protein.RotatedTorsions>
[ 6907 6896 6895 6894 ] final   25.75 input  -60.11 | X-H torsion
[ 7974 7965 7964 7962 ] final   29.64 input  175.53 | X-H torsion
[ 8008 7997 7996 7995 ] final  162.96 input   59.86 | X-H torsion
[ 10167 10162 10161 10158 ] final  108.94 input  -65.29 | X-H torsion
[ 10718 10713 10712 10709 ] final  155.97 input   66.30 | X-H torsion
[ 10763 10752 10751 10750 ] final  -95.00 input  -60.55 | X-H torsion
[ 11005 11000 10999 10996 ] final  -24.71 input  -57.11 | X-H torsion

> <Gold.Protein.ActiveResidues>
 VAL166  LYS551  ARG553  GLY616  TRP617  ASP618  TYR619  PRO620  LYS621  CYS622 
 ASP623  PHE694  ASN695  SER759  ASP760  ASP761  ALA762  ILE779  LEU786  VAL792 
 PHE793  MET794  SER795  GLU796  ALA797  LYS798  CYS799  TRP800  GLU811  SER814 

> <Gold.Protein.RotatedAtoms>
  151.9772  135.0047  160.0555 H   0  0  0  0  0  0  0  0  0  0  0  0  # atno 6907 bound_to 6896
  152.1729  133.4651  159.4927 H   0  0  0  0  0  0  0  0  0  0  0  0  # atno 6908 bound_to 6896
  150.6904  134.1848  159.4305 H   0  0  0  0  0  0  0  0  0  0  0  0  # atno 6909 bound_to 6896
  146.1659  139.6894  142.9001 H   0  0  0  0  0  0  0  0  0  0  0  0  # atno 7974 bound_to 7965
  156.1993  140.1736  156.7933 H   0  0  0  0  0  0  0  0  0  0  0  0  # atno 8008 bound_to 7997
  154.5570  140.0706  156.8790 H   0  0  0  0  0  0  0  0  0  0  0  0  # atno 8009 bound_to 7997
  155.2919  140.3356  155.4254 H   0  0  0  0  0  0  0  0  0  0  0  0  # atno 8010 bound_to 7997
  139.6806  144.7118  151.1522 H   0  0  0  0  0  0  0  0  0  0  0  0  # atno 10167 bound_to 10162
  157.2112  131.0698  151.1968 H   0  0  0  0  0  0  0  0  0  0  0  0  # atno 10718 bound_to 10713
  154.7107  135.5137  153.8663 H   0  0  0  0  0  0  0  0  0  0  0  0  # atno 10763 bound_to 10752
  153.0778  135.6622  154.0117 H   0  0  0  0  0  0  0  0  0  0  0  0  # atno 10764 bound_to 10752
  153.9959  135.3015  155.3387 H   0  0  0  0  0  0  0  0  0  0  0  0  # atno 10765 bound_to 10752
  140.8870  133.7614  156.0373 H   0  0  0  0  0  0  0  0  0  0  0  0  # atno 11005 bound_to 11000
  145.4468  141.0426  143.2827 LP  0  0  0  0  0  0  0  0  0  0  0  0  # atno 17320 bound_to 7965
  144.8092  139.5994  143.7037 LP  0  0  0  0  0  0  0  0  0  0  0  0  # atno 17321 bound_to 7965
  140.7651  143.5705  150.9001 LP  0  0  0  0  0  0  0  0  0  0  0  0  # atno 17342 bound_to 10162
  139.9376  143.6419  152.3061 LP  0  0  0  0  0  0  0  0  0  0  0  0  # atno 17343 bound_to 10162
  157.3670  130.7161  149.6539 LP  0  0  0  0  0  0  0  0  0  0  0  0  # atno 17370 bound_to 10713
  155.9690  130.4209  150.4446 LP  0  0  0  0  0  0  0  0  0  0  0  0  # atno 17371 bound_to 10713
  140.8393  134.3086  157.5319 LP  0  0  0  0  0  0  0  0  0  0  0  0  # atno 17394 bound_to 11000
  139.8725  134.9407  156.3776 LP  0  0  0  0  0  0  0  0  0  0  0  0  # atno 17395 bound_to 11000

$$$$
