AV-unprocessed.smi:658|AV-procd|sdf|3235|dock5
  -GOLD-   22720 0183D 1   1.00000     0.00000
 Structure written by MMmdl.
 37 37  0  0  0  0  0  0  0  0  3 V2000
  151.0578  144.4295  158.3329 C   0  0  0  0  0  0  0  0  0  0  0  0
  150.6260  142.9520  158.3130 C   0  0  1  0  0  0  0  0  0  0  0  0
  149.9421  142.6691  157.0320 N   0  3  0  0  0  0  0  0  0  0  0  0
  148.9140  141.6108  157.0967 C   0  0  0  0  0  0  0  0  0  0  0  0
  148.4064  141.2507  155.6963 C   0  0  0  0  0  0  0  0  0  0  0  0
  149.5500  141.0383  154.6908 C   0  0  0  0  0  0  0  0  0  0  0  0
  150.3012  139.3625  154.8513 S   0  0  0  0  0  0  0  0  0  0  0  0
  149.6299  138.6098  153.5920 N   0  5  0  0  0  0  0  0  0  0  0  0
  151.7525  139.5412  154.6900 O   0  0  0  0  0  0  0  0  0  0  0  0
  149.8140  138.8298  156.1320 O   0  0  0  0  0  0  0  0  0  0  0  0
  151.8087  141.9681  158.5197 C   0  0  2  0  0  0  0  0  0  0  0  0
  151.3853  140.4914  158.3970 C   0  0  0  0  0  0  0  0  0  0  0  0
  152.4854  142.1879  159.7916 N   0  0  0  0  0  0  0  0  0  0  0  0
  153.6340  141.5874  160.2656 C   0  0  0  0  0  0  0  0  0  0  0  0
  153.8889  142.1108  161.5006 C   0  0  0  0  0  0  0  0  0  0  0  0
  152.8248  143.0329  161.7036 C   0  0  0  0  0  0  0  0  0  0  0  0
  151.9866  143.0764  160.6808 N   0  0  0  0  0  0  0  0  0  0  0  0
  151.4765  144.7170  159.2975 H   0  0  0  0  0  0  0  0  0  0  0  0
  150.2083  145.0875  158.1473 H   0  0  0  0  0  0  0  0  0  0  0  0
  151.8095  144.6325  157.5694 H   0  0  0  0  0  0  0  0  0  0  0  0
  149.9169  142.8153  159.1317 H   0  0  0  0  0  0  0  0  0  0  0  0
  149.5035  143.5175  156.7039 H   0  0  0  0  0  0  0  0  0  0  0  0
  149.3199  140.7235  157.5848 H   0  0  0  0  0  0  0  0  0  0  0  0
  148.0853  141.9648  157.7112 H   0  0  0  0  0  0  0  0  0  0  0  0
  147.8177  140.3351  155.7618 H   0  0  0  0  0  0  0  0  0  0  0  0
  147.7264  142.0256  155.3404 H   0  0  0  0  0  0  0  0  0  0  0  0
  149.1766  141.1227  153.6707 H   0  0  0  0  0  0  0  0  0  0  0  0
  150.3401  141.7800  154.8113 H   0  0  0  0  0  0  0  0  0  0  0  0
  149.7285  139.2144  152.7677 H   0  0  0  0  0  0  0  0  0  0  0  0
  152.5457  142.1625  157.7386 H   0  0  0  0  0  0  0  0  0  0  0  0
  151.0056  140.2639  157.4008 H   0  0  0  0  0  0  0  0  0  0  0  0
  150.6044  140.2375  159.1146 H   0  0  0  0  0  0  0  0  0  0  0  0
  152.2308  139.8266  158.5784 H   0  0  0  0  0  0  0  0  0  0  0  0
  154.1709  140.8467  159.6916 H   0  0  0  0  0  0  0  0  0  0  0  0
  154.7098  141.8708  162.1600 H   0  0  0  0  0  0  0  0  0  0  0  0
  152.6378  143.6676  162.5571 H   0  0  0  0  0  0  0  0  0  0  0  0
  150.6395  142.3895  156.3569 H   0  0  0  0  0  0  0  0  0  0  0  0
  1  2  1  0  0  0  0
  1 18  1  0  0  0  0
  1 19  1  0  0  0  0
  1 20  1  0  0  0  0
  2  3  1  0  0  0  0
  2 11  1  0  0  0  0
  2 21  1  0  0  0  0
  3  4  1  0  0  0  0
  3 22  1  0  0  0  0
  3 37  1  0  0  0  0
  4  5  1  0  0  0  0
  4 23  1  0  0  0  0
  4 24  1  0  0  0  0
  5  6  1  0  0  0  0
  5 25  1  0  0  0  0
  5 26  1  0  0  0  0
  6  7  1  0  0  0  0
  6 27  1  0  0  0  0
  6 28  1  0  0  0  0
  7  8  1  0  0  0  0
  7  9  2  0  0  0  0
  7 10  2  0  0  0  0
  8 29  1  0  0  0  0
 11 12  1  0  0  0  0
 11 13  1  0  0  0  0
 11 30  1  0  0  0  0
 12 31  1  0  0  0  0
 12 32  1  0  0  0  0
 12 33  1  0  0  0  0
 13 17  1  0  0  0  0
 13 14  1  0  0  0  0
 14 15  2  0  0  0  0
 14 34  1  0  0  0  0
 15 16  1  0  0  0  0
 15 35  1  0  0  0  0
 16 17  2  0  0  0  0
 16 36  1  0  0  0  0
M  CHG  1   3   1
M  CHG  1   8  -1
M  END
> <s_m_source_file>
AV-unprocessed.smi

> <i_m_source_file_index>
658

> <i_lp_mmshare_version>
43012

> <i_f3d_flags>
0

> <s_epik_input>
bjFbY0hdW2NIXVtjSF1uMVtDQEBIXShbQ0gzXSlbQ0BIXShbQ0gzXSlbTkhdW0NIMl1bQ0gyXVtDSDJdUyg9TykoPU8pW05IMl0=

> <s_epik_cmdline>
J2VwaWtfcHl0aG9uJywgJy1waCcsICc3LjAnLCAnLXRuJywgJzgnLCAnLW1hJywgJzIwMCcsICctbWV0YWxfYmluZGluZycsICctaW1hZScsICc8aW5maWxlLm1hZT4nLCAnLW9tYWUnLCAnPG91dGZpbGUubWFlPic=

> <r_lp_tautomer_probability>
1

> <r_epik_Ionization_Penalty>
4.63642

> <r_epik_Ionization_Penalty_Charging>
4.63641

> <r_epik_Ionization_Penalty_Neutral>
1.08396e-05

> <r_epik_State_Penalty>
4.63466

> <r_epik_Charging_Adjusted_Penalty>
9.27106

> <i_epik_Tot_Q>
0

> <i_epik_Tot_abs_Q>
2

> <r_epik_Metal_State_Penalty>
0.890424

> <b_epik_Metal_Only>
1

> <s_lp_Force_Field>
OPLS_2005

> <r_lp_Energy>
-2.21025

> <b_lp_Chiralities_Consistent>
1

> <s_lp_Variant>
AV-unprocessed.smi:658-6

> <Gold.Version>
5.8.1

> <Gold.Id.Protein>
6NUR|6NUR_protein|mol2

> <Gold.PLP.Fitness>
49.4151

> <Gold.PLP.PLP>
-39.2733

> <Gold.PLP.part.hbond>
-4.4227

> <Gold.PLP.part.metal>
0.0000

> <Gold.PLP.part.buried>
-6.0359

> <Gold.PLP.part.nonpolar>
-29.2130

> <Gold.PLP.part.repulsive>
0.1495

> <Gold.PLP.ligand.clash>
0.0000

> <Gold.PLP.ligand.torsion>
0.8718

> <Gold.PLP.Chemscore.Hbond>
3.9000

> <Gold.PLP.Chemscore.CHOScore>
0.0000

> <Gold.PLP.Chemscore.Metal>
0.0000

> <Gold.Chemscore.Hbonds>
donor molecule, donor type, donor heavy atom, donor atom, acceptor molecule, acceptor atom, score
      L1  H     3    22       P1  8028  2.00
      L1  H     8    29       P1  7957  1.00
      P1  H  7989  7998       L1     9  0.85

> <Gold.PLP.Chemscore.Internal.Correction>
0.1853

> <Gold.Rescore>
     Score         DG    S(hbond)    S(metal)    S(lipo)     H(rot)  DE(clash)    DE(int)     intcor
     14.34     -16.60       2.97        0.00      76.91       3.04       0.00       2.26       ----

> <Gold.Chemscore.Fitness>
14.3428

> <Gold.Chemscore.DG>
-16.6032

> <Gold.Chemscore.ZeroCoef>
-5.4800

> <Gold.Chemscore.Hbond>
2.9668

> <Gold.Chemscore.Metal>
0.0000

> <Gold.Chemscore.Lipo>
76.9148

> <Gold.Chemscore.Internal_Hbond>
0.0000

> <Gold.Chemscore.DEClash>
0.0000

> <Gold.Chemscore.DEInternal>
2.2604

> <Gold.Chemscore.Rot>
3.0409

> <Gold.Chemscore.Internal.Correction>
   9.000000E+99

> <Gold.Chemscore.Hbonds>
donor molecule, donor type, donor heavy atom, donor atom, acceptor molecule, acceptor atom, score
      L1  H     3    22       P1  8028  0.99
      L1  H     8    29       P1  7957  0.98
      P1  H  7989  7998       L1     9  0.14

> <Gold.Chemscore.Hbond.Weighted>
-9.9090

> <Gold.Chemscore.Metal.Weighted>
-0.0000

> <Gold.Chemscore.Lipo.Weighted>
-8.9990

> <Gold.Chemscore.Internal_Hbond.Weighted>
0.0000

> <Gold.Chemscore.DEClash.Weighted>
0.0000

> <Gold.Chemscore.DEInternal.Weighted>
2.2604

> <Gold.Chemscore.Rot.Weighted>
7.7848

> <Gold.Chemscore.Internal.Correction.Weighted>
   9.000000E+99

> <Gold.Protein.RotatedTorsions>
[ 6907 6896 6895 6894 ] final  110.85 input  -60.11 | X-H torsion
[ 7974 7965 7964 7962 ] final   69.80 input  175.53 | X-H torsion
[ 8008 7997 7996 7995 ] final   20.74 input   59.86 | X-H torsion
[ 10167 10162 10161 10158 ] final -143.81 input  -65.29 | X-H torsion
[ 10718 10713 10712 10709 ] final  -13.79 input   66.30 | X-H torsion
[ 10763 10752 10751 10750 ] final  164.02 input  -60.55 | X-H torsion
[ 11005 11000 10999 10996 ] final    1.66 input  -57.11 | X-H torsion

> <Gold.Protein.ActiveResidues>
 VAL166  LYS551  ARG553  GLY616  TRP617  ASP618  TYR619  PRO620  LYS621  CYS622 
 ASP623  PHE694  ASN695  SER759  ASP760  ASP761  ALA762  ILE779  LEU786  VAL792 
 PHE793  MET794  SER795  GLU796  ALA797  LYS798  CYS799  TRP800  GLU811  SER814 

> <Gold.Protein.RotatedAtoms>
  152.4999  133.8741  159.7312 H   0  0  0  0  0  0  0  0  0  0  0  0  # atno 6907 bound_to 6896
  150.9220  133.6860  159.2836 H   0  0  0  0  0  0  0  0  0  0  0  0  # atno 6908 bound_to 6896
  151.4234  135.1005  159.9673 H   0  0  0  0  0  0  0  0  0  0  0  0  # atno 6909 bound_to 6896
  145.7860  139.2910  143.1238 H   0  0  0  0  0  0  0  0  0  0  0  0  # atno 7974 bound_to 7965
  154.9402  140.3052  155.5124 H   0  0  0  0  0  0  0  0  0  0  0  0  # atno 8008 bound_to 7997
  156.2996  140.2338  156.4407 H   0  0  0  0  0  0  0  0  0  0  0  0  # atno 8009 bound_to 7997
  154.8153  140.0426  157.1361 H   0  0  0  0  0  0  0  0  0  0  0  0  # atno 8010 bound_to 7997
  139.7958  143.7902  152.2654 H   0  0  0  0  0  0  0  0  0  0  0  0  # atno 10167 bound_to 10162
  156.6252  130.4886  149.6149 H   0  0  0  0  0  0  0  0  0  0  0  0  # atno 10718 bound_to 10713
  154.3026  135.2759  155.2604 H   0  0  0  0  0  0  0  0  0  0  0  0  # atno 10763 bound_to 10752
  154.5034  135.5802  153.6552 H   0  0  0  0  0  0  0  0  0  0  0  0  # atno 10764 bound_to 10752
  152.9898  135.6163  154.3197 H   0  0  0  0  0  0  0  0  0  0  0  0  # atno 10765 bound_to 10752
  140.6129  133.9731  155.8186 H   0  0  0  0  0  0  0  0  0  0  0  0  # atno 11005 bound_to 11000
  146.0026  140.8507  143.0011 LP  0  0  0  0  0  0  0  0  0  0  0  0  # atno 17320 bound_to 7965
  144.6789  140.2374  143.7348 LP  0  0  0  0  0  0  0  0  0  0  0  0  # atno 17321 bound_to 7965
  139.8007  144.7375  150.9828 LP  0  0  0  0  0  0  0  0  0  0  0  0  # atno 17342 bound_to 10162
  140.7820  143.4348  151.0640 LP  0  0  0  0  0  0  0  0  0  0  0  0  # atno 17343 bound_to 10162
  156.2279  130.6777  151.1434 LP  0  0  0  0  0  0  0  0  0  0  0  0  # atno 17370 bound_to 10713
  157.7216  131.0678  150.6111 LP  0  0  0  0  0  0  0  0  0  0  0  0  # atno 17371 bound_to 10713
  141.0795  134.0083  157.3407 LP  0  0  0  0  0  0  0  0  0  0  0  0  # atno 17394 bound_to 11000
  139.9184  135.0199  156.7972 LP  0  0  0  0  0  0  0  0  0  0  0  0  # atno 17395 bound_to 11000

$$$$
