AV-unprocessed.smi:1056|AV-procd|sdf|4639|dock2
  -GOLD-   22720 3143D 1   1.00000     0.00000
 Structure written by MMmdl.
 44 46  0  0  0  0  0  0  0  0  1 V2000
  151.8003  143.8213  159.8669 C   0  0  0  0  0  0  0  0  0  0  0  0
  152.7810  142.7774  160.3717 C   0  0  0  0  0  0  0  0  0  0  0  0
  153.3728  141.8868  159.4477 C   0  0  0  0  0  0  0  0  0  0  0  0
  154.2904  140.9026  159.8765 C   0  0  0  0  0  0  0  0  0  0  0  0
  154.9801  139.9426  159.1556 N   0  0  0  0  0  0  0  0  0  0  0  0
  155.6721  139.3343  160.1144 C   0  0  0  0  0  0  0  0  0  0  0  0
  155.5121  139.7865  161.3727 N   0  0  0  0  0  0  0  0  0  0  0  0
  156.1594  139.2808  162.5702 C   0  0  0  0  0  0  0  0  0  0  0  0
  157.0554  138.0595  162.2868 C   0  0  1  0  0  0  0  0  0  0  0  0
  158.3216  138.2615  162.8845 O   0  0  0  0  0  0  0  0  0  0  0  0
  156.4424  136.7632  162.8565 C   0  0  0  0  0  0  0  0  0  0  0  0
  155.1109  136.3994  162.3403 N   0  0  0  0  0  0  0  0  0  0  0  0
  154.0111  137.1599  162.9447 C   0  0  0  0  0  0  0  0  0  0  0  0
  153.7988  136.8491  164.4402 C   0  0  0  0  0  0  0  0  0  0  0  0
  153.9206  135.4216  164.7341 N   0  0  0  0  0  0  0  0  0  0  0  0
  154.4366  134.5059  163.8958 C   0  0  0  0  0  0  0  0  0  0  0  0
  154.5666  133.3284  164.2214 O   0  0  0  0  0  0  0  0  0  0  0  0
  154.8428  134.9595  162.4789 C   0  0  0  0  0  0  0  0  0  0  0  0
  154.6009  140.8319  161.2661 C   0  0  0  0  0  0  0  0  0  0  0  0
  154.0191  141.7129  162.1947 C   0  0  0  0  0  0  0  0  0  0  0  0
  153.1051  142.6907  161.7495 C   0  0  0  0  0  0  0  0  0  0  0  0
  152.4837  143.6384  162.7601 C   0  0  0  0  0  0  0  0  0  0  0  0
  151.6852  143.7689  158.7838 H   0  0  0  0  0  0  0  0  0  0  0  0
  152.1454  144.8246  160.1178 H   0  0  0  0  0  0  0  0  0  0  0  0
  150.8181  143.6699  160.3154 H   0  0  0  0  0  0  0  0  0  0  0  0
  153.1265  141.9523  158.3982 H   0  0  0  0  0  0  0  0  0  0  0  0
  156.3358  138.5121  159.8901 H   0  0  0  0  0  0  0  0  0  0  0  0
  156.7388  140.0868  163.0224 H   0  0  0  0  0  0  0  0  0  0  0  0
  155.3825  139.0169  163.2888 H   0  0  0  0  0  0  0  0  0  0  0  0
  157.1894  137.9835  161.2088 H   0  0  0  0  0  0  0  0  0  0  0  0
  158.2340  138.9267  163.5503 H   0  0  0  0  0  0  0  0  0  0  0  0
  157.1404  135.9517  162.6443 H   0  0  0  0  0  0  0  0  0  0  0  0
  156.4144  136.8335  163.9443 H   0  0  0  0  0  0  0  0  0  0  0  0
  154.1351  138.2308  162.7930 H   0  0  0  0  0  0  0  0  0  0  0  0
  153.0915  136.9128  162.4119 H   0  0  0  0  0  0  0  0  0  0  0  0
  154.5344  137.3827  165.0426 H   0  0  0  0  0  0  0  0  0  0  0  0
  152.8190  137.2009  164.7639 H   0  0  0  0  0  0  0  0  0  0  0  0
  153.6328  135.1144  165.6520 H   0  0  0  0  0  0  0  0  0  0  0  0
  154.0206  134.6901  161.8147 H   0  0  0  0  0  0  0  0  0  0  0  0
  155.6975  134.3739  162.1374 H   0  0  0  0  0  0  0  0  0  0  0  0
  154.2780  141.6378  163.2405 H   0  0  0  0  0  0  0  0  0  0  0  0
  152.8212  143.4165  163.7730 H   0  0  0  0  0  0  0  0  0  0  0  0
  151.3968  143.5560  162.7443 H   0  0  0  0  0  0  0  0  0  0  0  0
  152.7573  144.6693  162.5342 H   0  0  0  0  0  0  0  0  0  0  0  0
  1  2  1  0  0  0  0
  1 23  1  0  0  0  0
  1 24  1  0  0  0  0
  1 25  1  0  0  0  0
  2 21  1  0  0  0  0
  2  3  2  0  0  0  0
  3  4  1  0  0  0  0
  3 26  1  0  0  0  0
  4 19  2  0  0  0  0
  4  5  1  0  0  0  0
  5  6  2  0  0  0  0
  6  7  1  0  0  0  0
  6 27  1  0  0  0  0
  7  8  1  0  0  0  0
  7 19  1  0  0  0  0
  8  9  1  0  0  0  0
  8 28  1  0  0  0  0
  8 29  1  0  0  0  0
  9 10  1  0  0  0  0
  9 11  1  0  0  0  0
  9 30  1  0  0  0  0
 10 31  1  0  0  0  0
 11 12  1  0  0  0  0
 11 32  1  0  0  0  0
 11 33  1  0  0  0  0
 12 18  1  0  0  0  0
 12 13  1  0  0  0  0
 13 14  1  0  0  0  0
 13 34  1  0  0  0  0
 13 35  1  0  0  0  0
 14 15  1  0  0  0  0
 14 36  1  0  0  0  0
 14 37  1  0  0  0  0
 15 16  1  0  0  0  0
 15 38  1  0  0  0  0
 16 17  2  0  0  0  0
 16 18  1  0  0  0  0
 18 39  1  0  0  0  0
 18 40  1  0  0  0  0
 19 20  1  0  0  0  0
 20 21  2  0  0  0  0
 20 41  1  0  0  0  0
 21 22  1  0  0  0  0
 22 42  1  0  0  0  0
 22 43  1  0  0  0  0
 22 44  1  0  0  0  0
M  END
> <s_m_source_file>
AV-unprocessed.smi

> <i_m_source_file_index>
1056

> <i_lp_mmshare_version>
43012

> <i_f3d_flags>
0

> <s_epik_input>
W0NIM11jKFtjSF0xKWMoW0NIM10pW2NIXWMoYzEyKW4oW2NIXW4yKVtDSDJdW0NASF0oW09IXSlbQ0gyXU4zW0NIMl1bQ0gyXVtOSF1DKD1PKVtDSDJdMw==

> <s_epik_cmdline>
J2VwaWtfcHl0aG9uJywgJy1waCcsICc3LjAnLCAnLXRuJywgJzgnLCAnLW1hJywgJzIwMCcsICctbWV0YWxfYmluZGluZycsICctaW1hZScsICc8aW5maWxlLm1hZT4nLCAnLW9tYWUnLCAnPG91dGZpbGUubWFlPic=

> <r_epik_Ionization_Penalty>
1.40166

> <r_epik_Ionization_Penalty_Charging>
0

> <r_epik_Ionization_Penalty_Neutral>
1.40166

> <r_epik_State_Penalty>
1.44226

> <r_epik_Charging_Adjusted_Penalty>
1.44226

> <i_epik_Tot_Q>
0

> <i_epik_Tot_abs_Q>
0

> <r_epik_Metal_State_Penalty>
1.50267

> <b_epik_Metal_Only>
0

> <s_lp_Force_Field>
OPLS_2005

> <r_lp_Energy>
31.4444

> <b_lp_Chiralities_Consistent>
1

> <s_lp_Variant>
AV-unprocessed.smi:1056-10

> <Gold.Version>
5.8.1

> <Gold.Id.Protein>
6NUR|6NUR_protein|mol2

> <Gold.PLP.Fitness>
45.3988

> <Gold.PLP.PLP>
-44.1215

> <Gold.PLP.part.hbond>
-2.0000

> <Gold.PLP.part.metal>
0.0000

> <Gold.PLP.part.buried>
-1.0685

> <Gold.PLP.part.nonpolar>
-40.1644

> <Gold.PLP.part.repulsive>
0.1641

> <Gold.PLP.ligand.clash>
0.0000

> <Gold.PLP.ligand.torsion>
0.9046

> <Gold.PLP.Chemscore.Hbond>
1.0000

> <Gold.PLP.Chemscore.CHOScore>
0.0000

> <Gold.PLP.Chemscore.Metal>
0.0000

> <Gold.Chemscore.Hbonds>
donor molecule, donor type, donor heavy atom, donor atom, acceptor molecule, acceptor atom, score
      P1  H  7997  8010       L1     5  0.96

> <Gold.PLP.Chemscore.Internal.Correction>
0.0865

> <Gold.Rescore>
     Score         DG    S(hbond)    S(metal)    S(lipo)     H(rot)  DE(clash)    DE(int)     intcor
     14.45     -15.55       0.93        0.00     110.01       2.31       0.08       1.02       ----

> <Gold.Chemscore.Fitness>
14.4482

> <Gold.Chemscore.DG>
-15.5451

> <Gold.Chemscore.ZeroCoef>
-5.4800

> <Gold.Chemscore.Hbond>
0.9341

> <Gold.Chemscore.Metal>
0.0000

> <Gold.Chemscore.Lipo>
110.0077

> <Gold.Chemscore.Internal_Hbond>
0.0000

> <Gold.Chemscore.DEClash>
0.0779

> <Gold.Chemscore.DEInternal>
1.0190

> <Gold.Chemscore.Rot>
2.3147

> <Gold.Chemscore.Internal.Correction>
   9.000000E+99

> <Gold.Chemscore.Hbonds>
donor molecule, donor type, donor heavy atom, donor atom, acceptor molecule, acceptor atom, score
      P1  H  7997  8010       L1     5  0.90

> <Gold.Chemscore.Hbond.Weighted>
-3.1197

> <Gold.Chemscore.Metal.Weighted>
-0.0000

> <Gold.Chemscore.Lipo.Weighted>
-12.8709

> <Gold.Chemscore.Internal_Hbond.Weighted>
0.0000

> <Gold.Chemscore.DEClash.Weighted>
0.0779

> <Gold.Chemscore.DEInternal.Weighted>
1.0190

> <Gold.Chemscore.Rot.Weighted>
5.9256

> <Gold.Chemscore.Internal.Correction.Weighted>
   9.000000E+99

> <Gold.Protein.RotatedTorsions>
[ 6907 6896 6895 6894 ] final  103.63 input  -60.11 | X-H torsion
[ 7974 7965 7964 7962 ] final  153.16 input  175.53 | X-H torsion
[ 8008 7997 7996 7995 ] final    6.71 input   59.86 | X-H torsion
[ 10167 10162 10161 10158 ] final -108.04 input  -65.29 | X-H torsion
[ 10718 10713 10712 10709 ] final -153.12 input   66.30 | X-H torsion
[ 10763 10752 10751 10750 ] final  151.18 input  -60.55 | X-H torsion
[ 11005 11000 10999 10996 ] final  -10.66 input  -57.11 | X-H torsion

> <Gold.Protein.ActiveResidues>
 VAL166  LYS551  ARG553  GLY616  TRP617  ASP618  TYR619  PRO620  LYS621  CYS622 
 ASP623  PHE694  ASN695  SER759  ASP760  ASP761  ALA762  ILE779  LEU786  VAL792 
 PHE793  MET794  SER795  GLU796  ALA797  LYS798  CYS799  TRP800  GLU811  SER814 

> <Gold.Protein.RotatedAtoms>
  152.5289  133.9796  159.7800 H   0  0  0  0  0  0  0  0  0  0  0  0  # atno 6907 bound_to 6896
  151.0052  133.6009  159.2697 H   0  0  0  0  0  0  0  0  0  0  0  0  # atno 6908 bound_to 6896
  151.3104  135.0799  159.9323 H   0  0  0  0  0  0  0  0  0  0  0  0  # atno 6909 bound_to 6896
  144.8173  139.6763  143.6115 H   0  0  0  0  0  0  0  0  0  0  0  0  # atno 7974 bound_to 7965
  154.7445  140.2755  155.6345 H   0  0  0  0  0  0  0  0  0  0  0  0  # atno 8008 bound_to 7997
  156.2881  140.2690  156.2107 H   0  0  0  0  0  0  0  0  0  0  0  0  # atno 8009 bound_to 7997
  155.0216  140.0371  157.2429 H   0  0  0  0  0  0  0  0  0  0  0  0  # atno 8010 bound_to 7997
  140.1705  143.4047  152.1358 H   0  0  0  0  0  0  0  0  0  0  0  0  # atno 10167 bound_to 10162
  156.4816  130.8306  151.2532 H   0  0  0  0  0  0  0  0  0  0  0  0  # atno 10718 bound_to 10713
  154.0996  135.2846  155.3254 H   0  0  0  0  0  0  0  0  0  0  0  0  # atno 10763 bound_to 10752
  154.6564  135.5350  153.7968 H   0  0  0  0  0  0  0  0  0  0  0  0  # atno 10764 bound_to 10752
  153.0384  135.6523  154.1160 H   0  0  0  0  0  0  0  0  0  0  0  0  # atno 10765 bound_to 10752
  140.7471  133.8623  155.9014 H   0  0  0  0  0  0  0  0  0  0  0  0  # atno 11005 bound_to 11000
  146.2477  139.6133  142.9448 LP  0  0  0  0  0  0  0  0  0  0  0  0  # atno 17320 bound_to 7965
  145.5184  141.0433  143.2449 LP  0  0  0  0  0  0  0  0  0  0  0  0  # atno 17321 bound_to 7965
  139.5340  144.7190  151.4957 LP  0  0  0  0  0  0  0  0  0  0  0  0  # atno 17342 bound_to 10162
  140.6585  143.8548  150.6862 LP  0  0  0  0  0  0  0  0  0  0  0  0  # atno 17343 bound_to 10162
  157.7482  131.0043  150.3070 LP  0  0  0  0  0  0  0  0  0  0  0  0  # atno 17370 bound_to 10713
  156.3515  130.3832  149.7325 LP  0  0  0  0  0  0  0  0  0  0  0  0  # atno 17371 bound_to 10713
  140.9785  134.1437  157.4515 LP  0  0  0  0  0  0  0  0  0  0  0  0  # atno 17394 bound_to 11000
  139.8795  135.0002  156.5999 LP  0  0  0  0  0  0  0  0  0  0  0  0  # atno 17395 bound_to 11000

$$$$
