AV-unprocessed.smi:2191|AV-procd|sdf|8892|dock4
  -GOLD-   2272012 93D 1   1.00000     0.00000
 Structure written by MMmdl.
 36 38  0  0  0  0  0  0  0  0  1 V2000
  150.5050  140.0618  153.7391 O   0  0  0  0  0  0  0  0  0  0  0  0
  149.5238  140.3088  154.7275 C   0  0  2  0  0  0  0  0  0  0  0  0
  148.1610  140.4474  154.0312 C   0  0  0  0  0  0  0  0  0  0  0  0
  147.1421  140.4902  155.0213 O   0  0  0  0  0  0  0  0  0  0  0  0
  146.2567  141.5468  155.0035 C   0  0  0  0  0  0  0  0  0  0  0  0
  145.3529  141.6410  156.0820 C   0  0  0  0  0  0  0  0  0  0  0  0
  144.4144  142.6889  156.1474 C   0  0  0  0  0  0  0  0  0  0  0  0
  144.3703  143.6579  155.1283 C   0  0  0  0  0  0  0  0  0  0  0  0
  145.2650  143.5757  154.0451 C   0  0  0  0  0  0  0  0  0  0  0  0
  146.2044  142.5279  153.9805 C   0  0  0  0  0  0  0  0  0  0  0  0
  149.9024  141.5836  155.5065 C   0  0  0  0  0  0  0  0  0  0  0  0
  150.9385  141.3481  156.4968 N   0  0  0  0  0  0  0  0  0  0  0  0
  151.8253  140.3345  156.5150 C   0  0  0  0  0  0  0  0  0  0  0  0
  152.6946  140.3026  157.5210 N   0  0  0  0  0  0  0  0  0  0  0  0
  152.3289  141.4268  158.2414 C   0  0  0  0  0  0  0  0  0  0  0  0
  152.8617  141.9640  159.4353 C   0  0  0  0  0  0  0  0  0  0  0  0
  152.3160  143.1374  159.9967 C   0  0  0  0  0  0  0  0  0  0  0  0
  151.2335  143.7919  159.3736 C   0  0  0  0  0  0  0  0  0  0  0  0
  150.6871  143.2766  158.1825 C   0  0  0  0  0  0  0  0  0  0  0  0
  151.2322  142.1038  157.6270 C   0  0  0  0  0  0  0  0  0  0  0  0
  150.0703  139.9619  152.9058 H   0  0  0  0  0  0  0  0  0  0  0  0
  149.4986  139.4660  155.4197 H   0  0  0  0  0  0  0  0  0  0  0  0
  148.1345  141.3837  153.4711 H   0  0  0  0  0  0  0  0  0  0  0  0
  148.0046  139.6305  153.3242 H   0  0  0  0  0  0  0  0  0  0  0  0
  145.3799  140.9011  156.8687 H   0  0  0  0  0  0  0  0  0  0  0  0
  143.7287  142.7484  156.9795 H   0  0  0  0  0  0  0  0  0  0  0  0
  143.6516  144.4627  155.1770 H   0  0  0  0  0  0  0  0  0  0  0  0
  145.2316  144.3183  153.2617 H   0  0  0  0  0  0  0  0  0  0  0  0
  146.8743  142.4997  153.1346 H   0  0  0  0  0  0  0  0  0  0  0  0
  150.2422  142.3616  154.8218 H   0  0  0  0  0  0  0  0  0  0  0  0
  149.0278  141.9841  156.0211 H   0  0  0  0  0  0  0  0  0  0  0  0
  151.8329  139.5771  155.7447 H   0  0  0  0  0  0  0  0  0  0  0  0
  153.6912  141.4715  159.9208 H   0  0  0  0  0  0  0  0  0  0  0  0
  152.7308  143.5374  160.9103 H   0  0  0  0  0  0  0  0  0  0  0  0
  150.8230  144.6908  159.8100 H   0  0  0  0  0  0  0  0  0  0  0  0
  149.8603  143.7770  157.7009 H   0  0  0  0  0  0  0  0  0  0  0  0
  1  2  1  0  0  0  0
  1 21  1  0  0  0  0
  2  3  1  0  0  0  0
  2 11  1  0  0  0  0
  2 22  1  0  0  0  0
  3  4  1  0  0  0  0
  3 23  1  0  0  0  0
  3 24  1  0  0  0  0
  4  5  1  0  0  0  0
  5 10  1  0  0  0  0
  5  6  2  0  0  0  0
  6  7  1  0  0  0  0
  6 25  1  0  0  0  0
  7  8  2  0  0  0  0
  7 26  1  0  0  0  0
  8  9  1  0  0  0  0
  8 27  1  0  0  0  0
  9 10  2  0  0  0  0
  9 28  1  0  0  0  0
 10 29  1  0  0  0  0
 11 12  1  0  0  0  0
 11 30  1  0  0  0  0
 11 31  1  0  0  0  0
 12 20  1  0  0  0  0
 12 13  1  0  0  0  0
 13 14  2  0  0  0  0
 13 32  1  0  0  0  0
 14 15  1  0  0  0  0
 15 20  2  0  0  0  0
 15 16  1  0  0  0  0
 16 17  2  0  0  0  0
 16 33  1  0  0  0  0
 17 18  1  0  0  0  0
 17 34  1  0  0  0  0
 18 19  2  0  0  0  0
 18 35  1  0  0  0  0
 19 20  1  0  0  0  0
 19 36  1  0  0  0  0
M  END
> <s_m_source_file>
AV-unprocessed.smi

> <i_m_source_file_index>
2191

> <i_lp_mmshare_version>
43012

> <i_f3d_flags>
0

> <s_epik_input>
W2NIXTFbY0hdW2NIXVtjSF1jKGMxMiluKFtjSF1uMilbQ0gyXVtDQEhdKFtPSF0pW0NIMl1PYzNbY0hdW2NIXVtjSF1bY0hdW2NIXTM=

> <s_epik_cmdline>
J2VwaWtfcHl0aG9uJywgJy1waCcsICc3LjAnLCAnLXRuJywgJzgnLCAnLW1hJywgJzIwMCcsICctbWV0YWxfYmluZGluZycsICctaW1hZScsICc8aW5maWxlLm1hZT4nLCAnLW9tYWUnLCAnPG91dGZpbGUubWFlPic=

> <r_lp_tautomer_probability>
1

> <r_epik_Ionization_Penalty>
0.0640132

> <r_epik_Ionization_Penalty_Charging>
0

> <r_epik_Ionization_Penalty_Neutral>
0.0640132

> <r_epik_State_Penalty>
0.0557325

> <r_epik_Charging_Adjusted_Penalty>
0.0557325

> <i_epik_Tot_Q>
0

> <i_epik_Tot_abs_Q>
0

> <r_epik_Metal_State_Penalty>
5.8435e-05

> <b_epik_Metal_Only>
0

> <s_lp_Force_Field>
OPLS_2005

> <r_lp_Energy>
16.2786

> <b_lp_Chiralities_Consistent>
1

> <s_lp_Variant>
AV-unprocessed.smi:2191-1

> <Gold.Version>
5.8.1

> <Gold.Id.Protein>
6NUR|6NUR_protein|mol2

> <Gold.PLP.Fitness>
51.8542

> <Gold.PLP.PLP>
-44.6660

> <Gold.PLP.part.hbond>
-3.0000

> <Gold.PLP.part.metal>
0.0000

> <Gold.PLP.part.buried>
-5.8578

> <Gold.PLP.part.nonpolar>
-36.2650

> <Gold.PLP.part.repulsive>
0.0763

> <Gold.PLP.ligand.clash>
0.0000

> <Gold.PLP.ligand.torsion>
0.9189

> <Gold.PLP.Chemscore.Hbond>
3.0000

> <Gold.PLP.Chemscore.CHOScore>
0.0000

> <Gold.PLP.Chemscore.Metal>
0.0000

> <Gold.Chemscore.Hbonds>
donor molecule, donor type, donor heavy atom, donor atom, acceptor molecule, acceptor atom, score
      L1  H     1    21       P1  7957  1.00
      P1  H  7989  7998       L1     1  0.59
      P1  H  7997  8009       L1    14  0.96

> <Gold.PLP.Chemscore.Internal.Correction>
0.0261

> <Gold.Rescore>
     Score         DG    S(hbond)    S(metal)    S(lipo)     H(rot)  DE(clash)    DE(int)     intcor
     18.21     -19.47       2.23        0.00     104.41       2.22       0.04       1.21       ----

> <Gold.Chemscore.Fitness>
18.2138

> <Gold.Chemscore.DG>
-19.4668

> <Gold.Chemscore.ZeroCoef>
-5.4800

> <Gold.Chemscore.Hbond>
2.2319

> <Gold.Chemscore.Metal>
0.0000

> <Gold.Chemscore.Lipo>
104.4075

> <Gold.Chemscore.Internal_Hbond>
0.0000

> <Gold.Chemscore.DEClash>
0.0437

> <Gold.Chemscore.DEInternal>
1.2093

> <Gold.Chemscore.Rot>
2.2200

> <Gold.Chemscore.Internal.Correction>
   9.000000E+99

> <Gold.Chemscore.Hbonds>
donor molecule, donor type, donor heavy atom, donor atom, acceptor molecule, acceptor atom, score
      L1  H     1    21       P1  7957  1.00
      P1  H  7989  7998       L1     1  0.26
      P1  H  7997  8009       L1    14  0.59

> <Gold.Chemscore.Hbond.Weighted>
-7.4544

> <Gold.Chemscore.Metal.Weighted>
-0.0000

> <Gold.Chemscore.Lipo.Weighted>
-12.2157

> <Gold.Chemscore.Internal_Hbond.Weighted>
0.0000

> <Gold.Chemscore.DEClash.Weighted>
0.0437

> <Gold.Chemscore.DEInternal.Weighted>
1.2093

> <Gold.Chemscore.Rot.Weighted>
5.6832

> <Gold.Chemscore.Internal.Correction.Weighted>
   9.000000E+99

> <Gold.Protein.RotatedTorsions>
[ 6907 6896 6895 6894 ] final   36.60 input  -60.11 | X-H torsion
[ 7974 7965 7964 7962 ] final  -79.18 input  175.53 | X-H torsion
[ 8008 7997 7996 7995 ] final  172.01 input   59.86 | X-H torsion
[ 10167 10162 10161 10158 ] final  173.84 input  -65.29 | X-H torsion
[ 10718 10713 10712 10709 ] final -155.40 input   66.30 | X-H torsion
[ 10763 10752 10751 10750 ] final  -83.07 input  -60.55 | X-H torsion
[ 11005 11000 10999 10996 ] final   39.87 input  -57.11 | X-H torsion

> <Gold.Protein.ActiveResidues>
 VAL166  LYS551  ARG553  GLY616  TRP617  ASP618  TYR619  PRO620  LYS621  CYS622 
 ASP623  PHE694  ASN695  SER759  ASP760  ASP761  ALA762  ILE779  LEU786  VAL792 
 PHE793  MET794  SER795  GLU796  ALA797  LYS798  CYS799  TRP800  GLU811  SER814 

> <Gold.Protein.RotatedAtoms>
  152.1319  134.9128  160.0558 H   0  0  0  0  0  0  0  0  0  0  0  0  # atno 6907 bound_to 6896
  152.0229  133.3901  159.4274 H   0  0  0  0  0  0  0  0  0  0  0  0  # atno 6908 bound_to 6896
  150.6857  134.3527  159.4960 H   0  0  0  0  0  0  0  0  0  0  0  0  # atno 6909 bound_to 6896
  145.5767  140.9456  143.1366 H   0  0  0  0  0  0  0  0  0  0  0  0  # atno 7974 bound_to 7965
  156.1215  140.1497  156.9197 H   0  0  0  0  0  0  0  0  0  0  0  0  # atno 8008 bound_to 7997
  154.4840  140.0871  156.7484 H   0  0  0  0  0  0  0  0  0  0  0  0  # atno 8009 bound_to 7997
  155.4419  140.3431  155.4293 H   0  0  0  0  0  0  0  0  0  0  0  0  # atno 8010 bound_to 7997
  139.5121  144.3215  152.0198 H   0  0  0  0  0  0  0  0  0  0  0  0  # atno 10167 bound_to 10162
  156.5124  130.8441  151.2651 H   0  0  0  0  0  0  0  0  0  0  0  0  # atno 10718 bound_to 10713
  154.5833  135.5569  153.7207 H   0  0  0  0  0  0  0  0  0  0  0  0  # atno 10763 bound_to 10752
  153.0089  135.6325  154.1951 H   0  0  0  0  0  0  0  0  0  0  0  0  # atno 10764 bound_to 10752
  154.1892  135.2883  155.3007 H   0  0  0  0  0  0  0  0  0  0  0  0  # atno 10765 bound_to 10752
  140.1986  134.3898  155.8108 H   0  0  0  0  0  0  0  0  0  0  0  0  # atno 11005 bound_to 11000
  144.7413  139.7442  143.7310 LP  0  0  0  0  0  0  0  0  0  0  0  0  # atno 17320 bound_to 7965
  146.1746  139.4910  142.9906 LP  0  0  0  0  0  0  0  0  0  0  0  0  # atno 17321 bound_to 7965
  140.2657  144.4019  150.6169 LP  0  0  0  0  0  0  0  0  0  0  0  0  # atno 17342 bound_to 10162
  140.6125  143.2170  151.6857 LP  0  0  0  0  0  0  0  0  0  0  0  0  # atno 17343 bound_to 10162
  157.7448  130.9945  150.2710 LP  0  0  0  0  0  0  0  0  0  0  0  0  # atno 17370 bound_to 10713
  156.3227  130.3788  149.7560 LP  0  0  0  0  0  0  0  0  0  0  0  0  # atno 17371 bound_to 10713
  141.2227  133.7082  156.8219 LP  0  0  0  0  0  0  0  0  0  0  0  0  # atno 17394 bound_to 11000
  140.2079  134.8849  157.3242 LP  0  0  0  0  0  0  0  0  0  0  0  0  # atno 17395 bound_to 11000

$$$$
