AV-unprocessed.smi:1643|AV-procd|sdf|6580|dock2
  -GOLD-   22720 7263D 1   1.00000     0.00000
 Structure written by MMmdl.
 55 57  0  0  0  0  0  0  0  0  3 V2000
  148.9623  142.0106  156.6819 C   0  0  0  0  0  0  0  0  0  0  0  0
  149.2218  141.1811  155.4213 C   0  0  0  0  0  0  0  0  0  0  0  0
  150.2953  140.5852  155.3320 O   0  0  0  0  0  0  0  0  0  0  0  0
  148.2674  141.1202  154.4602 N   0  0  0  0  0  0  0  0  0  0  0  0
  147.0384  141.9225  154.5577 C   0  0  0  0  0  0  0  0  0  0  0  0
  145.8418  141.0954  155.0758 C   0  0  0  0  0  0  0  0  0  0  0  0
  145.9905  139.5632  154.9534 C   0  0  0  0  0  0  0  0  0  0  0  0
  146.1071  139.0587  153.5575 N   0  3  2  0  0  0  0  0  0  0  0  0
  146.3204  137.5872  153.5019 C   0  0  0  0  0  0  0  0  0  0  0  0
  145.7073  136.9814  152.2270 C   0  0  1  0  0  0  0  0  0  0  0  0
  146.6903  136.9188  151.2117 O   0  0  0  0  0  0  0  0  0  0  0  0
  145.1485  135.5654  152.4700 C   0  0  0  0  0  0  0  0  0  0  0  0
  146.1938  134.5334  152.4587 N   0  0  0  0  0  0  0  0  0  0  0  0
  146.5733  133.6784  151.4698 C   0  0  0  0  0  0  0  0  0  0  0  0
  147.5904  132.9143  151.9560 N   0  3  0  0  0  0  0  0  0  0  0  0
  147.8658  133.2877  153.2732 C   0  0  0  0  0  0  0  0  0  0  0  0
  148.8045  132.8083  154.1791 C   0  0  0  0  0  0  0  0  0  0  0  0
  148.8315  133.4087  155.4583 C   0  0  0  0  0  0  0  0  0  0  0  0
  149.8478  132.9108  156.4716 C   0  0  0  0  0  0  0  0  0  0  0  0
  147.9326  134.4545  155.7934 C   0  0  0  0  0  0  0  0  0  0  0  0
  147.9707  135.0928  157.1715 C   0  0  0  0  0  0  0  0  0  0  0  0
  146.9852  134.9280  154.8577 C   0  0  0  0  0  0  0  0  0  0  0  0
  146.9734  134.3262  153.6018 C   0  0  0  0  0  0  0  0  0  0  0  0
  147.0180  139.8150  152.6487 C   0  0  0  0  0  0  0  0  0  0  0  0
  148.3717  140.2463  153.2743 C   0  0  0  0  0  0  0  0  0  0  0  0
  147.9914  141.7714  157.1166 H   0  0  0  0  0  0  0  0  0  0  0  0
  148.9976  143.0765  156.4567 H   0  0  0  0  0  0  0  0  0  0  0  0
  149.7214  141.8048  157.4372 H   0  0  0  0  0  0  0  0  0  0  0  0
  147.1721  142.8007  155.1916 H   0  0  0  0  0  0  0  0  0  0  0  0
  146.8129  142.3521  153.5821 H   0  0  0  0  0  0  0  0  0  0  0  0
  145.7030  141.3271  156.1326 H   0  0  0  0  0  0  0  0  0  0  0  0
  144.9276  141.4253  154.5811 H   0  0  0  0  0  0  0  0  0  0  0  0
  146.8413  139.2217  155.5453 H   0  0  0  0  0  0  0  0  0  0  0  0
  145.1150  139.0933  155.4032 H   0  0  0  0  0  0  0  0  0  0  0  0
  147.3787  137.3338  153.5846 H   0  0  0  0  0  0  0  0  0  0  0  0
  145.8461  137.1153  154.3640 H   0  0  0  0  0  0  0  0  0  0  0  0
  144.9008  137.6286  151.8797 H   0  0  0  0  0  0  0  0  0  0  0  0
  146.3959  136.3218  150.5404 H   0  0  0  0  0  0  0  0  0  0  0  0
  144.6451  135.5138  153.4364 H   0  0  0  0  0  0  0  0  0  0  0  0
  144.4015  135.3039  151.7195 H   0  0  0  0  0  0  0  0  0  0  0  0
  146.1443  133.6148  150.4802 H   0  0  0  0  0  0  0  0  0  0  0  0
  149.4854  132.0115  153.9171 H   0  0  0  0  0  0  0  0  0  0  0  0
  150.5078  133.7211  156.7820 H   0  0  0  0  0  0  0  0  0  0  0  0
  150.4689  132.1164  156.0566 H   0  0  0  0  0  0  0  0  0  0  0  0
  149.3457  132.5145  157.3545 H   0  0  0  0  0  0  0  0  0  0  0  0
  147.2051  135.8621  157.2767 H   0  0  0  0  0  0  0  0  0  0  0  0
  148.9394  135.5599  157.3499 H   0  0  0  0  0  0  0  0  0  0  0  0
  147.7981  134.3450  157.9461 H   0  0  0  0  0  0  0  0  0  0  0  0
  146.3024  135.7249  155.1125 H   0  0  0  0  0  0  0  0  0  0  0  0
  147.2138  139.2192  151.7564 H   0  0  0  0  0  0  0  0  0  0  0  0
  146.4749  140.6775  152.2649 H   0  0  0  0  0  0  0  0  0  0  0  0
  148.9658  140.7663  152.5219 H   0  0  0  0  0  0  0  0  0  0  0  0
  148.9149  139.3328  153.5164 H   0  0  0  0  0  0  0  0  0  0  0  0
  145.1900  139.1939  153.1560 H   0  0  0  0  0  0  0  0  0  0  0  0
  148.0613  132.1922  151.4255 H   0  0  0  0  0  0  0  0  0  0  0  0
  1  2  1  0  0  0  0
  1 26  1  0  0  0  0
  1 27  1  0  0  0  0
  1 28  1  0  0  0  0
  2  3  2  0  0  0  0
  2  4  1  0  0  0  0
  4 25  1  0  0  0  0
  4  5  1  0  0  0  0
  5  6  1  0  0  0  0
  5 29  1  0  0  0  0
  5 30  1  0  0  0  0
  6  7  1  0  0  0  0
  6 31  1  0  0  0  0
  6 32  1  0  0  0  0
  7  8  1  0  0  0  0
  7 33  1  0  0  0  0
  7 34  1  0  0  0  0
  8  9  1  0  0  0  0
  8 24  1  0  0  0  0
  8 54  1  0  0  0  0
  9 10  1  0  0  0  0
  9 35  1  0  0  0  0
  9 36  1  0  0  0  0
 10 11  1  0  0  0  0
 10 12  1  0  0  0  0
 10 37  1  0  0  0  0
 11 38  1  0  0  0  0
 12 13  1  0  0  0  0
 12 39  1  0  0  0  0
 12 40  1  0  0  0  0
 13 23  1  0  0  0  0
 13 14  1  0  0  0  0
 14 15  2  0  0  0  0
 14 41  1  0  0  0  0
 15 16  1  0  0  0  0
 15 55  1  0  0  0  0
 16 23  2  0  0  0  0
 16 17  1  0  0  0  0
 17 18  2  0  0  0  0
 17 42  1  0  0  0  0
 18 19  1  0  0  0  0
 18 20  1  0  0  0  0
 19 43  1  0  0  0  0
 19 44  1  0  0  0  0
 19 45  1  0  0  0  0
 20 21  1  0  0  0  0
 20 22  2  0  0  0  0
 21 46  1  0  0  0  0
 21 47  1  0  0  0  0
 21 48  1  0  0  0  0
 22 23  1  0  0  0  0
 22 49  1  0  0  0  0
 24 25  1  0  0  0  0
 24 50  1  0  0  0  0
 24 51  1  0  0  0  0
 25 52  1  0  0  0  0
 25 53  1  0  0  0  0
M  CHG  1   8   1
M  CHG  1  15   1
M  END
> <s_m_source_file>
AV-unprocessed.smi

> <i_m_source_file_index>
1643

> <i_lp_mmshare_version>
43012

> <i_f3d_flags>
0

> <s_epik_input>
W0NIM11DKD1PKU4xW0NIMl1bQ0gyXVtDSDJdTihbQ0gyXVtDSDJdMSlbQ0gyXVtDQEhdKFtPSF0pW0NIMl1uKFtjSF1uMiljKGMyMylbY0hdYyhbQ0gzXSljKFtjSF0zKVtDSDNd

> <s_epik_cmdline>
J2VwaWtfcHl0aG9uJywgJy1waCcsICc3LjAnLCAnLXRuJywgJzgnLCAnLW1hJywgJzIwMCcsICctbWV0YWxfYmluZGluZycsICctaW1hZScsICc8aW5maWxlLm1hZT4nLCAnLW9tYWUnLCAnPG91dGZpbGUubWFlPic=

> <r_epik_Ionization_Penalty>
1.2865

> <r_epik_Ionization_Penalty_Charging>
1.2865

> <r_epik_Ionization_Penalty_Neutral>
2.89706e-06

> <r_epik_State_Penalty>
1.3566

> <r_epik_Charging_Adjusted_Penalty>
2.6431

> <i_epik_Tot_Q>
2

> <i_epik_Tot_abs_Q>
2

> <r_epik_Metal_State_Penalty>
5.37339

> <b_epik_Metal_Only>
0

> <s_lp_Force_Field>
OPLS_2005

> <r_lp_Energy>
57.2213

> <b_lp_Chiralities_Consistent>
1

> <s_lp_Variant>
AV-unprocessed.smi:1643-9

> <Gold.Version>
5.8.1

> <Gold.Id.Protein>
6NUR|6NUR_protein|mol2

> <Gold.PLP.Fitness>
52.1355

> <Gold.PLP.PLP>
-36.5686

> <Gold.PLP.part.hbond>
-5.6986

> <Gold.PLP.part.metal>
0.0000

> <Gold.PLP.part.buried>
9.3040

> <Gold.PLP.part.nonpolar>
-38.8158

> <Gold.PLP.part.repulsive>
0.1450

> <Gold.PLP.ligand.clash>
0.0000

> <Gold.PLP.ligand.torsion>
1.1943

> <Gold.PLP.Chemscore.Hbond>
4.9350

> <Gold.PLP.Chemscore.CHOScore>
1.0000

> <Gold.PLP.Chemscore.Metal>
0.0000

> <Gold.Chemscore.Hbonds>
donor molecule, donor type, donor heavy atom, donor atom, acceptor molecule, acceptor atom, score
      L1  H     8    54       P1 10175  1.69
      L1  H    15    55       P1 10747  1.00
      P1  H  7954  7966       L1    11  0.40
      P1  H  7989  7998       L1     3  0.35

> <Gold.PLP.Chemscore.Internal.Correction>
0.1505

> <Gold.Rescore>
     Score         DG    S(hbond)    S(metal)    S(lipo)     H(rot)  DE(clash)    DE(int)     intcor
     16.15     -20.38       3.32        0.00      80.07       2.17       2.93       1.31       ----

> <Gold.Chemscore.Fitness>
16.1461

> <Gold.Chemscore.DG>
-20.3841

> <Gold.Chemscore.ZeroCoef>
-5.4800

> <Gold.Chemscore.Hbond>
3.3242

> <Gold.Chemscore.Metal>
0.0000

> <Gold.Chemscore.Lipo>
80.0679

> <Gold.Chemscore.Internal_Hbond>
0.0000

> <Gold.Chemscore.DEClash>
2.9274

> <Gold.Chemscore.DEInternal>
1.3106

> <Gold.Chemscore.Rot>
2.1744

> <Gold.Chemscore.Internal.Correction>
   9.000000E+99

> <Gold.Chemscore.Hbonds>
donor molecule, donor type, donor heavy atom, donor atom, acceptor molecule, acceptor atom, score
      L1  H     8    54       P1 10175  0.78
      L1  H    15    55       P1 10747  0.98
      P1  H  7954  7966       L1    11  0.03
      P1  H  7989  7998       L1     3  0.33

> <Gold.Chemscore.Hbond.Weighted>
-11.1027

> <Gold.Chemscore.Metal.Weighted>
-0.0000

> <Gold.Chemscore.Lipo.Weighted>
-9.3679

> <Gold.Chemscore.Internal_Hbond.Weighted>
0.0000

> <Gold.Chemscore.DEClash.Weighted>
2.9274

> <Gold.Chemscore.DEInternal.Weighted>
1.3106

> <Gold.Chemscore.Rot.Weighted>
5.5666

> <Gold.Chemscore.Internal.Correction.Weighted>
   9.000000E+99

> <Gold.Protein.RotatedTorsions>
[ 6907 6896 6895 6894 ] final   34.78 input  -60.11 | X-H torsion
[ 7974 7965 7964 7962 ] final  -63.10 input  175.53 | X-H torsion
[ 8008 7997 7996 7995 ] final  -52.97 input   59.86 | X-H torsion
[ 10167 10162 10161 10158 ] final  153.62 input  -65.29 | X-H torsion
[ 10718 10713 10712 10709 ] final  105.27 input   66.30 | X-H torsion
[ 10763 10752 10751 10750 ] final  -81.29 input  -60.55 | X-H torsion
[ 11005 11000 10999 10996 ] final   52.18 input  -57.11 | X-H torsion

> <Gold.Protein.ActiveResidues>
 VAL166  LYS551  ARG553  GLY616  TRP617  ASP618  TYR619  PRO620  LYS621  CYS622 
 ASP623  PHE694  ASN695  SER759  ASP760  ASP761  ALA762  ILE779  LEU786  VAL792 
 PHE793  MET794  SER795  GLU796  ALA797  LYS798  CYS799  TRP800  GLU811  SER814 

> <Gold.Protein.RotatedAtoms>
  152.1071  134.9301  160.0567 H   0  0  0  0  0  0  0  0  0  0  0  0  # atno 6907 bound_to 6896
  152.0493  133.4007  159.4378 H   0  0  0  0  0  0  0  0  0  0  0  0  # atno 6908 bound_to 6896
  150.6842  134.3247  159.4845 H   0  0  0  0  0  0  0  0  0  0  0  0  # atno 6909 bound_to 6896
  145.7831  140.8751  143.0320 H   0  0  0  0  0  0  0  0  0  0  0  0  # atno 7974 bound_to 7965
  154.4120  140.1211  156.5078 H   0  0  0  0  0  0  0  0  0  0  0  0  # atno 8008 bound_to 7997
  155.6829  140.3496  155.4843 H   0  0  0  0  0  0  0  0  0  0  0  0  # atno 8009 bound_to 7997
  155.9535  140.1109  157.0946 H   0  0  0  0  0  0  0  0  0  0  0  0  # atno 8010 bound_to 7997
  139.4826  144.5258  151.7804 H   0  0  0  0  0  0  0  0  0  0  0  0  # atno 10167 bound_to 10162
  157.6711  131.0823  150.5831 H   0  0  0  0  0  0  0  0  0  0  0  0  # atno 10718 bound_to 10713
  154.5618  135.5631  153.7014 H   0  0  0  0  0  0  0  0  0  0  0  0  # atno 10763 bound_to 10752
  153.0020  135.6275  154.2235 H   0  0  0  0  0  0  0  0  0  0  0  0  # atno 10764 bound_to 10752
  154.2173  135.2871  155.2917 H   0  0  0  0  0  0  0  0  0  0  0  0  # atno 10765 bound_to 10752
  140.0871  134.5260  155.8888 H   0  0  0  0  0  0  0  0  0  0  0  0  # atno 11005 bound_to 11000
  144.6793  140.0017  143.7484 LP  0  0  0  0  0  0  0  0  0  0  0  0  # atno 17320 bound_to 7965
  146.0053  139.3125  143.0903 LP  0  0  0  0  0  0  0  0  0  0  0  0  # atno 17321 bound_to 7965
  140.4777  144.1495  150.5927 LP  0  0  0  0  0  0  0  0  0  0  0  0  # atno 17342 bound_to 10162
  140.4312  143.2567  151.9593 LP  0  0  0  0  0  0  0  0  0  0  0  0  # atno 17343 bound_to 10162
  156.6131  130.4385  149.5851 LP  0  0  0  0  0  0  0  0  0  0  0  0  # atno 17370 bound_to 10713
  156.2414  130.6853  151.1559 LP  0  0  0  0  0  0  0  0  0  0  0  0  # atno 17371 bound_to 10713
  141.2066  133.6656  156.6252 LP  0  0  0  0  0  0  0  0  0  0  0  0  # atno 17394 bound_to 11000
  140.3405  134.7853  157.4394 LP  0  0  0  0  0  0  0  0  0  0  0  0  # atno 17395 bound_to 11000

$$$$
