AV-unprocessed.smi:1803|AV-procd|sdf|7283|dock5
  -GOLD-   22720 8543D 1   1.00000     0.00000
 Structure written by MMmdl.
 36 38  0  0  0  0  0  0  0  0  2 V2000
  145.8387  138.8817  153.3619 O   0  0  0  0  0  0  0  0  0  0  0  0
  146.6732  138.0960  152.9172 C   0  0  0  0  0  0  0  0  0  0  0  0
  147.9952  138.3136  153.0803 N   0  0  0  0  0  0  0  0  0  0  0  0
  148.6978  139.3729  153.7254 C   0  0  0  0  0  0  0  0  0  0  0  0
  149.9349  139.2596  154.2369 N   0  0  0  0  0  0  0  0  0  0  0  0
  150.3860  140.4532  154.7832 N   0  0  0  0  0  0  0  0  0  0  0  0
  149.4796  141.4255  154.6510 C   0  0  0  0  0  0  0  0  0  0  0  0
  147.9858  140.9758  153.8471 S   0  0  0  0  0  0  0  0  0  0  0  0
  146.3377  136.9801  152.2481 N   0  0  0  0  0  0  0  0  0  0  0  0
  144.9803  136.5607  151.9081 C   0  0  2  0  0  0  0  0  0  0  0  0
  144.0520  136.5003  153.1371 C   0  0  0  0  0  0  0  0  0  0  0  0
  143.2532  135.2049  152.9606 C   0  0  0  0  0  0  0  0  0  0  0  0
  144.2047  134.3222  152.2757 N   0  3  1  0  0  0  0  0  0  0  0  0
  143.7061  133.0510  151.7126 C   0  0  0  0  0  0  0  0  0  0  0  0
  144.9139  132.2317  151.2091 C   0  0  0  0  0  0  0  0  0  0  0  0
  145.8129  133.0442  150.2499 C   0  0  0  0  0  0  0  0  0  0  0  0
  146.1949  134.4158  150.8469 C   0  0  0  0  0  0  0  0  0  0  0  0
  144.9122  135.1480  151.2821 C   0  0  2  0  0  0  0  0  0  0  0  0
  148.5860  137.5591  152.7615 H   0  0  0  0  0  0  0  0  0  0  0  0
  149.6933  142.4152  155.0266 H   0  0  0  0  0  0  0  0  0  0  0  0
  147.0899  136.3879  151.9255 H   0  0  0  0  0  0  0  0  0  0  0  0
  144.5526  137.2718  151.1987 H   0  0  0  0  0  0  0  0  0  0  0  0
  144.6403  136.4354  154.0541 H   0  0  0  0  0  0  0  0  0  0  0  0
  143.4093  137.3771  153.2217 H   0  0  0  0  0  0  0  0  0  0  0  0
  142.9148  134.7853  153.9082 H   0  0  0  0  0  0  0  0  0  0  0  0
  142.3831  135.3739  152.3242 H   0  0  0  0  0  0  0  0  0  0  0  0
  143.1673  132.4944  152.4803 H   0  0  0  0  0  0  0  0  0  0  0  0
  143.0037  133.2488  150.9014 H   0  0  0  0  0  0  0  0  0  0  0  0
  145.5089  131.9107  152.0652 H   0  0  0  0  0  0  0  0  0  0  0  0
  144.5698  131.3212  150.7176 H   0  0  0  0  0  0  0  0  0  0  0  0
  146.7123  132.4769  150.0087 H   0  0  0  0  0  0  0  0  0  0  0  0
  145.2846  133.1966  149.3078 H   0  0  0  0  0  0  0  0  0  0  0  0
  146.8638  134.2788  151.6980 H   0  0  0  0  0  0  0  0  0  0  0  0
  146.7381  135.0025  150.1056 H   0  0  0  0  0  0  0  0  0  0  0  0
  144.2637  135.2332  150.4073 H   0  0  0  0  0  0  0  0  0  0  0  0
  144.8929  134.0765  152.9731 H   0  0  0  0  0  0  0  0  0  0  0  0
  1  2  2  0  0  0  0
  2  3  1  0  0  0  0
  2  9  1  0  0  0  0
  3  4  1  0  0  0  0
  3 19  1  0  0  0  0
  4  8  1  0  0  0  0
  4  5  2  0  0  0  0
  5  6  1  0  0  0  0
  6  7  2  0  0  0  0
  7  8  1  0  0  0  0
  7 20  1  0  0  0  0
  9 10  1  0  0  0  0
  9 21  1  0  0  0  0
 10 18  1  0  0  0  0
 10 11  1  0  0  0  0
 10 22  1  0  0  0  0
 11 12  1  0  0  0  0
 11 23  1  0  0  0  0
 11 24  1  0  0  0  0
 12 13  1  0  0  0  0
 12 25  1  0  0  0  0
 12 26  1  0  0  0  0
 13 18  1  0  0  0  0
 13 14  1  0  0  0  0
 13 36  1  0  0  0  0
 14 15  1  0  0  0  0
 14 27  1  0  0  0  0
 14 28  1  0  0  0  0
 15 16  1  0  0  0  0
 15 29  1  0  0  0  0
 15 30  1  0  0  0  0
 16 17  1  0  0  0  0
 16 31  1  0  0  0  0
 16 32  1  0  0  0  0
 17 18  1  0  0  0  0
 17 33  1  0  0  0  0
 17 34  1  0  0  0  0
 18 35  1  0  0  0  0
M  CHG  1  13   1
M  END
> <s_m_source_file>
AV-unprocessed.smi

> <i_m_source_file_index>
1803

> <i_lp_mmshare_version>
43012

> <i_f3d_flags>
0

> <s_epik_input>
czFbY0hdbm5jMVtOSF1DKD1PKVtOSF1bQ0BIXShbQ0gyXVtDSDJdMilbQ0BASF0oTjIzKVtDSDJdW0NIMl1bQ0gyXVtDSDJdMw==

> <s_epik_cmdline>
J2VwaWtfcHl0aG9uJywgJy1waCcsICc3LjAnLCAnLXRuJywgJzgnLCAnLW1hJywgJzIwMCcsICctbWV0YWxfYmluZGluZycsICctaW1hZScsICc8aW5maWxlLm1hZT4nLCAnLW9tYWUnLCAnPG91dGZpbGUubWFlPic=

> <r_lp_tautomer_probability>
1

> <r_epik_Ionization_Penalty>
0.00213286

> <r_epik_Ionization_Penalty_Charging>
0.00107044

> <r_epik_Ionization_Penalty_Neutral>
0.00106242

> <r_epik_State_Penalty>
-0

> <r_epik_Charging_Adjusted_Penalty>
0.00107044

> <i_epik_Tot_Q>
1

> <i_epik_Tot_abs_Q>
1

> <r_epik_Metal_State_Penalty>
0.292783

> <b_epik_Metal_Only>
0

> <s_lp_Force_Field>
OPLS_2005

> <r_lp_Energy>
42.6799

> <b_lp_Chiralities_Consistent>
1

> <s_lp_Variant>
AV-unprocessed.smi:1803-5

> <Gold.Version>
5.8.1

> <Gold.Id.Protein>
6NUR|6NUR_protein|mol2

> <Gold.PLP.Fitness>
38.8886

> <Gold.PLP.PLP>
-27.8780

> <Gold.PLP.part.hbond>
-3.8997

> <Gold.PLP.part.metal>
0.0000

> <Gold.PLP.part.buried>
-0.4052

> <Gold.PLP.part.nonpolar>
-24.3754

> <Gold.PLP.part.repulsive>
2.4324

> <Gold.PLP.ligand.clash>
0.0000

> <Gold.PLP.ligand.torsion>
0.1894

> <Gold.PLP.Chemscore.Hbond>
2.7960

> <Gold.PLP.Chemscore.CHOScore>
1.0000

> <Gold.PLP.Chemscore.Metal>
0.0000

> <Gold.Chemscore.Hbonds>
donor molecule, donor type, donor heavy atom, donor atom, acceptor molecule, acceptor atom, score
      L1  H     3    19       P1  7948  1.00
      L1  H     9    21       P1  7948  0.88
      P1  H  7989  7998       L1     6  0.90
      L1  C     7    20       P1  8028  1.00

> <Gold.PLP.Chemscore.Internal.Correction>
0.0013

> <Gold.Rescore>
     Score         DG    S(hbond)    S(metal)    S(lipo)     H(rot)  DE(clash)    DE(int)     intcor
     13.75     -15.95       1.87        0.00      58.06       1.00       0.06       2.14       ----

> <Gold.Chemscore.Fitness>
13.7507

> <Gold.Chemscore.DG>
-15.9507

> <Gold.Chemscore.ZeroCoef>
-5.4800

> <Gold.Chemscore.Hbond>
1.8676

> <Gold.Chemscore.Metal>
0.0000

> <Gold.Chemscore.Lipo>
58.0596

> <Gold.Chemscore.Internal_Hbond>
0.0000

> <Gold.Chemscore.DEClash>
0.0600

> <Gold.Chemscore.DEInternal>
2.1400

> <Gold.Chemscore.Rot>
1.0000

> <Gold.Chemscore.Internal.Correction>
   9.000000E+99

> <Gold.Chemscore.Hbonds>
donor molecule, donor type, donor heavy atom, donor atom, acceptor molecule, acceptor atom, score
      L1  H     3    19       P1  7948  0.97
      L1  H     9    21       P1  7948  0.86
      P1  H  7989  7998       L1     6  0.06

> <Gold.Chemscore.Hbond.Weighted>
-6.2378

> <Gold.Chemscore.Metal.Weighted>
-0.0000

> <Gold.Chemscore.Lipo.Weighted>
-6.7930

> <Gold.Chemscore.Internal_Hbond.Weighted>
0.0000

> <Gold.Chemscore.DEClash.Weighted>
0.0600

> <Gold.Chemscore.DEInternal.Weighted>
2.1400

> <Gold.Chemscore.Rot.Weighted>
2.5600

> <Gold.Chemscore.Internal.Correction.Weighted>
   9.000000E+99

> <Gold.Protein.RotatedTorsions>
[ 6907 6896 6895 6894 ] final  -36.59 input  -60.11 | X-H torsion
[ 7974 7965 7964 7962 ] final  106.61 input  175.53 | X-H torsion
[ 8008 7997 7996 7995 ] final  104.88 input   59.86 | X-H torsion
[ 10167 10162 10161 10158 ] final -101.29 input  -65.29 | X-H torsion
[ 10718 10713 10712 10709 ] final   55.54 input   66.30 | X-H torsion
[ 10763 10752 10751 10750 ] final  -77.23 input  -60.55 | X-H torsion
[ 11005 11000 10999 10996 ] final -104.23 input  -57.11 | X-H torsion

> <Gold.Protein.ActiveResidues>
 VAL166  LYS551  ARG553  GLY616  TRP617  ASP618  TYR619  PRO620  LYS621  CYS622 
 ASP623  PHE694  ASN695  SER759  ASP760  ASP761  ALA762  ILE779  LEU786  VAL792 
 PHE793  MET794  SER795  GLU796  ALA797  LYS798  CYS799  TRP800  GLU811  SER814 

> <Gold.Protein.RotatedAtoms>
  151.0253  134.9499  159.8081 H   0  0  0  0  0  0  0  0  0  0  0  0  # atno 6907 bound_to 6896
  152.5334  134.2851  159.9032 H   0  0  0  0  0  0  0  0  0  0  0  0  # atno 6908 bound_to 6896
  151.2859  133.4146  159.2664 H   0  0  0  0  0  0  0  0  0  0  0  0  # atno 6909 bound_to 6896
  145.3044  139.2559  143.3797 H   0  0  0  0  0  0  0  0  0  0  0  0  # atno 7974 bound_to 7965
  156.1611  140.3140  155.8808 H   0  0  0  0  0  0  0  0  0  0  0  0  # atno 8008 bound_to 7997
  155.3780  140.0486  157.3061 H   0  0  0  0  0  0  0  0  0  0  0  0  # atno 8009 bound_to 7997
  154.5147  140.2177  155.9099 H   0  0  0  0  0  0  0  0  0  0  0  0  # atno 8010 bound_to 7997
  140.2429  143.3526  152.0785 H   0  0  0  0  0  0  0  0  0  0  0  0  # atno 10167 bound_to 10162
  157.5353  130.8659  149.8745 H   0  0  0  0  0  0  0  0  0  0  0  0  # atno 10718 bound_to 10713
  154.5102  135.5771  153.6599 H   0  0  0  0  0  0  0  0  0  0  0  0  # atno 10763 bound_to 10752
  152.9895  135.6157  154.2889 H   0  0  0  0  0  0  0  0  0  0  0  0  # atno 10764 bound_to 10752
  154.2803  135.2851  155.2679 H   0  0  0  0  0  0  0  0  0  0  0  0  # atno 10765 bound_to 10752
  141.1110  133.8706  157.1585 H   0  0  0  0  0  0  0  0  0  0  0  0  # atno 11005 bound_to 11000
  146.3140  140.3565  142.8661 LP  0  0  0  0  0  0  0  0  0  0  0  0  # atno 17320 bound_to 7965
  144.9067  140.7708  143.5833 LP  0  0  0  0  0  0  0  0  0  0  0  0  # atno 17321 bound_to 7965
  139.5071  144.6826  151.5969 LP  0  0  0  0  0  0  0  0  0  0  0  0  # atno 17342 bound_to 10162
  140.6100  143.9454  150.6446 LP  0  0  0  0  0  0  0  0  0  0  0  0  # atno 17343 bound_to 10162
  156.0454  130.3729  150.1331 LP  0  0  0  0  0  0  0  0  0  0  0  0  # atno 17370 bound_to 10713
  156.9513  130.9776  151.3497 LP  0  0  0  0  0  0  0  0  0  0  0  0  # atno 17371 bound_to 10713
  140.0004  135.0030  157.0176 LP  0  0  0  0  0  0  0  0  0  0  0  0  # atno 17394 bound_to 11000
  140.4776  134.1323  155.7212 LP  0  0  0  0  0  0  0  0  0  0  0  0  # atno 17395 bound_to 11000

$$$$
