AV-unprocessed.smi:1093|AV-procd|sdf|4738|dock3
  -GOLD-   22720 3273D 1   1.00000     0.00000
 Structure written by MMmdl.
 48 49  0  0  0  0  0  0  0  0  3 V2000
  145.7694  132.7850  150.7346 C   0  0  0  0  0  0  0  0  0  0  0  0
  144.5436  133.3411  149.9953 C   0  0  0  0  0  0  0  0  0  0  0  0
  143.7410  134.2650  150.8361 N   0  3  1  0  0  0  0  0  0  0  0  0
  143.1819  133.5878  152.0350 C   0  0  0  0  0  0  0  0  0  0  0  0
  142.2400  134.5216  152.8126 C   0  0  0  0  0  0  0  0  0  0  0  0
  142.9520  135.8221  153.2056 C   0  0  0  0  0  0  0  0  0  0  0  0
  143.5531  136.4916  151.9573 C   0  0  1  0  0  0  0  0  0  0  0  0
  144.3046  137.6890  152.3249 N   0  0  0  0  0  0  0  0  0  0  0  0
  145.4939  137.6932  152.9447 C   0  0  0  0  0  0  0  0  0  0  0  0
  146.0909  136.6676  153.2705 O   0  0  0  0  0  0  0  0  0  0  0  0
  145.9406  138.9467  153.1376 N   0  0  0  0  0  0  0  0  0  0  0  0
  147.1336  139.3714  153.7842 C   0  0  0  0  0  0  0  0  0  0  0  0
  147.3412  140.7579  153.9405 C   0  0  0  0  0  0  0  0  0  0  0  0
  148.5016  141.2261  154.5906 C   0  0  0  0  0  0  0  0  0  0  0  0
  149.4506  140.3017  155.0921 C   0  0  0  0  0  0  0  0  0  0  0  0
  150.6344  140.6915  155.7555 N   0  0  0  0  0  0  0  0  0  0  0  0
  150.6905  141.9801  156.4365 C   0  0  0  0  0  0  0  0  0  0  0  0
  151.7369  139.7469  155.8816 C   0  0  0  0  0  0  0  0  0  0  0  0
  149.2010  138.9795  154.9289 N   0  3  0  0  0  0  0  0  0  0  0  0
  148.1050  138.4876  154.3116 C   0  0  0  0  0  0  0  0  0  0  0  0
  144.4702  135.5085  151.2046 C   0  0  0  0  0  0  0  0  0  0  0  0
  146.3860  132.1915  150.0591 H   0  0  0  0  0  0  0  0  0  0  0  0
  145.4903  132.1387  151.5660 H   0  0  0  0  0  0  0  0  0  0  0  0
  146.3923  133.5897  151.1264 H   0  0  0  0  0  0  0  0  0  0  0  0
  144.9047  133.8781  149.1172 H   0  0  0  0  0  0  0  0  0  0  0  0
  143.9157  132.5300  149.6237 H   0  0  0  0  0  0  0  0  0  0  0  0
  142.6297  132.6971  151.7331 H   0  0  0  0  0  0  0  0  0  0  0  0
  143.9970  133.2529  152.6788 H   0  0  0  0  0  0  0  0  0  0  0  0
  141.3664  134.7525  152.2014 H   0  0  0  0  0  0  0  0  0  0  0  0
  141.8680  134.0169  153.7047 H   0  0  0  0  0  0  0  0  0  0  0  0
  142.2497  136.4941  153.7001 H   0  0  0  0  0  0  0  0  0  0  0  0
  143.7387  135.6040  153.9294 H   0  0  0  0  0  0  0  0  0  0  0  0
  142.7413  136.7739  151.2835 H   0  0  0  0  0  0  0  0  0  0  0  0
  143.8895  138.5781  152.0868 H   0  0  0  0  0  0  0  0  0  0  0  0
  145.3768  139.6849  152.7419 H   0  0  0  0  0  0  0  0  0  0  0  0
  146.6175  141.4651  153.5619 H   0  0  0  0  0  0  0  0  0  0  0  0
  148.6422  142.2913  154.6958 H   0  0  0  0  0  0  0  0  0  0  0  0
  150.5109  142.7943  155.7335 H   0  0  0  0  0  0  0  0  0  0  0  0
  151.6661  142.1453  156.8937 H   0  0  0  0  0  0  0  0  0  0  0  0
  149.9387  142.0294  157.2250 H   0  0  0  0  0  0  0  0  0  0  0  0
  152.1139  139.4626  154.8986 H   0  0  0  0  0  0  0  0  0  0  0  0
  151.4114  138.8474  156.4057 H   0  0  0  0  0  0  0  0  0  0  0  0
  152.5664  140.1774  156.4429 H   0  0  0  0  0  0  0  0  0  0  0  0
  148.0510  137.4099  154.2796 H   0  0  0  0  0  0  0  0  0  0  0  0
  145.3369  135.2521  151.8167 H   0  0  0  0  0  0  0  0  0  0  0  0
  144.8506  135.9980  150.3084 H   0  0  0  0  0  0  0  0  0  0  0  0
  142.9475  134.5433  150.2761 H   0  0  0  0  0  0  0  0  0  0  0  0
  149.8809  138.3134  155.2958 H   0  0  0  0  0  0  0  0  0  0  0  0
  1  2  1  0  0  0  0
  1 22  1  0  0  0  0
  1 23  1  0  0  0  0
  1 24  1  0  0  0  0
  2  3  1  0  0  0  0
  2 25  1  0  0  0  0
  2 26  1  0  0  0  0
  3 21  1  0  0  0  0
  3  4  1  0  0  0  0
  3 47  1  0  0  0  0
  4  5  1  0  0  0  0
  4 27  1  0  0  0  0
  4 28  1  0  0  0  0
  5  6  1  0  0  0  0
  5 29  1  0  0  0  0
  5 30  1  0  0  0  0
  6  7  1  0  0  0  0
  6 31  1  0  0  0  0
  6 32  1  0  0  0  0
  7  8  1  0  0  0  0
  7 21  1  0  0  0  0
  7 33  1  0  0  0  0
  8  9  1  0  0  0  0
  8 34  1  0  0  0  0
  9 10  2  0  0  0  0
  9 11  1  0  0  0  0
 11 12  1  0  0  0  0
 11 35  1  0  0  0  0
 12 20  1  0  0  0  0
 12 13  2  0  0  0  0
 13 14  1  0  0  0  0
 13 36  1  0  0  0  0
 14 15  2  0  0  0  0
 14 37  1  0  0  0  0
 15 16  1  0  0  0  0
 15 19  1  0  0  0  0
 16 17  1  0  0  0  0
 16 18  1  0  0  0  0
 17 38  1  0  0  0  0
 17 39  1  0  0  0  0
 17 40  1  0  0  0  0
 18 41  1  0  0  0  0
 18 42  1  0  0  0  0
 18 43  1  0  0  0  0
 19 20  2  0  0  0  0
 19 48  1  0  0  0  0
 20 44  1  0  0  0  0
 21 45  1  0  0  0  0
 21 46  1  0  0  0  0
M  CHG  1   3   1
M  CHG  1  19   1
M  END
> <s_m_source_file>
AV-unprocessed.smi

> <i_m_source_file_index>
1093

> <i_lp_mmshare_version>
43012

> <i_f3d_flags>
0

> <s_epik_input>
W0NIM11bQ0gyXU4xW0NIMl1bQ0gyXVtDSDJdW0NASF0oW0NIMl0xKVtOSF1DKD1PKVtOSF1jMltjSF1bY0hdYyhOKFtDSDNdKVtDSDNdKW5bY0hdMg==

> <s_epik_cmdline>
J2VwaWtfcHl0aG9uJywgJy1waCcsICc3LjAnLCAnLXRuJywgJzgnLCAnLW1hJywgJzIwMCcsICctbWV0YWxfYmluZGluZycsICctaW1hZScsICc8aW5maWxlLm1hZT4nLCAnLW9tYWUnLCAnPG91dGZpbGUubWFlPic=

> <r_lp_tautomer_probability>
0.999994

> <r_epik_Ionization_Penalty>
0.346711

> <r_epik_Ionization_Penalty_Charging>
0.346691

> <r_epik_Ionization_Penalty_Neutral>
1.93006e-05

> <r_epik_State_Penalty>
0.339838

> <r_epik_Charging_Adjusted_Penalty>
0.68653

> <i_epik_Tot_Q>
2

> <i_epik_Tot_abs_Q>
2

> <r_epik_Metal_State_Penalty>
0.600835

> <b_epik_Metal_Only>
0

> <s_lp_Force_Field>
OPLS_2005

> <r_lp_Energy>
27.8827

> <b_lp_Chiralities_Consistent>
1

> <s_lp_Variant>
AV-unprocessed.smi:1093-1

> <Gold.Version>
5.8.1

> <Gold.Id.Protein>
6NUR|6NUR_protein|mol2

> <Gold.PLP.Fitness>
49.8669

> <Gold.PLP.PLP>
-38.5242

> <Gold.PLP.part.hbond>
-4.0000

> <Gold.PLP.part.metal>
0.0000

> <Gold.PLP.part.buried>
-3.4399

> <Gold.PLP.part.nonpolar>
-31.9017

> <Gold.PLP.part.repulsive>
0.2905

> <Gold.PLP.ligand.clash>
0.0000

> <Gold.PLP.ligand.torsion>
0.3425

> <Gold.PLP.Chemscore.Hbond>
4.0000

> <Gold.PLP.Chemscore.CHOScore>
0.0000

> <Gold.PLP.Chemscore.Metal>
0.0000

> <Gold.Chemscore.Hbonds>
donor molecule, donor type, donor heavy atom, donor atom, acceptor molecule, acceptor atom, score
      L1  H     3    47       P1 10186  1.82
      L1  H     8    34       P1 10175  1.00
      L1  H    11    35       P1 10175  0.99

> <Gold.PLP.Chemscore.Internal.Correction>
0.0278

> <Gold.Rescore>
     Score         DG    S(hbond)    S(metal)    S(lipo)     H(rot)  DE(clash)    DE(int)     intcor
     17.89     -20.81       2.65        0.00      81.53       1.19       0.15       2.77       ----

> <Gold.Chemscore.Fitness>
17.8925

> <Gold.Chemscore.DG>
-20.8053

> <Gold.Chemscore.ZeroCoef>
-5.4800

> <Gold.Chemscore.Hbond>
2.6484

> <Gold.Chemscore.Metal>
0.0000

> <Gold.Chemscore.Lipo>
81.5268

> <Gold.Chemscore.Internal_Hbond>
0.0000

> <Gold.Chemscore.DEClash>
0.1473

> <Gold.Chemscore.DEInternal>
2.7655

> <Gold.Chemscore.Rot>
1.1949

> <Gold.Chemscore.Internal.Correction>
   9.000000E+99

> <Gold.Chemscore.Hbonds>
donor molecule, donor type, donor heavy atom, donor atom, acceptor molecule, acceptor atom, score
      L1  H     3    47       P1 10186  0.56
      L1  H     8    34       P1 10175  0.95
      L1  H    11    35       P1 10175  0.94

> <Gold.Chemscore.Hbond.Weighted>
-8.8457

> <Gold.Chemscore.Metal.Weighted>
-0.0000

> <Gold.Chemscore.Lipo.Weighted>
-9.5386

> <Gold.Chemscore.Internal_Hbond.Weighted>
0.0000

> <Gold.Chemscore.DEClash.Weighted>
0.1473

> <Gold.Chemscore.DEInternal.Weighted>
2.7655

> <Gold.Chemscore.Rot.Weighted>
3.0590

> <Gold.Chemscore.Internal.Correction.Weighted>
   9.000000E+99

> <Gold.Protein.RotatedTorsions>
[ 6907 6896 6895 6894 ] final  -93.07 input  -60.11 | X-H torsion
[ 7974 7965 7964 7962 ] final  155.17 input  175.53 | X-H torsion
[ 8008 7997 7996 7995 ] final  170.75 input   59.86 | X-H torsion
[ 10167 10162 10161 10158 ] final  -80.50 input  -65.29 | X-H torsion
[ 10718 10713 10712 10709 ] final  125.00 input   66.30 | X-H torsion
[ 10763 10752 10751 10750 ] final  -43.63 input  -60.55 | X-H torsion
[ 11005 11000 10999 10996 ] final   64.32 input  -57.11 | X-H torsion

> <Gold.Protein.ActiveResidues>
 VAL166  LYS551  ARG553  GLY616  TRP617  ASP618  TYR619  PRO620  LYS621  CYS622 
 ASP623  PHE694  ASN695  SER759  ASP760  ASP761  ALA762  ILE779  LEU786  VAL792 
 PHE793  MET794  SER795  GLU796  ALA797  LYS798  CYS799  TRP800  GLU811  SER814 

> <Gold.Protein.RotatedAtoms>
  150.6916  134.2024  159.4327 H   0  0  0  0  0  0  0  0  0  0  0  0  # atno 6907 bound_to 6896
  151.9990  134.9936  160.0573 H   0  0  0  0  0  0  0  0  0  0  0  0  # atno 6908 bound_to 6896
  152.1596  133.4538  159.4891 H   0  0  0  0  0  0  0  0  0  0  0  0  # atno 6909 bound_to 6896
  144.8041  139.7032  143.6169 H   0  0  0  0  0  0  0  0  0  0  0  0  # atno 7974 bound_to 7965
  156.1336  140.1530  156.9028 H   0  0  0  0  0  0  0  0  0  0  0  0  # atno 8008 bound_to 7997
  154.4929  140.0846  156.7673 H   0  0  0  0  0  0  0  0  0  0  0  0  # atno 8009 bound_to 7997
  155.4210  140.3423  155.4273 H   0  0  0  0  0  0  0  0  0  0  0  0  # atno 8010 bound_to 7997
  140.4497  143.2487  151.8507 H   0  0  0  0  0  0  0  0  0  0  0  0  # atno 10167 bound_to 10162
  157.5539  131.1093  150.8655 H   0  0  0  0  0  0  0  0  0  0  0  0  # atno 10718 bound_to 10713
  153.9987  135.6696  153.4758 H   0  0  0  0  0  0  0  0  0  0  0  0  # atno 10763 bound_to 10752
  153.0672  135.4994  154.8222 H   0  0  0  0  0  0  0  0  0  0  0  0  # atno 10764 bound_to 10752
  154.7066  135.3089  154.9224 H   0  0  0  0  0  0  0  0  0  0  0  0  # atno 10765 bound_to 10752
  139.9966  134.6507  156.0000 H   0  0  0  0  0  0  0  0  0  0  0  0  # atno 11005 bound_to 11000
  146.2329  139.5849  142.9543 LP  0  0  0  0  0  0  0  0  0  0  0  0  # atno 17320 bound_to 7965
  145.5480  141.0415  143.2294 LP  0  0  0  0  0  0  0  0  0  0  0  0  # atno 17321 bound_to 7965
  139.4795  144.5134  151.8901 LP  0  0  0  0  0  0  0  0  0  0  0  0  # atno 17342 bound_to 10162
  140.4222  144.2228  150.5887 LP  0  0  0  0  0  0  0  0  0  0  0  0  # atno 17343 bound_to 10162
  156.9172  130.5302  149.5279 LP  0  0  0  0  0  0  0  0  0  0  0  0  # atno 17370 bound_to 10713
  156.0601  130.5655  150.9175 LP  0  0  0  0  0  0  0  0  0  0  0  0  # atno 17371 bound_to 10713
  141.1609  133.6539  156.4316 LP  0  0  0  0  0  0  0  0  0  0  0  0  # atno 17394 bound_to 11000
  140.4806  134.6668  157.5169 LP  0  0  0  0  0  0  0  0  0  0  0  0  # atno 17395 bound_to 11000

$$$$
