AV-unprocessed.smi:308|AV-procd|sdf|2290|dock10
  -GOLD-   2262022193D 1   1.00000     0.00000
 Structure written by MMmdl.
 50 51  0  0  0  0  0  0  0  0  4 V2000
  143.7269  134.2584  152.0609 C   0  0  0  0  0  0  0  0  0  0  0  0
  145.1706  134.3408  151.5351 C   0  0  2  0  0  0  0  0  0  0  0  0
  146.2204  134.0882  152.6329 C   0  0  0  0  0  0  0  0  0  0  0  0
  146.3547  135.2815  153.5956 C   0  0  0  0  0  0  0  0  0  0  0  0
  146.6608  136.5361  152.8545 N   0  3  2  0  0  0  0  0  0  0  0  0
  146.9610  137.6973  153.7358 C   0  0  0  0  0  0  0  0  0  0  0  0
  147.9174  137.3228  154.8852 C   0  0  0  0  0  0  0  0  0  0  0  0
  149.2615  137.8297  154.5975 N   0  5  0  0  0  0  0  0  0  0  0  0
  149.6842  139.0972  154.8511 C   0  0  0  0  0  0  0  0  0  0  0  0
  149.7678  140.0375  154.0531 O   0  0  0  0  0  0  0  0  0  0  0  0
  150.0515  139.2593  156.1349 N   0  0  0  0  0  0  0  0  0  0  0  0
  150.5107  140.4297  156.7977 C   0  0  0  0  0  0  0  0  0  0  0  0
  151.3765  140.2659  157.8982 C   0  0  0  0  0  0  0  0  0  0  0  0
  151.8405  141.3970  158.6007 C   0  0  0  0  0  0  0  0  0  0  0  0
  151.4255  142.6920  158.2040 C   0  0  0  0  0  0  0  0  0  0  0  0
  151.8442  143.8718  158.8565 N   0  0  0  0  0  0  0  0  0  0  0  0
  151.1896  145.1393  158.5524 C   0  0  0  0  0  0  0  0  0  0  0  0
  152.9013  143.8105  159.8573 C   0  0  0  0  0  0  0  0  0  0  0  0
  150.5806  142.7974  157.1493 N   0  3  0  0  0  0  0  0  0  0  0  0
  150.1132  141.7418  156.4486 C   0  0  0  0  0  0  0  0  0  0  0  0
  145.6235  136.8386  151.8355 C   0  0  0  0  0  0  0  0  0  0  0  0
  145.4729  135.6784  150.8353 C   0  0  0  0  0  0  0  0  0  0  0  0
  143.5186  135.0168  152.8152 H   0  0  0  0  0  0  0  0  0  0  0  0
  143.5301  133.2846  152.5100 H   0  0  0  0  0  0  0  0  0  0  0  0
  143.0097  134.3946  151.2509 H   0  0  0  0  0  0  0  0  0  0  0  0
  145.2735  133.5490  150.7919 H   0  0  0  0  0  0  0  0  0  0  0  0
  145.9757  133.1829  153.1896 H   0  0  0  0  0  0  0  0  0  0  0  0
  147.1886  133.9025  152.1657 H   0  0  0  0  0  0  0  0  0  0  0  0
  145.4394  135.4108  154.1740 H   0  0  0  0  0  0  0  0  0  0  0  0
  147.1475  135.0693  154.3133 H   0  0  0  0  0  0  0  0  0  0  0  0
  147.4237  138.4998  153.1587 H   0  0  0  0  0  0  0  0  0  0  0  0
  146.0349  138.1166  154.1313 H   0  0  0  0  0  0  0  0  0  0  0  0
  147.5291  137.7373  155.8155 H   0  0  0  0  0  0  0  0  0  0  0  0
  147.8978  136.2397  155.0129 H   0  0  0  0  0  0  0  0  0  0  0  0
  150.0491  138.4174  156.6920 H   0  0  0  0  0  0  0  0  0  0  0  0
  151.6910  139.2783  158.2030 H   0  0  0  0  0  0  0  0  0  0  0  0
  152.5089  141.2496  159.4357 H   0  0  0  0  0  0  0  0  0  0  0  0
  151.3138  145.3907  157.4984 H   0  0  0  0  0  0  0  0  0  0  0  0
  151.6089  145.9552  159.1413 H   0  0  0  0  0  0  0  0  0  0  0  0
  150.1232  145.0829  158.7730 H   0  0  0  0  0  0  0  0  0  0  0  0
  152.6168  143.1475  160.6749 H   0  0  0  0  0  0  0  0  0  0  0  0
  153.1035  144.7943  160.2816 H   0  0  0  0  0  0  0  0  0  0  0  0
  153.8273  143.4425  159.4146 H   0  0  0  0  0  0  0  0  0  0  0  0
  149.4321  141.9926  155.6494 H   0  0  0  0  0  0  0  0  0  0  0  0
  144.6745  137.0503  152.3297 H   0  0  0  0  0  0  0  0  0  0  0  0
  145.9022  137.7401  151.2883 H   0  0  0  0  0  0  0  0  0  0  0  0
  146.3994  135.5819  150.2671 H   0  0  0  0  0  0  0  0  0  0  0  0
  144.6950  135.9094  150.1066 H   0  0  0  0  0  0  0  0  0  0  0  0
  147.5151  136.3745  152.3389 H   0  0  0  0  0  0  0  0  0  0  0  0
  150.2752  143.7292  156.8684 H   0  0  0  0  0  0  0  0  0  0  0  0
  1  2  1  0  0  0  0
  1 23  1  0  0  0  0
  1 24  1  0  0  0  0
  1 25  1  0  0  0  0
  2 22  1  0  0  0  0
  2  3  1  0  0  0  0
  2 26  1  0  0  0  0
  3  4  1  0  0  0  0
  3 27  1  0  0  0  0
  3 28  1  0  0  0  0
  4  5  1  0  0  0  0
  4 29  1  0  0  0  0
  4 30  1  0  0  0  0
  5  6  1  0  0  0  0
  5 21  1  0  0  0  0
  5 49  1  0  0  0  0
  6  7  1  0  0  0  0
  6 31  1  0  0  0  0
  6 32  1  0  0  0  0
  7  8  1  0  0  0  0
  7 33  1  0  0  0  0
  7 34  1  0  0  0  0
  8  9  1  0  0  0  0
  9 10  2  0  0  0  0
  9 11  1  0  0  0  0
 11 12  1  0  0  0  0
 11 35  1  0  0  0  0
 12 20  1  0  0  0  0
 12 13  2  0  0  0  0
 13 14  1  0  0  0  0
 13 36  1  0  0  0  0
 14 15  2  0  0  0  0
 14 37  1  0  0  0  0
 15 16  1  0  0  0  0
 15 19  1  0  0  0  0
 16 17  1  0  0  0  0
 16 18  1  0  0  0  0
 17 38  1  0  0  0  0
 17 39  1  0  0  0  0
 17 40  1  0  0  0  0
 18 41  1  0  0  0  0
 18 42  1  0  0  0  0
 18 43  1  0  0  0  0
 19 20  2  0  0  0  0
 19 50  1  0  0  0  0
 20 44  1  0  0  0  0
 21 22  1  0  0  0  0
 21 45  1  0  0  0  0
 21 46  1  0  0  0  0
 22 47  1  0  0  0  0
 22 48  1  0  0  0  0
M  CHG  1   5   1
M  CHG  1   8  -1
M  CHG  1  19   1
M  END
> <s_m_source_file>
AV-unprocessed.smi

> <i_m_source_file_index>
308

> <i_lp_mmshare_version>
43012

> <i_f3d_flags>
0

> <s_epik_input>
W0NIM11bQ0hdMVtDSDJdW0NIMl1OKFtDSDJdW0NIMl0xKVtDSDJdW0NIMl1bTkhdQyg9TylbTkhdYzJbY0hdW2NIXWMoTihbQ0gzXSlbQ0gzXSluW2NIXTI=

> <s_epik_cmdline>
J2VwaWtfcHl0aG9uJywgJy1waCcsICc3LjAnLCAnLXRuJywgJzgnLCAnLW1hJywgJzIwMCcsICctbWV0YWxfYmluZGluZycsICctaW1hZScsICc8aW5maWxlLm1hZT4nLCAnLW9tYWUnLCAnPG91dGZpbGUubWFlPic=

> <r_lp_tautomer_probability>
0.999994

> <r_epik_Ionization_Penalty>
7.42107

> <r_epik_Ionization_Penalty_Charging>
7.42107

> <r_epik_Ionization_Penalty_Neutral>
3.68925e-06

> <r_epik_State_Penalty>
7.0982

> <r_epik_Charging_Adjusted_Penalty>
14.5193

> <i_epik_Tot_Q>
1

> <i_epik_Tot_abs_Q>
3

> <r_epik_Metal_State_Penalty>
3.28646

> <b_epik_Metal_Only>
1

> <s_lp_Force_Field>
OPLS_2005

> <r_lp_Energy>
21.4752

> <b_lp_Chiralities_Consistent>
1

> <s_lp_Variant>
AV-unprocessed.smi:308-6

> <Gold.Version>
5.8.1

> <Gold.Id.Protein>
6NUR|6NUR_protein|mol2

> <Gold.PLP.Fitness>
46.0745

> <Gold.PLP.PLP>
-35.8333

> <Gold.PLP.part.hbond>
-3.0000

> <Gold.PLP.part.metal>
0.0000

> <Gold.PLP.part.buried>
-4.8978

> <Gold.PLP.part.nonpolar>
-30.0408

> <Gold.PLP.part.repulsive>
1.7151

> <Gold.PLP.ligand.clash>
0.0000

> <Gold.PLP.ligand.torsion>
1.5069

> <Gold.PLP.Chemscore.Hbond>
4.3757

> <Gold.PLP.Chemscore.CHOScore>
0.0000

> <Gold.PLP.Chemscore.Metal>
0.0000

> <Gold.Chemscore.Hbonds>
donor molecule, donor type, donor heavy atom, donor atom, acceptor molecule, acceptor atom, score
      L1  H     5    49       P1  7948  1.92
      L1  H    19    50       P1  8028  1.52
      P1  H  7989  7998       L1    10  0.70

> <Gold.PLP.Chemscore.Internal.Correction>
0.1280

> <Gold.Rescore>
     Score         DG    S(hbond)    S(metal)    S(lipo)     H(rot)  DE(clash)    DE(int)     intcor
     16.19     -20.08       2.62        0.00      81.28       1.42       1.30       2.60       ----

> <Gold.Chemscore.Fitness>
16.1877

> <Gold.Chemscore.DG>
-20.0845

> <Gold.Chemscore.ZeroCoef>
-5.4800

> <Gold.Chemscore.Hbond>
2.6170

> <Gold.Chemscore.Metal>
0.0000

> <Gold.Chemscore.Lipo>
81.2753

> <Gold.Chemscore.Internal_Hbond>
0.0000

> <Gold.Chemscore.DEClash>
1.2994

> <Gold.Chemscore.DEInternal>
2.5973

> <Gold.Chemscore.Rot>
1.4241

> <Gold.Chemscore.Internal.Correction>
   9.000000E+99

> <Gold.Chemscore.Hbonds>
donor molecule, donor type, donor heavy atom, donor atom, acceptor molecule, acceptor atom, score
      L1  H     5    49       P1  7948  0.90
      L1  H    19    50       P1  8028  0.72
      P1  H  7989  7998       L1    10  0.68

> <Gold.Chemscore.Hbond.Weighted>
-8.7409

> <Gold.Chemscore.Metal.Weighted>
-0.0000

> <Gold.Chemscore.Lipo.Weighted>
-9.5092

> <Gold.Chemscore.Internal_Hbond.Weighted>
0.0000

> <Gold.Chemscore.DEClash.Weighted>
1.2994

> <Gold.Chemscore.DEInternal.Weighted>
2.5973

> <Gold.Chemscore.Rot.Weighted>
3.6456

> <Gold.Chemscore.Internal.Correction.Weighted>
   9.000000E+99

> <Gold.Protein.RotatedTorsions>
[ 6907 6896 6895 6894 ] final  -89.60 input  -60.11 | X-H torsion
[ 7974 7965 7964 7962 ] final  121.34 input  175.53 | X-H torsion
[ 8008 7997 7996 7995 ] final   41.66 input   59.86 | X-H torsion
[ 10167 10162 10161 10158 ] final -163.25 input  -65.29 | X-H torsion
[ 10718 10713 10712 10709 ] final  -44.26 input   66.30 | X-H torsion
[ 10763 10752 10751 10750 ] final -129.87 input  -60.55 | X-H torsion
[ 11005 11000 10999 10996 ] final  -96.79 input  -57.11 | X-H torsion

> <Gold.Protein.ActiveResidues>
 VAL166  LYS551  ARG553  GLY616  TRP617  ASP618  TYR619  PRO620  LYS621  CYS622 
 ASP623  PHE694  ASN695  SER759  ASP760  ASP761  ALA762  ILE779  LEU786  VAL792 
 PHE793  MET794  SER795  GLU796  ALA797  LYS798  CYS799  TRP800  GLU811  SER814 

> <Gold.Protein.RotatedAtoms>
  150.6875  134.2562  159.4530 H   0  0  0  0  0  0  0  0  0  0  0  0  # atno 6907 bound_to 6896
  152.0495  134.9659  160.0584 H   0  0  0  0  0  0  0  0  0  0  0  0  # atno 6908 bound_to 6896
  152.1129  133.4276  159.4676 H   0  0  0  0  0  0  0  0  0  0  0  0  # atno 6909 bound_to 6896
  145.1204  139.3393  143.4717 H   0  0  0  0  0  0  0  0  0  0  0  0  # atno 7974 bound_to 7965
  155.2733  140.3367  155.4263 H   0  0  0  0  0  0  0  0  0  0  0  0  # atno 8008 bound_to 7997
  156.2123  140.1775  156.7709 H   0  0  0  0  0  0  0  0  0  0  0  0  # atno 8009 bound_to 7997
  154.5703  140.0671  156.8939 H   0  0  0  0  0  0  0  0  0  0  0  0  # atno 8010 bound_to 7997
  139.6334  144.0396  152.2034 H   0  0  0  0  0  0  0  0  0  0  0  0  # atno 10167 bound_to 10162
  156.2405  130.4179  149.8767 H   0  0  0  0  0  0  0  0  0  0  0  0  # atno 10718 bound_to 10713
  154.8757  135.3881  154.3990 H   0  0  0  0  0  0  0  0  0  0  0  0  # atno 10763 bound_to 10752
  153.4717  135.7030  153.5995 H   0  0  0  0  0  0  0  0  0  0  0  0  # atno 10764 bound_to 10752
  153.4449  135.3847  155.2218 H   0  0  0  0  0  0  0  0  0  0  0  0  # atno 10765 bound_to 10752
  141.1400  133.8123  157.0618 H   0  0  0  0  0  0  0  0  0  0  0  0  # atno 11005 bound_to 11000
  146.3521  140.1161  142.8602 LP  0  0  0  0  0  0  0  0  0  0  0  0  # atno 17320 bound_to 7965
  145.0747  140.9179  143.4861 LP  0  0  0  0  0  0  0  0  0  0  0  0  # atno 17321 bound_to 7965
  140.0067  144.6254  150.7682 LP  0  0  0  0  0  0  0  0  0  0  0  0  # atno 17342 bound_to 10162
  140.7452  143.2872  151.3432 LP  0  0  0  0  0  0  0  0  0  0  0  0  # atno 17343 bound_to 10162
  156.6350  130.8681  151.3503 LP  0  0  0  0  0  0  0  0  0  0  0  0  # atno 17370 bound_to 10713
  157.7173  130.9513  150.1303 LP  0  0  0  0  0  0  0  0  0  0  0  0  # atno 17371 bound_to 10713
  140.0566  134.9777  157.1231 LP  0  0  0  0  0  0  0  0  0  0  0  0  # atno 17394 bound_to 11000
  140.3910  134.2185  155.7166 LP  0  0  0  0  0  0  0  0  0  0  0  0  # atno 17395 bound_to 11000

$$$$
