AV-unprocessed.smi:1203|AV-procd|sdf|5034|dock5
  -GOLD-   22720 4 53D 1   1.00000     0.00000
 Structure written by MMmdl.
 39 40  0  0  0  0  0  0  0  0  1 V2000
  148.5098  137.8591  157.5679 C   0  0  0  0  0  0  0  0  0  0  0  0
  150.0361  136.8398  157.4698 S   0  0  0  0  0  0  0  0  0  0  0  0
  150.5458  136.5974  158.8279 O   0  0  0  0  0  0  0  0  0  0  0  0
  149.7708  135.7057  156.5716 O   0  0  0  0  0  0  0  0  0  0  0  0
  151.1487  137.8945  156.6667 N   0  0  0  0  0  0  0  0  0  0  0  0
  152.5600  137.4938  156.5682 C   0  0  0  0  0  0  0  0  0  0  0  0
  153.0934  138.1648  155.3043 C   0  0  0  0  0  0  0  0  0  0  0  0
  151.8555  138.2586  154.4237 C   0  0  0  0  0  0  0  0  0  0  0  0
  150.7244  138.5645  155.4226 C   0  0  2  0  0  0  0  0  0  0  0  0
  150.4525  140.0663  155.6228 C   0  0  0  0  0  0  0  0  0  0  0  0
  150.1524  140.7943  154.6762 O   0  0  0  0  0  0  0  0  0  0  0  0
  150.5843  140.5238  156.8773 N   0  0  0  0  0  0  0  0  0  0  0  0
  150.5161  141.9240  157.2789 C   0  0  0  0  0  0  0  0  0  0  0  0
  151.8823  142.4724  157.7378 C   0  0  0  0  0  0  0  0  0  0  0  0
  151.7760  143.5649  158.7895 C   0  0  0  0  0  0  0  0  0  0  0  0
  152.2973  143.3760  160.0867 C   0  0  0  0  0  0  0  0  0  0  0  0
  152.1665  144.4140  161.0287 C   0  0  0  0  0  0  0  0  0  0  0  0
  151.5198  145.6012  160.6320 C   0  0  0  0  0  0  0  0  0  0  0  0
  151.0129  145.7917  159.3949 N   0  0  0  0  0  0  0  0  0  0  0  0
  151.1431  144.7913  158.4971 C   0  0  0  0  0  0  0  0  0  0  0  0
  147.7229  137.2861  158.0579 H   0  0  0  0  0  0  0  0  0  0  0  0
  148.1881  138.1247  156.5617 H   0  0  0  0  0  0  0  0  0  0  0  0
  148.7063  138.7653  158.1398 H   0  0  0  0  0  0  0  0  0  0  0  0
  153.1108  137.7892  157.4610 H   0  0  0  0  0  0  0  0  0  0  0  0
  152.6258  136.4096  156.4707 H   0  0  0  0  0  0  0  0  0  0  0  0
  153.4621  139.1645  155.5383 H   0  0  0  0  0  0  0  0  0  0  0  0
  153.9043  137.6048  154.8382 H   0  0  0  0  0  0  0  0  0  0  0  0
  151.9688  138.9896  153.6227 H   0  0  0  0  0  0  0  0  0  0  0  0
  151.6687  137.2945  153.9485 H   0  0  0  0  0  0  0  0  0  0  0  0
  149.8000  138.1146  155.0581 H   0  0  0  0  0  0  0  0  0  0  0  0
  150.8196  139.8553  157.5974 H   0  0  0  0  0  0  0  0  0  0  0  0
  150.1065  142.5344  156.4728 H   0  0  0  0  0  0  0  0  0  0  0  0
  149.8065  141.9855  158.1043 H   0  0  0  0  0  0  0  0  0  0  0  0
  152.4879  141.6578  158.1371 H   0  0  0  0  0  0  0  0  0  0  0  0
  152.4308  142.8597  156.8786 H   0  0  0  0  0  0  0  0  0  0  0  0
  152.7822  142.4503  160.3598 H   0  0  0  0  0  0  0  0  0  0  0  0
  152.5515  144.3023  162.0314 H   0  0  0  0  0  0  0  0  0  0  0  0
  151.4005  146.4171  161.3295 H   0  0  0  0  0  0  0  0  0  0  0  0
  150.7263  144.9733  157.5174 H   0  0  0  0  0  0  0  0  0  0  0  0
  1  2  1  0  0  0  0
  1 21  1  0  0  0  0
  1 22  1  0  0  0  0
  1 23  1  0  0  0  0
  2  3  2  0  0  0  0
  2  4  2  0  0  0  0
  2  5  1  0  0  0  0
  5  9  1  0  0  0  0
  5  6  1  0  0  0  0
  6  7  1  0  0  0  0
  6 24  1  0  0  0  0
  6 25  1  0  0  0  0
  7  8  1  0  0  0  0
  7 26  1  0  0  0  0
  7 27  1  0  0  0  0
  8  9  1  0  0  0  0
  8 28  1  0  0  0  0
  8 29  1  0  0  0  0
  9 10  1  0  0  0  0
  9 30  1  0  0  0  0
 10 11  2  0  0  0  0
 10 12  1  0  0  0  0
 12 13  1  0  0  0  0
 12 31  1  0  0  0  0
 13 14  1  0  0  0  0
 13 32  1  0  0  0  0
 13 33  1  0  0  0  0
 14 15  1  0  0  0  0
 14 34  1  0  0  0  0
 14 35  1  0  0  0  0
 15 20  1  0  0  0  0
 15 16  2  0  0  0  0
 16 17  1  0  0  0  0
 16 36  1  0  0  0  0
 17 18  2  0  0  0  0
 17 37  1  0  0  0  0
 18 19  1  0  0  0  0
 18 38  1  0  0  0  0
 19 20  2  0  0  0  0
 20 39  1  0  0  0  0
M  END
> <s_m_source_file>
AV-unprocessed.smi

> <i_m_source_file_index>
1203

> <i_lp_mmshare_version>
43012

> <i_f3d_flags>
0

> <s_epik_input>
W0NIM11TKD1PKSg9TylOMVtDSDJdW0NIMl1bQ0gyXVtDQEhdMUMoPU8pW05IXVtDSDJdW0NIMl1jMltjSF1bY0hdW2NIXW5bY0hdMg==

> <s_epik_cmdline>
J2VwaWtfcHl0aG9uJywgJy1waCcsICc3LjAnLCAnLXRuJywgJzgnLCAnLW1hJywgJzIwMCcsICctbWV0YWxfYmluZGluZycsICctaW1hZScsICc8aW5maWxlLm1hZT4nLCAnLW9tYWUnLCAnPG91dGZpbGUubWFlPic=

> <r_epik_Ionization_Penalty>
0.0126915

> <r_epik_Ionization_Penalty_Charging>
0

> <r_epik_Ionization_Penalty_Neutral>
0.0126915

> <r_epik_State_Penalty>
0.0098379

> <r_epik_Charging_Adjusted_Penalty>
0.0098379

> <i_epik_Tot_Q>
0

> <i_epik_Tot_abs_Q>
0

> <r_epik_Metal_State_Penalty>
0.00962905

> <b_epik_Metal_Only>
0

> <s_lp_Force_Field>
OPLS_2005

> <r_lp_Energy>
4.44391

> <b_lp_Chiralities_Consistent>
1

> <s_lp_Variant>
AV-unprocessed.smi:1203-2

> <Gold.Version>
5.8.1

> <Gold.Id.Protein>
6NUR|6NUR_protein|mol2

> <Gold.PLP.Fitness>
41.1185

> <Gold.PLP.PLP>
-33.2938

> <Gold.PLP.part.hbond>
-3.9654

> <Gold.PLP.part.metal>
0.0000

> <Gold.PLP.part.buried>
-2.1781

> <Gold.PLP.part.nonpolar>
-27.7990

> <Gold.PLP.part.repulsive>
0.3706

> <Gold.PLP.ligand.clash>
0.0000

> <Gold.PLP.ligand.torsion>
0.5387

> <Gold.PLP.Chemscore.Hbond>
1.7680

> <Gold.PLP.Chemscore.CHOScore>
1.0000

> <Gold.PLP.Chemscore.Metal>
0.0000

> <Gold.Chemscore.Hbonds>
donor molecule, donor type, donor heavy atom, donor atom, acceptor molecule, acceptor atom, score
      P1  H  6896  6909       L1     3  1.00
      P1  H  7989  7998       L1    11  0.77
      L1  C    20    39       P1  8028  0.88

> <Gold.PLP.Chemscore.Internal.Correction>
0.5980

> <Gold.Rescore>
     Score         DG    S(hbond)    S(metal)    S(lipo)     H(rot)  DE(clash)    DE(int)     intcor
     16.63     -18.60       1.83        0.00     101.54       1.90       1.39       0.58       ----

> <Gold.Chemscore.Fitness>
16.6301

> <Gold.Chemscore.DG>
-18.5979

> <Gold.Chemscore.ZeroCoef>
-5.4800

> <Gold.Chemscore.Hbond>
1.8260

> <Gold.Chemscore.Metal>
0.0000

> <Gold.Chemscore.Lipo>
101.5428

> <Gold.Chemscore.Internal_Hbond>
0.0000

> <Gold.Chemscore.DEClash>
1.3863

> <Gold.Chemscore.DEInternal>
0.5815

> <Gold.Chemscore.Rot>
1.8990

> <Gold.Chemscore.Internal.Correction>
   9.000000E+99

> <Gold.Chemscore.Hbonds>
donor molecule, donor type, donor heavy atom, donor atom, acceptor molecule, acceptor atom, score
      P1  H  6896  6909       L1     3  0.96
      P1  H  7989  7998       L1    11  0.54

> <Gold.Chemscore.Hbond.Weighted>
-6.0987

> <Gold.Chemscore.Metal.Weighted>
-0.0000

> <Gold.Chemscore.Lipo.Weighted>
-11.8805

> <Gold.Chemscore.Internal_Hbond.Weighted>
0.0000

> <Gold.Chemscore.DEClash.Weighted>
1.3863

> <Gold.Chemscore.DEInternal.Weighted>
0.5815

> <Gold.Chemscore.Rot.Weighted>
4.8613

> <Gold.Chemscore.Internal.Correction.Weighted>
   9.000000E+99

> <Gold.Protein.RotatedTorsions>
[ 6907 6896 6895 6894 ] final   76.25 input  -60.11 | X-H torsion
[ 7974 7965 7964 7962 ] final  -86.00 input  175.53 | X-H torsion
[ 8008 7997 7996 7995 ] final   84.84 input   59.86 | X-H torsion
[ 10167 10162 10161 10158 ] final -153.89 input  -65.29 | X-H torsion
[ 10718 10713 10712 10709 ] final  -80.75 input   66.30 | X-H torsion
[ 10763 10752 10751 10750 ] final -168.75 input  -60.55 | X-H torsion
[ 11005 11000 10999 10996 ] final  -11.30 input  -57.11 | X-H torsion

> <Gold.Protein.ActiveResidues>
 VAL166  LYS551  ARG553  GLY616  TRP617  ASP618  TYR619  PRO620  LYS621  CYS622 
 ASP623  PHE694  ASN695  SER759  ASP760  ASP761  ALA762  ILE779  LEU786  VAL792 
 PHE793  MET794  SER795  GLU796  ALA797  LYS798  CYS799  TRP800  GLU811  SER814 

> <Gold.Protein.RotatedAtoms>
  152.5064  134.3997  159.9411 H   0  0  0  0  0  0  0  0  0  0  0  0  # atno 6907 bound_to 6896
  151.3960  133.3767  159.2734 H   0  0  0  0  0  0  0  0  0  0  0  0  # atno 6908 bound_to 6896
  150.9397  134.8828  159.7663 H   0  0  0  0  0  0  0  0  0  0  0  0  # atno 6909 bound_to 6896
  145.4857  140.9555  143.1839 H   0  0  0  0  0  0  0  0  0  0  0  0  # atno 7974 bound_to 7965
  155.9423  140.3407  155.6338 H   0  0  0  0  0  0  0  0  0  0  0  0  # atno 8008 bound_to 7997
  155.7024  140.0762  157.2423 H   0  0  0  0  0  0  0  0  0  0  0  0  # atno 8009 bound_to 7997
  154.4105  140.1637  156.2193 H   0  0  0  0  0  0  0  0  0  0  0  0  # atno 8010 bound_to 7997
  139.7059  143.9187  152.2448 H   0  0  0  0  0  0  0  0  0  0  0  0  # atno 10167 bound_to 10162
  156.0064  130.4583  150.3848 H   0  0  0  0  0  0  0  0  0  0  0  0  # atno 10718 bound_to 10713
  154.6595  135.2923  154.9884 H   0  0  0  0  0  0  0  0  0  0  0  0  # atno 10763 bound_to 10752
  154.0949  135.6585  153.4862 H   0  0  0  0  0  0  0  0  0  0  0  0  # atno 10764 bound_to 10752
  153.0422  135.5229  154.7540 H   0  0  0  0  0  0  0  0  0  0  0  0  # atno 10765 bound_to 10752
  140.7538  133.8570  155.9067 H   0  0  0  0  0  0  0  0  0  0  0  0  # atno 11005 bound_to 11000
  144.7863  139.6421  143.7133 LP  0  0  0  0  0  0  0  0  0  0  0  0  # atno 17320 bound_to 7965
  146.2314  139.5821  142.9552 LP  0  0  0  0  0  0  0  0  0  0  0  0  # atno 17321 bound_to 7965
  139.9043  144.6894  150.8631 LP  0  0  0  0  0  0  0  0  0  0  0  0  # atno 17342 bound_to 10162
  140.7721  143.3490  151.2052 LP  0  0  0  0  0  0  0  0  0  0  0  0  # atno 17343 bound_to 10162
  157.1926  131.0419  151.2692 LP  0  0  0  0  0  0  0  0  0  0  0  0  # atno 17370 bound_to 10713
  157.4048  130.7353  149.6794 LP  0  0  0  0  0  0  0  0  0  0  0  0  # atno 17371 bound_to 10713
  140.9726  134.1511  157.4563 LP  0  0  0  0  0  0  0  0  0  0  0  0  # atno 17394 bound_to 11000
  139.8783  134.9984  156.5897 LP  0  0  0  0  0  0  0  0  0  0  0  0  # atno 17395 bound_to 11000

$$$$
