AV-unprocessed.smi:2557|AV-procd|sdf|10030|dock4
  -GOLD-   2272014 73D 1   1.00000     0.00000
 Structure written by MMmdl.
 38 40  0  0  0  0  0  0  0  0  2 V2000
  153.5443  136.2014  159.8755 O   0  5  0  0  0  0  0  0  0  0  0  0
  153.7763  137.2020  160.5947 C   0  0  0  0  0  0  0  0  0  0  0  0
  153.6266  138.5749  160.3790 C   0  0  0  0  0  0  0  0  0  0  0  0
  153.0725  139.1019  159.1046 C   0  0  0  0  0  0  0  0  0  0  0  0
  152.7454  138.3656  158.1745 O   0  0  0  0  0  0  0  0  0  0  0  0
  152.9202  140.4905  158.9677 N   0  0  0  0  0  0  0  0  0  0  0  0
  153.2676  141.2801  159.9387 C   0  0  0  0  0  0  0  0  0  0  0  0
  153.1257  142.8005  159.8280 C   0  0  0  0  0  0  0  0  0  0  0  0
  152.3307  143.4374  160.9937 C   0  0  0  0  0  0  0  0  0  0  0  0
  152.2549  144.9666  160.8568 C   0  0  0  0  0  0  0  0  0  0  0  0
  151.6453  145.3728  159.5067 C   0  0  0  0  0  0  0  0  0  0  0  0
  152.4268  144.7517  158.3391 C   0  0  0  0  0  0  0  0  0  0  0  0
  152.5141  143.2220  158.4725 C   0  0  0  0  0  0  0  0  0  0  0  0
  153.8065  140.8676  161.1437 N   0  0  0  0  0  0  0  0  0  0  0  0
  153.9760  139.5048  161.3574 N   0  0  0  0  0  0  0  0  0  0  0  0
  154.3655  136.7444  161.8681 C   0  0  0  0  0  0  0  0  0  0  0  0
  153.7642  137.0658  163.1049 C   0  0  0  0  0  0  0  0  0  0  0  0
  154.3701  136.6106  164.2922 C   0  0  0  0  0  0  0  0  0  0  0  0
  155.5052  135.8799  164.3137 N   0  0  0  0  0  0  0  0  0  0  0  0
  156.0825  135.5809  163.1302 C   0  0  0  0  0  0  0  0  0  0  0  0
  155.5574  135.9870  161.8878 C   0  0  0  0  0  0  0  0  0  0  0  0
  154.1354  143.2125  159.8741 H   0  0  0  0  0  0  0  0  0  0  0  0
  151.3171  143.0342  161.0237 H   0  0  0  0  0  0  0  0  0  0  0  0
  152.7939  143.1843  161.9485 H   0  0  0  0  0  0  0  0  0  0  0  0
  151.6630  145.3834  161.6720 H   0  0  0  0  0  0  0  0  0  0  0  0
  153.2546  145.3927  160.9504 H   0  0  0  0  0  0  0  0  0  0  0  0
  150.6043  145.0505  159.4632 H   0  0  0  0  0  0  0  0  0  0  0  0
  151.6373  146.4591  159.4137 H   0  0  0  0  0  0  0  0  0  0  0  0
  151.9525  145.0152  157.3933 H   0  0  0  0  0  0  0  0  0  0  0  0
  153.4322  145.1733  158.3079 H   0  0  0  0  0  0  0  0  0  0  0  0
  153.1044  142.8277  157.6444 H   0  0  0  0  0  0  0  0  0  0  0  0
  151.5162  142.7924  158.3700 H   0  0  0  0  0  0  0  0  0  0  0  0
  154.0778  141.4912  161.8899 H   0  0  0  0  0  0  0  0  0  0  0  0
  154.3498  139.2019  162.2455 H   0  0  0  0  0  0  0  0  0  0  0  0
  152.8565  137.6505  163.1395 H   0  0  0  0  0  0  0  0  0  0  0  0
  153.9305  136.8398  165.2515 H   0  0  0  0  0  0  0  0  0  0  0  0
  156.9909  134.9987  163.1740 H   0  0  0  0  0  0  0  0  0  0  0  0
  156.0566  135.7225  160.9674 H   0  0  0  0  0  0  0  0  0  0  0  0
  1  2  1  0  0  0  0
  2  3  2  0  0  0  0
  2 16  1  0  0  0  0
  3 15  1  0  0  0  0
  3  4  1  0  0  0  0
  4  5  2  0  0  0  0
  4  6  1  0  0  0  0
  6  7  2  0  0  0  0
  7  8  1  0  0  0  0
  7 14  1  0  0  0  0
  8 13  1  0  0  0  0
  8  9  1  0  0  0  0
  8 22  1  0  0  0  0
  9 10  1  0  0  0  0
  9 23  1  0  0  0  0
  9 24  1  0  0  0  0
 10 11  1  0  0  0  0
 10 25  1  0  0  0  0
 10 26  1  0  0  0  0
 11 12  1  0  0  0  0
 11 27  1  0  0  0  0
 11 28  1  0  0  0  0
 12 13  1  0  0  0  0
 12 29  1  0  0  0  0
 12 30  1  0  0  0  0
 13 31  1  0  0  0  0
 13 32  1  0  0  0  0
 14 15  1  0  0  0  0
 14 33  1  0  0  0  0
 15 34  1  0  0  0  0
 16 21  1  0  0  0  0
 16 17  2  0  0  0  0
 17 18  1  0  0  0  0
 17 35  1  0  0  0  0
 18 19  2  0  0  0  0
 18 36  1  0  0  0  0
 19 20  1  0  0  0  0
 20 21  2  0  0  0  0
 20 37  1  0  0  0  0
 21 38  1  0  0  0  0
M  CHG  1   1  -1
M  END
> <s_m_source_file>
AV-unprocessed.smi

> <i_m_source_file_index>
2557

> <i_lp_mmshare_version>
43012

> <i_f3d_flags>
0

> <s_epik_input>
W2NIXTFbY0hdbltjSF1bY0hdYzFDKD1PKUMyPUMoW09IXSlOPUMoW05IXVtOSF0yKVtDSF0zW0NIMl1bQ0gyXVtDSDJdW0NIMl1bQ0gyXTM=

> <s_epik_cmdline>
J2VwaWtfcHl0aG9uJywgJy1waCcsICc3LjAnLCAnLXRuJywgJzgnLCAnLW1hJywgJzIwMCcsICctbWV0YWxfYmluZGluZycsICctaW1hZScsICc8aW5maWxlLm1hZT4nLCAnLW9tYWUnLCAnPG91dGZpbGUubWFlPic=

> <r_epik_Ionization_Penalty>
0.904364

> <r_epik_Ionization_Penalty_Charging>
0.00179702

> <r_epik_Ionization_Penalty_Neutral>
0.902567

> <r_epik_State_Penalty>
2.26092

> <r_epik_Charging_Adjusted_Penalty>
2.26271

> <i_epik_Tot_Q>
-1

> <i_epik_Tot_abs_Q>
1

> <r_epik_Metal_State_Penalty>
1.86017

> <b_epik_Metal_Only>
0

> <s_epik_Chemistry_Notes>
This compound has an imine and may undergo hydrolysis.

> <s_lp_Force_Field>
OPLS_2005

> <r_lp_Energy>
33.3792

> <b_lp_Chiralities_Consistent>
1

> <s_lp_Variant>
AV-unprocessed.smi:2557-4

> <Gold.Version>
5.8.1

> <Gold.Id.Protein>
6NUR|6NUR_protein|mol2

> <Gold.PLP.Fitness>
50.2455

> <Gold.PLP.PLP>
-44.3437

> <Gold.PLP.part.hbond>
-1.0000

> <Gold.PLP.part.metal>
0.0000

> <Gold.PLP.part.buried>
-6.2860

> <Gold.PLP.part.nonpolar>
-36.9626

> <Gold.PLP.part.repulsive>
0.1335

> <Gold.PLP.ligand.clash>
0.0000

> <Gold.PLP.ligand.torsion>
1.1342

> <Gold.PLP.Chemscore.Hbond>
2.0000

> <Gold.PLP.Chemscore.CHOScore>
0.0000

> <Gold.PLP.Chemscore.Metal>
0.0000

> <Gold.Chemscore.Hbonds>
donor molecule, donor type, donor heavy atom, donor atom, acceptor molecule, acceptor atom, score
      P1  H  6896  6908       L1     1  2.00

> <Gold.PLP.Chemscore.Internal.Correction>
2.1703

> <Gold.Rescore>
     Score         DG    S(hbond)    S(metal)    S(lipo)     H(rot)  DE(clash)    DE(int)     intcor
     18.79     -20.18       1.00        0.00     118.99       1.00       0.13       1.26       ----

> <Gold.Chemscore.Fitness>
18.7858

> <Gold.Chemscore.DG>
-20.1813

> <Gold.Chemscore.ZeroCoef>
-5.4800

> <Gold.Chemscore.Hbond>
1.0000

> <Gold.Chemscore.Metal>
0.0000

> <Gold.Chemscore.Lipo>
118.9855

> <Gold.Chemscore.Internal_Hbond>
0.0000

> <Gold.Chemscore.DEClash>
0.1307

> <Gold.Chemscore.DEInternal>
1.2648

> <Gold.Chemscore.Rot>
1.0000

> <Gold.Chemscore.Internal.Correction>
   9.000000E+99

> <Gold.Chemscore.Hbonds>
donor molecule, donor type, donor heavy atom, donor atom, acceptor molecule, acceptor atom, score
      P1  H  6896  6908       L1     1  1.00

> <Gold.Chemscore.Hbond.Weighted>
-3.3400

> <Gold.Chemscore.Metal.Weighted>
-0.0000

> <Gold.Chemscore.Lipo.Weighted>
-13.9213

> <Gold.Chemscore.Internal_Hbond.Weighted>
0.0000

> <Gold.Chemscore.DEClash.Weighted>
0.1307

> <Gold.Chemscore.DEInternal.Weighted>
1.2648

> <Gold.Chemscore.Rot.Weighted>
2.5600

> <Gold.Chemscore.Internal.Correction.Weighted>
   9.000000E+99

> <Gold.Protein.RotatedTorsions>
[ 6907 6896 6895 6894 ] final  -72.82 input  -60.11 | X-H torsion
[ 7974 7965 7964 7962 ] final  -88.37 input  175.53 | X-H torsion
[ 8008 7997 7996 7995 ] final  -78.31 input   59.86 | X-H torsion
[ 10167 10162 10161 10158 ] final  -80.50 input  -65.29 | X-H torsion
[ 10718 10713 10712 10709 ] final -118.87 input   66.30 | X-H torsion
[ 10763 10752 10751 10750 ] final  152.97 input  -60.55 | X-H torsion
[ 11005 11000 10999 10996 ] final   -4.93 input  -57.11 | X-H torsion

> <Gold.Protein.ActiveResidues>
 VAL166  LYS551  ARG553  GLY616  TRP617  ASP618  TYR619  PRO620  LYS621  CYS622 
 ASP623  PHE694  ASN695  SER759  ASP760  ASP761  ALA762  ILE779  LEU786  VAL792 
 PHE793  MET794  SER795  GLU796  ALA797  LYS798  CYS799  TRP800  GLU811  SER814 

> <Gold.Protein.RotatedAtoms>
  150.7154  134.5107  159.5605 H   0  0  0  0  0  0  0  0  0  0  0  0  # atno 6907 bound_to 6896
  152.2684  134.7956  160.0427 H   0  0  0  0  0  0  0  0  0  0  0  0  # atno 6908 bound_to 6896
  151.8645  133.3428  159.3751 H   0  0  0  0  0  0  0  0  0  0  0  0  # atno 6909 bound_to 6896
  145.4541  140.9561  143.2006 H   0  0  0  0  0  0  0  0  0  0  0  0  # atno 7974 bound_to 7965
  154.5677  140.0696  156.8917 H   0  0  0  0  0  0  0  0  0  0  0  0  # atno 8008 bound_to 7997
  155.2692  140.3364  155.4248 H   0  0  0  0  0  0  0  0  0  0  0  0  # atno 8009 bound_to 7997
  156.2094  140.1753  156.7714 H   0  0  0  0  0  0  0  0  0  0  0  0  # atno 8010 bound_to 7997
  140.4497  143.2487  151.8506 H   0  0  0  0  0  0  0  0  0  0  0  0  # atno 10167 bound_to 10162
  156.1138  130.6270  150.9345 H   0  0  0  0  0  0  0  0  0  0  0  0  # atno 10718 bound_to 10713
  154.1287  135.2828  155.3190 H   0  0  0  0  0  0  0  0  0  0  0  0  # atno 10763 bound_to 10752
  154.6371  135.5415  153.7750 H   0  0  0  0  0  0  0  0  0  0  0  0  # atno 10764 bound_to 10752
  153.0288  135.6477  154.1438 H   0  0  0  0  0  0  0  0  0  0  0  0  # atno 10765 bound_to 10752
  140.6856  133.9116  155.8584 H   0  0  0  0  0  0  0  0  0  0  0  0  # atno 11005 bound_to 11000
  144.8043  139.6080  143.7057 LP  0  0  0  0  0  0  0  0  0  0  0  0  # atno 17320 bound_to 7965
  146.2488  139.6155  142.9441 LP  0  0  0  0  0  0  0  0  0  0  0  0  # atno 17321 bound_to 7965
  139.4795  144.5134  151.8901 LP  0  0  0  0  0  0  0  0  0  0  0  0  # atno 17342 bound_to 10162
  140.4221  144.2229  150.5887 LP  0  0  0  0  0  0  0  0  0  0  0  0  # atno 17343 bound_to 10162
  157.6321  131.0920  150.8421 LP  0  0  0  0  0  0  0  0  0  0  0  0  # atno 17370 bound_to 10713
  156.8528  130.5086  149.5310 LP  0  0  0  0  0  0  0  0  0  0  0  0  # atno 17371 bound_to 10713
  141.0283  134.0792  157.4044 LP  0  0  0  0  0  0  0  0  0  0  0  0  # atno 17394 bound_to 11000
  139.8938  135.0133  156.6921 LP  0  0  0  0  0  0  0  0  0  0  0  0  # atno 17395 bound_to 11000

$$$$
