AV-unprocessed.smi:113|AV-procd|sdf|1094|dock8
  -GOLD-   2262018203D 1   1.00000     0.00000
 Structure written by MMmdl.
 52 55  0  0  0  0  0  0  0  0  1 V2000
  154.4673  140.3170  162.5131 C   0  0  0  0  0  0  0  0  0  0  0  0
  153.7660  140.7361  161.2376 C   0  0  0  0  0  0  0  0  0  0  0  0
  153.5236  139.8066  160.2107 C   0  0  0  0  0  0  0  0  0  0  0  0
  152.8717  140.2394  159.0331 C   0  0  0  0  0  0  0  0  0  0  0  0
  152.5836  139.2674  157.8830 C   0  0  0  0  0  0  0  0  0  0  0  0
  151.1901  139.1080  157.4927 N   0  0  0  0  0  0  0  0  0  0  0  0
  150.3378  138.3845  158.3631 C   0  0  0  0  0  0  0  0  0  0  0  0
  150.7462  137.9260  159.4322 O   0  0  0  0  0  0  0  0  0  0  0  0
  148.9638  138.2081  157.8852 C   0  0  0  0  0  0  0  0  0  0  0  0
  147.9935  137.4331  158.7626 C   0  0  0  0  0  0  0  0  0  0  0  0
  148.5978  138.7211  156.6861 C   0  0  0  0  0  0  0  0  0  0  0  0
  149.4529  139.4286  155.8587 N   0  0  0  0  0  0  0  0  0  0  0  0
  148.9877  139.9416  154.5185 C   0  0  1  0  0  0  0  0  0  0  0  0
  147.6960  139.2555  154.0948 C   0  0  0  0  0  0  0  0  0  0  0  0
  147.0798  140.3074  153.1934 C   0  0  2  0  0  0  0  0  0  0  0  0
  147.4922  140.1079  151.8548 O   0  0  0  0  0  0  0  0  0  0  0  0
  147.6396  141.6397  153.7330 C   0  0  1  0  0  0  0  0  0  0  0  0
  146.6135  142.4585  154.5324 C   0  0  0  0  0  0  0  0  0  0  0  0
  145.4897  142.7566  153.7318 O   0  0  0  0  0  0  0  0  0  0  0  0
  148.7012  141.2989  154.6242 O   0  0  0  0  0  0  0  0  0  0  0  0
  150.7956  139.6240  156.2379 C   0  0  0  0  0  0  0  0  0  0  0  0
  151.5900  140.2005  155.4909 O   0  0  0  0  0  0  0  0  0  0  0  0
  152.4936  141.6064  158.9466 C   0  0  0  0  0  0  0  0  0  0  0  0
  151.8403  142.1219  157.8010 C   0  0  0  0  0  0  0  0  0  0  0  0
  151.4751  143.4781  157.7346 C   0  0  0  0  0  0  0  0  0  0  0  0
  151.7577  144.3331  158.8123 C   0  0  0  0  0  0  0  0  0  0  0  0
  152.4064  143.8292  159.9539 C   0  0  0  0  0  0  0  0  0  0  0  0
  152.7835  142.4721  160.0424 C   0  0  0  0  0  0  0  0  0  0  0  0
  153.4072  142.0320  161.1574 N   0  0  0  0  0  0  0  0  0  0  0  0
  154.4722  139.2319  162.6212 H   0  0  0  0  0  0  0  0  0  0  0  0
  153.9685  140.7404  163.3855 H   0  0  0  0  0  0  0  0  0  0  0  0
  155.5007  140.6646  162.5059 H   0  0  0  0  0  0  0  0  0  0  0  0
  153.8402  138.7825  160.3388 H   0  0  0  0  0  0  0  0  0  0  0  0
  153.1386  139.5630  156.9914 H   0  0  0  0  0  0  0  0  0  0  0  0
  152.9689  138.2753  158.1240 H   0  0  0  0  0  0  0  0  0  0  0  0
  147.0040  137.3629  158.3099 H   0  0  0  0  0  0  0  0  0  0  0  0
  147.8826  137.9217  159.7314 H   0  0  0  0  0  0  0  0  0  0  0  0
  148.3565  136.4184  158.9296 H   0  0  0  0  0  0  0  0  0  0  0  0
  147.5821  138.5577  156.3551 H   0  0  0  0  0  0  0  0  0  0  0  0
  149.8047  139.8160  153.8058 H   0  0  0  0  0  0  0  0  0  0  0  0
  147.8881  138.2942  153.6164 H   0  0  0  0  0  0  0  0  0  0  0  0
  147.0652  139.0988  154.9713 H   0  0  0  0  0  0  0  0  0  0  0  0
  145.9905  140.2657  153.2222 H   0  0  0  0  0  0  0  0  0  0  0  0
  148.4364  140.1294  151.8222 H   0  0  0  0  0  0  0  0  0  0  0  0
  148.0490  142.2525  152.9278 H   0  0  0  0  0  0  0  0  0  0  0  0
  146.2974  141.9225  155.4280 H   0  0  0  0  0  0  0  0  0  0  0  0
  147.0573  143.3995  154.8591 H   0  0  0  0  0  0  0  0  0  0  0  0
  145.0939  141.9450  153.4532 H   0  0  0  0  0  0  0  0  0  0  0  0
  151.6083  141.4925  156.9555 H   0  0  0  0  0  0  0  0  0  0  0  0
  150.9779  143.8617  156.8557 H   0  0  0  0  0  0  0  0  0  0  0  0
  151.4780  145.3753  158.7645 H   0  0  0  0  0  0  0  0  0  0  0  0
  152.6192  144.4968  160.7761 H   0  0  0  0  0  0  0  0  0  0  0  0
  1  2  1  0  0  0  0
  1 30  1  0  0  0  0
  1 31  1  0  0  0  0
  1 32  1  0  0  0  0
  2 29  1  0  0  0  0
  2  3  2  0  0  0  0
  3  4  1  0  0  0  0
  3 33  1  0  0  0  0
  4  5  1  0  0  0  0
  4 23  2  0  0  0  0
  5  6  1  0  0  0  0
  5 34  1  0  0  0  0
  5 35  1  0  0  0  0
  6 21  1  0  0  0  0
  6  7  1  0  0  0  0
  7  8  2  0  0  0  0
  7  9  1  0  0  0  0
  9 10  1  0  0  0  0
  9 11  2  0  0  0  0
 10 36  1  0  0  0  0
 10 37  1  0  0  0  0
 10 38  1  0  0  0  0
 11 12  1  0  0  0  0
 11 39  1  0  0  0  0
 12 13  1  0  0  0  0
 12 21  1  0  0  0  0
 13 20  1  0  0  0  0
 13 14  1  0  0  0  0
 13 40  1  0  0  0  0
 14 15  1  0  0  0  0
 14 41  1  0  0  0  0
 14 42  1  0  0  0  0
 15 16  1  0  0  0  0
 15 17  1  0  0  0  0
 15 43  1  0  0  0  0
 16 44  1  0  0  0  0
 17 18  1  0  0  0  0
 17 20  1  0  0  0  0
 17 45  1  0  0  0  0
 18 19  1  0  0  0  0
 18 46  1  0  0  0  0
 18 47  1  0  0  0  0
 19 48  1  0  0  0  0
 21 22  2  0  0  0  0
 23 28  1  0  0  0  0
 23 24  1  0  0  0  0
 24 25  2  0  0  0  0
 24 49  1  0  0  0  0
 25 26  1  0  0  0  0
 25 50  1  0  0  0  0
 26 27  2  0  0  0  0
 26 51  1  0  0  0  0
 27 28  1  0  0  0  0
 27 52  1  0  0  0  0
 28 29  2  0  0  0  0
M  END
> <s_m_source_file>
AV-unprocessed.smi

> <i_m_source_file_index>
113

> <i_lp_mmshare_version>
43012

> <i_f3d_flags>
0

> <s_epik_input>
W2NIXTFbY0hdW2NIXVtjSF1jKGMxMiluYyhbQ0gzXSlbY0hdYzJbQ0gyXW4zYyg9TyljKFtDSDNdKVtjSF1uKGMzPU8pW0NAQEhdNFtDSDJdW0NAQEhdKFtPSF0pW0NASF0oTzQpW0NIMl1bT0hd

> <s_epik_cmdline>
J2VwaWtfcHl0aG9uJywgJy1waCcsICc3LjAnLCAnLXRuJywgJzgnLCAnLW1hJywgJzIwMCcsICctbWV0YWxfYmluZGluZycsICctaW1hZScsICc8aW5maWxlLm1hZT4nLCAnLW9tYWUnLCAnPG91dGZpbGUubWFlPic=

> <r_lp_tautomer_probability>
1

> <r_epik_Ionization_Penalty>
0.214728

> <r_epik_Ionization_Penalty_Charging>
3.04883e-08

> <r_epik_Ionization_Penalty_Neutral>
0.214728

> <r_epik_State_Penalty>
0.204913

> <r_epik_Charging_Adjusted_Penalty>
0.204913

> <i_epik_Tot_Q>
0

> <i_epik_Tot_abs_Q>
0

> <r_epik_Metal_State_Penalty>
0.000244761

> <b_epik_Metal_Only>
0

> <s_epik_Chemistry_Notes>
This compound contains an acetal/aminal-like group ( X-CH(R)-Y where X, Y are N, S, or O) that may be acid/base labile, releasing an aldehyde.

> <s_lp_Force_Field>
OPLS_2005

> <r_lp_Energy>
39.8803

> <b_lp_Chiralities_Consistent>
1

> <s_lp_Variant>
AV-unprocessed.smi:113-4

> <Gold.Version>
5.8.1

> <Gold.Id.Protein>
6NUR|6NUR_protein|mol2

> <Gold.PLP.Fitness>
56.1724

> <Gold.PLP.PLP>
-49.8593

> <Gold.PLP.part.hbond>
-3.3925

> <Gold.PLP.part.metal>
0.0000

> <Gold.PLP.part.buried>
-7.5024

> <Gold.PLP.part.nonpolar>
-40.4956

> <Gold.PLP.part.repulsive>
0.1436

> <Gold.PLP.ligand.clash>
0.0000

> <Gold.PLP.ligand.torsion>
0.6381

> <Gold.PLP.Chemscore.Hbond>
2.5175

> <Gold.PLP.Chemscore.CHOScore>
0.0000

> <Gold.PLP.Chemscore.Metal>
0.0000

> <Gold.Chemscore.Hbonds>
donor molecule, donor type, donor heavy atom, donor atom, acceptor molecule, acceptor atom, score
      L1  H    16    44       P1  7957  0.48
      L1  H    19    48       P1 10175  0.13
      P1  H  7989  7998       L1    22  0.77

> <Gold.PLP.Chemscore.Internal.Correction>
0.0368

> <Gold.Rescore>
     Score         DG    S(hbond)    S(metal)    S(lipo)     H(rot)  DE(clash)    DE(int)     intcor
     19.11     -20.05       2.25        0.00     124.89       2.95       0.26       0.68       ----

> <Gold.Chemscore.Fitness>
19.1071

> <Gold.Chemscore.DG>
-20.0465

> <Gold.Chemscore.ZeroCoef>
-5.4800

> <Gold.Chemscore.Hbond>
2.2451

> <Gold.Chemscore.Metal>
0.0000

> <Gold.Chemscore.Lipo>
124.8861

> <Gold.Chemscore.Internal_Hbond>
0.0000

> <Gold.Chemscore.DEClash>
0.2564

> <Gold.Chemscore.DEInternal>
0.6829

> <Gold.Chemscore.Rot>
2.9469

> <Gold.Chemscore.Internal.Correction>
   9.000000E+99

> <Gold.Chemscore.Hbonds>
donor molecule, donor type, donor heavy atom, donor atom, acceptor molecule, acceptor atom, score
      L1  H    16    44       P1  7957  0.47
      P1  H  7989  7998       L1    22  0.74

> <Gold.Chemscore.Hbond.Weighted>
-7.4988

> <Gold.Chemscore.Metal.Weighted>
-0.0000

> <Gold.Chemscore.Lipo.Weighted>
-14.6117

> <Gold.Chemscore.Internal_Hbond.Weighted>
0.0000

> <Gold.Chemscore.DEClash.Weighted>
0.2564

> <Gold.Chemscore.DEInternal.Weighted>
0.6829

> <Gold.Chemscore.Rot.Weighted>
7.5439

> <Gold.Chemscore.Internal.Correction.Weighted>
   9.000000E+99

> <Gold.Protein.RotatedTorsions>
[ 6907 6896 6895 6894 ] final  113.06 input  -60.11 | X-H torsion
[ 7974 7965 7964 7962 ] final  -63.60 input  175.53 | X-H torsion
[ 8008 7997 7996 7995 ] final  -97.75 input   59.86 | X-H torsion
[ 10167 10162 10161 10158 ] final  -41.31 input  -65.29 | X-H torsion
[ 10718 10713 10712 10709 ] final  101.19 input   66.30 | X-H torsion
[ 10763 10752 10751 10750 ] final -169.50 input  -60.55 | X-H torsion
[ 11005 11000 10999 10996 ] final -143.34 input  -57.11 | X-H torsion

> <Gold.Protein.ActiveResidues>
 VAL166  LYS551  ARG553  GLY616  TRP617  ASP618  TYR619  PRO620  LYS621  CYS622 
 ASP623  PHE694  ASN695  SER759  ASP760  ASP761  ALA762  ILE779  LEU786  VAL792 
 PHE793  MET794  SER795  GLU796  ALA797  LYS798  CYS799  TRP800  GLU811  SER814 

> <Gold.Protein.RotatedAtoms>
  152.4882  133.8428  159.7161 H   0  0  0  0  0  0  0  0  0  0  0  0  # atno 6907 bound_to 6896
  150.8987  133.7138  159.2891 H   0  0  0  0  0  0  0  0  0  0  0  0  # atno 6908 bound_to 6896
  151.4587  135.1040  159.9771 H   0  0  0  0  0  0  0  0  0  0  0  0  # atno 6909 bound_to 6896
  145.7770  140.8782  143.0350 H   0  0  0  0  0  0  0  0  0  0  0  0  # atno 7974 bound_to 7965
  154.7920  140.0460  157.1208 H   0  0  0  0  0  0  0  0  0  0  0  0  # atno 8008 bound_to 7997
  154.9580  140.3074  155.5024 H   0  0  0  0  0  0  0  0  0  0  0  0  # atno 8009 bound_to 7997
  156.2951  140.2276  156.4663 H   0  0  0  0  0  0  0  0  0  0  0  0  # atno 8010 bound_to 7997
  140.7007  143.3102  151.3048 H   0  0  0  0  0  0  0  0  0  0  0  0  # atno 10167 bound_to 10162
  157.6836  131.0719  150.5214 H   0  0  0  0  0  0  0  0  0  0  0  0  # atno 10718 bound_to 10713
  154.6516  135.2912  154.9980 H   0  0  0  0  0  0  0  0  0  0  0  0  # atno 10763 bound_to 10752
  154.1071  135.6568  153.4882 H   0  0  0  0  0  0  0  0  0  0  0  0  # atno 10764 bound_to 10752
  153.0379  135.5256  154.7427 H   0  0  0  0  0  0  0  0  0  0  0  0  # atno 10765 bound_to 10752
  140.8135  134.2716  157.4931 H   0  0  0  0  0  0  0  0  0  0  0  0  # atno 11005 bound_to 11000
  144.6803  139.9935  143.7484 LP  0  0  0  0  0  0  0  0  0  0  0  0  # atno 17320 bound_to 7965
  146.0113  139.3172  143.0869 LP  0  0  0  0  0  0  0  0  0  0  0  0  # atno 17321 bound_to 7965
  139.6522  144.0341  152.2634 LP  0  0  0  0  0  0  0  0  0  0  0  0  # atno 17342 bound_to 10162
  139.9881  144.6381  150.7839 LP  0  0  0  0  0  0  0  0  0  0  0  0  # atno 17343 bound_to 10162
  156.5527  130.4236  149.6100 LP  0  0  0  0  0  0  0  0  0  0  0  0  # atno 17370 bound_to 10713
  156.2888  130.7113  151.1956 LP  0  0  0  0  0  0  0  0  0  0  0  0  # atno 17371 bound_to 10713
  139.8712  134.9496  156.4031 LP  0  0  0  0  0  0  0  0  0  0  0  0  # atno 17394 bound_to 11000
  140.9173  133.7669  155.9864 LP  0  0  0  0  0  0  0  0  0  0  0  0  # atno 17395 bound_to 11000

$$$$
