AV-unprocessed.smi:1506|AV-procd|sdf|6077|dock3
  -GOLD-   22720 6203D 1   1.00000     0.00000
 Structure written by MMmdl.
 39 41  0  0  0  0  0  0  0  0  1 V2000
  143.7362  144.0135  157.0294 C   0  0  0  0  0  0  0  0  0  0  0  0
  144.6102  143.6406  155.8495 C   0  0  0  0  0  0  0  0  0  0  0  0
  144.5587  144.3916  154.6586 C   0  0  0  0  0  0  0  0  0  0  0  0
  145.3753  144.0369  153.5690 C   0  0  0  0  0  0  0  0  0  0  0  0
  146.2461  142.9344  153.6652 C   0  0  0  0  0  0  0  0  0  0  0  0
  146.3098  142.1732  154.8598 C   0  0  0  0  0  0  0  0  0  0  0  0
  147.1346  141.0839  155.0423 O   0  0  0  0  0  0  0  0  0  0  0  0
  148.1791  140.8661  154.1031 C   0  0  0  0  0  0  0  0  0  0  0  0
  149.4620  140.4920  154.8596 C   0  0  1  0  0  0  0  0  0  0  0  0
  150.3656  139.9078  153.9423 O   0  0  0  0  0  0  0  0  0  0  0  0
  150.1186  141.7098  155.5390 C   0  0  0  0  0  0  0  0  0  0  0  0
  151.1203  141.3283  156.5187 N   0  0  0  0  0  0  0  0  0  0  0  0
  151.7807  140.1566  156.5872 C   0  0  0  0  0  0  0  0  0  0  0  0
  152.6639  140.0114  157.5710 N   0  0  0  0  0  0  0  0  0  0  0  0
  152.5643  141.2309  158.2185 C   0  0  0  0  0  0  0  0  0  0  0  0
  153.2431  141.7243  159.3559 C   0  0  0  0  0  0  0  0  0  0  0  0
  152.9726  143.0201  159.8432 C   0  0  0  0  0  0  0  0  0  0  0  0
  152.0233  143.8417  159.2014 C   0  0  0  0  0  0  0  0  0  0  0  0
  151.3348  143.3723  158.0663 C   0  0  0  0  0  0  0  0  0  0  0  0
  151.6059  142.0782  157.5845 C   0  0  0  0  0  0  0  0  0  0  0  0
  145.4846  142.5388  155.9435 C   0  0  0  0  0  0  0  0  0  0  0  0
  142.9693  144.7339  156.7429 H   0  0  0  0  0  0  0  0  0  0  0  0
  144.3420  144.4544  157.8214 H   0  0  0  0  0  0  0  0  0  0  0  0
  143.2380  143.1298  157.4291 H   0  0  0  0  0  0  0  0  0  0  0  0
  143.8956  145.2404  154.5758 H   0  0  0  0  0  0  0  0  0  0  0  0
  145.3347  144.6120  152.6558 H   0  0  0  0  0  0  0  0  0  0  0  0
  146.8556  142.6943  152.8077 H   0  0  0  0  0  0  0  0  0  0  0  0
  147.8964  140.0523  153.4327 H   0  0  0  0  0  0  0  0  0  0  0  0
  148.3506  141.7584  153.4987 H   0  0  0  0  0  0  0  0  0  0  0  0
  149.2252  139.7376  155.6110 H   0  0  0  0  0  0  0  0  0  0  0  0
  149.9077  139.7519  153.1301 H   0  0  0  0  0  0  0  0  0  0  0  0
  150.5860  142.3573  154.7959 H   0  0  0  0  0  0  0  0  0  0  0  0
  149.3630  142.3133  156.0433 H   0  0  0  0  0  0  0  0  0  0  0  0
  151.6036  139.3661  155.8726 H   0  0  0  0  0  0  0  0  0  0  0  0
  153.9733  141.1046  159.8548 H   0  0  0  0  0  0  0  0  0  0  0  0
  153.4967  143.3861  160.7140 H   0  0  0  0  0  0  0  0  0  0  0  0
  151.8238  144.8331  159.5816 H   0  0  0  0  0  0  0  0  0  0  0  0
  150.6081  143.9991  157.5711 H   0  0  0  0  0  0  0  0  0  0  0  0
  145.5251  141.9657  156.8584 H   0  0  0  0  0  0  0  0  0  0  0  0
  1  2  1  0  0  0  0
  1 22  1  0  0  0  0
  1 23  1  0  0  0  0
  1 24  1  0  0  0  0
  2 21  1  0  0  0  0
  2  3  2  0  0  0  0
  3  4  1  0  0  0  0
  3 25  1  0  0  0  0
  4  5  2  0  0  0  0
  4 26  1  0  0  0  0
  5  6  1  0  0  0  0
  5 27  1  0  0  0  0
  6  7  1  0  0  0  0
  6 21  2  0  0  0  0
  7  8  1  0  0  0  0
  8  9  1  0  0  0  0
  8 28  1  0  0  0  0
  8 29  1  0  0  0  0
  9 10  1  0  0  0  0
  9 11  1  0  0  0  0
  9 30  1  0  0  0  0
 10 31  1  0  0  0  0
 11 12  1  0  0  0  0
 11 32  1  0  0  0  0
 11 33  1  0  0  0  0
 12 20  1  0  0  0  0
 12 13  1  0  0  0  0
 13 14  2  0  0  0  0
 13 34  1  0  0  0  0
 14 15  1  0  0  0  0
 15 20  2  0  0  0  0
 15 16  1  0  0  0  0
 16 17  2  0  0  0  0
 16 35  1  0  0  0  0
 17 18  1  0  0  0  0
 17 36  1  0  0  0  0
 18 19  2  0  0  0  0
 18 37  1  0  0  0  0
 19 20  1  0  0  0  0
 19 38  1  0  0  0  0
 21 39  1  0  0  0  0
M  END
> <s_m_source_file>
AV-unprocessed.smi

> <i_m_source_file_index>
1506

> <i_lp_mmshare_version>
43012

> <i_f3d_flags>
0

> <s_epik_input>
W0NIM11jMVtjSF1bY0hdW2NIXWMoW2NIXTEpT1tDSDJdW0NASF0oW09IXSlbQ0gyXW4oW2NIXW4yKWMoYzIzKVtjSF1bY0hdW2NIXVtjSF0z

> <s_epik_cmdline>
J2VwaWtfcHl0aG9uJywgJy1waCcsICc3LjAnLCAnLXRuJywgJzgnLCAnLW1hJywgJzIwMCcsICctbWV0YWxfYmluZGluZycsICctaW1hZScsICc8aW5maWxlLm1hZT4nLCAnLW9tYWUnLCAnPG91dGZpbGUubWFlPic=

> <r_lp_tautomer_probability>
1

> <r_epik_Ionization_Penalty>
0.0608485

> <r_epik_Ionization_Penalty_Charging>
0

> <r_epik_Ionization_Penalty_Neutral>
0.0608485

> <r_epik_State_Penalty>
0.0527778

> <r_epik_Charging_Adjusted_Penalty>
0.0527778

> <i_epik_Tot_Q>
0

> <i_epik_Tot_abs_Q>
0

> <r_epik_Metal_State_Penalty>
5.51973e-05

> <b_epik_Metal_Only>
0

> <s_lp_Force_Field>
OPLS_2005

> <r_lp_Energy>
14.3046

> <b_lp_Chiralities_Consistent>
1

> <s_lp_Variant>
AV-unprocessed.smi:1506-2

> <Gold.Version>
5.8.1

> <Gold.Id.Protein>
6NUR|6NUR_protein|mol2

> <Gold.PLP.Fitness>
53.5749

> <Gold.PLP.PLP>
-46.4161

> <Gold.PLP.part.hbond>
-3.0000

> <Gold.PLP.part.metal>
0.0000

> <Gold.PLP.part.buried>
-6.2958

> <Gold.PLP.part.nonpolar>
-36.4276

> <Gold.PLP.part.repulsive>
0.0985

> <Gold.PLP.ligand.clash>
0.0000

> <Gold.PLP.ligand.torsion>
0.9999

> <Gold.PLP.Chemscore.Hbond>
3.0000

> <Gold.PLP.Chemscore.CHOScore>
0.0000

> <Gold.PLP.Chemscore.Metal>
0.0000

> <Gold.Chemscore.Hbonds>
donor molecule, donor type, donor heavy atom, donor atom, acceptor molecule, acceptor atom, score
      L1  H    10    31       P1  7957  1.00
      P1  H  7989  7998       L1    10  1.00
      P1  H  7997  8009       L1    14  1.00

> <Gold.PLP.Chemscore.Internal.Correction>
0.1586

> <Gold.Rescore>
     Score         DG    S(hbond)    S(metal)    S(lipo)     H(rot)  DE(clash)    DE(int)     intcor
     17.64     -20.64       2.25        0.00     113.09       2.19       0.49       2.50       ----

> <Gold.Chemscore.Fitness>
17.6419

> <Gold.Chemscore.DG>
-20.6354

> <Gold.Chemscore.ZeroCoef>
-5.4800

> <Gold.Chemscore.Hbond>
2.2527

> <Gold.Chemscore.Metal>
0.0000

> <Gold.Chemscore.Lipo>
113.0918

> <Gold.Chemscore.Internal_Hbond>
0.0000

> <Gold.Chemscore.DEClash>
0.4900

> <Gold.Chemscore.DEInternal>
2.5034

> <Gold.Chemscore.Rot>
2.1877

> <Gold.Chemscore.Internal.Correction>
   9.000000E+99

> <Gold.Chemscore.Hbonds>
donor molecule, donor type, donor heavy atom, donor atom, acceptor molecule, acceptor atom, score
      L1  H    10    31       P1  7957  0.92
      P1  H  7989  7998       L1    10  0.31
      P1  H  7997  8009       L1    14  0.21

> <Gold.Chemscore.Hbond.Weighted>
-7.5241

> <Gold.Chemscore.Metal.Weighted>
-0.0000

> <Gold.Chemscore.Lipo.Weighted>
-13.2317

> <Gold.Chemscore.Internal_Hbond.Weighted>
0.0000

> <Gold.Chemscore.DEClash.Weighted>
0.4900

> <Gold.Chemscore.DEInternal.Weighted>
2.5034

> <Gold.Chemscore.Rot.Weighted>
5.6005

> <Gold.Chemscore.Internal.Correction.Weighted>
   9.000000E+99

> <Gold.Protein.RotatedTorsions>
[ 6907 6896 6895 6894 ] final   50.18 input  -60.11 | X-H torsion
[ 7974 7965 7964 7962 ] final -127.80 input  175.53 | X-H torsion
[ 8008 7997 7996 7995 ] final  173.85 input   59.86 | X-H torsion
[ 10167 10162 10161 10158 ] final  -62.85 input  -65.29 | X-H torsion
[ 10718 10713 10712 10709 ] final  146.41 input   66.30 | X-H torsion
[ 10763 10752 10751 10750 ] final   69.90 input  -60.55 | X-H torsion
[ 11005 11000 10999 10996 ] final  150.11 input  -57.11 | X-H torsion

> <Gold.Protein.ActiveResidues>
 VAL166  LYS551  ARG553  GLY616  TRP617  ASP618  TYR619  PRO620  LYS621  CYS622 
 ASP623  PHE694  ASN695  SER759  ASP760  ASP761  ALA762  ILE779  LEU786  VAL792 
 PHE793  MET794  SER795  GLU796  ALA797  LYS798  CYS799  TRP800  GLU811  SER814 

> <Gold.Protein.RotatedAtoms>
  152.2990  134.7633  160.0361 H   0  0  0  0  0  0  0  0  0  0  0  0  # atno 6907 bound_to 6896
  151.8153  133.3382  159.3576 H   0  0  0  0  0  0  0  0  0  0  0  0  # atno 6908 bound_to 6896
  150.7265  134.5555  159.5860 H   0  0  0  0  0  0  0  0  0  0  0  0  # atno 6909 bound_to 6896
  144.9735  140.7569  143.4656 H   0  0  0  0  0  0  0  0  0  0  0  0  # atno 7974 bound_to 7965
  156.1034  140.1449  156.9437 H   0  0  0  0  0  0  0  0  0  0  0  0  # atno 8008 bound_to 7997
  154.4717  140.0907  156.7207 H   0  0  0  0  0  0  0  0  0  0  0  0  # atno 8009 bound_to 7997
  155.4721  140.3442  155.4329 H   0  0  0  0  0  0  0  0  0  0  0  0  # atno 8010 bound_to 7997
  140.5911  143.2342  151.6138 H   0  0  0  0  0  0  0  0  0  0  0  0  # atno 10167 bound_to 10162
  157.3335  131.0924  151.1143 H   0  0  0  0  0  0  0  0  0  0  0  0  # atno 10718 bound_to 10713
  153.0312  135.5193  154.7359 H   0  0  0  0  0  0  0  0  0  0  0  0  # atno 10763 bound_to 10752
  154.6373  135.2908  155.0148 H   0  0  0  0  0  0  0  0  0  0  0  0  # atno 10764 bound_to 10752
  154.1079  135.6626  153.4932 H   0  0  0  0  0  0  0  0  0  0  0  0  # atno 10765 bound_to 10752
  140.1103  134.8928  157.1926 H   0  0  0  0  0  0  0  0  0  0  0  0  # atno 11005 bound_to 11000
  145.2525  139.2026  143.4935 LP  0  0  0  0  0  0  0  0  0  0  0  0  # atno 17320 bound_to 7965
  146.3388  140.2440  142.8596 LP  0  0  0  0  0  0  0  0  0  0  0  0  # atno 17321 bound_to 7965
  139.5228  144.3152  152.0958 LP  0  0  0  0  0  0  0  0  0  0  0  0  # atno 17342 bound_to 10162
  140.2317  144.4361  150.6297 LP  0  0  0  0  0  0  0  0  0  0  0  0  # atno 17343 bound_to 10162
  157.2382  130.6557  149.5878 LP  0  0  0  0  0  0  0  0  0  0  0  0  # atno 17370 bound_to 10713
  155.9698  130.4577  150.5971 LP  0  0  0  0  0  0  0  0  0  0  0  0  # atno 17371 bound_to 10713
  140.3100  134.3034  155.7269 LP  0  0  0  0  0  0  0  0  0  0  0  0  # atno 17394 bound_to 11000
  141.2128  133.7645  156.9763 LP  0  0  0  0  0  0  0  0  0  0  0  0  # atno 17395 bound_to 11000

$$$$
