AV-unprocessed.smi:1807|AV-procd|sdf|7303|dock10
  -GOLD-   22720 8563D 1   1.00000     0.00000
 Structure written by MMmdl.
 44 45  0  0  0  0  0  0  0  0  1 V2000
  147.6474  132.5550  161.9067 C   0  0  0  0  0  0  0  0  0  0  0  0
  147.1714  134.0095  162.0622 C   0  0  2  0  0  0  0  0  0  0  0  0
  145.6353  134.0928  162.1785 C   0  0  0  0  0  0  0  0  0  0  0  0
  145.1638  135.5384  162.4026 C   0  0  0  0  0  0  0  0  0  0  0  0
  145.6768  136.4720  161.2961 C   0  0  0  0  0  0  0  0  0  0  0  0
  147.2084  136.3952  161.1673 C   0  0  0  0  0  0  0  0  0  0  0  0
  147.7050  134.9511  160.9512 C   0  0  2  0  0  0  0  0  0  0  0  0
  147.3205  134.4925  159.6147 N   0  0  0  0  0  0  0  0  0  0  0  0
  148.1518  134.2114  158.5996 C   0  0  0  0  0  0  0  0  0  0  0  0
  149.3774  134.3133  158.6771 O   0  0  0  0  0  0  0  0  0  0  0  0
  147.4764  133.7511  157.3053 C   0  0  0  0  0  0  0  0  0  0  0  0
  148.4428  133.3223  156.3037 N   0  0  0  0  0  0  0  0  0  0  0  0
  148.0250  133.1076  154.9864 C   0  0  0  0  0  0  0  0  0  0  0  0
  148.9215  132.6851  153.9676 C   0  0  0  0  0  0  0  0  0  0  0  0
  148.1192  132.5916  152.8658 C   0  0  0  0  0  0  0  0  0  0  0  0
  146.8404  132.9458  153.2506 N   0  0  0  0  0  0  0  0  0  0  0  0
  145.6361  132.9953  152.4412 C   0  0  0  0  0  0  0  0  0  0  0  0
  145.7861  133.9914  151.2899 C   0  0  0  0  0  0  0  0  0  0  0  0
  145.6451  133.5167  150.0494 N   0  0  0  0  0  0  0  0  0  0  0  0
  146.0261  135.1751  151.5169 O   0  0  0  0  0  0  0  0  0  0  0  0
  146.7809  133.2678  154.5618 N   0  0  0  0  0  0  0  0  0  0  0  0
  147.2269  132.0843  161.0176 H   0  0  0  0  0  0  0  0  0  0  0  0
  147.3506  131.9540  162.7664 H   0  0  0  0  0  0  0  0  0  0  0  0
  148.7338  132.5036  161.8294 H   0  0  0  0  0  0  0  0  0  0  0  0
  147.5833  134.3693  163.0064 H   0  0  0  0  0  0  0  0  0  0  0  0
  145.1709  133.6927  161.2762 H   0  0  0  0  0  0  0  0  0  0  0  0
  145.2900  133.4675  163.0024 H   0  0  0  0  0  0  0  0  0  0  0  0
  144.0745  135.5724  162.4415 H   0  0  0  0  0  0  0  0  0  0  0  0
  145.5190  135.8914  163.3715 H   0  0  0  0  0  0  0  0  0  0  0  0
  145.2109  136.2046  160.3469 H   0  0  0  0  0  0  0  0  0  0  0  0
  145.3742  137.4979  161.5069 H   0  0  0  0  0  0  0  0  0  0  0  0
  147.5472  137.0370  160.3531 H   0  0  0  0  0  0  0  0  0  0  0  0
  147.6611  136.7956  162.0751 H   0  0  0  0  0  0  0  0  0  0  0  0
  148.7940  134.9733  161.0215 H   0  0  0  0  0  0  0  0  0  0  0  0
  146.3311  134.3775  159.4490 H   0  0  0  0  0  0  0  0  0  0  0  0
  146.7960  132.9279  157.5303 H   0  0  0  0  0  0  0  0  0  0  0  0
  146.8796  134.5726  156.9069 H   0  0  0  0  0  0  0  0  0  0  0  0
  149.3869  133.1055  156.5900 H   0  0  0  0  0  0  0  0  0  0  0  0
  149.9797  132.4800  154.0333 H   0  0  0  0  0  0  0  0  0  0  0  0
  148.3483  132.3029  151.8507 H   0  0  0  0  0  0  0  0  0  0  0  0
  145.4243  132.0010  152.0443 H   0  0  0  0  0  0  0  0  0  0  0  0
  144.7939  133.2713  153.0773 H   0  0  0  0  0  0  0  0  0  0  0  0
  145.7320  134.1362  149.2570 H   0  0  0  0  0  0  0  0  0  0  0  0
  145.4479  132.5362  149.9094 H   0  0  0  0  0  0  0  0  0  0  0  0
  1  2  1  0  0  0  0
  1 22  1  0  0  0  0
  1 23  1  0  0  0  0
  1 24  1  0  0  0  0
  2  7  1  0  0  0  0
  2  3  1  0  0  0  0
  2 25  1  0  0  0  0
  3  4  1  0  0  0  0
  3 26  1  0  0  0  0
  3 27  1  0  0  0  0
  4  5  1  0  0  0  0
  4 28  1  0  0  0  0
  4 29  1  0  0  0  0
  5  6  1  0  0  0  0
  5 30  1  0  0  0  0
  5 31  1  0  0  0  0
  6  7  1  0  0  0  0
  6 32  1  0  0  0  0
  6 33  1  0  0  0  0
  7  8  1  0  0  0  0
  7 34  1  0  0  0  0
  8  9  1  0  0  0  0
  8 35  1  0  0  0  0
  9 10  2  0  0  0  0
  9 11  1  0  0  0  0
 11 12  1  0  0  0  0
 11 36  1  0  0  0  0
 11 37  1  0  0  0  0
 12 13  1  0  0  0  0
 12 38  1  0  0  0  0
 13 21  2  0  0  0  0
 13 14  1  0  0  0  0
 14 15  2  0  0  0  0
 14 39  1  0  0  0  0
 15 16  1  0  0  0  0
 15 40  1  0  0  0  0
 16 17  1  0  0  0  0
 16 21  1  0  0  0  0
 17 18  1  0  0  0  0
 17 41  1  0  0  0  0
 17 42  1  0  0  0  0
 18 19  1  0  0  0  0
 18 20  2  0  0  0  0
 19 43  1  0  0  0  0
 19 44  1  0  0  0  0
M  END
> <s_m_source_file>
AV-unprocessed.smi

> <i_m_source_file_index>
1807

> <i_lp_mmshare_version>
43012

> <i_f3d_flags>
0

> <s_epik_input>
W0NIM11bQ0BASF0xW0NIMl1bQ0gyXVtDSDJdW0NIMl1bQ0BIXTFbTkhdQyg9TylbQ0gyXVtOSF1jMltjSF1bY0hdbihuMilbQ0gyXUMoPU8pW05IMl0=

> <s_epik_cmdline>
J2VwaWtfcHl0aG9uJywgJy1waCcsICc3LjAnLCAnLXRuJywgJzgnLCAnLW1hJywgJzIwMCcsICctbWV0YWxfYmluZGluZycsICctaW1hZScsICc8aW5maWxlLm1hZT4nLCAnLW9tYWUnLCAnPG91dGZpbGUubWFlPic=

> <r_lp_tautomer_probability>
1

> <r_epik_Ionization_Penalty>
0.000167642

> <r_epik_Ionization_Penalty_Charging>
0

> <r_epik_Ionization_Penalty_Neutral>
0.000167642

> <r_epik_State_Penalty>
-0

> <r_epik_Charging_Adjusted_Penalty>
0

> <i_epik_Tot_Q>
0

> <i_epik_Tot_abs_Q>
0

> <r_epik_Metal_State_Penalty>
-0

> <b_epik_Metal_Only>
0

> <s_lp_Force_Field>
OPLS_2005

> <r_lp_Energy>
5.83979

> <b_lp_Chiralities_Consistent>
1

> <s_lp_Variant>
AV-unprocessed.smi:1807-3

> <Gold.Version>
5.8.1

> <Gold.Id.Protein>
6NUR|6NUR_protein|mol2

> <Gold.PLP.Fitness>
39.8245

> <Gold.PLP.PLP>
-31.0543

> <Gold.PLP.part.hbond>
-1.9946

> <Gold.PLP.part.metal>
0.0000

> <Gold.PLP.part.buried>
-4.8506

> <Gold.PLP.part.nonpolar>
-25.3045

> <Gold.PLP.part.repulsive>
0.4013

> <Gold.PLP.ligand.clash>
0.0000

> <Gold.PLP.ligand.torsion>
0.1315

> <Gold.PLP.Chemscore.Hbond>
2.0000

> <Gold.PLP.Chemscore.CHOScore>
1.0000

> <Gold.PLP.Chemscore.Metal>
0.0000

> <Gold.Chemscore.Hbonds>
donor molecule, donor type, donor heavy atom, donor atom, acceptor molecule, acceptor atom, score
      L1  H    19    43       P1  7921  1.00
      P1  H  6896  6909       L1    10  0.81
      L1  C    15    40       P1 10747  1.00

> <Gold.PLP.Chemscore.Internal.Correction>
0.0332

> <Gold.Rescore>
     Score         DG    S(hbond)    S(metal)    S(lipo)     H(rot)  DE(clash)    DE(int)     intcor
     12.73     -12.91       1.93        0.00      66.01       2.64       0.00       0.17       ----

> <Gold.Chemscore.Fitness>
12.7340

> <Gold.Chemscore.DG>
-12.9073

> <Gold.Chemscore.ZeroCoef>
-5.4800

> <Gold.Chemscore.Hbond>
1.9323

> <Gold.Chemscore.Metal>
0.0000

> <Gold.Chemscore.Lipo>
66.0148

> <Gold.Chemscore.Internal_Hbond>
0.0000

> <Gold.Chemscore.DEClash>
0.0029

> <Gold.Chemscore.DEInternal>
0.1704

> <Gold.Chemscore.Rot>
2.6369

> <Gold.Chemscore.Internal.Correction>
   9.000000E+99

> <Gold.Chemscore.Hbonds>
donor molecule, donor type, donor heavy atom, donor atom, acceptor molecule, acceptor atom, score
      L1  H    19    43       P1  7921  0.55
      P1  H  6896  6909       L1    10  0.80

> <Gold.Chemscore.Hbond.Weighted>
-6.4539

> <Gold.Chemscore.Metal.Weighted>
-0.0000

> <Gold.Chemscore.Lipo.Weighted>
-7.7237

> <Gold.Chemscore.Internal_Hbond.Weighted>
0.0000

> <Gold.Chemscore.DEClash.Weighted>
0.0029

> <Gold.Chemscore.DEInternal.Weighted>
0.1704

> <Gold.Chemscore.Rot.Weighted>
6.7504

> <Gold.Chemscore.Internal.Correction.Weighted>
   9.000000E+99

> <Gold.Protein.RotatedTorsions>
[ 6907 6896 6895 6894 ] final   21.97 input  -60.11 | X-H torsion
[ 7974 7965 7964 7962 ] final   38.10 input  175.53 | X-H torsion
[ 8008 7997 7996 7995 ] final   -8.76 input   59.86 | X-H torsion
[ 10167 10162 10161 10158 ] final   44.18 input  -65.29 | X-H torsion
[ 10718 10713 10712 10709 ] final  -89.51 input   66.30 | X-H torsion
[ 10763 10752 10751 10750 ] final -144.88 input  -60.55 | X-H torsion
[ 11005 11000 10999 10996 ] final -165.00 input  -57.11 | X-H torsion

> <Gold.Protein.ActiveResidues>
 VAL166  LYS551  ARG553  GLY616  TRP617  ASP618  TYR619  PRO620  LYS621  CYS622 
 ASP623  PHE694  ASN695  SER759  ASP760  ASP761  ALA762  ILE779  LEU786  VAL792 
 PHE793  MET794  SER795  GLU796  ALA797  LYS798  CYS799  TRP800  GLU811  SER814 

> <Gold.Protein.RotatedAtoms>
  151.9199  135.0302  160.0520 H   0  0  0  0  0  0  0  0  0  0  0  0  # atno 6907 bound_to 6896
  152.2208  133.4977  159.5169 H   0  0  0  0  0  0  0  0  0  0  0  0  # atno 6908 bound_to 6896
  150.6999  134.1262  159.4095 H   0  0  0  0  0  0  0  0  0  0  0  0  # atno 6909 bound_to 6896
  146.1087  139.5813  142.9366 H   0  0  0  0  0  0  0  0  0  0  0  0  # atno 7974 bound_to 7965
  154.5710  140.2372  155.8191 H   0  0  0  0  0  0  0  0  0  0  0  0  # atno 8008 bound_to 7997
  156.2107  140.3027  155.9684 H   0  0  0  0  0  0  0  0  0  0  0  0  # atno 8009 bound_to 7997
  155.2712  140.0418  157.2997 H   0  0  0  0  0  0  0  0  0  0  0  0  # atno 8010 bound_to 7997
  140.3369  144.2519  150.6160 H   0  0  0  0  0  0  0  0  0  0  0  0  # atno 10167 bound_to 10162
  155.9984  130.4875  150.5182 H   0  0  0  0  0  0  0  0  0  0  0  0  # atno 10718 bound_to 10713
  154.8408  135.3428  154.6416 H   0  0  0  0  0  0  0  0  0  0  0  0  # atno 10763 bound_to 10752
  153.7027  135.6968  153.5063 H   0  0  0  0  0  0  0  0  0  0  0  0  # atno 10764 bound_to 10752
  153.2511  135.4353  155.0752 H   0  0  0  0  0  0  0  0  0  0  0  0  # atno 10765 bound_to 10752
  140.5806  134.5146  157.5177 H   0  0  0  0  0  0  0  0  0  0  0  0  # atno 11005 bound_to 11000
  145.5707  141.0394  143.2175 LP  0  0  0  0  0  0  0  0  0  0  0  0  # atno 17320 bound_to 7965
  144.7493  139.7236  143.7279 LP  0  0  0  0  0  0  0  0  0  0  0  0  # atno 17321 bound_to 7965
  140.5345  143.2236  151.8185 LP  0  0  0  0  0  0  0  0  0  0  0  0  # atno 17342 bound_to 10162
  139.4847  144.4678  151.9462 LP  0  0  0  0  0  0  0  0  0  0  0  0  # atno 17343 bound_to 10162
  157.3146  131.0670  151.1976 LP  0  0  0  0  0  0  0  0  0  0  0  0  # atno 17370 bound_to 10713
  157.2910  130.6796  149.6114 LP  0  0  0  0  0  0  0  0  0  0  0  0  # atno 17371 bound_to 10713
  139.9319  134.7947  156.0907 LP  0  0  0  0  0  0  0  0  0  0  0  0  # atno 17394 bound_to 11000
  141.0999  133.6681  156.2729 LP  0  0  0  0  0  0  0  0  0  0  0  0  # atno 17395 bound_to 11000

$$$$
