AV-unprocessed.smi:743|AV-procd|sdf|3566|dock3
  -GOLD-   22720 0563D 1   1.00000     0.00000
 Structure written by MMmdl.
 28 29  0  0  0  0  0  0  0  0  1 V2000
  151.9272  145.6930  159.5420 C   0  0  0  0  0  0  0  0  0  0  0  0
  151.8631  144.2712  159.2797 N   0  0  0  0  0  0  0  0  0  0  0  0
  151.1849  143.6125  158.2773 C   0  0  0  0  0  0  0  0  0  0  0  0
  151.4250  142.2746  158.4241 C   0  0  0  0  0  0  0  0  0  0  0  0
  150.9184  141.1315  157.5758 C   0  0  2  0  0  0  0  0  0  0  0  0
  152.0235  140.2530  157.1795 N   0  0  0  0  0  0  0  0  0  0  0  0
  152.1869  139.6347  155.9960 C   0  0  0  0  0  0  0  0  0  0  0  0
  153.1324  138.8764  155.7939 O   0  0  0  0  0  0  0  0  0  0  0  0
  151.1864  139.9102  154.8645 C   0  0  0  0  0  0  0  0  0  0  0  0
  149.8631  140.5126  155.3584 C   0  0  0  0  0  0  0  0  0  0  0  0
  150.1266  141.6502  156.3515 C   0  0  1  0  0  0  0  0  0  0  0  0
  148.8659  142.2444  156.7586 N   0  0  0  0  0  0  0  0  0  0  0  0
  152.2784  142.2223  159.5654 C   0  0  0  0  0  0  0  0  0  0  0  0
  152.5374  143.4155  160.0739 N   0  0  0  0  0  0  0  0  0  0  0  0
  150.7104  142.4210  155.8457 H   0  0  0  0  0  0  0  0  0  0  0  0
  151.0883  146.1982  159.0628 H   0  0  0  0  0  0  0  0  0  0  0  0
  152.8592  146.0958  159.1450 H   0  0  0  0  0  0  0  0  0  0  0  0
  151.8842  145.8797  160.6158 H   0  0  0  0  0  0  0  0  0  0  0  0
  150.5949  144.1446  157.5455 H   0  0  0  0  0  0  0  0  0  0  0  0
  150.2537  140.5020  158.1698 H   0  0  0  0  0  0  0  0  0  0  0  0
  152.7156  140.0663  157.8907 H   0  0  0  0  0  0  0  0  0  0  0  0
  151.6617  140.5989  154.1652 H   0  0  0  0  0  0  0  0  0  0  0  0
  150.9955  138.9882  154.3139 H   0  0  0  0  0  0  0  0  0  0  0  0
  149.2908  140.8785  154.5050 H   0  0  0  0  0  0  0  0  0  0  0  0
  149.2581  139.7352  155.8280 H   0  0  0  0  0  0  0  0  0  0  0  0
  148.9600  143.2495  156.7872 H   0  0  0  0  0  0  0  0  0  0  0  0
  148.1582  142.0433  156.0666 H   0  0  0  0  0  0  0  0  0  0  0  0
  152.7176  141.3547  160.0355 H   0  0  0  0  0  0  0  0  0  0  0  0
  1  2  1  0  0  0  0
  1 16  1  0  0  0  0
  1 17  1  0  0  0  0
  1 18  1  0  0  0  0
  2 14  1  0  0  0  0
  2  3  1  0  0  0  0
  3  4  2  0  0  0  0
  3 19  1  0  0  0  0
  4  5  1  0  0  0  0
  4 13  1  0  0  0  0
  5 11  1  0  0  0  0
  5  6  1  0  0  0  0
  5 20  1  0  0  0  0
  6  7  1  0  0  0  0
  6 21  1  0  0  0  0
  7  8  2  0  0  0  0
  7  9  1  0  0  0  0
  9 10  1  0  0  0  0
  9 22  1  0  0  0  0
  9 23  1  0  0  0  0
 10 11  1  0  0  0  0
 10 24  1  0  0  0  0
 10 25  1  0  0  0  0
 11 15  1  0  0  0  0
 11 12  1  0  0  0  0
 12 26  1  0  0  0  0
 12 27  1  0  0  0  0
 13 14  2  0  0  0  0
 13 28  1  0  0  0  0
M  END
> <s_m_source_file>
AV-unprocessed.smi

> <i_m_source_file_index>
743

> <i_lp_mmshare_version>
43012

> <i_f3d_flags>
0

> <s_epik_input>
W0NIM11uMVtjSF1jKFtjSF1uMSlbQ0BASF0yW05IXUMoPU8pW0NIMl1bQ0gyXVtDQEBIXTJbTkgyXQ==

> <s_epik_cmdline>
J2VwaWtfcHl0aG9uJywgJy1waCcsICc3LjAnLCAnLXRuJywgJzgnLCAnLW1hJywgJzIwMCcsICctbWV0YWxfYmluZGluZycsICctaW1hZScsICc8aW5maWxlLm1hZT4nLCAnLW9tYWUnLCAnPG91dGZpbGUubWFlPic=

> <r_lp_tautomer_probability>
1

> <r_epik_Ionization_Penalty>
2.50279

> <r_epik_Ionization_Penalty_Charging>
0

> <r_epik_Ionization_Penalty_Neutral>
2.50279

> <r_epik_State_Penalty>
2.66754

> <r_epik_Charging_Adjusted_Penalty>
2.66754

> <i_epik_Tot_Q>
0

> <i_epik_Tot_abs_Q>
0

> <r_epik_Metal_State_Penalty>
2.66721

> <b_epik_Metal_Only>
0

> <s_lp_Force_Field>
OPLS_2005

> <r_lp_Energy>
8.43832

> <b_lp_Chiralities_Consistent>
1

> <s_lp_Variant>
AV-unprocessed.smi:743-7

> <Gold.Version>
5.8.1

> <Gold.Id.Protein>
6NUR|6NUR_protein|mol2

> <Gold.PLP.Fitness>
37.1631

> <Gold.PLP.PLP>
-29.7110

> <Gold.PLP.part.hbond>
-2.0000

> <Gold.PLP.part.metal>
0.0000

> <Gold.PLP.part.buried>
-0.3022

> <Gold.PLP.part.nonpolar>
-27.4550

> <Gold.PLP.part.repulsive>
0.1153

> <Gold.PLP.ligand.clash>
0.0000

> <Gold.PLP.ligand.torsion>
0.1258

> <Gold.PLP.Chemscore.Hbond>
1.5640

> <Gold.PLP.Chemscore.CHOScore>
0.9953

> <Gold.PLP.Chemscore.Metal>
0.0000

> <Gold.Chemscore.Hbonds>
donor molecule, donor type, donor heavy atom, donor atom, acceptor molecule, acceptor atom, score
      L1  H    12    26       P1  8028  0.82
      P1  H  7997  8009       L1     8  0.70
      L1  C     3    19       P1  8028  0.87

> <Gold.PLP.Chemscore.Internal.Correction>
0.0258

> <Gold.Rescore>
     Score         DG    S(hbond)    S(metal)    S(lipo)     H(rot)  DE(clash)    DE(int)     intcor
     14.31     -14.53       0.99        0.00      70.86       1.00       0.18       0.04       ----

> <Gold.Chemscore.Fitness>
14.3101

> <Gold.Chemscore.DG>
-14.5295

> <Gold.Chemscore.ZeroCoef>
-5.4800

> <Gold.Chemscore.Hbond>
0.9938

> <Gold.Chemscore.Metal>
0.0000

> <Gold.Chemscore.Lipo>
70.8572

> <Gold.Chemscore.Internal_Hbond>
0.0000

> <Gold.Chemscore.DEClash>
0.1788

> <Gold.Chemscore.DEInternal>
0.0405

> <Gold.Chemscore.Rot>
1.0000

> <Gold.Chemscore.Internal.Correction>
   9.000000E+99

> <Gold.Chemscore.Hbonds>
donor molecule, donor type, donor heavy atom, donor atom, acceptor molecule, acceptor atom, score
      L1  H    12    26       P1  8028  0.72
      P1  H  7997  8009       L1     8  0.07

> <Gold.Chemscore.Hbond.Weighted>
-3.3192

> <Gold.Chemscore.Metal.Weighted>
-0.0000

> <Gold.Chemscore.Lipo.Weighted>
-8.2903

> <Gold.Chemscore.Internal_Hbond.Weighted>
0.0000

> <Gold.Chemscore.DEClash.Weighted>
0.1788

> <Gold.Chemscore.DEInternal.Weighted>
0.0405

> <Gold.Chemscore.Rot.Weighted>
2.5600

> <Gold.Chemscore.Internal.Correction.Weighted>
   9.000000E+99

> <Gold.Protein.RotatedTorsions>
[ 6907 6896 6895 6894 ] final  134.13 input  -60.11 | X-H torsion
[ 7974 7965 7964 7962 ] final  -67.02 input  175.53 | X-H torsion
[ 8008 7997 7996 7995 ] final -151.44 input   59.86 | X-H torsion
[ 10167 10162 10161 10158 ] final -179.69 input  -65.29 | X-H torsion
[ 10718 10713 10712 10709 ] final  162.52 input   66.30 | X-H torsion
[ 10763 10752 10751 10750 ] final   21.07 input  -60.55 | X-H torsion
[ 11005 11000 10999 10996 ] final -160.35 input  -57.11 | X-H torsion

> <Gold.Protein.ActiveResidues>
 VAL166  LYS551  ARG553  GLY616  TRP617  ASP618  TYR619  PRO620  LYS621  CYS622 
 ASP623  PHE694  ASN695  SER759  ASP760  ASP761  ALA762  ILE779  LEU786  VAL792 
 PHE793  MET794  SER795  GLU796  ALA797  LYS798  CYS799  TRP800  GLU811  SER814 

> <Gold.Protein.RotatedAtoms>
  152.3146  133.5789  159.5703 H   0  0  0  0  0  0  0  0  0  0  0  0  # atno 6907 bound_to 6896
  150.7340  134.0101  159.3676 H   0  0  0  0  0  0  0  0  0  0  0  0  # atno 6908 bound_to 6896
  151.7991  135.0714  160.0449 H   0  0  0  0  0  0  0  0  0  0  0  0  # atno 6909 bound_to 6896
  145.7345  140.8982  143.0562 H   0  0  0  0  0  0  0  0  0  0  0  0  # atno 7974 bound_to 7965
  155.6394  140.0700  157.2623 H   0  0  0  0  0  0  0  0  0  0  0  0  # atno 8008 bound_to 7997
  154.4187  140.1753  156.1606 H   0  0  0  0  0  0  0  0  0  0  0  0  # atno 8009 bound_to 7997
  155.9867  140.3349  155.6718 H   0  0  0  0  0  0  0  0  0  0  0  0  # atno 8010 bound_to 7997
  139.5375  144.2456  152.0825 H   0  0  0  0  0  0  0  0  0  0  0  0  # atno 10167 bound_to 10162
  157.1214  131.0493  151.2413 H   0  0  0  0  0  0  0  0  0  0  0  0  # atno 10718 bound_to 10713
  153.1025  135.6676  153.9646 H   0  0  0  0  0  0  0  0  0  0  0  0  # atno 10763 bound_to 10752
  153.9213  135.3014  155.3449 H   0  0  0  0  0  0  0  0  0  0  0  0  # atno 10764 bound_to 10752
  154.7446  135.5063  153.9257 H   0  0  0  0  0  0  0  0  0  0  0  0  # atno 10765 bound_to 10752
  140.6325  134.4636  157.5230 H   0  0  0  0  0  0  0  0  0  0  0  0  # atno 11005 bound_to 11000
  144.6885  139.9376  143.7474 LP  0  0  0  0  0  0  0  0  0  0  0  0  # atno 17320 bound_to 7965
  146.0506  139.3508  143.0641 LP  0  0  0  0  0  0  0  0  0  0  0  0  # atno 17321 bound_to 7965
  140.1929  144.4734  150.6470 LP  0  0  0  0  0  0  0  0  0  0  0  0  # atno 17342 bound_to 10162
  140.6589  143.2246  151.5903 LP  0  0  0  0  0  0  0  0  0  0  0  0  # atno 17343 bound_to 10162
  157.4473  130.7578  149.7120 LP  0  0  0  0  0  0  0  0  0  0  0  0  # atno 17370 bound_to 10713
  155.9827  130.4007  150.3399 LP  0  0  0  0  0  0  0  0  0  0  0  0  # atno 17371 bound_to 10713
  139.9110  134.8344  156.1527 LP  0  0  0  0  0  0  0  0  0  0  0  0  # atno 17394 bound_to 11000
  141.0665  133.6817  156.2055 LP  0  0  0  0  0  0  0  0  0  0  0  0  # atno 17395 bound_to 11000

$$$$
