AV-unprocessed.smi:287|AV-procd|sdf|2203|dock10
  -GOLD-   2262022 23D 1   1.00000     0.00000
 Structure written by MMmdl.
 55 58  0  0  0  0  0  0  0  0  1 V2000
  151.6782  142.8743  158.1399 C   0  0  0  0  0  0  0  0  0  0  0  0
  150.5463  142.3114  157.3505 C   0  0  0  0  0  0  0  0  0  0  0  0
  150.4557  141.6963  156.1360 C   0  0  0  0  0  0  0  0  0  0  0  0
  149.0807  141.3834  155.9177 C   0  0  0  0  0  0  0  0  0  0  0  0
  148.5067  140.6852  154.6922 C   0  0  1  0  0  0  0  0  0  0  0  0
  147.5384  141.6304  153.9616 C   0  0  0  0  0  0  0  0  0  0  0  0
  149.4947  140.3507  153.7369 O   0  0  0  0  0  0  0  0  0  0  0  0
  147.7909  139.3613  155.0462 C   0  0  0  0  0  0  0  0  0  0  0  0
  147.1330  138.7473  153.9001 N   0  0  0  0  0  0  0  0  0  0  0  0
  146.6063  137.5071  153.9784 C   0  0  0  0  0  0  0  0  0  0  0  0
  146.5906  136.9626  155.2176 N   0  0  0  0  0  0  0  0  0  0  0  0
  146.0975  135.7367  155.4047 C   0  0  0  0  0  0  0  0  0  0  0  0
  145.5790  134.9024  154.5039 N   0  0  0  0  0  0  0  0  0  0  0  0
  145.5784  135.4408  153.2491 C   0  0  0  0  0  0  0  0  0  0  0  0
  146.0786  136.7310  152.9027 C   0  0  0  0  0  0  0  0  0  0  0  0
  145.9305  136.9273  151.5349 N   0  0  0  0  0  0  0  0  0  0  0  0
  145.3838  135.8239  151.1063 C   0  0  0  0  0  0  0  0  0  0  0  0
  145.1091  134.8808  152.0720 N   0  0  0  0  0  0  0  0  0  0  0  0
  144.5111  133.5152  151.8552 C   0  0  1  0  0  0  0  0  0  0  0  0
  143.7521  133.5200  150.6854 O   0  0  0  0  0  0  0  0  0  0  0  0
  144.5624  133.0980  149.5958 C   0  0  2  0  0  0  0  0  0  0  0  0
  143.7065  132.7377  148.3691 C   0  0  0  0  0  0  0  0  0  0  0  0
  143.3724  133.9074  147.6527 O   0  0  0  0  0  0  0  0  0  0  0  0
  145.3407  131.9408  150.2320 C   0  0  2  0  0  0  0  0  0  0  0  0
  144.5558  130.7588  150.2422 O   0  0  0  0  0  0  0  0  0  0  0  0
  145.6292  132.4727  151.6378 C   0  0  2  0  0  0  0  0  0  0  0  0
  145.6455  131.4534  152.6203 O   0  0  0  0  0  0  0  0  0  0  0  0
  148.4356  141.8342  157.0447 C   0  0  0  0  0  0  0  0  0  0  0  0
  147.0128  141.8288  157.4986 C   0  0  0  0  0  0  0  0  0  0  0  0
  149.3164  142.4003  157.9162 O   0  0  0  0  0  0  0  0  0  0  0  0
  143.8890  133.3459  152.7346 H   0  0  0  0  0  0  0  0  0  0  0  0
  145.2682  133.8916  149.3408 H   0  0  0  0  0  0  0  0  0  0  0  0
  146.2619  131.7293  149.6880 H   0  0  0  0  0  0  0  0  0  0  0  0
  146.6011  132.9680  151.6329 H   0  0  0  0  0  0  0  0  0  0  0  0
  152.5741  142.9638  157.5253 H   0  0  0  0  0  0  0  0  0  0  0  0
  151.9133  142.2321  158.9887 H   0  0  0  0  0  0  0  0  0  0  0  0
  151.4311  143.8649  158.5221 H   0  0  0  0  0  0  0  0  0  0  0  0
  151.2841  141.4953  155.4729 H   0  0  0  0  0  0  0  0  0  0  0  0
  146.7067  141.9199  154.6050 H   0  0  0  0  0  0  0  0  0  0  0  0
  147.1153  141.1620  153.0721 H   0  0  0  0  0  0  0  0  0  0  0  0
  148.0412  142.5452  153.6455 H   0  0  0  0  0  0  0  0  0  0  0  0
  149.0664  140.1654  152.9153 H   0  0  0  0  0  0  0  0  0  0  0  0
  148.5360  138.6501  155.4053 H   0  0  0  0  0  0  0  0  0  0  0  0
  147.0789  139.5131  155.8586 H   0  0  0  0  0  0  0  0  0  0  0  0
  147.1166  139.3036  153.0571 H   0  0  0  0  0  0  0  0  0  0  0  0
  146.1207  135.3716  156.4208 H   0  0  0  0  0  0  0  0  0  0  0  0
  145.1597  135.6682  150.0611 H   0  0  0  0  0  0  0  0  0  0  0  0
  144.2692  132.0912  147.6951 H   0  0  0  0  0  0  0  0  0  0  0  0
  142.8022  132.2008  148.6575 H   0  0  0  0  0  0  0  0  0  0  0  0
  144.1701  134.3690  147.4437 H   0  0  0  0  0  0  0  0  0  0  0  0
  145.0980  130.0449  150.5420 H   0  0  0  0  0  0  0  0  0  0  0  0
  145.5428  130.6186  152.1896 H   0  0  0  0  0  0  0  0  0  0  0  0
  146.6174  140.8133  157.5180 H   0  0  0  0  0  0  0  0  0  0  0  0
  146.3916  142.4224  156.8284 H   0  0  0  0  0  0  0  0  0  0  0  0
  146.9157  142.2452  158.5015 H   0  0  0  0  0  0  0  0  0  0  0  0
  1  2  1  0  0  0  0
  1 35  1  0  0  0  0
  1 36  1  0  0  0  0
  1 37  1  0  0  0  0
  2 30  1  0  0  0  0
  2  3  2  0  0  0  0
  3  4  1  0  0  0  0
  3 38  1  0  0  0  0
  4  5  1  0  0  0  0
  4 28  2  0  0  0  0
  5  6  1  0  0  0  0
  5  7  1  0  0  0  0
  5  8  1  0  0  0  0
  6 39  1  0  0  0  0
  6 40  1  0  0  0  0
  6 41  1  0  0  0  0
  7 42  1  0  0  0  0
  8  9  1  0  0  0  0
  8 43  1  0  0  0  0
  8 44  1  0  0  0  0
  9 10  1  0  0  0  0
  9 45  1  0  0  0  0
 10 15  1  0  0  0  0
 10 11  2  0  0  0  0
 11 12  1  0  0  0  0
 12 13  2  0  0  0  0
 12 46  1  0  0  0  0
 13 14  1  0  0  0  0
 14 18  1  0  0  0  0
 14 15  2  0  0  0  0
 15 16  1  0  0  0  0
 16 17  2  0  0  0  0
 17 18  1  0  0  0  0
 17 47  1  0  0  0  0
 18 19  1  0  0  0  0
 19 31  1  0  0  0  0
 19 26  1  0  0  0  0
 19 20  1  0  0  0  0
 20 21  1  0  0  0  0
 21 32  1  0  0  0  0
 21 22  1  0  0  0  0
 21 24  1  0  0  0  0
 22 23  1  0  0  0  0
 22 48  1  0  0  0  0
 22 49  1  0  0  0  0
 23 50  1  0  0  0  0
 24 33  1  0  0  0  0
 24 25  1  0  0  0  0
 24 26  1  0  0  0  0
 25 51  1  0  0  0  0
 26 34  1  0  0  0  0
 26 27  1  0  0  0  0
 27 52  1  0  0  0  0
 28 29  1  0  0  0  0
 28 30  1  0  0  0  0
 29 53  1  0  0  0  0
 29 54  1  0  0  0  0
 29 55  1  0  0  0  0
M  END
> <s_m_source_file>
AV-unprocessed.smi

> <i_m_source_file_index>
287

> <i_lp_mmshare_version>
43012

> <i_f3d_flags>
0

> <s_epik_input>
W0NIM11jMVtjSF1jKGMobzEpW0NIM10pW0NAQF0oW0NIM10pKFtPSF0pW0NIMl1bTkhdYyhuW2NIXW4yKWMoYzIzKW5bY0hdbjNbQ0BASF00T1tDQEhdKFtDSDJdW09IXSlbQ0BASF0oW09IXSlbQ0BIXTRbT0hd

> <s_epik_cmdline>
J2VwaWtfcHl0aG9uJywgJy1waCcsICc3LjAnLCAnLXRuJywgJzgnLCAnLW1hJywgJzIwMCcsICctbWV0YWxfYmluZGluZycsICctaW1hZScsICc8aW5maWxlLm1hZT4nLCAnLW9tYWUnLCAnPG91dGZpbGUubWFlPic=

> <r_lp_tautomer_probability>
1

> <r_epik_Ionization_Penalty>
0.000992612

> <r_epik_Ionization_Penalty_Charging>
0

> <r_epik_Ionization_Penalty_Neutral>
0.000992612

> <r_epik_State_Penalty>
-0

> <r_epik_Charging_Adjusted_Penalty>
0

> <i_epik_Tot_Q>
0

> <i_epik_Tot_abs_Q>
0

> <r_epik_Metal_State_Penalty>
-0

> <b_epik_Metal_Only>
0

> <s_epik_Chemistry_Notes>
This compound contains an acetal/aminal-like group ( X-CH(R)-Y where X, Y are N, S, or O) that may be acid/base labile, releasing an aldehyde.

> <s_lp_Force_Field>
OPLS_2005

> <r_lp_Energy>
46.8376

> <b_lp_Chiralities_Consistent>
1

> <s_lp_Variant>
AV-unprocessed.smi:287-27

> <Gold.Version>
5.8.1

> <Gold.Id.Protein>
6NUR|6NUR_protein|mol2

> <Gold.PLP.Fitness>
52.2656

> <Gold.PLP.PLP>
-41.0196

> <Gold.PLP.part.hbond>
-6.5827

> <Gold.PLP.part.metal>
0.0000

> <Gold.PLP.part.buried>
-2.5933

> <Gold.PLP.part.nonpolar>
-32.7942

> <Gold.PLP.part.repulsive>
1.7671

> <Gold.PLP.ligand.clash>
0.0000

> <Gold.PLP.ligand.torsion>
0.9607

> <Gold.PLP.Chemscore.Hbond>
3.5886

> <Gold.PLP.Chemscore.CHOScore>
0.7681

> <Gold.PLP.Chemscore.Metal>
0.0000

> <Gold.Chemscore.Hbonds>
donor molecule, donor type, donor heavy atom, donor atom, acceptor molecule, acceptor atom, score
      L1  H     7    42       P1  7957  0.70
      L1  H    23    50       P1  7921  1.00
      P1  H  7989  7998       L1     7  0.36
      P1  H 10192 10197       L1    23  1.00
      P1  H 10785 10796       L1    25  0.19
      L1  C    17    47       P1  7921  0.47

> <Gold.PLP.Chemscore.Internal.Correction>
0.0974

> <Gold.Rescore>
     Score         DG    S(hbond)    S(metal)    S(lipo)     H(rot)  DE(clash)    DE(int)     intcor
     11.66     -14.52       3.41        0.00      95.28       5.27       1.89       0.97       ----

> <Gold.Chemscore.Fitness>
11.6576

> <Gold.Chemscore.DG>
-14.5192

> <Gold.Chemscore.ZeroCoef>
-5.4800

> <Gold.Chemscore.Hbond>
3.4058

> <Gold.Chemscore.Metal>
0.0000

> <Gold.Chemscore.Lipo>
95.2797

> <Gold.Chemscore.Internal_Hbond>
0.0000

> <Gold.Chemscore.DEClash>
1.8926

> <Gold.Chemscore.DEInternal>
0.9690

> <Gold.Chemscore.Rot>
5.2672

> <Gold.Chemscore.Internal.Correction>
   9.000000E+99

> <Gold.Chemscore.Hbonds>
donor molecule, donor type, donor heavy atom, donor atom, acceptor molecule, acceptor atom, score
      L1  H     7    42       P1  7957  0.70
      L1  H    23    50       P1  7921  0.96
      P1  H  7989  7998       L1     7  0.29
      P1  H 10192 10197       L1    23  0.40
      P1  H 10785 10796       L1    25  0.14

> <Gold.Chemscore.Hbond.Weighted>
-11.3754

> <Gold.Chemscore.Metal.Weighted>
-0.0000

> <Gold.Chemscore.Lipo.Weighted>
-11.1477

> <Gold.Chemscore.Internal_Hbond.Weighted>
0.0000

> <Gold.Chemscore.DEClash.Weighted>
1.8926

> <Gold.Chemscore.DEInternal.Weighted>
0.9690

> <Gold.Chemscore.Rot.Weighted>
13.4839

> <Gold.Chemscore.Internal.Correction.Weighted>
   9.000000E+99

> <Gold.Protein.RotatedTorsions>
[ 6907 6896 6895 6894 ] final   56.00 input  -60.11 | X-H torsion
[ 7974 7965 7964 7962 ] final   12.88 input  175.53 | X-H torsion
[ 8008 7997 7996 7995 ] final   -5.41 input   59.86 | X-H torsion
[ 10167 10162 10161 10158 ] final -101.79 input  -65.29 | X-H torsion
[ 10718 10713 10712 10709 ] final  166.82 input   66.30 | X-H torsion
[ 10763 10752 10751 10750 ] final  -69.74 input  -60.55 | X-H torsion
[ 11005 11000 10999 10996 ] final   40.02 input  -57.11 | X-H torsion

> <Gold.Protein.ActiveResidues>
 VAL166  LYS551  ARG553  GLY616  TRP617  ASP618  TYR619  PRO620  LYS621  CYS622 
 ASP623  PHE694  ASN695  SER759  ASP760  ASP761  ALA762  ILE779  LEU786  VAL792 
 PHE793  MET794  SER795  GLU796  ALA797  LYS798  CYS799  TRP800  GLU811  SER814 

> <Gold.Protein.RotatedAtoms>
  152.3594  134.6894  160.0211 H   0  0  0  0  0  0  0  0  0  0  0  0  # atno 6907 bound_to 6896
  151.7222  133.3309  159.3326 H   0  0  0  0  0  0  0  0  0  0  0  0  # atno 6908 bound_to 6896
  150.7594  134.6372  159.6262 H   0  0  0  0  0  0  0  0  0  0  0  0  # atno 6909 bound_to 6896
  146.2342  139.9271  142.8501 H   0  0  0  0  0  0  0  0  0  0  0  0  # atno 7974 bound_to 7965
  154.6042  140.2459  155.7752 H   0  0  0  0  0  0  0  0  0  0  0  0  # atno 8008 bound_to 7997
  156.2330  140.2960  156.0190 H   0  0  0  0  0  0  0  0  0  0  0  0  # atno 8009 bound_to 7997
  155.2160  140.0399  157.2931 H   0  0  0  0  0  0  0  0  0  0  0  0  # atno 8010 bound_to 7997
  140.2375  143.3562  152.0831 H   0  0  0  0  0  0  0  0  0  0  0  0  # atno 10167 bound_to 10162
  157.0605  131.0338  151.2649 H   0  0  0  0  0  0  0  0  0  0  0  0  # atno 10718 bound_to 10713
  154.4077  135.6016  153.5934 H   0  0  0  0  0  0  0  0  0  0  0  0  # atno 10763 bound_to 10752
  152.9789  135.5922  154.4107 H   0  0  0  0  0  0  0  0  0  0  0  0  # atno 10764 bound_to 10752
  154.3915  135.2842  155.2130 H   0  0  0  0  0  0  0  0  0  0  0  0  # atno 10765 bound_to 10752
  140.1971  134.3916  155.8116 H   0  0  0  0  0  0  0  0  0  0  0  0  # atno 11005 bound_to 11000
  145.2080  140.9883  143.4117 LP  0  0  0  0  0  0  0  0  0  0  0  0  # atno 17320 bound_to 7965
  144.9716  139.3875  143.6306 LP  0  0  0  0  0  0  0  0  0  0  0  0  # atno 17321 bound_to 7965
  139.5088  144.6857  151.5894 LP  0  0  0  0  0  0  0  0  0  0  0  0  # atno 17342 bound_to 10162
  140.6138  143.9386  150.6473 LP  0  0  0  0  0  0  0  0  0  0  0  0  # atno 17343 bound_to 10162
  157.4959  130.7850  149.7554 LP  0  0  0  0  0  0  0  0  0  0  0  0  # atno 17370 bound_to 10713
  155.9980  130.3897  150.2719 LP  0  0  0  0  0  0  0  0  0  0  0  0  # atno 17371 bound_to 10713
  141.2227  133.7075  156.8194 LP  0  0  0  0  0  0  0  0  0  0  0  0  # atno 17394 bound_to 11000
  140.2095  134.8838  157.3259 LP  0  0  0  0  0  0  0  0  0  0  0  0  # atno 17395 bound_to 11000

$$$$
