AV-unprocessed.smi:1295|AV-procd|sdf|5401|dock1
  -GOLD-   22720 4563D 1   1.00000     0.00000
 Structure written by MMmdl.
 43 44  0  0  0  0  0  0  0  0  1 V2000
  154.5691  133.8201  158.0518 C   0  0  0  0  0  0  0  0  0  0  0  0
  154.6497  135.2410  158.5683 C   0  0  0  0  0  0  0  0  0  0  0  0
  154.0140  135.6661  159.6101 N   0  0  0  0  0  0  0  0  0  0  0  0
  154.1706  137.0048  159.9950 C   0  0  0  0  0  0  0  0  0  0  0  0
  153.3978  137.4261  161.2330 C   0  0  0  0  0  0  0  0  0  0  0  0
  154.9706  137.8621  159.2955 C   0  0  0  0  0  0  0  0  0  0  0  0
  155.1641  139.3242  159.6944 C   0  0  0  0  0  0  0  0  0  0  0  0
  153.9478  140.2307  159.4911 C   0  0  0  0  0  0  0  0  0  0  0  0
  153.1782  140.0316  158.5512 O   0  0  0  0  0  0  0  0  0  0  0  0
  153.7948  141.2253  160.3792 N   0  0  0  0  0  0  0  0  0  0  0  0
  152.7399  142.2375  160.3627 C   0  0  2  0  0  0  0  0  0  0  0  0
  152.5912  142.7685  158.9233 C   0  0  0  0  0  0  0  0  0  0  0  0
  151.5424  143.8861  158.8345 C   0  0  0  0  0  0  0  0  0  0  0  0
  151.8769  145.0283  159.8032 C   0  0  0  0  0  0  0  0  0  0  0  0
  152.0067  144.5088  161.2427 C   0  0  0  0  0  0  0  0  0  0  0  0
  153.0554  143.3834  161.3586 C   0  0  1  0  0  0  0  0  0  0  0  0
  153.1583  142.8934  162.8143 C   0  0  0  0  0  0  0  0  0  0  0  0
  155.6899  137.3666  158.1059 C   0  0  0  0  0  0  0  0  0  0  0  0
  156.4367  138.0495  157.4067 O   0  0  0  0  0  0  0  0  0  0  0  0
  155.4820  136.0636  157.8111 N   0  0  0  0  0  0  0  0  0  0  0  0
  155.9545  135.6760  157.0075 H   0  0  0  0  0  0  0  0  0  0  0  0
  154.9100  133.1231  158.8181 H   0  0  0  0  0  0  0  0  0  0  0  0
  155.1858  133.6786  157.1631 H   0  0  0  0  0  0  0  0  0  0  0  0
  153.5388  133.5717  157.7954 H   0  0  0  0  0  0  0  0  0  0  0  0
  152.6731  138.2020  160.9866 H   0  0  0  0  0  0  0  0  0  0  0  0
  154.0732  137.8111  161.9972 H   0  0  0  0  0  0  0  0  0  0  0  0
  152.8527  136.5857  161.6648 H   0  0  0  0  0  0  0  0  0  0  0  0
  155.4732  139.4013  160.7373 H   0  0  0  0  0  0  0  0  0  0  0  0
  156.0048  139.7254  159.1272 H   0  0  0  0  0  0  0  0  0  0  0  0
  154.4783  141.3003  161.1187 H   0  0  0  0  0  0  0  0  0  0  0  0
  151.7858  141.7902  160.6482 H   0  0  0  0  0  0  0  0  0  0  0  0
  153.5506  143.1475  158.5674 H   0  0  0  0  0  0  0  0  0  0  0  0
  152.3147  141.9541  158.2522 H   0  0  0  0  0  0  0  0  0  0  0  0
  151.4893  144.2666  157.8142 H   0  0  0  0  0  0  0  0  0  0  0  0
  150.5557  143.4832  159.0668 H   0  0  0  0  0  0  0  0  0  0  0  0
  152.8097  145.5054  159.5001 H   0  0  0  0  0  0  0  0  0  0  0  0
  151.1051  145.7969  159.7533 H   0  0  0  0  0  0  0  0  0  0  0  0
  152.2731  145.3354  161.9025 H   0  0  0  0  0  0  0  0  0  0  0  0
  151.0367  144.1439  161.5842 H   0  0  0  0  0  0  0  0  0  0  0  0
  154.0232  143.8089  161.0886 H   0  0  0  0  0  0  0  0  0  0  0  0
  152.2327  142.4151  163.1359 H   0  0  0  0  0  0  0  0  0  0  0  0
  153.3573  143.7224  163.4940 H   0  0  0  0  0  0  0  0  0  0  0  0
  153.9662  142.1729  162.9418 H   0  0  0  0  0  0  0  0  0  0  0  0
  1  2  1  0  0  0  0
  1 22  1  0  0  0  0
  1 23  1  0  0  0  0
  1 24  1  0  0  0  0
  2 20  1  0  0  0  0
  2  3  2  0  0  0  0
  3  4  1  0  0  0  0
  4  5  1  0  0  0  0
  4  6  2  0  0  0  0
  5 25  1  0  0  0  0
  5 26  1  0  0  0  0
  5 27  1  0  0  0  0
  6  7  1  0  0  0  0
  6 18  1  0  0  0  0
  7  8  1  0  0  0  0
  7 28  1  0  0  0  0
  7 29  1  0  0  0  0
  8  9  2  0  0  0  0
  8 10  1  0  0  0  0
 10 11  1  0  0  0  0
 10 30  1  0  0  0  0
 11 16  1  0  0  0  0
 11 12  1  0  0  0  0
 11 31  1  0  0  0  0
 12 13  1  0  0  0  0
 12 32  1  0  0  0  0
 12 33  1  0  0  0  0
 13 14  1  0  0  0  0
 13 34  1  0  0  0  0
 13 35  1  0  0  0  0
 14 15  1  0  0  0  0
 14 36  1  0  0  0  0
 14 37  1  0  0  0  0
 15 16  1  0  0  0  0
 15 38  1  0  0  0  0
 15 39  1  0  0  0  0
 16 17  1  0  0  0  0
 16 40  1  0  0  0  0
 17 41  1  0  0  0  0
 17 42  1  0  0  0  0
 17 43  1  0  0  0  0
 18 19  2  0  0  0  0
 18 20  1  0  0  0  0
 20 21  1  0  0  0  0
M  END
> <s_m_source_file>
AV-unprocessed.smi

> <i_m_source_file_index>
1295

> <i_lp_mmshare_version>
43012

> <i_f3d_flags>
0

> <s_epik_input>
W0NIM11jMW5jKFtDSDNdKWMoYyg9TylbbkhdMSlbQ0gyXUMoPU8pW05IXVtDQEBIXTJbQ0gyXVtDSDJdW0NIMl1bQ0gyXVtDQEhdMltDSDNd

> <s_epik_cmdline>
J2VwaWtfcHl0aG9uJywgJy1waCcsICc3LjAnLCAnLXRuJywgJzgnLCAnLW1hJywgJzIwMCcsICctbWV0YWxfYmluZGluZycsICctaW1hZScsICc8aW5maWxlLm1hZT4nLCAnLW9tYWUnLCAnPG91dGZpbGUubWFlPic=

> <r_lp_tautomer_probability>
0.839158

> <r_epik_Ionization_Penalty>
0.00037085

> <r_epik_Ionization_Penalty_Charging>
0.000336002

> <r_epik_Ionization_Penalty_Neutral>
3.48485e-05

> <r_epik_State_Penalty>
0.09125

> <r_epik_Charging_Adjusted_Penalty>
0.091586

> <i_epik_Tot_Q>
0

> <i_epik_Tot_abs_Q>
0

> <r_epik_Metal_State_Penalty>
0.251445

> <b_epik_Metal_Only>
0

> <s_lp_Force_Field>
OPLS_2005

> <r_lp_Energy>
11.9109

> <b_lp_Chiralities_Consistent>
1

> <s_lp_Variant>
AV-unprocessed.smi:1295-1

> <Gold.Version>
5.8.1

> <Gold.Id.Protein>
6NUR|6NUR_protein|mol2

> <Gold.PLP.Fitness>
44.0331

> <Gold.PLP.PLP>
-38.0095

> <Gold.PLP.part.hbond>
-3.0000

> <Gold.PLP.part.metal>
0.0000

> <Gold.PLP.part.buried>
-3.9311

> <Gold.PLP.part.nonpolar>
-30.3999

> <Gold.PLP.part.repulsive>
0.2103

> <Gold.PLP.ligand.clash>
0.0000

> <Gold.PLP.ligand.torsion>
0.6086

> <Gold.PLP.Chemscore.Hbond>
2.4108

> <Gold.PLP.Chemscore.CHOScore>
0.0000

> <Gold.PLP.Chemscore.Metal>
0.0000

> <Gold.Chemscore.Hbonds>
donor molecule, donor type, donor heavy atom, donor atom, acceptor molecule, acceptor atom, score
      P1  H  6896  6908       L1     3  1.00
      P1  H  7997  8009       L1    19  0.34
      P1  H  7997  8010       L1     9  0.71

> <Gold.PLP.Chemscore.Internal.Correction>
0.0085

> <Gold.Rescore>
     Score         DG    S(hbond)    S(metal)    S(lipo)     H(rot)  DE(clash)    DE(int)     intcor
     19.23     -21.38       2.20        0.00     105.59       1.48       0.04       2.11       ----

> <Gold.Chemscore.Fitness>
19.2341

> <Gold.Chemscore.DG>
-21.3822

> <Gold.Chemscore.ZeroCoef>
-5.4800

> <Gold.Chemscore.Hbond>
2.1967

> <Gold.Chemscore.Metal>
0.0000

> <Gold.Chemscore.Lipo>
105.5912

> <Gold.Chemscore.Internal_Hbond>
0.0000

> <Gold.Chemscore.DEClash>
0.0400

> <Gold.Chemscore.DEInternal>
2.1081

> <Gold.Chemscore.Rot>
1.4801

> <Gold.Chemscore.Internal.Correction>
   9.000000E+99

> <Gold.Chemscore.Hbonds>
donor molecule, donor type, donor heavy atom, donor atom, acceptor molecule, acceptor atom, score
      P1  H  6896  6908       L1     3  0.74
      P1  H  7997  8009       L1    19  0.33
      P1  H  7997  8010       L1     9  0.23

> <Gold.Chemscore.Hbond.Weighted>
-7.3371

> <Gold.Chemscore.Metal.Weighted>
-0.0000

> <Gold.Chemscore.Lipo.Weighted>
-12.3542

> <Gold.Chemscore.Internal_Hbond.Weighted>
0.0000

> <Gold.Chemscore.DEClash.Weighted>
0.0400

> <Gold.Chemscore.DEInternal.Weighted>
2.1081

> <Gold.Chemscore.Rot.Weighted>
3.7891

> <Gold.Chemscore.Internal.Correction.Weighted>
   9.000000E+99

> <Gold.Protein.RotatedTorsions>
[ 6907 6896 6895 6894 ] final  -50.45 input  -60.11 | X-H torsion
[ 7974 7965 7964 7962 ] final  -83.59 input  175.53 | X-H torsion
[ 8008 7997 7996 7995 ] final   46.30 input   59.86 | X-H torsion
[ 10167 10162 10161 10158 ] final  -43.87 input  -65.29 | X-H torsion
[ 10718 10713 10712 10709 ] final -153.92 input   66.30 | X-H torsion
[ 10763 10752 10751 10750 ] final -131.29 input  -60.55 | X-H torsion
[ 11005 11000 10999 10996 ] final  -29.94 input  -57.11 | X-H torsion

> <Gold.Protein.ActiveResidues>
 VAL166  LYS551  ARG553  GLY616  TRP617  ASP618  TYR619  PRO620  LYS621  CYS622 
 ASP623  PHE694  ASN695  SER759  ASP760  ASP761  ALA762  ILE779  LEU786  VAL792 
 PHE793  MET794  SER795  GLU796  ALA797  LYS798  CYS799  TRP800  GLU811  SER814 

> <Gold.Protein.RotatedAtoms>
  150.8706  134.8079  159.7151 H   0  0  0  0  0  0  0  0  0  0  0  0  # atno 6907 bound_to 6896
  152.4712  134.4953  159.9718 H   0  0  0  0  0  0  0  0  0  0  0  0  # atno 6908 bound_to 6896
  151.5042  133.3459  159.2909 H   0  0  0  0  0  0  0  0  0  0  0  0  # atno 6909 bound_to 6896
  145.5180  140.9534  143.1671 H   0  0  0  0  0  0  0  0  0  0  0  0  # atno 7974 bound_to 7965
  155.3503  140.3413  155.4239 H   0  0  0  0  0  0  0  0  0  0  0  0  # atno 8008 bound_to 7997
  156.1767  140.1650  156.8384 H   0  0  0  0  0  0  0  0  0  0  0  0  # atno 8009 bound_to 7997
  154.5290  140.0749  156.8293 H   0  0  0  0  0  0  0  0  0  0  0  0  # atno 8010 bound_to 7997
  140.6918  143.2960  151.3414 H   0  0  0  0  0  0  0  0  0  0  0  0  # atno 10167 bound_to 10162
  156.4923  130.8353  151.2575 H   0  0  0  0  0  0  0  0  0  0  0  0  # atno 10718 bound_to 10713
  154.8751  135.3835  154.4222 H   0  0  0  0  0  0  0  0  0  0  0  0  # atno 10763 bound_to 10752
  153.4924  135.7030  153.5882 H   0  0  0  0  0  0  0  0  0  0  0  0  # atno 10764 bound_to 10752
  153.4249  135.3892  155.2102 H   0  0  0  0  0  0  0  0  0  0  0  0  # atno 10765 bound_to 10752
  140.9340  133.7320  156.0977 H   0  0  0  0  0  0  0  0  0  0  0  0  # atno 11005 bound_to 11000
  144.7691  139.6775  143.7202 LP  0  0  0  0  0  0  0  0  0  0  0  0  # atno 17320 bound_to 7965
  146.2124  139.5490  142.9672 LP  0  0  0  0  0  0  0  0  0  0  0  0  # atno 17321 bound_to 7965
  139.6329  144.0686  152.2491 LP  0  0  0  0  0  0  0  0  0  0  0  0  # atno 17342 bound_to 10162
  140.0167  144.6184  150.7601 LP  0  0  0  0  0  0  0  0  0  0  0  0  # atno 17343 bound_to 10162
  157.7472  131.0009  150.2944 LP  0  0  0  0  0  0  0  0  0  0  0  0  # atno 17370 bound_to 10713
  156.3414  130.3816  149.7406 LP  0  0  0  0  0  0  0  0  0  0  0  0  # atno 17371 bound_to 10713
  140.7824  134.3710  157.5484 LP  0  0  0  0  0  0  0  0  0  0  0  0  # atno 17394 bound_to 11000
  139.8803  134.9090  156.2981 LP  0  0  0  0  0  0  0  0  0  0  0  0  # atno 17395 bound_to 11000

$$$$
