AV-unprocessed.smi:2173|AV-procd|sdf|8841|dock4
  -GOLD-   2272012 33D 1   1.00000     0.00000
 Structure written by MMmdl.
 36 37  0  0  0  0  0  0  0  0  2 V2000
  153.4661  139.7869  158.6683 O   0  0  0  0  0  0  0  0  0  0  0  0
  153.4048  140.6671  159.5268 C   0  0  0  0  0  0  0  0  0  0  0  0
  154.1004  140.6239  160.6733 N   0  0  0  0  0  0  0  0  0  0  0  0
  155.0311  139.5659  161.0564 C   0  0  0  0  0  0  0  0  0  0  0  0
  154.4404  138.1451  160.9274 C   0  0  0  0  0  0  0  0  0  0  0  0
  154.7351  137.2425  162.1141 C   0  0  0  0  0  0  0  0  0  0  0  0
  154.3196  137.5659  163.4238 C   0  0  0  0  0  0  0  0  0  0  0  0
  154.6434  136.6936  164.4841 C   0  0  0  0  0  0  0  0  0  0  0  0
  155.3761  135.5191  164.2137 C   0  0  0  0  0  0  0  0  0  0  0  0
  155.7652  135.2446  162.8869 C   0  0  0  0  0  0  0  0  0  0  0  0
  155.4347  136.1042  161.8989 N   0  3  0  0  0  0  0  0  0  0  0  0
  152.5263  141.9052  159.3071 C   0  0  1  0  0  0  0  0  0  0  0  0
  153.3751  143.1970  159.3402 C   0  0  0  0  0  0  0  0  0  0  0  0
  152.5877  144.4112  158.8810 C   0  0  0  0  0  0  0  0  0  0  0  0
  151.4272  144.3280  158.2082 C   0  0  0  0  0  0  0  0  0  0  0  0
  150.7747  143.0109  157.8267 C   0  0  0  0  0  0  0  0  0  0  0  0
  151.7322  141.8148  157.9885 C   0  0  0  0  0  0  0  0  0  0  0  0
  153.9840  141.3861  161.3257 H   0  0  0  0  0  0  0  0  0  0  0  0
  155.8987  139.6522  160.4019 H   0  0  0  0  0  0  0  0  0  0  0  0
  155.3942  139.7354  162.0711 H   0  0  0  0  0  0  0  0  0  0  0  0
  153.3604  138.2107  160.7907 H   0  0  0  0  0  0  0  0  0  0  0  0
  154.8246  137.6684  160.0245 H   0  0  0  0  0  0  0  0  0  0  0  0
  153.7637  138.4722  163.6158 H   0  0  0  0  0  0  0  0  0  0  0  0
  154.3355  136.9242  165.4935 H   0  0  0  0  0  0  0  0  0  0  0  0
  155.6364  134.8395  165.0122 H   0  0  0  0  0  0  0  0  0  0  0  0
  156.3282  134.3724  162.5882 H   0  0  0  0  0  0  0  0  0  0  0  0
  151.8018  141.9562  160.1223 H   0  0  0  0  0  0  0  0  0  0  0  0
  153.7306  143.3789  160.3549 H   0  0  0  0  0  0  0  0  0  0  0  0
  154.2578  143.1091  158.7050 H   0  0  0  0  0  0  0  0  0  0  0  0
  153.0084  145.3799  159.1083 H   0  0  0  0  0  0  0  0  0  0  0  0
  150.9073  145.2302  157.9211 H   0  0  0  0  0  0  0  0  0  0  0  0
  149.8941  142.8765  158.4554 H   0  0  0  0  0  0  0  0  0  0  0  0
  150.4235  143.0685  156.7960 H   0  0  0  0  0  0  0  0  0  0  0  0
  152.4252  141.7978  157.1457 H   0  0  0  0  0  0  0  0  0  0  0  0
  151.1660  140.8835  157.9395 H   0  0  0  0  0  0  0  0  0  0  0  0
  155.7298  135.8886  160.9462 H   0  0  0  0  0  0  0  0  0  0  0  0
  1  2  2  0  0  0  0
  2  3  1  0  0  0  0
  2 12  1  0  0  0  0
  3  4  1  0  0  0  0
  3 18  1  0  0  0  0
  4  5  1  0  0  0  0
  4 19  1  0  0  0  0
  4 20  1  0  0  0  0
  5  6  1  0  0  0  0
  5 21  1  0  0  0  0
  5 22  1  0  0  0  0
  6 11  1  0  0  0  0
  6  7  2  0  0  0  0
  7  8  1  0  0  0  0
  7 23  1  0  0  0  0
  8  9  2  0  0  0  0
  8 24  1  0  0  0  0
  9 10  1  0  0  0  0
  9 25  1  0  0  0  0
 10 11  2  0  0  0  0
 10 26  1  0  0  0  0
 11 36  1  0  0  0  0
 12 17  1  0  0  0  0
 12 13  1  0  0  0  0
 12 27  1  0  0  0  0
 13 14  1  0  0  0  0
 13 28  1  0  0  0  0
 13 29  1  0  0  0  0
 14 15  2  0  0  0  0
 14 30  1  0  0  0  0
 15 16  1  0  0  0  0
 15 31  1  0  0  0  0
 16 17  1  0  0  0  0
 16 32  1  0  0  0  0
 16 33  1  0  0  0  0
 17 34  1  0  0  0  0
 17 35  1  0  0  0  0
M  CHG  1  11   1
M  END
> <s_m_source_file>
AV-unprocessed.smi

> <i_m_source_file_index>
2173

> <i_lp_mmshare_version>
43012

> <i_f3d_flags>
0

> <s_epik_input>
W0NIMl0xW0NIMl1bQ0hdPVtDSF1bQ0gyXVtDQEhdMUMoPU8pW05IXVtDSDJdW0NIMl1jMltjSF1bY0hdW2NIXVtjSF1uMg==

> <s_epik_cmdline>
J2VwaWtfcHl0aG9uJywgJy1waCcsICc3LjAnLCAnLXRuJywgJzgnLCAnLW1hJywgJzIwMCcsICctbWV0YWxfYmluZGluZycsICctaW1hZScsICc8aW5maWxlLm1hZT4nLCAnLW9tYWUnLCAnPG91dGZpbGUubWFlPic=

> <r_epik_Ionization_Penalty>
1.84586

> <r_epik_Ionization_Penalty_Charging>
1.84586

> <r_epik_Ionization_Penalty_Neutral>
1.53635e-08

> <r_epik_State_Penalty>
1.96297

> <r_epik_Charging_Adjusted_Penalty>
3.80883

> <i_epik_Tot_Q>
1

> <i_epik_Tot_abs_Q>
1

> <r_epik_Metal_State_Penalty>
1.98887

> <b_epik_Metal_Only>
0

> <s_lp_Force_Field>
OPLS_2005

> <r_lp_Energy>
13.9489

> <b_lp_Chiralities_Consistent>
1

> <s_lp_Variant>
AV-unprocessed.smi:2173-4

> <Gold.Version>
5.8.1

> <Gold.Id.Protein>
6NUR|6NUR_protein|mol2

> <Gold.PLP.Fitness>
42.1195

> <Gold.PLP.PLP>
-39.8307

> <Gold.PLP.part.hbond>
-1.0000

> <Gold.PLP.part.metal>
0.0000

> <Gold.PLP.part.buried>
-4.3888

> <Gold.PLP.part.nonpolar>
-34.2738

> <Gold.PLP.part.repulsive>
0.0737

> <Gold.PLP.ligand.clash>
0.0000

> <Gold.PLP.ligand.torsion>
0.3670

> <Gold.PLP.Chemscore.Hbond>
1.0000

> <Gold.PLP.Chemscore.CHOScore>
0.0000

> <Gold.PLP.Chemscore.Metal>
0.0000

> <Gold.Chemscore.Hbonds>
donor molecule, donor type, donor heavy atom, donor atom, acceptor molecule, acceptor atom, score
      P1  H  7997  8008       L1     1  1.00

> <Gold.PLP.Chemscore.Internal.Correction>
0.0229

> <Gold.Rescore>
     Score         DG    S(hbond)    S(metal)    S(lipo)     H(rot)  DE(clash)    DE(int)     intcor
     17.84     -18.69       0.98        0.00     117.49       1.48       0.20       0.66       ----

> <Gold.Chemscore.Fitness>
17.8394

> <Gold.Chemscore.DG>
-18.6945

> <Gold.Chemscore.ZeroCoef>
-5.4800

> <Gold.Chemscore.Hbond>
0.9754

> <Gold.Chemscore.Metal>
0.0000

> <Gold.Chemscore.Lipo>
117.4853

> <Gold.Chemscore.Internal_Hbond>
0.0000

> <Gold.Chemscore.DEClash>
0.1974

> <Gold.Chemscore.DEInternal>
0.6578

> <Gold.Chemscore.Rot>
1.4801

> <Gold.Chemscore.Internal.Correction>
   9.000000E+99

> <Gold.Chemscore.Hbonds>
donor molecule, donor type, donor heavy atom, donor atom, acceptor molecule, acceptor atom, score
      P1  H  7997  8008       L1     1  0.83

> <Gold.Chemscore.Hbond.Weighted>
-3.2579

> <Gold.Chemscore.Metal.Weighted>
-0.0000

> <Gold.Chemscore.Lipo.Weighted>
-13.7458

> <Gold.Chemscore.Internal_Hbond.Weighted>
0.0000

> <Gold.Chemscore.DEClash.Weighted>
0.1974

> <Gold.Chemscore.DEInternal.Weighted>
0.6578

> <Gold.Chemscore.Rot.Weighted>
3.7892

> <Gold.Chemscore.Internal.Correction.Weighted>
   9.000000E+99

> <Gold.Protein.RotatedTorsions>
[ 6907 6896 6895 6894 ] final  -70.96 input  -60.11 | X-H torsion
[ 7974 7965 7964 7962 ] final  -80.25 input  175.53 | X-H torsion
[ 8008 7997 7996 7995 ] final -109.32 input   59.86 | X-H torsion
[ 10167 10162 10161 10158 ] final  -77.19 input  -65.29 | X-H torsion
[ 10718 10713 10712 10709 ] final  -13.82 input   66.30 | X-H torsion
[ 10763 10752 10751 10750 ] final  -80.39 input  -60.55 | X-H torsion
[ 11005 11000 10999 10996 ] final   11.85 input  -57.11 | X-H torsion

> <Gold.Protein.ActiveResidues>
 VAL166  LYS551  ARG553  GLY616  TRP617  ASP618  TYR619  PRO620  LYS621  CYS622 
 ASP623  PHE694  ASN695  SER759  ASP760  ASP761  ALA762  ILE779  LEU786  VAL792 
 PHE793  MET794  SER795  GLU796  ALA797  LYS798  CYS799  TRP800  GLU811  SER814 

> <Gold.Protein.RotatedAtoms>
  150.7233  134.5377  159.5731 H   0  0  0  0  0  0  0  0  0  0  0  0  # atno 6907 bound_to 6896
  152.2895  134.7734  160.0390 H   0  0  0  0  0  0  0  0  0  0  0  0  # atno 6908 bound_to 6896
  151.8353  133.3379  159.3663 H   0  0  0  0  0  0  0  0  0  0  0  0  # atno 6909 bound_to 6896
  145.5625  140.9480  143.1440 H   0  0  0  0  0  0  0  0  0  0  0  0  # atno 7974 bound_to 7965
  154.9575  140.0399  157.2174 H   0  0  0  0  0  0  0  0  0  0  0  0  # atno 8008 bound_to 7997
  154.7920  140.2837  155.5962 H   0  0  0  0  0  0  0  0  0  0  0  0  # atno 8009 bound_to 7997
  156.2951  140.2571  156.2770 H   0  0  0  0  0  0  0  0  0  0  0  0  # atno 8010 bound_to 7997
  140.4792  143.2406  151.8084 H   0  0  0  0  0  0  0  0  0  0  0  0  # atno 10167 bound_to 10162
  156.6247  130.4885  149.6151 H   0  0  0  0  0  0  0  0  0  0  0  0  # atno 10718 bound_to 10713
  154.5506  135.5662  153.6919 H   0  0  0  0  0  0  0  0  0  0  0  0  # atno 10763 bound_to 10752
  152.9988  135.6250  154.2379 H   0  0  0  0  0  0  0  0  0  0  0  0  # atno 10764 bound_to 10752
  154.2313  135.2866  155.2868 H   0  0  0  0  0  0  0  0  0  0  0  0  # atno 10765 bound_to 10752
  140.4986  134.0769  155.7788 H   0  0  0  0  0  0  0  0  0  0  0  0  # atno 11005 bound_to 11000
  144.7476  139.7278  143.7286 LP  0  0  0  0  0  0  0  0  0  0  0  0  # atno 17320 bound_to 7965
  146.1841  139.5048  142.9847 LP  0  0  0  0  0  0  0  0  0  0  0  0  # atno 17321 bound_to 7965
  139.4830  144.4794  151.9326 LP  0  0  0  0  0  0  0  0  0  0  0  0  # atno 17342 bound_to 10162
  140.3879  144.2653  150.5902 LP  0  0  0  0  0  0  0  0  0  0  0  0  # atno 17343 bound_to 10162
  156.2283  130.6779  151.1438 LP  0  0  0  0  0  0  0  0  0  0  0  0  # atno 17370 bound_to 10713
  157.7217  131.0677  150.6106 LP  0  0  0  0  0  0  0  0  0  0  0  0  # atno 17371 bound_to 10713
  141.1447  133.9075  157.2243 LP  0  0  0  0  0  0  0  0  0  0  0  0  # atno 17394 bound_to 11000
  139.9727  135.0123  156.9552 LP  0  0  0  0  0  0  0  0  0  0  0  0  # atno 17395 bound_to 11000

$$$$
