AV-unprocessed.smi:2061|AV-procd|sdf|8360|dock6
  -GOLD-   2272011 33D 1   1.00000     0.00000
 Structure written by MMmdl.
 45 46  0  0  0  0  0  0  0  0  1 V2000
  148.0699  133.8085  162.9509 C   0  0  0  0  0  0  0  0  0  0  0  0
  148.3612  134.3670  161.6003 C   0  0  0  0  0  0  0  0  0  0  0  0
  148.8001  135.5886  161.1724 C   0  0  0  0  0  0  0  0  0  0  0  0
  148.8577  135.4319  159.7618 C   0  0  0  0  0  0  0  0  0  0  0  0
  149.2764  136.4994  158.9268 N   0  0  0  0  0  0  0  0  0  0  0  0
  150.3717  137.2661  159.0655 C   0  0  0  0  0  0  0  0  0  0  0  0
  151.2050  137.1523  159.9648 O   0  0  0  0  0  0  0  0  0  0  0  0
  150.4522  138.1813  158.0876 N   0  0  0  0  0  0  0  0  0  0  0  0
  151.5173  139.1711  157.9363 C   0  0  0  0  0  0  0  0  0  0  0  0
  150.9842  140.6256  157.7976 C   0  0  2  0  0  0  0  0  0  0  0  0
  150.6130  140.8919  156.3163 C   0  0  0  0  0  0  0  0  0  0  0  0
  151.9162  141.6394  158.3465 N   0  0  0  0  0  0  0  0  0  0  0  0
  152.4127  141.2915  159.6826 C   0  0  0  0  0  0  0  0  0  0  0  0
  153.3663  142.3523  160.2657 C   0  0  2  0  0  0  0  0  0  0  0  0
  153.8064  142.0134  161.6938 C   0  0  0  0  0  0  0  0  0  0  0  0
  152.7067  143.6116  160.2919 O   0  0  0  0  0  0  0  0  0  0  0  0
  152.2794  144.0313  159.0027 C   0  0  2  0  0  0  0  0  0  0  0  0
  151.6186  145.4072  159.1388 C   0  0  0  0  0  0  0  0  0  0  0  0
  151.3180  142.9767  158.4226 C   0  0  0  0  0  0  0  0  0  0  0  0
  148.4883  134.2237  159.3650 N   0  0  0  0  0  0  0  0  0  0  0  0
  148.1684  133.5352  160.5410 O   0  0  0  0  0  0  0  0  0  0  0  0
  148.2136  134.5631  163.7242 H   0  0  0  0  0  0  0  0  0  0  0  0
  148.7287  132.9686  163.1717 H   0  0  0  0  0  0  0  0  0  0  0  0
  147.0401  133.4558  163.0095 H   0  0  0  0  0  0  0  0  0  0  0  0
  149.0395  136.4530  161.7738 H   0  0  0  0  0  0  0  0  0  0  0  0
  148.6783  136.6993  158.1393 H   0  0  0  0  0  0  0  0  0  0  0  0
  149.7214  138.1966  157.3915 H   0  0  0  0  0  0  0  0  0  0  0  0
  152.1237  139.0575  158.8329 H   0  0  0  0  0  0  0  0  0  0  0  0
  152.1692  138.9338  157.0940 H   0  0  0  0  0  0  0  0  0  0  0  0
  150.0566  140.6792  158.3698 H   0  0  0  0  0  0  0  0  0  0  0  0
  149.9491  140.1299  155.9106 H   0  0  0  0  0  0  0  0  0  0  0  0
  151.5025  140.9213  155.6863 H   0  0  0  0  0  0  0  0  0  0  0  0
  150.0736  141.8286  156.1841 H   0  0  0  0  0  0  0  0  0  0  0  0
  151.5708  141.1452  160.3612 H   0  0  0  0  0  0  0  0  0  0  0  0
  152.9646  140.3543  159.6544 H   0  0  0  0  0  0  0  0  0  0  0  0
  154.2544  142.4299  159.6359 H   0  0  0  0  0  0  0  0  0  0  0  0
  154.3335  141.0595  161.7261 H   0  0  0  0  0  0  0  0  0  0  0  0
  152.9500  141.9463  162.3654 H   0  0  0  0  0  0  0  0  0  0  0  0
  154.4784  142.7773  162.0856 H   0  0  0  0  0  0  0  0  0  0  0  0
  153.1514  144.1270  158.3532 H   0  0  0  0  0  0  0  0  0  0  0  0
  151.2836  145.7789  158.1700 H   0  0  0  0  0  0  0  0  0  0  0  0
  152.3175  146.1360  159.5497 H   0  0  0  0  0  0  0  0  0  0  0  0
  150.7526  145.3664  159.7998 H   0  0  0  0  0  0  0  0  0  0  0  0
  151.0293  143.3233  157.4323 H   0  0  0  0  0  0  0  0  0  0  0  0
  150.4085  142.9398  159.0243 H   0  0  0  0  0  0  0  0  0  0  0  0
  1  2  1  0  0  0  0
  1 22  1  0  0  0  0
  1 23  1  0  0  0  0
  1 24  1  0  0  0  0
  2 21  1  0  0  0  0
  2  3  2  0  0  0  0
  3  4  1  0  0  0  0
  3 25  1  0  0  0  0
  4  5  1  0  0  0  0
  4 20  2  0  0  0  0
  5  6  1  0  0  0  0
  5 26  1  0  0  0  0
  6  7  2  0  0  0  0
  6  8  1  0  0  0  0
  8  9  1  0  0  0  0
  8 27  1  0  0  0  0
  9 10  1  0  0  0  0
  9 28  1  0  0  0  0
  9 29  1  0  0  0  0
 10 11  1  0  0  0  0
 10 12  1  0  0  0  0
 10 30  1  0  0  0  0
 11 31  1  0  0  0  0
 11 32  1  0  0  0  0
 11 33  1  0  0  0  0
 12 19  1  0  0  0  0
 12 13  1  0  0  0  0
 13 14  1  0  0  0  0
 13 34  1  0  0  0  0
 13 35  1  0  0  0  0
 14 15  1  0  0  0  0
 14 16  1  0  0  0  0
 14 36  1  0  0  0  0
 15 37  1  0  0  0  0
 15 38  1  0  0  0  0
 15 39  1  0  0  0  0
 16 17  1  0  0  0  0
 17 18  1  0  0  0  0
 17 19  1  0  0  0  0
 17 40  1  0  0  0  0
 18 41  1  0  0  0  0
 18 42  1  0  0  0  0
 18 43  1  0  0  0  0
 19 44  1  0  0  0  0
 19 45  1  0  0  0  0
 20 21  1  0  0  0  0
M  END
> <s_m_source_file>
AV-unprocessed.smi

> <i_m_source_file_index>
2061

> <i_lp_mmshare_version>
43012

> <i_f3d_flags>
0

> <s_epik_input>
W0NIM11jMVtjSF1jKG5vMSlbTkhdQyg9TylbTkhdW0NIMl1bQ0BIXShbQ0gzXSlOMltDSDJdW0NAQEhdKFtDSDNdKU9bQ0BASF0oW0NIM10pW0NIMl0y

> <s_epik_cmdline>
J2VwaWtfcHl0aG9uJywgJy1waCcsICc3LjAnLCAnLXRuJywgJzgnLCAnLW1hJywgJzIwMCcsICctbWV0YWxfYmluZGluZycsICctaW1hZScsICc8aW5maWxlLm1hZT4nLCAnLW9tYWUnLCAnPG91dGZpbGUubWFlPic=

> <r_epik_Ionization_Penalty>
0.214073

> <r_epik_Ionization_Penalty_Charging>
0

> <r_epik_Ionization_Penalty_Neutral>
0.214073

> <r_epik_State_Penalty>
0.204211

> <r_epik_Charging_Adjusted_Penalty>
0.204211

> <i_epik_Tot_Q>
0

> <i_epik_Tot_abs_Q>
0

> <r_epik_Metal_State_Penalty>
0.217067

> <b_epik_Metal_Only>
0

> <s_lp_Force_Field>
OPLS_2005

> <r_lp_Energy>
26.137

> <b_lp_Chiralities_Consistent>
1

> <s_lp_Variant>
AV-unprocessed.smi:2061-1

> <Gold.Version>
5.8.1

> <Gold.Id.Protein>
6NUR|6NUR_protein|mol2

> <Gold.PLP.Fitness>
43.6133

> <Gold.PLP.PLP>
-42.6726

> <Gold.PLP.part.hbond>
-1.1154

> <Gold.PLP.part.metal>
0.0000

> <Gold.PLP.part.buried>
-6.6705

> <Gold.PLP.part.nonpolar>
-35.3163

> <Gold.PLP.part.repulsive>
0.1953

> <Gold.PLP.ligand.clash>
0.0000

> <Gold.PLP.ligand.torsion>
0.8623

> <Gold.PLP.Chemscore.Hbond>
0.8775

> <Gold.PLP.Chemscore.CHOScore>
0.0000

> <Gold.PLP.Chemscore.Metal>
0.0000

> <Gold.Chemscore.Hbonds>
donor molecule, donor type, donor heavy atom, donor atom, acceptor molecule, acceptor atom, score
      P1  H  6896  6909       L1     7  0.75

> <Gold.PLP.Chemscore.Internal.Correction>
0.0328

> <Gold.Rescore>
     Score         DG    S(hbond)    S(metal)    S(lipo)     H(rot)  DE(clash)    DE(int)     intcor
     16.33     -17.29       0.99        0.00     106.60       1.55       0.01       0.95       ----

> <Gold.Chemscore.Fitness>
16.3330

> <Gold.Chemscore.DG>
-17.2864

> <Gold.Chemscore.ZeroCoef>
-5.4800

> <Gold.Chemscore.Hbond>
0.9867

> <Gold.Chemscore.Metal>
0.0000

> <Gold.Chemscore.Lipo>
106.5993

> <Gold.Chemscore.Internal_Hbond>
0.0000

> <Gold.Chemscore.DEClash>
0.0053

> <Gold.Chemscore.DEInternal>
0.9482

> <Gold.Chemscore.Rot>
1.5474

> <Gold.Chemscore.Internal.Correction>
   9.000000E+99

> <Gold.Chemscore.Hbonds>
donor molecule, donor type, donor heavy atom, donor atom, acceptor molecule, acceptor atom, score
      P1  H  6896  6909       L1     7  0.09

> <Gold.Chemscore.Hbond.Weighted>
-3.2956

> <Gold.Chemscore.Metal.Weighted>
-0.0000

> <Gold.Chemscore.Lipo.Weighted>
-12.4721

> <Gold.Chemscore.Internal_Hbond.Weighted>
0.0000

> <Gold.Chemscore.DEClash.Weighted>
0.0053

> <Gold.Chemscore.DEInternal.Weighted>
0.9482

> <Gold.Chemscore.Rot.Weighted>
3.9612

> <Gold.Chemscore.Internal.Correction.Weighted>
   9.000000E+99

> <Gold.Protein.RotatedTorsions>
[ 6907 6896 6895 6894 ] final  100.71 input  -60.11 | X-H torsion
[ 7974 7965 7964 7962 ] final -152.47 input  175.53 | X-H torsion
[ 8008 7997 7996 7995 ] final   73.86 input   59.86 | X-H torsion
[ 10167 10162 10161 10158 ] final  -15.20 input  -65.29 | X-H torsion
[ 10718 10713 10712 10709 ] final   79.76 input   66.30 | X-H torsion
[ 10763 10752 10751 10750 ] final  -20.26 input  -60.55 | X-H torsion
[ 11005 11000 10999 10996 ] final -148.94 input  -57.11 | X-H torsion

> <Gold.Protein.ActiveResidues>
 VAL166  LYS551  ARG553  GLY616  TRP617  ASP618  TYR619  PRO620  LYS621  CYS622 
 ASP623  PHE694  ASN695  SER759  ASP760  ASP761  ALA762  ILE779  LEU786  VAL792 
 PHE793  MET794  SER795  GLU796  ALA797  LYS798  CYS799  TRP800  GLU811  SER814 

> <Gold.Protein.RotatedAtoms>
  152.5366  134.0236  159.7992 H   0  0  0  0  0  0  0  0  0  0  0  0  # atno 6907 bound_to 6896
  151.0418  133.5692  159.2657 H   0  0  0  0  0  0  0  0  0  0  0  0  # atno 6908 bound_to 6896
  151.2659  135.0676  159.9169 H   0  0  0  0  0  0  0  0  0  0  0  0  # atno 6909 bound_to 6896
  144.7792  140.4657  143.5851 H   0  0  0  0  0  0  0  0  0  0  0  0  # atno 7974 bound_to 7965
  155.7899  140.3479  155.5343 H   0  0  0  0  0  0  0  0  0  0  0  0  # atno 8008 bound_to 7997
  155.8644  140.0976  157.1612 H   0  0  0  0  0  0  0  0  0  0  0  0  # atno 8009 bound_to 7997
  154.4013  140.1352  156.3988 H   0  0  0  0  0  0  0  0  0  0  0  0  # atno 8010 bound_to 7997
  140.7214  143.5242  150.9597 H   0  0  0  0  0  0  0  0  0  0  0  0  # atno 10167 bound_to 10162
  157.6786  130.9929  150.1979 H   0  0  0  0  0  0  0  0  0  0  0  0  # atno 10718 bound_to 10713
  153.6176  135.6994  153.5323 H   0  0  0  0  0  0  0  0  0  0  0  0  # atno 10763 bound_to 10752
  153.2964  135.4142  155.1213 H   0  0  0  0  0  0  0  0  0  0  0  0  # atno 10764 bound_to 10752
  154.8550  135.3638  154.5716 H   0  0  0  0  0  0  0  0  0  0  0  0  # atno 10765 bound_to 10752
  140.7560  134.3352  157.5114 H   0  0  0  0  0  0  0  0  0  0  0  0  # atno 11005 bound_to 11000
  145.6098  139.1512  143.3082 LP  0  0  0  0  0  0  0  0  0  0  0  0  # atno 17320 bound_to 7965
  146.1990  140.6215  142.9111 LP  0  0  0  0  0  0  0  0  0  0  0  0  # atno 17321 bound_to 7965
  139.8960  143.6894  152.3138 LP  0  0  0  0  0  0  0  0  0  0  0  0  # atno 17342 bound_to 10162
  139.7226  144.7599  151.0930 LP  0  0  0  0  0  0  0  0  0  0  0  0  # atno 17343 bound_to 10162
  156.2676  130.3718  149.8064 LP  0  0  0  0  0  0  0  0  0  0  0  0  # atno 17370 bound_to 10713
  156.5791  130.8458  151.3378 LP  0  0  0  0  0  0  0  0  0  0  0  0  # atno 17371 bound_to 10713
  139.8779  134.9172  156.3173 LP  0  0  0  0  0  0  0  0  0  0  0  0  # atno 17394 bound_to 11000
  140.9707  133.7329  156.0531 LP  0  0  0  0  0  0  0  0  0  0  0  0  # atno 17395 bound_to 11000

$$$$
