AV-unprocessed.smi:107|AV-procd|sdf|1015|dock2
  -GOLD-   2262018 13D 1   1.00000     0.00000
 Structure written by MMmdl.
 31 32  0  0  0  0  0  0  0  0  1 V2000
  150.2206  142.7398  158.8902 C   0  0  0  0  0  0  0  0  0  0  0  0
  150.6173  141.8181  157.7488 C   0  0  0  0  0  0  0  0  0  0  0  0
  149.9173  141.7551  156.5873 C   0  0  0  0  0  0  0  0  0  0  0  0
  150.2575  140.9283  155.5256 N   0  0  0  0  0  0  0  0  0  0  0  0
  149.4389  140.9118  154.2547 C   0  0  2  0  0  0  0  0  0  0  0  0
  148.2352  141.8484  154.3729 C   0  0  0  0  0  0  0  0  0  0  0  0
  147.1643  141.0599  153.6485 C   0  0  2  0  0  0  0  0  0  0  0  0
  145.8792  141.4276  154.1060 O   0  0  0  0  0  0  0  0  0  0  0  0
  147.5297  139.6181  154.0153 C   0  0  1  0  0  0  0  0  0  0  0  0
  147.0381  138.5559  153.0199 C   0  0  0  0  0  0  0  0  0  0  0  0
  147.6559  138.7304  151.7626 O   0  0  0  0  0  0  0  0  0  0  0  0
  148.9559  139.6172  154.0412 O   0  0  0  0  0  0  0  0  0  0  0  0
  151.4047  140.1137  155.6246 C   0  0  0  0  0  0  0  0  0  0  0  0
  151.7880  139.3789  154.7154 O   0  0  0  0  0  0  0  0  0  0  0  0
  152.1212  140.1740  156.8186 N   0  0  0  0  0  0  0  0  0  0  0  0
  151.8063  140.9782  157.9167 C   0  0  0  0  0  0  0  0  0  0  0  0
  152.5163  140.9406  158.9202 O   0  0  0  0  0  0  0  0  0  0  0  0
  152.9414  139.5902  156.8949 H   0  0  0  0  0  0  0  0  0  0  0  0
  149.3155  143.3023  158.6600 H   0  0  0  0  0  0  0  0  0  0  0  0
  151.0169  143.4565  159.0944 H   0  0  0  0  0  0  0  0  0  0  0  0
  150.0351  142.1655  159.7985 H   0  0  0  0  0  0  0  0  0  0  0  0
  149.0514  142.3912  156.4848 H   0  0  0  0  0  0  0  0  0  0  0  0
  150.0987  141.1563  153.4209 H   0  0  0  0  0  0  0  0  0  0  0  0
  147.9745  141.9820  155.4246 H   0  0  0  0  0  0  0  0  0  0  0  0
  148.4451  142.8229  153.9311 H   0  0  0  0  0  0  0  0  0  0  0  0
  147.2444  141.2193  152.5723 H   0  0  0  0  0  0  0  0  0  0  0  0
  145.2462  141.1819  153.4482 H   0  0  0  0  0  0  0  0  0  0  0  0
  147.1810  139.3849  155.0229 H   0  0  0  0  0  0  0  0  0  0  0  0
  147.2358  137.5494  153.3900 H   0  0  0  0  0  0  0  0  0  0  0  0
  145.9600  138.6425  152.8835 H   0  0  0  0  0  0  0  0  0  0  0  0
  148.3356  139.3813  151.8497 H   0  0  0  0  0  0  0  0  0  0  0  0
  1  2  1  0  0  0  0
  1 19  1  0  0  0  0
  1 20  1  0  0  0  0
  1 21  1  0  0  0  0
  2 16  1  0  0  0  0
  2  3  2  0  0  0  0
  3  4  1  0  0  0  0
  3 22  1  0  0  0  0
  4  5  1  0  0  0  0
  4 13  1  0  0  0  0
  5 12  1  0  0  0  0
  5  6  1  0  0  0  0
  5 23  1  0  0  0  0
  6  7  1  0  0  0  0
  6 24  1  0  0  0  0
  6 25  1  0  0  0  0
  7  8  1  0  0  0  0
  7  9  1  0  0  0  0
  7 26  1  0  0  0  0
  8 27  1  0  0  0  0
  9 10  1  0  0  0  0
  9 12  1  0  0  0  0
  9 28  1  0  0  0  0
 10 11  1  0  0  0  0
 10 29  1  0  0  0  0
 10 30  1  0  0  0  0
 11 31  1  0  0  0  0
 13 14  2  0  0  0  0
 13 15  1  0  0  0  0
 15 18  1  0  0  0  0
 15 16  1  0  0  0  0
 16 17  2  0  0  0  0
M  END
> <s_m_source_file>
AV-unprocessed.smi

> <i_m_source_file_index>
107

> <i_lp_mmshare_version>
43012

> <i_f3d_flags>
0

> <s_epik_input>
Tz1jMVtuSF1jKD1PKW4oW2NIXWMxW0NIM10pW0NAQEhdMltDSDJdW0NAQEhdKFtPSF0pW0NASF0oTzIpW0NIMl1bT0hd

> <s_epik_cmdline>
J2VwaWtfcHl0aG9uJywgJy1waCcsICc3LjAnLCAnLXRuJywgJzgnLCAnLW1hJywgJzIwMCcsICctbWV0YWxfYmluZGluZycsICctaW1hZScsICc8aW5maWxlLm1hZT4nLCAnLW9tYWUnLCAnPG91dGZpbGUubWFlPic=

> <r_lp_tautomer_probability>
0.999537

> <r_epik_Ionization_Penalty>
0.00121888

> <r_epik_Ionization_Penalty_Charging>
0.00121876

> <r_epik_Ionization_Penalty_Neutral>
1.19946e-07

> <r_epik_State_Penalty>
0.000805124

> <r_epik_Charging_Adjusted_Penalty>
0.00202389

> <i_epik_Tot_Q>
0

> <i_epik_Tot_abs_Q>
0

> <r_epik_Metal_State_Penalty>
0.662472

> <b_epik_Metal_Only>
0

> <s_epik_Chemistry_Notes>
This compound contains an acetal/aminal-like group ( X-CH(R)-Y where X, Y are N, S, or O) that may be acid/base labile, releasing an aldehyde.

> <s_lp_Force_Field>
OPLS_2005

> <r_lp_Energy>
24.0727

> <b_lp_Chiralities_Consistent>
1

> <s_lp_Variant>
AV-unprocessed.smi:107-3

> <Gold.Version>
5.8.1

> <Gold.Id.Protein>
6NUR|6NUR_protein|mol2

> <Gold.PLP.Fitness>
40.2793

> <Gold.PLP.PLP>
-28.1706

> <Gold.PLP.part.hbond>
-4.6081

> <Gold.PLP.part.metal>
0.0000

> <Gold.PLP.part.buried>
0.1327

> <Gold.PLP.part.nonpolar>
-23.7588

> <Gold.PLP.part.repulsive>
1.1697

> <Gold.PLP.ligand.clash>
0.0000

> <Gold.PLP.ligand.torsion>
0.0215

> <Gold.PLP.Chemscore.Hbond>
3.0480

> <Gold.PLP.Chemscore.CHOScore>
1.0000

> <Gold.PLP.Chemscore.Metal>
0.0000

> <Gold.Chemscore.Hbonds>
donor molecule, donor type, donor heavy atom, donor atom, acceptor molecule, acceptor atom, score
      L1  H     8    27       P1 10175  1.00
      L1  H    11    31       P1  7957  0.86
      P1  H  7954  7966       L1    11  0.74
      P1  H  7989  7998       L1    14  0.50
      L1  C     3    22       P1  8028  1.00

> <Gold.PLP.Chemscore.Internal.Correction>
0.0077

> <Gold.Rescore>
     Score         DG    S(hbond)    S(metal)    S(lipo)     H(rot)  DE(clash)    DE(int)     intcor
      8.00      -9.32       1.82        0.00      40.35       2.73       0.20       1.12       ----

> <Gold.Chemscore.Fitness>
7.9984

> <Gold.Chemscore.DG>
-9.3177

> <Gold.Chemscore.ZeroCoef>
-5.4800

> <Gold.Chemscore.Hbond>
1.8243

> <Gold.Chemscore.Metal>
0.0000

> <Gold.Chemscore.Lipo>
40.3531

> <Gold.Chemscore.Internal_Hbond>
0.0000

> <Gold.Chemscore.DEClash>
0.2022

> <Gold.Chemscore.DEInternal>
1.1171

> <Gold.Chemscore.Rot>
2.7253

> <Gold.Chemscore.Internal.Correction>
   9.000000E+99

> <Gold.Chemscore.Hbonds>
donor molecule, donor type, donor heavy atom, donor atom, acceptor molecule, acceptor atom, score
      L1  H     8    27       P1 10175  0.39
      L1  H    11    31       P1  7957  0.81
      P1  H  7954  7966       L1    11  0.18
      P1  H  7989  7998       L1    14  0.02

> <Gold.Chemscore.Hbond.Weighted>
-6.0932

> <Gold.Chemscore.Metal.Weighted>
-0.0000

> <Gold.Chemscore.Lipo.Weighted>
-4.7213

> <Gold.Chemscore.Internal_Hbond.Weighted>
0.0000

> <Gold.Chemscore.DEClash.Weighted>
0.2022

> <Gold.Chemscore.DEInternal.Weighted>
1.1171

> <Gold.Chemscore.Rot.Weighted>
6.9769

> <Gold.Chemscore.Internal.Correction.Weighted>
   9.000000E+99

> <Gold.Protein.RotatedTorsions>
[ 6907 6896 6895 6894 ] final   43.07 input  -60.11 | X-H torsion
[ 7974 7965 7964 7962 ] final  119.82 input  175.53 | X-H torsion
[ 8008 7997 7996 7995 ] final -133.31 input   59.86 | X-H torsion
[ 10167 10162 10161 10158 ] final -162.21 input  -65.29 | X-H torsion
[ 10718 10713 10712 10709 ] final   28.17 input   66.30 | X-H torsion
[ 10763 10752 10751 10750 ] final   82.61 input  -60.55 | X-H torsion
[ 11005 11000 10999 10996 ] final   36.12 input  -57.11 | X-H torsion

> <Gold.Protein.ActiveResidues>
 VAL166  LYS551  ARG553  GLY616  TRP617  ASP618  TYR619  PRO620  LYS621  CYS622 
 ASP623  PHE694  ASN695  SER759  ASP760  ASP761  ALA762  ILE779  LEU786  VAL792 
 PHE793  MET794  SER795  GLU796  ALA797  LYS798  CYS799  TRP800  GLU811  SER814 

> <Gold.Protein.RotatedAtoms>
  152.2158  134.8460  160.0491 H   0  0  0  0  0  0  0  0  0  0  0  0  # atno 6907 bound_to 6896
  151.9261  133.3593  159.3922 H   0  0  0  0  0  0  0  0  0  0  0  0  # atno 6908 bound_to 6896
  150.6987  134.4510  159.5380 H   0  0  0  0  0  0  0  0  0  0  0  0  # atno 6909 bound_to 6896
  145.1386  139.3282  143.4628 H   0  0  0  0  0  0  0  0  0  0  0  0  # atno 7974 bound_to 7965
  155.3434  140.0473  157.3045 H   0  0  0  0  0  0  0  0  0  0  0  0  # atno 8008 bound_to 7997
  154.5265  140.2242  155.8845 H   0  0  0  0  0  0  0  0  0  0  0  0  # atno 8009 bound_to 7997
  156.1745  140.3088  155.9039 H   0  0  0  0  0  0  0  0  0  0  0  0  # atno 8010 bound_to 7997
  139.6409  144.0261  152.2091 H   0  0  0  0  0  0  0  0  0  0  0  0  # atno 10167 bound_to 10162
  157.2299  130.7019  149.6309 H   0  0  0  0  0  0  0  0  0  0  0  0  # atno 10718 bound_to 10713
  153.1218  135.4722  154.9208 H   0  0  0  0  0  0  0  0  0  0  0  0  # atno 10763 bound_to 10752
  154.7583  135.3124  154.8431 H   0  0  0  0  0  0  0  0  0  0  0  0  # atno 10764 bound_to 10752
  153.8993  135.6876  153.4810 H   0  0  0  0  0  0  0  0  0  0  0  0  # atno 10765 bound_to 10752
  140.2358  134.3473  155.7945 H   0  0  0  0  0  0  0  0  0  0  0  0  # atno 11005 bound_to 11000
  146.3507  140.1413  142.8594 LP  0  0  0  0  0  0  0  0  0  0  0  0  # atno 17320 bound_to 7965
  145.0557  140.9051  143.4968 LP  0  0  0  0  0  0  0  0  0  0  0  0  # atno 17321 bound_to 7965
  139.9951  144.6334  150.7780 LP  0  0  0  0  0  0  0  0  0  0  0  0  # atno 17342 bound_to 10162
  140.7490  143.2932  151.3275 LP  0  0  0  0  0  0  0  0  0  0  0  0  # atno 17343 bound_to 10162
  155.9676  130.4492  150.5649 LP  0  0  0  0  0  0  0  0  0  0  0  0  # atno 17370 bound_to 10713
  157.3488  131.0730  151.1729 LP  0  0  0  0  0  0  0  0  0  0  0  0  # atno 17371 bound_to 10713
  141.2214  133.7271  156.8805 LP  0  0  0  0  0  0  0  0  0  0  0  0  # atno 17394 bound_to 11000
  140.1704  134.9104  157.2826 LP  0  0  0  0  0  0  0  0  0  0  0  0  # atno 17395 bound_to 11000

$$$$
