AV-unprocessed.smi:139|AV-procd|sdf|1182|dock2
  -GOLD-   2262018333D 1   1.00000     0.00000
 Structure written by MMmdl.
 50 53  0  0  0  0  0  0  0  0  1 V2000
  151.6611  136.5572  155.0483 O   0  0  0  0  0  0  0  0  0  0  0  0
  151.5984  137.2816  156.0423 C   0  0  0  0  0  0  0  0  0  0  0  0
  152.6094  138.4188  156.2449 C   0  0  0  0  0  0  0  0  0  0  0  0
  151.9494  139.7225  156.4727 N   0  0  0  0  0  0  0  0  0  0  0  0
  150.9378  140.1506  155.5770 C   0  0  0  0  0  0  0  0  0  0  0  0
  150.6092  139.4653  154.6077 O   0  0  0  0  0  0  0  0  0  0  0  0
  150.3251  141.4374  155.8880 C   0  0  0  0  0  0  0  0  0  0  0  0
  149.3716  141.9329  155.0811 F   0  0  0  0  0  0  0  0  0  0  0  0
  150.7021  142.1417  156.9749 C   0  0  0  0  0  0  0  0  0  0  0  0
  151.6740  141.6997  157.8530 N   0  0  0  0  0  0  0  0  0  0  0  0
  152.0595  142.5173  159.0639 C   0  0  1  0  0  0  0  0  0  0  0  0
  152.8309  143.7713  158.6354 C   0  0  0  0  0  0  0  0  0  0  0  0
  151.7552  144.8358  158.6760 C   0  0  0  0  0  0  0  0  0  0  0  0
  150.8868  144.3503  159.8299 C   0  0  0  0  0  0  0  0  0  0  0  0
  150.8945  142.9314  159.7179 O   0  0  0  0  0  0  0  0  0  0  0  0
  152.3334  140.4764  157.6080 C   0  0  0  0  0  0  0  0  0  0  0  0
  153.2218  140.0754  158.3634 O   0  0  0  0  0  0  0  0  0  0  0  0
  150.6697  137.1406  156.9998 N   0  0  0  0  0  0  0  0  0  0  0  0
  149.5822  136.1657  156.9934 C   0  0  2  0  0  0  0  0  0  0  0  0
  148.8708  136.1663  155.6252 C   0  0  0  0  0  0  0  0  0  0  0  0
  147.8470  137.2997  155.5123 C   0  0  0  0  0  0  0  0  0  0  0  0
  146.7646  137.1749  156.5910 C   0  0  0  0  0  0  0  0  0  0  0  0
  147.3219  136.9005  157.9798 C   0  0  0  0  0  0  0  0  0  0  0  0
  146.4932  137.1239  159.0995 C   0  0  0  0  0  0  0  0  0  0  0  0
  146.9682  136.8718  160.4004 C   0  0  0  0  0  0  0  0  0  0  0  0
  148.2777  136.3938  160.5893 C   0  0  0  0  0  0  0  0  0  0  0  0
  149.1095  136.1665  159.4773 C   0  0  0  0  0  0  0  0  0  0  0  0
  148.6410  136.4121  158.1682 C   0  0  0  0  0  0  0  0  0  0  0  0
  153.2700  138.1818  157.0814 H   0  0  0  0  0  0  0  0  0  0  0  0
  153.2728  138.4391  155.3794 H   0  0  0  0  0  0  0  0  0  0  0  0
  150.2182  143.0899  157.1558 H   0  0  0  0  0  0  0  0  0  0  0  0
  152.6257  141.8575  159.7231 H   0  0  0  0  0  0  0  0  0  0  0  0
  153.6007  143.9763  159.3802 H   0  0  0  0  0  0  0  0  0  0  0  0
  153.3051  143.6552  157.6600 H   0  0  0  0  0  0  0  0  0  0  0  0
  152.1507  145.8397  158.8323 H   0  0  0  0  0  0  0  0  0  0  0  0
  151.1853  144.8334  157.7463 H   0  0  0  0  0  0  0  0  0  0  0  0
  151.3316  144.6315  160.7856 H   0  0  0  0  0  0  0  0  0  0  0  0
  149.8729  144.7495  159.7934 H   0  0  0  0  0  0  0  0  0  0  0  0
  150.7017  137.7749  157.7847 H   0  0  0  0  0  0  0  0  0  0  0  0
  150.0108  135.1729  157.1446 H   0  0  0  0  0  0  0  0  0  0  0  0
  149.5926  136.2129  154.8085 H   0  0  0  0  0  0  0  0  0  0  0  0
  148.3430  135.2198  155.5025 H   0  0  0  0  0  0  0  0  0  0  0  0
  148.3616  138.2553  155.6199 H   0  0  0  0  0  0  0  0  0  0  0  0
  147.3890  137.3060  154.5229 H   0  0  0  0  0  0  0  0  0  0  0  0
  146.1589  138.0818  156.6114 H   0  0  0  0  0  0  0  0  0  0  0  0
  146.0911  136.3556  156.3368 H   0  0  0  0  0  0  0  0  0  0  0  0
  145.4859  137.4891  158.9625 H   0  0  0  0  0  0  0  0  0  0  0  0
  146.3275  137.0450  161.2523 H   0  0  0  0  0  0  0  0  0  0  0  0
  148.6443  136.2011  161.5867 H   0  0  0  0  0  0  0  0  0  0  0  0
  150.1148  135.8014  159.6303 H   0  0  0  0  0  0  0  0  0  0  0  0
  1  2  2  0  0  0  0
  2  3  1  0  0  0  0
  2 18  1  0  0  0  0
  3  4  1  0  0  0  0
  3 29  1  0  0  0  0
  3 30  1  0  0  0  0
  4 16  1  0  0  0  0
  4  5  1  0  0  0  0
  5  6  2  0  0  0  0
  5  7  1  0  0  0  0
  7  8  1  0  0  0  0
  7  9  2  0  0  0  0
  9 10  1  0  0  0  0
  9 31  1  0  0  0  0
 10 11  1  0  0  0  0
 10 16  1  0  0  0  0
 11 15  1  0  0  0  0
 11 12  1  0  0  0  0
 11 32  1  0  0  0  0
 12 13  1  0  0  0  0
 12 33  1  0  0  0  0
 12 34  1  0  0  0  0
 13 14  1  0  0  0  0
 13 35  1  0  0  0  0
 13 36  1  0  0  0  0
 14 15  1  0  0  0  0
 14 37  1  0  0  0  0
 14 38  1  0  0  0  0
 16 17  2  0  0  0  0
 18 19  1  0  0  0  0
 18 39  1  0  0  0  0
 19 28  1  0  0  0  0
 19 20  1  0  0  0  0
 19 40  1  0  0  0  0
 20 21  1  0  0  0  0
 20 41  1  0  0  0  0
 20 42  1  0  0  0  0
 21 22  1  0  0  0  0
 21 43  1  0  0  0  0
 21 44  1  0  0  0  0
 22 23  1  0  0  0  0
 22 45  1  0  0  0  0
 22 46  1  0  0  0  0
 23 28  2  0  0  0  0
 23 24  1  0  0  0  0
 24 25  2  0  0  0  0
 24 47  1  0  0  0  0
 25 26  1  0  0  0  0
 25 48  1  0  0  0  0
 26 27  2  0  0  0  0
 26 49  1  0  0  0  0
 27 28  1  0  0  0  0
 27 50  1  0  0  0  0
M  END
> <s_m_source_file>
AV-unprocessed.smi

> <i_m_source_file_index>
139

> <i_lp_mmshare_version>
43012

> <i_f3d_flags>
0

> <s_epik_input>
W2NIXTFbY0hdW2NIXVtjSF1jKGMxMilbQ0BASF0oW0NIMl1bQ0gyXVtDSDJdMilbTkhdQyg9TylbQ0gyXW4zYyg9TyljKEYpW2NIXW4oYzM9TylbQ0BASF00W0NIMl1bQ0gyXVtDSDJdTzQ=

> <s_epik_cmdline>
J2VwaWtfcHl0aG9uJywgJy1waCcsICc3LjAnLCAnLXRuJywgJzgnLCAnLW1hJywgJzIwMCcsICctbWV0YWxfYmluZGluZycsICctaW1hZScsICc8aW5maWxlLm1hZT4nLCAnLW9tYWUnLCAnPG91dGZpbGUubWFlPic=

> <r_lp_tautomer_probability>
1

> <r_epik_Ionization_Penalty>
3.261e-08

> <r_epik_Ionization_Penalty_Charging>
3.6725e-09

> <r_epik_Ionization_Penalty_Neutral>
2.89375e-08

> <r_epik_State_Penalty>
-0

> <r_epik_Charging_Adjusted_Penalty>
3.6725e-09

> <i_epik_Tot_Q>
0

> <i_epik_Tot_abs_Q>
0

> <r_epik_Metal_State_Penalty>
-0

> <b_epik_Metal_Only>
0

> <s_epik_Chemistry_Notes>
This compound contains an acetal/aminal-like group ( X-CH(R)-Y where X, Y are N, S, or O) that may be acid/base labile, releasing an aldehyde.

> <s_lp_Force_Field>
OPLS_2005

> <r_lp_Energy>
30.9445

> <b_lp_Chiralities_Consistent>
1

> <s_lp_Variant>
AV-unprocessed.smi:139-2

> <Gold.Version>
5.8.1

> <Gold.Id.Protein>
6NUR|6NUR_protein|mol2

> <Gold.PLP.Fitness>
50.1228

> <Gold.PLP.PLP>
-41.4253

> <Gold.PLP.part.hbond>
-4.0000

> <Gold.PLP.part.metal>
0.0000

> <Gold.PLP.part.buried>
-1.5258

> <Gold.PLP.part.nonpolar>
-36.1886

> <Gold.PLP.part.repulsive>
0.3311

> <Gold.PLP.ligand.clash>
0.0000

> <Gold.PLP.ligand.torsion>
0.4698

> <Gold.PLP.Chemscore.Hbond>
2.2000

> <Gold.PLP.Chemscore.CHOScore>
1.0000

> <Gold.PLP.Chemscore.Metal>
0.0000

> <Gold.Chemscore.Hbonds>
donor molecule, donor type, donor heavy atom, donor atom, acceptor molecule, acceptor atom, score
      P1  H  7989  7998       L1     6  0.23
      P1  H  7997  8008       L1    17  0.75
      P1  H 10752 10764       L1     1  1.00
      L1  C     9    31       P1  8028  0.89

> <Gold.PLP.Chemscore.Internal.Correction>
0.0371

> <Gold.Rescore>
     Score         DG    S(hbond)    S(metal)    S(lipo)     H(rot)  DE(clash)    DE(int)     intcor
     12.39     -16.06       1.73        0.00      80.78       1.82       0.64       3.03       ----

> <Gold.Chemscore.Fitness>
12.3877

> <Gold.Chemscore.DG>
-16.0618

> <Gold.Chemscore.ZeroCoef>
-5.4800

> <Gold.Chemscore.Hbond>
1.7314

> <Gold.Chemscore.Metal>
0.0000

> <Gold.Chemscore.Lipo>
80.7809

> <Gold.Chemscore.Internal_Hbond>
0.0000

> <Gold.Chemscore.DEClash>
0.6425

> <Gold.Chemscore.DEInternal>
3.0316

> <Gold.Chemscore.Rot>
1.8174

> <Gold.Chemscore.Internal.Correction>
   9.000000E+99

> <Gold.Chemscore.Hbonds>
donor molecule, donor type, donor heavy atom, donor atom, acceptor molecule, acceptor atom, score
      P1  H  7997  8008       L1    17  0.09
      P1  H 10752 10764       L1     1  0.99

> <Gold.Chemscore.Hbond.Weighted>
-5.7829

> <Gold.Chemscore.Metal.Weighted>
-0.0000

> <Gold.Chemscore.Lipo.Weighted>
-9.4514

> <Gold.Chemscore.Internal_Hbond.Weighted>
0.0000

> <Gold.Chemscore.DEClash.Weighted>
0.6425

> <Gold.Chemscore.DEInternal.Weighted>
3.0316

> <Gold.Chemscore.Rot.Weighted>
4.6524

> <Gold.Chemscore.Internal.Correction.Weighted>
   9.000000E+99

> <Gold.Protein.RotatedTorsions>
[ 6907 6896 6895 6894 ] final -139.29 input  -60.11 | X-H torsion
[ 7974 7965 7964 7962 ] final  127.35 input  175.53 | X-H torsion
[ 8008 7997 7996 7995 ] final  -85.81 input   59.86 | X-H torsion
[ 10167 10162 10161 10158 ] final  140.29 input  -65.29 | X-H torsion
[ 10718 10713 10712 10709 ] final  103.51 input   66.30 | X-H torsion
[ 10763 10752 10751 10750 ] final  -68.90 input  -60.55 | X-H torsion
[ 11005 11000 10999 10996 ] final  113.90 input  -57.11 | X-H torsion

> <Gold.Protein.ActiveResidues>
 VAL166  LYS551  ARG553  GLY616  TRP617  ASP618  TYR619  PRO620  LYS621  CYS622 
 ASP623  PHE694  ASN695  SER759  ASP760  ASP761  ALA762  ILE779  LEU786  VAL792 
 PHE793  MET794  SER795  GLU796  ALA797  LYS798  CYS799  TRP800  GLU811  SER814 

> <Gold.Protein.RotatedAtoms>
  151.0459  133.5666  159.2646 H   0  0  0  0  0  0  0  0  0  0  0  0  # atno 6907 bound_to 6896
  151.2694  135.0679  159.9138 H   0  0  0  0  0  0  0  0  0  0  0  0  # atno 6908 bound_to 6896
  152.5373  134.0192  159.8028 H   0  0  0  0  0  0  0  0  0  0  0  0  # atno 6909 bound_to 6896
  145.0515  139.3879  143.5051 H   0  0  0  0  0  0  0  0  0  0  0  0  # atno 7974 bound_to 7965
  154.6449  140.0586  156.9888 H   0  0  0  0  0  0  0  0  0  0  0  0  # atno 8008 bound_to 7997
  155.1460  140.3270  155.4423 H   0  0  0  0  0  0  0  0  0  0  0  0  # atno 8009 bound_to 7997
  156.2548  140.1955  156.6574 H   0  0  0  0  0  0  0  0  0  0  0  0  # atno 8010 bound_to 7997
  139.5053  144.6243  151.5976 H   0  0  0  0  0  0  0  0  0  0  0  0  # atno 10167 bound_to 10162
  157.6770  131.0781  150.5566 H   0  0  0  0  0  0  0  0  0  0  0  0  # atno 10718 bound_to 10713
  154.3957  135.6042  153.5868 H   0  0  0  0  0  0  0  0  0  0  0  0  # atno 10763 bound_to 10752
  152.9787  135.5894  154.4244 H   0  0  0  0  0  0  0  0  0  0  0  0  # atno 10764 bound_to 10752
  154.4035  135.2843  155.2060 H   0  0  0  0  0  0  0  0  0  0  0  0  # atno 10765 bound_to 10752
  139.8965  134.9558  156.6810 H   0  0  0  0  0  0  0  0  0  0  0  0  # atno 11005 bound_to 11000
  146.3518  140.0167  142.8662 LP  0  0  0  0  0  0  0  0  0  0  0  0  # atno 17320 bound_to 7965
  145.1521  140.9628  143.4426 LP  0  0  0  0  0  0  0  0  0  0  0  0  # atno 17321 bound_to 7965
  140.5955  143.9704  150.6351 LP  0  0  0  0  0  0  0  0  0  0  0  0  # atno 17342 bound_to 10162
  140.2898  143.3332  152.1073 LP  0  0  0  0  0  0  0  0  0  0  0  0  # atno 17343 bound_to 10162
  156.5870  130.4319  149.5953 LP  0  0  0  0  0  0  0  0  0  0  0  0  # atno 17370 bound_to 10713
  156.2614  130.6965  151.1734 LP  0  0  0  0  0  0  0  0  0  0  0  0  # atno 17371 bound_to 10713
  140.7299  133.9068  155.8204 LP  0  0  0  0  0  0  0  0  0  0  0  0  # atno 17394 bound_to 11000
  141.0161  134.0953  157.4170 LP  0  0  0  0  0  0  0  0  0  0  0  0  # atno 17395 bound_to 11000

$$$$
