AV-unprocessed.smi:2772|AV-procd|sdf|10674|dock4
  -GOLD-   2272015123D 1   1.00000     0.00000
 Structure written by MMmdl.
 56 58  0  0  0  0  0  0  0  0  4 V2000
  151.4429  145.5017  159.9118 C   0  0  0  0  0  0  0  0  0  0  0  0
  152.0569  144.1582  160.2443 C   0  0  0  0  0  0  0  0  0  0  0  0
  152.3755  143.7773  161.5645 C   0  0  0  0  0  0  0  0  0  0  0  0
  152.9496  142.5099  161.7955 C   0  0  0  0  0  0  0  0  0  0  0  0
  153.2050  141.6460  160.7075 C   0  0  0  0  0  0  0  0  0  0  0  0
  153.7780  140.3750  160.9908 N   0  0  0  0  0  0  0  0  0  0  0  0
  154.2231  139.4458  160.1262 C   0  0  0  0  0  0  0  0  0  0  0  0
  154.2240  139.5608  158.9011 O   0  0  0  0  0  0  0  0  0  0  0  0
  154.6899  138.3649  160.7697 N   0  0  0  0  0  0  0  0  0  0  0  0
  155.2566  137.1762  160.1350 C   0  0  2  0  0  0  0  0  0  0  0  0
  154.3988  136.7496  158.9403 C   0  0  0  0  0  0  0  0  0  0  0  0
  154.9425  135.4629  158.2964 C   0  0  0  0  0  0  0  0  0  0  0  0
  155.0459  134.3326  159.2686 N   0  3  1  0  0  0  0  0  0  0  0  0
  155.5243  133.0503  158.6426 C   0  0  2  0  0  0  0  0  0  0  0  0
  154.7406  132.6361  157.3711 C   0  0  0  0  0  0  0  0  0  0  0  0
  153.2908  132.2293  157.6954 C   0  0  0  0  0  0  0  0  0  0  0  0
  153.2569  131.1133  158.6737 N   0  3  2  0  0  0  0  0  0  0  0  0
  151.8814  130.6448  158.9493 C   0  0  0  0  0  0  0  0  0  0  0  0
  154.0088  131.4269  159.9147 C   0  0  0  0  0  0  0  0  0  0  0  0
  155.4605  131.8286  159.5934 C   0  0  0  0  0  0  0  0  0  0  0  0
  155.8480  134.7362  160.4634 C   0  0  0  0  0  0  0  0  0  0  0  0
  155.3138  136.0146  161.1312 C   0  0  0  0  0  0  0  0  0  0  0  0
  152.8489  142.0810  159.4061 C   0  0  0  0  0  0  0  0  0  0  0  0
  152.3000  143.3023  159.2276 N   0  3  0  0  0  0  0  0  0  0  0  0
  151.3161  146.1094  160.8082 H   0  0  0  0  0  0  0  0  0  0  0  0
  150.4647  145.3684  159.4488 H   0  0  0  0  0  0  0  0  0  0  0  0
  152.0809  146.0493  159.2173 H   0  0  0  0  0  0  0  0  0  0  0  0
  152.1845  144.4452  162.3920 H   0  0  0  0  0  0  0  0  0  0  0  0
  153.1969  142.2094  162.8035 H   0  0  0  0  0  0  0  0  0  0  0  0
  153.9082  140.1680  161.9705 H   0  0  0  0  0  0  0  0  0  0  0  0
  154.6506  138.3641  161.7787 H   0  0  0  0  0  0  0  0  0  0  0  0
  156.2687  137.3767  159.7785 H   0  0  0  0  0  0  0  0  0  0  0  0
  153.3673  136.5898  159.2583 H   0  0  0  0  0  0  0  0  0  0  0  0
  154.3726  137.5475  158.1969 H   0  0  0  0  0  0  0  0  0  0  0  0
  154.2623  135.2180  157.4840 H   0  0  0  0  0  0  0  0  0  0  0  0
  155.9207  135.6509  157.8509 H   0  0  0  0  0  0  0  0  0  0  0  0
  156.5667  133.2062  158.3596 H   0  0  0  0  0  0  0  0  0  0  0  0
  154.7667  133.3967  156.5933 H   0  0  0  0  0  0  0  0  0  0  0  0
  155.2422  131.7795  156.9181 H   0  0  0  0  0  0  0  0  0  0  0  0
  152.7351  133.0825  158.0874 H   0  0  0  0  0  0  0  0  0  0  0  0
  152.7876  131.9188  156.7787 H   0  0  0  0  0  0  0  0  0  0  0  0
  151.2841  131.4313  159.4125 H   0  0  0  0  0  0  0  0  0  0  0  0
  151.8939  129.7849  159.6199 H   0  0  0  0  0  0  0  0  0  0  0  0
  151.3874  130.3384  158.0265 H   0  0  0  0  0  0  0  0  0  0  0  0
  153.5049  132.2257  160.4613 H   0  0  0  0  0  0  0  0  0  0  0  0
  154.0103  130.5513  160.5652 H   0  0  0  0  0  0  0  0  0  0  0  0
  155.9493  130.9831  159.1067 H   0  0  0  0  0  0  0  0  0  0  0  0
  156.0331  131.9735  160.5070 H   0  0  0  0  0  0  0  0  0  0  0  0
  155.8304  133.9618  161.2266 H   0  0  0  0  0  0  0  0  0  0  0  0
  156.8904  134.8747  160.1721 H   0  0  0  0  0  0  0  0  0  0  0  0
  155.9514  136.2798  161.9758 H   0  0  0  0  0  0  0  0  0  0  0  0
  154.3208  135.8239  161.5414 H   0  0  0  0  0  0  0  0  0  0  0  0
  152.9678  141.5056  158.5009 H   0  0  0  0  0  0  0  0  0  0  0  0
  154.1082  134.1611  159.6016 H   0  0  0  0  0  0  0  0  0  0  0  0
  153.7368  130.3377  158.2387 H   0  0  0  0  0  0  0  0  0  0  0  0
  152.0559  143.5907  158.2798 H   0  0  0  0  0  0  0  0  0  0  0  0
  1  2  1  0  0  0  0
  1 25  1  0  0  0  0
  1 26  1  0  0  0  0
  1 27  1  0  0  0  0
  2 24  1  0  0  0  0
  2  3  2  0  0  0  0
  3  4  1  0  0  0  0
  3 28  1  0  0  0  0
  4  5  2  0  0  0  0
  4 29  1  0  0  0  0
  5  6  1  0  0  0  0
  5 23  1  0  0  0  0
  6  7  1  0  0  0  0
  6 30  1  0  0  0  0
  7  8  2  0  0  0  0
  7  9  1  0  0  0  0
  9 10  1  0  0  0  0
  9 31  1  0  0  0  0
 10 22  1  0  0  0  0
 10 11  1  0  0  0  0
 10 32  1  0  0  0  0
 11 12  1  0  0  0  0
 11 33  1  0  0  0  0
 11 34  1  0  0  0  0
 12 13  1  0  0  0  0
 12 35  1  0  0  0  0
 12 36  1  0  0  0  0
 13 14  1  0  0  0  0
 13 21  1  0  0  0  0
 13 54  1  0  0  0  0
 14 20  1  0  0  0  0
 14 15  1  0  0  0  0
 14 37  1  0  0  0  0
 15 16  1  0  0  0  0
 15 38  1  0  0  0  0
 15 39  1  0  0  0  0
 16 17  1  0  0  0  0
 16 40  1  0  0  0  0
 16 41  1  0  0  0  0
 17 18  1  0  0  0  0
 17 19  1  0  0  0  0
 17 55  1  0  0  0  0
 18 42  1  0  0  0  0
 18 43  1  0  0  0  0
 18 44  1  0  0  0  0
 19 20  1  0  0  0  0
 19 45  1  0  0  0  0
 19 46  1  0  0  0  0
 20 47  1  0  0  0  0
 20 48  1  0  0  0  0
 21 22  1  0  0  0  0
 21 49  1  0  0  0  0
 21 50  1  0  0  0  0
 22 51  1  0  0  0  0
 22 52  1  0  0  0  0
 23 24  2  0  0  0  0
 23 53  1  0  0  0  0
 24 56  1  0  0  0  0
M  CHG  1  13   1
M  CHG  1  17   1
M  CHG  1  24   1
M  END
> <s_m_source_file>
AV-unprocessed.smi

> <i_m_source_file_index>
2772

> <i_lp_mmshare_version>
43012

> <i_f3d_flags>
0

> <s_epik_input>
W0NIM11jMVtjSF1bY0hdYyhbY0hdbjEpW05IXUMoPU8pW05IXVtDSF0yW0NIMl1bQ0gyXU4oW0NIMl1bQ0gyXTIpW0NIXTNbQ0gyXVtDSDJdTihbQ0gzXSlbQ0gyXVtDSDJdMw==

> <s_epik_cmdline>
J2VwaWtfcHl0aG9uJywgJy1waCcsICc3LjAnLCAnLXRuJywgJzgnLCAnLW1hJywgJzIwMCcsICctbWV0YWxfYmluZGluZycsICctaW1hZScsICc8aW5maWxlLm1hZT4nLCAnLW9tYWUnLCAnPG91dGZpbGUubWFlPic=

> <r_epik_Ionization_Penalty>
2.34117

> <r_epik_Ionization_Penalty_Charging>
2.34115

> <r_epik_Ionization_Penalty_Neutral>
2.22786e-05

> <r_epik_State_Penalty>
2.43944

> <r_epik_Charging_Adjusted_Penalty>
4.78059

> <i_epik_Tot_Q>
3

> <i_epik_Tot_abs_Q>
3

> <r_epik_Metal_State_Penalty>
2.45906

> <b_epik_Metal_Only>
0

> <s_lp_Force_Field>
OPLS_2005

> <r_lp_Energy>
56.0688

> <b_lp_Chiralities_Consistent>
1

> <s_lp_Variant>
AV-unprocessed.smi:2772-11

> <Gold.Version>
5.8.1

> <Gold.Id.Protein>
6NUR|6NUR_protein|mol2

> <Gold.PLP.Fitness>
38.8743

> <Gold.PLP.PLP>
-36.3566

> <Gold.PLP.part.hbond>
-1.0000

> <Gold.PLP.part.metal>
0.0000

> <Gold.PLP.part.buried>
-6.5461

> <Gold.PLP.part.nonpolar>
-28.9395

> <Gold.PLP.part.repulsive>
0.2318

> <Gold.PLP.ligand.clash>
0.0000

> <Gold.PLP.ligand.torsion>
0.2554

> <Gold.PLP.Chemscore.Hbond>
1.0000

> <Gold.PLP.Chemscore.CHOScore>
0.0000

> <Gold.PLP.Chemscore.Metal>
0.0000

> <Gold.Chemscore.Hbonds>
donor molecule, donor type, donor heavy atom, donor atom, acceptor molecule, acceptor atom, score
      P1  H  7997  8008       L1     8  1.00

> <Gold.PLP.Chemscore.Internal.Correction>
0.0285

> <Gold.Rescore>
     Score         DG    S(hbond)    S(metal)    S(lipo)     H(rot)  DE(clash)    DE(int)     intcor
     14.83     -17.85       1.00        0.00     103.95       1.22       0.08       2.93       ----

> <Gold.Chemscore.Fitness>
14.8322

> <Gold.Chemscore.DG>
-17.8495

> <Gold.Chemscore.ZeroCoef>
-5.4800

> <Gold.Chemscore.Hbond>
0.9989

> <Gold.Chemscore.Metal>
0.0000

> <Gold.Chemscore.Lipo>
103.9487

> <Gold.Chemscore.Internal_Hbond>
0.0000

> <Gold.Chemscore.DEClash>
0.0841

> <Gold.Chemscore.DEInternal>
2.9331

> <Gold.Chemscore.Rot>
1.2222

> <Gold.Chemscore.Internal.Correction>
   9.000000E+99

> <Gold.Chemscore.Hbonds>
donor molecule, donor type, donor heavy atom, donor atom, acceptor molecule, acceptor atom, score
      P1  H  7997  8008       L1     8  0.99

> <Gold.Chemscore.Hbond.Weighted>
-3.3364

> <Gold.Chemscore.Metal.Weighted>
-0.0000

> <Gold.Chemscore.Lipo.Weighted>
-12.1620

> <Gold.Chemscore.Internal_Hbond.Weighted>
0.0000

> <Gold.Chemscore.DEClash.Weighted>
0.0841

> <Gold.Chemscore.DEInternal.Weighted>
2.9331

> <Gold.Chemscore.Rot.Weighted>
3.1289

> <Gold.Chemscore.Internal.Correction.Weighted>
   9.000000E+99

> <Gold.Protein.RotatedTorsions>
[ 6907 6896 6895 6894 ] final -105.96 input  -60.11 | X-H torsion
[ 7974 7965 7964 7962 ] final -103.23 input  175.53 | X-H torsion
[ 8008 7997 7996 7995 ] final -120.84 input   59.86 | X-H torsion
[ 10167 10162 10161 10158 ] final   87.86 input  -65.29 | X-H torsion
[ 10718 10713 10712 10709 ] final -161.80 input   66.30 | X-H torsion
[ 10763 10752 10751 10750 ] final  -55.69 input  -60.55 | X-H torsion
[ 11005 11000 10999 10996 ] final   42.75 input  -57.11 | X-H torsion

> <Gold.Protein.ActiveResidues>
 VAL166  LYS551  ARG553  GLY616  TRP617  ASP618  TYR619  PRO620  LYS621  CYS622 
 ASP623  PHE694  ASN695  SER759  ASP760  ASP761  ALA762  ILE779  LEU786  VAL792 
 PHE793  MET794  SER795  GLU796  ALA797  LYS798  CYS799  TRP800  GLU811  SER814 

> <Gold.Protein.RotatedAtoms>
  150.7364  134.0048  159.3649 H   0  0  0  0  0  0  0  0  0  0  0  0  # atno 6907 bound_to 6896
  151.8004  135.0708  160.0409 H   0  0  0  0  0  0  0  0  0  0  0  0  # atno 6908 bound_to 6896
  152.3144  133.5751  159.5739 H   0  0  0  0  0  0  0  0  0  0  0  0  # atno 6909 bound_to 6896
  145.2586  140.9262  143.3054 H   0  0  0  0  0  0  0  0  0  0  0  0  # atno 7974 bound_to 7965
  155.1383  140.0401  157.2792 H   0  0  0  0  0  0  0  0  0  0  0  0  # atno 8008 bound_to 7997
  154.6492  140.2565  155.7207 H   0  0  0  0  0  0  0  0  0  0  0  0  # atno 8009 bound_to 7997
  156.2569  140.2840  156.0918 H   0  0  0  0  0  0  0  0  0  0  0  0  # atno 8010 bound_to 7997
  139.8731  144.6482  150.8927 H   0  0  0  0  0  0  0  0  0  0  0  0  # atno 10167 bound_to 10162
  156.6014  130.8812  151.2915 H   0  0  0  0  0  0  0  0  0  0  0  0  # atno 10718 bound_to 10713
  154.1947  135.6421  153.5070 H   0  0  0  0  0  0  0  0  0  0  0  0  # atno 10763 bound_to 10752
  153.0026  135.5437  154.6378 H   0  0  0  0  0  0  0  0  0  0  0  0  # atno 10764 bound_to 10752
  154.5776  135.2922  155.0738 H   0  0  0  0  0  0  0  0  0  0  0  0  # atno 10765 bound_to 10752
  140.1709  134.4223  155.8258 H   0  0  0  0  0  0  0  0  0  0  0  0  # atno 11005 bound_to 11000
  144.9438  139.4159  143.6436 LP  0  0  0  0  0  0  0  0  0  0  0  0  # atno 17320 bound_to 7965
  146.3282  139.8412  142.8890 LP  0  0  0  0  0  0  0  0  0  0  0  0  # atno 17321 bound_to 7965
  140.7757  143.3647  151.1761 LP  0  0  0  0  0  0  0  0  0  0  0  0  # atno 17342 bound_to 10162
  139.7265  143.9140  152.3004 LP  0  0  0  0  0  0  0  0  0  0  0  0  # atno 17343 bound_to 10162
  157.7278  130.9648  150.1716 LP  0  0  0  0  0  0  0  0  0  0  0  0  # atno 17370 bound_to 10713
  156.2466  130.3696  149.8278 LP  0  0  0  0  0  0  0  0  0  0  0  0  # atno 17371 bound_to 10713
  141.2217  133.6956  156.7762 LP  0  0  0  0  0  0  0  0  0  0  0  0  # atno 17394 bound_to 11000
  140.2378  134.8636  157.3543 LP  0  0  0  0  0  0  0  0  0  0  0  0  # atno 17395 bound_to 11000

$$$$
