AV-unprocessed.smi:53|AV-procd|sdf|514|dock5
  -GOLD-   2262016383D 1   1.00000     0.00000
 Structure written by MMmdl.
 30 31  0  0  0  0  0  0  0  0  1 V2000
  150.9182  143.3870  157.5757 N   0  0  0  0  0  0  0  0  0  0  0  0
  151.1491  142.1274  157.1801 C   0  0  0  0  0  0  0  0  0  0  0  0
  150.3326  141.5229  156.1530 C   0  0  0  0  0  0  0  0  0  0  0  0
  150.6307  140.2519  155.8041 C   0  0  0  0  0  0  0  0  0  0  0  0
  151.6867  139.5510  156.3774 N   0  0  0  0  0  0  0  0  0  0  0  0
  152.0073  138.1099  156.0106 C   0  0  1  0  0  0  0  0  0  0  0  0
  151.6493  137.2591  157.0571 O   0  0  0  0  0  0  0  0  0  0  0  0
  150.3236  136.7877  156.8517 C   0  0  2  0  0  0  0  0  0  0  0  0
  150.0764  135.5326  157.7014 C   0  0  0  0  0  0  0  0  0  0  0  0
  150.9999  134.5241  157.3504 O   0  0  0  0  0  0  0  0  0  0  0  0
  150.3127  136.5246  155.3449 C   0  0  1  0  0  0  0  0  0  0  0  0
  148.9962  136.6225  154.8390 O   0  0  0  0  0  0  0  0  0  0  0  0
  151.1941  137.6383  154.7809 C   0  0  2  0  0  0  0  0  0  0  0  0
  152.0313  137.1249  153.7637 O   0  0  0  0  0  0  0  0  0  0  0  0
  152.4401  140.1610  157.4110 C   0  0  0  0  0  0  0  0  0  0  0  0
  153.3419  139.5611  157.9946 O   0  0  0  0  0  0  0  0  0  0  0  0
  152.1267  141.4500  157.7485 N   0  0  0  0  0  0  0  0  0  0  0  0
  153.0910  138.0943  155.8755 H   0  0  0  0  0  0  0  0  0  0  0  0
  149.6032  137.5720  157.0934 H   0  0  0  0  0  0  0  0  0  0  0  0
  150.7332  135.5406  155.1296 H   0  0  0  0  0  0  0  0  0  0  0  0
  150.5931  138.4589  154.3862 H   0  0  0  0  0  0  0  0  0  0  0  0
  151.4870  143.8049  158.2978 H   0  0  0  0  0  0  0  0  0  0  0  0
  150.1699  143.9155  157.1512 H   0  0  0  0  0  0  0  0  0  0  0  0
  149.5139  142.0344  155.6671 H   0  0  0  0  0  0  0  0  0  0  0  0
  150.0067  139.7982  155.0495 H   0  0  0  0  0  0  0  0  0  0  0  0
  150.2256  135.7597  158.7575 H   0  0  0  0  0  0  0  0  0  0  0  0
  149.0545  135.1698  157.5879 H   0  0  0  0  0  0  0  0  0  0  0  0
  150.8208  134.2474  156.4647 H   0  0  0  0  0  0  0  0  0  0  0  0
  149.0229  136.4732  153.9059 H   0  0  0  0  0  0  0  0  0  0  0  0
  151.4884  136.7338  153.0965 H   0  0  0  0  0  0  0  0  0  0  0  0
  1  2  1  0  0  0  0
  1 22  1  0  0  0  0
  1 23  1  0  0  0  0
  2 17  2  0  0  0  0
  2  3  1  0  0  0  0
  3  4  2  0  0  0  0
  3 24  1  0  0  0  0
  4  5  1  0  0  0  0
  4 25  1  0  0  0  0
  5  6  1  0  0  0  0
  5 15  1  0  0  0  0
  6 18  1  0  0  0  0
  6 13  1  0  0  0  0
  6  7  1  0  0  0  0
  7  8  1  0  0  0  0
  8 19  1  0  0  0  0
  8  9  1  0  0  0  0
  8 11  1  0  0  0  0
  9 10  1  0  0  0  0
  9 26  1  0  0  0  0
  9 27  1  0  0  0  0
 10 28  1  0  0  0  0
 11 20  1  0  0  0  0
 11 12  1  0  0  0  0
 11 13  1  0  0  0  0
 12 29  1  0  0  0  0
 13 21  1  0  0  0  0
 13 14  1  0  0  0  0
 14 30  1  0  0  0  0
 15 16  2  0  0  0  0
 15 17  1  0  0  0  0
M  END
> <s_m_source_file>
AV-unprocessed.smi

> <i_m_source_file_index>
53

> <i_lp_mmshare_version>
43012

> <i_f3d_flags>
0

> <s_epik_input>
W05IMl1jMVtjSF1bY0hdbihjKD1PKW4xKVtDQEBIXTJPW0NASF0oW0NIMl1bT0hdKVtDQEBIXShbT0hdKVtDQEBIXTJbT0hd

> <s_epik_cmdline>
J2VwaWtfcHl0aG9uJywgJy1waCcsICc3LjAnLCAnLXRuJywgJzgnLCAnLW1hJywgJzIwMCcsICctbWV0YWxfYmluZGluZycsICctaW1hZScsICc8aW5maWxlLm1hZT4nLCAnLW9tYWUnLCAnPG91dGZpbGUubWFlPic=

> <r_lp_tautomer_probability>
0.99996

> <r_epik_Ionization_Penalty>
0.00069087

> <r_epik_Ionization_Penalty_Charging>
2.61959e-08

> <r_epik_Ionization_Penalty_Neutral>
0.000690844

> <r_epik_State_Penalty>
1.15523e-05

> <r_epik_Charging_Adjusted_Penalty>
1.15785e-05

> <i_epik_Tot_Q>
0

> <i_epik_Tot_abs_Q>
0

> <r_epik_Metal_State_Penalty>
-0

> <b_epik_Metal_Only>
0

> <s_epik_Chemistry_Notes>
This compound contains an acetal/aminal-like group ( X-CH(R)-Y where X, Y are N, S, or O) that may be acid/base labile, releasing an aldehyde.

> <s_lp_Force_Field>
OPLS_2005

> <r_lp_Energy>
26.6068

> <b_lp_Chiralities_Consistent>
1

> <s_lp_Variant>
AV-unprocessed.smi:53-2

> <Gold.Version>
5.8.1

> <Gold.Id.Protein>
6NUR|6NUR_protein|mol2

> <Gold.PLP.Fitness>
40.5641

> <Gold.PLP.PLP>
-24.0960

> <Gold.PLP.part.hbond>
-6.0000

> <Gold.PLP.part.metal>
0.0000

> <Gold.PLP.part.buried>
-3.8929

> <Gold.PLP.part.nonpolar>
-15.8264

> <Gold.PLP.part.repulsive>
0.0204

> <Gold.PLP.ligand.clash>
0.0000

> <Gold.PLP.ligand.torsion>
0.1733

> <Gold.PLP.Chemscore.Hbond>
5.5920

> <Gold.PLP.Chemscore.CHOScore>
0.0000

> <Gold.PLP.Chemscore.Metal>
0.0000

> <Gold.Chemscore.Hbonds>
donor molecule, donor type, donor heavy atom, donor atom, acceptor molecule, acceptor atom, score
      L1  H     1    23       P1  8028  0.81
      L1  H    12    29       P1  7948  0.98
      L1  H    14    30       P1  7949  1.00
      P1  H  6896  6908       L1    10  0.03
      P1  H  7997  8010       L1    16  0.75
      P1  H 10752 10763       L1    14  0.88

> <Gold.PLP.Chemscore.Internal.Correction>
0.0387

> <Gold.Rescore>
     Score         DG    S(hbond)    S(metal)    S(lipo)     H(rot)  DE(clash)    DE(int)     intcor
     13.20     -14.10       4.41        0.00      28.84       3.71       0.34       0.56       ----

> <Gold.Chemscore.Fitness>
13.1962

> <Gold.Chemscore.DG>
-14.0998

> <Gold.Chemscore.ZeroCoef>
-5.4800

> <Gold.Chemscore.Hbond>
4.4138

> <Gold.Chemscore.Metal>
0.0000

> <Gold.Chemscore.Lipo>
28.8376

> <Gold.Chemscore.Internal_Hbond>
0.0000

> <Gold.Chemscore.DEClash>
0.3398

> <Gold.Chemscore.DEInternal>
0.5639

> <Gold.Chemscore.Rot>
3.7095

> <Gold.Chemscore.Internal.Correction>
   9.000000E+99

> <Gold.Chemscore.Hbonds>
donor molecule, donor type, donor heavy atom, donor atom, acceptor molecule, acceptor atom, score
      L1  H     1    23       P1  8028  0.76
      L1  H    12    29       P1  7948  0.91
      L1  H    14    30       P1  7949  0.88
      P1  H  7997  8010       L1    16  0.09
      P1  H 10752 10763       L1    14  0.16

> <Gold.Chemscore.Hbond.Weighted>
-14.7422

> <Gold.Chemscore.Metal.Weighted>
-0.0000

> <Gold.Chemscore.Lipo.Weighted>
-3.3740

> <Gold.Chemscore.Internal_Hbond.Weighted>
0.0000

> <Gold.Chemscore.DEClash.Weighted>
0.3398

> <Gold.Chemscore.DEInternal.Weighted>
0.5639

> <Gold.Chemscore.Rot.Weighted>
9.4964

> <Gold.Chemscore.Internal.Correction.Weighted>
   9.000000E+99

> <Gold.Protein.RotatedTorsions>
[ 6907 6896 6895 6894 ] final  132.96 input  -60.11 | X-H torsion
[ 7974 7965 7964 7962 ] final   71.26 input  175.53 | X-H torsion
[ 8008 7997 7996 7995 ] final   40.14 input   59.86 | X-H torsion
[ 10167 10162 10161 10158 ] final  146.31 input  -65.29 | X-H torsion
[ 10718 10713 10712 10709 ] final -115.03 input   66.30 | X-H torsion
[ 10763 10752 10751 10750 ] final   42.55 input  -60.55 | X-H torsion
[ 11005 11000 10999 10996 ] final   -8.80 input  -57.11 | X-H torsion

> <Gold.Protein.ActiveResidues>
 VAL166  LYS551  ARG553  GLY616  TRP617  ASP618  TYR619  PRO620  LYS621  CYS622 
 ASP623  PHE694  ASN695  SER759  ASP760  ASP761  ALA762  ILE779  LEU786  VAL792 
 PHE793  MET794  SER795  GLU796  ALA797  LYS798  CYS799  TRP800  GLU811  SER814 

> <Gold.Protein.RotatedAtoms>
  152.3269  133.5915  159.5782 H   0  0  0  0  0  0  0  0  0  0  0  0  # atno 6907 bound_to 6896
  150.7402  133.9926  159.3621 H   0  0  0  0  0  0  0  0  0  0  0  0  # atno 6908 bound_to 6896
  151.7805  135.0763  160.0424 H   0  0  0  0  0  0  0  0  0  0  0  0  # atno 6909 bound_to 6896
  145.7680  139.2830  143.1338 H   0  0  0  0  0  0  0  0  0  0  0  0  # atno 7974 bound_to 7965
  155.2482  140.3350  155.4285 H   0  0  0  0  0  0  0  0  0  0  0  0  # atno 8008 bound_to 7997
  156.2227  140.1816  156.7483 H   0  0  0  0  0  0  0  0  0  0  0  0  # atno 8009 bound_to 7997
  154.5850  140.0647  156.9143 H   0  0  0  0  0  0  0  0  0  0  0  0  # atno 8010 bound_to 7997
  139.4909  144.5838  151.6818 H   0  0  0  0  0  0  0  0  0  0  0  0  # atno 10167 bound_to 10162
  156.0869  130.6059  150.8853 H   0  0  0  0  0  0  0  0  0  0  0  0  # atno 10718 bound_to 10713
  152.9880  135.6128  154.2967 H   0  0  0  0  0  0  0  0  0  0  0  0  # atno 10763 bound_to 10752
  154.2690  135.2780  155.2748 H   0  0  0  0  0  0  0  0  0  0  0  0  # atno 10764 bound_to 10752
  154.5139  135.5833  153.6684 H   0  0  0  0  0  0  0  0  0  0  0  0  # atno 10765 bound_to 10752
  140.7274  133.8777  155.8866 H   0  0  0  0  0  0  0  0  0  0  0  0  # atno 11005 bound_to 11000
  146.0198  140.8358  142.9929 LP  0  0  0  0  0  0  0  0  0  0  0  0  # atno 17320 bound_to 7965
  144.6818  140.2612  143.7318 LP  0  0  0  0  0  0  0  0  0  0  0  0  # atno 17321 bound_to 7965
  140.5450  144.0518  150.6103 LP  0  0  0  0  0  0  0  0  0  0  0  0  # atno 17342 bound_to 10162
  140.3553  143.2939  152.0443 LP  0  0  0  0  0  0  0  0  0  0  0  0  # atno 17343 bound_to 10162
  157.6006  131.0941  150.8966 LP  0  0  0  0  0  0  0  0  0  0  0  0  # atno 17370 bound_to 10713
  156.9124  130.5285  149.5280 LP  0  0  0  0  0  0  0  0  0  0  0  0  # atno 17371 bound_to 10713
  140.9951  134.1226  157.4371 LP  0  0  0  0  0  0  0  0  0  0  0  0  # atno 17394 bound_to 11000
  139.8834  135.0052  156.6297 LP  0  0  0  0  0  0  0  0  0  0  0  0  # atno 17395 bound_to 11000

$$$$
