AV-unprocessed.smi:2908|AV-procd|sdf|11167|dock5
  -GOLD-   2272016 53D 1   1.00000     0.00000
 Structure written by MMmdl.
 43 44  0  0  0  0  0  0  0  0  1 V2000
  151.8252  137.1059  159.4278 O   0  0  0  0  0  0  0  0  0  0  0  0
  151.2133  137.8015  158.6157 C   0  0  0  0  0  0  0  0  0  0  0  0
  149.9770  137.4846  158.1977 N   0  0  0  0  0  0  0  0  0  0  0  0
  149.2214  136.3276  158.6576 C   0  0  0  0  0  0  0  0  0  0  0  0
  147.8827  136.7599  159.2716 C   0  0  0  0  0  0  0  0  0  0  0  0
  147.4817  135.8847  160.4446 C   0  0  0  0  0  0  0  0  0  0  0  0
  147.7881  136.2675  161.7680 C   0  0  0  0  0  0  0  0  0  0  0  0
  147.3813  135.4252  162.8208 C   0  0  0  0  0  0  0  0  0  0  0  0
  146.6873  134.2396  162.5119 C   0  0  0  0  0  0  0  0  0  0  0  0
  146.4305  133.9472  161.1577 C   0  0  0  0  0  0  0  0  0  0  0  0
  146.8164  134.7474  160.1407 N   0  0  0  0  0  0  0  0  0  0  0  0
  151.7361  138.9191  158.0505 N   0  0  0  0  0  0  0  0  0  0  0  0
  151.1652  139.6786  156.9274 C   0  0  0  0  0  0  0  0  0  0  0  0
  150.5491  140.9780  157.4743 C   0  0  0  0  0  0  0  0  0  0  0  0
  151.5888  141.8333  158.2441 C   0  0  0  0  0  0  0  0  0  0  0  0
  150.9328  143.0967  158.8657 C   0  0  2  0  0  0  0  0  0  0  0  0
  150.0266  143.6404  157.9231 O   0  0  0  0  0  0  0  0  0  0  0  0
  151.9056  144.2270  159.2765 C   0  0  0  0  0  0  0  0  0  0  0  0
  151.2270  145.2118  159.8672 F   0  0  0  0  0  0  0  0  0  0  0  0
  152.7969  143.7829  160.1620 F   0  0  0  0  0  0  0  0  0  0  0  0
  152.5524  144.7117  158.2162 F   0  0  0  0  0  0  0  0  0  0  0  0
  152.3317  140.9527  159.2796 C   0  0  0  0  0  0  0  0  0  0  0  0
  152.8563  139.6464  158.6557 C   0  0  0  0  0  0  0  0  0  0  0  0
  149.5322  138.0889  157.5224 H   0  0  0  0  0  0  0  0  0  0  0  0
  149.0459  135.6513  157.8193 H   0  0  0  0  0  0  0  0  0  0  0  0
  149.8141  135.7826  159.3942 H   0  0  0  0  0  0  0  0  0  0  0  0
  147.9412  137.7961  159.6078 H   0  0  0  0  0  0  0  0  0  0  0  0
  147.0976  136.7264  158.5149 H   0  0  0  0  0  0  0  0  0  0  0  0
  148.3190  137.1852  161.9739 H   0  0  0  0  0  0  0  0  0  0  0  0
  147.5967  135.6850  163.8468 H   0  0  0  0  0  0  0  0  0  0  0  0
  146.3593  133.5706  163.2937 H   0  0  0  0  0  0  0  0  0  0  0  0
  145.9003  133.0470  160.8842 H   0  0  0  0  0  0  0  0  0  0  0  0
  151.9562  139.9137  156.2140 H   0  0  0  0  0  0  0  0  0  0  0  0
  150.4176  139.1292  156.3554 H   0  0  0  0  0  0  0  0  0  0  0  0
  150.1277  141.5468  156.6450 H   0  0  0  0  0  0  0  0  0  0  0  0
  149.7146  140.7309  158.1322 H   0  0  0  0  0  0  0  0  0  0  0  0
  152.3333  142.1669  157.5195 H   0  0  0  0  0  0  0  0  0  0  0  0
  150.3515  142.8060  159.7416 H   0  0  0  0  0  0  0  0  0  0  0  0
  150.3859  144.4515  157.5970 H   0  0  0  0  0  0  0  0  0  0  0  0
  153.1799  141.4937  159.6975 H   0  0  0  0  0  0  0  0  0  0  0  0
  151.6667  140.7169  160.1116 H   0  0  0  0  0  0  0  0  0  0  0  0
  153.3810  139.0583  159.4101 H   0  0  0  0  0  0  0  0  0  0  0  0
  153.6001  139.8692  157.8894 H   0  0  0  0  0  0  0  0  0  0  0  0
  1  2  2  0  0  0  0
  2  3  1  0  0  0  0
  2 12  1  0  0  0  0
  3  4  1  0  0  0  0
  3 24  1  0  0  0  0
  4  5  1  0  0  0  0
  4 25  1  0  0  0  0
  4 26  1  0  0  0  0
  5  6  1  0  0  0  0
  5 27  1  0  0  0  0
  5 28  1  0  0  0  0
  6 11  1  0  0  0  0
  6  7  2  0  0  0  0
  7  8  1  0  0  0  0
  7 29  1  0  0  0  0
  8  9  2  0  0  0  0
  8 30  1  0  0  0  0
  9 10  1  0  0  0  0
  9 31  1  0  0  0  0
 10 11  2  0  0  0  0
 10 32  1  0  0  0  0
 12 23  1  0  0  0  0
 12 13  1  0  0  0  0
 13 14  1  0  0  0  0
 13 33  1  0  0  0  0
 13 34  1  0  0  0  0
 14 15  1  0  0  0  0
 14 35  1  0  0  0  0
 14 36  1  0  0  0  0
 15 16  1  0  0  0  0
 15 22  1  0  0  0  0
 15 37  1  0  0  0  0
 16 17  1  0  0  0  0
 16 18  1  0  0  0  0
 16 38  1  0  0  0  0
 17 39  1  0  0  0  0
 18 19  1  0  0  0  0
 18 20  1  0  0  0  0
 18 21  1  0  0  0  0
 22 23  1  0  0  0  0
 22 40  1  0  0  0  0
 22 41  1  0  0  0  0
 23 42  1  0  0  0  0
 23 43  1  0  0  0  0
M  END
> <s_m_source_file>
AV-unprocessed.smi

> <i_m_source_file_index>
2908

> <i_lp_mmshare_version>
43012

> <i_f3d_flags>
0

> <s_epik_input>
RkMoRikoRilbQ0BASF0oW09IXSlbQ0hdKFtDSDJdW0NIMl0xKVtDSDJdW0NIMl1OMUMoPU8pW05IXVtDSDJdW0NIMl1jMltjSF1bY0hdW2NIXVtjSF1uMg==

> <s_epik_cmdline>
J2VwaWtfcHl0aG9uJywgJy1waCcsICc3LjAnLCAnLXRuJywgJzgnLCAnLW1hJywgJzIwMCcsICctbWV0YWxfYmluZGluZycsICctaW1hZScsICc8aW5maWxlLm1hZT4nLCAnLW9tYWUnLCAnPG91dGZpbGUubWFlPic=

> <r_epik_Ionization_Penalty>
0.0451198

> <r_epik_Ionization_Penalty_Charging>
0

> <r_epik_Ionization_Penalty_Neutral>
0.0451198

> <r_epik_State_Penalty>
0.0381178

> <r_epik_Charging_Adjusted_Penalty>
0.0381178

> <i_epik_Tot_Q>
0

> <i_epik_Tot_abs_Q>
0

> <r_epik_Metal_State_Penalty>
0.0354176

> <b_epik_Metal_Only>
0

> <s_lp_Force_Field>
OPLS_2005

> <r_lp_Energy>
35.4637

> <b_lp_Chiralities_Consistent>
1

> <s_lp_Variant>
AV-unprocessed.smi:2908-1

> <Gold.Version>
5.8.1

> <Gold.Id.Protein>
6NUR|6NUR_protein|mol2

> <Gold.PLP.Fitness>
52.8870

> <Gold.PLP.PLP>
-51.4016

> <Gold.PLP.part.hbond>
-2.4651

> <Gold.PLP.part.metal>
0.0000

> <Gold.PLP.part.buried>
-7.2926

> <Gold.PLP.part.nonpolar>
-42.2599

> <Gold.PLP.part.repulsive>
0.1147

> <Gold.PLP.ligand.clash>
0.0000

> <Gold.PLP.ligand.torsion>
0.9622

> <Gold.PLP.Chemscore.Hbond>
1.0000

> <Gold.PLP.Chemscore.CHOScore>
0.0000

> <Gold.PLP.Chemscore.Metal>
0.0000

> <Gold.Chemscore.Hbonds>
donor molecule, donor type, donor heavy atom, donor atom, acceptor molecule, acceptor atom, score
      P1  H  6896  6907       L1     1  1.00

> <Gold.PLP.Chemscore.Internal.Correction>
0.4098

> <Gold.Rescore>
     Score         DG    S(hbond)    S(metal)    S(lipo)     H(rot)  DE(clash)    DE(int)     intcor
     12.60     -13.75       0.98        0.00      93.24       2.30       0.01       1.14       ----

> <Gold.Chemscore.Fitness>
12.6037

> <Gold.Chemscore.DG>
-13.7543

> <Gold.Chemscore.ZeroCoef>
-5.4800

> <Gold.Chemscore.Hbond>
0.9778

> <Gold.Chemscore.Metal>
0.0000

> <Gold.Chemscore.Lipo>
93.2373

> <Gold.Chemscore.Internal_Hbond>
0.0000

> <Gold.Chemscore.DEClash>
0.0121

> <Gold.Chemscore.DEInternal>
1.1385

> <Gold.Chemscore.Rot>
2.3048

> <Gold.Chemscore.Internal.Correction>
   9.000000E+99

> <Gold.Chemscore.Hbonds>
donor molecule, donor type, donor heavy atom, donor atom, acceptor molecule, acceptor atom, score
      P1  H  6896  6907       L1     1  0.93

> <Gold.Chemscore.Hbond.Weighted>
-3.2659

> <Gold.Chemscore.Metal.Weighted>
-0.0000

> <Gold.Chemscore.Lipo.Weighted>
-10.9088

> <Gold.Chemscore.Internal_Hbond.Weighted>
0.0000

> <Gold.Chemscore.DEClash.Weighted>
0.0121

> <Gold.Chemscore.DEInternal.Weighted>
1.1385

> <Gold.Chemscore.Rot.Weighted>
5.9004

> <Gold.Chemscore.Internal.Correction.Weighted>
   9.000000E+99

> <Gold.Protein.RotatedTorsions>
[ 6907 6896 6895 6894 ] final    4.85 input  -60.11 | X-H torsion
[ 7974 7965 7964 7962 ] final  -17.56 input  175.53 | X-H torsion
[ 8008 7997 7996 7995 ] final   30.04 input   59.86 | X-H torsion
[ 10167 10162 10161 10158 ] final -159.61 input  -65.29 | X-H torsion
[ 10718 10713 10712 10709 ] final  -42.84 input   66.30 | X-H torsion
[ 10763 10752 10751 10750 ] final   56.18 input  -60.55 | X-H torsion
[ 11005 11000 10999 10996 ] final  -86.63 input  -57.11 | X-H torsion

> <Gold.Protein.ActiveResidues>
 VAL166  LYS551  ARG553  GLY616  TRP617  ASP618  TYR619  PRO620  LYS621  CYS622 
 ASP623  PHE694  ASN695  SER759  ASP760  ASP761  ALA762  ILE779  LEU786  VAL792 
 PHE793  MET794  SER795  GLU796  ALA797  LYS798  CYS799  TRP800  GLU811  SER814 

> <Gold.Protein.RotatedAtoms>
  151.6481  135.1005  160.0154 H   0  0  0  0  0  0  0  0  0  0  0  0  # atno 6907 bound_to 6896
  152.4016  133.6823  159.6330 H   0  0  0  0  0  0  0  0  0  0  0  0  # atno 6908 bound_to 6896
  150.7916  133.8697  159.3296 H   0  0  0  0  0  0  0  0  0  0  0  0  # atno 6909 bound_to 6896
  146.1935  140.3796  142.8449 H   0  0  0  0  0  0  0  0  0  0  0  0  # atno 7974 bound_to 7965
  155.0840  140.3213  155.4593 H   0  0  0  0  0  0  0  0  0  0  0  0  # atno 8008 bound_to 7997
  156.2760  140.2089  156.5914 H   0  0  0  0  0  0  0  0  0  0  0  0  # atno 8009 bound_to 7997
  154.6956  140.0512  157.0394 H   0  0  0  0  0  0  0  0  0  0  0  0  # atno 8010 bound_to 7997
  139.6602  143.9926  152.2220 H   0  0  0  0  0  0  0  0  0  0  0  0  # atno 10167 bound_to 10162
  156.2554  130.4192  149.8602 H   0  0  0  0  0  0  0  0  0  0  0  0  # atno 10718 bound_to 10713
  152.9828  135.5685  154.5187 H   0  0  0  0  0  0  0  0  0  0  0  0  # atno 10763 bound_to 10752
  154.4679  135.2784  155.1667 H   0  0  0  0  0  0  0  0  0  0  0  0  # atno 10764 bound_to 10752
  154.3227  135.6265  153.5568 H   0  0  0  0  0  0  0  0  0  0  0  0  # atno 10765 bound_to 10752
  141.1627  133.7465  156.9189 H   0  0  0  0  0  0  0  0  0  0  0  0  # atno 11005 bound_to 11000
  144.8533  140.7034  143.6154 LP  0  0  0  0  0  0  0  0  0  0  0  0  # atno 17320 bound_to 7965
  145.3718  139.1657  143.4328 LP  0  0  0  0  0  0  0  0  0  0  0  0  # atno 17321 bound_to 7965
  139.9663  144.6524  150.8031 LP  0  0  0  0  0  0  0  0  0  0  0  0  # atno 17342 bound_to 10162
  140.7576  143.3091  151.2889 LP  0  0  0  0  0  0  0  0  0  0  0  0  # atno 17343 bound_to 10162
  156.6137  130.8597  151.3460 LP  0  0  0  0  0  0  0  0  0  0  0  0  # atno 17370 bound_to 10713
  157.7230  130.9584  150.1518 LP  0  0  0  0  0  0  0  0  0  0  0  0  # atno 17371 bound_to 10713
  140.1465  134.9259  157.2536 LP  0  0  0  0  0  0  0  0  0  0  0  0  # atno 17394 bound_to 11000
  140.2774  134.3390  155.7354 LP  0  0  0  0  0  0  0  0  0  0  0  0  # atno 17395 bound_to 11000

$$$$
