AV-unprocessed.smi:99|AV-procd|sdf|888|dock2
  -GOLD-   2262017373D 1   1.00000     0.00000
 Structure written by MMmdl.
 52 55  0  0  0  0  0  0  0  0  2 V2000
  152.0732  137.4445  154.5763 O   0  0  0  0  0  0  0  0  0  0  0  0
  151.0491  137.6810  155.2201 C   0  0  0  0  0  0  0  0  0  0  0  0
  150.1232  136.7491  155.5227 O   0  0  0  0  0  0  0  0  0  0  0  0
  150.2631  135.4216  155.0397 C   0  0  0  0  0  0  0  0  0  0  0  0
  150.5215  134.4567  156.2138 C   0  0  1  0  0  0  0  0  0  0  0  0
  150.0889  135.0938  157.4100 O   0  0  0  0  0  0  0  0  0  0  0  0
  148.8013  134.6549  157.7106 C   0  0  2  0  0  0  0  0  0  0  0  0
  148.4285  135.0736  159.1258 N   0  0  0  0  0  0  0  0  0  0  0  0
  147.7118  134.2384  159.9710 C   0  0  0  0  0  0  0  0  0  0  0  0
  147.3461  134.6265  161.2099 C   0  0  0  0  0  0  0  0  0  0  0  0
  147.6910  135.9667  161.6710 C   0  0  0  0  0  0  0  0  0  0  0  0
  147.3989  136.2966  162.8188 O   0  0  0  0  0  0  0  0  0  0  0  0
  148.3189  136.8018  160.7952 N   0  5  0  0  0  0  0  0  0  0  0  0
  148.6697  136.4179  159.5329 C   0  0  0  0  0  0  0  0  0  0  0  0
  149.1780  137.1921  158.7216 O   0  0  0  0  0  0  0  0  0  0  0  0
  148.8885  133.1433  157.4363 C   0  0  2  0  0  0  0  0  0  0  0  0
  149.5386  132.4030  158.4546 O   0  0  0  0  0  0  0  0  0  0  0  0
  149.7606  133.1083  156.1858 C   0  0  1  0  0  0  0  0  0  0  0  0
  148.9264  132.9699  155.0372 O   0  0  0  0  0  0  0  0  0  0  0  0
  148.4917  131.7571  154.6237 C   0  0  0  0  0  0  0  0  0  0  0  0
  148.8235  130.6908  155.1450 O   0  0  0  0  0  0  0  0  0  0  0  0
  147.6003  131.8416  153.4315 C   0  0  0  0  0  0  0  0  0  0  0  0
  147.5922  133.0244  152.6558 C   0  0  0  0  0  0  0  0  0  0  0  0
  146.7313  133.1503  151.5487 C   0  0  0  0  0  0  0  0  0  0  0  0
  145.8689  132.0940  151.2023 C   0  0  0  0  0  0  0  0  0  0  0  0
  145.8708  130.9102  151.9630 C   0  0  0  0  0  0  0  0  0  0  0  0
  146.7317  130.7821  153.0701 C   0  0  0  0  0  0  0  0  0  0  0  0
  150.7280  139.0204  155.7910 C   0  0  0  0  0  0  0  0  0  0  0  0
  149.4763  139.2237  156.4173 C   0  0  0  0  0  0  0  0  0  0  0  0
  149.1289  140.4877  156.9317 C   0  0  0  0  0  0  0  0  0  0  0  0
  150.0301  141.5632  156.8281 C   0  0  0  0  0  0  0  0  0  0  0  0
  151.2801  141.3728  156.2110 C   0  0  0  0  0  0  0  0  0  0  0  0
  151.6291  140.1095  155.6957 C   0  0  0  0  0  0  0  0  0  0  0  0
  149.3505  135.1390  154.5143 H   0  0  0  0  0  0  0  0  0  0  0  0
  151.0821  135.3549  154.3217 H   0  0  0  0  0  0  0  0  0  0  0  0
  151.5938  134.2779  156.2995 H   0  0  0  0  0  0  0  0  0  0  0  0
  148.0684  135.1535  157.0730 H   0  0  0  0  0  0  0  0  0  0  0  0
  147.4068  133.2569  159.6443 H   0  0  0  0  0  0  0  0  0  0  0  0
  146.7843  133.9597  161.8475 H   0  0  0  0  0  0  0  0  0  0  0  0
  147.8918  132.7303  157.2741 H   0  0  0  0  0  0  0  0  0  0  0  0
  149.4569  131.4838  158.2505 H   0  0  0  0  0  0  0  0  0  0  0  0
  150.4726  132.2848  156.2569 H   0  0  0  0  0  0  0  0  0  0  0  0
  148.2372  133.8534  152.9089 H   0  0  0  0  0  0  0  0  0  0  0  0
  146.7298  134.0608  150.9677 H   0  0  0  0  0  0  0  0  0  0  0  0
  145.2060  132.1922  150.3552 H   0  0  0  0  0  0  0  0  0  0  0  0
  145.2074  130.0995  151.6999 H   0  0  0  0  0  0  0  0  0  0  0  0
  146.7005  129.8639  153.6382 H   0  0  0  0  0  0  0  0  0  0  0  0
  148.7642  138.4152  156.4995 H   0  0  0  0  0  0  0  0  0  0  0  0
  148.1681  140.6325  157.4031 H   0  0  0  0  0  0  0  0  0  0  0  0
  149.7625  142.5332  157.2205 H   0  0  0  0  0  0  0  0  0  0  0  0
  151.9720  142.1978  156.1290 H   0  0  0  0  0  0  0  0  0  0  0  0
  152.5928  139.9995  155.2205 H   0  0  0  0  0  0  0  0  0  0  0  0
  1  2  2  0  0  0  0
  2  3  1  0  0  0  0
  2 28  1  0  0  0  0
  3  4  1  0  0  0  0
  4  5  1  0  0  0  0
  4 34  1  0  0  0  0
  4 35  1  0  0  0  0
  5 18  1  0  0  0  0
  5  6  1  0  0  0  0
  5 36  1  0  0  0  0
  6  7  1  0  0  0  0
  7  8  1  0  0  0  0
  7 16  1  0  0  0  0
  7 37  1  0  0  0  0
  8 14  1  0  0  0  0
  8  9  1  0  0  0  0
  9 10  2  0  0  0  0
  9 38  1  0  0  0  0
 10 11  1  0  0  0  0
 10 39  1  0  0  0  0
 11 12  2  0  0  0  0
 11 13  1  0  0  0  0
 13 14  1  0  0  0  0
 14 15  2  0  0  0  0
 16 17  1  0  0  0  0
 16 18  1  0  0  0  0
 16 40  1  0  0  0  0
 17 41  1  0  0  0  0
 18 19  1  0  0  0  0
 18 42  1  0  0  0  0
 19 20  1  0  0  0  0
 20 21  2  0  0  0  0
 20 22  1  0  0  0  0
 22 27  1  0  0  0  0
 22 23  2  0  0  0  0
 23 24  1  0  0  0  0
 23 43  1  0  0  0  0
 24 25  2  0  0  0  0
 24 44  1  0  0  0  0
 25 26  1  0  0  0  0
 25 45  1  0  0  0  0
 26 27  2  0  0  0  0
 26 46  1  0  0  0  0
 27 47  1  0  0  0  0
 28 33  1  0  0  0  0
 28 29  2  0  0  0  0
 29 30  1  0  0  0  0
 29 48  1  0  0  0  0
 30 31  2  0  0  0  0
 30 49  1  0  0  0  0
 31 32  1  0  0  0  0
 31 50  1  0  0  0  0
 32 33  2  0  0  0  0
 32 51  1  0  0  0  0
 33 52  1  0  0  0  0
M  CHG  1  13  -1
M  END
> <s_m_source_file>
AV-unprocessed.smi

> <i_m_source_file_index>
99

> <i_lp_mmshare_version>
43012

> <i_f3d_flags>
0

> <s_epik_input>
W2NIXTFbY0hdW2NIXVtjSF1bY0hdYzFDKD1PKU9bQ0gyXVtDQEBIXTJPW0NAQEhdKG4zW2NIXVtjSF1jKD1PKVtuSF1jMz1PKVtDQEBIXShbT0hdKVtDQEhdMk9DKD1PKWM0W2NIXVtjSF1bY0hdW2NIXVtjSF00

> <s_epik_cmdline>
J2VwaWtfcHl0aG9uJywgJy1waCcsICc3LjAnLCAnLXRuJywgJzgnLCAnLW1hJywgJzIwMCcsICctbWV0YWxfYmluZGluZycsICctaW1hZScsICc8aW5maWxlLm1hZT4nLCAnLW9tYWUnLCAnPG91dGZpbGUubWFlPic=

> <r_lp_tautomer_probability>
1

> <r_epik_Ionization_Penalty>
2.89159

> <r_epik_Ionization_Penalty_Charging>
2.1077e-08

> <r_epik_Ionization_Penalty_Neutral>
2.89159

> <r_epik_State_Penalty>
2.88671

> <r_epik_Charging_Adjusted_Penalty>
2.88671

> <i_epik_Tot_Q>
-1

> <i_epik_Tot_abs_Q>
1

> <r_epik_Metal_State_Penalty>
0.0727308

> <b_epik_Metal_Only>
1

> <s_epik_Chemistry_Notes>
This compound has an ester and may undergo hydrolysis at high or low pH. This compound contains an acetal/aminal-like group ( X-CH(R)-Y where X, Y are N, S, or O) that may be acid/base labile, releasing an aldehyde.

> <s_lp_Force_Field>
OPLS_2005

> <r_lp_Energy>
52.0393

> <b_lp_Chiralities_Consistent>
1

> <s_lp_Variant>
AV-unprocessed.smi:99-24

> <Gold.Version>
5.8.1

> <Gold.Id.Protein>
6NUR|6NUR_protein|mol2

> <Gold.PLP.Fitness>
55.6586

> <Gold.PLP.PLP>
-47.4494

> <Gold.PLP.part.hbond>
-4.0592

> <Gold.PLP.part.metal>
0.0000

> <Gold.PLP.part.buried>
-8.7609

> <Gold.PLP.part.nonpolar>
-36.4097

> <Gold.PLP.part.repulsive>
0.2529

> <Gold.PLP.ligand.clash>
0.0000

> <Gold.PLP.ligand.torsion>
1.8528

> <Gold.PLP.Chemscore.Hbond>
3.8320

> <Gold.PLP.Chemscore.CHOScore>
0.0000

> <Gold.PLP.Chemscore.Metal>
0.0000

> <Gold.Chemscore.Hbonds>
donor molecule, donor type, donor heavy atom, donor atom, acceptor molecule, acceptor atom, score
      P1  H  6896  6907       L1    17  0.99
      P1  H  6931  6943       L1    13  2.00
      P1  H 10752 10765       L1     1  0.85

> <Gold.PLP.Chemscore.Internal.Correction>
0.4189

> <Gold.Rescore>
     Score         DG    S(hbond)    S(metal)    S(lipo)     H(rot)  DE(clash)    DE(int)     intcor
     11.76     -16.21       2.10        0.00     100.35       3.13       0.00       4.45       ----

> <Gold.Chemscore.Fitness>
11.7606

> <Gold.Chemscore.DG>
-16.2127

> <Gold.Chemscore.ZeroCoef>
-5.4800

> <Gold.Chemscore.Hbond>
2.1007

> <Gold.Chemscore.Metal>
0.0000

> <Gold.Chemscore.Lipo>
100.3492

> <Gold.Chemscore.Internal_Hbond>
0.0000

> <Gold.Chemscore.DEClash>
0.0048

> <Gold.Chemscore.DEInternal>
4.4473

> <Gold.Chemscore.Rot>
3.1346

> <Gold.Chemscore.Internal.Correction>
   9.000000E+99

> <Gold.Chemscore.Hbonds>
donor molecule, donor type, donor heavy atom, donor atom, acceptor molecule, acceptor atom, score
      P1  H  6896  6907       L1    17  0.70
      P1  H  6931  6943       L1    13  0.47
      P1  H  6934  6947       L1    13  0.01
      P1  H 10752 10765       L1     1  0.80

> <Gold.Chemscore.Hbond.Weighted>
-7.0164

> <Gold.Chemscore.Metal.Weighted>
-0.0000

> <Gold.Chemscore.Lipo.Weighted>
-11.7409

> <Gold.Chemscore.Internal_Hbond.Weighted>
0.0000

> <Gold.Chemscore.DEClash.Weighted>
0.0048

> <Gold.Chemscore.DEInternal.Weighted>
4.4473

> <Gold.Chemscore.Rot.Weighted>
8.0246

> <Gold.Chemscore.Internal.Correction.Weighted>
   9.000000E+99

> <Gold.Protein.RotatedTorsions>
[ 6907 6896 6895 6894 ] final -146.61 input  -60.11 | X-H torsion
[ 7974 7965 7964 7962 ] final   41.79 input  175.53 | X-H torsion
[ 8008 7997 7996 7995 ] final   98.30 input   59.86 | X-H torsion
[ 10167 10162 10161 10158 ] final  -86.87 input  -65.29 | X-H torsion
[ 10718 10713 10712 10709 ] final  -99.79 input   66.30 | X-H torsion
[ 10763 10752 10751 10750 ] final  162.44 input  -60.55 | X-H torsion
[ 11005 11000 10999 10996 ] final  134.64 input  -57.11 | X-H torsion

> <Gold.Protein.ActiveResidues>
 VAL166  LYS551  ARG553  GLY616  TRP617  ASP618  TYR619  PRO620  LYS621  CYS622 
 ASP623  PHE694  ASN695  SER759  ASP760  ASP761  ALA762  ILE779  LEU786  VAL792 
 PHE793  MET794  SER795  GLU796  ALA797  LYS798  CYS799  TRP800  GLU811  SER814 

> <Gold.Protein.RotatedAtoms>
  151.1440  133.4952  159.2596 H   0  0  0  0  0  0  0  0  0  0  0  0  # atno 6907 bound_to 6896
  151.1624  135.0279  159.8726 H   0  0  0  0  0  0  0  0  0  0  0  0  # atno 6908 bound_to 6896
  152.5463  134.1313  159.8493 H   0  0  0  0  0  0  0  0  0  0  0  0  # atno 6909 bound_to 6896
  146.0794  139.5374  142.9547 H   0  0  0  0  0  0  0  0  0  0  0  0  # atno 7974 bound_to 7965
  156.0990  140.3246  155.7916 H   0  0  0  0  0  0  0  0  0  0  0  0  # atno 8008 bound_to 7997
  155.4869  140.0558  157.2976 H   0  0  0  0  0  0  0  0  0  0  0  0  # atno 8009 bound_to 7997
  154.4684  140.2000  156.0072 H   0  0  0  0  0  0  0  0  0  0  0  0  # atno 8010 bound_to 7997
  140.3900  143.2709  151.9276 H   0  0  0  0  0  0  0  0  0  0  0  0  # atno 10167 bound_to 10162
  156.0144  130.5298  150.6722 H   0  0  0  0  0  0  0  0  0  0  0  0  # atno 10718 bound_to 10713
  154.2783  135.2764  155.2708 H   0  0  0  0  0  0  0  0  0  0  0  0  # atno 10763 bound_to 10752
  154.5240  135.5748  153.6708 H   0  0  0  0  0  0  0  0  0  0  0  0  # atno 10764 bound_to 10752
  152.9933  135.6211  154.2941 H   0  0  0  0  0  0  0  0  0  0  0  0  # atno 10765 bound_to 10752
  139.9928  134.9509  156.9895 H   0  0  0  0  0  0  0  0  0  0  0  0  # atno 11005 bound_to 11000
  145.6246  141.0316  143.1896 LP  0  0  0  0  0  0  0  0  0  0  0  0  # atno 17320 bound_to 7965
  144.7283  139.7805  143.7357 LP  0  0  0  0  0  0  0  0  0  0  0  0  # atno 17321 bound_to 7965
  139.4789  144.5737  151.8047 LP  0  0  0  0  0  0  0  0  0  0  0  0  # atno 17342 bound_to 10162
  140.4850  144.1395  150.5939 LP  0  0  0  0  0  0  0  0  0  0  0  0  # atno 17343 bound_to 10162
  157.4442  131.0865  151.0912 LP  0  0  0  0  0  0  0  0  0  0  0  0  # atno 17370 bound_to 10713
  157.1447  130.6158  149.5565 LP  0  0  0  0  0  0  0  0  0  0  0  0  # atno 17371 bound_to 10713
  140.4876  134.1226  155.7227 LP  0  0  0  0  0  0  0  0  0  0  0  0  # atno 17394 bound_to 11000
  141.1580  133.8847  157.1926 LP  0  0  0  0  0  0  0  0  0  0  0  0  # atno 17395 bound_to 11000

$$$$
