AV-unprocessed.smi:2635|AV-procd|sdf|10256|dock9
  -GOLD-   2272014263D 1   1.00000     0.00000
 Structure written by MMmdl.
 31 32  0  0  0  0  0  0  0  0  2 V2000
  152.3375  138.2836  155.8140 C   0  0  0  0  0  0  0  0  0  0  0  0
  152.7379  137.9452  157.2385 C   0  0  0  0  0  0  0  0  0  0  0  0
  153.0600  138.8878  158.1484 C   0  0  0  0  0  0  0  0  0  0  0  0
  153.4296  138.5629  159.4640 N   0  0  0  0  0  0  0  0  0  0  0  0
  153.8031  139.6354  160.3702 C   0  0  0  0  0  0  0  0  0  0  0  0
  153.0290  140.7555  160.0893 O   0  0  0  0  0  0  0  0  0  0  0  0
  153.3844  141.8834  160.8719 C   0  0  0  0  0  0  0  0  0  0  0  0
  152.7476  143.1536  160.3435 C   0  0  0  0  0  0  0  0  0  0  0  0
  152.8703  143.4887  158.9785 C   0  0  0  0  0  0  0  0  0  0  0  0
  152.2926  144.6753  158.4860 C   0  0  0  0  0  0  0  0  0  0  0  0
  151.5933  145.5330  159.3572 C   0  0  0  0  0  0  0  0  0  0  0  0
  151.4737  145.2047  160.7215 C   0  0  0  0  0  0  0  0  0  0  0  0
  152.0522  144.0188  161.2148 C   0  0  0  0  0  0  0  0  0  0  0  0
  153.5147  137.2561  159.8535 C   0  0  0  0  0  0  0  0  0  0  0  0
  153.8783  136.9919  161.0006 O   0  0  0  0  0  0  0  0  0  0  0  0
  153.1839  136.2835  158.9497 N   0  5  0  0  0  0  0  0  0  0  0  0
  152.7943  136.5452  157.6675 C   0  0  0  0  0  0  0  0  0  0  0  0
  152.4955  135.6528  156.8745 O   0  0  0  0  0  0  0  0  0  0  0  0
  152.3241  139.3622  155.6548 H   0  0  0  0  0  0  0  0  0  0  0  0
  151.3419  137.8965  155.5951 H   0  0  0  0  0  0  0  0  0  0  0  0
  153.0419  137.8450  155.1066 H   0  0  0  0  0  0  0  0  0  0  0  0
  153.0579  139.9440  157.9225 H   0  0  0  0  0  0  0  0  0  0  0  0
  153.6425  139.3150  161.4008 H   0  0  0  0  0  0  0  0  0  0  0  0
  154.8664  139.8502  160.2419 H   0  0  0  0  0  0  0  0  0  0  0  0
  153.0832  141.7230  161.9083 H   0  0  0  0  0  0  0  0  0  0  0  0
  154.4673  142.0155  160.8645 H   0  0  0  0  0  0  0  0  0  0  0  0
  153.4076  142.8347  158.3070 H   0  0  0  0  0  0  0  0  0  0  0  0
  152.3868  144.9283  157.4403 H   0  0  0  0  0  0  0  0  0  0  0  0
  151.1504  146.4426  158.9794 H   0  0  0  0  0  0  0  0  0  0  0  0
  150.9393  145.8627  161.3904 H   0  0  0  0  0  0  0  0  0  0  0  0
  151.9577  143.7762  162.2630 H   0  0  0  0  0  0  0  0  0  0  0  0
  1  2  1  0  0  0  0
  1 19  1  0  0  0  0
  1 20  1  0  0  0  0
  1 21  1  0  0  0  0
  2 17  1  0  0  0  0
  2  3  2  0  0  0  0
  3  4  1  0  0  0  0
  3 22  1  0  0  0  0
  4  5  1  0  0  0  0
  4 14  1  0  0  0  0
  5  6  1  0  0  0  0
  5 23  1  0  0  0  0
  5 24  1  0  0  0  0
  6  7  1  0  0  0  0
  7  8  1  0  0  0  0
  7 25  1  0  0  0  0
  7 26  1  0  0  0  0
  8 13  1  0  0  0  0
  8  9  2  0  0  0  0
  9 10  1  0  0  0  0
  9 27  1  0  0  0  0
 10 11  2  0  0  0  0
 10 28  1  0  0  0  0
 11 12  1  0  0  0  0
 11 29  1  0  0  0  0
 12 13  2  0  0  0  0
 12 30  1  0  0  0  0
 13 31  1  0  0  0  0
 14 15  2  0  0  0  0
 14 16  1  0  0  0  0
 16 17  1  0  0  0  0
 17 18  2  0  0  0  0
M  CHG  1  16  -1
M  END
> <s_m_source_file>
AV-unprocessed.smi

> <i_m_source_file_index>
2635

> <i_lp_mmshare_version>
43012

> <i_f3d_flags>
0

> <s_epik_input>
Tz1jMVtuSF1jKD1PKW4oW2NIXWMxW0NIM10pW0NIMl1PW0NIMl1jMltjSF1bY0hdW2NIXVtjSF1bY0hdMg==

> <s_epik_cmdline>
J2VwaWtfcHl0aG9uJywgJy1waCcsICc3LjAnLCAnLXRuJywgJzgnLCAnLW1hJywgJzIwMCcsICctbWV0YWxfYmluZGluZycsICctaW1hZScsICc8aW5maWxlLm1hZT4nLCAnLW9tYWUnLCAnPG91dGZpbGUubWFlPic=

> <r_lp_tautomer_probability>
0.999537

> <r_epik_Ionization_Penalty>
3.41553

> <r_epik_Ionization_Penalty_Charging>
6.94296e-08

> <r_epik_Ionization_Penalty_Neutral>
3.41553

> <r_epik_State_Penalty>
3.41493

> <r_epik_Charging_Adjusted_Penalty>
3.41493

> <i_epik_Tot_Q>
-1

> <i_epik_Tot_abs_Q>
1

> <r_epik_Metal_State_Penalty>
0.16353

> <b_epik_Metal_Only>
1

> <s_epik_Chemistry_Notes>
This compound contains an acetal/aminal-like group ( X-CH(R)-Y where X, Y are N, S, or O) that may be acid/base labile, releasing an aldehyde.

> <s_lp_Force_Field>
OPLS_2005

> <r_lp_Energy>
15.2245

> <b_lp_Chiralities_Consistent>
1

> <s_lp_Variant>
AV-unprocessed.smi:2635-2

> <Gold.Version>
5.8.1

> <Gold.Id.Protein>
6NUR|6NUR_protein|mol2

> <Gold.PLP.Fitness>
48.4596

> <Gold.PLP.PLP>
-40.4228

> <Gold.PLP.part.hbond>
-2.0000

> <Gold.PLP.part.metal>
0.0000

> <Gold.PLP.part.buried>
-3.1820

> <Gold.PLP.part.nonpolar>
-34.9323

> <Gold.PLP.part.repulsive>
0.0000

> <Gold.PLP.ligand.clash>
0.0000

> <Gold.PLP.ligand.torsion>
0.4915

> <Gold.PLP.Chemscore.Hbond>
3.0000

> <Gold.PLP.Chemscore.CHOScore>
0.0000

> <Gold.PLP.Chemscore.Metal>
0.0000

> <Gold.Chemscore.Hbonds>
donor molecule, donor type, donor heavy atom, donor atom, acceptor molecule, acceptor atom, score
      P1  H  6896  6909       L1    16  1.66
      P1  H 10752 10763       L1    18  1.00

> <Gold.PLP.Chemscore.Internal.Correction>
0.0199

> <Gold.Rescore>
     Score         DG    S(hbond)    S(metal)    S(lipo)     H(rot)  DE(clash)    DE(int)     intcor
     18.25     -18.56       1.71        0.00     104.57       1.90       0.01       0.30       ----

> <Gold.Chemscore.Fitness>
18.2494

> <Gold.Chemscore.DG>
-18.5607

> <Gold.Chemscore.ZeroCoef>
-5.4800

> <Gold.Chemscore.Hbond>
1.7100

> <Gold.Chemscore.Metal>
0.0000

> <Gold.Chemscore.Lipo>
104.5670

> <Gold.Chemscore.Internal_Hbond>
0.0000

> <Gold.Chemscore.DEClash>
0.0089

> <Gold.Chemscore.DEInternal>
0.3024

> <Gold.Chemscore.Rot>
1.9004

> <Gold.Chemscore.Internal.Correction>
   9.000000E+99

> <Gold.Chemscore.Hbonds>
donor molecule, donor type, donor heavy atom, donor atom, acceptor molecule, acceptor atom, score
      P1  H  6896  6909       L1    16  0.40
      P1  H 10752 10763       L1    18  1.00

> <Gold.Chemscore.Hbond.Weighted>
-5.7115

> <Gold.Chemscore.Metal.Weighted>
-0.0000

> <Gold.Chemscore.Lipo.Weighted>
-12.2343

> <Gold.Chemscore.Internal_Hbond.Weighted>
0.0000

> <Gold.Chemscore.DEClash.Weighted>
0.0089

> <Gold.Chemscore.DEInternal.Weighted>
0.3024

> <Gold.Chemscore.Rot.Weighted>
4.8651

> <Gold.Chemscore.Internal.Correction.Weighted>
   9.000000E+99

> <Gold.Protein.RotatedTorsions>
[ 6907 6896 6895 6894 ] final  163.85 input  -60.11 | X-H torsion
[ 7974 7965 7964 7962 ] final  159.71 input  175.53 | X-H torsion
[ 8008 7997 7996 7995 ] final  -96.69 input   59.86 | X-H torsion
[ 10167 10162 10161 10158 ] final  -89.44 input  -65.29 | X-H torsion
[ 10718 10713 10712 10709 ] final  -57.72 input   66.30 | X-H torsion
[ 10763 10752 10751 10750 ] final  101.44 input  -60.55 | X-H torsion
[ 11005 11000 10999 10996 ] final -137.17 input  -57.11 | X-H torsion

> <Gold.Protein.ActiveResidues>
 VAL166  LYS551  ARG553  GLY616  TRP617  ASP618  TYR619  PRO620  LYS621  CYS622 
 ASP623  PHE694  ASN695  SER759  ASP760  ASP761  ALA762  ILE779  LEU786  VAL792 
 PHE793  MET794  SER795  GLU796  ALA797  LYS798  CYS799  TRP800  GLU811  SER814 

> <Gold.Protein.RotatedAtoms>
  151.9188  133.3580  159.3889 H   0  0  0  0  0  0  0  0  0  0  0  0  # atno 6907 bound_to 6896
  150.7041  134.4656  159.5410 H   0  0  0  0  0  0  0  0  0  0  0  0  # atno 6908 bound_to 6896
  152.2276  134.8353  160.0528 H   0  0  0  0  0  0  0  0  0  0  0  0  # atno 6909 bound_to 6896
  144.7775  139.7656  143.6273 H   0  0  0  0  0  0  0  0  0  0  0  0  # atno 7974 bound_to 7965
  154.7778  140.0469  157.1103 H   0  0  0  0  0  0  0  0  0  0  0  0  # atno 8008 bound_to 7997
  154.9741  140.3093  155.4955 H   0  0  0  0  0  0  0  0  0  0  0  0  # atno 8009 bound_to 7997
  156.2932  140.2248  156.4836 H   0  0  0  0  0  0  0  0  0  0  0  0  # atno 8010 bound_to 7997
  140.3647  143.2824  151.9572 H   0  0  0  0  0  0  0  0  0  0  0  0  # atno 10167 bound_to 10162
  156.1189  130.4168  150.0479 H   0  0  0  0  0  0  0  0  0  0  0  0  # atno 10718 bound_to 10713
  153.3268  135.4044  155.1462 H   0  0  0  0  0  0  0  0  0  0  0  0  # atno 10763 bound_to 10752
  154.8613  135.3601  154.5524 H   0  0  0  0  0  0  0  0  0  0  0  0  # atno 10764 bound_to 10752
  153.5960  135.7072  153.5463 H   0  0  0  0  0  0  0  0  0  0  0  0  # atno 10765 bound_to 10752
  140.8736  134.2020  157.4636 H   0  0  0  0  0  0  0  0  0  0  0  0  # atno 11005 bound_to 11000
  146.1964  139.5233  142.9772 LP  0  0  0  0  0  0  0  0  0  0  0  0  # atno 17320 bound_to 7965
  145.6143  141.0334  143.1949 LP  0  0  0  0  0  0  0  0  0  0  0  0  # atno 17321 bound_to 7965
  139.4810  144.5961  151.7688 LP  0  0  0  0  0  0  0  0  0  0  0  0  # atno 17342 bound_to 10162
  140.5092  144.1051  150.5990 LP  0  0  0  0  0  0  0  0  0  0  0  0  # atno 17343 bound_to 10162
  156.8423  130.9430  151.3631 LP  0  0  0  0  0  0  0  0  0  0  0  0  # atno 17370 bound_to 10713
  157.6373  130.8777  149.9382 LP  0  0  0  0  0  0  0  0  0  0  0  0  # atno 17371 bound_to 10713
  139.8714  134.9785  156.5001 LP  0  0  0  0  0  0  0  0  0  0  0  0  # atno 17394 bound_to 11000
  140.8544  133.8107  155.9201 LP  0  0  0  0  0  0  0  0  0  0  0  0  # atno 17395 bound_to 11000

$$$$
