AV-unprocessed.smi:218|AV-procd|sdf|1677|dock3
  -GOLD-   2262020103D 1   1.00000     0.00000
 Structure written by MMmdl.
 54 57  0  0  0  0  0  0  0  0  1 V2000
  154.0840  140.6533  159.8226 C   0  0  0  0  0  0  0  0  0  0  0  0
  153.1531  141.7303  159.2530 C   0  0  0  0  0  0  0  0  0  0  0  0
  152.9006  142.8473  160.2804 C   0  0  0  0  0  0  0  0  0  0  0  0
  151.9265  141.0799  158.9151 O   0  0  0  0  0  0  0  0  0  0  0  0
  151.7208  140.6090  157.6326 C   0  0  0  0  0  0  0  0  0  0  0  0
  150.6534  141.1492  156.8873 C   0  0  0  0  0  0  0  0  0  0  0  0
  150.4339  140.6851  155.5732 C   0  0  0  0  0  0  0  0  0  0  0  0
  149.3025  141.2429  154.7254 C   0  0  0  0  0  0  0  0  0  0  0  0
  148.6734  140.2768  153.8307 N   0  0  0  0  0  0  0  0  0  0  0  0
  147.7595  139.4029  154.3065 C   0  0  0  0  0  0  0  0  0  0  0  0
  147.6047  139.2065  155.6424 N   0  0  0  0  0  0  0  0  0  0  0  0
  146.6911  138.3393  156.0896 C   0  0  0  0  0  0  0  0  0  0  0  0
  145.8420  137.5845  155.3875 N   0  0  0  0  0  0  0  0  0  0  0  0
  145.9926  137.7839  154.0461 C   0  0  0  0  0  0  0  0  0  0  0  0
  146.9217  138.6667  153.4302 C   0  0  0  0  0  0  0  0  0  0  0  0
  146.7900  138.5983  152.0493 N   0  0  0  0  0  0  0  0  0  0  0  0
  145.8358  137.7251  151.8656 C   0  0  0  0  0  0  0  0  0  0  0  0
  145.2986  137.1881  153.0167 N   0  0  0  0  0  0  0  0  0  0  0  0
  144.2066  136.1793  153.1724 C   0  0  1  0  0  0  0  0  0  0  0  0
  143.9138  135.6659  151.9044 O   0  0  0  0  0  0  0  0  0  0  0  0
  144.2239  134.2754  151.8307 C   0  0  1  0  0  0  0  0  0  0  0  0
  144.7768  133.9407  150.4362 C   0  0  0  0  0  0  0  0  0  0  0  0
  144.1092  134.6937  149.4462 O   0  0  0  0  0  0  0  0  0  0  0  0
  145.2033  134.0406  152.9828 C   0  0  2  0  0  0  0  0  0  0  0  0
  145.2226  132.7032  153.4437 O   0  0  0  0  0  0  0  0  0  0  0  0
  144.7071  135.0175  154.0388 C   0  0  2  0  0  0  0  0  0  0  0  0
  143.6599  134.4966  154.8371 O   0  0  0  0  0  0  0  0  0  0  0  0
  151.2859  139.6868  155.0612 C   0  0  0  0  0  0  0  0  0  0  0  0
  152.3224  139.2040  155.8829 C   0  0  0  0  0  0  0  0  0  0  0  0
  152.5411  139.6487  157.1383 N   0  0  0  0  0  0  0  0  0  0  0  0
  143.3709  136.7398  153.5940 H   0  0  0  0  0  0  0  0  0  0  0  0
  143.2935  133.7340  152.0120 H   0  0  0  0  0  0  0  0  0  0  0  0
  146.2107  134.3261  152.6764 H   0  0  0  0  0  0  0  0  0  0  0  0
  145.5085  135.3399  154.7054 H   0  0  0  0  0  0  0  0  0  0  0  0
  155.0516  141.0742  160.0971 H   0  0  0  0  0  0  0  0  0  0  0  0
  154.2616  139.8654  159.0903 H   0  0  0  0  0  0  0  0  0  0  0  0
  153.6559  140.1902  160.7121 H   0  0  0  0  0  0  0  0  0  0  0  0
  153.6386  142.1405  158.3661 H   0  0  0  0  0  0  0  0  0  0  0  0
  153.8360  143.3220  160.5777 H   0  0  0  0  0  0  0  0  0  0  0  0
  152.4267  142.4533  161.1797 H   0  0  0  0  0  0  0  0  0  0  0  0
  152.2527  143.6270  159.8808 H   0  0  0  0  0  0  0  0  0  0  0  0
  150.0207  141.9114  157.3178 H   0  0  0  0  0  0  0  0  0  0  0  0
  148.5426  141.6909  155.3672 H   0  0  0  0  0  0  0  0  0  0  0  0
  149.7040  142.0537  154.1174 H   0  0  0  0  0  0  0  0  0  0  0  0
  149.1176  140.1625  152.9310 H   0  0  0  0  0  0  0  0  0  0  0  0
  146.6320  138.2363  157.1631 H   0  0  0  0  0  0  0  0  0  0  0  0
  145.4978  137.4522  150.8769 H   0  0  0  0  0  0  0  0  0  0  0  0
  145.8385  134.1834  150.3862 H   0  0  0  0  0  0  0  0  0  0  0  0
  144.6790  132.8773  150.2171 H   0  0  0  0  0  0  0  0  0  0  0  0
  144.6075  134.6452  148.6440 H   0  0  0  0  0  0  0  0  0  0  0  0
  144.3471  132.4710  153.7151 H   0  0  0  0  0  0  0  0  0  0  0  0
  143.5176  133.5948  154.5925 H   0  0  0  0  0  0  0  0  0  0  0  0
  151.1543  139.3013  154.0609 H   0  0  0  0  0  0  0  0  0  0  0  0
  152.9951  138.4404  155.5218 H   0  0  0  0  0  0  0  0  0  0  0  0
  1  2  1  0  0  0  0
  1 35  1  0  0  0  0
  1 36  1  0  0  0  0
  1 37  1  0  0  0  0
  2  3  1  0  0  0  0
  2  4  1  0  0  0  0
  2 38  1  0  0  0  0
  3 39  1  0  0  0  0
  3 40  1  0  0  0  0
  3 41  1  0  0  0  0
  4  5  1  0  0  0  0
  5 30  1  0  0  0  0
  5  6  2  0  0  0  0
  6  7  1  0  0  0  0
  6 42  1  0  0  0  0
  7  8  1  0  0  0  0
  7 28  2  0  0  0  0
  8  9  1  0  0  0  0
  8 43  1  0  0  0  0
  8 44  1  0  0  0  0
  9 10  1  0  0  0  0
  9 45  1  0  0  0  0
 10 15  1  0  0  0  0
 10 11  2  0  0  0  0
 11 12  1  0  0  0  0
 12 13  2  0  0  0  0
 12 46  1  0  0  0  0
 13 14  1  0  0  0  0
 14 18  1  0  0  0  0
 14 15  2  0  0  0  0
 15 16  1  0  0  0  0
 16 17  2  0  0  0  0
 17 18  1  0  0  0  0
 17 47  1  0  0  0  0
 18 19  1  0  0  0  0
 19 31  1  0  0  0  0
 19 26  1  0  0  0  0
 19 20  1  0  0  0  0
 20 21  1  0  0  0  0
 21 32  1  0  0  0  0
 21 22  1  0  0  0  0
 21 24  1  0  0  0  0
 22 23  1  0  0  0  0
 22 48  1  0  0  0  0
 22 49  1  0  0  0  0
 23 50  1  0  0  0  0
 24 33  1  0  0  0  0
 24 25  1  0  0  0  0
 24 26  1  0  0  0  0
 25 51  1  0  0  0  0
 26 34  1  0  0  0  0
 26 27  1  0  0  0  0
 27 52  1  0  0  0  0
 28 29  1  0  0  0  0
 28 53  1  0  0  0  0
 29 30  2  0  0  0  0
 29 54  1  0  0  0  0
M  END
> <s_m_source_file>
AV-unprocessed.smi

> <i_m_source_file_index>
218

> <i_lp_mmshare_version>
43012

> <i_f3d_flags>
0

> <s_epik_input>
W0NIM11bQ0hdKFtDSDNdKU9jMVtjSF1jKFtjSF1bY0hdbjEpW0NIMl1bTkhdYyhuW2NIXW4yKWMoYzIzKW5bY0hdbjNbQ0BASF00T1tDQEhdKFtDSDJdW09IXSlbQ0BASF0oW09IXSlbQ0BIXTRbT0hd

> <s_epik_cmdline>
J2VwaWtfcHl0aG9uJywgJy1waCcsICc3LjAnLCAnLXRuJywgJzgnLCAnLW1hJywgJzIwMCcsICctbWV0YWxfYmluZGluZycsICctaW1hZScsICc8aW5maWxlLm1hZT4nLCAnLW9tYWUnLCAnPG91dGZpbGUubWFlPic=

> <r_lp_tautomer_probability>
1

> <r_epik_Ionization_Penalty>
0.00457014

> <r_epik_Ionization_Penalty_Charging>
0

> <r_epik_Ionization_Penalty_Neutral>
0.00457014

> <r_epik_State_Penalty>
-0

> <r_epik_Charging_Adjusted_Penalty>
0

> <i_epik_Tot_Q>
0

> <i_epik_Tot_abs_Q>
0

> <r_epik_Metal_State_Penalty>
-0

> <b_epik_Metal_Only>
0

> <s_epik_Chemistry_Notes>
This compound contains an acetal/aminal-like group ( X-CH(R)-Y where X, Y are N, S, or O) that may be acid/base labile, releasing an aldehyde.

> <s_lp_Force_Field>
OPLS_2005

> <r_lp_Energy>
38.234

> <b_lp_Chiralities_Consistent>
1

> <s_lp_Variant>
AV-unprocessed.smi:218-16

> <Gold.Version>
5.8.1

> <Gold.Id.Protein>
6NUR|6NUR_protein|mol2

> <Gold.PLP.Fitness>
58.0773

> <Gold.PLP.PLP>
-43.8356

> <Gold.PLP.part.hbond>
-5.8288

> <Gold.PLP.part.metal>
0.0000

> <Gold.PLP.part.buried>
-4.5494

> <Gold.PLP.part.nonpolar>
-35.1410

> <Gold.PLP.part.repulsive>
0.6268

> <Gold.PLP.ligand.clash>
0.0000

> <Gold.PLP.ligand.torsion>
1.3733

> <Gold.PLP.Chemscore.Hbond>
4.8163

> <Gold.PLP.Chemscore.CHOScore>
0.8234

> <Gold.PLP.Chemscore.Metal>
0.0000

> <Gold.Chemscore.Hbonds>
donor molecule, donor type, donor heavy atom, donor atom, acceptor molecule, acceptor atom, score
      L1  H     9    45       P1  7957  1.00
      L1  H    23    50       P1  7921  1.00
      L1  H    25    51       P1 10957  0.83
      L1  H    27    52       P1 10957  1.00
      P1  H  7997  8010       L1    30  0.80
      L1  C    17    47       P1 10171  0.85

> <Gold.PLP.Chemscore.Internal.Correction>
0.0693

> <Gold.Rescore>
     Score         DG    S(hbond)    S(metal)    S(lipo)     H(rot)  DE(clash)    DE(int)     intcor
     13.57     -15.52       3.74        0.00      86.30       4.90       0.43       1.52       ----

> <Gold.Chemscore.Fitness>
13.5738

> <Gold.Chemscore.DG>
-15.5242

> <Gold.Chemscore.ZeroCoef>
-5.4800

> <Gold.Chemscore.Hbond>
3.7422

> <Gold.Chemscore.Metal>
0.0000

> <Gold.Chemscore.Lipo>
86.2985

> <Gold.Chemscore.Internal_Hbond>
0.0000

> <Gold.Chemscore.DEClash>
0.4279

> <Gold.Chemscore.DEInternal>
1.5225

> <Gold.Chemscore.Rot>
4.9029

> <Gold.Chemscore.Internal.Correction>
   9.000000E+99

> <Gold.Chemscore.Hbonds>
donor molecule, donor type, donor heavy atom, donor atom, acceptor molecule, acceptor atom, score
      L1  H     9    45       P1  7957  1.00
      L1  H    23    50       P1  7921  0.98
      L1  H    25    51       P1 10957  0.29
      L1  H    27    52       P1 10957  0.91
      P1  H  7997  8010       L1    30  0.10

> <Gold.Chemscore.Hbond.Weighted>
-12.4989

> <Gold.Chemscore.Metal.Weighted>
-0.0000

> <Gold.Chemscore.Lipo.Weighted>
-10.0969

> <Gold.Chemscore.Internal_Hbond.Weighted>
0.0000

> <Gold.Chemscore.DEClash.Weighted>
0.4279

> <Gold.Chemscore.DEInternal.Weighted>
1.5225

> <Gold.Chemscore.Rot.Weighted>
12.5515

> <Gold.Chemscore.Internal.Correction.Weighted>
   9.000000E+99

> <Gold.Protein.RotatedTorsions>
[ 6907 6896 6895 6894 ] final  -30.19 input  -60.11 | X-H torsion
[ 7974 7965 7964 7962 ] final  -36.95 input  175.53 | X-H torsion
[ 8008 7997 7996 7995 ] final   42.13 input   59.86 | X-H torsion
[ 10167 10162 10161 10158 ] final  -98.72 input  -65.29 | X-H torsion
[ 10718 10713 10712 10709 ] final  -85.35 input   66.30 | X-H torsion
[ 10763 10752 10751 10750 ] final  114.92 input  -60.55 | X-H torsion
[ 11005 11000 10999 10996 ] final   24.99 input  -57.11 | X-H torsion

> <Gold.Protein.ActiveResidues>
 VAL166  LYS551  ARG553  GLY616  TRP617  ASP618  TYR619  PRO620  LYS621  CYS622 
 ASP623  PHE694  ASN695  SER759  ASP760  ASP761  ALA762  ILE779  LEU786  VAL792 
 PHE793  MET794  SER795  GLU796  ALA797  LYS798  CYS799  TRP800  GLU811  SER814 

> <Gold.Protein.RotatedAtoms>
  151.1089  135.0015  159.8484 H   0  0  0  0  0  0  0  0  0  0  0  0  # atno 6907 bound_to 6896
  152.5442  134.1859  159.8664 H   0  0  0  0  0  0  0  0  0  0  0  0  # atno 6908 bound_to 6896
  151.1908  133.4624  159.2628 H   0  0  0  0  0  0  0  0  0  0  0  0  # atno 6909 bound_to 6896
  146.0617  140.6339  142.8994 H   0  0  0  0  0  0  0  0  0  0  0  0  # atno 7974 bound_to 7965
  155.2811  140.3372  155.4258 H   0  0  0  0  0  0  0  0  0  0  0  0  # atno 8008 bound_to 7997
  156.2089  140.1762  156.7779 H   0  0  0  0  0  0  0  0  0  0  0  0  # atno 8009 bound_to 7997
  154.5659  140.0679  156.8875 H   0  0  0  0  0  0  0  0  0  0  0  0  # atno 8010 bound_to 7997
  140.2700  143.3350  152.0543 H   0  0  0  0  0  0  0  0  0  0  0  0  # atno 10167 bound_to 10162
  155.9997  130.4728  150.4548 H   0  0  0  0  0  0  0  0  0  0  0  0  # atno 10718 bound_to 10713
  153.5144  135.3611  155.2602 H   0  0  0  0  0  0  0  0  0  0  0  0  # atno 10763 bound_to 10752
  154.8740  135.4030  154.3331 H   0  0  0  0  0  0  0  0  0  0  0  0  # atno 10764 bound_to 10752
  153.3990  135.7074  153.6506 H   0  0  0  0  0  0  0  0  0  0  0  0  # atno 10765 bound_to 10752
  140.3527  134.2211  155.7678 H   0  0  0  0  0  0  0  0  0  0  0  0  # atno 11005 bound_to 11000
  144.7179  140.4272  143.7031 LP  0  0  0  0  0  0  0  0  0  0  0  0  # atno 17320 bound_to 7965
  145.6548  139.1571  143.2841 LP  0  0  0  0  0  0  0  0  0  0  0  0  # atno 17321 bound_to 7965
  139.4991  144.6662  151.6350 LP  0  0  0  0  0  0  0  0  0  0  0  0  # atno 17342 bound_to 10162
  140.5897  143.9801  150.6317 LP  0  0  0  0  0  0  0  0  0  0  0  0  # atno 17343 bound_to 10162
  157.2578  131.0560  151.2339 LP  0  0  0  0  0  0  0  0  0  0  0  0  # atno 17370 bound_to 10713
  157.3465  130.7060  149.6414 LP  0  0  0  0  0  0  0  0  0  0  0  0  # atno 17371 bound_to 10713
  141.2007  133.7980  157.0475 LP  0  0  0  0  0  0  0  0  0  0  0  0  # atno 17394 bound_to 11000
  140.0690  134.9713  157.1435 LP  0  0  0  0  0  0  0  0  0  0  0  0  # atno 17395 bound_to 11000

$$$$
