AV-unprocessed.smi:2911|AV-procd|sdf|11177|dock10
  -GOLD-   2272016 73D 1   1.00000     0.00000
 Structure written by MMmdl.
 41 42  0  0  0  0  0  0  0  0  1 V2000
  145.1666  143.7575  162.0813 C   0  0  0  0  0  0  0  0  0  0  0  0
  145.8736  143.4728  160.8005 C   0  0  0  0  0  0  0  0  0  0  0  0
  147.1764  143.2197  160.7740 N   0  0  0  0  0  0  0  0  0  0  0  0
  147.4375  143.0117  159.4119 O   0  0  0  0  0  0  0  0  0  0  0  0
  146.2450  143.1443  158.7828 C   0  0  0  0  0  0  0  0  0  0  0  0
  146.1944  143.0170  157.2973 C   0  0  0  0  0  0  0  0  0  0  0  0
  147.0469  141.8480  156.7788 C   0  0  0  0  0  0  0  0  0  0  0  0
  148.4727  142.1343  156.8865 N   0  0  0  0  0  0  0  0  0  0  0  0
  149.4232  141.2365  157.1976 C   0  0  0  0  0  0  0  0  0  0  0  0
  149.1645  140.0486  157.3921 O   0  0  0  0  0  0  0  0  0  0  0  0
  150.6820  141.7417  157.1465 N   0  0  0  0  0  0  0  0  0  0  0  0
  150.9628  143.1262  157.5666 C   0  0  0  0  0  0  0  0  0  0  0  0
  151.3621  143.1280  159.0551 C   0  0  0  0  0  0  0  0  0  0  0  0
  152.5710  142.2039  159.3164 C   0  0  1  0  0  0  0  0  0  0  0  0
  152.8970  142.1059  160.8129 C   0  0  0  0  0  0  0  0  0  0  0  0
  152.3540  140.8104  158.6871 C   0  0  0  0  0  0  0  0  0  0  0  0
  151.9177  140.9309  157.2123 C   0  0  1  0  0  0  0  0  0  0  0  0
  151.8502  139.5626  156.5011 C   0  0  0  0  0  0  0  0  0  0  0  0
  145.2376  143.4493  159.5971 N   0  0  0  0  0  0  0  0  0  0  0  0
  144.7568  142.8366  162.4959 H   0  0  0  0  0  0  0  0  0  0  0  0
  144.3478  144.4586  161.9173 H   0  0  0  0  0  0  0  0  0  0  0  0
  145.8496  144.1934  162.8114 H   0  0  0  0  0  0  0  0  0  0  0  0
  145.1533  142.8911  156.9981 H   0  0  0  0  0  0  0  0  0  0  0  0
  146.5343  143.9549  156.8569 H   0  0  0  0  0  0  0  0  0  0  0  0
  146.8388  140.9512  157.3629 H   0  0  0  0  0  0  0  0  0  0  0  0
  146.7884  141.6132  155.7448 H   0  0  0  0  0  0  0  0  0  0  0  0
  148.7633  143.0831  156.6996 H   0  0  0  0  0  0  0  0  0  0  0  0
  151.7709  143.5377  156.9603 H   0  0  0  0  0  0  0  0  0  0  0  0
  150.1199  143.8018  157.4175 H   0  0  0  0  0  0  0  0  0  0  0  0
  151.5942  144.1446  159.3739 H   0  0  0  0  0  0  0  0  0  0  0  0
  150.5122  142.8031  159.6572 H   0  0  0  0  0  0  0  0  0  0  0  0
  153.4346  142.6522  158.8228 H   0  0  0  0  0  0  0  0  0  0  0  0
  152.0710  141.6629  161.3703 H   0  0  0  0  0  0  0  0  0  0  0  0
  153.0948  143.0908  161.2367 H   0  0  0  0  0  0  0  0  0  0  0  0
  153.7808  141.4903  160.9823 H   0  0  0  0  0  0  0  0  0  0  0  0
  153.2747  140.2299  158.7569 H   0  0  0  0  0  0  0  0  0  0  0  0
  151.5986  140.2602  159.2502 H   0  0  0  0  0  0  0  0  0  0  0  0
  152.6910  141.4884  156.6812 H   0  0  0  0  0  0  0  0  0  0  0  0
  152.8481  139.1335  156.4088 H   0  0  0  0  0  0  0  0  0  0  0  0
  151.4443  139.6588  155.4937 H   0  0  0  0  0  0  0  0  0  0  0  0
  151.2473  138.8361  157.0451 H   0  0  0  0  0  0  0  0  0  0  0  0
  1  2  1  0  0  0  0
  1 20  1  0  0  0  0
  1 21  1  0  0  0  0
  1 22  1  0  0  0  0
  2 19  1  0  0  0  0
  2  3  2  0  0  0  0
  3  4  1  0  0  0  0
  4  5  1  0  0  0  0
  5  6  1  0  0  0  0
  5 19  2  0  0  0  0
  6  7  1  0  0  0  0
  6 23  1  0  0  0  0
  6 24  1  0  0  0  0
  7  8  1  0  0  0  0
  7 25  1  0  0  0  0
  7 26  1  0  0  0  0
  8  9  1  0  0  0  0
  8 27  1  0  0  0  0
  9 10  2  0  0  0  0
  9 11  1  0  0  0  0
 11 17  1  0  0  0  0
 11 12  1  0  0  0  0
 12 13  1  0  0  0  0
 12 28  1  0  0  0  0
 12 29  1  0  0  0  0
 13 14  1  0  0  0  0
 13 30  1  0  0  0  0
 13 31  1  0  0  0  0
 14 15  1  0  0  0  0
 14 16  1  0  0  0  0
 14 32  1  0  0  0  0
 15 33  1  0  0  0  0
 15 34  1  0  0  0  0
 15 35  1  0  0  0  0
 16 17  1  0  0  0  0
 16 36  1  0  0  0  0
 16 37  1  0  0  0  0
 17 18  1  0  0  0  0
 17 38  1  0  0  0  0
 18 39  1  0  0  0  0
 18 40  1  0  0  0  0
 18 41  1  0  0  0  0
M  END
> <s_m_source_file>
AV-unprocessed.smi

> <i_m_source_file_index>
2911

> <i_lp_mmshare_version>
43012

> <i_f3d_flags>
0

> <s_epik_input>
W0NIM11jMW5vYyhuMSlbQ0gyXVtDSDJdW05IXUMoPU8pTjJbQ0gyXVtDSDJdW0NAQEhdKFtDSDNdKVtDSDJdW0NASF0yW0NIM10=

> <s_epik_cmdline>
J2VwaWtfcHl0aG9uJywgJy1waCcsICc3LjAnLCAnLXRuJywgJzgnLCAnLW1hJywgJzIwMCcsICctbWV0YWxfYmluZGluZycsICctaW1hZScsICc8aW5maWxlLm1hZT4nLCAnLW9tYWUnLCAnPG91dGZpbGUubWFlPic=

> <r_lp_tautomer_probability>
1

> <r_epik_Ionization_Penalty>
6.61671e-05

> <r_epik_Ionization_Penalty_Charging>
0

> <r_epik_Ionization_Penalty_Neutral>
6.61671e-05

> <r_epik_State_Penalty>
-0

> <r_epik_Charging_Adjusted_Penalty>
0

> <i_epik_Tot_Q>
0

> <i_epik_Tot_abs_Q>
0

> <r_epik_Metal_State_Penalty>
-0

> <b_epik_Metal_Only>
0

> <s_lp_Force_Field>
OPLS_2005

> <r_lp_Energy>
29.1944

> <b_lp_Chiralities_Consistent>
1

> <s_lp_Variant>
AV-unprocessed.smi:2911-1

> <Gold.Version>
5.8.1

> <Gold.Id.Protein>
6NUR|6NUR_protein|mol2

> <Gold.PLP.Fitness>
38.4439

> <Gold.PLP.PLP>
-33.3869

> <Gold.PLP.part.hbond>
-3.5163

> <Gold.PLP.part.metal>
0.0000

> <Gold.PLP.part.buried>
-5.0586

> <Gold.PLP.part.nonpolar>
-25.0916

> <Gold.PLP.part.repulsive>
0.1962

> <Gold.PLP.ligand.clash>
0.0000

> <Gold.PLP.ligand.torsion>
0.7031

> <Gold.PLP.Chemscore.Hbond>
2.0128

> <Gold.PLP.Chemscore.CHOScore>
0.0000

> <Gold.PLP.Chemscore.Metal>
0.0000

> <Gold.Chemscore.Hbonds>
donor molecule, donor type, donor heavy atom, donor atom, acceptor molecule, acceptor atom, score
      L1  H     8    27       P1  8028  1.00
      P1  H  6933  6944       L1     3  0.95
      P1  H  6934  6946       L1     3  0.01

> <Gold.PLP.Chemscore.Internal.Correction>
0.4249

> <Gold.Rescore>
     Score         DG    S(hbond)    S(metal)    S(lipo)     H(rot)  DE(clash)    DE(int)     intcor
     13.99     -16.22       1.93        0.00      71.87       1.61       0.21       2.01       ----

> <Gold.Chemscore.Fitness>
13.9933

> <Gold.Chemscore.DG>
-16.2160

> <Gold.Chemscore.ZeroCoef>
-5.4800

> <Gold.Chemscore.Hbond>
1.9299

> <Gold.Chemscore.Metal>
0.0000

> <Gold.Chemscore.Lipo>
71.8701

> <Gold.Chemscore.Internal_Hbond>
0.0000

> <Gold.Chemscore.DEClash>
0.2105

> <Gold.Chemscore.DEInternal>
2.0122

> <Gold.Chemscore.Rot>
1.6088

> <Gold.Chemscore.Internal.Correction>
   9.000000E+99

> <Gold.Chemscore.Hbonds>
donor molecule, donor type, donor heavy atom, donor atom, acceptor molecule, acceptor atom, score
      L1  H     8    27       P1  8028  0.86
      P1  H  6933  6944       L1     3  0.21

> <Gold.Chemscore.Hbond.Weighted>
-6.4458

> <Gold.Chemscore.Metal.Weighted>
-0.0000

> <Gold.Chemscore.Lipo.Weighted>
-8.4088

> <Gold.Chemscore.Internal_Hbond.Weighted>
0.0000

> <Gold.Chemscore.DEClash.Weighted>
0.2105

> <Gold.Chemscore.DEInternal.Weighted>
2.0122

> <Gold.Chemscore.Rot.Weighted>
4.1186

> <Gold.Chemscore.Internal.Correction.Weighted>
   9.000000E+99

> <Gold.Protein.RotatedTorsions>
[ 6907 6896 6895 6894 ] final  -46.71 input  -60.11 | X-H torsion
[ 7974 7965 7964 7962 ] final  -55.45 input  175.53 | X-H torsion
[ 8008 7997 7996 7995 ] final -157.03 input   59.86 | X-H torsion
[ 10167 10162 10161 10158 ] final   83.16 input  -65.29 | X-H torsion
[ 10718 10713 10712 10709 ] final   -9.63 input   66.30 | X-H torsion
[ 10763 10752 10751 10750 ] final  -83.82 input  -60.55 | X-H torsion
[ 11005 11000 10999 10996 ] final    9.70 input  -57.11 | X-H torsion

> <Gold.Protein.ActiveResidues>
 VAL166  LYS551  ARG553  GLY616  TRP617  ASP618  TYR619  PRO620  LYS621  CYS622 
 ASP623  PHE694  ASN695  SER759  ASP760  ASP761  ALA762  ILE779  LEU786  VAL792 
 PHE793  MET794  SER795  GLU796  ALA797  LYS798  CYS799  TRP800  GLU811  SER814 

> <Gold.Protein.RotatedAtoms>
  150.9083  134.8499  159.7407 H   0  0  0  0  0  0  0  0  0  0  0  0  # atno 6907 bound_to 6896
  152.4930  134.4397  159.9549 H   0  0  0  0  0  0  0  0  0  0  0  0  # atno 6908 bound_to 6896
  151.4442  133.3596  159.2821 H   0  0  0  0  0  0  0  0  0  0  0  0  # atno 6909 bound_to 6896
  145.8741  140.8194  142.9873 H   0  0  0  0  0  0  0  0  0  0  0  0  # atno 7974 bound_to 7965
  155.7262  140.0796  157.2309 H   0  0  0  0  0  0  0  0  0  0  0  0  # atno 8008 bound_to 7997
  154.4038  140.1603  156.2512 H   0  0  0  0  0  0  0  0  0  0  0  0  # atno 8009 bound_to 7997
  155.9151  140.3401  155.6131 H   0  0  0  0  0  0  0  0  0  0  0  0  # atno 8010 bound_to 7997
  139.9213  144.6211  150.8438 H   0  0  0  0  0  0  0  0  0  0  0  0  # atno 10167 bound_to 10162
  156.6852  130.5048  149.5959 H   0  0  0  0  0  0  0  0  0  0  0  0  # atno 10718 bound_to 10713
  154.5923  135.5542  153.7290 H   0  0  0  0  0  0  0  0  0  0  0  0  # atno 10763 bound_to 10752
  153.0121  135.6346  154.1832 H   0  0  0  0  0  0  0  0  0  0  0  0  # atno 10764 bound_to 10752
  154.1772  135.2889  155.3043 H   0  0  0  0  0  0  0  0  0  0  0  0  # atno 10765 bound_to 10752
  140.5228  134.0543  155.7850 H   0  0  0  0  0  0  0  0  0  0  0  0  # atno 11005 bound_to 11000
  144.6726  140.1283  143.7445 LP  0  0  0  0  0  0  0  0  0  0  0  0  # atno 17320 bound_to 7965
  145.9102  139.2482  143.1442 LP  0  0  0  0  0  0  0  0  0  0  0  0  # atno 17321 bound_to 7965
  140.7661  143.3295  151.2441 LP  0  0  0  0  0  0  0  0  0  0  0  0  # atno 17342 bound_to 10162
  139.6859  143.9774  152.2834 LP  0  0  0  0  0  0  0  0  0  0  0  0  # atno 17343 bound_to 10162
  156.1838  130.6516  151.0983 LP  0  0  0  0  0  0  0  0  0  0  0  0  # atno 17370 bound_to 10713
  157.7029  131.0768  150.6761 LP  0  0  0  0  0  0  0  0  0  0  0  0  # atno 17371 bound_to 10713
  141.1325  133.9278  157.2505 LP  0  0  0  0  0  0  0  0  0  0  0  0  # atno 17394 bound_to 11000
  139.9597  135.0157  156.9226 LP  0  0  0  0  0  0  0  0  0  0  0  0  # atno 17395 bound_to 11000

$$$$
