AV-unprocessed.smi:2072|AV-procd|sdf|8445|dock2
  -GOLD-   2272011143D 1   1.00000     0.00000
 Structure written by MMmdl.
 40 42  0  0  0  0  0  0  0  0  2 V2000
  145.5063  138.0277  153.8634 O   0  0  0  0  0  0  0  0  0  0  0  0
  146.4652  137.5472  153.2610 C   0  0  0  0  0  0  0  0  0  0  0  0
  147.6867  138.0994  153.1618 N   0  0  0  0  0  0  0  0  0  0  0  0
  148.1617  139.3368  153.6784 C   0  0  0  0  0  0  0  0  0  0  0  0
  147.4157  140.5409  153.7143 C   0  0  0  0  0  0  0  0  0  0  0  0
  148.0169  141.6982  154.2455 C   0  0  0  0  0  0  0  0  0  0  0  0
  149.3412  141.6140  154.7161 C   0  0  0  0  0  0  0  0  0  0  0  0
  150.0668  140.4769  154.6816 N   0  0  0  0  0  0  0  0  0  0  0  0
  149.4836  139.3714  154.1718 C   0  0  0  0  0  0  0  0  0  0  0  0
  146.4145  136.3685  152.6234 N   0  0  0  0  0  0  0  0  0  0  0  0
  145.2244  135.5278  152.5029 C   0  0  1  0  0  0  0  0  0  0  0  0
  144.5151  135.6756  151.1439 C   0  0  0  0  0  0  0  0  0  0  0  0
  144.0527  134.2572  150.7957 C   0  0  0  0  0  0  0  0  0  0  0  0
  145.1163  133.4195  151.3611 N   0  3  2  0  0  0  0  0  0  0  0  0
  144.9058  131.9602  151.4399 C   0  0  0  0  0  0  0  0  0  0  0  0
  146.2344  131.3022  151.8707 C   0  0  0  0  0  0  0  0  0  0  0  0
  146.8165  131.9387  153.1539 C   0  0  0  0  0  0  0  0  0  0  0  0
  146.8801  133.4791  153.0571 C   0  0  0  0  0  0  0  0  0  0  0  0
  145.4924  134.0109  152.6568 C   0  0  1  0  0  0  0  0  0  0  0  0
  148.3770  137.5527  152.6683 H   0  0  0  0  0  0  0  0  0  0  0  0
  146.4064  140.6120  153.3425 H   0  0  0  0  0  0  0  0  0  0  0  0
  147.4750  142.6314  154.2875 H   0  0  0  0  0  0  0  0  0  0  0  0
  149.8317  142.4838  155.1276 H   0  0  0  0  0  0  0  0  0  0  0  0
  150.0959  138.4815  154.1589 H   0  0  0  0  0  0  0  0  0  0  0  0
  147.2516  136.0434  152.1620 H   0  0  0  0  0  0  0  0  0  0  0  0
  144.5125  135.8245  153.2763 H   0  0  0  0  0  0  0  0  0  0  0  0
  143.6902  136.3881  151.1744 H   0  0  0  0  0  0  0  0  0  0  0  0
  145.2196  136.0197  150.3849 H   0  0  0  0  0  0  0  0  0  0  0  0
  143.1037  134.0306  151.2840 H   0  0  0  0  0  0  0  0  0  0  0  0
  143.9384  134.1033  149.7223 H   0  0  0  0  0  0  0  0  0  0  0  0
  144.1084  131.7319  152.1487 H   0  0  0  0  0  0  0  0  0  0  0  0
  144.5948  131.5784  150.4669 H   0  0  0  0  0  0  0  0  0  0  0  0
  146.0917  130.2311  152.0164 H   0  0  0  0  0  0  0  0  0  0  0  0
  146.9607  131.4065  151.0635 H   0  0  0  0  0  0  0  0  0  0  0  0
  146.1947  131.6586  154.0052 H   0  0  0  0  0  0  0  0  0  0  0  0
  147.8092  131.5347  153.3546 H   0  0  0  0  0  0  0  0  0  0  0  0
  147.1897  133.8922  154.0171 H   0  0  0  0  0  0  0  0  0  0  0  0
  147.6294  133.7788  152.3233 H   0  0  0  0  0  0  0  0  0  0  0  0
  144.7759  133.6544  153.4001 H   0  0  0  0  0  0  0  0  0  0  0  0
  145.9121  133.5580  150.7550 H   0  0  0  0  0  0  0  0  0  0  0  0
  1  2  2  0  0  0  0
  2  3  1  0  0  0  0
  2 10  1  0  0  0  0
  3  4  1  0  0  0  0
  3 20  1  0  0  0  0
  4  9  1  0  0  0  0
  4  5  2  0  0  0  0
  5  6  1  0  0  0  0
  5 21  1  0  0  0  0
  6  7  2  0  0  0  0
  6 22  1  0  0  0  0
  7  8  1  0  0  0  0
  7 23  1  0  0  0  0
  8  9  2  0  0  0  0
  9 24  1  0  0  0  0
 10 11  1  0  0  0  0
 10 25  1  0  0  0  0
 11 19  1  0  0  0  0
 11 12  1  0  0  0  0
 11 26  1  0  0  0  0
 12 13  1  0  0  0  0
 12 27  1  0  0  0  0
 12 28  1  0  0  0  0
 13 14  1  0  0  0  0
 13 29  1  0  0  0  0
 13 30  1  0  0  0  0
 14 19  1  0  0  0  0
 14 15  1  0  0  0  0
 14 40  1  0  0  0  0
 15 16  1  0  0  0  0
 15 31  1  0  0  0  0
 15 32  1  0  0  0  0
 16 17  1  0  0  0  0
 16 33  1  0  0  0  0
 16 34  1  0  0  0  0
 17 18  1  0  0  0  0
 17 35  1  0  0  0  0
 17 36  1  0  0  0  0
 18 19  1  0  0  0  0
 18 37  1  0  0  0  0
 18 38  1  0  0  0  0
 19 39  1  0  0  0  0
M  CHG  1  14   1
M  END
> <s_m_source_file>
AV-unprocessed.smi

> <i_m_source_file_index>
2072

> <i_lp_mmshare_version>
43012

> <i_f3d_flags>
0

> <s_epik_input>
W0NIMl0xW0NIMl1bQ0gyXVtDSDJdW0NASF0oTjEyKVtDQEBIXShbQ0gyXVtDSDJdMilbTkhdQyg9TylbTkhdYzNbY0hdW2NIXVtjSF1uW2NIXTM=

> <s_epik_cmdline>
J2VwaWtfcHl0aG9uJywgJy1waCcsICc3LjAnLCAnLXRuJywgJzgnLCAnLW1hJywgJzIwMCcsICctbWV0YWxfYmluZGluZycsICctaW1hZScsICc8aW5maWxlLm1hZT4nLCAnLW9tYWUnLCAnPG91dGZpbGUubWFlPic=

> <r_lp_tautomer_probability>
1

> <r_epik_Ionization_Penalty>
0.00482425

> <r_epik_Ionization_Penalty_Charging>
0.000974069

> <r_epik_Ionization_Penalty_Neutral>
0.00385018

> <r_epik_State_Penalty>
-0

> <r_epik_Charging_Adjusted_Penalty>
0.000974069

> <i_epik_Tot_Q>
1

> <i_epik_Tot_abs_Q>
1

> <r_epik_Metal_State_Penalty>
-0

> <b_epik_Metal_Only>
0

> <s_lp_Force_Field>
OPLS_2005

> <r_lp_Energy>
44.3374

> <b_lp_Chiralities_Consistent>
1

> <s_lp_Variant>
AV-unprocessed.smi:2072-4

> <Gold.Version>
5.8.1

> <Gold.Id.Protein>
6NUR|6NUR_protein|mol2

> <Gold.PLP.Fitness>
39.9118

> <Gold.PLP.PLP>
-29.3130

> <Gold.PLP.part.hbond>
-3.0000

> <Gold.PLP.part.metal>
0.0000

> <Gold.PLP.part.buried>
0.1108

> <Gold.PLP.part.nonpolar>
-25.8515

> <Gold.PLP.part.repulsive>
0.3161

> <Gold.PLP.ligand.clash>
0.0000

> <Gold.PLP.ligand.torsion>
0.5698

> <Gold.PLP.Chemscore.Hbond>
2.9280

> <Gold.PLP.Chemscore.CHOScore>
0.9847

> <Gold.PLP.Chemscore.Metal>
0.0000

> <Gold.Chemscore.Hbonds>
donor molecule, donor type, donor heavy atom, donor atom, acceptor molecule, acceptor atom, score
      L1  H     3    20       P1  7948  1.00
      L1  H    10    25       P1  7948  1.00
      P1  H  7989  7998       L1     8  0.93
      L1  C     7    23       P1  8028  0.98

> <Gold.PLP.Chemscore.Internal.Correction>
0.0005

> <Gold.Rescore>
     Score         DG    S(hbond)    S(metal)    S(lipo)     H(rot)  DE(clash)    DE(int)     intcor
     18.89     -19.70       2.27        0.00      78.50       1.00       0.31       0.49       ----

> <Gold.Chemscore.Fitness>
18.8944

> <Gold.Chemscore.DG>
-19.7006

> <Gold.Chemscore.ZeroCoef>
-5.4800

> <Gold.Chemscore.Hbond>
2.2744

> <Gold.Chemscore.Metal>
0.0000

> <Gold.Chemscore.Lipo>
78.4954

> <Gold.Chemscore.Internal_Hbond>
0.0000

> <Gold.Chemscore.DEClash>
0.3135

> <Gold.Chemscore.DEInternal>
0.4927

> <Gold.Chemscore.Rot>
1.0000

> <Gold.Chemscore.Internal.Correction>
   9.000000E+99

> <Gold.Chemscore.Hbonds>
donor molecule, donor type, donor heavy atom, donor atom, acceptor molecule, acceptor atom, score
      L1  H     3    20       P1  7948  0.98
      L1  H    10    25       P1  7948  0.94
      P1  H  7989  7998       L1     8  0.24

> <Gold.Chemscore.Hbond.Weighted>
-7.5966

> <Gold.Chemscore.Metal.Weighted>
-0.0000

> <Gold.Chemscore.Lipo.Weighted>
-9.1840

> <Gold.Chemscore.Internal_Hbond.Weighted>
0.0000

> <Gold.Chemscore.DEClash.Weighted>
0.3135

> <Gold.Chemscore.DEInternal.Weighted>
0.4927

> <Gold.Chemscore.Rot.Weighted>
2.5600

> <Gold.Chemscore.Internal.Correction.Weighted>
   9.000000E+99

> <Gold.Protein.RotatedTorsions>
[ 6907 6896 6895 6894 ] final   65.04 input  -60.11 | X-H torsion
[ 7974 7965 7964 7962 ] final   69.98 input  175.53 | X-H torsion
[ 8008 7997 7996 7995 ] final -162.19 input   59.86 | X-H torsion
[ 10167 10162 10161 10158 ] final  167.75 input  -65.29 | X-H torsion
[ 10718 10713 10712 10709 ] final  133.94 input   66.30 | X-H torsion
[ 10763 10752 10751 10750 ] final  141.37 input  -60.55 | X-H torsion
[ 11005 11000 10999 10996 ] final  150.03 input  -57.11 | X-H torsion

> <Gold.Protein.ActiveResidues>
 VAL166  LYS551  ARG553  GLY616  TRP617  ASP618  TYR619  PRO620  LYS621  CYS622 
 ASP623  PHE694  ASN695  SER759  ASP760  ASP761  ALA762  ILE779  LEU786  VAL792 
 PHE793  MET794  SER795  GLU796  ALA797  LYS798  CYS799  TRP800  GLU811  SER814 

> <Gold.Protein.RotatedAtoms>
  152.4378  134.5652  159.9905 H   0  0  0  0  0  0  0  0  0  0  0  0  # atno 6907 bound_to 6896
  151.5758  133.3378  159.3006 H   0  0  0  0  0  0  0  0  0  0  0  0  # atno 6908 bound_to 6896
  150.8279  134.7553  159.6892 H   0  0  0  0  0  0  0  0  0  0  0  0  # atno 6909 bound_to 6896
  145.7837  139.2900  143.1250 H   0  0  0  0  0  0  0  0  0  0  0  0  # atno 7974 bound_to 7965
  155.8032  140.0895  157.1945 H   0  0  0  0  0  0  0  0  0  0  0  0  # atno 8008 bound_to 7997
  154.3981  140.1468  156.3359 H   0  0  0  0  0  0  0  0  0  0  0  0  # atno 8009 bound_to 7997
  155.8441  140.3437  155.5653 H   0  0  0  0  0  0  0  0  0  0  0  0  # atno 8010 bound_to 7997
  139.4952  144.3888  151.9540 H   0  0  0  0  0  0  0  0  0  0  0  0  # atno 10167 bound_to 10162
  157.4722  131.1081  150.9788 H   0  0  0  0  0  0  0  0  0  0  0  0  # atno 10718 bound_to 10713
  153.9382  135.2983  155.3443 H   0  0  0  0  0  0  0  0  0  0  0  0  # atno 10763 bound_to 10752
  154.7491  135.4989  153.9260 H   0  0  0  0  0  0  0  0  0  0  0  0  # atno 10764 bound_to 10752
  153.1056  135.6746  153.9698 H   0  0  0  0  0  0  0  0  0  0  0  0  # atno 10765 bound_to 10752
  140.1096  134.8932  157.1916 H   0  0  0  0  0  0  0  0  0  0  0  0  # atno 11005 bound_to 11000
  146.0048  140.8488  143.0000 LP  0  0  0  0  0  0  0  0  0  0  0  0  # atno 17320 bound_to 7965
  144.6792  140.2404  143.7344 LP  0  0  0  0  0  0  0  0  0  0  0  0  # atno 17321 bound_to 7965
  140.3325  144.3299  150.5984 LP  0  0  0  0  0  0  0  0  0  0  0  0  # atno 17342 bound_to 10162
  140.5633  143.2189  151.7727 LP  0  0  0  0  0  0  0  0  0  0  0  0  # atno 17343 bound_to 10162
  157.0549  130.5802  149.5376 LP  0  0  0  0  0  0  0  0  0  0  0  0  # atno 17370 bound_to 10713
  156.0079  130.5168  150.7892 LP  0  0  0  0  0  0  0  0  0  0  0  0  # atno 17371 bound_to 10713
  140.3109  134.3025  155.7267 LP  0  0  0  0  0  0  0  0  0  0  0  0  # atno 17394 bound_to 11000
  141.2127  133.7650  156.9775 LP  0  0  0  0  0  0  0  0  0  0  0  0  # atno 17395 bound_to 11000

$$$$
