AV-unprocessed.smi:2329|AV-procd|sdf|9308|dock2
  -GOLD-   2272012523D 1   1.00000     0.00000
 Structure written by MMmdl.
 45 48  0  0  0  0  0  0  0  0  1 V2000
  146.6843  137.5028  163.0610 C   0  0  0  0  0  0  0  0  0  0  0  0
  147.2282  136.5429  162.0241 C   0  0  0  0  0  0  0  0  0  0  0  0
  147.0335  135.1531  162.1487 C   0  0  0  0  0  0  0  0  0  0  0  0
  147.5632  134.3176  161.1491 C   0  0  0  0  0  0  0  0  0  0  0  0
  148.2610  134.9014  160.0744 C   0  0  0  0  0  0  0  0  0  0  0  0
  148.4123  136.3054  160.0253 C   0  0  0  0  0  0  0  0  0  0  0  0
  149.1312  136.7924  158.9026 N   0  0  0  0  0  0  0  0  0  0  0  0
  148.9855  137.9685  158.2602 C   0  0  0  0  0  0  0  0  0  0  0  0
  148.1579  138.8308  158.5496 O   0  0  0  0  0  0  0  0  0  0  0  0
  149.8514  138.1459  157.2473 N   0  0  0  0  0  0  0  0  0  0  0  0
  149.9550  139.3117  156.3547 C   0  0  2  0  0  0  0  0  0  0  0  0
  150.8502  139.0906  155.1298 C   0  0  2  0  0  0  0  0  0  0  0  0
  151.3598  137.9097  154.3839 C   0  0  0  0  0  0  0  0  0  0  0  0
  152.8118  138.4165  154.1805 C   0  0  0  0  0  0  0  0  0  0  0  0
  152.9394  139.6023  155.0053 O   0  0  0  0  0  0  0  0  0  0  0  0
  152.0103  139.3986  156.0528 C   0  0  1  0  0  0  0  0  0  0  0  0
  151.0481  140.3644  156.7848 C   0  0  0  0  0  0  0  0  0  0  0  0
  150.9377  141.7964  156.2212 C   0  0  0  0  0  0  0  0  0  0  0  0
  151.0409  142.7839  157.3851 C   0  0  0  0  0  0  0  0  0  0  0  0
  151.7674  142.0118  158.4764 C   0  0  0  0  0  0  0  0  0  0  0  0
  151.2836  140.5778  158.2849 C   0  0  0  0  0  0  0  0  0  0  0  0
  147.8977  137.1032  160.9939 N   0  0  0  0  0  0  0  0  0  0  0  0
  146.1875  136.9695  163.8720 H   0  0  0  0  0  0  0  0  0  0  0  0
  145.9617  138.1811  162.6063 H   0  0  0  0  0  0  0  0  0  0  0  0
  147.4919  138.0971  163.4893 H   0  0  0  0  0  0  0  0  0  0  0  0
  146.4932  134.7358  162.9857 H   0  0  0  0  0  0  0  0  0  0  0  0
  147.4368  133.2465  161.2047 H   0  0  0  0  0  0  0  0  0  0  0  0
  148.6746  134.2740  159.2979 H   0  0  0  0  0  0  0  0  0  0  0  0
  149.8573  136.1840  158.5547 H   0  0  0  0  0  0  0  0  0  0  0  0
  150.5232  137.4082  157.0905 H   0  0  0  0  0  0  0  0  0  0  0  0
  148.9935  139.7706  156.1193 H   0  0  0  0  0  0  0  0  0  0  0  0
  150.6593  139.9024  154.4204 H   0  0  0  0  0  0  0  0  0  0  0  0
  151.3276  136.9968  154.9798 H   0  0  0  0  0  0  0  0  0  0  0  0
  150.8349  137.7429  153.4430 H   0  0  0  0  0  0  0  0  0  0  0  0
  153.5334  137.6590  154.4892 H   0  0  0  0  0  0  0  0  0  0  0  0
  153.0125  138.6720  153.1397 H   0  0  0  0  0  0  0  0  0  0  0  0
  152.3223  138.5578  156.6808 H   0  0  0  0  0  0  0  0  0  0  0  0
  151.7507  141.9888  155.5200 H   0  0  0  0  0  0  0  0  0  0  0  0
  150.0097  141.9529  155.6701 H   0  0  0  0  0  0  0  0  0  0  0  0
  151.5515  143.7074  157.1109 H   0  0  0  0  0  0  0  0  0  0  0  0
  150.0403  143.0468  157.7307 H   0  0  0  0  0  0  0  0  0  0  0  0
  152.8441  142.0628  158.3089 H   0  0  0  0  0  0  0  0  0  0  0  0
  151.5635  142.3973  159.4758 H   0  0  0  0  0  0  0  0  0  0  0  0
  150.3487  140.4440  158.8309 H   0  0  0  0  0  0  0  0  0  0  0  0
  151.9957  139.8649  158.7016 H   0  0  0  0  0  0  0  0  0  0  0  0
  1  2  1  0  0  0  0
  1 23  1  0  0  0  0
  1 24  1  0  0  0  0
  1 25  1  0  0  0  0
  2 22  1  0  0  0  0
  2  3  2  0  0  0  0
  3  4  1  0  0  0  0
  3 26  1  0  0  0  0
  4  5  2  0  0  0  0
  4 27  1  0  0  0  0
  5  6  1  0  0  0  0
  5 28  1  0  0  0  0
  6  7  1  0  0  0  0
  6 22  2  0  0  0  0
  7  8  1  0  0  0  0
  7 29  1  0  0  0  0
  8  9  2  0  0  0  0
  8 10  1  0  0  0  0
 10 11  1  0  0  0  0
 10 30  1  0  0  0  0
 11 17  1  0  0  0  0
 11 12  1  0  0  0  0
 11 31  1  0  0  0  0
 12 16  1  0  0  0  0
 12 13  1  0  0  0  0
 12 32  1  0  0  0  0
 13 14  1  0  0  0  0
 13 33  1  0  0  0  0
 13 34  1  0  0  0  0
 14 15  1  0  0  0  0
 14 35  1  0  0  0  0
 14 36  1  0  0  0  0
 15 16  1  0  0  0  0
 16 17  1  0  0  0  0
 16 37  1  0  0  0  0
 17 21  1  0  0  0  0
 17 18  1  0  0  0  0
 18 19  1  0  0  0  0
 18 38  1  0  0  0  0
 18 39  1  0  0  0  0
 19 20  1  0  0  0  0
 19 40  1  0  0  0  0
 19 41  1  0  0  0  0
 20 21  1  0  0  0  0
 20 42  1  0  0  0  0
 20 43  1  0  0  0  0
 21 44  1  0  0  0  0
 21 45  1  0  0  0  0
M  END
> <s_m_source_file>
AV-unprocessed.smi

> <i_m_source_file_index>
2329

> <i_lp_mmshare_version>
43012

> <i_f3d_flags>
0

> <s_epik_input>
W0NIM11jMVtjSF1bY0hdW2NIXWMobjEpW05IXUMoPU8pW05IXVtDQEBIXTJbQ0BASF0oW0NIMl1bQ0gyXU8zKVtDQEhdM0MyNFtDSDJdW0NIMl1bQ0gyXVtDSDJdNA==

> <s_epik_cmdline>
J2VwaWtfcHl0aG9uJywgJy1waCcsICc3LjAnLCAnLXRuJywgJzgnLCAnLW1hJywgJzIwMCcsICctbWV0YWxfYmluZGluZycsICctaW1hZScsICc8aW5maWxlLm1hZT4nLCAnLW9tYWUnLCAnPG91dGZpbGUubWFlPic=

> <r_lp_tautomer_probability>
1

> <r_epik_Ionization_Penalty>
8.97002e-05

> <r_epik_Ionization_Penalty_Charging>
0

> <r_epik_Ionization_Penalty_Neutral>
8.97002e-05

> <r_epik_State_Penalty>
-0

> <r_epik_Charging_Adjusted_Penalty>
0

> <i_epik_Tot_Q>
0

> <i_epik_Tot_abs_Q>
0

> <r_epik_Metal_State_Penalty>
-0

> <b_epik_Metal_Only>
0

> <s_lp_Force_Field>
OPLS_2005

> <r_lp_Energy>
90.3412

> <b_lp_Chiralities_Consistent>
1

> <s_lp_Variant>
AV-unprocessed.smi:2329-7

> <Gold.Version>
5.8.1

> <Gold.Id.Protein>
6NUR|6NUR_protein|mol2

> <Gold.PLP.Fitness>
50.0146

> <Gold.PLP.PLP>
-42.1445

> <Gold.PLP.part.hbond>
-5.0000

> <Gold.PLP.part.metal>
0.0000

> <Gold.PLP.part.buried>
-5.8313

> <Gold.PLP.part.nonpolar>
-31.4774

> <Gold.PLP.part.repulsive>
0.1988

> <Gold.PLP.ligand.clash>
0.0000

> <Gold.PLP.ligand.torsion>
0.4274

> <Gold.PLP.Chemscore.Hbond>
2.8185

> <Gold.PLP.Chemscore.CHOScore>
0.0000

> <Gold.PLP.Chemscore.Metal>
0.0000

> <Gold.Chemscore.Hbonds>
donor molecule, donor type, donor heavy atom, donor atom, acceptor molecule, acceptor atom, score
      P1  H  6931  6943       L1    22  0.96
      P1  H  6934  6947       L1    22  0.77
      P1  H  7989  7998       L1    15  0.07
      P1  H  7997  8010       L1    15  1.00

> <Gold.PLP.Chemscore.Internal.Correction>
0.2694

> <Gold.Rescore>
     Score         DG    S(hbond)    S(metal)    S(lipo)     H(rot)  DE(clash)    DE(int)     intcor
     20.66     -22.20       2.05        0.00     106.31       1.00       0.21       1.33       ----

> <Gold.Chemscore.Fitness>
20.6577

> <Gold.Chemscore.DG>
-22.2007

> <Gold.Chemscore.ZeroCoef>
-5.4800

> <Gold.Chemscore.Hbond>
2.0488

> <Gold.Chemscore.Metal>
0.0000

> <Gold.Chemscore.Lipo>
106.3057

> <Gold.Chemscore.Internal_Hbond>
0.0000

> <Gold.Chemscore.DEClash>
0.2141

> <Gold.Chemscore.DEInternal>
1.3289

> <Gold.Chemscore.Rot>
1.0000

> <Gold.Chemscore.Internal.Correction>
   9.000000E+99

> <Gold.Chemscore.Hbonds>
donor molecule, donor type, donor heavy atom, donor atom, acceptor molecule, acceptor atom, score
      P1  H  6931  6943       L1    22  0.27
      P1  H  6934  6947       L1    22  0.32
      P1  H  7997  8010       L1    15  0.77

> <Gold.Chemscore.Hbond.Weighted>
-6.8429

> <Gold.Chemscore.Metal.Weighted>
-0.0000

> <Gold.Chemscore.Lipo.Weighted>
-12.4378

> <Gold.Chemscore.Internal_Hbond.Weighted>
0.0000

> <Gold.Chemscore.DEClash.Weighted>
0.2141

> <Gold.Chemscore.DEInternal.Weighted>
1.3289

> <Gold.Chemscore.Rot.Weighted>
2.5600

> <Gold.Chemscore.Internal.Correction.Weighted>
   9.000000E+99

> <Gold.Protein.RotatedTorsions>
[ 6907 6896 6895 6894 ] final  -29.55 input  -60.11 | X-H torsion
[ 7974 7965 7964 7962 ] final  -89.57 input  175.53 | X-H torsion
[ 8008 7997 7996 7995 ] final  119.62 input   59.86 | X-H torsion
[ 10167 10162 10161 10158 ] final  -79.86 input  -65.29 | X-H torsion
[ 10718 10713 10712 10709 ] final  176.51 input   66.30 | X-H torsion
[ 10763 10752 10751 10750 ] final  167.04 input  -60.55 | X-H torsion
[ 11005 11000 10999 10996 ] final  -72.53 input  -57.11 | X-H torsion

> <Gold.Protein.ActiveResidues>
 VAL166  LYS551  ARG553  GLY616  TRP617  ASP618  TYR619  PRO620  LYS621  CYS622 
 ASP623  PHE694  ASN695  SER759  ASP760  ASP761  ALA762  ILE779  LEU786  VAL792 
 PHE793  MET794  SER795  GLU796  ALA797  LYS798  CYS799  TRP800  GLU811  SER814 

> <Gold.Protein.RotatedAtoms>
  151.1177  135.0062  159.8523 H   0  0  0  0  0  0  0  0  0  0  0  0  # atno 6907 bound_to 6896
  152.5446  134.1760  159.8626 H   0  0  0  0  0  0  0  0  0  0  0  0  # atno 6908 bound_to 6896
  151.1815  133.4677  159.2627 H   0  0  0  0  0  0  0  0  0  0  0  0  # atno 6909 bound_to 6896
  145.4381  140.9558  143.2090 H   0  0  0  0  0  0  0  0  0  0  0  0  # atno 7974 bound_to 7965
  156.2604  140.2849  156.1020 H   0  0  0  0  0  0  0  0  0  0  0  0  # atno 8008 bound_to 7997
  155.1349  140.0394  157.2801 H   0  0  0  0  0  0  0  0  0  0  0  0  # atno 8009 bound_to 7997
  154.6572  140.2558  155.7155 H   0  0  0  0  0  0  0  0  0  0  0  0  # atno 8010 bound_to 7997
  140.4555  143.2469  151.8426 H   0  0  0  0  0  0  0  0  0  0  0  0  # atno 10167 bound_to 10162
  156.9191  130.9934  151.3007 H   0  0  0  0  0  0  0  0  0  0  0  0  # atno 10718 bound_to 10713
  154.3479  135.2753  155.2388 H   0  0  0  0  0  0  0  0  0  0  0  0  # atno 10763 bound_to 10752
  154.4630  135.5902  153.6272 H   0  0  0  0  0  0  0  0  0  0  0  0  # atno 10764 bound_to 10752
  152.9852  135.6069  154.3686 H   0  0  0  0  0  0  0  0  0  0  0  0  # atno 10765 bound_to 10752
  141.1610  133.6850  156.7073 H   0  0  0  0  0  0  0  0  0  0  0  0  # atno 11005 bound_to 11000
  144.8139  139.5912  143.7017 LP  0  0  0  0  0  0  0  0  0  0  0  0  # atno 17320 bound_to 7965
  146.2571  139.6327  142.9387 LP  0  0  0  0  0  0  0  0  0  0  0  0  # atno 17321 bound_to 7965
  139.4801  144.5069  151.8985 LP  0  0  0  0  0  0  0  0  0  0  0  0  # atno 17342 bound_to 10162
  140.4156  144.2311  150.5888 LP  0  0  0  0  0  0  0  0  0  0  0  0  # atno 17343 bound_to 10162
  157.5919  130.8450  149.8672 LP  0  0  0  0  0  0  0  0  0  0  0  0  # atno 17370 bound_to 10713
  156.0499  130.3720  150.1225 LP  0  0  0  0  0  0  0  0  0  0  0  0  # atno 17371 bound_to 10713
  140.2914  134.8238  157.4019 LP  0  0  0  0  0  0  0  0  0  0  0  0  # atno 17394 bound_to 11000
  140.1344  134.5053  155.8080 LP  0  0  0  0  0  0  0  0  0  0  0  0  # atno 17395 bound_to 11000

$$$$
