AV-unprocessed.smi:2324|AV-procd|sdf|9291|dock2
  -GOLD-   2272012513D 1   1.00000     0.00000
 Structure written by MMmdl.
 37 39  0  0  0  0  0  0  0  0  1 V2000
  145.3872  138.1117  153.8225 O   0  0  0  0  0  0  0  0  0  0  0  0
  146.3969  137.5758  153.3686 C   0  0  0  0  0  0  0  0  0  0  0  0
  146.3195  136.4071  152.6973 N   0  0  0  0  0  0  0  0  0  0  0  0
  145.2082  135.5777  152.3659 C   0  0  0  0  0  0  0  0  0  0  0  0
  145.5431  134.3873  151.6855 C   0  0  0  0  0  0  0  0  0  0  0  0
  144.5079  133.5096  151.3213 C   0  0  0  0  0  0  0  0  0  0  0  0
  143.1975  133.8831  151.6642 C   0  0  0  0  0  0  0  0  0  0  0  0
  142.9198  135.0323  152.3164 N   0  0  0  0  0  0  0  0  0  0  0  0
  143.9112  135.8616  152.6590 N   0  0  0  0  0  0  0  0  0  0  0  0
  147.6239  138.1047  153.5089 N   0  0  0  0  0  0  0  0  0  0  0  0
  147.9342  139.3534  154.1976 C   0  0  2  0  0  0  0  0  0  0  0  0
  147.2965  140.5324  153.4512 C   0  0  0  0  0  0  0  0  0  0  0  0
  147.7057  141.8658  154.0949 C   0  0  0  0  0  0  0  0  0  0  0  0
  149.1263  141.9866  154.1334 O   0  0  0  0  0  0  0  0  0  0  0  0
  149.8084  140.9571  154.8522 C   0  0  1  0  0  0  0  0  0  0  0  0
  149.5774  141.0622  156.3539 C   0  0  0  0  0  0  0  0  0  0  0  0
  150.3891  142.0211  157.1926 C   0  0  0  0  0  0  0  0  0  0  0  0
  150.6021  140.5324  157.3293 C   0  0  0  0  0  0  0  0  0  0  0  0
  149.4552  139.5713  154.2777 C   0  0  0  0  0  0  0  0  0  0  0  0
  147.2090  136.0575  152.3719 H   0  0  0  0  0  0  0  0  0  0  0  0
  146.5695  134.1485  151.4470 H   0  0  0  0  0  0  0  0  0  0  0  0
  144.7105  132.5858  150.8000 H   0  0  0  0  0  0  0  0  0  0  0  0
  142.3584  133.2512  151.4136 H   0  0  0  0  0  0  0  0  0  0  0  0
  148.4023  137.6005  153.1080 H   0  0  0  0  0  0  0  0  0  0  0  0
  147.5161  139.3157  155.2050 H   0  0  0  0  0  0  0  0  0  0  0  0
  147.6123  140.5266  152.4069 H   0  0  0  0  0  0  0  0  0  0  0  0
  146.2100  140.4372  153.4493 H   0  0  0  0  0  0  0  0  0  0  0  0
  147.3047  142.6955  153.5129 H   0  0  0  0  0  0  0  0  0  0  0  0
  147.2839  141.9595  155.0957 H   0  0  0  0  0  0  0  0  0  0  0  0
  150.8724  141.1238  154.6797 H   0  0  0  0  0  0  0  0  0  0  0  0
  148.5417  140.9332  156.6601 H   0  0  0  0  0  0  0  0  0  0  0  0
  151.1679  142.5961  156.6956 H   0  0  0  0  0  0  0  0  0  0  0  0
  149.8774  142.5338  158.0045 H   0  0  0  0  0  0  0  0  0  0  0  0
  150.2314  140.0508  158.2316 H   0  0  0  0  0  0  0  0  0  0  0  0
  151.5219  140.1165  156.9232 H   0  0  0  0  0  0  0  0  0  0  0  0
  149.9261  138.7883  154.8733 H   0  0  0  0  0  0  0  0  0  0  0  0
  149.8811  139.4909  153.2764 H   0  0  0  0  0  0  0  0  0  0  0  0
  1  2  2  0  0  0  0
  2  3  1  0  0  0  0
  2 10  1  0  0  0  0
  3  4  1  0  0  0  0
  3 20  1  0  0  0  0
  4  9  1  0  0  0  0
  4  5  2  0  0  0  0
  5  6  1  0  0  0  0
  5 21  1  0  0  0  0
  6  7  2  0  0  0  0
  6 22  1  0  0  0  0
  7  8  1  0  0  0  0
  7 23  1  0  0  0  0
  8  9  2  0  0  0  0
 10 11  1  0  0  0  0
 10 24  1  0  0  0  0
 11 19  1  0  0  0  0
 11 12  1  0  0  0  0
 11 25  1  0  0  0  0
 12 13  1  0  0  0  0
 12 26  1  0  0  0  0
 12 27  1  0  0  0  0
 13 14  1  0  0  0  0
 13 28  1  0  0  0  0
 13 29  1  0  0  0  0
 14 15  1  0  0  0  0
 15 16  1  0  0  0  0
 15 19  1  0  0  0  0
 15 30  1  0  0  0  0
 16 18  1  0  0  0  0
 16 17  1  0  0  0  0
 16 31  1  0  0  0  0
 17 18  1  0  0  0  0
 17 32  1  0  0  0  0
 17 33  1  0  0  0  0
 18 34  1  0  0  0  0
 18 35  1  0  0  0  0
 19 36  1  0  0  0  0
 19 37  1  0  0  0  0
M  END
> <s_m_source_file>
AV-unprocessed.smi

> <i_m_source_file_index>
2324

> <i_lp_mmshare_version>
43012

> <i_f3d_flags>
0

> <s_epik_input>
bjFuW2NIXVtjSF1bY0hdYzFbTkhdQyg9TylbTkhdW0NAQEhdMltDSDJdW0NIMl1PW0NASF0oW0NIMl0yKVtDSF0zW0NIMl1bQ0gyXTM=

> <s_epik_cmdline>
J2VwaWtfcHl0aG9uJywgJy1waCcsICc3LjAnLCAnLXRuJywgJzgnLCAnLW1hJywgJzIwMCcsICctbWV0YWxfYmluZGluZycsICctaW1hZScsICc8aW5maWxlLm1hZT4nLCAnLW9tYWUnLCAnPG91dGZpbGUubWFlPic=

> <r_lp_tautomer_probability>
1

> <r_epik_Ionization_Penalty>
0.00521499

> <r_epik_Ionization_Penalty_Charging>
0

> <r_epik_Ionization_Penalty_Neutral>
0.00521499

> <r_epik_State_Penalty>
-0

> <r_epik_Charging_Adjusted_Penalty>
0

> <i_epik_Tot_Q>
0

> <i_epik_Tot_abs_Q>
0

> <r_epik_Metal_State_Penalty>
-0

> <b_epik_Metal_Only>
0

> <s_lp_Force_Field>
OPLS_2005

> <r_lp_Energy>
28.1305

> <b_lp_Chiralities_Consistent>
1

> <s_lp_Variant>
AV-unprocessed.smi:2324-1

> <Gold.Version>
5.8.1

> <Gold.Id.Protein>
6NUR|6NUR_protein|mol2

> <Gold.PLP.Fitness>
36.2652

> <Gold.PLP.PLP>
-27.5842

> <Gold.PLP.part.hbond>
-3.4759

> <Gold.PLP.part.metal>
0.0000

> <Gold.PLP.part.buried>
-0.9816

> <Gold.PLP.part.nonpolar>
-23.2205

> <Gold.PLP.part.repulsive>
0.7759

> <Gold.PLP.ligand.clash>
0.0000

> <Gold.PLP.ligand.torsion>
0.5670

> <Gold.PLP.Chemscore.Hbond>
2.3600

> <Gold.PLP.Chemscore.CHOScore>
0.5524

> <Gold.PLP.Chemscore.Metal>
0.0000

> <Gold.Chemscore.Hbonds>
donor molecule, donor type, donor heavy atom, donor atom, acceptor molecule, acceptor atom, score
      L1  H     3    20       P1  7948  1.00
      L1  H    10    24       P1  7948  0.93
      P1  H  8011  8017       L1    14  0.40
      L1  C     7    23       P1 10186  0.51

> <Gold.PLP.Chemscore.Internal.Correction>
1.0781

> <Gold.Rescore>
     Score         DG    S(hbond)    S(metal)    S(lipo)     H(rot)  DE(clash)    DE(int)     intcor
     14.83     -16.98       2.12        0.00      64.97       1.25       0.31       1.83       ----

> <Gold.Chemscore.Fitness>
14.8320

> <Gold.Chemscore.DG>
-16.9753

> <Gold.Chemscore.ZeroCoef>
-5.4800

> <Gold.Chemscore.Hbond>
2.1222

> <Gold.Chemscore.Metal>
0.0000

> <Gold.Chemscore.Lipo>
64.9663

> <Gold.Chemscore.Internal_Hbond>
0.0000

> <Gold.Chemscore.DEClash>
0.3087

> <Gold.Chemscore.DEInternal>
1.8346

> <Gold.Chemscore.Rot>
1.2476

> <Gold.Chemscore.Internal.Correction>
   9.000000E+99

> <Gold.Chemscore.Hbonds>
donor molecule, donor type, donor heavy atom, donor atom, acceptor molecule, acceptor atom, score
      L1  H     3    20       P1  7948  0.98
      L1  H    10    24       P1  7948  0.91
      P1  H  8011  8017       L1    14  0.28

> <Gold.Chemscore.Hbond.Weighted>
-7.0880

> <Gold.Chemscore.Metal.Weighted>
-0.0000

> <Gold.Chemscore.Lipo.Weighted>
-7.6011

> <Gold.Chemscore.Internal_Hbond.Weighted>
0.0000

> <Gold.Chemscore.DEClash.Weighted>
0.3087

> <Gold.Chemscore.DEInternal.Weighted>
1.8346

> <Gold.Chemscore.Rot.Weighted>
3.1938

> <Gold.Chemscore.Internal.Correction.Weighted>
   9.000000E+99

> <Gold.Protein.RotatedTorsions>
[ 6907 6896 6895 6894 ] final   40.96 input  -60.11 | X-H torsion
[ 7974 7965 7964 7962 ] final   -4.84 input  175.53 | X-H torsion
[ 8008 7997 7996 7995 ] final   12.38 input   59.86 | X-H torsion
[ 10167 10162 10161 10158 ] final  -95.65 input  -65.29 | X-H torsion
[ 10718 10713 10712 10709 ] final  152.61 input   66.30 | X-H torsion
[ 10763 10752 10751 10750 ] final   84.71 input  -60.55 | X-H torsion
[ 11005 11000 10999 10996 ] final  169.84 input  -57.11 | X-H torsion

> <Gold.Protein.ActiveResidues>
 VAL166  LYS551  ARG553  GLY616  TRP617  ASP618  TYR619  PRO620  LYS621  CYS622 
 ASP623  PHE694  ASN695  SER759  ASP760  ASP761  ALA762  ILE779  LEU786  VAL792 
 PHE793  MET794  SER795  GLU796  ALA797  LYS798  CYS799  TRP800  GLU811  SER814 

> <Gold.Protein.RotatedAtoms>
  152.1892  134.8686  160.0518 H   0  0  0  0  0  0  0  0  0  0  0  0  # atno 6907 bound_to 6896
  151.9581  133.3682  159.4033 H   0  0  0  0  0  0  0  0  0  0  0  0  # atno 6908 bound_to 6896
  150.6932  134.4193  159.5241 H   0  0  0  0  0  0  0  0  0  0  0  0  # atno 6909 bound_to 6896
  146.2364  140.1932  142.8333 H   0  0  0  0  0  0  0  0  0  0  0  0  # atno 7974 bound_to 7965
  154.8198  140.2882  155.5794 H   0  0  0  0  0  0  0  0  0  0  0  0  # atno 8008 bound_to 7997
  156.2996  140.2552  156.3034 H   0  0  0  0  0  0  0  0  0  0  0  0  # atno 8009 bound_to 7997
  154.9351  140.0382  157.2057 H   0  0  0  0  0  0  0  0  0  0  0  0  # atno 8010 bound_to 7997
  140.3019  143.3157  152.0239 H   0  0  0  0  0  0  0  0  0  0  0  0  # atno 10167 bound_to 10162
  157.2556  131.0787  151.1701 H   0  0  0  0  0  0  0  0  0  0  0  0  # atno 10718 bound_to 10713
  153.1407  135.4644  154.9491 H   0  0  0  0  0  0  0  0  0  0  0  0  # atno 10763 bound_to 10752
  154.7744  135.3168  154.8125 H   0  0  0  0  0  0  0  0  0  0  0  0  # atno 10764 bound_to 10752
  153.8648  135.6909  153.4833 H   0  0  0  0  0  0  0  0  0  0  0  0  # atno 10765 bound_to 10752
  140.3020  134.7587  157.3924 H   0  0  0  0  0  0  0  0  0  0  0  0  # atno 11005 bound_to 11000
  144.9841  140.8487  143.5379 LP  0  0  0  0  0  0  0  0  0  0  0  0  # atno 17320 bound_to 7965
  145.1929  139.2292  143.5233 LP  0  0  0  0  0  0  0  0  0  0  0  0  # atno 17321 bound_to 7965
  139.4913  144.6449  151.6799 LP  0  0  0  0  0  0  0  0  0  0  0  0  # atno 17342 bound_to 10162
  140.5643  144.0215  150.6185 LP  0  0  0  0  0  0  0  0  0  0  0  0  # atno 17343 bound_to 10162
  157.3231  130.6947  149.6280 LP  0  0  0  0  0  0  0  0  0  0  0  0  # atno 17370 bound_to 10713
  155.9665  130.4329  150.4985 LP  0  0  0  0  0  0  0  0  0  0  0  0  # atno 17371 bound_to 10713
  140.1100  134.5357  155.8274 LP  0  0  0  0  0  0  0  0  0  0  0  0  # atno 17394 bound_to 11000
  141.2126  133.6721  156.6672 LP  0  0  0  0  0  0  0  0  0  0  0  0  # atno 17395 bound_to 11000

$$$$
