AV-unprocessed.smi:2824|AV-procd|sdf|10886|dock3
  -GOLD-   2272015323D 1   1.00000     0.00000
 Structure written by MMmdl.
 38 39  0  0  0  0  0  0  0  0  1 V2000
  150.9238  142.0388  156.4394 C   0  0  0  0  0  0  0  0  0  0  0  0
  151.5016  142.7340  157.6579 C   0  0  0  0  0  0  0  0  0  0  0  0
  151.5876  144.1420  157.6813 C   0  0  0  0  0  0  0  0  0  0  0  0
  152.1196  144.8015  158.8040 C   0  0  0  0  0  0  0  0  0  0  0  0
  152.5685  144.0535  159.9068 C   0  0  0  0  0  0  0  0  0  0  0  0
  152.4845  142.6483  159.8888 C   0  0  0  0  0  0  0  0  0  0  0  0
  151.9483  141.9719  158.7630 C   0  0  0  0  0  0  0  0  0  0  0  0
  151.8349  140.5993  158.6763 O   0  0  0  0  0  0  0  0  0  0  0  0
  152.6779  139.7955  159.4909 C   0  0  0  0  0  0  0  0  0  0  0  0
  152.6057  138.3404  158.9987 C   0  0  2  0  0  0  0  0  0  0  0  0
  153.2288  137.5333  159.9793 O   0  0  0  0  0  0  0  0  0  0  0  0
  153.3710  138.1487  157.6701 C   0  0  0  0  0  0  0  0  0  0  0  0
  152.4756  137.8122  156.5567 N   0  0  0  0  0  0  0  0  0  0  0  0
  151.7320  136.6630  156.7610 N   0  0  0  0  0  0  0  0  0  0  0  0
  150.8923  136.2380  155.8729 C   0  0  0  0  0  0  0  0  0  0  0  0
  150.1255  134.9772  156.1884 C   0  0  0  0  0  0  0  0  0  0  0  0
  149.3269  135.1517  157.2419 F   0  0  0  0  0  0  0  0  0  0  0  0
  149.3764  134.6229  155.1437 F   0  0  0  0  0  0  0  0  0  0  0  0
  150.9711  133.9823  156.4583 F   0  0  0  0  0  0  0  0  0  0  0  0
  150.7348  136.9852  154.6360 C   0  0  0  0  0  0  0  0  0  0  0  0
  151.4631  138.1048  154.4381 C   0  0  0  0  0  0  0  0  0  0  0  0
  152.4109  138.5913  155.4375 C   0  0  0  0  0  0  0  0  0  0  0  0
  153.0869  139.6089  155.2882 O   0  0  0  0  0  0  0  0  0  0  0  0
  150.6147  142.7559  155.6782 H   0  0  0  0  0  0  0  0  0  0  0  0
  150.0526  141.4463  156.7196 H   0  0  0  0  0  0  0  0  0  0  0  0
  151.6650  141.3728  155.9967 H   0  0  0  0  0  0  0  0  0  0  0  0
  151.2448  144.7227  156.8375 H   0  0  0  0  0  0  0  0  0  0  0  0
  152.1838  145.8793  158.8190 H   0  0  0  0  0  0  0  0  0  0  0  0
  152.9787  144.5583  160.7690 H   0  0  0  0  0  0  0  0  0  0  0  0
  152.8413  142.1116  160.7545 H   0  0  0  0  0  0  0  0  0  0  0  0
  153.7004  140.1621  159.3861 H   0  0  0  0  0  0  0  0  0  0  0  0
  152.4045  139.8630  160.5455 H   0  0  0  0  0  0  0  0  0  0  0  0
  151.5611  138.0476  158.8845 H   0  0  0  0  0  0  0  0  0  0  0  0
  152.7048  136.7577  160.1084 H   0  0  0  0  0  0  0  0  0  0  0  0
  153.9063  139.0651  157.4142 H   0  0  0  0  0  0  0  0  0  0  0  0
  154.1517  137.3938  157.7850 H   0  0  0  0  0  0  0  0  0  0  0  0
  150.0393  136.6451  153.8832 H   0  0  0  0  0  0  0  0  0  0  0  0
  151.3425  138.6571  153.5177 H   0  0  0  0  0  0  0  0  0  0  0  0
  1  2  1  0  0  0  0
  1 24  1  0  0  0  0
  1 25  1  0  0  0  0
  1 26  1  0  0  0  0
  2  7  1  0  0  0  0
  2  3  2  0  0  0  0
  3  4  1  0  0  0  0
  3 27  1  0  0  0  0
  4  5  2  0  0  0  0
  4 28  1  0  0  0  0
  5  6  1  0  0  0  0
  5 29  1  0  0  0  0
  6  7  2  0  0  0  0
  6 30  1  0  0  0  0
  7  8  1  0  0  0  0
  8  9  1  0  0  0  0
  9 10  1  0  0  0  0
  9 31  1  0  0  0  0
  9 32  1  0  0  0  0
 10 11  1  0  0  0  0
 10 12  1  0  0  0  0
 10 33  1  0  0  0  0
 11 34  1  0  0  0  0
 12 13  1  0  0  0  0
 12 35  1  0  0  0  0
 12 36  1  0  0  0  0
 13 22  1  0  0  0  0
 13 14  1  0  0  0  0
 14 15  2  0  0  0  0
 15 16  1  0  0  0  0
 15 20  1  0  0  0  0
 16 17  1  0  0  0  0
 16 18  1  0  0  0  0
 16 19  1  0  0  0  0
 20 21  2  0  0  0  0
 20 37  1  0  0  0  0
 21 22  1  0  0  0  0
 21 38  1  0  0  0  0
 22 23  2  0  0  0  0
M  END
> <s_m_source_file>
AV-unprocessed.smi

> <i_m_source_file_index>
2824

> <i_lp_mmshare_version>
43012

> <i_f3d_flags>
0

> <s_epik_input>
W0NIM11jMVtjSF1bY0hdW2NIXVtjSF1jMU9bQ0gyXVtDQEhdKFtPSF0pW0NIMl1uMm5jKEMoRikoRilGKVtjSF1bY0hdYzI9Tw==

> <s_epik_cmdline>
J2VwaWtfcHl0aG9uJywgJy1waCcsICc3LjAnLCAnLXRuJywgJzgnLCAnLW1hJywgJzIwMCcsICctbWV0YWxfYmluZGluZycsICctaW1hZScsICc8aW5maWxlLm1hZT4nLCAnLW9tYWUnLCAnPG91dGZpbGUubWFlPic=

> <r_lp_tautomer_probability>
1

> <r_epik_Ionization_Penalty>
1.2156e-07

> <r_epik_Ionization_Penalty_Charging>
4.38548e-09

> <r_epik_Ionization_Penalty_Neutral>
1.17174e-07

> <r_epik_State_Penalty>
-0

> <r_epik_Charging_Adjusted_Penalty>
4.38548e-09

> <i_epik_Tot_Q>
0

> <i_epik_Tot_abs_Q>
0

> <r_epik_Metal_State_Penalty>
-0

> <b_epik_Metal_Only>
0

> <s_lp_Force_Field>
OPLS_2005

> <r_lp_Energy>
34.0835

> <b_lp_Chiralities_Consistent>
1

> <s_lp_Variant>
AV-unprocessed.smi:2824-1

> <Gold.Version>
5.8.1

> <Gold.Id.Protein>
6NUR|6NUR_protein|mol2

> <Gold.PLP.Fitness>
45.9580

> <Gold.PLP.PLP>
-45.2494

> <Gold.PLP.part.hbond>
-1.3084

> <Gold.PLP.part.metal>
0.0000

> <Gold.PLP.part.buried>
-5.7543

> <Gold.PLP.part.nonpolar>
-38.4616

> <Gold.PLP.part.repulsive>
0.0000

> <Gold.PLP.ligand.clash>
0.0000

> <Gold.PLP.ligand.torsion>
1.2153

> <Gold.PLP.Chemscore.Hbond>
1.0000

> <Gold.PLP.Chemscore.CHOScore>
0.0000

> <Gold.PLP.Chemscore.Metal>
0.0000

> <Gold.Chemscore.Hbonds>
donor molecule, donor type, donor heavy atom, donor atom, acceptor molecule, acceptor atom, score
      P1  H  7997  8010       L1    23  1.00

> <Gold.PLP.Chemscore.Internal.Correction>
0.1392

> <Gold.Rescore>
     Score         DG    S(hbond)    S(metal)    S(lipo)     H(rot)  DE(clash)    DE(int)     intcor
     14.88     -15.95       1.00        0.00     117.82       2.60       0.11       0.96       ----

> <Gold.Chemscore.Fitness>
14.8804

> <Gold.Chemscore.DG>
-15.9529

> <Gold.Chemscore.ZeroCoef>
-5.4800

> <Gold.Chemscore.Hbond>
0.9994

> <Gold.Chemscore.Metal>
0.0000

> <Gold.Chemscore.Lipo>
117.8217

> <Gold.Chemscore.Internal_Hbond>
0.0000

> <Gold.Chemscore.DEClash>
0.1145

> <Gold.Chemscore.DEInternal>
0.9580

> <Gold.Chemscore.Rot>
2.5978

> <Gold.Chemscore.Internal.Correction>
   9.000000E+99

> <Gold.Chemscore.Hbonds>
donor molecule, donor type, donor heavy atom, donor atom, acceptor molecule, acceptor atom, score
      P1  H  7997  8010       L1    23  0.99

> <Gold.Chemscore.Hbond.Weighted>
-3.3381

> <Gold.Chemscore.Metal.Weighted>
-0.0000

> <Gold.Chemscore.Lipo.Weighted>
-13.7851

> <Gold.Chemscore.Internal_Hbond.Weighted>
0.0000

> <Gold.Chemscore.DEClash.Weighted>
0.1145

> <Gold.Chemscore.DEInternal.Weighted>
0.9580

> <Gold.Chemscore.Rot.Weighted>
6.6504

> <Gold.Chemscore.Internal.Correction.Weighted>
   9.000000E+99

> <Gold.Protein.RotatedTorsions>
[ 6907 6896 6895 6894 ] final   40.81 input  -60.11 | X-H torsion
[ 7974 7965 7964 7962 ] final -107.22 input  175.53 | X-H torsion
[ 8008 7997 7996 7995 ] final  108.77 input   59.86 | X-H torsion
[ 10167 10162 10161 10158 ] final -114.15 input  -65.29 | X-H torsion
[ 10718 10713 10712 10709 ] final  103.53 input   66.30 | X-H torsion
[ 10763 10752 10751 10750 ] final  -80.67 input  -60.55 | X-H torsion
[ 11005 11000 10999 10996 ] final  145.89 input  -57.11 | X-H torsion

> <Gold.Protein.ActiveResidues>
 VAL166  LYS551  ARG553  GLY616  TRP617  ASP618  TYR619  PRO620  LYS621  CYS622 
 ASP623  PHE694  ASN695  SER759  ASP760  ASP761  ALA762  ILE779  LEU786  VAL792 
 PHE793  MET794  SER795  GLU796  ALA797  LYS798  CYS799  TRP800  GLU811  SER814 

> <Gold.Protein.RotatedAtoms>
  152.1872  134.8703  160.0520 H   0  0  0  0  0  0  0  0  0  0  0  0  # atno 6907 bound_to 6896
  151.9605  133.3689  159.4042 H   0  0  0  0  0  0  0  0  0  0  0  0  # atno 6908 bound_to 6896
  150.6928  134.4169  159.5231 H   0  0  0  0  0  0  0  0  0  0  0  0  # atno 6909 bound_to 6896
  145.2080  140.9084  143.3331 H   0  0  0  0  0  0  0  0  0  0  0  0  # atno 7974 bound_to 7965
  156.1928  140.3070  155.9367 H   0  0  0  0  0  0  0  0  0  0  0  0  # atno 8008 bound_to 7997
  155.3134  140.0452  157.3053 H   0  0  0  0  0  0  0  0  0  0  0  0  # atno 8009 bound_to 7997
  154.5473  140.2280  155.8551 H   0  0  0  0  0  0  0  0  0  0  0  0  # atno 8010 bound_to 7997
  140.1041  143.4586  152.1793 H   0  0  0  0  0  0  0  0  0  0  0  0  # atno 10167 bound_to 10162
  157.6769  131.0781  150.5570 H   0  0  0  0  0  0  0  0  0  0  0  0  # atno 10718 bound_to 10713
  154.5541  135.5653  153.6948 H   0  0  0  0  0  0  0  0  0  0  0  0  # atno 10763 bound_to 10752
  152.9998  135.6258  154.2334 H   0  0  0  0  0  0  0  0  0  0  0  0  # atno 10764 bound_to 10752
  154.2269  135.2867  155.2884 H   0  0  0  0  0  0  0  0  0  0  0  0  # atno 10765 bound_to 10752
  140.0749  134.9131  157.1405 H   0  0  0  0  0  0  0  0  0  0  0  0  # atno 11005 bound_to 11000
  144.9883  139.3715  143.6227 LP  0  0  0  0  0  0  0  0  0  0  0  0  # atno 17320 bound_to 7965
  146.3403  139.9054  142.8788 LP  0  0  0  0  0  0  0  0  0  0  0  0  # atno 17321 bound_to 7965
  139.5655  144.7432  151.4035 LP  0  0  0  0  0  0  0  0  0  0  0  0  # atno 17342 bound_to 10162
  140.6961  143.7744  150.7329 LP  0  0  0  0  0  0  0  0  0  0  0  0  # atno 17343 bound_to 10162
  156.5873  130.4320  149.5951 LP  0  0  0  0  0  0  0  0  0  0  0  0  # atno 17370 bound_to 10713
  156.2612  130.6963  151.1732 LP  0  0  0  0  0  0  0  0  0  0  0  0  # atno 17371 bound_to 10713
  140.3573  134.2533  155.7191 LP  0  0  0  0  0  0  0  0  0  0  0  0  # atno 17394 bound_to 11000
  141.2025  133.7935  157.0385 LP  0  0  0  0  0  0  0  0  0  0  0  0  # atno 17395 bound_to 11000

$$$$
