AV-unprocessed.smi:1633|AV-procd|sdf|6532|dock5
  -GOLD-   22720 7213D 1   1.00000     0.00000
 Structure written by MMmdl.
 51 53  0  0  0  0  0  0  0  0  2 V2000
  144.7007  145.8374  156.7074 C   0  0  0  0  0  0  0  0  0  0  0  0
  144.4905  144.3385  156.9329 C   0  0  0  0  0  0  0  0  0  0  0  0
  144.3547  143.9413  158.0898 O   0  0  0  0  0  0  0  0  0  0  0  0
  144.4603  143.5045  155.8660 N   0  0  0  0  0  0  0  0  0  0  0  0
  144.3069  142.0529  155.9972 C   0  0  0  0  0  0  0  0  0  0  0  0
  145.6073  141.3655  155.5437 C   0  0  0  0  0  0  0  0  0  0  0  0
  145.9809  141.7689  154.1617 N   0  3  0  0  0  0  0  0  0  0  0  0
  147.2153  141.0900  153.6907 C   0  0  0  0  0  0  0  0  0  0  0  0
  148.4560  141.4660  154.5245 C   0  0  2  0  0  0  0  0  0  0  0  0
  148.9665  142.6946  154.0429 O   0  0  0  0  0  0  0  0  0  0  0  0
  149.5531  140.3874  154.4380 C   0  0  0  0  0  0  0  0  0  0  0  0
  150.0955  140.0475  155.7414 N   0  0  0  0  0  0  0  0  0  0  0  0
  150.0588  138.8437  156.3446 C   0  0  0  0  0  0  0  0  0  0  0  0
  150.6075  138.7510  157.5520 N   0  0  0  0  0  0  0  0  0  0  0  0
  151.0565  140.0446  157.7554 C   0  0  0  0  0  0  0  0  0  0  0  0
  151.7292  140.6197  158.8556 C   0  0  0  0  0  0  0  0  0  0  0  0
  152.0933  141.9851  158.8495 C   0  0  0  0  0  0  0  0  0  0  0  0
  152.8118  142.5632  160.0557 C   0  0  0  0  0  0  0  0  0  0  0  0
  151.7873  142.7971  157.7277 C   0  0  0  0  0  0  0  0  0  0  0  0
  152.1714  144.2661  157.6976 C   0  0  0  0  0  0  0  0  0  0  0  0
  151.1151  142.2388  156.6205 C   0  0  0  0  0  0  0  0  0  0  0  0
  150.7551  140.8797  156.6400 C   0  0  0  0  0  0  0  0  0  0  0  0
  146.0057  143.2473  153.9828 C   0  0  0  0  0  0  0  0  0  0  0  0
  144.6972  143.8946  154.4725 C   0  0  0  0  0  0  0  0  0  0  0  0
  145.6601  146.0267  156.2251 H   0  0  0  0  0  0  0  0  0  0  0  0
  144.6942  146.3728  157.6574 H   0  0  0  0  0  0  0  0  0  0  0  0
  143.9037  146.2507  156.0886 H   0  0  0  0  0  0  0  0  0  0  0  0
  144.0606  141.7407  157.0130 H   0  0  0  0  0  0  0  0  0  0  0  0
  143.4722  141.7245  155.3759 H   0  0  0  0  0  0  0  0  0  0  0  0
  146.4193  141.6206  156.2267 H   0  0  0  0  0  0  0  0  0  0  0  0
  145.4800  140.2830  155.5893 H   0  0  0  0  0  0  0  0  0  0  0  0
  147.0592  140.0102  153.6994 H   0  0  0  0  0  0  0  0  0  0  0  0
  147.4058  141.3610  152.6507 H   0  0  0  0  0  0  0  0  0  0  0  0
  148.1856  141.5958  155.5720 H   0  0  0  0  0  0  0  0  0  0  0  0
  148.8444  143.3534  154.7104 H   0  0  0  0  0  0  0  0  0  0  0  0
  149.1523  139.4777  153.9885 H   0  0  0  0  0  0  0  0  0  0  0  0
  150.3696  140.7177  153.7944 H   0  0  0  0  0  0  0  0  0  0  0  0
  149.5980  137.9883  155.8728 H   0  0  0  0  0  0  0  0  0  0  0  0
  151.9626  140.0004  159.7093 H   0  0  0  0  0  0  0  0  0  0  0  0
  153.7997  142.9268  159.7730 H   0  0  0  0  0  0  0  0  0  0  0  0
  152.9416  141.8154  160.8385 H   0  0  0  0  0  0  0  0  0  0  0  0
  152.2444  143.3927  160.4780 H   0  0  0  0  0  0  0  0  0  0  0  0
  151.8860  144.7329  156.7543 H   0  0  0  0  0  0  0  0  0  0  0  0
  153.2490  144.3827  157.8149 H   0  0  0  0  0  0  0  0  0  0  0  0
  151.6742  144.8070  158.5030 H   0  0  0  0  0  0  0  0  0  0  0  0
  150.8733  142.8473  155.7616 H   0  0  0  0  0  0  0  0  0  0  0  0
  146.8504  143.6648  154.5331 H   0  0  0  0  0  0  0  0  0  0  0  0
  146.1545  143.5008  152.9342 H   0  0  0  0  0  0  0  0  0  0  0  0
  143.8612  143.5500  153.8620 H   0  0  0  0  0  0  0  0  0  0  0  0
  144.7436  144.9717  154.3199 H   0  0  0  0  0  0  0  0  0  0  0  0
  145.2368  141.4239  153.5715 H   0  0  0  0  0  0  0  0  0  0  0  0
  1  2  1  0  0  0  0
  1 25  1  0  0  0  0
  1 26  1  0  0  0  0
  1 27  1  0  0  0  0
  2  3  2  0  0  0  0
  2  4  1  0  0  0  0
  4 24  1  0  0  0  0
  4  5  1  0  0  0  0
  5  6  1  0  0  0  0
  5 28  1  0  0  0  0
  5 29  1  0  0  0  0
  6  7  1  0  0  0  0
  6 30  1  0  0  0  0
  6 31  1  0  0  0  0
  7  8  1  0  0  0  0
  7 23  1  0  0  0  0
  7 51  1  0  0  0  0
  8  9  1  0  0  0  0
  8 32  1  0  0  0  0
  8 33  1  0  0  0  0
  9 10  1  0  0  0  0
  9 11  1  0  0  0  0
  9 34  1  0  0  0  0
 10 35  1  0  0  0  0
 11 12  1  0  0  0  0
 11 36  1  0  0  0  0
 11 37  1  0  0  0  0
 12 22  1  0  0  0  0
 12 13  1  0  0  0  0
 13 14  2  0  0  0  0
 13 38  1  0  0  0  0
 14 15  1  0  0  0  0
 15 22  2  0  0  0  0
 15 16  1  0  0  0  0
 16 17  2  0  0  0  0
 16 39  1  0  0  0  0
 17 18  1  0  0  0  0
 17 19  1  0  0  0  0
 18 40  1  0  0  0  0
 18 41  1  0  0  0  0
 18 42  1  0  0  0  0
 19 20  1  0  0  0  0
 19 21  2  0  0  0  0
 20 43  1  0  0  0  0
 20 44  1  0  0  0  0
 20 45  1  0  0  0  0
 21 22  1  0  0  0  0
 21 46  1  0  0  0  0
 23 24  1  0  0  0  0
 23 47  1  0  0  0  0
 23 48  1  0  0  0  0
 24 49  1  0  0  0  0
 24 50  1  0  0  0  0
M  CHG  1   7   1
M  END
> <s_m_source_file>
AV-unprocessed.smi

> <i_m_source_file_index>
1633

> <i_lp_mmshare_version>
43012

> <i_f3d_flags>
0

> <s_epik_input>
W0NIM11DKD1PKU4xW0NIMl1bQ0gyXU4oW0NIMl1bQ0gyXTEpW0NIMl1bQ0BIXShbT0hdKVtDSDJdbihbY0hdbjIpYyhjMjMpW2NIXWMoW0NIM10pYyhbY0hdMylbQ0gzXQ==

> <s_epik_cmdline>
J2VwaWtfcHl0aG9uJywgJy1waCcsICc3LjAnLCAnLXRuJywgJzgnLCAnLW1hJywgJzIwMCcsICctbWV0YWxfYmluZGluZycsICctaW1hZScsICc8aW5maWxlLm1hZT4nLCAnLW9tYWUnLCAnPG91dGZpbGUubWFlPic=

> <r_epik_Ionization_Penalty>
0.0939669

> <r_epik_Ionization_Penalty_Charging>
0.00645254

> <r_epik_Ionization_Penalty_Neutral>
0.0875144

> <r_epik_State_Penalty>
0.0777239

> <r_epik_Charging_Adjusted_Penalty>
0.0841764

> <i_epik_Tot_Q>
1

> <i_epik_Tot_abs_Q>
1

> <r_epik_Metal_State_Penalty>
7.71307e-05

> <b_epik_Metal_Only>
0

> <s_lp_Force_Field>
OPLS_2005

> <r_lp_Energy>
43.6945

> <b_lp_Chiralities_Consistent>
1

> <s_lp_Variant>
AV-unprocessed.smi:1633-1

> <Gold.Version>
5.8.1

> <Gold.Id.Protein>
6NUR|6NUR_protein|mol2

> <Gold.PLP.Fitness>
52.7058

> <Gold.PLP.PLP>
-45.4600

> <Gold.PLP.part.hbond>
-3.2854

> <Gold.PLP.part.metal>
0.0000

> <Gold.PLP.part.buried>
-3.6427

> <Gold.PLP.part.nonpolar>
-38.1165

> <Gold.PLP.part.repulsive>
0.0449

> <Gold.PLP.ligand.clash>
0.0000

> <Gold.PLP.ligand.torsion>
0.9190

> <Gold.PLP.Chemscore.Hbond>
3.0000

> <Gold.PLP.Chemscore.CHOScore>
0.0000

> <Gold.PLP.Chemscore.Metal>
0.0000

> <Gold.Chemscore.Hbonds>
donor molecule, donor type, donor heavy atom, donor atom, acceptor molecule, acceptor atom, score
      L1  H     7    51       P1 10175  1.54
      L1  H    10    35       P1  8028  1.00
      P1  H  8011  8017       L1    10  0.02

> <Gold.PLP.Chemscore.Internal.Correction>
0.0838

> <Gold.Rescore>
     Score         DG    S(hbond)    S(metal)    S(lipo)     H(rot)  DE(clash)    DE(int)     intcor
     18.16     -19.25       2.02        0.00     107.35       2.16       0.03       1.06       ----

> <Gold.Chemscore.Fitness>
18.1589

> <Gold.Chemscore.DG>
-19.2495

> <Gold.Chemscore.ZeroCoef>
-5.4800

> <Gold.Chemscore.Hbond>
2.0184

> <Gold.Chemscore.Metal>
0.0000

> <Gold.Chemscore.Lipo>
107.3496

> <Gold.Chemscore.Internal_Hbond>
0.0000

> <Gold.Chemscore.DEClash>
0.0291

> <Gold.Chemscore.DEInternal>
1.0615

> <Gold.Chemscore.Rot>
2.1608

> <Gold.Chemscore.Internal.Correction>
   9.000000E+99

> <Gold.Chemscore.Hbonds>
donor molecule, donor type, donor heavy atom, donor atom, acceptor molecule, acceptor atom, score
      L1  H     7    51       P1 10175  0.17
      L1  H    10    35       P1  8028  0.99
      P1  H  8011  8017       L1    10  0.05

> <Gold.Chemscore.Hbond.Weighted>
-6.7413

> <Gold.Chemscore.Metal.Weighted>
-0.0000

> <Gold.Chemscore.Lipo.Weighted>
-12.5599

> <Gold.Chemscore.Internal_Hbond.Weighted>
0.0000

> <Gold.Chemscore.DEClash.Weighted>
0.0291

> <Gold.Chemscore.DEInternal.Weighted>
1.0615

> <Gold.Chemscore.Rot.Weighted>
5.5317

> <Gold.Chemscore.Internal.Correction.Weighted>
   9.000000E+99

> <Gold.Protein.RotatedTorsions>
[ 6907 6896 6895 6894 ] final  -90.58 input  -60.11 | X-H torsion
[ 7974 7965 7964 7962 ] final -121.99 input  175.53 | X-H torsion
[ 8008 7997 7996 7995 ] final   68.52 input   59.86 | X-H torsion
[ 10167 10162 10161 10158 ] final -107.48 input  -65.29 | X-H torsion
[ 10718 10713 10712 10709 ] final -126.92 input   66.30 | X-H torsion
[ 10763 10752 10751 10750 ] final   35.69 input  -60.55 | X-H torsion
[ 11005 11000 10999 10996 ] final -124.61 input  -57.11 | X-H torsion

> <Gold.Protein.ActiveResidues>
 VAL166  LYS551  ARG553  GLY616  TRP617  ASP618  TYR619  PRO620  LYS621  CYS622 
 ASP623  PHE694  ASN695  SER759  ASP760  ASP761  ALA762  ILE779  LEU786  VAL792 
 PHE793  MET794  SER795  GLU796  ALA797  LYS798  CYS799  TRP800  GLU811  SER814 

> <Gold.Protein.RotatedAtoms>
  150.6883  134.2410  159.4472 H   0  0  0  0  0  0  0  0  0  0  0  0  # atno 6907 bound_to 6896
  152.0355  134.9740  160.0582 H   0  0  0  0  0  0  0  0  0  0  0  0  # atno 6908 bound_to 6896
  152.1263  133.4347  159.4736 H   0  0  0  0  0  0  0  0  0  0  0  0  # atno 6909 bound_to 6896
  145.0343  140.8093  143.4304 H   0  0  0  0  0  0  0  0  0  0  0  0  # atno 7974 bound_to 7965
  155.7096  140.3494  155.4968 H   0  0  0  0  0  0  0  0  0  0  0  0  # atno 8008 bound_to 7997
  155.9367  140.1094  157.1110 H   0  0  0  0  0  0  0  0  0  0  0  0  # atno 8009 bound_to 7997
  154.4095  140.1220  156.4860 H   0  0  0  0  0  0  0  0  0  0  0  0  # atno 8010 bound_to 7997
  140.1764  143.4001  152.1315 H   0  0  0  0  0  0  0  0  0  0  0  0  # atno 10167 bound_to 10162
  156.1809  130.6731  151.0304 H   0  0  0  0  0  0  0  0  0  0  0  0  # atno 10718 bound_to 10713
  153.0108  135.6326  154.1866 H   0  0  0  0  0  0  0  0  0  0  0  0  # atno 10763 bound_to 10752
  154.1608  135.2823  155.3111 H   0  0  0  0  0  0  0  0  0  0  0  0  # atno 10764 bound_to 10752
  154.5983  135.5595  153.7408 H   0  0  0  0  0  0  0  0  0  0  0  0  # atno 10765 bound_to 10752
  140.9827  134.0650  157.3746 H   0  0  0  0  0  0  0  0  0  0  0  0  # atno 11005 bound_to 11000
  145.1729  139.2394  143.5332 LP  0  0  0  0  0  0  0  0  0  0  0  0  # atno 17320 bound_to 7965
  146.3502  140.1485  142.8593 LP  0  0  0  0  0  0  0  0  0  0  0  0  # atno 17321 bound_to 7965
  139.5315  144.7164  151.5040 LP  0  0  0  0  0  0  0  0  0  0  0  0  # atno 17342 bound_to 10162
  140.6548  143.8622  150.6823 LP  0  0  0  0  0  0  0  0  0  0  0  0  # atno 17343 bound_to 10162
  157.6868  131.0822  150.7221 LP  0  0  0  0  0  0  0  0  0  0  0  0  # atno 17370 bound_to 10713
  156.7278  130.4700  149.5507 LP  0  0  0  0  0  0  0  0  0  0  0  0  # atno 17371 bound_to 10713
  139.8957  135.0142  156.7015 LP  0  0  0  0  0  0  0  0  0  0  0  0  # atno 17394 bound_to 11000
  140.7162  133.9180  155.8116 LP  0  0  0  0  0  0  0  0  0  0  0  0  # atno 17395 bound_to 11000

$$$$
