AV-unprocessed.smi:710|AV-procd|sdf|3462|dock4
  -GOLD-   22720 0453D 1   1.00000     0.00000
 Structure written by MMmdl.
 40 41  0  0  0  0  0  0  0  0  1 V2000
  153.2544  140.5839  159.6488 C   0  0  0  0  0  0  0  0  0  0  0  0
  152.7616  141.8989  160.1817 C   0  0  0  0  0  0  0  0  0  0  0  0
  152.9568  142.1984  161.4551 N   0  0  0  0  0  0  0  0  0  0  0  0
  152.4154  143.4236  161.6074 N   0  0  0  0  0  0  0  0  0  0  0  0
  152.4633  144.0660  162.9063 C   0  0  0  0  0  0  0  0  0  0  0  0
  151.8706  143.8962  160.4293 C   0  0  0  0  0  0  0  0  0  0  0  0
  151.2160  145.2375  160.3374 C   0  0  0  0  0  0  0  0  0  0  0  0
  152.0771  142.9325  159.4777 C   0  0  0  0  0  0  0  0  0  0  0  0
  151.6896  142.9419  158.0193 C   0  0  0  0  0  0  0  0  0  0  0  0
  150.8520  141.7047  157.6923 C   0  0  0  0  0  0  0  0  0  0  0  0
  150.3415  141.0449  158.5968 O   0  0  0  0  0  0  0  0  0  0  0  0
  150.7177  141.4045  156.3930 N   0  0  0  0  0  0  0  0  0  0  0  0
  149.9922  140.2547  155.8700 C   0  0  0  0  0  0  0  0  0  0  0  0
  148.9790  140.6728  154.7829 C   0  0  1  0  0  0  0  0  0  0  0  0
  149.7016  140.9091  153.5868 O   0  0  0  0  0  0  0  0  0  0  0  0
  147.9555  139.5634  154.4904 C   0  0  0  0  0  0  0  0  0  0  0  0
  146.8346  140.1693  153.6387 C   0  0  0  0  0  0  0  0  0  0  0  0
  146.6366  141.8983  154.1397 S   0  0  0  0  0  0  0  0  0  0  0  0
  148.1513  141.9221  155.1355 C   0  0  0  0  0  0  0  0  0  0  0  0
  153.7711  140.7176  158.6982 H   0  0  0  0  0  0  0  0  0  0  0  0
  152.4246  139.8970  159.4817 H   0  0  0  0  0  0  0  0  0  0  0  0
  153.9510  140.1033  160.3369 H   0  0  0  0  0  0  0  0  0  0  0  0
  152.8890  145.0649  162.8066 H   0  0  0  0  0  0  0  0  0  0  0  0
  153.0786  143.4898  163.5990 H   0  0  0  0  0  0  0  0  0  0  0  0
  151.4544  144.1464  163.3118 H   0  0  0  0  0  0  0  0  0  0  0  0
  150.6877  145.3568  159.3919 H   0  0  0  0  0  0  0  0  0  0  0  0
  151.9581  146.0329  160.4074 H   0  0  0  0  0  0  0  0  0  0  0  0
  150.4927  145.3759  161.1410 H   0  0  0  0  0  0  0  0  0  0  0  0
  151.1173  143.8359  157.7688 H   0  0  0  0  0  0  0  0  0  0  0  0
  152.5658  142.9568  157.3704 H   0  0  0  0  0  0  0  0  0  0  0  0
  151.1797  141.9970  155.7187 H   0  0  0  0  0  0  0  0  0  0  0  0
  150.6927  139.5131  155.4812 H   0  0  0  0  0  0  0  0  0  0  0  0
  149.4659  139.7842  156.7023 H   0  0  0  0  0  0  0  0  0  0  0  0
  149.5692  140.1743  153.0073 H   0  0  0  0  0  0  0  0  0  0  0  0
  148.4078  138.6961  154.0071 H   0  0  0  0  0  0  0  0  0  0  0  0
  147.5264  139.2119  155.4298 H   0  0  0  0  0  0  0  0  0  0  0  0
  147.1118  140.1507  152.5843 H   0  0  0  0  0  0  0  0  0  0  0  0
  145.8981  139.6214  153.7443 H   0  0  0  0  0  0  0  0  0  0  0  0
  147.8510  141.8857  156.1833 H   0  0  0  0  0  0  0  0  0  0  0  0
  148.7022  142.8517  154.9866 H   0  0  0  0  0  0  0  0  0  0  0  0
  1  2  1  0  0  0  0
  1 20  1  0  0  0  0
  1 21  1  0  0  0  0
  1 22  1  0  0  0  0
  2  8  1  0  0  0  0
  2  3  2  0  0  0  0
  3  4  1  0  0  0  0
  4  5  1  0  0  0  0
  4  6  1  0  0  0  0
  5 23  1  0  0  0  0
  5 24  1  0  0  0  0
  5 25  1  0  0  0  0
  6  7  1  0  0  0  0
  6  8  2  0  0  0  0
  7 26  1  0  0  0  0
  7 27  1  0  0  0  0
  7 28  1  0  0  0  0
  8  9  1  0  0  0  0
  9 10  1  0  0  0  0
  9 29  1  0  0  0  0
  9 30  1  0  0  0  0
 10 11  2  0  0  0  0
 10 12  1  0  0  0  0
 12 13  1  0  0  0  0
 12 31  1  0  0  0  0
 13 14  1  0  0  0  0
 13 32  1  0  0  0  0
 13 33  1  0  0  0  0
 14 19  1  0  0  0  0
 14 15  1  0  0  0  0
 14 16  1  0  0  0  0
 15 34  1  0  0  0  0
 16 17  1  0  0  0  0
 16 35  1  0  0  0  0
 16 36  1  0  0  0  0
 17 18  1  0  0  0  0
 17 37  1  0  0  0  0
 17 38  1  0  0  0  0
 18 19  1  0  0  0  0
 19 39  1  0  0  0  0
 19 40  1  0  0  0  0
M  END
> <s_m_source_file>
AV-unprocessed.smi

> <i_m_source_file_index>
710

> <i_lp_mmshare_version>
43012

> <i_f3d_flags>
0

> <s_epik_input>
W0NIM11jMW5uKFtDSDNdKWMoW0NIM10pYzFbQ0gyXUMoPU8pW05IXVtDSDJdW0NAQF0yKFtPSF0pW0NIMl1bQ0gyXVNbQ0gyXTI=

> <s_epik_cmdline>
J2VwaWtfcHl0aG9uJywgJy1waCcsICc3LjAnLCAnLXRuJywgJzgnLCAnLW1hJywgJzIwMCcsICctbWV0YWxfYmluZGluZycsICctaW1hZScsICc8aW5maWxlLm1hZT4nLCAnLW9tYWUnLCAnPG91dGZpbGUubWFlPic=

> <r_lp_tautomer_probability>
1

> <r_epik_Ionization_Penalty>
0.00343686

> <r_epik_Ionization_Penalty_Charging>
0

> <r_epik_Ionization_Penalty_Neutral>
0.00343686

> <r_epik_State_Penalty>
0.00243544

> <r_epik_Charging_Adjusted_Penalty>
0.00243544

> <i_epik_Tot_Q>
0

> <i_epik_Tot_abs_Q>
0

> <r_epik_Metal_State_Penalty>
-0

> <b_epik_Metal_Only>
0

> <s_lp_Force_Field>
OPLS_2005

> <r_lp_Energy>
10.7161

> <b_lp_Chiralities_Consistent>
1

> <s_lp_Variant>
AV-unprocessed.smi:710-1

> <Gold.Version>
5.8.1

> <Gold.Id.Protein>
6NUR|6NUR_protein|mol2

> <Gold.PLP.Fitness>
47.4124

> <Gold.PLP.PLP>
-42.4315

> <Gold.PLP.part.hbond>
-2.4364

> <Gold.PLP.part.metal>
0.0000

> <Gold.PLP.part.buried>
-3.4740

> <Gold.PLP.part.nonpolar>
-35.9672

> <Gold.PLP.part.repulsive>
0.1267

> <Gold.PLP.ligand.clash>
0.0000

> <Gold.PLP.ligand.torsion>
0.4574

> <Gold.PLP.Chemscore.Hbond>
1.9608

> <Gold.PLP.Chemscore.CHOScore>
0.0000

> <Gold.PLP.Chemscore.Metal>
0.0000

> <Gold.Chemscore.Hbonds>
donor molecule, donor type, donor heavy atom, donor atom, acceptor molecule, acceptor atom, score
      L1  H    15    34       P1  7957  0.62
      P1  H  7989  7998       L1    15  0.25
      P1  H  8011  8017       L1    15  1.00

> <Gold.PLP.Chemscore.Internal.Correction>
0.0133

> <Gold.Rescore>
     Score         DG    S(hbond)    S(metal)    S(lipo)     H(rot)  DE(clash)    DE(int)     intcor
     15.92     -17.94       1.35        0.00     113.28       2.07       0.78       1.24       ----

> <Gold.Chemscore.Fitness>
15.9150

> <Gold.Chemscore.DG>
-17.9392

> <Gold.Chemscore.ZeroCoef>
-5.4800

> <Gold.Chemscore.Hbond>
1.3526

> <Gold.Chemscore.Metal>
0.0000

> <Gold.Chemscore.Lipo>
113.2784

> <Gold.Chemscore.Internal_Hbond>
0.0000

> <Gold.Chemscore.DEClash>
0.7825

> <Gold.Chemscore.DEInternal>
1.2416

> <Gold.Chemscore.Rot>
2.0750

> <Gold.Chemscore.Internal.Correction>
   9.000000E+99

> <Gold.Chemscore.Hbonds>
donor molecule, donor type, donor heavy atom, donor atom, acceptor molecule, acceptor atom, score
      L1  H    15    34       P1  7957  0.62
      P1  H  7989  7998       L1    15  0.03
      P1  H  8011  8017       L1    15  0.33

> <Gold.Chemscore.Hbond.Weighted>
-4.5176

> <Gold.Chemscore.Metal.Weighted>
-0.0000

> <Gold.Chemscore.Lipo.Weighted>
-13.2536

> <Gold.Chemscore.Internal_Hbond.Weighted>
0.0000

> <Gold.Chemscore.DEClash.Weighted>
0.7825

> <Gold.Chemscore.DEInternal.Weighted>
1.2416

> <Gold.Chemscore.Rot.Weighted>
5.3120

> <Gold.Chemscore.Internal.Correction.Weighted>
   9.000000E+99

> <Gold.Protein.RotatedTorsions>
[ 6907 6896 6895 6894 ] final -107.18 input  -60.11 | X-H torsion
[ 7974 7965 7964 7962 ] final  -90.22 input  175.53 | X-H torsion
[ 8008 7997 7996 7995 ] final   90.55 input   59.86 | X-H torsion
[ 10167 10162 10161 10158 ] final   62.82 input  -65.29 | X-H torsion
[ 10718 10713 10712 10709 ] final  -34.25 input   66.30 | X-H torsion
[ 10763 10752 10751 10750 ] final -112.62 input  -60.55 | X-H torsion
[ 11005 11000 10999 10996 ] final  112.21 input  -57.11 | X-H torsion

> <Gold.Protein.ActiveResidues>
 VAL166  LYS551  ARG553  GLY616  TRP617  ASP618  TYR619  PRO620  LYS621  CYS622 
 ASP623  PHE694  ASN695  SER759  ASP760  ASP761  ALA762  ILE779  LEU786  VAL792 
 PHE793  MET794  SER795  GLU796  ALA797  LYS798  CYS799  TRP800  GLU811  SER814 

> <Gold.Protein.RotatedAtoms>
  150.7430  133.9865  159.3592 H   0  0  0  0  0  0  0  0  0  0  0  0  # atno 6907 bound_to 6896
  151.7810  135.0759  160.0383 H   0  0  0  0  0  0  0  0  0  0  0  0  # atno 6908 bound_to 6896
  152.3274  133.5883  159.5822 H   0  0  0  0  0  0  0  0  0  0  0  0  # atno 6909 bound_to 6896
  145.4294  140.9555  143.2136 H   0  0  0  0  0  0  0  0  0  0  0  0  # atno 7974 bound_to 7965
  156.0133  140.3348  155.6963 H   0  0  0  0  0  0  0  0  0  0  0  0  # atno 8008 bound_to 7997
  155.6126  140.0667  157.2719 H   0  0  0  0  0  0  0  0  0  0  0  0  # atno 8009 bound_to 7997
  154.4289  140.1791  156.1276 H   0  0  0  0  0  0  0  0  0  0  0  0  # atno 8010 bound_to 7997
  140.1397  144.4565  150.6818 H   0  0  0  0  0  0  0  0  0  0  0  0  # atno 10167 bound_to 10162
  156.3528  130.4311  149.7690 H   0  0  0  0  0  0  0  0  0  0  0  0  # atno 10718 bound_to 10713
  154.8358  135.4484  154.1223 H   0  0  0  0  0  0  0  0  0  0  0  0  # atno 10763 bound_to 10752
  153.2455  135.6921  153.7742 H   0  0  0  0  0  0  0  0  0  0  0  0  # atno 10764 bound_to 10752
  153.7074  135.3362  155.3214 H   0  0  0  0  0  0  0  0  0  0  0  0  # atno 10765 bound_to 10752
  139.8922  134.9525  156.6551 H   0  0  0  0  0  0  0  0  0  0  0  0  # atno 11005 bound_to 11000
  144.8193  139.5821  143.6994 LP  0  0  0  0  0  0  0  0  0  0  0  0  # atno 17320 bound_to 7965
  146.2615  139.6421  142.9359 LP  0  0  0  0  0  0  0  0  0  0  0  0  # atno 17321 bound_to 7965
  140.6768  143.2308  151.5488 LP  0  0  0  0  0  0  0  0  0  0  0  0  # atno 17342 bound_to 10162
  139.5478  144.2475  152.1475 LP  0  0  0  0  0  0  0  0  0  0  0  0  # atno 17343 bound_to 10162
  156.4883  130.8073  151.3084 LP  0  0  0  0  0  0  0  0  0  0  0  0  # atno 17370 bound_to 10713
  157.7463  130.9983  150.2849 LP  0  0  0  0  0  0  0  0  0  0  0  0  # atno 17371 bound_to 10713
  140.7490  133.8913  155.8333 LP  0  0  0  0  0  0  0  0  0  0  0  0  # atno 17394 bound_to 11000
  141.0016  134.1143  157.4312 LP  0  0  0  0  0  0  0  0  0  0  0  0  # atno 17395 bound_to 11000

$$$$
