AV-unprocessed.smi:213|AV-procd|sdf|1647|dock6
  -GOLD-   2262020 23D 1   1.00000     0.00000
 Structure written by MMmdl.
 58 61  0  0  0  0  0  0  0  0  1 V2000
  149.2868  141.8554  157.9559 C   0  0  0  0  0  0  0  0  0  0  0  0
  150.5309  140.9875  157.6970 C   0  0  2  0  0  0  0  0  0  0  0  0
  151.8128  141.6104  158.2940 C   0  0  0  0  0  0  0  0  0  0  0  0
  151.6330  142.3355  159.5524 N   0  0  0  0  0  0  0  0  0  0  0  0
  151.6348  143.7776  159.3296 C   0  0  0  0  0  0  0  0  0  0  0  0
  151.4422  144.5622  160.6387 C   0  0  0  0  0  0  0  0  0  0  0  0
  152.4588  144.1971  161.5659 O   0  0  0  0  0  0  0  0  0  0  0  0
  152.4679  142.8017  161.8481 C   0  0  0  0  0  0  0  0  0  0  0  0
  152.6581  142.0093  160.5428 C   0  0  0  0  0  0  0  0  0  0  0  0
  150.6967  140.7231  156.2651 N   0  0  0  0  0  0  0  0  0  0  0  0
  150.8694  141.8142  155.3085 C   0  0  0  0  0  0  0  0  0  0  0  0
  150.7905  139.4460  155.8084 C   0  0  0  0  0  0  0  0  0  0  0  0
  151.4517  139.2274  154.6405 N   0  0  0  0  0  0  0  0  0  0  0  0
  151.5779  137.9904  154.1525 C   0  0  0  0  0  0  0  0  0  0  0  0
  151.1221  136.8439  154.6586 N   0  0  0  0  0  0  0  0  0  0  0  0
  150.4420  137.0535  155.8216 C   0  0  0  0  0  0  0  0  0  0  0  0
  150.2294  138.3083  156.4624 C   0  0  0  0  0  0  0  0  0  0  0  0
  149.4750  138.1189  157.6164 N   0  0  0  0  0  0  0  0  0  0  0  0
  149.2661  136.8321  157.6608 C   0  0  0  0  0  0  0  0  0  0  0  0
  149.8100  136.1165  156.6203 N   0  0  0  0  0  0  0  0  0  0  0  0
  149.7203  134.6812  156.4172 C   0  0  0  0  0  0  0  0  0  0  0  0
  148.9351  134.3166  155.1417 C   0  0  1  0  0  0  0  0  0  0  0  0
  149.6546  134.7013  153.9851 O   0  0  0  0  0  0  0  0  0  0  0  0
  148.5567  132.8221  155.0785 C   0  0  1  0  0  0  0  0  0  0  0  0
  148.1956  132.2645  153.6983 C   0  0  0  0  0  0  0  0  0  0  0  0
  148.4650  130.7895  153.8969 C   0  0  0  0  0  0  0  0  0  0  0  0
  149.7116  130.8177  154.7778 C   0  0  0  0  0  0  0  0  0  0  0  0
  149.5918  131.9842  155.5873 O   0  0  0  0  0  0  0  0  0  0  0  0
  149.1050  141.9697  159.0246 H   0  0  0  0  0  0  0  0  0  0  0  0
  148.3951  141.4032  157.5217 H   0  0  0  0  0  0  0  0  0  0  0  0
  149.3934  142.8539  157.5320 H   0  0  0  0  0  0  0  0  0  0  0  0
  150.3812  140.0344  158.1976 H   0  0  0  0  0  0  0  0  0  0  0  0
  152.5605  140.8283  158.4363 H   0  0  0  0  0  0  0  0  0  0  0  0
  152.2350  142.2910  157.5534 H   0  0  0  0  0  0  0  0  0  0  0  0
  152.5740  144.0793  158.8631 H   0  0  0  0  0  0  0  0  0  0  0  0
  150.8407  144.0453  158.6317 H   0  0  0  0  0  0  0  0  0  0  0  0
  151.4990  145.6343  160.4503 H   0  0  0  0  0  0  0  0  0  0  0  0
  150.4589  144.3631  161.0681 H   0  0  0  0  0  0  0  0  0  0  0  0
  153.2774  142.5840  162.5451 H   0  0  0  0  0  0  0  0  0  0  0  0
  151.5364  142.5167  162.3401 H   0  0  0  0  0  0  0  0  0  0  0  0
  152.6373  140.9465  160.7798 H   0  0  0  0  0  0  0  0  0  0  0  0
  153.6478  142.2198  160.1346 H   0  0  0  0  0  0  0  0  0  0  0  0
  150.3591  141.5933  154.3701 H   0  0  0  0  0  0  0  0  0  0  0  0
  151.9278  141.9703  155.0975 H   0  0  0  0  0  0  0  0  0  0  0  0
  150.4616  142.7481  155.6942 H   0  0  0  0  0  0  0  0  0  0  0  0
  152.1224  137.9074  153.2236 H   0  0  0  0  0  0  0  0  0  0  0  0
  148.7009  136.3673  158.4555 H   0  0  0  0  0  0  0  0  0  0  0  0
  150.7299  134.2700  156.3790 H   0  0  0  0  0  0  0  0  0  0  0  0
  149.2393  134.2435  157.2927 H   0  0  0  0  0  0  0  0  0  0  0  0
  148.0088  134.8924  155.1320 H   0  0  0  0  0  0  0  0  0  0  0  0
  149.1478  135.3461  153.5161 H   0  0  0  0  0  0  0  0  0  0  0  0
  147.6992  132.6610  155.7342 H   0  0  0  0  0  0  0  0  0  0  0  0
  147.1660  132.4768  153.4095 H   0  0  0  0  0  0  0  0  0  0  0  0
  148.8545  132.6507  152.9200 H   0  0  0  0  0  0  0  0  0  0  0  0
  147.6356  130.3247  154.4322 H   0  0  0  0  0  0  0  0  0  0  0  0
  148.6156  130.2490  152.9620 H   0  0  0  0  0  0  0  0  0  0  0  0
  149.8144  129.9185  155.3856 H   0  0  0  0  0  0  0  0  0  0  0  0
  150.6076  130.9152  154.1635 H   0  0  0  0  0  0  0  0  0  0  0  0
  1  2  1  0  0  0  0
  1 29  1  0  0  0  0
  1 30  1  0  0  0  0
  1 31  1  0  0  0  0
  2  3  1  0  0  0  0
  2 10  1  0  0  0  0
  2 32  1  0  0  0  0
  3  4  1  0  0  0  0
  3 33  1  0  0  0  0
  3 34  1  0  0  0  0
  4  9  1  0  0  0  0
  4  5  1  0  0  0  0
  5  6  1  0  0  0  0
  5 35  1  0  0  0  0
  5 36  1  0  0  0  0
  6  7  1  0  0  0  0
  6 37  1  0  0  0  0
  6 38  1  0  0  0  0
  7  8  1  0  0  0  0
  8  9  1  0  0  0  0
  8 39  1  0  0  0  0
  8 40  1  0  0  0  0
  9 41  1  0  0  0  0
  9 42  1  0  0  0  0
 10 11  1  0  0  0  0
 10 12  1  0  0  0  0
 11 43  1  0  0  0  0
 11 44  1  0  0  0  0
 11 45  1  0  0  0  0
 12 17  1  0  0  0  0
 12 13  2  0  0  0  0
 13 14  1  0  0  0  0
 14 15  2  0  0  0  0
 14 46  1  0  0  0  0
 15 16  1  0  0  0  0
 16 20  1  0  0  0  0
 16 17  2  0  0  0  0
 17 18  1  0  0  0  0
 18 19  2  0  0  0  0
 19 20  1  0  0  0  0
 19 47  1  0  0  0  0
 20 21  1  0  0  0  0
 21 22  1  0  0  0  0
 21 48  1  0  0  0  0
 21 49  1  0  0  0  0
 22 23  1  0  0  0  0
 22 24  1  0  0  0  0
 22 50  1  0  0  0  0
 23 51  1  0  0  0  0
 24 28  1  0  0  0  0
 24 25  1  0  0  0  0
 24 52  1  0  0  0  0
 25 26  1  0  0  0  0
 25 53  1  0  0  0  0
 25 54  1  0  0  0  0
 26 27  1  0  0  0  0
 26 55  1  0  0  0  0
 26 56  1  0  0  0  0
 27 28  1  0  0  0  0
 27 57  1  0  0  0  0
 27 58  1  0  0  0  0
M  END
> <s_m_source_file>
AV-unprocessed.smi

> <i_m_source_file_index>
213

> <i_lp_mmshare_version>
43012

> <i_f3d_flags>
0

> <s_epik_input>
W0NIMl0xW0NIMl1PW0NIMl1bQ0gyXU4xW0NIMl1bQ0BASF0oW0NIM10pTihbQ0gzXSljKG5bY0hdbjIpYyhjMjMpbltjSF1uM1tDSDJdW0NASF0oW09IXSlbQ0BASF00W0NIMl1bQ0gyXVtDSDJdTzQ=

> <s_epik_cmdline>
J2VwaWtfcHl0aG9uJywgJy1waCcsICc3LjAnLCAnLXRuJywgJzgnLCAnLW1hJywgJzIwMCcsICctbWV0YWxfYmluZGluZycsICctaW1hZScsICc8aW5maWxlLm1hZT4nLCAnLW9tYWUnLCAnPG91dGZpbGUubWFlPic=

> <r_lp_tautomer_probability>
1

> <r_epik_Ionization_Penalty>
0.423322

> <r_epik_Ionization_Penalty_Charging>
0

> <r_epik_Ionization_Penalty_Neutral>
0.423322

> <r_epik_State_Penalty>
0.569486

> <r_epik_Charging_Adjusted_Penalty>
0.569486

> <i_epik_Tot_Q>
0

> <i_epik_Tot_abs_Q>
0

> <r_epik_Metal_State_Penalty>
0.568671

> <b_epik_Metal_Only>
0

> <s_lp_Force_Field>
OPLS_2005

> <r_lp_Energy>
53.6453

> <b_lp_Chiralities_Consistent>
1

> <s_lp_Variant>
AV-unprocessed.smi:213-15

> <Gold.Version>
5.8.1

> <Gold.Id.Protein>
6NUR|6NUR_protein|mol2

> <Gold.PLP.Fitness>
48.2713

> <Gold.PLP.PLP>
-42.8008

> <Gold.PLP.part.hbond>
-3.5512

> <Gold.PLP.part.metal>
0.0000

> <Gold.PLP.part.buried>
-3.9516

> <Gold.PLP.part.nonpolar>
-34.9397

> <Gold.PLP.part.repulsive>
0.4082

> <Gold.PLP.ligand.clash>
0.0000

> <Gold.PLP.ligand.torsion>
1.7469

> <Gold.PLP.Chemscore.Hbond>
2.6134

> <Gold.PLP.Chemscore.CHOScore>
0.3140

> <Gold.PLP.Chemscore.Metal>
0.0000

> <Gold.Chemscore.Hbonds>
donor molecule, donor type, donor heavy atom, donor atom, acceptor molecule, acceptor atom, score
      L1  H    23    51       P1  7948  0.85
      P1  H  7989  7998       L1    13  1.00
      P1  H 10752 10763       L1    15  0.54
      L1  C    14    46       P1  7949  0.32

> <Gold.PLP.Chemscore.Internal.Correction>
0.1821

> <Gold.Rescore>
     Score         DG    S(hbond)    S(metal)    S(lipo)     H(rot)  DE(clash)    DE(int)     intcor
     12.47     -15.67       1.63        0.00     100.52       2.74       0.61       2.59       ----

> <Gold.Chemscore.Fitness>
12.4694

> <Gold.Chemscore.DG>
-15.6724

> <Gold.Chemscore.ZeroCoef>
-5.4800

> <Gold.Chemscore.Hbond>
1.6288

> <Gold.Chemscore.Metal>
0.0000

> <Gold.Chemscore.Lipo>
100.5208

> <Gold.Chemscore.Internal_Hbond>
0.0000

> <Gold.Chemscore.DEClash>
0.6132

> <Gold.Chemscore.DEInternal>
2.5898

> <Gold.Chemscore.Rot>
2.7378

> <Gold.Chemscore.Internal.Correction>
   9.000000E+99

> <Gold.Chemscore.Hbonds>
donor molecule, donor type, donor heavy atom, donor atom, acceptor molecule, acceptor atom, score
      L1  H    23    51       P1  7948  0.37
      P1  H  7989  7998       L1    13  0.86
      P1  H 10752 10763       L1    15  0.11

> <Gold.Chemscore.Hbond.Weighted>
-5.4402

> <Gold.Chemscore.Metal.Weighted>
-0.0000

> <Gold.Chemscore.Lipo.Weighted>
-11.7609

> <Gold.Chemscore.Internal_Hbond.Weighted>
0.0000

> <Gold.Chemscore.DEClash.Weighted>
0.6132

> <Gold.Chemscore.DEInternal.Weighted>
2.5898

> <Gold.Chemscore.Rot.Weighted>
7.0087

> <Gold.Chemscore.Internal.Correction.Weighted>
   9.000000E+99

> <Gold.Protein.RotatedTorsions>
[ 6907 6896 6895 6894 ] final   80.69 input  -60.11 | X-H torsion
[ 7974 7965 7964 7962 ] final   55.76 input  175.53 | X-H torsion
[ 8008 7997 7996 7995 ] final  -63.10 input   59.86 | X-H torsion
[ 10167 10162 10161 10158 ] final  -66.77 input  -65.29 | X-H torsion
[ 10718 10713 10712 10709 ] final  -52.09 input   66.30 | X-H torsion
[ 10763 10752 10751 10750 ] final   44.16 input  -60.55 | X-H torsion
[ 11005 11000 10999 10996 ] final  147.57 input  -57.11 | X-H torsion

> <Gold.Protein.ActiveResidues>
 VAL166  LYS551  ARG553  GLY616  TRP617  ASP618  TYR619  PRO620  LYS621  CYS622 
 ASP623  PHE694  ASN695  SER759  ASP760  ASP761  ALA762  ILE779  LEU786  VAL792 
 PHE793  MET794  SER795  GLU796  ALA797  LYS798  CYS799  TRP800  GLU811  SER814 

> <Gold.Protein.RotatedAtoms>
  152.5243  134.3320  159.9185 H   0  0  0  0  0  0  0  0  0  0  0  0  # atno 6907 bound_to 6896
  151.3269  133.4010  159.2667 H   0  0  0  0  0  0  0  0  0  0  0  0  # atno 6908 bound_to 6896
  150.9913  134.9264  159.7958 H   0  0  0  0  0  0  0  0  0  0  0  0  # atno 6909 bound_to 6896
  145.9470  139.3938  143.0329 H   0  0  0  0  0  0  0  0  0  0  0  0  # atno 7974 bound_to 7965
  154.4536  140.0982  156.6690 H   0  0  0  0  0  0  0  0  0  0  0  0  # atno 8008 bound_to 7997
  155.5209  140.3479  155.4388 H   0  0  0  0  0  0  0  0  0  0  0  0  # atno 8009 bound_to 7997
  156.0731  140.1354  156.9793 H   0  0  0  0  0  0  0  0  0  0  0  0  # atno 8010 bound_to 7997
  140.5632  143.2313  151.6686 H   0  0  0  0  0  0  0  0  0  0  0  0  # atno 10167 bound_to 10162
  156.1652  130.4149  149.9731 H   0  0  0  0  0  0  0  0  0  0  0  0  # atno 10718 bound_to 10713
  152.9846  135.6079  154.3229 H   0  0  0  0  0  0  0  0  0  0  0  0  # atno 10763 bound_to 10752
  154.2938  135.2774  155.2644 H   0  0  0  0  0  0  0  0  0  0  0  0  # atno 10764 bound_to 10752
  154.4928  135.5887  153.6528 H   0  0  0  0  0  0  0  0  0  0  0  0  # atno 10765 bound_to 10752
  140.0887  134.9054  157.1617 H   0  0  0  0  0  0  0  0  0  0  0  0  # atno 11005 bound_to 11000
  145.8222  140.9673  143.0893 LP  0  0  0  0  0  0  0  0  0  0  0  0  # atno 17320 bound_to 7965
  144.6789  140.0056  143.7484 LP  0  0  0  0  0  0  0  0  0  0  0  0  # atno 17321 bound_to 7965
  139.5080  144.3626  152.0548 LP  0  0  0  0  0  0  0  0  0  0  0  0  # atno 17342 bound_to 10162
  140.2754  144.3918  150.6137 LP  0  0  0  0  0  0  0  0  0  0  0  0  # atno 17343 bound_to 10162
  156.7548  130.9129  151.3639 LP  0  0  0  0  0  0  0  0  0  0  0  0  # atno 17370 bound_to 10713
  157.6762  130.9097  150.0157 LP  0  0  0  0  0  0  0  0  0  0  0  0  # atno 17371 bound_to 10713
  140.3383  134.2732  155.7216 LP  0  0  0  0  0  0  0  0  0  0  0  0  # atno 17394 bound_to 11000
  141.2071  133.7815  157.0139 LP  0  0  0  0  0  0  0  0  0  0  0  0  # atno 17395 bound_to 11000

$$$$
