AV-unprocessed.smi:2289|AV-procd|sdf|9209|dock7
  -GOLD-   2272012423D 1   1.00000     0.00000
 Structure written by MMmdl.
 40 41  0  0  0  0  0  0  0  0  1 V2000
  153.8036  142.7567  163.6526 C   0  0  0  0  0  0  0  0  0  0  0  0
  153.3675  142.6758  162.2004 C   0  0  0  0  0  0  0  0  0  0  0  0
  152.4904  143.6782  161.7767 N   0  0  0  0  0  0  0  0  0  0  0  0
  152.0689  143.6909  160.5546 C   0  0  0  0  0  0  0  0  0  0  0  0
  152.4682  142.7162  159.6245 N   0  0  0  0  0  0  0  0  0  0  0  0
  151.9254  142.8533  158.2617 C   0  0  0  0  0  0  0  0  0  0  0  0
  150.7883  141.8436  157.9834 C   0  0  1  0  0  0  0  0  0  0  0  0
  149.6864  142.1706  158.8053 O   0  0  0  0  0  0  0  0  0  0  0  0
  150.3199  141.9032  156.5137 C   0  0  0  0  0  0  0  0  0  0  0  0
  150.7756  140.7053  155.6847 C   0  0  0  0  0  0  0  0  0  0  0  0
  152.1239  140.3009  155.8050 C   0  0  0  0  0  0  0  0  0  0  0  0
  152.6173  139.2056  155.0748 C   0  0  0  0  0  0  0  0  0  0  0  0
  151.7629  138.5039  154.2088 C   0  0  0  0  0  0  0  0  0  0  0  0
  150.4205  138.9020  154.0725 C   0  0  0  0  0  0  0  0  0  0  0  0
  149.9085  140.0026  154.8006 C   0  0  0  0  0  0  0  0  0  0  0  0
  148.4473  140.4094  154.6029 C   0  0  0  0  0  0  0  0  0  0  0  0
  147.8367  139.6391  153.7015 F   0  0  0  0  0  0  0  0  0  0  0  0
  147.7717  140.3002  155.7460 F   0  0  0  0  0  0  0  0  0  0  0  0
  148.3804  141.6685  154.1699 F   0  0  0  0  0  0  0  0  0  0  0  0
  153.3229  141.7051  159.9545 C   0  0  0  0  0  0  0  0  0  0  0  0
  153.6727  140.8566  159.1324 O   0  0  0  0  0  0  0  0  0  0  0  0
  153.7921  141.7017  161.3498 C   0  0  0  0  0  0  0  0  0  0  0  0
  154.7468  140.5855  161.7554 C   0  0  0  0  0  0  0  0  0  0  0  0
  153.4783  141.8711  164.1989 H   0  0  0  0  0  0  0  0  0  0  0  0
  153.3777  143.6304  164.1473 H   0  0  0  0  0  0  0  0  0  0  0  0
  154.8892  142.8310  163.7225 H   0  0  0  0  0  0  0  0  0  0  0  0
  151.3887  144.4536  160.1711 H   0  0  0  0  0  0  0  0  0  0  0  0
  151.5929  143.8725  158.0549 H   0  0  0  0  0  0  0  0  0  0  0  0
  152.7374  142.6928  157.5494 H   0  0  0  0  0  0  0  0  0  0  0  0
  151.1273  140.8348  158.2205 H   0  0  0  0  0  0  0  0  0  0  0  0
  149.6196  143.1116  158.8610 H   0  0  0  0  0  0  0  0  0  0  0  0
  149.2442  142.0608  156.4679 H   0  0  0  0  0  0  0  0  0  0  0  0
  150.7543  142.7830  156.0373 H   0  0  0  0  0  0  0  0  0  0  0  0
  152.7910  140.8351  156.4659 H   0  0  0  0  0  0  0  0  0  0  0  0
  153.6497  138.9056  155.1786 H   0  0  0  0  0  0  0  0  0  0  0  0
  152.1374  137.6622  153.6448 H   0  0  0  0  0  0  0  0  0  0  0  0
  149.7895  138.3483  153.3936 H   0  0  0  0  0  0  0  0  0  0  0  0
  155.6656  140.6474  161.1718 H   0  0  0  0  0  0  0  0  0  0  0  0
  154.2911  139.6132  161.5665 H   0  0  0  0  0  0  0  0  0  0  0  0
  155.0225  140.6165  162.8081 H   0  0  0  0  0  0  0  0  0  0  0  0
  1  2  1  0  0  0  0
  1 24  1  0  0  0  0
  1 25  1  0  0  0  0
  1 26  1  0  0  0  0
  2 22  2  0  0  0  0
  2  3  1  0  0  0  0
  3  4  2  0  0  0  0
  4  5  1  0  0  0  0
  4 27  1  0  0  0  0
  5  6  1  0  0  0  0
  5 20  1  0  0  0  0
  6  7  1  0  0  0  0
  6 28  1  0  0  0  0
  6 29  1  0  0  0  0
  7  8  1  0  0  0  0
  7  9  1  0  0  0  0
  7 30  1  0  0  0  0
  8 31  1  0  0  0  0
  9 10  1  0  0  0  0
  9 32  1  0  0  0  0
  9 33  1  0  0  0  0
 10 15  1  0  0  0  0
 10 11  2  0  0  0  0
 11 12  1  0  0  0  0
 11 34  1  0  0  0  0
 12 13  2  0  0  0  0
 12 35  1  0  0  0  0
 13 14  1  0  0  0  0
 13 36  1  0  0  0  0
 14 15  2  0  0  0  0
 14 37  1  0  0  0  0
 15 16  1  0  0  0  0
 16 17  1  0  0  0  0
 16 18  1  0  0  0  0
 16 19  1  0  0  0  0
 20 21  2  0  0  0  0
 20 22  1  0  0  0  0
 22 23  1  0  0  0  0
 23 38  1  0  0  0  0
 23 39  1  0  0  0  0
 23 40  1  0  0  0  0
M  END
> <s_m_source_file>
AV-unprocessed.smi

> <i_m_source_file_index>
2289

> <i_lp_mmshare_version>
43012

> <i_f3d_flags>
0

> <s_epik_input>
W0NIM11jMW5bY0hdbihjKD1PKWMxW0NIM10pW0NIMl1bQ0BIXShbT0hdKVtDSDJdYzJbY0hdW2NIXVtjSF1bY0hdYzJDKEYpKEYpRg==

> <s_epik_cmdline>
J2VwaWtfcHl0aG9uJywgJy1waCcsICc3LjAnLCAnLXRuJywgJzgnLCAnLW1hJywgJzIwMCcsICctbWV0YWxfYmluZGluZycsICctaW1hZScsICc8aW5maWxlLm1hZT4nLCAnLW9tYWUnLCAnPG91dGZpbGUubWFlPic=

> <r_lp_tautomer_probability>
1

> <r_epik_Ionization_Penalty>
8.92636e-05

> <r_epik_Ionization_Penalty_Charging>
8.63033e-08

> <r_epik_Ionization_Penalty_Neutral>
8.91773e-05

> <r_epik_State_Penalty>
-0

> <r_epik_Charging_Adjusted_Penalty>
8.63033e-08

> <i_epik_Tot_Q>
0

> <i_epik_Tot_abs_Q>
0

> <r_epik_Metal_State_Penalty>
-0

> <b_epik_Metal_Only>
0

> <s_lp_Force_Field>
OPLS_2005

> <r_lp_Energy>
23.2294

> <b_lp_Chiralities_Consistent>
1

> <s_lp_Variant>
AV-unprocessed.smi:2289-2

> <Gold.Version>
5.8.1

> <Gold.Id.Protein>
6NUR|6NUR_protein|mol2

> <Gold.PLP.Fitness>
54.8746

> <Gold.PLP.PLP>
-56.9367

> <Gold.PLP.part.hbond>
-0.9008

> <Gold.PLP.part.metal>
0.0000

> <Gold.PLP.part.buried>
-4.2354

> <Gold.PLP.part.nonpolar>
-50.5297

> <Gold.PLP.part.repulsive>
0.1465

> <Gold.PLP.ligand.clash>
1.3581

> <Gold.PLP.ligand.torsion>
1.0783

> <Gold.PLP.Chemscore.Hbond>
0.0000

> <Gold.PLP.Chemscore.CHOScore>
0.0000

> <Gold.PLP.Chemscore.Metal>
0.0000

> <Gold.PLP.Chemscore.Internal.Correction>
1.4526

> <Gold.Rescore>
     Score         DG    S(hbond)    S(metal)    S(lipo)     H(rot)  DE(clash)    DE(int)     intcor
     10.87     -12.67       0.00        0.00     113.27       2.37       0.02       1.78       ----

> <Gold.Chemscore.Fitness>
10.8669

> <Gold.Chemscore.DG>
-12.6703

> <Gold.Chemscore.ZeroCoef>
-5.4800

> <Gold.Chemscore.Hbond>
0.0000

> <Gold.Chemscore.Metal>
0.0000

> <Gold.Chemscore.Lipo>
113.2710

> <Gold.Chemscore.Internal_Hbond>
0.0000

> <Gold.Chemscore.DEClash>
0.0243

> <Gold.Chemscore.DEInternal>
1.7791

> <Gold.Chemscore.Rot>
2.3681

> <Gold.Chemscore.Internal.Correction>
   9.000000E+99

> <Gold.Chemscore.Hbond.Weighted>
-0.0000

> <Gold.Chemscore.Metal.Weighted>
-0.0000

> <Gold.Chemscore.Lipo.Weighted>
-13.2527

> <Gold.Chemscore.Internal_Hbond.Weighted>
0.0000

> <Gold.Chemscore.DEClash.Weighted>
0.0243

> <Gold.Chemscore.DEInternal.Weighted>
1.7791

> <Gold.Chemscore.Rot.Weighted>
6.0624

> <Gold.Chemscore.Internal.Correction.Weighted>
   9.000000E+99

> <Gold.Protein.RotatedTorsions>
[ 6907 6896 6895 6894 ] final   38.71 input  -60.11 | X-H torsion
[ 7974 7965 7964 7962 ] final -119.29 input  175.53 | X-H torsion
[ 8008 7997 7996 7995 ] final   91.59 input   59.86 | X-H torsion
[ 10167 10162 10161 10158 ] final -151.73 input  -65.29 | X-H torsion
[ 10718 10713 10712 10709 ] final -141.47 input   66.30 | X-H torsion
[ 10763 10752 10751 10750 ] final   32.51 input  -60.55 | X-H torsion
[ 11005 11000 10999 10996 ] final -110.45 input  -57.11 | X-H torsion

> <Gold.Protein.ActiveResidues>
 VAL166  LYS551  ARG553  GLY616  TRP617  ASP618  TYR619  PRO620  LYS621  CYS622 
 ASP623  PHE694  ASN695  SER759  ASP760  ASP761  ALA762  ILE779  LEU786  VAL792 
 PHE793  MET794  SER795  GLU796  ALA797  LYS798  CYS799  TRP800  GLU811  SER814 

> <Gold.Protein.RotatedAtoms>
  152.1600  134.8920  160.0542 H   0  0  0  0  0  0  0  0  0  0  0  0  # atno 6907 bound_to 6896
  151.9919  133.3789  159.4156 H   0  0  0  0  0  0  0  0  0  0  0  0  # atno 6908 bound_to 6896
  150.6886  134.3850  159.5094 H   0  0  0  0  0  0  0  0  0  0  0  0  # atno 6909 bound_to 6896
  145.0642  140.8312  143.4134 H   0  0  0  0  0  0  0  0  0  0  0  0  # atno 7974 bound_to 7965
  156.0255  140.3336  155.7084 H   0  0  0  0  0  0  0  0  0  0  0  0  # atno 8008 bound_to 7997
  155.5961  140.0651  157.2763 H   0  0  0  0  0  0  0  0  0  0  0  0  # atno 8009 bound_to 7997
  154.4332  140.1818  156.1112 H   0  0  0  0  0  0  0  0  0  0  0  0  # atno 8010 bound_to 7997
  139.7242  143.8909  152.2514 H   0  0  0  0  0  0  0  0  0  0  0  0  # atno 10167 bound_to 10162
  156.3345  130.7604  151.1728 H   0  0  0  0  0  0  0  0  0  0  0  0  # atno 10718 bound_to 10713
  153.0259  135.6411  154.1366 H   0  0  0  0  0  0  0  0  0  0  0  0  # atno 10763 bound_to 10752
  154.1095  135.2854  155.3235 H   0  0  0  0  0  0  0  0  0  0  0  0  # atno 10764 bound_to 10752
  154.6341  135.5482  153.7777 H   0  0  0  0  0  0  0  0  0  0  0  0  # atno 10765 bound_to 10752
  141.0791  133.9251  157.2327 H   0  0  0  0  0  0  0  0  0  0  0  0  # atno 11005 bound_to 11000
  145.1371  139.2595  143.5509 LP  0  0  0  0  0  0  0  0  0  0  0  0  # atno 17320 bound_to 7965
  146.3526  140.1038  142.8607 LP  0  0  0  0  0  0  0  0  0  0  0  0  # atno 17321 bound_to 7965
  139.8814  144.7016  150.8874 LP  0  0  0  0  0  0  0  0  0  0  0  0  # atno 17342 bound_to 10162
  140.7759  143.3658  151.1741 LP  0  0  0  0  0  0  0  0  0  0  0  0  # atno 17343 bound_to 10162
  157.7436  131.0472  150.4932 LP  0  0  0  0  0  0  0  0  0  0  0  0  # atno 17370 bound_to 10713
  156.5103  130.4137  149.6305 LP  0  0  0  0  0  0  0  0  0  0  0  0  # atno 17371 bound_to 10713
  139.9604  135.0155  156.9245 LP  0  0  0  0  0  0  0  0  0  0  0  0  # atno 17394 bound_to 11000
  140.5508  134.0629  155.7369 LP  0  0  0  0  0  0  0  0  0  0  0  0  # atno 17395 bound_to 11000

$$$$
