AV-unprocessed.smi:1554|AV-procd|sdf|6256|dock3
  -GOLD-   22720 6443D 1   1.00000     0.00000
 Structure written by MMmdl.
 49 51  0  0  0  0  0  0  0  0  3 V2000
  152.7616  144.0314  161.2010 C   0  0  0  0  0  0  0  0  0  0  0  0
  152.4860  143.2036  159.9570 C   0  0  0  0  0  0  0  0  0  0  0  0
  151.5181  143.6682  159.0383 C   0  0  0  0  0  0  0  0  0  0  0  0
  151.2853  142.8870  157.9126 C   0  0  0  0  0  0  0  0  0  0  0  0
  150.4082  143.0662  156.8410 N   0  3  0  0  0  0  0  0  0  0  0  0
  150.5342  142.0263  155.9711 C   0  0  0  0  0  0  0  0  0  0  0  0
  151.4774  141.1828  156.4726 N   0  0  0  0  0  0  0  0  0  0  0  0
  151.9912  139.9183  155.9251 C   0  0  0  0  0  0  0  0  0  0  0  0
  150.8774  139.0025  155.3791 C   0  0  2  0  0  0  0  0  0  0  0  0
  150.4248  139.4954  154.1330 O   0  0  0  0  0  0  0  0  0  0  0  0
  149.6778  138.9294  156.3451 C   0  0  0  0  0  0  0  0  0  0  0  0
  149.9192  138.0257  157.4991 N   0  3  1  0  0  0  0  0  0  0  0  0
  151.0290  138.4642  158.3811 C   0  0  0  0  0  0  0  0  0  0  0  0
  151.2367  137.4551  159.5225 C   0  0  0  0  0  0  0  0  0  0  0  0
  150.0241  137.2983  160.2486 O   0  0  0  0  0  0  0  0  0  0  0  0
  148.9714  136.7894  159.4373 C   0  0  1  0  0  0  0  0  0  0  0  0
  147.7429  136.5704  160.3273 C   0  0  0  0  0  0  0  0  0  0  0  0
  148.6919  137.7854  158.2951 C   0  0  0  0  0  0  0  0  0  0  0  0
  151.9774  141.6821  157.6819 C   0  0  0  0  0  0  0  0  0  0  0  0
  152.9361  141.2115  158.5764 C   0  0  0  0  0  0  0  0  0  0  0  0
  153.1859  141.9905  159.7288 C   0  0  0  0  0  0  0  0  0  0  0  0
  154.2244  141.4995  160.7231 C   0  0  0  0  0  0  0  0  0  0  0  0
  152.1636  144.9430  161.2142 H   0  0  0  0  0  0  0  0  0  0  0  0
  153.8116  144.3215  161.2444 H   0  0  0  0  0  0  0  0  0  0  0  0
  152.5212  143.4626  162.0996 H   0  0  0  0  0  0  0  0  0  0  0  0
  150.9809  144.5904  159.2059 H   0  0  0  0  0  0  0  0  0  0  0  0
  149.9854  141.8960  155.0494 H   0  0  0  0  0  0  0  0  0  0  0  0
  152.6820  140.1775  155.1217 H   0  0  0  0  0  0  0  0  0  0  0  0
  152.5872  139.4124  156.6852 H   0  0  0  0  0  0  0  0  0  0  0  0
  151.2986  138.0104  155.2184 H   0  0  0  0  0  0  0  0  0  0  0  0
  150.3484  138.7689  153.5328 H   0  0  0  0  0  0  0  0  0  0  0  0
  149.4223  139.9237  156.7151 H   0  0  0  0  0  0  0  0  0  0  0  0
  148.8072  138.5808  155.7867 H   0  0  0  0  0  0  0  0  0  0  0  0
  151.9551  138.5594  157.8160 H   0  0  0  0  0  0  0  0  0  0  0  0
  150.8032  139.4492  158.7929 H   0  0  0  0  0  0  0  0  0  0  0  0
  151.5718  136.4914  159.1358 H   0  0  0  0  0  0  0  0  0  0  0  0
  152.0109  137.8114  160.2020 H   0  0  0  0  0  0  0  0  0  0  0  0
  149.2728  135.8268  159.0201 H   0  0  0  0  0  0  0  0  0  0  0  0
  146.9087  136.1671  159.7528 H   0  0  0  0  0  0  0  0  0  0  0  0
  147.4140  137.5039  160.7849 H   0  0  0  0  0  0  0  0  0  0  0  0
  147.9637  135.8663  161.1300 H   0  0  0  0  0  0  0  0  0  0  0  0
  148.3292  138.7325  158.6982 H   0  0  0  0  0  0  0  0  0  0  0  0
  147.9070  137.3897  157.6491 H   0  0  0  0  0  0  0  0  0  0  0  0
  153.4680  140.2871  158.4072 H   0  0  0  0  0  0  0  0  0  0  0  0
  154.6425  140.5385  160.4224 H   0  0  0  0  0  0  0  0  0  0  0  0
  153.7811  141.3734  161.7111 H   0  0  0  0  0  0  0  0  0  0  0  0
  155.0465  142.2115  160.7995 H   0  0  0  0  0  0  0  0  0  0  0  0
  150.1827  137.1312  157.1098 H   0  0  0  0  0  0  0  0  0  0  0  0
  149.7711  143.8417  156.7096 H   0  0  0  0  0  0  0  0  0  0  0  0
  1  2  1  0  0  0  0
  1 23  1  0  0  0  0
  1 24  1  0  0  0  0
  1 25  1  0  0  0  0
  2 21  1  0  0  0  0
  2  3  2  0  0  0  0
  3  4  1  0  0  0  0
  3 26  1  0  0  0  0
  4 19  2  0  0  0  0
  4  5  1  0  0  0  0
  5  6  2  0  0  0  0
  5 49  1  0  0  0  0
  6  7  1  0  0  0  0
  6 27  1  0  0  0  0
  7  8  1  0  0  0  0
  7 19  1  0  0  0  0
  8  9  1  0  0  0  0
  8 28  1  0  0  0  0
  8 29  1  0  0  0  0
  9 10  1  0  0  0  0
  9 11  1  0  0  0  0
  9 30  1  0  0  0  0
 10 31  1  0  0  0  0
 11 12  1  0  0  0  0
 11 32  1  0  0  0  0
 11 33  1  0  0  0  0
 12 18  1  0  0  0  0
 12 13  1  0  0  0  0
 12 48  1  0  0  0  0
 13 14  1  0  0  0  0
 13 34  1  0  0  0  0
 13 35  1  0  0  0  0
 14 15  1  0  0  0  0
 14 36  1  0  0  0  0
 14 37  1  0  0  0  0
 15 16  1  0  0  0  0
 16 17  1  0  0  0  0
 16 18  1  0  0  0  0
 16 38  1  0  0  0  0
 17 39  1  0  0  0  0
 17 40  1  0  0  0  0
 17 41  1  0  0  0  0
 18 42  1  0  0  0  0
 18 43  1  0  0  0  0
 19 20  1  0  0  0  0
 20 21  2  0  0  0  0
 20 44  1  0  0  0  0
 21 22  1  0  0  0  0
 22 45  1  0  0  0  0
 22 46  1  0  0  0  0
 22 47  1  0  0  0  0
M  CHG  1   5   1
M  CHG  1  12   1
M  END
> <s_m_source_file>
AV-unprocessed.smi

> <i_m_source_file_index>
1554

> <i_lp_mmshare_version>
43012

> <i_f3d_flags>
0

> <s_epik_input>
W0NIM11jKFtjSF0xKWMoW0NIM10pW2NIXWMoYzEyKW4oW2NIXW4yKVtDSDJdW0NASF0oW09IXSlbQ0gyXU4zW0NIMl1bQ0gyXU9bQ0BASF0oW0NIM10pW0NIMl0z

> <s_epik_cmdline>
J2VwaWtfcHl0aG9uJywgJy1waCcsICc3LjAnLCAnLXRuJywgJzgnLCAnLW1hJywgJzIwMCcsICctbWV0YWxfYmluZGluZycsICctaW1hZScsICc8aW5maWxlLm1hZT4nLCAnLW9tYWUnLCAnPG91dGZpbGUubWFlPic=

> <r_epik_Ionization_Penalty>
1.8848

> <r_epik_Ionization_Penalty_Charging>
1.88479

> <r_epik_Ionization_Penalty_Neutral>
1.42224e-05

> <r_epik_State_Penalty>
1.94551

> <r_epik_Charging_Adjusted_Penalty>
3.8303

> <i_epik_Tot_Q>
2

> <i_epik_Tot_abs_Q>
2

> <r_epik_Metal_State_Penalty>
5.95849

> <b_epik_Metal_Only>
0

> <s_lp_Force_Field>
OPLS_2005

> <r_lp_Energy>
29.8274

> <b_lp_Chiralities_Consistent>
1

> <s_lp_Variant>
AV-unprocessed.smi:1554-17

> <Gold.Version>
5.8.1

> <Gold.Id.Protein>
6NUR|6NUR_protein|mol2

> <Gold.PLP.Fitness>
51.0897

> <Gold.PLP.PLP>
-42.1036

> <Gold.PLP.part.hbond>
-3.7972

> <Gold.PLP.part.metal>
0.0000

> <Gold.PLP.part.buried>
-5.9055

> <Gold.PLP.part.nonpolar>
-32.6005

> <Gold.PLP.part.repulsive>
0.0558

> <Gold.PLP.ligand.clash>
0.0000

> <Gold.PLP.ligand.torsion>
0.5250

> <Gold.PLP.Chemscore.Hbond>
3.3272

> <Gold.PLP.Chemscore.CHOScore>
0.0000

> <Gold.PLP.Chemscore.Metal>
0.0000

> <Gold.Chemscore.Hbonds>
donor molecule, donor type, donor heavy atom, donor atom, acceptor molecule, acceptor atom, score
      L1  H     5    49       P1  8028  1.92
      P1  H  6931  6943       L1    15  0.16
      P1  H  7989  7998       L1    10  1.00

> <Gold.PLP.Chemscore.Internal.Correction>
0.0546

> <Gold.Rescore>
     Score         DG    S(hbond)    S(metal)    S(lipo)     H(rot)  DE(clash)    DE(int)     intcor
     19.03     -20.77       2.25        0.00     112.80       2.11       0.05       1.70       ----

> <Gold.Chemscore.Fitness>
19.0253

> <Gold.Chemscore.DG>
-20.7719

> <Gold.Chemscore.ZeroCoef>
-5.4800

> <Gold.Chemscore.Hbond>
2.2459

> <Gold.Chemscore.Metal>
0.0000

> <Gold.Chemscore.Lipo>
112.8022

> <Gold.Chemscore.Internal_Hbond>
0.0000

> <Gold.Chemscore.DEClash>
0.0460

> <Gold.Chemscore.DEInternal>
1.7006

> <Gold.Chemscore.Rot>
2.1122

> <Gold.Chemscore.Internal.Correction>
   9.000000E+99

> <Gold.Chemscore.Hbonds>
donor molecule, donor type, donor heavy atom, donor atom, acceptor molecule, acceptor atom, score
      L1  H     5    49       P1  8028  0.91
      P1  H  6931  6943       L1    15  0.09
      P1  H  7989  7998       L1    10  0.60

> <Gold.Chemscore.Hbond.Weighted>
-7.5013

> <Gold.Chemscore.Metal.Weighted>
-0.0000

> <Gold.Chemscore.Lipo.Weighted>
-13.1979

> <Gold.Chemscore.Internal_Hbond.Weighted>
0.0000

> <Gold.Chemscore.DEClash.Weighted>
0.0460

> <Gold.Chemscore.DEInternal.Weighted>
1.7006

> <Gold.Chemscore.Rot.Weighted>
5.4073

> <Gold.Chemscore.Internal.Correction.Weighted>
   9.000000E+99

> <Gold.Protein.RotatedTorsions>
[ 6907 6896 6895 6894 ] final   19.31 input  -60.11 | X-H torsion
[ 7974 7965 7964 7962 ] final  -50.19 input  175.53 | X-H torsion
[ 8008 7997 7996 7995 ] final -178.47 input   59.86 | X-H torsion
[ 10167 10162 10161 10158 ] final   55.08 input  -65.29 | X-H torsion
[ 10718 10713 10712 10709 ] final -142.54 input   66.30 | X-H torsion
[ 10763 10752 10751 10750 ] final   31.66 input  -60.55 | X-H torsion
[ 11005 11000 10999 10996 ] final  116.63 input  -57.11 | X-H torsion

> <Gold.Protein.ActiveResidues>
 VAL166  LYS551  ARG553  GLY616  TRP617  ASP618  TYR619  PRO620  LYS621  CYS622 
 ASP623  PHE694  ASN695  SER759  ASP760  ASP761  ALA762  ILE779  LEU786  VAL792 
 PHE793  MET794  SER795  GLU796  ALA797  LYS798  CYS799  TRP800  GLU811  SER814 

> <Gold.Protein.RotatedAtoms>
  151.8789  135.0461  160.0486 H   0  0  0  0  0  0  0  0  0  0  0  0  # atno 6907 bound_to 6896
  152.2529  133.5226  159.5344 H   0  0  0  0  0  0  0  0  0  0  0  0  # atno 6908 bound_to 6896
  150.7090  134.0852  159.3954 H   0  0  0  0  0  0  0  0  0  0  0  0  # atno 6909 bound_to 6896
  145.9324  140.7737  142.9593 H   0  0  0  0  0  0  0  0  0  0  0  0  # atno 7974 bound_to 7965
  156.0192  140.1257  157.0375 H   0  0  0  0  0  0  0  0  0  0  0  0  # atno 8008 bound_to 7997
  154.4305  140.1072  156.6010 H   0  0  0  0  0  0  0  0  0  0  0  0  # atno 8009 bound_to 7997
  155.5969  140.3470  155.4584 H   0  0  0  0  0  0  0  0  0  0  0  0  # atno 8010 bound_to 7997
  140.2232  144.3766  150.6442 H   0  0  0  0  0  0  0  0  0  0  0  0  # atno 10167 bound_to 10162
  156.3471  130.7668  151.1815 H   0  0  0  0  0  0  0  0  0  0  0  0  # atno 10718 bound_to 10713
  153.0304  135.6433  154.1234 H   0  0  0  0  0  0  0  0  0  0  0  0  # atno 10763 bound_to 10752
  154.0957  135.2863  155.3264 H   0  0  0  0  0  0  0  0  0  0  0  0  # atno 10764 bound_to 10752
  154.6434  135.5451  153.7879 H   0  0  0  0  0  0  0  0  0  0  0  0  # atno 10765 bound_to 10752
  139.9047  134.9600  156.7227 H   0  0  0  0  0  0  0  0  0  0  0  0  # atno 11005 bound_to 11000
  144.6767  140.2149  143.7373 LP  0  0  0  0  0  0  0  0  0  0  0  0  # atno 17320 bound_to 7965
  145.8408  139.2129  143.1829 LP  0  0  0  0  0  0  0  0  0  0  0  0  # atno 17321 bound_to 7965
  140.6239  143.2179  151.6636 LP  0  0  0  0  0  0  0  0  0  0  0  0  # atno 17342 bound_to 10162
  139.5136  144.3436  152.0717 LP  0  0  0  0  0  0  0  0  0  0  0  0  # atno 17343 bound_to 10162
  157.7456  131.0438  150.4761 LP  0  0  0  0  0  0  0  0  0  0  0  0  # atno 17370 bound_to 10713
  156.4951  130.4104  149.6385 LP  0  0  0  0  0  0  0  0  0  0  0  0  # atno 17371 bound_to 10713
  140.6987  133.9325  155.8011 LP  0  0  0  0  0  0  0  0  0  0  0  0  # atno 17394 bound_to 11000
  141.0387  134.0652  157.3928 LP  0  0  0  0  0  0  0  0  0  0  0  0  # atno 17395 bound_to 11000

$$$$
