AV-unprocessed.smi:112|AV-procd|sdf|1089|dock10
  -GOLD-   2262018193D 1   1.00000     0.00000
 Structure written by MMmdl.
 54 57  0  0  0  0  0  0  0  0  3 V2000
  146.5974  133.7607  155.6320 C   0  0  0  0  0  0  0  0  0  0  0  0
  145.7659  134.5657  154.6451 C   0  0  0  0  0  0  0  0  0  0  0  0
  145.7622  134.2963  153.3190 C   0  0  0  0  0  0  0  0  0  0  0  0
  145.0132  135.0061  152.3956 N   0  0  0  0  0  0  0  0  0  0  0  0
  145.0193  134.6776  150.9156 C   0  0  2  0  0  0  0  0  0  0  0  0
  143.6471  134.1699  150.4527 C   0  0  0  0  0  0  0  0  0  0  0  0
  144.0447  133.1071  149.4524 C   0  0  2  0  0  0  0  0  0  0  0  0
  143.0023  132.1831  149.2107 O   0  0  0  0  0  0  0  0  0  0  0  0
  145.3022  132.5044  150.0916 C   0  0  2  0  0  0  0  0  0  0  0  0
  145.0324  131.4772  151.2139 C   0  0  0  0  0  0  0  0  0  0  0  0
  146.2359  130.8333  151.5740 O   0  0  0  0  0  0  0  0  0  0  0  0
  145.9411  133.6549  150.6508 O   0  0  0  0  0  0  0  0  0  0  0  0
  144.2350  136.0992  152.8280 C   0  0  0  0  0  0  0  0  0  0  0  0
  143.5793  136.7626  152.0210 O   0  0  0  0  0  0  0  0  0  0  0  0
  144.2209  136.4100  154.2061 N   0  0  0  0  0  0  0  0  0  0  0  0
  143.3824  137.5399  154.6668 C   0  0  0  0  0  0  0  0  0  0  0  0
  141.8653  137.2570  154.5970 C   0  0  0  0  0  0  0  0  0  0  0  0
  141.4744  136.0908  154.6596 O   0  0  0  0  0  0  0  0  0  0  0  0
  141.0280  138.3168  154.4734 N   0  0  0  0  0  0  0  0  0  0  0  0
  141.4904  139.7137  154.3983 C   0  0  0  0  0  0  0  0  0  0  0  0
  140.2212  140.5858  154.2839 C   0  0  0  0  0  0  0  0  0  0  0  0
  139.1131  139.5748  154.2937 C   0  0  0  0  0  0  0  0  0  0  0  0
  137.7356  139.8390  154.2079 C   0  0  0  0  0  0  0  0  0  0  0  0
  136.8270  138.7518  154.2347 C   0  0  0  0  0  0  0  0  0  0  0  0
  135.3726  138.9915  154.1494 N   0  3  0  0  0  0  0  0  0  0  0  0
  134.9792  140.1487  154.0434 O   0  0  0  0  0  0  0  0  0  0  0  0
  134.6209  138.0228  154.1879 O   0  5  0  0  0  0  0  0  0  0  0  0
  137.3352  137.4301  154.3457 C   0  0  0  0  0  0  0  0  0  0  0  0
  138.7230  137.1830  154.4301 C   0  0  0  0  0  0  0  0  0  0  0  0
  139.6097  138.2811  154.4033 C   0  0  0  0  0  0  0  0  0  0  0  0
  144.9528  135.6674  155.1644 C   0  0  0  0  0  0  0  0  0  0  0  0
  144.8881  135.9515  156.3620 O   0  0  0  0  0  0  0  0  0  0  0  0
  147.1684  132.9743  155.1372 H   0  0  0  0  0  0  0  0  0  0  0  0
  145.9549  133.2872  156.3752 H   0  0  0  0  0  0  0  0  0  0  0  0
  147.3041  134.4081  156.1525 H   0  0  0  0  0  0  0  0  0  0  0  0
  146.3843  133.4811  152.9834 H   0  0  0  0  0  0  0  0  0  0  0  0
  145.3434  135.5900  150.4118 H   0  0  0  0  0  0  0  0  0  0  0  0
  143.1099  133.7328  151.2965 H   0  0  0  0  0  0  0  0  0  0  0  0
  143.0473  134.9732  150.0238 H   0  0  0  0  0  0  0  0  0  0  0  0
  144.3143  133.5852  148.5094 H   0  0  0  0  0  0  0  0  0  0  0  0
  142.1830  132.6533  149.1800 H   0  0  0  0  0  0  0  0  0  0  0  0
  145.9331  132.0552  149.3233 H   0  0  0  0  0  0  0  0  0  0  0  0
  144.5709  131.9334  152.0891 H   0  0  0  0  0  0  0  0  0  0  0  0
  144.3534  130.6979  150.8683 H   0  0  0  0  0  0  0  0  0  0  0  0
  146.8754  130.9903  150.8964 H   0  0  0  0  0  0  0  0  0  0  0  0
  143.6380  137.8181  155.6900 H   0  0  0  0  0  0  0  0  0  0  0  0
  143.6097  138.4330  154.0837 H   0  0  0  0  0  0  0  0  0  0  0  0
  142.0590  139.9839  155.2890 H   0  0  0  0  0  0  0  0  0  0  0  0
  142.1275  139.8622  153.5256 H   0  0  0  0  0  0  0  0  0  0  0  0
  140.1209  141.2694  155.1273 H   0  0  0  0  0  0  0  0  0  0  0  0
  140.2058  141.1613  153.3579 H   0  0  0  0  0  0  0  0  0  0  0  0
  137.3903  140.8589  154.1245 H   0  0  0  0  0  0  0  0  0  0  0  0
  136.6613  136.5865  154.3676 H   0  0  0  0  0  0  0  0  0  0  0  0
  139.0664  136.1642  154.5132 H   0  0  0  0  0  0  0  0  0  0  0  0
  1  2  1  0  0  0  0
  1 33  1  0  0  0  0
  1 34  1  0  0  0  0
  1 35  1  0  0  0  0
  2 31  1  0  0  0  0
  2  3  2  0  0  0  0
  3  4  1  0  0  0  0
  3 36  1  0  0  0  0
  4  5  1  0  0  0  0
  4 13  1  0  0  0  0
  5 12  1  0  0  0  0
  5  6  1  0  0  0  0
  5 37  1  0  0  0  0
  6  7  1  0  0  0  0
  6 38  1  0  0  0  0
  6 39  1  0  0  0  0
  7  8  1  0  0  0  0
  7  9  1  0  0  0  0
  7 40  1  0  0  0  0
  8 41  1  0  0  0  0
  9 10  1  0  0  0  0
  9 12  1  0  0  0  0
  9 42  1  0  0  0  0
 10 11  1  0  0  0  0
 10 43  1  0  0  0  0
 10 44  1  0  0  0  0
 11 45  1  0  0  0  0
 13 14  2  0  0  0  0
 13 15  1  0  0  0  0
 15 16  1  0  0  0  0
 15 31  1  0  0  0  0
 16 17  1  0  0  0  0
 16 46  1  0  0  0  0
 16 47  1  0  0  0  0
 17 18  2  0  0  0  0
 17 19  1  0  0  0  0
 19 30  1  0  0  0  0
 19 20  1  0  0  0  0
 20 21  1  0  0  0  0
 20 48  1  0  0  0  0
 20 49  1  0  0  0  0
 21 22  1  0  0  0  0
 21 50  1  0  0  0  0
 21 51  1  0  0  0  0
 22 30  2  0  0  0  0
 22 23  1  0  0  0  0
 23 24  2  0  0  0  0
 23 52  1  0  0  0  0
 24 25  1  0  0  0  0
 24 28  1  0  0  0  0
 25 26  2  0  0  0  0
 25 27  1  0  0  0  0
 28 29  2  0  0  0  0
 28 53  1  0  0  0  0
 29 30  1  0  0  0  0
 29 54  1  0  0  0  0
 31 32  2  0  0  0  0
M  CHG  1  25   1
M  CHG  1  27  -1
M  END
> <s_m_source_file>
AV-unprocessed.smi

> <i_m_source_file_index>
112

> <i_lp_mmshare_version>
43012

> <i_f3d_flags>
0

> <s_epik_input>
W09IXVtDSDJdW0NAQEhdKE8xKVtDQEhdKFtPSF0pW0NIMl1bQ0BIXTFuKFtjSF1jMltDSDNdKWMoPU8pbihjMj1PKVtDSDJdQyg9TylOKFtDSDJdW0NIMl0zKWMoYzM0KVtjSF1bY0hdYyhbY0hdNClbTitdKD1PKVtPLV0=

> <s_epik_cmdline>
J2VwaWtfcHl0aG9uJywgJy1waCcsICc3LjAnLCAnLXRuJywgJzgnLCAnLW1hJywgJzIwMCcsICctbWV0YWxfYmluZGluZycsICctaW1hZScsICc8aW5maWxlLm1hZT4nLCAnLW9tYWUnLCAnPG91dGZpbGUubWFlPic=

> <r_lp_tautomer_probability>
1

> <r_epik_Ionization_Penalty>
2.5696e-07

> <r_epik_Ionization_Penalty_Charging>
1.04886e-08

> <r_epik_Ionization_Penalty_Neutral>
2.46472e-07

> <r_epik_State_Penalty>
-0

> <r_epik_Charging_Adjusted_Penalty>
1.04886e-08

> <i_epik_Tot_Q>
0

> <i_epik_Tot_abs_Q>
2

> <r_epik_Metal_State_Penalty>
-0

> <b_epik_Metal_Only>
0

> <s_epik_Chemistry_Notes>
This compound contains an acetal/aminal-like group ( X-CH(R)-Y where X, Y are N, S, or O) that may be acid/base labile, releasing an aldehyde.

> <s_lp_Force_Field>
OPLS_2005

> <r_lp_Energy>
59.9345

> <b_lp_Chiralities_Consistent>
1

> <s_lp_Variant>
AV-unprocessed.smi:112-7

> <Gold.Version>
5.8.1

> <Gold.Id.Protein>
6NUR|6NUR_protein|mol2

> <Gold.PLP.Fitness>
44.0583

> <Gold.PLP.PLP>
-37.5202

> <Gold.PLP.part.hbond>
-4.6398

> <Gold.PLP.part.metal>
0.0000

> <Gold.PLP.part.buried>
-6.2367

> <Gold.PLP.part.nonpolar>
-28.8626

> <Gold.PLP.part.repulsive>
1.7104

> <Gold.PLP.ligand.clash>
0.0000

> <Gold.PLP.ligand.torsion>
0.6260

> <Gold.PLP.Chemscore.Hbond>
2.5872

> <Gold.PLP.Chemscore.CHOScore>
0.0000

> <Gold.PLP.Chemscore.Metal>
0.0000

> <Gold.Chemscore.Hbonds>
donor molecule, donor type, donor heavy atom, donor atom, acceptor molecule, acceptor atom, score
      L1  H     8    41       P1 10186  0.71
      L1  H    11    45       P1 10747  0.57
      P1  H 10785 10796       L1     8  0.81
      P1  H 11000 11005       L1    18  0.11

> <Gold.PLP.Chemscore.Internal.Correction>
0.0285

> <Gold.Rescore>
     Score         DG    S(hbond)    S(metal)    S(lipo)     H(rot)  DE(clash)    DE(int)     intcor
     11.77     -15.25       2.38        0.00      87.50       3.29       0.73       2.75       ----

> <Gold.Chemscore.Fitness>
11.7709

> <Gold.Chemscore.DG>
-15.2546

> <Gold.Chemscore.ZeroCoef>
-5.4800

> <Gold.Chemscore.Hbond>
2.3841

> <Gold.Chemscore.Metal>
0.0000

> <Gold.Chemscore.Lipo>
87.5049

> <Gold.Chemscore.Internal_Hbond>
0.0000

> <Gold.Chemscore.DEClash>
0.7305

> <Gold.Chemscore.DEInternal>
2.7532

> <Gold.Chemscore.Rot>
3.2916

> <Gold.Chemscore.Internal.Correction>
   9.000000E+99

> <Gold.Chemscore.Hbonds>
donor molecule, donor type, donor heavy atom, donor atom, acceptor molecule, acceptor atom, score
      L1  H     8    41       P1 10186  0.70
      L1  H    11    45       P1 10747  0.55
      P1  H 10785 10796       L1     8  0.80
      P1  H 11000 11005       L1    18  0.11

> <Gold.Chemscore.Hbond.Weighted>
-7.9630

> <Gold.Chemscore.Metal.Weighted>
-0.0000

> <Gold.Chemscore.Lipo.Weighted>
-10.2381

> <Gold.Chemscore.Internal_Hbond.Weighted>
0.0000

> <Gold.Chemscore.DEClash.Weighted>
0.7305

> <Gold.Chemscore.DEInternal.Weighted>
2.7532

> <Gold.Chemscore.Rot.Weighted>
8.4265

> <Gold.Chemscore.Internal.Correction.Weighted>
   9.000000E+99

> <Gold.Protein.RotatedTorsions>
[ 6907 6896 6895 6894 ] final  -81.63 input  -60.11 | X-H torsion
[ 7974 7965 7964 7962 ] final  -85.82 input  175.53 | X-H torsion
[ 8008 7997 7996 7995 ] final -150.64 input   59.86 | X-H torsion
[ 10167 10162 10161 10158 ] final  103.09 input  -65.29 | X-H torsion
[ 10718 10713 10712 10709 ] final  -57.45 input   66.30 | X-H torsion
[ 10763 10752 10751 10750 ] final  156.61 input  -60.55 | X-H torsion
[ 11005 11000 10999 10996 ] final   38.86 input  -57.11 | X-H torsion

> <Gold.Protein.ActiveResidues>
 VAL166  LYS551  ARG553  GLY616  TRP617  ASP618  TYR619  PRO620  LYS621  CYS622 
 ASP623  PHE694  ASN695  SER759  ASP760  ASP761  ALA762  ILE779  LEU786  VAL792 
 PHE793  MET794  SER795  GLU796  ALA797  LYS798  CYS799  TRP800  GLU811  SER814 

> <Gold.Protein.RotatedAtoms>
  150.6909  134.3788  159.5024 H   0  0  0  0  0  0  0  0  0  0  0  0  # atno 6907 bound_to 6896
  152.1594  134.8922  160.0552 H   0  0  0  0  0  0  0  0  0  0  0  0  # atno 6908 bound_to 6896
  151.9990  133.3783  159.4211 H   0  0  0  0  0  0  0  0  0  0  0  0  # atno 6909 bound_to 6896
  145.4882  140.9554  143.1827 H   0  0  0  0  0  0  0  0  0  0  0  0  # atno 7974 bound_to 7965
  155.6268  140.0687  157.2661 H   0  0  0  0  0  0  0  0  0  0  0  0  # atno 8008 bound_to 7997
  154.4215  140.1774  156.1478 H   0  0  0  0  0  0  0  0  0  0  0  0  # atno 8009 bound_to 7997
  155.9965  140.3340  155.6807 H   0  0  0  0  0  0  0  0  0  0  0  0  # atno 8010 bound_to 7997
  139.7293  144.7040  151.0747 H   0  0  0  0  0  0  0  0  0  0  0  0  # atno 10167 bound_to 10162
  156.1209  130.4166  150.0443 H   0  0  0  0  0  0  0  0  0  0  0  0  # atno 10718 bound_to 10713
  154.1871  135.2796  155.3034 H   0  0  0  0  0  0  0  0  0  0  0  0  # atno 10763 bound_to 10752
  154.5958  135.5545  153.7327 H   0  0  0  0  0  0  0  0  0  0  0  0  # atno 10764 bound_to 10752
  153.0122  135.6379  154.2010 H   0  0  0  0  0  0  0  0  0  0  0  0  # atno 10765 bound_to 10752
  140.2085  134.3784  155.8061 H   0  0  0  0  0  0  0  0  0  0  0  0  # atno 11005 bound_to 11000
  144.7849  139.6447  143.7138 LP  0  0  0  0  0  0  0  0  0  0  0  0  # atno 17320 bound_to 7965
  146.2300  139.5796  142.9561 LP  0  0  0  0  0  0  0  0  0  0  0  0  # atno 17321 bound_to 7965
  140.7768  143.5064  150.9707 LP  0  0  0  0  0  0  0  0  0  0  0  0  # atno 17342 bound_to 10162
  139.8752  143.7142  152.3162 LP  0  0  0  0  0  0  0  0  0  0  0  0  # atno 17343 bound_to 10162
  156.8381  130.9416  151.3633 LP  0  0  0  0  0  0  0  0  0  0  0  0  # atno 17370 bound_to 10713
  157.6393  130.8792  149.9417 LP  0  0  0  0  0  0  0  0  0  0  0  0  # atno 17371 bound_to 10713
  141.2226  133.7130  156.8378 LP  0  0  0  0  0  0  0  0  0  0  0  0  # atno 17394 bound_to 11000
  140.1977  134.8920  157.3133 LP  0  0  0  0  0  0  0  0  0  0  0  0  # atno 17395 bound_to 11000

$$$$
