AV-unprocessed.smi:1645|AV-procd|sdf|6614|dock1
  -GOLD-   22720 7313D 1   1.00000     0.00000
 Structure written by MMmdl.
 56 59  0  0  0  0  0  0  0  0  3 V2000
  148.8465  135.4814  156.3022 O   0  0  0  0  0  0  0  0  0  0  0  0
  149.0441  135.7025  155.1079 C   0  0  0  0  0  0  0  0  0  0  0  0
  149.5678  136.8324  154.6021 N   0  0  0  0  0  0  0  0  0  0  0  0
  150.0635  137.9684  155.2987 C   0  0  0  0  0  0  0  0  0  0  0  0
  151.1875  138.6309  154.7632 C   0  0  0  0  0  0  0  0  0  0  0  0
  151.7266  139.7513  155.4280 C   0  0  0  0  0  0  0  0  0  0  0  0
  151.1436  140.2021  156.6393 C   0  0  0  0  0  0  0  0  0  0  0  0
  151.6109  141.3154  157.3742 N   0  0  0  0  0  0  0  0  0  0  0  0
  150.8562  142.5628  157.2138 C   0  0  0  0  0  0  0  0  0  0  0  0
  151.6694  143.7782  157.6909 C   0  0  0  0  0  0  0  0  0  0  0  0
  152.1828  143.5734  159.1227 C   0  0  0  0  0  0  0  0  0  0  0  0
  152.9898  142.2706  159.2040 C   0  0  0  0  0  0  0  0  0  0  0  0
  152.1632  141.0718  158.7084 C   0  0  0  0  0  0  0  0  0  0  0  0
  150.0713  139.5258  157.1181 N   0  3  0  0  0  0  0  0  0  0  0  0
  149.5215  138.4509  156.5136 C   0  0  0  0  0  0  0  0  0  0  0  0
  148.7305  134.8330  154.1362 N   0  0  0  0  0  0  0  0  0  0  0  0
  148.1598  133.5032  154.3480 C   0  0  2  0  0  0  0  0  0  0  0  0
  149.2027  132.3745  154.2386 C   0  0  0  0  0  0  0  0  0  0  0  0
  148.4734  131.2455  153.5028 C   0  0  0  0  0  0  0  0  0  0  0  0
  147.5801  131.9724  152.5935 N   0  3  1  0  0  0  0  0  0  0  0  0
  146.5308  131.2186  151.8781 C   0  0  0  0  0  0  0  0  0  0  0  0
  145.8653  132.1638  150.8544 C   0  0  0  0  0  0  0  0  0  0  0  0
  145.3816  133.4824  151.5007 C   0  0  0  0  0  0  0  0  0  0  0  0
  146.4894  134.1518  152.3433 C   0  0  0  0  0  0  0  0  0  0  0  0
  147.0458  133.1226  153.3433 C   0  0  2  0  0  0  0  0  0  0  0  0
  149.5914  136.8990  153.5950 H   0  0  0  0  0  0  0  0  0  0  0  0
  151.6383  138.2862  153.8437 H   0  0  0  0  0  0  0  0  0  0  0  0
  152.5900  140.2364  154.9983 H   0  0  0  0  0  0  0  0  0  0  0  0
  150.5657  142.7294  156.1767 H   0  0  0  0  0  0  0  0  0  0  0  0
  149.9328  142.4849  157.7894 H   0  0  0  0  0  0  0  0  0  0  0  0
  152.5144  143.9382  157.0198 H   0  0  0  0  0  0  0  0  0  0  0  0
  151.0577  144.6791  157.6378 H   0  0  0  0  0  0  0  0  0  0  0  0
  152.7997  144.4192  159.4274 H   0  0  0  0  0  0  0  0  0  0  0  0
  151.3415  143.5324  159.8157 H   0  0  0  0  0  0  0  0  0  0  0  0
  153.8933  142.3650  158.5998 H   0  0  0  0  0  0  0  0  0  0  0  0
  153.3200  142.0973  160.2285 H   0  0  0  0  0  0  0  0  0  0  0  0
  151.3456  140.8682  159.4012 H   0  0  0  0  0  0  0  0  0  0  0  0
  152.8088  140.1933  158.6964 H   0  0  0  0  0  0  0  0  0  0  0  0
  148.6817  138.0206  157.0377 H   0  0  0  0  0  0  0  0  0  0  0  0
  148.9199  135.1002  153.1810 H   0  0  0  0  0  0  0  0  0  0  0  0
  147.7365  133.4609  155.3538 H   0  0  0  0  0  0  0  0  0  0  0  0
  150.0540  132.7019  153.6394 H   0  0  0  0  0  0  0  0  0  0  0  0
  149.5859  132.0599  155.2099 H   0  0  0  0  0  0  0  0  0  0  0  0
  149.1534  130.5834  152.9658 H   0  0  0  0  0  0  0  0  0  0  0  0
  147.8843  130.6483  154.2008 H   0  0  0  0  0  0  0  0  0  0  0  0
  146.9740  130.3630  151.3674 H   0  0  0  0  0  0  0  0  0  0  0  0
  145.7969  130.8302  152.5858 H   0  0  0  0  0  0  0  0  0  0  0  0
  146.5830  132.3980  150.0669 H   0  0  0  0  0  0  0  0  0  0  0  0
  145.0311  131.6586  150.3666 H   0  0  0  0  0  0  0  0  0  0  0  0
  145.0291  134.1697  150.7311 H   0  0  0  0  0  0  0  0  0  0  0  0
  144.5229  133.2727  152.1399 H   0  0  0  0  0  0  0  0  0  0  0  0
  147.2843  134.5202  151.6931 H   0  0  0  0  0  0  0  0  0  0  0  0
  146.0796  135.0151  152.8680 H   0  0  0  0  0  0  0  0  0  0  0  0
  146.2088  132.7603  153.9443 H   0  0  0  0  0  0  0  0  0  0  0  0
  148.1839  132.3620  151.8838 H   0  0  0  0  0  0  0  0  0  0  0  0
  149.6520  139.8477  157.9907 H   0  0  0  0  0  0  0  0  0  0  0  0
  1  2  2  0  0  0  0
  2  3  1  0  0  0  0
  2 16  1  0  0  0  0
  3  4  1  0  0  0  0
  3 26  1  0  0  0  0
  4 15  1  0  0  0  0
  4  5  2  0  0  0  0
  5  6  1  0  0  0  0
  5 27  1  0  0  0  0
  6  7  2  0  0  0  0
  6 28  1  0  0  0  0
  7  8  1  0  0  0  0
  7 14  1  0  0  0  0
  8 13  1  0  0  0  0
  8  9  1  0  0  0  0
  9 10  1  0  0  0  0
  9 29  1  0  0  0  0
  9 30  1  0  0  0  0
 10 11  1  0  0  0  0
 10 31  1  0  0  0  0
 10 32  1  0  0  0  0
 11 12  1  0  0  0  0
 11 33  1  0  0  0  0
 11 34  1  0  0  0  0
 12 13  1  0  0  0  0
 12 35  1  0  0  0  0
 12 36  1  0  0  0  0
 13 37  1  0  0  0  0
 13 38  1  0  0  0  0
 14 15  2  0  0  0  0
 14 56  1  0  0  0  0
 15 39  1  0  0  0  0
 16 17  1  0  0  0  0
 16 40  1  0  0  0  0
 17 25  1  0  0  0  0
 17 18  1  0  0  0  0
 17 41  1  0  0  0  0
 18 19  1  0  0  0  0
 18 42  1  0  0  0  0
 18 43  1  0  0  0  0
 19 20  1  0  0  0  0
 19 44  1  0  0  0  0
 19 45  1  0  0  0  0
 20 25  1  0  0  0  0
 20 21  1  0  0  0  0
 20 55  1  0  0  0  0
 21 22  1  0  0  0  0
 21 46  1  0  0  0  0
 21 47  1  0  0  0  0
 22 23  1  0  0  0  0
 22 48  1  0  0  0  0
 22 49  1  0  0  0  0
 23 24  1  0  0  0  0
 23 50  1  0  0  0  0
 23 51  1  0  0  0  0
 24 25  1  0  0  0  0
 24 52  1  0  0  0  0
 24 53  1  0  0  0  0
 25 54  1  0  0  0  0
M  CHG  1  14   1
M  CHG  1  20   1
M  END
> <s_m_source_file>
AV-unprocessed.smi

> <i_m_source_file_index>
1645

> <i_lp_mmshare_version>
43012

> <i_f3d_flags>
0

> <s_epik_input>
W0NIMl0xW0NIMl1bQ0gyXVtDSDJdW0NASF0oTjEyKVtDQEBIXShbQ0gyXVtDSDJdMilbTkhdQyg9TylbTkhdYzNbY0hdW2NIXWMobltjSF0zKU40W0NIMl1bQ0gyXVtDSDJdW0NIMl1bQ0gyXTQ=

> <s_epik_cmdline>
J2VwaWtfcHl0aG9uJywgJy1waCcsICc3LjAnLCAnLXRuJywgJzgnLCAnLW1hJywgJzIwMCcsICctbWV0YWxfYmluZGluZycsICctaW1hZScsICc8aW5maWxlLm1hZT4nLCAnLW9tYWUnLCAnPG91dGZpbGUubWFlPic=

> <r_lp_tautomer_probability>
0.999994

> <r_epik_Ionization_Penalty>
1.26838

> <r_epik_Ionization_Penalty_Charging>
1.26836

> <r_epik_Ionization_Penalty_Neutral>
1.95562e-05

> <r_epik_State_Penalty>
1.33841

> <r_epik_Charging_Adjusted_Penalty>
2.60677

> <i_epik_Tot_Q>
2

> <i_epik_Tot_abs_Q>
2

> <r_epik_Metal_State_Penalty>
1.40601

> <b_epik_Metal_Only>
0

> <s_lp_Force_Field>
OPLS_2005

> <r_lp_Energy>
64.8366

> <b_lp_Chiralities_Consistent>
1

> <s_lp_Variant>
AV-unprocessed.smi:1645-15

> <Gold.Version>
5.8.1

> <Gold.Id.Protein>
6NUR|6NUR_protein|mol2

> <Gold.PLP.Fitness>
47.8237

> <Gold.PLP.PLP>
-42.7315

> <Gold.PLP.part.hbond>
-3.0000

> <Gold.PLP.part.metal>
0.0000

> <Gold.PLP.part.buried>
-2.0835

> <Gold.PLP.part.nonpolar>
-37.7226

> <Gold.PLP.part.repulsive>
0.0749

> <Gold.PLP.ligand.clash>
0.0000

> <Gold.PLP.ligand.torsion>
0.8043

> <Gold.PLP.Chemscore.Hbond>
2.0575

> <Gold.PLP.Chemscore.CHOScore>
0.0000

> <Gold.PLP.Chemscore.Metal>
0.0000

> <Gold.Chemscore.Hbonds>
donor molecule, donor type, donor heavy atom, donor atom, acceptor molecule, acceptor atom, score
      L1  H     3    26       P1  7948  0.99
      L1  H    16    40       P1  7948  1.00
      L1  H    20    55       P1 10747  0.08

> <Gold.PLP.Chemscore.Internal.Correction>
0.5283

> <Gold.Rescore>
     Score         DG    S(hbond)    S(metal)    S(lipo)     H(rot)  DE(clash)    DE(int)     intcor
     20.47     -22.06       1.86        0.00     114.68       1.18       0.09       1.50       ----

> <Gold.Chemscore.Fitness>
20.4674

> <Gold.Chemscore.DG>
-22.0643

> <Gold.Chemscore.ZeroCoef>
-5.4800

> <Gold.Chemscore.Hbond>
1.8551

> <Gold.Chemscore.Metal>
0.0000

> <Gold.Chemscore.Lipo>
114.6805

> <Gold.Chemscore.Internal_Hbond>
0.0000

> <Gold.Chemscore.DEClash>
0.0932

> <Gold.Chemscore.DEInternal>
1.5036

> <Gold.Chemscore.Rot>
1.1833

> <Gold.Chemscore.Internal.Correction>
   9.000000E+99

> <Gold.Chemscore.Hbonds>
donor molecule, donor type, donor heavy atom, donor atom, acceptor molecule, acceptor atom, score
      L1  H     3    26       P1  7948  0.73
      L1  H    16    40       P1  7948  0.34
      L1  H    20    55       P1 10747  0.09

> <Gold.Chemscore.Hbond.Weighted>
-6.1960

> <Gold.Chemscore.Metal.Weighted>
-0.0000

> <Gold.Chemscore.Lipo.Weighted>
-13.4176

> <Gold.Chemscore.Internal_Hbond.Weighted>
0.0000

> <Gold.Chemscore.DEClash.Weighted>
0.0932

> <Gold.Chemscore.DEInternal.Weighted>
1.5036

> <Gold.Chemscore.Rot.Weighted>
3.0293

> <Gold.Chemscore.Internal.Correction.Weighted>
   9.000000E+99

> <Gold.Protein.RotatedTorsions>
[ 6907 6896 6895 6894 ] final -170.72 input  -60.11 | X-H torsion
[ 7974 7965 7964 7962 ] final  151.99 input  175.53 | X-H torsion
[ 8008 7997 7996 7995 ] final    0.14 input   59.86 | X-H torsion
[ 10167 10162 10161 10158 ] final -103.07 input  -65.29 | X-H torsion
[ 10718 10713 10712 10709 ] final -113.61 input   66.30 | X-H torsion
[ 10763 10752 10751 10750 ] final  175.98 input  -60.55 | X-H torsion
[ 11005 11000 10999 10996 ] final  -42.97 input  -57.11 | X-H torsion

> <Gold.Protein.ActiveResidues>
 VAL166  LYS551  ARG553  GLY616  TRP617  ASP618  TYR619  PRO620  LYS621  CYS622 
 ASP623  PHE694  ASN695  SER759  ASP760  ASP761  ALA762  ILE779  LEU786  VAL792 
 PHE793  MET794  SER795  GLU796  ALA797  LYS798  CYS799  TRP800  GLU811  SER814 

> <Gold.Protein.RotatedAtoms>
  151.5123  133.3482  159.2886 H   0  0  0  0  0  0  0  0  0  0  0  0  # atno 6907 bound_to 6896
  150.8704  134.8079  159.7162 H   0  0  0  0  0  0  0  0  0  0  0  0  # atno 6908 bound_to 6896
  152.4694  134.5006  159.9775 H   0  0  0  0  0  0  0  0  0  0  0  0  # atno 6909 bound_to 6896
  144.8253  139.6610  143.6082 H   0  0  0  0  0  0  0  0  0  0  0  0  # atno 7974 bound_to 7965
  154.6646  140.2598  155.7071 H   0  0  0  0  0  0  0  0  0  0  0  0  # atno 8008 bound_to 7997
  156.2633  140.2841  156.1054 H   0  0  0  0  0  0  0  0  0  0  0  0  # atno 8009 bound_to 7997
  155.1257  140.0378  157.2752 H   0  0  0  0  0  0  0  0  0  0  0  0  # atno 8010 bound_to 7997
  140.2240  143.3655  152.0945 H   0  0  0  0  0  0  0  0  0  0  0  0  # atno 10167 bound_to 10162
  156.0777  130.5982  150.8664 H   0  0  0  0  0  0  0  0  0  0  0  0  # atno 10718 bound_to 10713
  154.4749  135.2772  155.1614 H   0  0  0  0  0  0  0  0  0  0  0  0  # atno 10763 bound_to 10752
  154.3348  135.6182  153.5572 H   0  0  0  0  0  0  0  0  0  0  0  0  # atno 10764 bound_to 10752
  152.9868  135.5774  154.5138 H   0  0  0  0  0  0  0  0  0  0  0  0  # atno 10765 bound_to 10752
  141.0352  133.6803  156.2668 H   0  0  0  0  0  0  0  0  0  0  0  0  # atno 11005 bound_to 11000
  146.2559  139.6301  142.9395 LP  0  0  0  0  0  0  0  0  0  0  0  0  # atno 17320 bound_to 7965
  145.5013  141.0437  143.2539 LP  0  0  0  0  0  0  0  0  0  0  0  0  # atno 17321 bound_to 7965
  139.5134  144.6932  151.5703 LP  0  0  0  0  0  0  0  0  0  0  0  0  # atno 17342 bound_to 10162
  140.6234  143.9214  150.6545 LP  0  0  0  0  0  0  0  0  0  0  0  0  # atno 17343 bound_to 10162
  157.5880  131.0945  150.9165 LP  0  0  0  0  0  0  0  0  0  0  0  0  # atno 17370 bound_to 10713
  156.9346  130.5362  149.5279 LP  0  0  0  0  0  0  0  0  0  0  0  0  # atno 17371 bound_to 10713
  140.6335  134.5240  157.5562 LP  0  0  0  0  0  0  0  0  0  0  0  0  # atno 17394 bound_to 11000
  139.9236  134.8100  156.1137 LP  0  0  0  0  0  0  0  0  0  0  0  0  # atno 17395 bound_to 11000

$$$$
