AV-unprocessed.smi:2942|AV-procd|sdf|11266|dock3
  -GOLD-   2272016153D 1   1.00000     0.00000
 Structure written by MMmdl.
 45 48  0  0  0  0  0  0  0  0  1 V2000
  149.1627  135.2136  158.5408 O   0  0  0  0  0  0  0  0  0  0  0  0
  148.8576  136.2001  159.2122 C   0  0  0  0  0  0  0  0  0  0  0  0
  149.4400  137.3968  159.0332 N   0  0  0  0  0  0  0  0  0  0  0  0
  150.4378  137.7101  158.0156 C   0  0  0  0  0  0  0  0  0  0  0  0
  151.4658  138.7664  158.4739 C   0  0  0  0  0  0  0  0  0  0  0  0
  151.2558  140.1397  157.8554 C   0  0  0  0  0  0  0  0  0  0  0  0
  151.2825  141.2998  158.6582 C   0  0  0  0  0  0  0  0  0  0  0  0
  151.0515  142.5462  158.0444 C   0  0  0  0  0  0  0  0  0  0  0  0
  150.8039  142.5855  156.6587 C   0  0  0  0  0  0  0  0  0  0  0  0
  150.7989  141.3707  155.9447 C   0  0  0  0  0  0  0  0  0  0  0  0
  151.0180  140.1711  156.5240 N   0  0  0  0  0  0  0  0  0  0  0  0
  147.7467  136.1118  160.2847 C   0  0  0  0  0  0  0  0  0  0  0  0
  147.2802  134.6370  160.4114 C   0  0  0  0  0  0  0  0  0  0  0  0
  146.1778  134.5141  161.4852 C   0  0  1  0  0  0  0  0  0  0  0  0
  146.7302  134.9763  162.8494 C   0  0  0  0  0  0  0  0  0  0  0  0
  147.1777  136.4491  162.7438 C   0  0  2  0  0  0  0  0  0  0  0  0
  145.9747  137.3324  162.3552 C   0  0  0  0  0  0  0  0  0  0  0  0
  145.4225  136.8656  160.9931 C   0  0  2  0  0  0  0  0  0  0  0  0
  144.9713  135.3927  161.0918 C   0  0  0  0  0  0  0  0  0  0  0  0
  146.5199  136.9968  159.9156 C   0  0  0  0  0  0  0  0  0  0  0  0
  148.2804  136.5763  161.6713 C   0  0  0  0  0  0  0  0  0  0  0  0
  149.1364  138.1594  159.6213 H   0  0  0  0  0  0  0  0  0  0  0  0
  150.9596  136.7811  157.7852 H   0  0  0  0  0  0  0  0  0  0  0  0
  149.9514  138.0257  157.0916 H   0  0  0  0  0  0  0  0  0  0  0  0
  151.4351  138.8590  159.5600 H   0  0  0  0  0  0  0  0  0  0  0  0
  152.4731  138.4226  158.2336 H   0  0  0  0  0  0  0  0  0  0  0  0
  151.4679  141.2366  159.7202 H   0  0  0  0  0  0  0  0  0  0  0  0
  151.0610  143.4556  158.6268 H   0  0  0  0  0  0  0  0  0  0  0  0
  150.6216  143.5232  156.1551 H   0  0  0  0  0  0  0  0  0  0  0  0
  150.6106  141.3617  154.8813 H   0  0  0  0  0  0  0  0  0  0  0  0
  146.8962  134.2760  159.4561 H   0  0  0  0  0  0  0  0  0  0  0  0
  148.1205  133.9890  160.6666 H   0  0  0  0  0  0  0  0  0  0  0  0
  145.8594  133.4736  161.5573 H   0  0  0  0  0  0  0  0  0  0  0  0
  145.9684  134.8668  163.6222 H   0  0  0  0  0  0  0  0  0  0  0  0
  147.5684  134.3466  163.1505 H   0  0  0  0  0  0  0  0  0  0  0  0
  147.5705  136.7771  163.7066 H   0  0  0  0  0  0  0  0  0  0  0  0
  145.1984  137.2720  163.1190 H   0  0  0  0  0  0  0  0  0  0  0  0
  146.2758  138.3795  162.3025 H   0  0  0  0  0  0  0  0  0  0  0  0
  144.5703  137.4871  160.7173 H   0  0  0  0  0  0  0  0  0  0  0  0
  144.5555  135.0595  160.1402 H   0  0  0  0  0  0  0  0  0  0  0  0
  144.1739  135.2907  161.8288 H   0  0  0  0  0  0  0  0  0  0  0  0
  146.8201  138.0411  159.8163 H   0  0  0  0  0  0  0  0  0  0  0  0
  146.0987  136.7053  158.9525 H   0  0  0  0  0  0  0  0  0  0  0  0
  149.1421  135.9797  161.9755 H   0  0  0  0  0  0  0  0  0  0  0  0
  148.6265  137.6099  161.6193 H   0  0  0  0  0  0  0  0  0  0  0  0
  1  2  2  0  0  0  0
  2  3  1  0  0  0  0
  2 12  1  0  0  0  0
  3  4  1  0  0  0  0
  3 22  1  0  0  0  0
  4  5  1  0  0  0  0
  4 23  1  0  0  0  0
  4 24  1  0  0  0  0
  5  6  1  0  0  0  0
  5 25  1  0  0  0  0
  5 26  1  0  0  0  0
  6 11  1  0  0  0  0
  6  7  2  0  0  0  0
  7  8  1  0  0  0  0
  7 27  1  0  0  0  0
  8  9  2  0  0  0  0
  8 28  1  0  0  0  0
  9 10  1  0  0  0  0
  9 29  1  0  0  0  0
 10 11  2  0  0  0  0
 10 30  1  0  0  0  0
 12 20  1  0  0  0  0
 12 21  1  0  0  0  0
 12 13  1  0  0  0  0
 13 14  1  0  0  0  0
 13 31  1  0  0  0  0
 13 32  1  0  0  0  0
 14 19  1  0  0  0  0
 14 15  1  0  0  0  0
 14 33  1  0  0  0  0
 15 16  1  0  0  0  0
 15 34  1  0  0  0  0
 15 35  1  0  0  0  0
 16 17  1  0  0  0  0
 16 21  1  0  0  0  0
 16 36  1  0  0  0  0
 17 18  1  0  0  0  0
 17 37  1  0  0  0  0
 17 38  1  0  0  0  0
 18 19  1  0  0  0  0
 18 20  1  0  0  0  0
 18 39  1  0  0  0  0
 19 40  1  0  0  0  0
 19 41  1  0  0  0  0
 20 42  1  0  0  0  0
 20 43  1  0  0  0  0
 21 44  1  0  0  0  0
 21 45  1  0  0  0  0
M  END
> <s_m_source_file>
AV-unprocessed.smi

> <i_m_source_file_index>
2942

> <i_lp_mmshare_version>
43012

> <i_f3d_flags>
0

> <s_epik_input>
W0NIMl0xW0NASF0oW0NIMl0yKVtDSDJdW0NASF0oW0NIMl0zKVtDSDJdW0NAQEhdMVtDSDJdQzIzQyg9TylbTkhdW0NIMl1bQ0gyXWM0W2NIXVtjSF1bY0hdW2NIXW40

> <s_epik_cmdline>
J2VwaWtfcHl0aG9uJywgJy1waCcsICc3LjAnLCAnLXRuJywgJzgnLCAnLW1hJywgJzIwMCcsICctbWV0YWxfYmluZGluZycsICctaW1hZScsICc8aW5maWxlLm1hZT4nLCAnLW9tYWUnLCAnPG91dGZpbGUubWFlPic=

> <r_epik_Ionization_Penalty>
0.0283659

> <r_epik_Ionization_Penalty_Charging>
0

> <r_epik_Ionization_Penalty_Neutral>
0.0283659

> <r_epik_State_Penalty>
0.0232723

> <r_epik_Charging_Adjusted_Penalty>
0.0232723

> <i_epik_Tot_Q>
0

> <i_epik_Tot_abs_Q>
0

> <r_epik_Metal_State_Penalty>
0.0222054

> <b_epik_Metal_Only>
0

> <s_lp_Force_Field>
OPLS_2005

> <r_lp_Energy>
35.5919

> <b_lp_Chiralities_Consistent>
1

> <s_lp_Variant>
AV-unprocessed.smi:2942-1

> <Gold.Version>
5.8.1

> <Gold.Id.Protein>
6NUR|6NUR_protein|mol2

> <Gold.PLP.Fitness>
36.5536

> <Gold.PLP.PLP>
-35.0042

> <Gold.PLP.part.hbond>
-1.0000

> <Gold.PLP.part.metal>
0.0000

> <Gold.PLP.part.buried>
-3.7751

> <Gold.PLP.part.nonpolar>
-30.3727

> <Gold.PLP.part.repulsive>
0.2061

> <Gold.PLP.ligand.clash>
0.0000

> <Gold.PLP.ligand.torsion>
0.7368

> <Gold.PLP.Chemscore.Hbond>
1.0000

> <Gold.PLP.Chemscore.CHOScore>
0.0000

> <Gold.PLP.Chemscore.Metal>
0.0000

> <Gold.Chemscore.Hbonds>
donor molecule, donor type, donor heavy atom, donor atom, acceptor molecule, acceptor atom, score
      P1  H  6896  6908       L1     1  1.00

> <Gold.PLP.Chemscore.Internal.Correction>
0.0230

> <Gold.Rescore>
     Score         DG    S(hbond)    S(metal)    S(lipo)     H(rot)  DE(clash)    DE(int)     intcor
     16.37     -17.41       0.84        0.00     107.04       1.32       0.47       0.58       ----

> <Gold.Chemscore.Fitness>
16.3653

> <Gold.Chemscore.DG>
-17.4099

> <Gold.Chemscore.ZeroCoef>
-5.4800

> <Gold.Chemscore.Hbond>
0.8379

> <Gold.Chemscore.Metal>
0.0000

> <Gold.Chemscore.Lipo>
107.0356

> <Gold.Chemscore.Internal_Hbond>
0.0000

> <Gold.Chemscore.DEClash>
0.4660

> <Gold.Chemscore.DEInternal>
0.5785

> <Gold.Chemscore.Rot>
1.3250

> <Gold.Chemscore.Internal.Correction>
   9.000000E+99

> <Gold.Chemscore.Hbonds>
donor molecule, donor type, donor heavy atom, donor atom, acceptor molecule, acceptor atom, score
      P1  H  6896  6908       L1     1  0.76

> <Gold.Chemscore.Hbond.Weighted>
-2.7987

> <Gold.Chemscore.Metal.Weighted>
-0.0000

> <Gold.Chemscore.Lipo.Weighted>
-12.5232

> <Gold.Chemscore.Internal_Hbond.Weighted>
0.0000

> <Gold.Chemscore.DEClash.Weighted>
0.4660

> <Gold.Chemscore.DEInternal.Weighted>
0.5785

> <Gold.Chemscore.Rot.Weighted>
3.3920

> <Gold.Chemscore.Internal.Correction.Weighted>
   9.000000E+99

> <Gold.Protein.RotatedTorsions>
[ 6907 6896 6895 6894 ] final  143.06 input  -60.11 | X-H torsion
[ 7974 7965 7964 7962 ] final  -90.53 input  175.53 | X-H torsion
[ 8008 7997 7996 7995 ] final -131.07 input   59.86 | X-H torsion
[ 10167 10162 10161 10158 ] final   16.06 input  -65.29 | X-H torsion
[ 10718 10713 10712 10709 ] final   56.82 input   66.30 | X-H torsion
[ 10763 10752 10751 10750 ] final   54.33 input  -60.55 | X-H torsion
[ 11005 11000 10999 10996 ] final    4.88 input  -57.11 | X-H torsion

> <Gold.Protein.ActiveResidues>
 VAL166  LYS551  ARG553  GLY616  TRP617  ASP618  TYR619  PRO620  LYS621  CYS622 
 ASP623  PHE694  ASN695  SER759  ASP760  ASP761  ALA762  ILE779  LEU786  VAL792 
 PHE793  MET794  SER795  GLU796  ALA797  LYS798  CYS799  TRP800  GLU811  SER814 

> <Gold.Protein.RotatedAtoms>
  152.2110  133.4911  159.5109 H   0  0  0  0  0  0  0  0  0  0  0  0  # atno 6907 bound_to 6896
  150.6990  134.1467  159.4134 H   0  0  0  0  0  0  0  0  0  0  0  0  # atno 6908 bound_to 6896
  151.9387  135.0223  160.0585 H   0  0  0  0  0  0  0  0  0  0  0  0  # atno 6909 bound_to 6896
  145.4253  140.9553  143.2158 H   0  0  0  0  0  0  0  0  0  0  0  0  # atno 7974 bound_to 7965
  155.3063  140.0455  157.3032 H   0  0  0  0  0  0  0  0  0  0  0  0  # atno 8008 bound_to 7997
  154.5458  140.2302  155.8532 H   0  0  0  0  0  0  0  0  0  0  0  0  # atno 8009 bound_to 7997
  156.1923  140.3047  155.9363 H   0  0  0  0  0  0  0  0  0  0  0  0  # atno 8010 bound_to 7997
  140.5824  143.8955  150.6801 H   0  0  0  0  0  0  0  0  0  0  0  0  # atno 10167 bound_to 10162
  157.5463  130.8733  149.8896 H   0  0  0  0  0  0  0  0  0  0  0  0  # atno 10718 bound_to 10713
  152.9803  135.5748  154.4887 H   0  0  0  0  0  0  0  0  0  0  0  0  # atno 10763 bound_to 10752
  154.4425  135.2776  155.1840 H   0  0  0  0  0  0  0  0  0  0  0  0  # atno 10764 bound_to 10752
  154.3502  135.6211  153.5692 H   0  0  0  0  0  0  0  0  0  0  0  0  # atno 10765 bound_to 10752
  140.5770  134.0048  155.8032 H   0  0  0  0  0  0  0  0  0  0  0  0  # atno 11005 bound_to 11000
  144.8218  139.5778  143.6983 LP  0  0  0  0  0  0  0  0  0  0  0  0  # atno 17320 bound_to 7965
  146.2635  139.6466  142.9345 LP  0  0  0  0  0  0  0  0  0  0  0  0  # atno 17321 bound_to 7965
  140.2458  143.3630  152.1448 LP  0  0  0  0  0  0  0  0  0  0  0  0  # atno 17342 bound_to 10162
  139.5177  144.6996  151.5531 LP  0  0  0  0  0  0  0  0  0  0  0  0  # atno 17343 bound_to 10162
  156.0538  130.3712  150.1138 LP  0  0  0  0  0  0  0  0  0  0  0  0  # atno 17370 bound_to 10713
  156.9314  130.9715  151.3532 LP  0  0  0  0  0  0  0  0  0  0  0  0  # atno 17371 bound_to 10713
  141.1020  133.9753  157.3062 LP  0  0  0  0  0  0  0  0  0  0  0  0  # atno 17394 bound_to 11000
  139.9335  135.0198  156.8478 LP  0  0  0  0  0  0  0  0  0  0  0  0  # atno 17395 bound_to 11000

$$$$
