AV-unprocessed.smi:433|AV-procd|sdf|2550|dock6
  -GOLD-   2262022513D 1   1.00000     0.00000
 Structure written by MMmdl.
 36 37  0  0  0  0  0  0  0  0  1 V2000
  151.4409  141.7289  158.0436 C   0  0  0  0  0  0  0  0  0  0  0  0
  150.6816  141.3190  156.8979 N   0  0  0  0  0  0  0  0  0  0  0  0
  149.4807  141.9088  156.5547 C   0  0  0  0  0  0  0  0  0  0  0  0
  148.7533  141.5206  155.4847 C   0  0  0  0  0  0  0  0  0  0  0  0
  149.2113  140.4392  154.6194 C   0  0  0  0  0  0  0  0  0  0  0  0
  148.5663  140.0357  153.6508 O   0  0  0  0  0  0  0  0  0  0  0  0
  150.4564  139.8703  154.9892 N   0  0  0  0  0  0  0  0  0  0  0  0
  150.9650  138.7712  154.1871 C   0  0  0  0  0  0  0  0  0  0  0  0
  151.1163  137.4595  154.9907 C   0  0  2  0  0  0  0  0  0  0  0  0
  151.8100  136.5173  154.1983 O   0  0  0  0  0  0  0  0  0  0  0  0
  149.7586  136.8399  155.3530 C   0  0  0  0  0  0  0  0  0  0  0  0
  149.9923  135.6337  156.0676 O   0  0  0  0  0  0  0  0  0  0  0  0
  149.7627  134.4365  155.4259 C   0  0  0  0  0  0  0  0  0  0  0  0
  150.1701  133.2646  156.0966 C   0  0  0  0  0  0  0  0  0  0  0  0
  149.9741  131.9968  155.5161 C   0  0  0  0  0  0  0  0  0  0  0  0
  149.3663  131.8888  154.2517 C   0  0  0  0  0  0  0  0  0  0  0  0
  148.9563  133.0499  153.5706 C   0  0  0  0  0  0  0  0  0  0  0  0
  149.1522  134.3182  154.1515 C   0  0  0  0  0  0  0  0  0  0  0  0
  151.2082  140.2646  156.1205 C   0  0  0  0  0  0  0  0  0  0  0  0
  152.2694  139.7130  156.4256 O   0  0  0  0  0  0  0  0  0  0  0  0
  150.9076  142.5492  158.5251 H   0  0  0  0  0  0  0  0  0  0  0  0
  152.4185  142.0606  157.6898 H   0  0  0  0  0  0  0  0  0  0  0  0
  151.5137  140.8706  158.7139 H   0  0  0  0  0  0  0  0  0  0  0  0
  149.1007  142.7131  157.1679 H   0  0  0  0  0  0  0  0  0  0  0  0
  147.8176  142.0142  155.2672 H   0  0  0  0  0  0  0  0  0  0  0  0
  150.2758  138.6514  153.3495 H   0  0  0  0  0  0  0  0  0  0  0  0
  151.8953  139.0893  153.7126 H   0  0  0  0  0  0  0  0  0  0  0  0
  151.6855  137.6236  155.9068 H   0  0  0  0  0  0  0  0  0  0  0  0
  151.5087  136.5970  153.3059 H   0  0  0  0  0  0  0  0  0  0  0  0
  149.1733  137.5409  155.9511 H   0  0  0  0  0  0  0  0  0  0  0  0
  149.1981  136.6176  154.4432 H   0  0  0  0  0  0  0  0  0  0  0  0
  150.6369  133.3392  157.0679 H   0  0  0  0  0  0  0  0  0  0  0  0
  150.2902  131.1077  156.0415 H   0  0  0  0  0  0  0  0  0  0  0  0
  149.2154  130.9170  153.8051 H   0  0  0  0  0  0  0  0  0  0  0  0
  148.4907  132.9684  152.5994 H   0  0  0  0  0  0  0  0  0  0  0  0
  148.8266  135.1858  153.5983 H   0  0  0  0  0  0  0  0  0  0  0  0
  1  2  1  0  0  0  0
  1 21  1  0  0  0  0
  1 22  1  0  0  0  0
  1 23  1  0  0  0  0
  2 19  1  0  0  0  0
  2  3  1  0  0  0  0
  3  4  2  0  0  0  0
  3 24  1  0  0  0  0
  4  5  1  0  0  0  0
  4 25  1  0  0  0  0
  5  6  2  0  0  0  0
  5  7  1  0  0  0  0
  7  8  1  0  0  0  0
  7 19  1  0  0  0  0
  8  9  1  0  0  0  0
  8 26  1  0  0  0  0
  8 27  1  0  0  0  0
  9 10  1  0  0  0  0
  9 11  1  0  0  0  0
  9 28  1  0  0  0  0
 10 29  1  0  0  0  0
 11 12  1  0  0  0  0
 11 30  1  0  0  0  0
 11 31  1  0  0  0  0
 12 13  1  0  0  0  0
 13 18  1  0  0  0  0
 13 14  2  0  0  0  0
 14 15  1  0  0  0  0
 14 32  1  0  0  0  0
 15 16  2  0  0  0  0
 15 33  1  0  0  0  0
 16 17  1  0  0  0  0
 16 34  1  0  0  0  0
 17 18  2  0  0  0  0
 17 35  1  0  0  0  0
 18 36  1  0  0  0  0
 19 20  2  0  0  0  0
M  END
> <s_m_source_file>
AV-unprocessed.smi

> <i_m_source_file_index>
433

> <i_lp_mmshare_version>
43012

> <i_f3d_flags>
0

> <s_epik_input>
W0NIM11uMVtjSF1bY0hdYyg9TyluKGMxPU8pW0NIMl1bQ0BIXShbT0hdKVtDSDJdT2MyW2NIXVtjSF1bY0hdW2NIXVtjSF0y

> <s_epik_cmdline>
J2VwaWtfcHl0aG9uJywgJy1waCcsICc3LjAnLCAnLXRuJywgJzgnLCAnLW1hJywgJzIwMCcsICctbWV0YWxfYmluZGluZycsICctaW1hZScsICc8aW5maWxlLm1hZT4nLCAnLW9tYWUnLCAnPG91dGZpbGUubWFlPic=

> <r_lp_tautomer_probability>
1

> <r_epik_Ionization_Penalty>
2.21742e-07

> <r_epik_Ionization_Penalty_Charging>
1.04568e-07

> <r_epik_Ionization_Penalty_Neutral>
1.17174e-07

> <r_epik_State_Penalty>
-0

> <r_epik_Charging_Adjusted_Penalty>
1.04568e-07

> <i_epik_Tot_Q>
0

> <i_epik_Tot_abs_Q>
0

> <r_epik_Metal_State_Penalty>
-0

> <b_epik_Metal_Only>
0

> <s_lp_Force_Field>
OPLS_2005

> <r_lp_Energy>
22.5639

> <b_lp_Chiralities_Consistent>
1

> <s_lp_Variant>
AV-unprocessed.smi:433-1

> <Gold.Version>
5.8.1

> <Gold.Id.Protein>
6NUR|6NUR_protein|mol2

> <Gold.PLP.Fitness>
46.1898

> <Gold.PLP.PLP>
-36.6085

> <Gold.PLP.part.hbond>
-2.7223

> <Gold.PLP.part.metal>
0.0000

> <Gold.PLP.part.buried>
-2.5015

> <Gold.PLP.part.nonpolar>
-31.1923

> <Gold.PLP.part.repulsive>
1.0995

> <Gold.PLP.ligand.clash>
0.0000

> <Gold.PLP.ligand.torsion>
0.4493

> <Gold.PLP.Chemscore.Hbond>
2.9833

> <Gold.PLP.Chemscore.CHOScore>
0.5011

> <Gold.PLP.Chemscore.Metal>
0.0000

> <Gold.Chemscore.Hbonds>
donor molecule, donor type, donor heavy atom, donor atom, acceptor molecule, acceptor atom, score
      L1  H    10    29       P1  7949  1.00
      P1  H  7997  8010       L1    20  0.81
      P1  H 10752 10763       L1    10  0.78
      L1  C     3    24       P1  8028  0.54

> <Gold.PLP.Chemscore.Internal.Correction>
0.0268

> <Gold.Rescore>
     Score         DG    S(hbond)    S(metal)    S(lipo)     H(rot)  DE(clash)    DE(int)     intcor
     14.26     -16.09       2.53        0.00      72.44       2.46       0.14       1.69       ----

> <Gold.Chemscore.Fitness>
14.2580

> <Gold.Chemscore.DG>
-16.0928

> <Gold.Chemscore.ZeroCoef>
-5.4800

> <Gold.Chemscore.Hbond>
2.5261

> <Gold.Chemscore.Metal>
0.0000

> <Gold.Chemscore.Lipo>
72.4384

> <Gold.Chemscore.Internal_Hbond>
0.0000

> <Gold.Chemscore.DEClash>
0.1406

> <Gold.Chemscore.DEInternal>
1.6941

> <Gold.Chemscore.Rot>
2.4608

> <Gold.Chemscore.Internal.Correction>
   9.000000E+99

> <Gold.Chemscore.Hbonds>
donor molecule, donor type, donor heavy atom, donor atom, acceptor molecule, acceptor atom, score
      L1  H    10    29       P1  7949  0.86
      P1  H  7997  8010       L1    20  0.80
      P1  H 10752 10763       L1    10  0.14

> <Gold.Chemscore.Hbond.Weighted>
-8.4371

> <Gold.Chemscore.Metal.Weighted>
-0.0000

> <Gold.Chemscore.Lipo.Weighted>
-8.4753

> <Gold.Chemscore.Internal_Hbond.Weighted>
0.0000

> <Gold.Chemscore.DEClash.Weighted>
0.1406

> <Gold.Chemscore.DEInternal.Weighted>
1.6941

> <Gold.Chemscore.Rot.Weighted>
6.2997

> <Gold.Chemscore.Internal.Correction.Weighted>
   9.000000E+99

> <Gold.Protein.RotatedTorsions>
[ 6907 6896 6895 6894 ] final  -11.39 input  -60.11 | X-H torsion
[ 7974 7965 7964 7962 ] final   58.88 input  175.53 | X-H torsion
[ 8008 7997 7996 7995 ] final   74.47 input   59.86 | X-H torsion
[ 10167 10162 10161 10158 ] final   54.77 input  -65.29 | X-H torsion
[ 10718 10713 10712 10709 ] final  -92.90 input   66.30 | X-H torsion
[ 10763 10752 10751 10750 ] final   16.64 input  -60.55 | X-H torsion
[ 11005 11000 10999 10996 ] final -138.08 input  -57.11 | X-H torsion

> <Gold.Protein.ActiveResidues>
 VAL166  LYS551  ARG553  GLY616  TRP617  ASP618  TYR619  PRO620  LYS621  CYS622 
 ASP623  PHE694  ASN695  SER759  ASP760  ASP761  ALA762  ILE779  LEU786  VAL792 
 PHE793  MET794  SER795  GLU796  ALA797  LYS798  CYS799  TRP800  GLU811  SER814 

> <Gold.Protein.RotatedAtoms>
  151.3870  135.0949  159.9513 H   0  0  0  0  0  0  0  0  0  0  0  0  # atno 6907 bound_to 6896
  152.5091  133.9016  159.7454 H   0  0  0  0  0  0  0  0  0  0  0  0  # atno 6908 bound_to 6896
  150.9462  133.6545  159.2809 H   0  0  0  0  0  0  0  0  0  0  0  0  # atno 6909 bound_to 6896
  145.9133  139.3671  143.0522 H   0  0  0  0  0  0  0  0  0  0  0  0  # atno 7974 bound_to 7965
  155.7988  140.3477  155.5391 H   0  0  0  0  0  0  0  0  0  0  0  0  # atno 8008 bound_to 7997
  155.8559  140.0963  157.1665 H   0  0  0  0  0  0  0  0  0  0  0  0  # atno 8009 bound_to 7997
  154.4009  140.1367  156.3888 H   0  0  0  0  0  0  0  0  0  0  0  0  # atno 8010 bound_to 7997
  140.2265  144.3732  150.6430 H   0  0  0  0  0  0  0  0  0  0  0  0  # atno 10167 bound_to 10162
  156.0007  130.5005  150.5695 H   0  0  0  0  0  0  0  0  0  0  0  0  # atno 10718 bound_to 10713
  153.1412  135.6760  153.9025 H   0  0  0  0  0  0  0  0  0  0  0  0  # atno 10763 bound_to 10752
  153.8481  135.3096  155.3432 H   0  0  0  0  0  0  0  0  0  0  0  0  # atno 10764 bound_to 10752
  154.7788  135.4899  153.9885 H   0  0  0  0  0  0  0  0  0  0  0  0  # atno 10765 bound_to 10752
  140.8650  134.2121  157.4685 H   0  0  0  0  0  0  0  0  0  0  0  0  # atno 11005 bound_to 11000
  145.8643  140.9457  143.0683 LP  0  0  0  0  0  0  0  0  0  0  0  0  # atno 17320 bound_to 7965
  144.6745  140.0572  143.7477 LP  0  0  0  0  0  0  0  0  0  0  0  0  # atno 17321 bound_to 7965
  140.6216  143.2177  151.6682 LP  0  0  0  0  0  0  0  0  0  0  0  0  # atno 17342 bound_to 10162
  139.5125  144.3474  152.0684 LP  0  0  0  0  0  0  0  0  0  0  0  0  # atno 17343 bound_to 10162
  157.3592  131.0747  151.1650 LP  0  0  0  0  0  0  0  0  0  0  0  0  # atno 17370 bound_to 10713
  157.2440  130.6583  149.5902 LP  0  0  0  0  0  0  0  0  0  0  0  0  # atno 17371 bound_to 10713
  139.8709  134.9747  156.4858 LP  0  0  0  0  0  0  0  0  0  0  0  0  # atno 17394 bound_to 11000
  140.8639  133.8039  155.9293 LP  0  0  0  0  0  0  0  0  0  0  0  0  # atno 17395 bound_to 11000

$$$$
