AV-unprocessed.smi:3150|AV-procd|sdf|12013|dock8
  -GOLD-   2272017423D 1   1.00000     0.00000
 Structure written by MMmdl.
 32 33  0  0  0  0  0  0  0  0  2 V2000
  152.1814  138.9297  155.1610 C   0  0  0  0  0  0  0  0  0  0  0  0
  150.8429  139.4230  155.7299 C   0  0  2  0  0  0  0  0  0  0  0  0
  150.3895  140.4889  154.8986 O   0  0  0  0  0  0  0  0  0  0  0  0
  149.1770  141.1086  155.3100 C   0  0  0  0  0  0  0  0  0  0  0  0
  148.5185  141.7371  154.1008 C   0  0  0  0  0  0  0  0  0  0  0  0
  147.1892  142.4467  154.2257 C   0  0  0  0  0  0  0  0  0  0  0  0
  147.2704  141.1240  153.5073 C   0  0  0  0  0  0  0  0  0  0  0  0
  150.9970  139.9006  157.1830 C   0  0  0  0  0  0  0  0  0  0  0  0
  150.2821  139.4181  158.0626 O   0  0  0  0  0  0  0  0  0  0  0  0
  151.9467  140.8312  157.3898 N   0  0  0  0  0  0  0  0  0  0  0  0
  152.3222  141.4683  158.6046 C   0  0  0  0  0  0  0  0  0  0  0  0
  151.7350  142.6070  159.0519 N   0  0  0  0  0  0  0  0  0  0  0  0
  152.1498  143.1523  160.2136 C   0  0  0  0  0  0  0  0  0  0  0  0
  153.1741  142.6000  161.0024 C   0  0  0  0  0  0  0  0  0  0  0  0
  153.7913  141.4201  160.5531 C   0  0  0  0  0  0  0  0  0  0  0  0
  153.3634  140.8430  159.3406 C   0  0  0  0  0  0  0  0  0  0  0  0
  153.9647  139.6934  158.9039 O   0  5  0  0  0  0  0  0  0  0  0  0
  152.5899  138.1152  155.7604 H   0  0  0  0  0  0  0  0  0  0  0  0
  152.9233  139.7285  155.1289 H   0  0  0  0  0  0  0  0  0  0  0  0
  152.0546  138.5577  154.1442 H   0  0  0  0  0  0  0  0  0  0  0  0
  150.1270  138.5999  155.6824 H   0  0  0  0  0  0  0  0  0  0  0  0
  148.4973  140.3680  155.7336 H   0  0  0  0  0  0  0  0  0  0  0  0
  149.3539  141.8730  156.0677 H   0  0  0  0  0  0  0  0  0  0  0  0
  149.2233  142.1566  153.3852 H   0  0  0  0  0  0  0  0  0  0  0  0
  146.7111  142.4596  155.2033 H   0  0  0  0  0  0  0  0  0  0  0  0
  147.0393  143.3395  153.6219 H   0  0  0  0  0  0  0  0  0  0  0  0
  147.1744  141.1327  152.4235 H   0  0  0  0  0  0  0  0  0  0  0  0
  146.8446  140.2556  154.0062 H   0  0  0  0  0  0  0  0  0  0  0  0
  152.4665  141.1334  156.5782 H   0  0  0  0  0  0  0  0  0  0  0  0
  151.6489  144.0576  160.5237 H   0  0  0  0  0  0  0  0  0  0  0  0
  153.4778  143.0680  161.9267 H   0  0  0  0  0  0  0  0  0  0  0  0
  154.5823  140.9658  161.1320 H   0  0  0  0  0  0  0  0  0  0  0  0
  1  2  1  0  0  0  0
  1 18  1  0  0  0  0
  1 19  1  0  0  0  0
  1 20  1  0  0  0  0
  2  3  1  0  0  0  0
  2  8  1  0  0  0  0
  2 21  1  0  0  0  0
  3  4  1  0  0  0  0
  4  5  1  0  0  0  0
  4 22  1  0  0  0  0
  4 23  1  0  0  0  0
  5  7  1  0  0  0  0
  5  6  1  0  0  0  0
  5 24  1  0  0  0  0
  6  7  1  0  0  0  0
  6 25  1  0  0  0  0
  6 26  1  0  0  0  0
  7 27  1  0  0  0  0
  7 28  1  0  0  0  0
  8  9  2  0  0  0  0
  8 10  1  0  0  0  0
 10 29  1  0  0  0  0
 10 11  1  0  0  0  0
 11 16  2  0  0  0  0
 11 12  1  0  0  0  0
 12 13  2  0  0  0  0
 13 30  1  0  0  0  0
 13 14  1  0  0  0  0
 14 31  1  0  0  0  0
 14 15  2  0  0  0  0
 15 16  1  0  0  0  0
 15 32  1  0  0  0  0
 16 17  1  0  0  0  0
M  CHG  1  17  -1
M  END
> <s_m_source_file>
AV-unprocessed.smi

> <i_m_source_file_index>
3150

> <i_lp_mmshare_version>
43012

> <i_f3d_flags>
0

> <s_epik_input>
W0NIMl0xW0NIMl1bQ0hdMVtDSDJdT1tDQEBIXShbQ0gzXSlDKD1PKVtOSF1jMm5bY0hdW2NIXVtjSF1jMltPSF0=

> <s_epik_cmdline>
J2VwaWtfcHl0aG9uJywgJy1waCcsICc3LjAnLCAnLXRuJywgJzgnLCAnLW1hJywgJzIwMCcsICctbWV0YWxfYmluZGluZycsICctaW1hZScsICc8aW5maWxlLm1hZT4nLCAnLW9tYWUnLCAnPG91dGZpbGUubWFlPic=

> <r_epik_Ionization_Penalty>
4.12024

> <r_epik_Ionization_Penalty_Charging>
2.08551

> <r_epik_Ionization_Penalty_Neutral>
2.03473

> <r_epik_State_Penalty>
2.65726

> <r_epik_Charging_Adjusted_Penalty>
4.74277

> <i_epik_Tot_Q>
-1

> <i_epik_Tot_abs_Q>
1

> <r_epik_Metal_State_Penalty>
0.600747

> <b_epik_Metal_Only>
0

> <s_lp_Force_Field>
OPLS_2005

> <r_lp_Energy>
13.9624

> <b_lp_Chiralities_Consistent>
1

> <s_lp_Variant>
AV-unprocessed.smi:3150-7

> <Gold.Version>
5.8.1

> <Gold.Id.Protein>
6NUR|6NUR_protein|mol2

> <Gold.PLP.Fitness>
43.8093

> <Gold.PLP.PLP>
-36.8128

> <Gold.PLP.part.hbond>
-2.0000

> <Gold.PLP.part.metal>
0.0000

> <Gold.PLP.part.buried>
-3.2409

> <Gold.PLP.part.nonpolar>
-31.1320

> <Gold.PLP.part.repulsive>
0.1909

> <Gold.PLP.ligand.clash>
0.0000

> <Gold.PLP.ligand.torsion>
1.2839

> <Gold.PLP.Chemscore.Hbond>
2.9920

> <Gold.PLP.Chemscore.CHOScore>
0.0000

> <Gold.PLP.Chemscore.Metal>
0.0000

> <Gold.Chemscore.Hbonds>
donor molecule, donor type, donor heavy atom, donor atom, acceptor molecule, acceptor atom, score
      P1  H  7989  7998       L1     3  1.00
      P1  H  7997  8008       L1    17  2.00

> <Gold.PLP.Chemscore.Internal.Correction>
0.5883

> <Gold.Rescore>
     Score         DG    S(hbond)    S(metal)    S(lipo)     H(rot)  DE(clash)    DE(int)     intcor
     16.03     -17.52       1.82        0.00      86.72       1.64       0.14       1.35       ----

> <Gold.Chemscore.Fitness>
16.0310

> <Gold.Chemscore.DG>
-17.5196

> <Gold.Chemscore.ZeroCoef>
-5.4800

> <Gold.Chemscore.Hbond>
1.8229

> <Gold.Chemscore.Metal>
0.0000

> <Gold.Chemscore.Lipo>
86.7183

> <Gold.Chemscore.Internal_Hbond>
0.0000

> <Gold.Chemscore.DEClash>
0.1430

> <Gold.Chemscore.DEInternal>
1.3456

> <Gold.Chemscore.Rot>
1.6387

> <Gold.Chemscore.Internal.Correction>
   9.000000E+99

> <Gold.Chemscore.Hbonds>
donor molecule, donor type, donor heavy atom, donor atom, acceptor molecule, acceptor atom, score
      P1  H  7989  7998       L1     3  0.77
      P1  H  7997  8008       L1    17  0.78

> <Gold.Chemscore.Hbond.Weighted>
-6.0886

> <Gold.Chemscore.Metal.Weighted>
-0.0000

> <Gold.Chemscore.Lipo.Weighted>
-10.1460

> <Gold.Chemscore.Internal_Hbond.Weighted>
0.0000

> <Gold.Chemscore.DEClash.Weighted>
0.1430

> <Gold.Chemscore.DEInternal.Weighted>
1.3456

> <Gold.Chemscore.Rot.Weighted>
4.1950

> <Gold.Chemscore.Internal.Correction.Weighted>
   9.000000E+99

> <Gold.Protein.RotatedTorsions>
[ 6907 6896 6895 6894 ] final   85.30 input  -60.11 | X-H torsion
[ 7974 7965 7964 7962 ] final  118.42 input  175.53 | X-H torsion
[ 8008 7997 7996 7995 ] final -112.72 input   59.86 | X-H torsion
[ 10167 10162 10161 10158 ] final   43.47 input  -65.29 | X-H torsion
[ 10718 10713 10712 10709 ] final  -25.56 input   66.30 | X-H torsion
[ 10763 10752 10751 10750 ] final   72.40 input  -60.55 | X-H torsion
[ 11005 11000 10999 10996 ] final  -66.24 input  -57.11 | X-H torsion

> <Gold.Protein.ActiveResidues>
 VAL166  LYS551  ARG553  GLY616  TRP617  ASP618  TYR619  PRO620  LYS621  CYS622 
 ASP623  PHE694  ASN695  SER759  ASP760  ASP761  ALA762  ILE779  LEU786  VAL792 
 PHE793  MET794  SER795  GLU796  ALA797  LYS798  CYS799  TRP800  GLU811  SER814 

> <Gold.Protein.RotatedAtoms>
  152.5372  134.2607  159.8933 H   0  0  0  0  0  0  0  0  0  0  0  0  # atno 6907 bound_to 6896
  151.2567  133.4316  159.2621 H   0  0  0  0  0  0  0  0  0  0  0  0  # atno 6908 bound_to 6896
  151.0490  134.9674  159.8258 H   0  0  0  0  0  0  0  0  0  0  0  0  # atno 6909 bound_to 6896
  145.1555  139.3185  143.4544 H   0  0  0  0  0  0  0  0  0  0  0  0  # atno 7974 bound_to 7965
  155.0096  140.0393  157.2394 H   0  0  0  0  0  0  0  0  0  0  0  0  # atno 8008 bound_to 7997
  154.7471  140.2760  155.6300 H   0  0  0  0  0  0  0  0  0  0  0  0  # atno 8009 bound_to 7997
  156.2877  140.2654  156.2215 H   0  0  0  0  0  0  0  0  0  0  0  0  # atno 8010 bound_to 7997
  140.3440  144.2434  150.6152 H   0  0  0  0  0  0  0  0  0  0  0  0  # atno 10167 bound_to 10162
  156.4627  130.4507  149.6918 H   0  0  0  0  0  0  0  0  0  0  0  0  # atno 10718 bound_to 10713
  153.0456  135.5101  154.7738 H   0  0  0  0  0  0  0  0  0  0  0  0  # atno 10763 bound_to 10752
  154.6640  135.2943  154.9832 H   0  0  0  0  0  0  0  0  0  0  0  0  # atno 10764 bound_to 10752
  154.0673  135.6682  153.4872 H   0  0  0  0  0  0  0  0  0  0  0  0  # atno 10765 bound_to 10752
  141.1477  133.6696  156.6109 H   0  0  0  0  0  0  0  0  0  0  0  0  # atno 11005 bound_to 11000
  146.3489  140.1645  142.8590 LP  0  0  0  0  0  0  0  0  0  0  0  0  # atno 17320 bound_to 7965
  145.0386  140.8928  143.5066 LP  0  0  0  0  0  0  0  0  0  0  0  0  # atno 17321 bound_to 7965
  140.5282  143.2249  151.8281 LP  0  0  0  0  0  0  0  0  0  0  0  0  # atno 17342 bound_to 10162
  139.4836  144.4754  151.9374 LP  0  0  0  0  0  0  0  0  0  0  0  0  # atno 17343 bound_to 10162
  156.3699  130.7525  151.2507 LP  0  0  0  0  0  0  0  0  0  0  0  0  # atno 17370 bound_to 10713
  157.7497  131.0326  150.4233 LP  0  0  0  0  0  0  0  0  0  0  0  0  # atno 17371 bound_to 10713
  140.3615  134.7683  157.4537 LP  0  0  0  0  0  0  0  0  0  0  0  0  # atno 17394 bound_to 11000
  140.0781  134.5769  155.8569 LP  0  0  0  0  0  0  0  0  0  0  0  0  # atno 17395 bound_to 11000

$$$$
