AV-unprocessed.smi:215|AV-procd|sdf|1653|dock2
  -GOLD-   2262020 43D 1   1.00000     0.00000
 Structure written by MMmdl.
 59 62  0  0  0  0  0  0  0  0  2 V2000
  149.8718  142.0174  157.7665 C   0  0  0  0  0  0  0  0  0  0  0  0
  151.3606  141.7661  157.4283 C   0  0  1  0  0  0  0  0  0  0  0  0
  152.3406  142.2646  158.5120 C   0  0  1  0  0  0  0  0  0  0  0  0
  152.0500  143.6324  159.0374 N   0  3  2  0  0  0  0  0  0  0  0  0
  152.2213  144.6746  157.9921 C   0  0  0  0  0  0  0  0  0  0  0  0
  152.7972  143.9772  160.2800 C   0  0  0  0  0  0  0  0  0  0  0  0
  152.1592  143.3638  161.5388 C   0  0  0  0  0  0  0  0  0  0  0  0
  150.9932  144.0794  161.8894 O   0  0  0  0  0  0  0  0  0  0  0  0
  152.2854  141.1218  159.5417 C   0  0  0  0  0  0  0  0  0  0  0  0
  152.0627  139.8632  158.6928 C   0  0  0  0  0  0  0  0  0  0  0  0
  151.6493  140.3396  157.3771 N   0  0  0  0  0  0  0  0  0  0  0  0
  151.1711  139.4943  156.4234 C   0  0  0  0  0  0  0  0  0  0  0  0
  150.7576  140.0298  155.2442 N   0  0  0  0  0  0  0  0  0  0  0  0
  150.2803  139.2506  154.2705 C   0  0  0  0  0  0  0  0  0  0  0  0
  150.1260  137.9267  154.2643 N   0  0  0  0  0  0  0  0  0  0  0  0
  150.5265  137.3762  155.4457 C   0  0  0  0  0  0  0  0  0  0  0  0
  151.0525  138.0787  156.5699 C   0  0  0  0  0  0  0  0  0  0  0  0
  151.3300  137.1746  157.5900 N   0  0  0  0  0  0  0  0  0  0  0  0
  150.9957  136.0139  157.0986 C   0  0  0  0  0  0  0  0  0  0  0  0
  150.5112  136.0405  155.8114 N   0  0  0  0  0  0  0  0  0  0  0  0
  150.0641  134.9155  155.0395 C   0  0  0  0  0  0  0  0  0  0  0  0
  148.5870  134.7496  154.6819 C   0  0  0  0  0  0  0  0  0  0  0  0
  148.7509  133.2144  154.7524 C   0  0  0  0  0  0  0  0  0  0  0  0
  147.5944  132.4647  155.4344 C   0  0  0  0  0  0  0  0  0  0  0  0
  147.1963  133.1130  156.6254 O   0  0  0  0  0  0  0  0  0  0  0  0
  149.0772  132.5280  153.4106 C   0  0  0  0  0  0  0  0  0  0  0  0
  147.9471  132.4863  152.5625 O   0  0  0  0  0  0  0  0  0  0  0  0
  149.9721  133.5162  155.6517 C   0  0  0  0  0  0  0  0  0  0  0  0
  151.6152  142.2379  156.4805 H   0  0  0  0  0  0  0  0  0  0  0  0
  153.3462  142.2764  158.0857 H   0  0  0  0  0  0  0  0  0  0  0  0
  149.6432  143.0809  157.8249 H   0  0  0  0  0  0  0  0  0  0  0  0
  149.5874  141.5673  158.7176 H   0  0  0  0  0  0  0  0  0  0  0  0
  149.2167  141.5972  157.0032 H   0  0  0  0  0  0  0  0  0  0  0  0
  153.2584  144.7212  157.6575 H   0  0  0  0  0  0  0  0  0  0  0  0
  151.9416  145.6617  158.3567 H   0  0  0  0  0  0  0  0  0  0  0  0
  151.5990  144.4809  157.1194 H   0  0  0  0  0  0  0  0  0  0  0  0
  153.8281  143.6303  160.2426 H   0  0  0  0  0  0  0  0  0  0  0  0
  152.8550  145.0625  160.3765 H   0  0  0  0  0  0  0  0  0  0  0  0
  151.8766  142.3289  161.3438 H   0  0  0  0  0  0  0  0  0  0  0  0
  152.8449  143.3444  162.3847 H   0  0  0  0  0  0  0  0  0  0  0  0
  150.8668  144.0159  162.8242 H   0  0  0  0  0  0  0  0  0  0  0  0
  153.1931  141.0408  160.1401 H   0  0  0  0  0  0  0  0  0  0  0  0
  151.4449  141.2602  160.2233 H   0  0  0  0  0  0  0  0  0  0  0  0
  152.9892  139.2966  158.5927 H   0  0  0  0  0  0  0  0  0  0  0  0
  151.3104  139.2144  159.1434 H   0  0  0  0  0  0  0  0  0  0  0  0
  149.9799  139.7609  153.3670 H   0  0  0  0  0  0  0  0  0  0  0  0
  151.0922  135.1010  157.6683 H   0  0  0  0  0  0  0  0  0  0  0  0
  150.6766  134.8854  154.1370 H   0  0  0  0  0  0  0  0  0  0  0  0
  147.9212  135.1420  155.4529 H   0  0  0  0  0  0  0  0  0  0  0  0
  148.3149  135.1370  153.6996 H   0  0  0  0  0  0  0  0  0  0  0  0
  146.7311  132.3703  154.7752 H   0  0  0  0  0  0  0  0  0  0  0  0
  147.8920  131.4483  155.6939 H   0  0  0  0  0  0  0  0  0  0  0  0
  146.8020  133.9414  156.3988 H   0  0  0  0  0  0  0  0  0  0  0  0
  149.8884  133.0362  152.8888 H   0  0  0  0  0  0  0  0  0  0  0  0
  149.4144  131.5027  153.5643 H   0  0  0  0  0  0  0  0  0  0  0  0
  148.2145  132.1432  151.7235 H   0  0  0  0  0  0  0  0  0  0  0  0
  150.8463  132.8904  155.4697 H   0  0  0  0  0  0  0  0  0  0  0  0
  149.7231  133.5311  156.7140 H   0  0  0  0  0  0  0  0  0  0  0  0
  151.0727  143.6268  159.2942 H   0  0  0  0  0  0  0  0  0  0  0  0
  1  2  1  0  0  0  0
  1 31  1  0  0  0  0
  1 32  1  0  0  0  0
  1 33  1  0  0  0  0
  2 29  1  0  0  0  0
  2 11  1  0  0  0  0
  2  3  1  0  0  0  0
  3 30  1  0  0  0  0
  3  4  1  0  0  0  0
  3  9  1  0  0  0  0
  4  5  1  0  0  0  0
  4  6  1  0  0  0  0
  4 59  1  0  0  0  0
  5 34  1  0  0  0  0
  5 35  1  0  0  0  0
  5 36  1  0  0  0  0
  6  7  1  0  0  0  0
  6 37  1  0  0  0  0
  6 38  1  0  0  0  0
  7  8  1  0  0  0  0
  7 39  1  0  0  0  0
  7 40  1  0  0  0  0
  8 41  1  0  0  0  0
  9 10  1  0  0  0  0
  9 42  1  0  0  0  0
  9 43  1  0  0  0  0
 10 11  1  0  0  0  0
 10 44  1  0  0  0  0
 10 45  1  0  0  0  0
 11 12  1  0  0  0  0
 12 17  1  0  0  0  0
 12 13  2  0  0  0  0
 13 14  1  0  0  0  0
 14 15  2  0  0  0  0
 14 46  1  0  0  0  0
 15 16  1  0  0  0  0
 16 20  1  0  0  0  0
 16 17  2  0  0  0  0
 17 18  1  0  0  0  0
 18 19  2  0  0  0  0
 19 20  1  0  0  0  0
 19 47  1  0  0  0  0
 20 21  1  0  0  0  0
 21 28  1  0  0  0  0
 21 22  1  0  0  0  0
 21 48  1  0  0  0  0
 22 23  1  0  0  0  0
 22 49  1  0  0  0  0
 22 50  1  0  0  0  0
 23 24  1  0  0  0  0
 23 26  1  0  0  0  0
 23 28  1  0  0  0  0
 24 25  1  0  0  0  0
 24 51  1  0  0  0  0
 24 52  1  0  0  0  0
 25 53  1  0  0  0  0
 26 27  1  0  0  0  0
 26 54  1  0  0  0  0
 26 55  1  0  0  0  0
 27 56  1  0  0  0  0
 28 57  1  0  0  0  0
 28 58  1  0  0  0  0
M  CHG  1   4   1
M  END
> <s_m_source_file>
AV-unprocessed.smi

> <i_m_source_file_index>
215

> <i_lp_mmshare_version>
43012

> <i_f3d_flags>
0

> <s_epik_input>
W09IXVtDSDJdW0NIMl1OKFtDSDNdKVtDQEBIXShbQ0BIXTFbQ0gzXSlbQ0gyXVtDSDJdTjFjKG5bY0hdbjIpYyhjMjMpbltjSF1uM1tDSF0oW0NIMl00KVtDSDJdQzQoW0NIMl1bT0hdKVtDSDJdW09IXQ==

> <s_epik_cmdline>
J2VwaWtfcHl0aG9uJywgJy1waCcsICc3LjAnLCAnLXRuJywgJzgnLCAnLW1hJywgJzIwMCcsICctbWV0YWxfYmluZGluZycsICctaW1hZScsICc8aW5maWxlLm1hZT4nLCAnLW9tYWUnLCAnPG91dGZpbGUubWFlPic=

> <r_lp_tautomer_probability>
1

> <r_epik_Ionization_Penalty>
0.0036237

> <r_epik_Ionization_Penalty_Charging>
0.0032725

> <r_epik_Ionization_Penalty_Neutral>
0.000351196

> <r_epik_State_Penalty>
-0

> <r_epik_Charging_Adjusted_Penalty>
0.0032725

> <i_epik_Tot_Q>
1

> <i_epik_Tot_abs_Q>
1

> <r_epik_Metal_State_Penalty>
-0

> <b_epik_Metal_Only>
0

> <s_lp_Force_Field>
OPLS_2005

> <r_lp_Energy>
66.6502

> <b_lp_Chiralities_Consistent>
1

> <s_lp_Variant>
AV-unprocessed.smi:215-4

> <Gold.Version>
5.8.1

> <Gold.Id.Protein>
6NUR|6NUR_protein|mol2

> <Gold.PLP.Fitness>
52.0307

> <Gold.PLP.PLP>
-46.7323

> <Gold.PLP.part.hbond>
-4.5248

> <Gold.PLP.part.metal>
0.0000

> <Gold.PLP.part.buried>
-8.4405

> <Gold.PLP.part.nonpolar>
-32.8801

> <Gold.PLP.part.repulsive>
0.3045

> <Gold.PLP.ligand.clash>
0.0000

> <Gold.PLP.ligand.torsion>
0.7479

> <Gold.PLP.Chemscore.Hbond>
1.0000

> <Gold.PLP.Chemscore.CHOScore>
1.0000

> <Gold.PLP.Chemscore.Metal>
0.0000

> <Gold.Chemscore.Hbonds>
donor molecule, donor type, donor heavy atom, donor atom, acceptor molecule, acceptor atom, score
      L1  H    27    56       P1 10747  0.89
      L1  C    14    46       P1  7957  1.00

> <Gold.PLP.Chemscore.Internal.Correction>
0.7943

> <Gold.Rescore>
     Score         DG    S(hbond)    S(metal)    S(lipo)     H(rot)  DE(clash)    DE(int)     intcor
      6.82      -9.96       0.99        0.00     107.99       4.48       0.17       2.97       ----

> <Gold.Chemscore.Fitness>
6.8177

> <Gold.Chemscore.DG>
-9.9580

> <Gold.Chemscore.ZeroCoef>
-5.4800

> <Gold.Chemscore.Hbond>
0.9908

> <Gold.Chemscore.Metal>
0.0000

> <Gold.Chemscore.Lipo>
107.9857

> <Gold.Chemscore.Internal_Hbond>
0.0000

> <Gold.Chemscore.DEClash>
0.1704

> <Gold.Chemscore.DEInternal>
2.9700

> <Gold.Chemscore.Rot>
4.4787

> <Gold.Chemscore.Internal.Correction>
   9.000000E+99

> <Gold.Chemscore.Hbonds>
donor molecule, donor type, donor heavy atom, donor atom, acceptor molecule, acceptor atom, score
      L1  H    27    56       P1 10747  0.87

> <Gold.Chemscore.Hbond.Weighted>
-3.3092

> <Gold.Chemscore.Metal.Weighted>
-0.0000

> <Gold.Chemscore.Lipo.Weighted>
-12.6343

> <Gold.Chemscore.Internal_Hbond.Weighted>
0.0000

> <Gold.Chemscore.DEClash.Weighted>
0.1704

> <Gold.Chemscore.DEInternal.Weighted>
2.9700

> <Gold.Chemscore.Rot.Weighted>
11.4655

> <Gold.Chemscore.Internal.Correction.Weighted>
   9.000000E+99

> <Gold.Protein.RotatedTorsions>
[ 6907 6896 6895 6894 ] final   31.32 input  -60.11 | X-H torsion
[ 7974 7965 7964 7962 ] final  161.69 input  175.53 | X-H torsion
[ 8008 7997 7996 7995 ] final  116.29 input   59.86 | X-H torsion
[ 10167 10162 10161 10158 ] final -143.93 input  -65.29 | X-H torsion
[ 10718 10713 10712 10709 ] final   35.36 input   66.30 | X-H torsion
[ 10763 10752 10751 10750 ] final -160.42 input  -60.55 | X-H torsion
[ 11005 11000 10999 10996 ] final  141.00 input  -57.11 | X-H torsion

> <Gold.Protein.ActiveResidues>
 VAL166  LYS551  ARG553  GLY616  TRP617  ASP618  TYR619  PRO620  LYS621  CYS622 
 ASP623  PHE694  ASN695  SER759  ASP760  ASP761  ALA762  ILE779  LEU786  VAL792 
 PHE793  MET794  SER795  GLU796  ALA797  LYS798  CYS799  TRP800  GLU811  SER814 

> <Gold.Protein.RotatedAtoms>
  152.0586  134.9608  160.0574 H   0  0  0  0  0  0  0  0  0  0  0  0  # atno 6907 bound_to 6896
  152.0981  133.4230  159.4582 H   0  0  0  0  0  0  0  0  0  0  0  0  # atno 6908 bound_to 6896
  150.6838  134.2712  159.4632 H   0  0  0  0  0  0  0  0  0  0  0  0  # atno 6909 bound_to 6896
  144.7673  139.7934  143.6310 H   0  0  0  0  0  0  0  0  0  0  0  0  # atno 7974 bound_to 7965
  156.2431  140.2920  156.0501 H   0  0  0  0  0  0  0  0  0  0  0  0  # atno 8008 bound_to 7997
  155.1891  140.0406  157.2914 H   0  0  0  0  0  0  0  0  0  0  0  0  # atno 8009 bound_to 7997
  154.6207  140.2475  155.7560 H   0  0  0  0  0  0  0  0  0  0  0  0  # atno 8010 bound_to 7997
  139.7947  143.7917  152.2653 H   0  0  0  0  0  0  0  0  0  0  0  0  # atno 10167 bound_to 10162
  157.3218  130.7452  149.6790 H   0  0  0  0  0  0  0  0  0  0  0  0  # atno 10718 bound_to 10713
  154.7392  135.3064  154.8758 H   0  0  0  0  0  0  0  0  0  0  0  0  # atno 10763 bound_to 10752
  153.9578  135.6756  153.4749 H   0  0  0  0  0  0  0  0  0  0  0  0  # atno 10764 bound_to 10752
  153.0992  135.4920  154.8759 H   0  0  0  0  0  0  0  0  0  0  0  0  # atno 10765 bound_to 10752
  140.0369  134.9324  157.0769 H   0  0  0  0  0  0  0  0  0  0  0  0  # atno 11005 bound_to 11000
  146.1791  139.4976  142.9878 LP  0  0  0  0  0  0  0  0  0  0  0  0  # atno 17320 bound_to 7965
  145.6430  141.0280  143.1801 LP  0  0  0  0  0  0  0  0  0  0  0  0  # atno 17321 bound_to 7965
  139.8019  144.7371  150.9813 LP  0  0  0  0  0  0  0  0  0  0  0  0  # atno 17342 bound_to 10162
  140.7820  143.4337  151.0656 LP  0  0  0  0  0  0  0  0  0  0  0  0  # atno 17343 bound_to 10162
  155.9686  130.4221  150.4500 LP  0  0  0  0  0  0  0  0  0  0  0  0  # atno 17370 bound_to 10713
  157.2517  131.0548  151.2375 LP  0  0  0  0  0  0  0  0  0  0  0  0  # atno 17371 bound_to 10713
  140.4133  134.1958  155.7163 LP  0  0  0  0  0  0  0  0  0  0  0  0  # atno 17394 bound_to 11000
  141.1862  133.8307  157.1077 LP  0  0  0  0  0  0  0  0  0  0  0  0  # atno 17395 bound_to 11000

$$$$
