AV-unprocessed.smi:2623|AV-procd|sdf|10230|dock1
  -GOLD-   2272014233D 1   1.00000     0.00000
 Structure written by MMmdl.
 40 42  0  0  0  0  0  0  0  0  1 V2000
  149.4658  138.5808  153.5079 O   0  0  0  0  0  0  0  0  0  0  0  0
  150.4868  138.3421  154.4559 C   0  0  0  0  0  0  0  0  0  0  0  0
  150.7073  139.4764  155.4169 C   0  0  0  0  0  0  0  0  0  0  0  0
  150.8689  140.7430  155.0258 N   0  0  0  0  0  0  0  0  0  0  0  0
  151.0229  141.4164  156.2212 C   0  0  0  0  0  0  0  0  0  0  0  0
  151.2299  142.7902  156.4815 C   0  0  0  0  0  0  0  0  0  0  0  0
  151.3583  143.2543  157.8070 C   0  0  0  0  0  0  0  0  0  0  0  0
  151.2819  142.3534  158.8887 C   0  0  0  0  0  0  0  0  0  0  0  0
  151.0758  140.9806  158.6515 C   0  0  0  0  0  0  0  0  0  0  0  0
  150.9481  140.5224  157.3263 C   0  0  0  0  0  0  0  0  0  0  0  0
  150.7437  139.2684  156.7574 N   0  0  0  0  0  0  0  0  0  0  0  0
  150.5960  138.0080  157.4739 C   0  0  0  0  0  0  0  0  0  0  0  0
  149.4774  138.0486  158.5357 C   0  0  1  0  0  0  0  0  0  0  0  0
  148.2603  138.4587  157.9442 O   0  0  0  0  0  0  0  0  0  0  0  0
  149.2539  136.6853  159.2060 C   0  0  0  0  0  0  0  0  0  0  0  0
  148.7292  136.8916  160.5109 O   0  0  0  0  0  0  0  0  0  0  0  0
  148.0750  135.8446  161.1238 C   0  0  0  0  0  0  0  0  0  0  0  0
  147.6521  136.0458  162.4542 C   0  0  0  0  0  0  0  0  0  0  0  0
  146.9730  135.0315  163.1564 C   0  0  0  0  0  0  0  0  0  0  0  0
  146.7086  133.7992  162.5311 C   0  0  0  0  0  0  0  0  0  0  0  0
  147.1258  133.5837  161.2047 C   0  0  0  0  0  0  0  0  0  0  0  0
  147.8056  134.5983  160.5027 C   0  0  0  0  0  0  0  0  0  0  0  0
  149.4019  137.8295  152.9387 H   0  0  0  0  0  0  0  0  0  0  0  0
  150.2322  137.4435  155.0183 H   0  0  0  0  0  0  0  0  0  0  0  0
  151.4115  138.1396  153.9166 H   0  0  0  0  0  0  0  0  0  0  0  0
  151.2902  143.4878  155.6594 H   0  0  0  0  0  0  0  0  0  0  0  0
  151.5168  144.3064  157.9943 H   0  0  0  0  0  0  0  0  0  0  0  0
  151.3823  142.7168  159.9009 H   0  0  0  0  0  0  0  0  0  0  0  0
  151.0180  140.2888  159.4782 H   0  0  0  0  0  0  0  0  0  0  0  0
  150.3985  137.2186  156.7478 H   0  0  0  0  0  0  0  0  0  0  0  0
  151.5502  137.7538  157.9357 H   0  0  0  0  0  0  0  0  0  0  0  0
  149.7247  138.7806  159.3046 H   0  0  0  0  0  0  0  0  0  0  0  0
  147.6755  137.7172  157.9139 H   0  0  0  0  0  0  0  0  0  0  0  0
  148.5426  136.1025  158.6177 H   0  0  0  0  0  0  0  0  0  0  0  0
  150.1925  136.1299  159.2506 H   0  0  0  0  0  0  0  0  0  0  0  0
  147.8504  136.9888  162.9421 H   0  0  0  0  0  0  0  0  0  0  0  0
  146.6544  135.1997  164.1746 H   0  0  0  0  0  0  0  0  0  0  0  0
  146.1865  133.0207  163.0677 H   0  0  0  0  0  0  0  0  0  0  0  0
  146.9232  132.6382  160.7233 H   0  0  0  0  0  0  0  0  0  0  0  0
  148.1081  134.3950  159.4869 H   0  0  0  0  0  0  0  0  0  0  0  0
  1  2  1  0  0  0  0
  1 23  1  0  0  0  0
  2  3  1  0  0  0  0
  2 24  1  0  0  0  0
  2 25  1  0  0  0  0
  3 11  1  0  0  0  0
  3  4  2  0  0  0  0
  4  5  1  0  0  0  0
  5 10  2  0  0  0  0
  5  6  1  0  0  0  0
  6  7  2  0  0  0  0
  6 26  1  0  0  0  0
  7  8  1  0  0  0  0
  7 27  1  0  0  0  0
  8  9  2  0  0  0  0
  8 28  1  0  0  0  0
  9 10  1  0  0  0  0
  9 29  1  0  0  0  0
 10 11  1  0  0  0  0
 11 12  1  0  0  0  0
 12 13  1  0  0  0  0
 12 30  1  0  0  0  0
 12 31  1  0  0  0  0
 13 14  1  0  0  0  0
 13 15  1  0  0  0  0
 13 32  1  0  0  0  0
 14 33  1  0  0  0  0
 15 16  1  0  0  0  0
 15 34  1  0  0  0  0
 15 35  1  0  0  0  0
 16 17  1  0  0  0  0
 17 22  1  0  0  0  0
 17 18  2  0  0  0  0
 18 19  1  0  0  0  0
 18 36  1  0  0  0  0
 19 20  2  0  0  0  0
 19 37  1  0  0  0  0
 20 21  1  0  0  0  0
 20 38  1  0  0  0  0
 21 22  2  0  0  0  0
 21 39  1  0  0  0  0
 22 40  1  0  0  0  0
M  END
> <s_m_source_file>
AV-unprocessed.smi

> <i_m_source_file_index>
2623

> <i_lp_mmshare_version>
43012

> <i_f3d_flags>
0

> <s_epik_input>
W2NIXTFbY0hdW2NIXVtjSF1jKGMxMiluKGMobjIpW0NIMl1bT0hdKVtDSDJdW0NASF0oW09IXSlbQ0gyXU9jM1tjSF1bY0hdW2NIXVtjSF1bY0hdMw==

> <s_epik_cmdline>
J2VwaWtfcHl0aG9uJywgJy1waCcsICc3LjAnLCAnLXRuJywgJzgnLCAnLW1hJywgJzIwMCcsICctbWV0YWxfYmluZGluZycsICctaW1hZScsICc8aW5maWxlLm1hZT4nLCAnLW9tYWUnLCAnPG91dGZpbGUubWFlPic=

> <r_lp_tautomer_probability>
1

> <r_epik_Ionization_Penalty>
0.0583159

> <r_epik_Ionization_Penalty_Charging>
0

> <r_epik_Ionization_Penalty_Neutral>
0.0583159

> <r_epik_State_Penalty>
0.0503525

> <r_epik_Charging_Adjusted_Penalty>
0.0503525

> <i_epik_Tot_Q>
0

> <i_epik_Tot_abs_Q>
0

> <r_epik_Metal_State_Penalty>
5.25517e-05

> <b_epik_Metal_Only>
0

> <s_lp_Force_Field>
OPLS_2005

> <r_lp_Energy>
15.201

> <b_lp_Chiralities_Consistent>
1

> <s_lp_Variant>
AV-unprocessed.smi:2623-2

> <Gold.Version>
5.8.1

> <Gold.Id.Protein>
6NUR|6NUR_protein|mol2

> <Gold.PLP.Fitness>
49.0234

> <Gold.PLP.PLP>
-41.9007

> <Gold.PLP.part.hbond>
-4.0000

> <Gold.PLP.part.metal>
0.0000

> <Gold.PLP.part.buried>
-4.7078

> <Gold.PLP.part.nonpolar>
-34.1693

> <Gold.PLP.part.repulsive>
0.0758

> <Gold.PLP.ligand.clash>
0.0000

> <Gold.PLP.ligand.torsion>
0.5433

> <Gold.PLP.Chemscore.Hbond>
2.6960

> <Gold.PLP.Chemscore.CHOScore>
0.0000

> <Gold.PLP.Chemscore.Metal>
0.0000

> <Gold.Chemscore.Hbonds>
donor molecule, donor type, donor heavy atom, donor atom, acceptor molecule, acceptor atom, score
      L1  H     1    23       P1  7948  1.00
      P1  H  6931  6943       L1    16  0.82
      P1  H  7989  7998       L1     4  0.88

> <Gold.PLP.Chemscore.Internal.Correction>
0.1212

> <Gold.Rescore>
     Score         DG    S(hbond)    S(metal)    S(lipo)     H(rot)  DE(clash)    DE(int)     intcor
     19.13     -19.57       2.70        0.00     109.64       3.04       0.10       0.34       ----

> <Gold.Chemscore.Fitness>
19.1319

> <Gold.Chemscore.DG>
-19.5679

> <Gold.Chemscore.ZeroCoef>
-5.4800

> <Gold.Chemscore.Hbond>
2.7041

> <Gold.Chemscore.Metal>
0.0000

> <Gold.Chemscore.Lipo>
109.6409

> <Gold.Chemscore.Internal_Hbond>
0.0000

> <Gold.Chemscore.DEClash>
0.0962

> <Gold.Chemscore.DEInternal>
0.3399

> <Gold.Chemscore.Rot>
3.0358

> <Gold.Chemscore.Internal.Correction>
   9.000000E+99

> <Gold.Chemscore.Hbonds>
donor molecule, donor type, donor heavy atom, donor atom, acceptor molecule, acceptor atom, score
      L1  H     1    23       P1  7948  0.90
      P1  H  6931  6943       L1    16  0.47
      P1  H  7989  7998       L1     4  0.76

> <Gold.Chemscore.Hbond.Weighted>
-9.0315

> <Gold.Chemscore.Metal.Weighted>
-0.0000

> <Gold.Chemscore.Lipo.Weighted>
-12.8280

> <Gold.Chemscore.Internal_Hbond.Weighted>
0.0000

> <Gold.Chemscore.DEClash.Weighted>
0.0962

> <Gold.Chemscore.DEInternal.Weighted>
0.3399

> <Gold.Chemscore.Rot.Weighted>
7.7716

> <Gold.Chemscore.Internal.Correction.Weighted>
   9.000000E+99

> <Gold.Protein.RotatedTorsions>
[ 6907 6896 6895 6894 ] final   16.53 input  -60.11 | X-H torsion
[ 7974 7965 7964 7962 ] final  176.24 input  175.53 | X-H torsion
[ 8008 7997 7996 7995 ] final -170.38 input   59.86 | X-H torsion
[ 10167 10162 10161 10158 ] final   87.97 input  -65.29 | X-H torsion
[ 10718 10713 10712 10709 ] final -139.64 input   66.30 | X-H torsion
[ 10763 10752 10751 10750 ] final  152.29 input  -60.55 | X-H torsion
[ 11005 11000 10999 10996 ] final   27.18 input  -57.11 | X-H torsion

> <Gold.Protein.ActiveResidues>
 VAL166  LYS551  ARG553  GLY616  TRP617  ASP618  TYR619  PRO620  LYS621  CYS622 
 ASP623  PHE694  ASN695  SER759  ASP760  ASP761  ALA762  ILE779  LEU786  VAL792 
 PHE793  MET794  SER795  GLU796  ALA797  LYS798  CYS799  TRP800  GLU811  SER814 

> <Gold.Protein.RotatedAtoms>
  151.8353  135.0608  160.0441 H   0  0  0  0  0  0  0  0  0  0  0  0  # atno 6907 bound_to 6896
  152.2849  133.5501  159.5529 H   0  0  0  0  0  0  0  0  0  0  0  0  # atno 6908 bound_to 6896
  150.7205  134.0427  159.3813 H   0  0  0  0  0  0  0  0  0  0  0  0  # atno 6909 bound_to 6896
  144.7187  140.0067  143.6440 H   0  0  0  0  0  0  0  0  0  0  0  0  # atno 7974 bound_to 7965
  155.9176  140.1068  157.1232 H   0  0  0  0  0  0  0  0  0  0  0  0  # atno 8008 bound_to 7997
  154.4049  140.1262  156.4702 H   0  0  0  0  0  0  0  0  0  0  0  0  # atno 8009 bound_to 7997
  155.7235  140.3469  155.5029 H   0  0  0  0  0  0  0  0  0  0  0  0  # atno 8010 bound_to 7997
  139.8720  144.6487  150.8939 H   0  0  0  0  0  0  0  0  0  0  0  0  # atno 10167 bound_to 10162
  156.3131  130.7493  151.1573 H   0  0  0  0  0  0  0  0  0  0  0  0  # atno 10718 bound_to 10713
  154.1177  135.2835  155.3216 H   0  0  0  0  0  0  0  0  0  0  0  0  # atno 10763 bound_to 10752
  154.6445  135.5390  153.7832 H   0  0  0  0  0  0  0  0  0  0  0  0  # atno 10764 bound_to 10752
  153.0323  135.6494  154.1332 H   0  0  0  0  0  0  0  0  0  0  0  0  # atno 10765 bound_to 10752
  140.3291  134.2458  155.7705 H   0  0  0  0  0  0  0  0  0  0  0  0  # atno 11005 bound_to 11000
  146.0291  139.3319  143.0766 LP  0  0  0  0  0  0  0  0  0  0  0  0  # atno 17320 bound_to 7965
  145.8474  140.9547  143.0767 LP  0  0  0  0  0  0  0  0  0  0  0  0  # atno 17321 bound_to 7965
  140.7759  143.3656  151.1745 LP  0  0  0  0  0  0  0  0  0  0  0  0  # atno 17342 bound_to 10162
  139.7275  143.9125  152.3008 LP  0  0  0  0  0  0  0  0  0  0  0  0  # atno 17343 bound_to 10162
  157.7395  131.0528  150.5225 LP  0  0  0  0  0  0  0  0  0  0  0  0  # atno 17370 bound_to 10713
  156.5367  130.4198  149.6174 LP  0  0  0  0  0  0  0  0  0  0  0  0  # atno 17371 bound_to 10713
  141.2068  133.7824  157.0157 LP  0  0  0  0  0  0  0  0  0  0  0  0  # atno 17394 bound_to 11000
  140.0876  134.9611  157.1725 LP  0  0  0  0  0  0  0  0  0  0  0  0  # atno 17395 bound_to 11000

$$$$
