AV-unprocessed.smi:26|AV-procd|sdf|184|dock4
  -GOLD-   2262015443D 1   1.00000     0.00000
 Structure written by MMmdl.
 58 61  0  0  0  0  0  0  0  0  1 V2000
  146.2991  138.4186  150.8825 C   0  0  0  0  0  0  0  0  0  0  0  0
  146.3257  138.5985  152.3672 C   0  0  0  0  0  0  0  0  0  0  0  0
  146.9159  139.5870  153.0961 C   0  0  0  0  0  0  0  0  0  0  0  0
  146.6521  139.3518  154.4712 C   0  0  0  0  0  0  0  0  0  0  0  0
  147.0960  140.1355  155.6490 C   0  0  0  0  0  0  0  0  0  0  0  0
  146.6444  139.9533  156.7792 O   0  0  0  0  0  0  0  0  0  0  0  0
  148.1438  141.2354  155.4120 C   0  0  0  0  0  0  0  0  0  0  0  0
  149.4033  140.9168  156.0752 N   0  0  0  0  0  0  0  0  0  0  0  0
  150.3223  140.0700  155.4034 C   0  0  0  0  0  0  0  0  0  0  0  0
  150.0775  139.5724  154.3037 O   0  0  0  0  0  0  0  0  0  0  0  0
  151.5724  139.8400  156.1190 C   0  0  0  0  0  0  0  0  0  0  0  0
  152.5110  139.0452  155.5780 F   0  0  0  0  0  0  0  0  0  0  0  0
  151.8053  140.4120  157.3193 C   0  0  0  0  0  0  0  0  0  0  0  0
  150.8955  141.2439  157.9484 N   0  0  0  0  0  0  0  0  0  0  0  0
  151.2007  141.8599  159.2952 C   0  0  1  0  0  0  0  0  0  0  0  0
  152.5022  141.2806  159.8605 C   0  0  0  0  0  0  0  0  0  0  0  0
  153.5176  142.3205  159.4384 C   0  0  0  0  0  0  0  0  0  0  0  0
  152.7005  143.6032  159.5349 C   0  0  0  0  0  0  0  0  0  0  0  0
  151.3831  143.2374  159.1349 O   0  0  0  0  0  0  0  0  0  0  0  0
  149.6497  141.5087  157.3391 C   0  0  0  0  0  0  0  0  0  0  0  0
  148.8162  142.2286  157.8939 O   0  0  0  0  0  0  0  0  0  0  0  0
  145.9065  138.1997  154.5585 C   0  0  0  0  0  0  0  0  0  0  0  0
  145.3417  137.5110  155.7698 C   0  0  0  0  0  0  0  0  0  0  0  0
  145.7119  137.7186  153.2564 N   0  0  0  0  0  0  0  0  0  0  0  0
  144.9584  136.5228  152.8487 C   0  0  2  0  0  0  0  0  0  0  0  0
  143.5642  136.4985  153.5057 C   0  0  0  0  0  0  0  0  0  0  0  0
  145.7810  135.2371  152.9690 C   0  0  0  0  0  0  0  0  0  0  0  0
  146.4150  134.9457  154.1976 C   0  0  0  0  0  0  0  0  0  0  0  0
  147.1832  133.7754  154.3490 C   0  0  0  0  0  0  0  0  0  0  0  0
  147.3294  132.8849  153.2693 C   0  0  0  0  0  0  0  0  0  0  0  0
  146.7079  133.1678  152.0390 C   0  0  0  0  0  0  0  0  0  0  0  0
  145.9397  134.3385  151.8870 C   0  0  0  0  0  0  0  0  0  0  0  0
  146.7620  139.2687  150.3806 H   0  0  0  0  0  0  0  0  0  0  0  0
  145.2759  138.3362  150.5154 H   0  0  0  0  0  0  0  0  0  0  0  0
  146.8453  137.5225  150.5879 H   0  0  0  0  0  0  0  0  0  0  0  0
  147.4804  140.4064  152.6760 H   0  0  0  0  0  0  0  0  0  0  0  0
  148.3526  141.3587  154.3480 H   0  0  0  0  0  0  0  0  0  0  0  0
  147.8017  142.2131  155.7515 H   0  0  0  0  0  0  0  0  0  0  0  0
  152.7481  140.1998  157.8011 H   0  0  0  0  0  0  0  0  0  0  0  0
  150.3273  141.6810  159.9237 H   0  0  0  0  0  0  0  0  0  0  0  0
  152.4225  141.2437  160.9475 H   0  0  0  0  0  0  0  0  0  0  0  0
  152.7093  140.2770  159.4863 H   0  0  0  0  0  0  0  0  0  0  0  0
  154.4066  142.3333  160.0693 H   0  0  0  0  0  0  0  0  0  0  0  0
  153.8313  142.1472  158.4084 H   0  0  0  0  0  0  0  0  0  0  0  0
  152.6686  143.9555  160.5667 H   0  0  0  0  0  0  0  0  0  0  0  0
  153.0996  144.4051  158.9136 H   0  0  0  0  0  0  0  0  0  0  0  0
  146.0194  136.7340  156.1235 H   0  0  0  0  0  0  0  0  0  0  0  0
  144.3752  137.0551  155.5705 H   0  0  0  0  0  0  0  0  0  0  0  0
  145.1798  138.2106  156.5888 H   0  0  0  0  0  0  0  0  0  0  0  0
  144.7739  136.5943  151.7779 H   0  0  0  0  0  0  0  0  0  0  0  0
  142.9559  135.6859  153.1077 H   0  0  0  0  0  0  0  0  0  0  0  0
  143.0290  137.4274  153.3065 H   0  0  0  0  0  0  0  0  0  0  0  0
  143.6128  136.3817  154.5874 H   0  0  0  0  0  0  0  0  0  0  0  0
  146.3089  135.6227  155.0328 H   0  0  0  0  0  0  0  0  0  0  0  0
  147.6601  133.5611  155.2938 H   0  0  0  0  0  0  0  0  0  0  0  0
  147.9179  131.9867  153.3846 H   0  0  0  0  0  0  0  0  0  0  0  0
  146.8197  132.4853  151.2094 H   0  0  0  0  0  0  0  0  0  0  0  0
  145.4732  134.5262  150.9323 H   0  0  0  0  0  0  0  0  0  0  0  0
  1  2  1  0  0  0  0
  1 33  1  0  0  0  0
  1 34  1  0  0  0  0
  1 35  1  0  0  0  0
  2 24  1  0  0  0  0
  2  3  2  0  0  0  0
  3  4  1  0  0  0  0
  3 36  1  0  0  0  0
  4  5  1  0  0  0  0
  4 22  2  0  0  0  0
  5  6  2  0  0  0  0
  5  7  1  0  0  0  0
  7  8  1  0  0  0  0
  7 37  1  0  0  0  0
  7 38  1  0  0  0  0
  8 20  1  0  0  0  0
  8  9  1  0  0  0  0
  9 10  2  0  0  0  0
  9 11  1  0  0  0  0
 11 12  1  0  0  0  0
 11 13  2  0  0  0  0
 13 14  1  0  0  0  0
 13 39  1  0  0  0  0
 14 15  1  0  0  0  0
 14 20  1  0  0  0  0
 15 19  1  0  0  0  0
 15 16  1  0  0  0  0
 15 40  1  0  0  0  0
 16 17  1  0  0  0  0
 16 41  1  0  0  0  0
 16 42  1  0  0  0  0
 17 18  1  0  0  0  0
 17 43  1  0  0  0  0
 17 44  1  0  0  0  0
 18 19  1  0  0  0  0
 18 45  1  0  0  0  0
 18 46  1  0  0  0  0
 20 21  2  0  0  0  0
 22 23  1  0  0  0  0
 22 24  1  0  0  0  0
 23 47  1  0  0  0  0
 23 48  1  0  0  0  0
 23 49  1  0  0  0  0
 24 25  1  0  0  0  0
 25 26  1  0  0  0  0
 25 27  1  0  0  0  0
 25 50  1  0  0  0  0
 26 51  1  0  0  0  0
 26 52  1  0  0  0  0
 26 53  1  0  0  0  0
 27 32  1  0  0  0  0
 27 28  2  0  0  0  0
 28 29  1  0  0  0  0
 28 54  1  0  0  0  0
 29 30  2  0  0  0  0
 29 55  1  0  0  0  0
 30 31  1  0  0  0  0
 30 56  1  0  0  0  0
 31 32  2  0  0  0  0
 31 57  1  0  0  0  0
 32 58  1  0  0  0  0
M  END
> <s_m_source_file>
AV-unprocessed.smi

> <i_m_source_file_index>
26

> <i_lp_mmshare_version>
43012

> <i_f3d_flags>
0

> <s_epik_input>
W2NIXTFbY0hdW2NIXVtjSF1bY0hdYzFbQ0BASF0oW0NIM10pbjJjKFtDSDNdKWMoW2NIXWMyW0NIM10pQyg9TylbQ0gyXW4zYyg9TyljKEYpW2NIXW4oYzM9TylbQ0BASF00W0NIMl1bQ0gyXVtDSDJdTzQ=

> <s_epik_cmdline>
J2VwaWtfcHl0aG9uJywgJy1waCcsICc3LjAnLCAnLXRuJywgJzgnLCAnLW1hJywgJzIwMCcsICctbWV0YWxfYmluZGluZycsICctaW1hZScsICc8aW5maWxlLm1hZT4nLCAnLW9tYWUnLCAnPG91dGZpbGUubWFlPic=

> <r_lp_tautomer_probability>
1

> <r_epik_Ionization_Penalty>
5.02402e-09

> <r_epik_Ionization_Penalty_Charging>
5.01743e-09

> <r_epik_Ionization_Penalty_Neutral>
6.58831e-12

> <r_epik_State_Penalty>
-0

> <r_epik_Charging_Adjusted_Penalty>
5.01743e-09

> <i_epik_Tot_Q>
0

> <i_epik_Tot_abs_Q>
0

> <r_epik_Metal_State_Penalty>
-0

> <b_epik_Metal_Only>
0

> <s_epik_Chemistry_Notes>
This compound contains an acetal/aminal-like group ( X-CH(R)-Y where X, Y are N, S, or O) that may be acid/base labile, releasing an aldehyde.

> <s_lp_Force_Field>
OPLS_2005

> <r_lp_Energy>
51.2992

> <b_lp_Chiralities_Consistent>
1

> <s_lp_Variant>
AV-unprocessed.smi:26-2

> <Gold.Version>
5.8.1

> <Gold.Id.Protein>
6NUR|6NUR_protein|mol2

> <Gold.PLP.Fitness>
46.7693

> <Gold.PLP.PLP>
-47.7366

> <Gold.PLP.part.hbond>
-1.0000

> <Gold.PLP.part.metal>
0.0000

> <Gold.PLP.part.buried>
2.8829

> <Gold.PLP.part.nonpolar>
-50.1669

> <Gold.PLP.part.repulsive>
0.8171

> <Gold.PLP.ligand.clash>
0.0000

> <Gold.PLP.ligand.torsion>
1.2398

> <Gold.PLP.Chemscore.Hbond>
0.4000

> <Gold.PLP.Chemscore.CHOScore>
0.0000

> <Gold.PLP.Chemscore.Metal>
0.0000

> <Gold.Chemscore.Hbonds>
donor molecule, donor type, donor heavy atom, donor atom, acceptor molecule, acceptor atom, score
      P1  H  7989  7998       L1    10  0.26

> <Gold.PLP.Chemscore.Internal.Correction>
0.3124

> <Gold.Rescore>
     Score         DG    S(hbond)    S(metal)    S(lipo)     H(rot)  DE(clash)    DE(int)     intcor
     10.13     -15.46       0.60        0.00     108.35       1.84       1.27       4.06       ----

> <Gold.Chemscore.Fitness>
10.1271

> <Gold.Chemscore.DG>
-15.4630

> <Gold.Chemscore.ZeroCoef>
-5.4800

> <Gold.Chemscore.Hbond>
0.6006

> <Gold.Chemscore.Metal>
0.0000

> <Gold.Chemscore.Lipo>
108.3489

> <Gold.Chemscore.Internal_Hbond>
0.0000

> <Gold.Chemscore.DEClash>
1.2709

> <Gold.Chemscore.DEInternal>
4.0649

> <Gold.Chemscore.Rot>
1.8359

> <Gold.Chemscore.Internal.Correction>
   9.000000E+99

> <Gold.Chemscore.Hbonds>
donor molecule, donor type, donor heavy atom, donor atom, acceptor molecule, acceptor atom, score
      P1  H  7989  7998       L1    10  0.01

> <Gold.Chemscore.Hbond.Weighted>
-2.0062

> <Gold.Chemscore.Metal.Weighted>
-0.0000

> <Gold.Chemscore.Lipo.Weighted>
-12.6768

> <Gold.Chemscore.Internal_Hbond.Weighted>
0.0000

> <Gold.Chemscore.DEClash.Weighted>
1.2709

> <Gold.Chemscore.DEInternal.Weighted>
4.0649

> <Gold.Chemscore.Rot.Weighted>
4.7000

> <Gold.Chemscore.Internal.Correction.Weighted>
   9.000000E+99

> <Gold.Protein.RotatedTorsions>
[ 6907 6896 6895 6894 ] final   29.06 input  -60.11 | X-H torsion
[ 7974 7965 7964 7962 ] final -174.52 input  175.53 | X-H torsion
[ 8008 7997 7996 7995 ] final    7.74 input   59.86 | X-H torsion
[ 10167 10162 10161 10158 ] final -123.95 input  -65.29 | X-H torsion
[ 10718 10713 10712 10709 ] final  -36.60 input   66.30 | X-H torsion
[ 10763 10752 10751 10750 ] final  137.13 input  -60.55 | X-H torsion
[ 11005 11000 10999 10996 ] final  -16.41 input  -57.11 | X-H torsion

> <Gold.Protein.ActiveResidues>
 VAL166  LYS551  ARG553  GLY616  TRP617  ASP618  TYR619  PRO620  LYS621  CYS622 
 ASP623  PHE694  ASN695  SER759  ASP760  ASP761  ALA762  ILE779  LEU786  VAL792 
 PHE793  MET794  SER795  GLU796  ALA797  LYS798  CYS799  TRP800  GLU811  SER814 

> <Gold.Protein.RotatedAtoms>
  152.0260  134.9795  160.0571 H   0  0  0  0  0  0  0  0  0  0  0  0  # atno 6907 bound_to 6896
  152.1291  133.4392  159.4720 H   0  0  0  0  0  0  0  0  0  0  0  0  # atno 6908 bound_to 6896
  150.6855  134.2361  159.4497 H   0  0  0  0  0  0  0  0  0  0  0  0  # atno 6909 bound_to 6896
  144.7131  140.1459  143.6388 H   0  0  0  0  0  0  0  0  0  0  0  0  # atno 7974 bound_to 7965
  154.7578  140.2779  155.6239 H   0  0  0  0  0  0  0  0  0  0  0  0  # atno 8008 bound_to 7997
  156.2909  140.2666  156.2275 H   0  0  0  0  0  0  0  0  0  0  0  0  # atno 8009 bound_to 7997
  155.0056  140.0372  157.2368 H   0  0  0  0  0  0  0  0  0  0  0  0  # atno 8010 bound_to 7997
  139.9980  143.5571  152.2315 H   0  0  0  0  0  0  0  0  0  0  0  0  # atno 10167 bound_to 10162
  156.3249  130.4271  149.7925 H   0  0  0  0  0  0  0  0  0  0  0  0  # atno 10718 bound_to 10713
  153.8679  135.3059  155.3441 H   0  0  0  0  0  0  0  0  0  0  0  0  # atno 10763 bound_to 10752
  154.7819  135.4831  153.9866 H   0  0  0  0  0  0  0  0  0  0  0  0  # atno 10764 bound_to 10752
  153.1423  135.6826  153.9103 H   0  0  0  0  0  0  0  0  0  0  0  0  # atno 10765 bound_to 10752
  140.8065  133.8174  155.9521 H   0  0  0  0  0  0  0  0  0  0  0  0  # atno 11005 bound_to 11000
  145.9160  139.2516  143.1409 LP  0  0  0  0  0  0  0  0  0  0  0  0  # atno 17320 bound_to 7965
  145.9668  140.8792  143.0183 LP  0  0  0  0  0  0  0  0  0  0  0  0  # atno 17321 bound_to 7965
  139.6292  144.7642  151.2572 LP  0  0  0  0  0  0  0  0  0  0  0  0  # atno 17342 bound_to 10162
  140.7430  143.6509  150.8249 LP  0  0  0  0  0  0  0  0  0  0  0  0  # atno 17343 bound_to 10162
  156.5219  130.8219  151.3207 LP  0  0  0  0  0  0  0  0  0  0  0  0  # atno 17370 bound_to 10713
  157.7419  130.9880  150.2480 LP  0  0  0  0  0  0  0  0  0  0  0  0  # atno 17371 bound_to 10713
  140.9242  134.2104  157.4907 LP  0  0  0  0  0  0  0  0  0  0  0  0  # atno 17394 bound_to 11000
  139.8717  134.9805  156.5079 LP  0  0  0  0  0  0  0  0  0  0  0  0  # atno 17395 bound_to 11000

$$$$
