AV-unprocessed.smi:2049|AV-procd|sdf|8322|dock6
  -GOLD-   2272010583D 1   1.00000     0.00000
 Structure written by MMmdl.
 51 53  0  0  0  0  0  0  0  0  2 V2000
  147.6534  132.2713  155.6270 O   0  0  0  0  0  0  0  0  0  0  0  0
  148.2438  132.5611  154.5870 C   0  0  0  0  0  0  0  0  0  0  0  0
  149.7729  132.6522  154.5675 C   0  0  0  0  0  0  0  0  0  0  0  0
  150.2536  133.7395  155.4338 N   0  0  0  0  0  0  0  0  0  0  0  0
  149.8929  135.0541  155.0936 C   0  0  0  0  0  0  0  0  0  0  0  0
  150.3121  136.0943  155.8284 C   0  0  0  0  0  0  0  0  0  0  0  0
  151.1558  135.7772  156.9883 C   0  0  0  0  0  0  0  0  0  0  0  0
  151.4873  134.5799  157.3006 N   0  0  0  0  0  0  0  0  0  0  0  0
  151.0467  133.4898  156.5275 C   0  0  0  0  0  0  0  0  0  0  0  0
  151.3668  132.3366  156.8190 O   0  0  0  0  0  0  0  0  0  0  0  0
  147.6223  132.8317  153.4305 N   0  0  0  0  0  0  0  0  0  0  0  0
  146.1776  132.9504  153.2447 C   0  0  0  0  0  0  0  0  0  0  0  0
  145.7794  133.9664  152.1195 C   0  0  0  0  0  0  0  0  0  0  0  0
  146.1563  135.3606  152.5773 N   0  3  0  0  0  0  0  0  0  0  0  0
  145.5962  136.4684  151.7503 C   0  0  0  0  0  0  0  0  0  0  0  0
  146.2063  137.8167  152.1584 C   0  0  0  0  0  0  0  0  0  0  0  0
  145.9211  138.0571  153.5275 O   0  0  0  0  0  0  0  0  0  0  0  0
  146.5214  137.0774  154.3608 C   0  0  0  0  0  0  0  0  0  0  0  0
  145.9762  135.6771  154.0242 C   0  0  0  0  0  0  0  0  0  0  0  0
  146.5114  133.5864  150.7977 C   0  0  0  0  0  0  0  0  0  0  0  0
  146.0697  132.2292  150.2146 C   0  0  0  0  0  0  0  0  0  0  0  0
  144.5528  132.1687  149.9906 C   0  0  0  0  0  0  0  0  0  0  0  0
  143.7846  132.5107  151.2740 C   0  0  0  0  0  0  0  0  0  0  0  0
  144.2433  133.8690  151.8357 C   0  0  0  0  0  0  0  0  0  0  0  0
  150.1785  131.6900  154.8838 H   0  0  0  0  0  0  0  0  0  0  0  0
  150.1354  132.7987  153.5479 H   0  0  0  0  0  0  0  0  0  0  0  0
  149.2743  135.1573  154.2139 H   0  0  0  0  0  0  0  0  0  0  0  0
  150.0755  137.1276  155.6215 H   0  0  0  0  0  0  0  0  0  0  0  0
  151.4871  136.6383  157.5745 H   0  0  0  0  0  0  0  0  0  0  0  0
  148.1997  133.0257  152.6253 H   0  0  0  0  0  0  0  0  0  0  0  0
  145.8120  131.9545  152.9978 H   0  0  0  0  0  0  0  0  0  0  0  0
  145.6987  133.1715  154.1970 H   0  0  0  0  0  0  0  0  0  0  0  0
  145.7906  136.3138  150.6908 H   0  0  0  0  0  0  0  0  0  0  0  0
  144.5141  136.5219  151.8741 H   0  0  0  0  0  0  0  0  0  0  0  0
  147.2832  137.8315  151.9811 H   0  0  0  0  0  0  0  0  0  0  0  0
  145.7730  138.6204  151.5627 H   0  0  0  0  0  0  0  0  0  0  0  0
  147.6061  137.1092  154.2495 H   0  0  0  0  0  0  0  0  0  0  0  0
  146.3061  137.3219  155.4012 H   0  0  0  0  0  0  0  0  0  0  0  0
  144.9218  135.6113  154.2943 H   0  0  0  0  0  0  0  0  0  0  0  0
  146.5253  134.9838  154.6578 H   0  0  0  0  0  0  0  0  0  0  0  0
  146.3381  134.3554  150.0445 H   0  0  0  0  0  0  0  0  0  0  0  0
  147.5903  133.5494  150.9479 H   0  0  0  0  0  0  0  0  0  0  0  0
  146.5835  132.0540  149.2688 H   0  0  0  0  0  0  0  0  0  0  0  0
  146.3764  131.4184  150.8753 H   0  0  0  0  0  0  0  0  0  0  0  0
  144.2751  132.8714  149.2038 H   0  0  0  0  0  0  0  0  0  0  0  0
  144.2659  131.1786  149.6352 H   0  0  0  0  0  0  0  0  0  0  0  0
  142.7171  132.5509  151.0553 H   0  0  0  0  0  0  0  0  0  0  0  0
  143.9017  131.7164  152.0097 H   0  0  0  0  0  0  0  0  0  0  0  0
  143.6634  134.1248  152.7222 H   0  0  0  0  0  0  0  0  0  0  0  0
  143.9530  134.5872  151.0707 H   0  0  0  0  0  0  0  0  0  0  0  0
  147.1559  135.4031  152.4367 H   0  0  0  0  0  0  0  0  0  0  0  0
  1  2  2  0  0  0  0
  2  3  1  0  0  0  0
  2 11  1  0  0  0  0
  3  4  1  0  0  0  0
  3 25  1  0  0  0  0
  3 26  1  0  0  0  0
  4  9  1  0  0  0  0
  4  5  1  0  0  0  0
  5  6  2  0  0  0  0
  5 27  1  0  0  0  0
  6  7  1  0  0  0  0
  6 28  1  0  0  0  0
  7  8  2  0  0  0  0
  7 29  1  0  0  0  0
  8  9  1  0  0  0  0
  9 10  2  0  0  0  0
 11 12  1  0  0  0  0
 11 30  1  0  0  0  0
 12 13  1  0  0  0  0
 12 31  1  0  0  0  0
 12 32  1  0  0  0  0
 13 24  1  0  0  0  0
 13 14  1  0  0  0  0
 13 20  1  0  0  0  0
 14 19  1  0  0  0  0
 14 15  1  0  0  0  0
 14 51  1  0  0  0  0
 15 16  1  0  0  0  0
 15 33  1  0  0  0  0
 15 34  1  0  0  0  0
 16 17  1  0  0  0  0
 16 35  1  0  0  0  0
 16 36  1  0  0  0  0
 17 18  1  0  0  0  0
 18 19  1  0  0  0  0
 18 37  1  0  0  0  0
 18 38  1  0  0  0  0
 19 39  1  0  0  0  0
 19 40  1  0  0  0  0
 20 21  1  0  0  0  0
 20 41  1  0  0  0  0
 20 42  1  0  0  0  0
 21 22  1  0  0  0  0
 21 43  1  0  0  0  0
 21 44  1  0  0  0  0
 22 23  1  0  0  0  0
 22 45  1  0  0  0  0
 22 46  1  0  0  0  0
 23 24  1  0  0  0  0
 23 47  1  0  0  0  0
 23 48  1  0  0  0  0
 24 49  1  0  0  0  0
 24 50  1  0  0  0  0
M  CHG  1  14   1
M  END
> <s_m_source_file>
AV-unprocessed.smi

> <i_m_source_file_index>
2049

> <i_lp_mmshare_version>
43012

> <i_f3d_flags>
0

> <s_epik_input>
Tz1jMW5bY0hdW2NIXVtjSF1uMVtDSDJdQyg9TylbTkhdW0NIMl1DMihbQ0gyXVtDSDJdW0NIMl1bQ0gyXVtDSDJdMilOM1tDSDJdW0NIMl1PW0NIMl1bQ0gyXTM=

> <s_epik_cmdline>
J2VwaWtfcHl0aG9uJywgJy1waCcsICc3LjAnLCAnLXRuJywgJzgnLCAnLW1hJywgJzIwMCcsICctbWV0YWxfYmluZGluZycsICctaW1hZScsICc8aW5maWxlLm1hZT4nLCAnLW9tYWUnLCAnPG91dGZpbGUubWFlPic=

> <r_lp_tautomer_probability>
1

> <r_epik_Ionization_Penalty>
0.40042

> <r_epik_Ionization_Penalty_Charging>
0.400415

> <r_epik_Ionization_Penalty_Neutral>
5.09538e-06

> <r_epik_State_Penalty>
0.399732

> <r_epik_Charging_Adjusted_Penalty>
0.800147

> <i_epik_Tot_Q>
1

> <i_epik_Tot_abs_Q>
1

> <r_epik_Metal_State_Penalty>
0.399734

> <b_epik_Metal_Only>
0

> <s_lp_Force_Field>
OPLS_2005

> <r_lp_Energy>
43.1449

> <b_lp_Chiralities_Consistent>
1

> <s_lp_Variant>
AV-unprocessed.smi:2049-1

> <Gold.Version>
5.8.1

> <Gold.Id.Protein>
6NUR|6NUR_protein|mol2

> <Gold.PLP.Fitness>
45.7278

> <Gold.PLP.PLP>
-38.0587

> <Gold.PLP.part.hbond>
-2.0000

> <Gold.PLP.part.metal>
0.0000

> <Gold.PLP.part.buried>
-4.2051

> <Gold.PLP.part.nonpolar>
-32.3152

> <Gold.PLP.part.repulsive>
0.2212

> <Gold.PLP.ligand.clash>
0.0000

> <Gold.PLP.ligand.torsion>
0.7322

> <Gold.PLP.Chemscore.Hbond>
2.0000

> <Gold.PLP.Chemscore.CHOScore>
1.0000

> <Gold.PLP.Chemscore.Metal>
0.0000

> <Gold.Chemscore.Hbonds>
donor molecule, donor type, donor heavy atom, donor atom, acceptor molecule, acceptor atom, score
      L1  H    14    51       P1  7948  1.95
      L1  C     5    27       P1  7948  0.89

> <Gold.PLP.Chemscore.Internal.Correction>
0.1335

> <Gold.Rescore>
     Score         DG    S(hbond)    S(metal)    S(lipo)     H(rot)  DE(clash)    DE(int)     intcor
     13.42     -14.05       0.94        0.00      90.53       2.02       0.09       0.54       ----

> <Gold.Chemscore.Fitness>
13.4154

> <Gold.Chemscore.DG>
-14.0466

> <Gold.Chemscore.ZeroCoef>
-5.4800

> <Gold.Chemscore.Hbond>
0.9388

> <Gold.Chemscore.Metal>
0.0000

> <Gold.Chemscore.Lipo>
90.5341

> <Gold.Chemscore.Internal_Hbond>
0.0000

> <Gold.Chemscore.DEClash>
0.0949

> <Gold.Chemscore.DEInternal>
0.5364

> <Gold.Chemscore.Rot>
2.0162

> <Gold.Chemscore.Internal.Correction>
   9.000000E+99

> <Gold.Chemscore.Hbonds>
donor molecule, donor type, donor heavy atom, donor atom, acceptor molecule, acceptor atom, score
      L1  H    14    51       P1  7948  0.91

> <Gold.Chemscore.Hbond.Weighted>
-3.1356

> <Gold.Chemscore.Metal.Weighted>
-0.0000

> <Gold.Chemscore.Lipo.Weighted>
-10.5925

> <Gold.Chemscore.Internal_Hbond.Weighted>
0.0000

> <Gold.Chemscore.DEClash.Weighted>
0.0949

> <Gold.Chemscore.DEInternal.Weighted>
0.5364

> <Gold.Chemscore.Rot.Weighted>
5.1614

> <Gold.Chemscore.Internal.Correction.Weighted>
   9.000000E+99

> <Gold.Protein.RotatedTorsions>
[ 6907 6896 6895 6894 ] final  -75.18 input  -60.11 | X-H torsion
[ 7974 7965 7964 7962 ] final  -19.17 input  175.53 | X-H torsion
[ 8008 7997 7996 7995 ] final  -97.21 input   59.86 | X-H torsion
[ 10167 10162 10161 10158 ] final  139.78 input  -65.29 | X-H torsion
[ 10718 10713 10712 10709 ] final -125.12 input   66.30 | X-H torsion
[ 10763 10752 10751 10750 ] final -101.49 input  -60.55 | X-H torsion
[ 11005 11000 10999 10996 ] final  135.20 input  -57.11 | X-H torsion

> <Gold.Protein.ActiveResidues>
 VAL166  LYS551  ARG553  GLY616  TRP617  ASP618  TYR619  PRO620  LYS621  CYS622 
 ASP623  PHE694  ASN695  SER759  ASP760  ASP761  ALA762  ILE779  LEU786  VAL792 
 PHE793  MET794  SER795  GLU796  ALA797  LYS798  CYS799  TRP800  GLU811  SER814 

> <Gold.Protein.RotatedAtoms>
  150.7067  134.4759  159.5447 H   0  0  0  0  0  0  0  0  0  0  0  0  # atno 6907 bound_to 6896
  152.2406  134.8229  160.0470 H   0  0  0  0  0  0  0  0  0  0  0  0  # atno 6908 bound_to 6896
  151.9012  133.3503  159.3868 H   0  0  0  0  0  0  0  0  0  0  0  0  # atno 6909 bound_to 6896
  146.1855  140.4024  142.8478 H   0  0  0  0  0  0  0  0  0  0  0  0  # atno 7974 bound_to 7965
  154.7847  140.0465  157.1155 H   0  0  0  0  0  0  0  0  0  0  0  0  # atno 8008 bound_to 7997
  154.9662  140.3084  155.4988 H   0  0  0  0  0  0  0  0  0  0  0  0  # atno 8009 bound_to 7997
  156.2941  140.2261  156.4751 H   0  0  0  0  0  0  0  0  0  0  0  0  # atno 8010 bound_to 7997
  139.5068  144.6274  151.5903 H   0  0  0  0  0  0  0  0  0  0  0  0  # atno 10167 bound_to 10162
  156.1647  130.6626  151.0099 H   0  0  0  0  0  0  0  0  0  0  0  0  # atno 10718 bound_to 10713
  154.7662  135.4896  153.9558 H   0  0  0  0  0  0  0  0  0  0  0  0  # atno 10763 bound_to 10752
  153.1310  135.6753  153.9186 H   0  0  0  0  0  0  0  0  0  0  0  0  # atno 10764 bound_to 10752
  153.8889  135.3123  155.3425 H   0  0  0  0  0  0  0  0  0  0  0  0  # atno 10765 bound_to 10752
  139.9964  134.9495  156.9974 H   0  0  0  0  0  0  0  0  0  0  0  0  # atno 11005 bound_to 11000
  144.8389  140.6826  143.6242 LP  0  0  0  0  0  0  0  0  0  0  0  0  # atno 17320 bound_to 7965
  145.3951  139.1608  143.4208 LP  0  0  0  0  0  0  0  0  0  0  0  0  # atno 17321 bound_to 7965
  140.5996  143.9634  150.6377 LP  0  0  0  0  0  0  0  0  0  0  0  0  # atno 17342 bound_to 10162
  140.2842  143.3369  152.1123 LP  0  0  0  0  0  0  0  0  0  0  0  0  # atno 17343 bound_to 10162
  157.6759  131.0850  150.7495 LP  0  0  0  0  0  0  0  0  0  0  0  0  # atno 17370 bound_to 10713
  156.7556  130.4782  149.5447 LP  0  0  0  0  0  0  0  0  0  0  0  0  # atno 17371 bound_to 10713
  140.4810  134.1289  155.7217 LP  0  0  0  0  0  0  0  0  0  0  0  0  # atno 17394 bound_to 11000
  141.1608  133.8797  157.1854 LP  0  0  0  0  0  0  0  0  0  0  0  0  # atno 17395 bound_to 11000

$$$$
