AV-unprocessed.smi:54|AV-procd|sdf|538|dock3
  -GOLD-   2262016423D 1   1.00000     0.00000
 Structure written by MMmdl.
 44 46  0  0  0  0  0  0  0  0  1 V2000
  149.7554  131.2736  154.2028 C   0  0  0  0  0  0  0  0  0  0  0  0
  148.8158  132.4900  154.2266 C   0  0  0  0  0  0  0  0  0  0  0  0
  148.4966  132.9751  152.8030 C   0  0  0  0  0  0  0  0  0  0  0  0
  149.4236  133.6232  155.0611 C   0  0  0  0  0  0  0  0  0  0  0  0
  150.5524  133.5428  155.5469 O   0  0  0  0  0  0  0  0  0  0  0  0
  148.5743  134.7878  155.2413 N   0  0  0  0  0  0  0  0  0  0  0  0
  148.8615  135.9150  155.9330 C   0  0  0  0  0  0  0  0  0  0  0  0
  148.9055  137.1164  155.3753 N   0  0  0  0  0  0  0  0  0  0  0  0
  149.2172  138.1332  156.2343 C   0  0  0  0  0  0  0  0  0  0  0  0
  149.4628  138.0194  157.5865 C   0  0  0  0  0  0  0  0  0  0  0  0
  149.7270  139.2706  158.1309 N   0  0  0  0  0  0  0  0  0  0  0  0
  149.6337  140.0841  157.1159 C   0  0  0  0  0  0  0  0  0  0  0  0
  149.3538  139.4684  155.9167 N   0  0  0  0  0  0  0  0  0  0  0  0
  149.1473  140.0673  154.5562 C   0  0  1  0  0  0  0  0  0  0  0  0
  148.6609  139.0818  153.7005 O   0  0  0  0  0  0  0  0  0  0  0  0
  147.2411  139.0629  153.7684 C   0  0  2  0  0  0  0  0  0  0  0  0
  146.6677  138.3654  152.5263 C   0  0  0  0  0  0  0  0  0  0  0  0
  147.3671  138.7811  151.3730 O   0  0  0  0  0  0  0  0  0  0  0  0
  146.8955  140.5543  153.8478 C   0  0  1  0  0  0  0  0  0  0  0  0
  145.6896  140.7335  154.5640 O   0  0  0  0  0  0  0  0  0  0  0  0
  148.0730  141.1709  154.6051 C   0  0  2  0  0  0  0  0  0  0  0  0
  148.5167  142.3490  153.9629 O   0  0  0  0  0  0  0  0  0  0  0  0
  149.4093  136.7274  158.2081 C   0  0  0  0  0  0  0  0  0  0  0  0
  149.5992  136.4408  159.3882 O   0  0  0  0  0  0  0  0  0  0  0  0
  149.0972  135.7133  157.2930 N   0  0  0  0  0  0  0  0  0  0  0  0
  150.1416  140.4066  154.2620 H   0  0  0  0  0  0  0  0  0  0  0  0
  146.9210  138.5581  154.6822 H   0  0  0  0  0  0  0  0  0  0  0  0
  146.8067  140.9786  152.8462 H   0  0  0  0  0  0  0  0  0  0  0  0
  147.8151  141.4047  155.6393 H   0  0  0  0  0  0  0  0  0  0  0  0
  149.9769  130.9235  155.2117 H   0  0  0  0  0  0  0  0  0  0  0  0
  150.7029  131.5078  153.7157 H   0  0  0  0  0  0  0  0  0  0  0  0
  149.3026  130.4428  153.6610 H   0  0  0  0  0  0  0  0  0  0  0  0
  147.8794  132.1849  154.6958 H   0  0  0  0  0  0  0  0  0  0  0  0
  147.8333  133.8408  152.8180 H   0  0  0  0  0  0  0  0  0  0  0  0
  148.0003  132.1934  152.2271 H   0  0  0  0  0  0  0  0  0  0  0  0
  149.4013  133.2577  152.2631 H   0  0  0  0  0  0  0  0  0  0  0  0
  147.6580  134.7348  154.8217 H   0  0  0  0  0  0  0  0  0  0  0  0
  149.7686  141.1508  157.2221 H   0  0  0  0  0  0  0  0  0  0  0  0
  146.7924  137.2858  152.6129 H   0  0  0  0  0  0  0  0  0  0  0  0
  145.6007  138.5612  152.4168 H   0  0  0  0  0  0  0  0  0  0  0  0
  148.0678  139.3572  151.6378 H   0  0  0  0  0  0  0  0  0  0  0  0
  144.9654  140.5667  153.9801 H   0  0  0  0  0  0  0  0  0  0  0  0
  148.6145  143.0273  154.6134 H   0  0  0  0  0  0  0  0  0  0  0  0
  149.0457  134.7750  157.6612 H   0  0  0  0  0  0  0  0  0  0  0  0
  1  2  1  0  0  0  0
  1 30  1  0  0  0  0
  1 31  1  0  0  0  0
  1 32  1  0  0  0  0
  2  3  1  0  0  0  0
  2  4  1  0  0  0  0
  2 33  1  0  0  0  0
  3 34  1  0  0  0  0
  3 35  1  0  0  0  0
  3 36  1  0  0  0  0
  4  5  2  0  0  0  0
  4  6  1  0  0  0  0
  6 37  1  0  0  0  0
  6  7  1  0  0  0  0
  7 25  1  0  0  0  0
  7  8  2  0  0  0  0
  8  9  1  0  0  0  0
  9 13  1  0  0  0  0
  9 10  2  0  0  0  0
 10 11  1  0  0  0  0
 10 23  1  0  0  0  0
 11 12  2  0  0  0  0
 12 13  1  0  0  0  0
 12 38  1  0  0  0  0
 13 14  1  0  0  0  0
 14 26  1  0  0  0  0
 14 21  1  0  0  0  0
 14 15  1  0  0  0  0
 15 16  1  0  0  0  0
 16 27  1  0  0  0  0
 16 17  1  0  0  0  0
 16 19  1  0  0  0  0
 17 18  1  0  0  0  0
 17 39  1  0  0  0  0
 17 40  1  0  0  0  0
 18 41  1  0  0  0  0
 19 28  1  0  0  0  0
 19 20  1  0  0  0  0
 19 21  1  0  0  0  0
 20 42  1  0  0  0  0
 21 29  1  0  0  0  0
 21 22  1  0  0  0  0
 22 43  1  0  0  0  0
 23 24  2  0  0  0  0
 23 25  1  0  0  0  0
 25 44  1  0  0  0  0
M  END
> <s_m_source_file>
AV-unprocessed.smi

> <i_m_source_file_index>
54

> <i_lp_mmshare_version>
43012

> <i_f3d_flags>
0

> <s_epik_input>
W0NIM11bQ0hdKFtDSDNdKUMoPU8pW05IXWMobjEpW25IXWMoPU8pYyhjMTIpbltjSF1uMltDQEBIXTNPW0NASF0oW0NIMl1bT0hdKVtDQEBIXShbT0hdKVtDQEhdM1tPSF0=

> <s_epik_cmdline>
J2VwaWtfcHl0aG9uJywgJy1waCcsICc3LjAnLCAnLXRuJywgJzgnLCAnLW1hJywgJzIwMCcsICctbWV0YWxfYmluZGluZycsICctaW1hZScsICc8aW5maWxlLm1hZT4nLCAnLW9tYWUnLCAnPG91dGZpbGUubWFlPic=

> <r_lp_tautomer_probability>
0.85571

> <r_epik_Ionization_Penalty>
0.0316551

> <r_epik_Ionization_Penalty_Charging>
0.0316043

> <r_epik_Ionization_Penalty_Neutral>
5.07097e-05

> <r_epik_State_Penalty>
3.15494e-07

> <r_epik_Charging_Adjusted_Penalty>
0.0316047

> <i_epik_Tot_Q>
0

> <i_epik_Tot_abs_Q>
0

> <r_epik_Metal_State_Penalty>
0.421206

> <b_epik_Metal_Only>
0

> <s_epik_Chemistry_Notes>
This compound contains an acetal/aminal-like group ( X-CH(R)-Y where X, Y are N, S, or O) that may be acid/base labile, releasing an aldehyde.

> <s_lp_Force_Field>
OPLS_2005

> <r_lp_Energy>
36.3126

> <b_lp_Chiralities_Consistent>
1

> <s_lp_Variant>
AV-unprocessed.smi:54-10

> <Gold.Version>
5.8.1

> <Gold.Id.Protein>
6NUR|6NUR_protein|mol2

> <Gold.PLP.Fitness>
45.0114

> <Gold.PLP.PLP>
-31.4173

> <Gold.PLP.part.hbond>
-7.0199

> <Gold.PLP.part.metal>
0.0000

> <Gold.PLP.part.buried>
-4.5779

> <Gold.PLP.part.nonpolar>
-21.0855

> <Gold.PLP.part.repulsive>
1.9234

> <Gold.PLP.ligand.clash>
0.0000

> <Gold.PLP.ligand.torsion>
0.7985

> <Gold.PLP.Chemscore.Hbond>
5.0320

> <Gold.PLP.Chemscore.CHOScore>
0.0000

> <Gold.PLP.Chemscore.Metal>
0.0000

> <Gold.Chemscore.Hbonds>
donor molecule, donor type, donor heavy atom, donor atom, acceptor molecule, acceptor atom, score
      L1  H    18    41       P1  7957  0.85
      L1  H    20    42       P1 10175  1.00
      L1  H    22    43       P1  8028  1.00
      P1  H  6896  6909       L1    24  1.00
      P1  H  7954  7966       L1    18  0.93
      P1  H  8011  8017       L1    22  0.21

> <Gold.PLP.Chemscore.Internal.Correction>
0.0951

> <Gold.Rescore>
     Score         DG    S(hbond)    S(metal)    S(lipo)     H(rot)  DE(clash)    DE(int)     intcor
     10.13     -14.40       4.22        0.00      44.36       4.05       0.83       3.44       ----

> <Gold.Chemscore.Fitness>
10.1334

> <Gold.Chemscore.DG>
-14.4011

> <Gold.Chemscore.ZeroCoef>
-5.4800

> <Gold.Chemscore.Hbond>
4.2209

> <Gold.Chemscore.Metal>
0.0000

> <Gold.Chemscore.Lipo>
44.3556

> <Gold.Chemscore.Internal_Hbond>
0.0000

> <Gold.Chemscore.DEClash>
0.8270

> <Gold.Chemscore.DEInternal>
3.4408

> <Gold.Chemscore.Rot>
4.0493

> <Gold.Chemscore.Internal.Correction>
   9.000000E+99

> <Gold.Chemscore.Hbonds>
donor molecule, donor type, donor heavy atom, donor atom, acceptor molecule, acceptor atom, score
      L1  H    18    41       P1  7957  0.84
      L1  H    20    42       P1 10175  0.98
      L1  H    22    43       P1  8028  0.97
      P1  H  6896  6909       L1    24  0.88
      P1  H  7954  7966       L1    18  0.23
      P1  H  8011  8017       L1    22  0.19

> <Gold.Chemscore.Hbond.Weighted>
-14.0978

> <Gold.Chemscore.Metal.Weighted>
-0.0000

> <Gold.Chemscore.Lipo.Weighted>
-5.1896

> <Gold.Chemscore.Internal_Hbond.Weighted>
0.0000

> <Gold.Chemscore.DEClash.Weighted>
0.8270

> <Gold.Chemscore.DEInternal.Weighted>
3.4408

> <Gold.Chemscore.Rot.Weighted>
10.3662

> <Gold.Chemscore.Internal.Correction.Weighted>
   9.000000E+99

> <Gold.Protein.RotatedTorsions>
[ 6907 6896 6895 6894 ] final   70.72 input  -60.11 | X-H torsion
[ 7974 7965 7964 7962 ] final -178.73 input  175.53 | X-H torsion
[ 8008 7997 7996 7995 ] final  -17.71 input   59.86 | X-H torsion
[ 10167 10162 10161 10158 ] final  152.73 input  -65.29 | X-H torsion
[ 10718 10713 10712 10709 ] final  117.13 input   66.30 | X-H torsion
[ 10763 10752 10751 10750 ] final   -0.01 input  -60.55 | X-H torsion
[ 11005 11000 10999 10996 ] final -108.02 input  -57.11 | X-H torsion

> <Gold.Protein.ActiveResidues>
 VAL166  LYS551  ARG553  GLY616  TRP617  ASP618  TYR619  PRO620  LYS621  CYS622 
 ASP623  PHE694  ASN695  SER759  ASP760  ASP761  ALA762  ILE779  LEU786  VAL792 
 PHE793  MET794  SER795  GLU796  ALA797  LYS798  CYS799  TRP800  GLU811  SER814 

> <Gold.Protein.RotatedAtoms>
  152.4766  134.4827  159.9670 H   0  0  0  0  0  0  0  0  0  0  0  0  # atno 6907 bound_to 6896
  151.4842  133.3533  159.2851 H   0  0  0  0  0  0  0  0  0  0  0  0  # atno 6908 bound_to 6896
  150.8809  134.8227  159.7286 H   0  0  0  0  0  0  0  0  0  0  0  0  # atno 6909 bound_to 6896
  144.7132  140.0825  143.6425 H   0  0  0  0  0  0  0  0  0  0  0  0  # atno 7974 bound_to 7965
  154.4958  140.2135  155.9449 H   0  0  0  0  0  0  0  0  0  0  0  0  # atno 8008 bound_to 7997
  156.1369  140.3187  155.8402 H   0  0  0  0  0  0  0  0  0  0  0  0  # atno 8009 bound_to 7997
  155.4194  140.0496  157.3017 H   0  0  0  0  0  0  0  0  0  0  0  0  # atno 8010 bound_to 7997
  139.4831  144.5333  151.7686 H   0  0  0  0  0  0  0  0  0  0  0  0  # atno 10167 bound_to 10162
  157.6116  131.1033  150.7572 H   0  0  0  0  0  0  0  0  0  0  0  0  # atno 10718 bound_to 10713
  153.3264  135.6972  153.6985 H   0  0  0  0  0  0  0  0  0  0  0  0  # atno 10763 bound_to 10752
  153.5805  135.3499  155.2873 H   0  0  0  0  0  0  0  0  0  0  0  0  # atno 10764 bound_to 10752
  154.8609  135.4294  154.2442 H   0  0  0  0  0  0  0  0  0  0  0  0  # atno 10765 bound_to 10752
  141.0923  133.9032  157.2045 H   0  0  0  0  0  0  0  0  0  0  0  0  # atno 11005 bound_to 11000
  145.9690  139.2856  143.1110 LP  0  0  0  0  0  0  0  0  0  0  0  0  # atno 17320 bound_to 7965
  145.9137  140.9162  143.0441 LP  0  0  0  0  0  0  0  0  0  0  0  0  # atno 17321 bound_to 7965
  140.4862  144.1377  150.5941 LP  0  0  0  0  0  0  0  0  0  0  0  0  # atno 17342 bound_to 10162
  140.4222  143.2606  151.9701 LP  0  0  0  0  0  0  0  0  0  0  0  0  # atno 17343 bound_to 10162
  156.7948  130.4902  149.5379 LP  0  0  0  0  0  0  0  0  0  0  0  0  # atno 17370 bound_to 10713
  156.1221  130.6117  151.0209 LP  0  0  0  0  0  0  0  0  0  0  0  0  # atno 17371 bound_to 10713
  139.9752  135.0116  156.9613 LP  0  0  0  0  0  0  0  0  0  0  0  0  # atno 17394 bound_to 11000
  140.5222  134.0896  155.7295 LP  0  0  0  0  0  0  0  0  0  0  0  0  # atno 17395 bound_to 11000

$$$$
