AV-unprocessed.smi:148|AV-procd|sdf|1217|dock8
  -GOLD-   2262018403D 1   1.00000     0.00000
 Structure written by MMmdl.
 63 67  0  0  0  0  0  0  0  0  1 V2000
  150.0358  140.2297  153.7303 O   0  0  0  0  0  0  0  0  0  0  0  0
  148.8827  140.2596  154.5451 C   0  0  0  0  0  0  0  0  0  0  0  0
  149.0496  141.2152  155.7513 C   0  0  1  0  0  0  0  0  0  0  0  0
  147.9370  140.9654  156.8047 C   0  0  0  0  0  0  0  0  0  0  0  0
  146.8023  141.8743  156.7061 N   0  0  0  0  0  0  0  0  0  0  0  0
  145.9656  142.2583  157.7318 C   0  0  0  0  0  0  0  0  0  0  0  0
  145.0163  143.0897  157.4001 N   0  0  0  0  0  0  0  0  0  0  0  0
  145.1992  143.2776  156.0373 C   0  0  0  0  0  0  0  0  0  0  0  0
  144.5235  144.0416  155.0505 C   0  0  0  0  0  0  0  0  0  0  0  0
  143.4621  144.8240  155.3569 N   0  0  0  0  0  0  0  0  0  0  0  0
  143.7820  146.2168  155.0439 C   0  0  0  0  0  0  0  0  0  0  0  0
  142.7098  147.1737  155.5769 C   0  0  0  0  0  0  0  0  0  0  0  0
  141.3355  146.7772  155.0319 C   0  0  0  0  0  0  0  0  0  0  0  0
  141.0278  145.3210  155.4031 C   0  0  0  0  0  0  0  0  0  0  0  0
  142.1355  144.3460  154.9213 C   0  0  2  0  0  0  0  0  0  0  0  0
  141.8691  142.8648  155.3397 C   0  0  1  0  0  0  0  0  0  0  0  0
  141.8772  142.5781  156.8539 C   0  0  0  0  0  0  0  0  0  0  0  0
  140.9523  141.3689  157.0710 C   0  0  0  0  0  0  0  0  0  0  0  0
  140.4337  140.9682  155.6859 C   0  0  0  0  0  0  0  0  0  0  0  0
  140.5544  142.2410  154.8485 C   0  0  2  0  0  0  0  0  0  0  0  0
  140.5838  141.9482  153.4669 O   0  0  0  0  0  0  0  0  0  0  0  0
  144.9900  143.9903  153.7747 N   0  0  0  0  0  0  0  0  0  0  0  0
  146.0431  143.2216  153.4819 C   0  0  0  0  0  0  0  0  0  0  0  0
  146.7659  142.4504  154.2972 N   0  0  0  0  0  0  0  0  0  0  0  0
  146.3090  142.5139  155.5806 C   0  0  0  0  0  0  0  0  0  0  0  0
  150.4698  141.1491  156.3788 C   0  0  2  0  0  0  0  0  0  0  0  0
  150.6510  140.0450  157.4084 C   0  0  0  0  0  0  0  0  0  0  0  0
  151.9198  140.4779  158.1352 C   0  0  0  0  0  0  0  0  0  0  0  0
  151.9336  141.8997  158.0731 O   0  0  0  0  0  0  0  0  0  0  0  0
  150.8836  142.3558  157.2274 C   0  0  0  0  0  0  0  0  0  0  0  0
  149.7667  140.1216  152.8308 H   0  0  0  0  0  0  0  0  0  0  0  0
  148.0624  140.5930  153.9093 H   0  0  0  0  0  0  0  0  0  0  0  0
  148.6419  139.2484  154.8749 H   0  0  0  0  0  0  0  0  0  0  0  0
  148.8955  142.2311  155.3837 H   0  0  0  0  0  0  0  0  0  0  0  0
  147.5689  139.9412  156.7470 H   0  0  0  0  0  0  0  0  0  0  0  0
  148.3565  141.0668  157.8064 H   0  0  0  0  0  0  0  0  0  0  0  0
  146.0857  141.9053  158.7456 H   0  0  0  0  0  0  0  0  0  0  0  0
  144.7491  146.4843  155.4732 H   0  0  0  0  0  0  0  0  0  0  0  0
  143.8723  146.3317  153.9626 H   0  0  0  0  0  0  0  0  0  0  0  0
  142.6992  147.1469  156.6674 H   0  0  0  0  0  0  0  0  0  0  0  0
  142.9476  148.1982  155.2904 H   0  0  0  0  0  0  0  0  0  0  0  0
  140.5663  147.4382  155.4320 H   0  0  0  0  0  0  0  0  0  0  0  0
  141.3180  146.8952  153.9477 H   0  0  0  0  0  0  0  0  0  0  0  0
  140.9037  145.2582  156.4835 H   0  0  0  0  0  0  0  0  0  0  0  0
  140.0661  145.0575  154.9655 H   0  0  0  0  0  0  0  0  0  0  0  0
  142.1308  144.3813  153.8308 H   0  0  0  0  0  0  0  0  0  0  0  0
  142.6567  142.2418  154.9129 H   0  0  0  0  0  0  0  0  0  0  0  0
  142.8886  142.3741  157.2065 H   0  0  0  0  0  0  0  0  0  0  0  0
  141.5069  143.4239  157.4311 H   0  0  0  0  0  0  0  0  0  0  0  0
  141.4697  140.5416  157.5577 H   0  0  0  0  0  0  0  0  0  0  0  0
  140.1186  141.6551  157.7135 H   0  0  0  0  0  0  0  0  0  0  0  0
  141.0756  140.1877  155.2741 H   0  0  0  0  0  0  0  0  0  0  0  0
  139.4158  140.5781  155.7143 H   0  0  0  0  0  0  0  0  0  0  0  0
  139.7001  142.8802  155.0670 H   0  0  0  0  0  0  0  0  0  0  0  0
  141.4848  141.8515  153.1993 H   0  0  0  0  0  0  0  0  0  0  0  0
  146.3518  143.2253  152.4469 H   0  0  0  0  0  0  0  0  0  0  0  0
  151.2141  141.0239  155.5913 H   0  0  0  0  0  0  0  0  0  0  0  0
  149.8106  140.0343  158.1041 H   0  0  0  0  0  0  0  0  0  0  0  0
  150.7417  139.0485  156.9792 H   0  0  0  0  0  0  0  0  0  0  0  0
  151.9504  140.1225  159.1653 H   0  0  0  0  0  0  0  0  0  0  0  0
  152.8029  140.0995  157.6188 H   0  0  0  0  0  0  0  0  0  0  0  0
  151.2116  143.2022  156.6237 H   0  0  0  0  0  0  0  0  0  0  0  0
  150.0577  142.6866  157.8588 H   0  0  0  0  0  0  0  0  0  0  0  0
  1  2  1  0  0  0  0
  1 31  1  0  0  0  0
  2  3  1  0  0  0  0
  2 32  1  0  0  0  0
  2 33  1  0  0  0  0
  3  4  1  0  0  0  0
  3 26  1  0  0  0  0
  3 34  1  0  0  0  0
  4  5  1  0  0  0  0
  4 35  1  0  0  0  0
  4 36  1  0  0  0  0
  5 25  1  0  0  0  0
  5  6  1  0  0  0  0
  6  7  2  0  0  0  0
  6 37  1  0  0  0  0
  7  8  1  0  0  0  0
  8 25  2  0  0  0  0
  8  9  1  0  0  0  0
  9 10  1  0  0  0  0
  9 22  2  0  0  0  0
 10 15  1  0  0  0  0
 10 11  1  0  0  0  0
 11 12  1  0  0  0  0
 11 38  1  0  0  0  0
 11 39  1  0  0  0  0
 12 13  1  0  0  0  0
 12 40  1  0  0  0  0
 12 41  1  0  0  0  0
 13 14  1  0  0  0  0
 13 42  1  0  0  0  0
 13 43  1  0  0  0  0
 14 15  1  0  0  0  0
 14 44  1  0  0  0  0
 14 45  1  0  0  0  0
 15 16  1  0  0  0  0
 15 46  1  0  0  0  0
 16 20  1  0  0  0  0
 16 17  1  0  0  0  0
 16 47  1  0  0  0  0
 17 18  1  0  0  0  0
 17 48  1  0  0  0  0
 17 49  1  0  0  0  0
 18 19  1  0  0  0  0
 18 50  1  0  0  0  0
 18 51  1  0  0  0  0
 19 20  1  0  0  0  0
 19 52  1  0  0  0  0
 19 53  1  0  0  0  0
 20 21  1  0  0  0  0
 20 54  1  0  0  0  0
 21 55  1  0  0  0  0
 22 23  1  0  0  0  0
 23 24  2  0  0  0  0
 23 56  1  0  0  0  0
 24 25  1  0  0  0  0
 26 30  1  0  0  0  0
 26 27  1  0  0  0  0
 26 57  1  0  0  0  0
 27 28  1  0  0  0  0
 27 58  1  0  0  0  0
 27 59  1  0  0  0  0
 28 29  1  0  0  0  0
 28 60  1  0  0  0  0
 28 61  1  0  0  0  0
 29 30  1  0  0  0  0
 30 62  1  0  0  0  0
 30 63  1  0  0  0  0
M  END
> <s_m_source_file>
AV-unprocessed.smi

> <i_m_source_file_index>
148

> <i_lp_mmshare_version>
43012

> <i_f3d_flags>
0

> <s_epik_input>
W0NIMl0xT1tDSDJdW0NIMl1bQ0BIXTFbQ0BIXShbQ0gyXVtPSF0pW0NIMl1uKFtjSF1uMiljKGMyMyluW2NIXW5jM040W0NIMl1bQ0gyXVtDSDJdW0NIMl1bQ0BIXTRbQ0BASF01W0NIMl1bQ0gyXVtDSDJdW0NASF01W09IXQ==

> <s_epik_cmdline>
J2VwaWtfcHl0aG9uJywgJy1waCcsICc3LjAnLCAnLXRuJywgJzgnLCAnLW1hJywgJzIwMCcsICctbWV0YWxfYmluZGluZycsICctaW1hZScsICc8aW5maWxlLm1hZT4nLCAnLW9tYWUnLCAnPG91dGZpbGUubWFlPic=

> <r_lp_tautomer_probability>
1

> <r_epik_Ionization_Penalty>
0.00556303

> <r_epik_Ionization_Penalty_Charging>
0

> <r_epik_Ionization_Penalty_Neutral>
0.00556303

> <r_epik_State_Penalty>
0.00401767

> <r_epik_Charging_Adjusted_Penalty>
0.00401767

> <i_epik_Tot_Q>
0

> <i_epik_Tot_abs_Q>
0

> <r_epik_Metal_State_Penalty>
-0

> <b_epik_Metal_Only>
0

> <s_lp_Force_Field>
OPLS_2005

> <r_lp_Energy>
67.8341

> <b_lp_Chiralities_Consistent>
1

> <s_lp_Variant>
AV-unprocessed.smi:148-16

> <Gold.Version>
5.8.1

> <Gold.Id.Protein>
6NUR|6NUR_protein|mol2

> <Gold.PLP.Fitness>
47.3102

> <Gold.PLP.PLP>
-39.9175

> <Gold.PLP.part.hbond>
-4.9562

> <Gold.PLP.part.metal>
0.0000

> <Gold.PLP.part.buried>
-10.0157

> <Gold.PLP.part.nonpolar>
-26.4410

> <Gold.PLP.part.repulsive>
0.4973

> <Gold.PLP.ligand.clash>
0.0000

> <Gold.PLP.ligand.torsion>
1.6414

> <Gold.PLP.Chemscore.Hbond>
3.4416

> <Gold.PLP.Chemscore.CHOScore>
0.0000

> <Gold.PLP.Chemscore.Metal>
0.0000

> <Gold.Chemscore.Hbonds>
donor molecule, donor type, donor heavy atom, donor atom, acceptor molecule, acceptor atom, score
      L1  H     1    31       P1  7957  1.00
      L1  H    21    55       P1 10174  0.83
      P1  H  7989  7998       L1     1  0.68
      P1  H 10162 10167       L1    21  0.90

> <Gold.PLP.Chemscore.Internal.Correction>
0.3506

> <Gold.Rescore>
     Score         DG    S(hbond)    S(metal)    S(lipo)     H(rot)  DE(clash)    DE(int)     intcor
     11.05     -13.83       2.39        0.00      75.84       3.32       0.02       2.77       ----

> <Gold.Chemscore.Fitness>
11.0467

> <Gold.Chemscore.DG>
-13.8315

> <Gold.Chemscore.ZeroCoef>
-5.4800

> <Gold.Chemscore.Hbond>
2.3885

> <Gold.Chemscore.Metal>
0.0000

> <Gold.Chemscore.Lipo>
75.8448

> <Gold.Chemscore.Internal_Hbond>
0.0000

> <Gold.Chemscore.DEClash>
0.0193

> <Gold.Chemscore.DEInternal>
2.7654

> <Gold.Chemscore.Rot>
3.3203

> <Gold.Chemscore.Internal.Correction>
   9.000000E+99

> <Gold.Chemscore.Hbonds>
donor molecule, donor type, donor heavy atom, donor atom, acceptor molecule, acceptor atom, score
      L1  H     1    31       P1  7957  1.00
      L1  H    21    55       P1 10174  0.42
      P1  H  7989  7998       L1     1  0.15
      P1  H 10162 10167       L1    21  0.17

> <Gold.Chemscore.Hbond.Weighted>
-7.9776

> <Gold.Chemscore.Metal.Weighted>
-0.0000

> <Gold.Chemscore.Lipo.Weighted>
-8.8738

> <Gold.Chemscore.Internal_Hbond.Weighted>
0.0000

> <Gold.Chemscore.DEClash.Weighted>
0.0193

> <Gold.Chemscore.DEInternal.Weighted>
2.7654

> <Gold.Chemscore.Rot.Weighted>
8.5000

> <Gold.Chemscore.Internal.Correction.Weighted>
   9.000000E+99

> <Gold.Protein.RotatedTorsions>
[ 6907 6896 6895 6894 ] final   76.83 input  -60.11 | X-H torsion
[ 7974 7965 7964 7962 ] final  -61.59 input  175.53 | X-H torsion
[ 8008 7997 7996 7995 ] final  -60.88 input   59.86 | X-H torsion
[ 10167 10162 10161 10158 ] final -119.55 input  -65.29 | X-H torsion
[ 10718 10713 10712 10709 ] final -101.82 input   66.30 | X-H torsion
[ 10763 10752 10751 10750 ] final  149.61 input  -60.55 | X-H torsion
[ 11005 11000 10999 10996 ] final  -86.17 input  -57.11 | X-H torsion

> <Gold.Protein.ActiveResidues>
 VAL166  LYS551  ARG553  GLY616  TRP617  ASP618  TYR619  PRO620  LYS621  CYS622 
 ASP623  PHE694  ASN695  SER759  ASP760  ASP761  ALA762  ILE779  LEU786  VAL792 
 PHE793  MET794  SER795  GLU796  ALA797  LYS798  CYS799  TRP800  GLU811  SER814 

> <Gold.Protein.RotatedAtoms>
  152.5091  134.3909  159.9383 H   0  0  0  0  0  0  0  0  0  0  0  0  # atno 6907 bound_to 6896
  151.3869  133.3796  159.2724 H   0  0  0  0  0  0  0  0  0  0  0  0  # atno 6908 bound_to 6896
  150.9462  134.8887  159.7702 H   0  0  0  0  0  0  0  0  0  0  0  0  # atno 6909 bound_to 6896
  145.8017  140.8651  143.0228 H   0  0  0  0  0  0  0  0  0  0  0  0  # atno 7974 bound_to 7965
  154.4420  140.1030  156.6342 H   0  0  0  0  0  0  0  0  0  0  0  0  # atno 8008 bound_to 7997
  155.5571  140.3487  155.4464 H   0  0  0  0  0  0  0  0  0  0  0  0  # atno 8009 bound_to 7997
  156.0487  140.1299  157.0064 H   0  0  0  0  0  0  0  0  0  0  0  0  # atno 8010 bound_to 7997
  140.0454  143.5112  152.2109 H   0  0  0  0  0  0  0  0  0  0  0  0  # atno 10167 bound_to 10162
  156.0207  130.5391  150.7019 H   0  0  0  0  0  0  0  0  0  0  0  0  # atno 10718 bound_to 10713
  154.0739  135.2864  155.3303 H   0  0  0  0  0  0  0  0  0  0  0  0  # atno 10763 bound_to 10752
  154.6728  135.5293  153.8164 H   0  0  0  0  0  0  0  0  0  0  0  0  # atno 10764 bound_to 10752
  153.0474  135.6562  154.0919 H   0  0  0  0  0  0  0  0  0  0  0  0  # atno 10765 bound_to 10752
  141.1633  133.7439  156.9122 H   0  0  0  0  0  0  0  0  0  0  0  0  # atno 11005 bound_to 11000
  144.6768  140.0268  143.7483 LP  0  0  0  0  0  0  0  0  0  0  0  0  # atno 17320 bound_to 7965
  145.9871  139.2986  143.1007 LP  0  0  0  0  0  0  0  0  0  0  0  0  # atno 17321 bound_to 7965
  139.5987  144.7575  151.3224 LP  0  0  0  0  0  0  0  0  0  0  0  0  # atno 17342 bound_to 10162
  140.7241  143.7053  150.7812 LP  0  0  0  0  0  0  0  0  0  0  0  0  # atno 17343 bound_to 10162
  157.4677  131.0890  151.0677 LP  0  0  0  0  0  0  0  0  0  0  0  0  # atno 17370 bound_to 10713
  157.1146  130.6036  149.5490 LP  0  0  0  0  0  0  0  0  0  0  0  0  # atno 17371 bound_to 10713
  140.1509  134.9231  157.2591 LP  0  0  0  0  0  0  0  0  0  0  0  0  # atno 17394 bound_to 11000
  140.2724  134.3445  155.7369 LP  0  0  0  0  0  0  0  0  0  0  0  0  # atno 17395 bound_to 11000

$$$$
