AV-unprocessed.smi:1413|AV-procd|sdf|5758|dock7
  -GOLD-   22720 5393D 1   1.00000     0.00000
 Structure written by MMmdl.
 53 55  0  0  0  0  0  0  0  0  1 V2000
  152.3027  144.5682  157.7064 C   0  0  0  0  0  0  0  0  0  0  0  0
  151.4140  143.7639  158.6720 C   0  0  1  0  0  0  0  0  0  0  0  0
  150.4643  142.7828  157.9570 C   0  0  0  0  0  0  0  0  0  0  0  0
  151.1888  141.6116  157.4716 N   0  0  0  0  0  0  0  0  0  0  0  0
  150.4929  140.7995  156.5501 C   0  0  0  0  0  0  0  0  0  0  0  0
  151.2030  139.9221  155.6976 C   0  0  0  0  0  0  0  0  0  0  0  0
  150.4884  139.1266  154.7824 C   0  0  0  0  0  0  0  0  0  0  0  0
  149.0844  139.2243  154.7317 C   0  0  0  0  0  0  0  0  0  0  0  0
  148.3939  138.3976  153.8036 N   0  0  0  0  0  0  0  0  0  0  0  0
  147.0851  138.3846  153.4979 C   0  0  0  0  0  0  0  0  0  0  0  0
  146.2322  139.1301  153.9788 O   0  0  0  0  0  0  0  0  0  0  0  0
  146.8152  137.4520  152.5736 N   0  0  0  0  0  0  0  0  0  0  0  0
  145.4996  137.1905  151.9946 C   0  0  2  0  0  0  0  0  0  0  0  0
  144.4520  137.0921  153.1173 C   0  0  0  0  0  0  0  0  0  0  0  0
  145.5666  135.9082  151.1428 C   0  0  1  0  0  0  0  0  0  0  0  0
  146.1185  134.6843  151.8764 C   0  0  0  0  0  0  0  0  0  0  0  0
  145.5135  133.5504  151.0818 C   0  0  0  0  0  0  0  0  0  0  0  0
  144.1247  134.0967  150.7676 C   0  0  0  0  0  0  0  0  0  0  0  0
  144.2588  135.5153  150.7282 O   0  0  0  0  0  0  0  0  0  0  0  0
  148.4582  140.1150  155.6360 C   0  0  0  0  0  0  0  0  0  0  0  0
  149.1403  140.8785  156.5158 N   0  0  0  0  0  0  0  0  0  0  0  0
  151.9798  140.9554  158.5094 C   0  0  0  0  0  0  0  0  0  0  0  0
  152.9286  141.9650  159.1796 C   0  0  2  0  0  0  0  0  0  0  0  0
  153.6790  141.3457  160.3634 C   0  0  0  0  0  0  0  0  0  0  0  0
  152.1785  143.0776  159.6657 O   0  0  0  0  0  0  0  0  0  0  0  0
  151.6933  145.1873  157.0476 H   0  0  0  0  0  0  0  0  0  0  0  0
  152.9114  143.9253  157.0711 H   0  0  0  0  0  0  0  0  0  0  0  0
  152.9731  145.2304  158.2544 H   0  0  0  0  0  0  0  0  0  0  0  0
  150.7994  144.4868  159.2088 H   0  0  0  0  0  0  0  0  0  0  0  0
  149.6990  142.4417  158.6554 H   0  0  0  0  0  0  0  0  0  0  0  0
  149.9422  143.3052  157.1566 H   0  0  0  0  0  0  0  0  0  0  0  0
  152.2786  139.8398  155.7443 H   0  0  0  0  0  0  0  0  0  0  0  0
  151.0172  138.4497  154.1274 H   0  0  0  0  0  0  0  0  0  0  0  0
  148.9767  137.7692  153.2703 H   0  0  0  0  0  0  0  0  0  0  0  0
  147.5795  136.8908  152.2277 H   0  0  0  0  0  0  0  0  0  0  0  0
  145.2292  138.0193  151.3376 H   0  0  0  0  0  0  0  0  0  0  0  0
  143.4497  136.9466  152.7142 H   0  0  0  0  0  0  0  0  0  0  0  0
  144.4278  138.0030  153.7165 H   0  0  0  0  0  0  0  0  0  0  0  0
  144.6658  136.2588  153.7875 H   0  0  0  0  0  0  0  0  0  0  0  0
  146.1596  136.0816  150.2429 H   0  0  0  0  0  0  0  0  0  0  0  0
  147.2083  134.6542  151.8974 H   0  0  0  0  0  0  0  0  0  0  0  0
  145.7547  134.6535  152.9046 H   0  0  0  0  0  0  0  0  0  0  0  0
  146.0760  133.3981  150.1599 H   0  0  0  0  0  0  0  0  0  0  0  0
  145.4885  132.6071  151.6280 H   0  0  0  0  0  0  0  0  0  0  0  0
  143.7300  133.7079  149.8288 H   0  0  0  0  0  0  0  0  0  0  0  0
  143.4235  133.8388  151.5619 H   0  0  0  0  0  0  0  0  0  0  0  0
  147.3866  140.2234  155.6890 H   0  0  0  0  0  0  0  0  0  0  0  0
  151.3077  140.5187  159.2495 H   0  0  0  0  0  0  0  0  0  0  0  0
  152.5659  140.1415  158.0803 H   0  0  0  0  0  0  0  0  0  0  0  0
  153.6675  142.3080  158.4553 H   0  0  0  0  0  0  0  0  0  0  0  0
  154.2813  140.4947  160.0446 H   0  0  0  0  0  0  0  0  0  0  0  0
  152.9872  140.9982  161.1311 H   0  0  0  0  0  0  0  0  0  0  0  0
  154.3487  142.0729  160.8233 H   0  0  0  0  0  0  0  0  0  0  0  0
  1  2  1  0  0  0  0
  1 26  1  0  0  0  0
  1 27  1  0  0  0  0
  1 28  1  0  0  0  0
  2 25  1  0  0  0  0
  2  3  1  0  0  0  0
  2 29  1  0  0  0  0
  3  4  1  0  0  0  0
  3 30  1  0  0  0  0
  3 31  1  0  0  0  0
  4  5  1  0  0  0  0
  4 22  1  0  0  0  0
  5 21  1  0  0  0  0
  5  6  2  0  0  0  0
  6  7  1  0  0  0  0
  6 32  1  0  0  0  0
  7  8  2  0  0  0  0
  7 33  1  0  0  0  0
  8  9  1  0  0  0  0
  8 20  1  0  0  0  0
  9 10  1  0  0  0  0
  9 34  1  0  0  0  0
 10 11  2  0  0  0  0
 10 12  1  0  0  0  0
 12 13  1  0  0  0  0
 12 35  1  0  0  0  0
 13 14  1  0  0  0  0
 13 15  1  0  0  0  0
 13 36  1  0  0  0  0
 14 37  1  0  0  0  0
 14 38  1  0  0  0  0
 14 39  1  0  0  0  0
 15 19  1  0  0  0  0
 15 16  1  0  0  0  0
 15 40  1  0  0  0  0
 16 17  1  0  0  0  0
 16 41  1  0  0  0  0
 16 42  1  0  0  0  0
 17 18  1  0  0  0  0
 17 43  1  0  0  0  0
 17 44  1  0  0  0  0
 18 19  1  0  0  0  0
 18 45  1  0  0  0  0
 18 46  1  0  0  0  0
 20 21  2  0  0  0  0
 20 47  1  0  0  0  0
 22 23  1  0  0  0  0
 22 48  1  0  0  0  0
 22 49  1  0  0  0  0
 23 24  1  0  0  0  0
 23 25  1  0  0  0  0
 23 50  1  0  0  0  0
 24 51  1  0  0  0  0
 24 52  1  0  0  0  0
 24 53  1  0  0  0  0
M  END
> <s_m_source_file>
AV-unprocessed.smi

> <i_m_source_file_index>
1413

> <i_lp_mmshare_version>
43012

> <i_f3d_flags>
0

> <s_epik_input>
W0NIM11bQ0BASF0xW0NIMl1OKFtDSDJdW0NASF0oTzEpW0NIM10pYzJbY0hdW2NIXWMoW2NIXW4yKVtOSF1DKD1PKVtOSF1bQ0BIXShbQ0gzXSlbQ0BASF0zW0NIMl1bQ0gyXVtDSDJdTzM=

> <s_epik_cmdline>
J2VwaWtfcHl0aG9uJywgJy1waCcsICc3LjAnLCAnLXRuJywgJzgnLCAnLW1hJywgJzIwMCcsICctbWV0YWxfYmluZGluZycsICctaW1hZScsICc8aW5maWxlLm1hZT4nLCAnLW9tYWUnLCAnPG91dGZpbGUubWFlPic=

> <r_lp_tautomer_probability>
1

> <r_epik_Ionization_Penalty>
0.00271172

> <r_epik_Ionization_Penalty_Charging>
0

> <r_epik_Ionization_Penalty_Neutral>
0.00271172

> <r_epik_State_Penalty>
0.00186503

> <r_epik_Charging_Adjusted_Penalty>
0.00186503

> <i_epik_Tot_Q>
0

> <i_epik_Tot_abs_Q>
0

> <r_epik_Metal_State_Penalty>
-0

> <b_epik_Metal_Only>
0

> <s_lp_Force_Field>
OPLS_2005

> <r_lp_Energy>
37.0266

> <b_lp_Chiralities_Consistent>
1

> <s_lp_Variant>
AV-unprocessed.smi:1413-11

> <Gold.Version>
5.8.1

> <Gold.Id.Protein>
6NUR|6NUR_protein|mol2

> <Gold.PLP.Fitness>
48.2140

> <Gold.PLP.PLP>
-43.2131

> <Gold.PLP.part.hbond>
-2.1535

> <Gold.PLP.part.metal>
0.0000

> <Gold.PLP.part.buried>
-6.2684

> <Gold.PLP.part.nonpolar>
-36.5715

> <Gold.PLP.part.repulsive>
0.5574

> <Gold.PLP.ligand.clash>
0.0000

> <Gold.PLP.ligand.torsion>
0.4847

> <Gold.PLP.Chemscore.Hbond>
1.8736

> <Gold.PLP.Chemscore.CHOScore>
0.0000

> <Gold.PLP.Chemscore.Metal>
0.0000

> <Gold.Chemscore.Hbonds>
donor molecule, donor type, donor heavy atom, donor atom, acceptor molecule, acceptor atom, score
      L1  H     9    34       P1  7948  0.83
      L1  H    12    35       P1  7948  1.00

> <Gold.PLP.Chemscore.Internal.Correction>
0.3495

> <Gold.Rescore>
     Score         DG    S(hbond)    S(metal)    S(lipo)     H(rot)  DE(clash)    DE(int)     intcor
     18.27     -21.53       1.77        0.00     116.13       1.35       0.31       2.95       ----

> <Gold.Chemscore.Fitness>
18.2733

> <Gold.Chemscore.DG>
-21.5255

> <Gold.Chemscore.ZeroCoef>
-5.4800

> <Gold.Chemscore.Hbond>
1.7685

> <Gold.Chemscore.Metal>
0.0000

> <Gold.Chemscore.Lipo>
116.1316

> <Gold.Chemscore.Internal_Hbond>
0.0000

> <Gold.Chemscore.DEClash>
0.3054

> <Gold.Chemscore.DEInternal>
2.9468

> <Gold.Chemscore.Rot>
1.3471

> <Gold.Chemscore.Internal.Correction>
   9.000000E+99

> <Gold.Chemscore.Hbonds>
donor molecule, donor type, donor heavy atom, donor atom, acceptor molecule, acceptor atom, score
      L1  H     9    34       P1  7948  0.78
      L1  H    12    35       P1  7948  0.95

> <Gold.Chemscore.Hbond.Weighted>
-5.9066

> <Gold.Chemscore.Metal.Weighted>
-0.0000

> <Gold.Chemscore.Lipo.Weighted>
-13.5874

> <Gold.Chemscore.Internal_Hbond.Weighted>
0.0000

> <Gold.Chemscore.DEClash.Weighted>
0.3054

> <Gold.Chemscore.DEInternal.Weighted>
2.9468

> <Gold.Chemscore.Rot.Weighted>
3.4485

> <Gold.Chemscore.Internal.Correction.Weighted>
   9.000000E+99

> <Gold.Protein.RotatedTorsions>
[ 6907 6896 6895 6894 ] final -172.34 input  -60.11 | X-H torsion
[ 7974 7965 7964 7962 ] final  -96.61 input  175.53 | X-H torsion
[ 8008 7997 7996 7995 ] final  112.46 input   59.86 | X-H torsion
[ 10167 10162 10161 10158 ] final -142.46 input  -65.29 | X-H torsion
[ 10718 10713 10712 10709 ] final   21.69 input   66.30 | X-H torsion
[ 10763 10752 10751 10750 ] final -168.36 input  -60.55 | X-H torsion
[ 11005 11000 10999 10996 ] final  -17.39 input  -57.11 | X-H torsion

> <Gold.Protein.ActiveResidues>
 VAL166  LYS551  ARG553  GLY616  TRP617  ASP618  TYR619  PRO620  LYS621  CYS622 
 ASP623  PHE694  ASN695  SER759  ASP760  ASP761  ALA762  ILE779  LEU786  VAL792 
 PHE793  MET794  SER795  GLU796  ALA797  LYS798  CYS799  TRP800  GLU811  SER814 

> <Gold.Protein.RotatedAtoms>
  151.5384  133.3437  159.2930 H   0  0  0  0  0  0  0  0  0  0  0  0  # atno 6907 bound_to 6896
  150.8551  134.7889  159.7050 H   0  0  0  0  0  0  0  0  0  0  0  0  # atno 6908 bound_to 6896
  152.4586  134.5243  159.9843 H   0  0  0  0  0  0  0  0  0  0  0  0  # atno 6909 bound_to 6896
  145.3445  140.9466  143.2589 H   0  0  0  0  0  0  0  0  0  0  0  0  # atno 7974 bound_to 7965
  156.2193  140.2999  155.9915 H   0  0  0  0  0  0  0  0  0  0  0  0  # atno 8008 bound_to 7997
  155.2522  140.0426  157.3005 H   0  0  0  0  0  0  0  0  0  0  0  0  # atno 8009 bound_to 7997
  154.5816  140.2377  155.8053 H   0  0  0  0  0  0  0  0  0  0  0  0  # atno 8010 bound_to 7997
  139.8086  143.7734  152.2662 H   0  0  0  0  0  0  0  0  0  0  0  0  # atno 10167 bound_to 10162
  157.1420  130.6636  149.5984 H   0  0  0  0  0  0  0  0  0  0  0  0  # atno 10718 bound_to 10713
  154.6636  135.2928  154.9834 H   0  0  0  0  0  0  0  0  0  0  0  0  # atno 10763 bound_to 10752
  154.0885  135.6594  153.4853 H   0  0  0  0  0  0  0  0  0  0  0  0  # atno 10764 bound_to 10752
  153.0444  135.5214  154.7599 H   0  0  0  0  0  0  0  0  0  0  0  0  # atno 10765 bound_to 10752
  140.8164  133.8101  155.9615 H   0  0  0  0  0  0  0  0  0  0  0  0  # atno 11005 bound_to 11000
  144.8764  139.4965  143.6743 LP  0  0  0  0  0  0  0  0  0  0  0  0  # atno 17320 bound_to 7965
  146.2993  139.7377  142.9103 LP  0  0  0  0  0  0  0  0  0  0  0  0  # atno 17321 bound_to 7965
  139.7876  144.7422  151.0000 LP  0  0  0  0  0  0  0  0  0  0  0  0  # atno 17342 bound_to 10162
  140.7818  143.4476  151.0460 LP  0  0  0  0  0  0  0  0  0  0  0  0  # atno 17343 bound_to 10162
  155.9787  130.4774  150.6669 LP  0  0  0  0  0  0  0  0  0  0  0  0  # atno 17370 bound_to 10713
  157.4298  131.0848  151.1049 LP  0  0  0  0  0  0  0  0  0  0  0  0  # atno 17371 bound_to 10713
  140.9145  134.2219  157.4965 LP  0  0  0  0  0  0  0  0  0  0  0  0  # atno 17394 bound_to 11000
  139.8711  134.9765  156.4922 LP  0  0  0  0  0  0  0  0  0  0  0  0  # atno 17395 bound_to 11000

$$$$
