AV-unprocessed.smi:72|AV-procd|sdf|669|dock4
  -GOLD-   2262016573D 1   1.00000     0.00000
 Structure written by MMmdl.
 29 30  0  0  0  0  0  0  0  0  1 V2000
  152.5142  139.8170  156.6673 N   0  0  0  0  0  0  0  0  0  0  0  0
  151.3424  139.7840  156.1404 C   0  0  0  0  0  0  0  0  0  0  0  0
  151.0484  140.0709  154.7994 N   0  0  0  0  0  0  0  0  0  0  0  0
  149.8127  140.0207  154.4072 C   0  0  0  0  0  0  0  0  0  0  0  0
  148.7190  139.7011  155.3173 N   0  0  0  0  0  0  0  0  0  0  0  0
  147.2697  139.6144  154.8634 C   0  0  2  0  0  0  0  0  0  0  0  0
  146.8160  138.2955  154.9303 O   0  0  0  0  0  0  0  0  0  0  0  0
  146.9785  137.6706  153.6633 C   0  0  1  0  0  0  0  0  0  0  0  0
  146.0772  136.4306  153.5726 C   0  0  0  0  0  0  0  0  0  0  0  0
  146.2665  135.7893  152.3293 O   0  0  0  0  0  0  0  0  0  0  0  0
  146.5818  138.7933  152.7036 C   0  0  2  0  0  0  0  0  0  0  0  0
  147.2036  138.6088  151.4475 O   0  0  0  0  0  0  0  0  0  0  0  0
  147.1127  140.0511  153.3888 C   0  0  1  0  0  0  0  0  0  0  0  0
  146.1846  141.1078  153.2554 O   0  0  0  0  0  0  0  0  0  0  0  0
  149.0109  139.3512  156.6596 C   0  0  0  0  0  0  0  0  0  0  0  0
  148.1376  139.0059  157.4555 O   0  0  0  0  0  0  0  0  0  0  0  0
  150.3112  139.4225  157.0165 N   0  0  0  0  0  0  0  0  0  0  0  0
  146.7207  140.2300  155.5786 H   0  0  0  0  0  0  0  0  0  0  0  0
  148.0262  137.4056  153.5079 H   0  0  0  0  0  0  0  0  0  0  0  0
  145.4964  138.8316  152.5936 H   0  0  0  0  0  0  0  0  0  0  0  0
  148.0785  140.3495  152.9774 H   0  0  0  0  0  0  0  0  0  0  0  0
  152.4711  139.5685  157.6444 H   0  0  0  0  0  0  0  0  0  0  0  0
  149.5273  140.2133  153.3731 H   0  0  0  0  0  0  0  0  0  0  0  0
  146.2694  135.7380  154.3924 H   0  0  0  0  0  0  0  0  0  0  0  0
  145.0287  136.7237  153.6336 H   0  0  0  0  0  0  0  0  0  0  0  0
  147.1130  136.0358  151.9897 H   0  0  0  0  0  0  0  0  0  0  0  0
  147.6831  137.7946  151.4697 H   0  0  0  0  0  0  0  0  0  0  0  0
  145.4476  140.7946  152.7527 H   0  0  0  0  0  0  0  0  0  0  0  0
  150.5450  139.1909  157.9708 H   0  0  0  0  0  0  0  0  0  0  0  0
  1  2  2  0  0  0  0
  1 22  1  0  0  0  0
  2 17  1  0  0  0  0
  2  3  1  0  0  0  0
  3  4  2  0  0  0  0
  4  5  1  0  0  0  0
  4 23  1  0  0  0  0
  5  6  1  0  0  0  0
  5 15  1  0  0  0  0
  6 18  1  0  0  0  0
  6 13  1  0  0  0  0
  6  7  1  0  0  0  0
  7  8  1  0  0  0  0
  8 19  1  0  0  0  0
  8  9  1  0  0  0  0
  8 11  1  0  0  0  0
  9 10  1  0  0  0  0
  9 24  1  0  0  0  0
  9 25  1  0  0  0  0
 10 26  1  0  0  0  0
 11 20  1  0  0  0  0
 11 12  1  0  0  0  0
 11 13  1  0  0  0  0
 12 27  1  0  0  0  0
 13 21  1  0  0  0  0
 13 14  1  0  0  0  0
 14 28  1  0  0  0  0
 15 16  2  0  0  0  0
 15 17  1  0  0  0  0
 17 29  1  0  0  0  0
M  END
> <s_m_source_file>
AV-unprocessed.smi

> <i_m_source_file_index>
72

> <i_lp_mmshare_version>
43012

> <i_f3d_flags>
0

> <s_epik_input>
W05IMl1jMW5bY0hdbihjKD1PKW4xKVtDQEBIXTJPW0NASF0oW0NIMl1bT0hdKVtDQEBIXShbT0hdKVtDQEhdMltPSF0=

> <s_epik_cmdline>
J2VwaWtfcHl0aG9uJywgJy1waCcsICc3LjAnLCAnLXRuJywgJzgnLCAnLW1hJywgJzIwMCcsICctbWV0YWxfYmluZGluZycsICctaW1hZScsICc8aW5maWxlLm1hZT4nLCAnLW9tYWUnLCAnPG91dGZpbGUubWFlPic=

> <r_lp_tautomer_probability>
7.17554e-07

> <r_epik_Ionization_Penalty>
0.0066451

> <r_epik_Ionization_Penalty_Charging>
0.00663793

> <r_epik_Ionization_Penalty_Neutral>
7.17052e-06

> <r_epik_State_Penalty>
0.419231

> <r_epik_Charging_Adjusted_Penalty>
0.425868

> <i_epik_Tot_Q>
0

> <i_epik_Tot_abs_Q>
0

> <r_epik_Metal_State_Penalty>
1.44144

> <b_epik_Metal_Only>
0

> <s_epik_Chemistry_Notes>
This compound contains an acetal/aminal-like group ( X-CH(R)-Y where X, Y are N, S, or O) that may be acid/base labile, releasing an aldehyde.

> <s_lp_Force_Field>
OPLS_2005

> <r_lp_Energy>
35.5906

> <b_lp_Chiralities_Consistent>
1

> <s_lp_Variant>
AV-unprocessed.smi:72-7

> <Gold.Version>
5.8.1

> <Gold.Id.Protein>
6NUR|6NUR_protein|mol2

> <Gold.PLP.Fitness>
36.8810

> <Gold.PLP.PLP>
-19.2853

> <Gold.PLP.part.hbond>
-7.0000

> <Gold.PLP.part.metal>
0.0000

> <Gold.PLP.part.buried>
-1.4710

> <Gold.PLP.part.nonpolar>
-11.5061

> <Gold.PLP.part.repulsive>
0.1286

> <Gold.PLP.ligand.clash>
0.0000

> <Gold.PLP.ligand.torsion>
0.0729

> <Gold.PLP.Chemscore.Hbond>
4.9000

> <Gold.PLP.Chemscore.CHOScore>
1.0000

> <Gold.PLP.Chemscore.Metal>
0.0000

> <Gold.Chemscore.Hbonds>
donor molecule, donor type, donor heavy atom, donor atom, acceptor molecule, acceptor atom, score
      L1  H    10    26       P1  7948  1.00
      L1  H    12    27       P1  7948  1.00
      L1  H    14    28       P1 10175  1.00
      P1  H  7989  7998       L1     3  0.85
      P1  H  7997  8009       L1     1  1.00
      L1  C     4    23       P1  7957  1.00

> <Gold.PLP.Chemscore.Internal.Correction>
0.0414

> <Gold.Rescore>
     Score         DG    S(hbond)    S(metal)    S(lipo)     H(rot)  DE(clash)    DE(int)     intcor
      9.21      -9.75       3.84        0.00      15.59       4.06       0.09       0.45       ----

> <Gold.Chemscore.Fitness>
9.2074

> <Gold.Chemscore.DG>
-9.7471

> <Gold.Chemscore.ZeroCoef>
-5.4800

> <Gold.Chemscore.Hbond>
3.8434

> <Gold.Chemscore.Metal>
0.0000

> <Gold.Chemscore.Lipo>
15.5869

> <Gold.Chemscore.Internal_Hbond>
0.0000

> <Gold.Chemscore.DEClash>
0.0901

> <Gold.Chemscore.DEInternal>
0.4495

> <Gold.Chemscore.Rot>
4.0600

> <Gold.Chemscore.Internal.Correction>
   9.000000E+99

> <Gold.Chemscore.Hbonds>
donor molecule, donor type, donor heavy atom, donor atom, acceptor molecule, acceptor atom, score
      L1  H    10    26       P1  7948  1.00
      L1  H    12    27       P1  7948  0.95
      L1  H    14    28       P1 10175  0.34
      P1  H  7989  7998       L1     3  0.15
      P1  H  7997  8009       L1     1  0.55

> <Gold.Chemscore.Hbond.Weighted>
-12.8370

> <Gold.Chemscore.Metal.Weighted>
-0.0000

> <Gold.Chemscore.Lipo.Weighted>
-1.8237

> <Gold.Chemscore.Internal_Hbond.Weighted>
0.0000

> <Gold.Chemscore.DEClash.Weighted>
0.0901

> <Gold.Chemscore.DEInternal.Weighted>
0.4495

> <Gold.Chemscore.Rot.Weighted>
10.3936

> <Gold.Chemscore.Internal.Correction.Weighted>
   9.000000E+99

> <Gold.Protein.RotatedTorsions>
[ 6907 6896 6895 6894 ] final -170.47 input  -60.11 | X-H torsion
[ 7974 7965 7964 7962 ] final  -51.78 input  175.53 | X-H torsion
[ 8008 7997 7996 7995 ] final -158.78 input   59.86 | X-H torsion
[ 10167 10162 10161 10158 ] final  -99.20 input  -65.29 | X-H torsion
[ 10718 10713 10712 10709 ] final -131.67 input   66.30 | X-H torsion
[ 10763 10752 10751 10750 ] final  131.09 input  -60.55 | X-H torsion
[ 11005 11000 10999 10996 ] final -176.52 input  -57.11 | X-H torsion

> <Gold.Protein.ActiveResidues>
 VAL166  LYS551  ARG553  GLY616  TRP617  ASP618  TYR619  PRO620  LYS621  CYS622 
 ASP623  PHE694  ASN695  SER759  ASP760  ASP761  ALA762  ILE779  LEU786  VAL792 
 PHE793  MET794  SER795  GLU796  ALA797  LYS798  CYS799  TRP800  GLU811  SER814 

> <Gold.Protein.RotatedAtoms>
  151.5082  133.3490  159.2880 H   0  0  0  0  0  0  0  0  0  0  0  0  # atno 6907 bound_to 6896
  150.8729  134.8109  159.7179 H   0  0  0  0  0  0  0  0  0  0  0  0  # atno 6908 bound_to 6896
  152.4711  134.4969  159.9764 H   0  0  0  0  0  0  0  0  0  0  0  0  # atno 6909 bound_to 6896
  145.9152  140.7881  142.9675 H   0  0  0  0  0  0  0  0  0  0  0  0  # atno 7974 bound_to 7965
  155.7526  140.0828  157.2194 H   0  0  0  0  0  0  0  0  0  0  0  0  # atno 8008 bound_to 7997
  154.4010  140.1557  156.2798 H   0  0  0  0  0  0  0  0  0  0  0  0  # atno 8009 bound_to 7997
  155.8915  140.3415  155.5963 H   0  0  0  0  0  0  0  0  0  0  0  0  # atno 8010 bound_to 7997
  140.2649  143.3382  152.0590 H   0  0  0  0  0  0  0  0  0  0  0  0  # atno 10167 bound_to 10162
  156.2267  130.7012  151.0815 H   0  0  0  0  0  0  0  0  0  0  0  0  # atno 10718 bound_to 10713
  153.7687  135.3185  155.3348 H   0  0  0  0  0  0  0  0  0  0  0  0  # atno 10763 bound_to 10752
  154.8204  135.4607  154.0766 H   0  0  0  0  0  0  0  0  0  0  0  0  # atno 10764 bound_to 10752
  153.2019  135.6923  153.8305 H   0  0  0  0  0  0  0  0  0  0  0  0  # atno 10765 bound_to 10752
  140.4512  134.6341  157.4802 H   0  0  0  0  0  0  0  0  0  0  0  0  # atno 11005 bound_to 11000
  144.6747  140.1888  143.7398 LP  0  0  0  0  0  0  0  0  0  0  0  0  # atno 17320 bound_to 7965
  145.8621  139.2228  143.1710 LP  0  0  0  0  0  0  0  0  0  0  0  0  # atno 17321 bound_to 7965
  139.5006  144.6694  151.6278 LP  0  0  0  0  0  0  0  0  0  0  0  0  # atno 17342 bound_to 10162
  140.5936  143.9736  150.6340 LP  0  0  0  0  0  0  0  0  0  0  0  0  # atno 17343 bound_to 10162
  157.7114  131.0732  150.6487 LP  0  0  0  0  0  0  0  0  0  0  0  0  # atno 17370 bound_to 10713
  156.6553  130.4497  149.5705 LP  0  0  0  0  0  0  0  0  0  0  0  0  # atno 17371 bound_to 10713
  140.0006  134.6843  155.9537 LP  0  0  0  0  0  0  0  0  0  0  0  0  # atno 17394 bound_to 11000
  141.1663  133.6537  156.4492 LP  0  0  0  0  0  0  0  0  0  0  0  0  # atno 17395 bound_to 11000

$$$$
