AV-unprocessed.smi:3263|AV-procd|sdf|12493|dock3
  -GOLD-   2272018393D 1   1.00000     0.00000
 Structure written by MMmdl.
 42 44  0  0  0  0  0  0  0  0  2 V2000
  154.1823  141.4939  161.9941 O   0  0  0  0  0  0  0  0  0  0  0  0
  154.1633  141.1841  160.8026 C   0  0  0  0  0  0  0  0  0  0  0  0
  153.7115  142.1976  159.7460 C   0  0  0  0  0  0  0  0  0  0  0  0
  152.2417  142.6388  159.9278 C   0  0  1  0  0  0  0  0  0  0  0  0
  152.0144  143.7684  160.9580 C   0  0  0  0  0  0  0  0  0  0  0  0
  151.1440  144.7724  160.1786 C   0  0  1  0  0  0  0  0  0  0  0  0
  152.0226  145.5061  159.1493 C   0  0  0  0  0  0  0  0  0  0  0  0
  152.2746  144.4209  158.0867 C   0  0  0  0  0  0  0  0  0  0  0  0
  151.5394  143.1944  158.6662 C   0  0  2  0  0  0  0  0  0  0  0  0
  150.3125  143.8567  159.2864 C   0  0  0  0  0  0  0  0  0  0  0  0
  154.5295  139.9735  160.3538 N   0  0  0  0  0  0  0  0  0  0  0  0
  155.0098  138.8837  161.1945 C   0  0  0  0  0  0  0  0  0  0  0  0
  154.2473  137.5774  160.9151 C   0  0  0  0  0  0  0  0  0  0  0  0
  154.3524  136.5944  162.0644 C   0  0  0  0  0  0  0  0  0  0  0  0
  153.8656  136.8903  163.3562 C   0  0  0  0  0  0  0  0  0  0  0  0
  154.0014  135.9294  164.3800 C   0  0  0  0  0  0  0  0  0  0  0  0
  154.6214  134.6958  164.0916 C   0  0  0  0  0  0  0  0  0  0  0  0
  155.0908  134.4539  162.7845 C   0  0  0  0  0  0  0  0  0  0  0  0
  154.9418  135.3993  161.8306 N   0  3  0  0  0  0  0  0  0  0  0  0
  154.3775  143.0602  159.7756 H   0  0  0  0  0  0  0  0  0  0  0  0
  153.8374  141.7407  158.7638 H   0  0  0  0  0  0  0  0  0  0  0  0
  151.6659  141.7685  160.2489 H   0  0  0  0  0  0  0  0  0  0  0  0
  151.4861  143.3861  161.8323 H   0  0  0  0  0  0  0  0  0  0  0  0
  152.9427  144.2238  161.3060 H   0  0  0  0  0  0  0  0  0  0  0  0
  150.5689  145.4422  160.8183 H   0  0  0  0  0  0  0  0  0  0  0  0
  151.4898  146.3520  158.7132 H   0  0  0  0  0  0  0  0  0  0  0  0
  152.9475  145.8833  159.5869 H   0  0  0  0  0  0  0  0  0  0  0  0
  151.8258  144.7157  157.1371 H   0  0  0  0  0  0  0  0  0  0  0  0
  153.3333  144.2479  157.8995 H   0  0  0  0  0  0  0  0  0  0  0  0
  151.3146  142.4296  157.9220 H   0  0  0  0  0  0  0  0  0  0  0  0
  149.6790  143.1661  159.8461 H   0  0  0  0  0  0  0  0  0  0  0  0
  149.6985  144.3978  158.5641 H   0  0  0  0  0  0  0  0  0  0  0  0
  154.4800  139.7994  159.3600 H   0  0  0  0  0  0  0  0  0  0  0  0
  156.0815  138.7445  161.0424 H   0  0  0  0  0  0  0  0  0  0  0  0
  154.8796  139.1745  162.2374 H   0  0  0  0  0  0  0  0  0  0  0  0
  153.1957  137.7936  160.7216 H   0  0  0  0  0  0  0  0  0  0  0  0
  154.6317  137.0981  160.0135 H   0  0  0  0  0  0  0  0  0  0  0  0
  153.3952  137.8408  163.5626 H   0  0  0  0  0  0  0  0  0  0  0  0
  153.6354  136.1362  165.3750 H   0  0  0  0  0  0  0  0  0  0  0  0
  154.7351  133.9469  164.8618 H   0  0  0  0  0  0  0  0  0  0  0  0
  155.5775  133.5404  162.4753 H   0  0  0  0  0  0  0  0  0  0  0  0
  155.2893  135.2036  160.8911 H   0  0  0  0  0  0  0  0  0  0  0  0
  1  2  2  0  0  0  0
  2  3  1  0  0  0  0
  2 11  1  0  0  0  0
  3  4  1  0  0  0  0
  3 20  1  0  0  0  0
  3 21  1  0  0  0  0
  4  9  1  0  0  0  0
  4  5  1  0  0  0  0
  4 22  1  0  0  0  0
  5  6  1  0  0  0  0
  5 23  1  0  0  0  0
  5 24  1  0  0  0  0
  6 10  1  0  0  0  0
  6  7  1  0  0  0  0
  6 25  1  0  0  0  0
  7  8  1  0  0  0  0
  7 26  1  0  0  0  0
  7 27  1  0  0  0  0
  8  9  1  0  0  0  0
  8 28  1  0  0  0  0
  8 29  1  0  0  0  0
  9 10  1  0  0  0  0
  9 30  1  0  0  0  0
 10 31  1  0  0  0  0
 10 32  1  0  0  0  0
 11 12  1  0  0  0  0
 11 33  1  0  0  0  0
 12 13  1  0  0  0  0
 12 34  1  0  0  0  0
 12 35  1  0  0  0  0
 13 14  1  0  0  0  0
 13 36  1  0  0  0  0
 13 37  1  0  0  0  0
 14 19  1  0  0  0  0
 14 15  2  0  0  0  0
 15 16  1  0  0  0  0
 15 38  1  0  0  0  0
 16 17  2  0  0  0  0
 16 39  1  0  0  0  0
 17 18  1  0  0  0  0
 17 40  1  0  0  0  0
 18 19  2  0  0  0  0
 18 41  1  0  0  0  0
 19 42  1  0  0  0  0
M  CHG  1  19   1
M  END
> <s_m_source_file>
AV-unprocessed.smi

> <i_m_source_file_index>
3263

> <i_lp_mmshare_version>
43012

> <i_f3d_flags>
0

> <s_epik_input>
W0NIMl0xW0NIMl1bQ0BASF0oW0NIMl0yKVtDQEBIXShbQ0gyXVtDQEhdMTIpW0NIMl1DKD1PKVtOSF1bQ0gyXVtDSDJdYzNbY0hdW2NIXVtjSF1bY0hdbjM=

> <s_epik_cmdline>
J2VwaWtfcHl0aG9uJywgJy1waCcsICc3LjAnLCAnLXRuJywgJzgnLCAnLW1hJywgJzIwMCcsICctbWV0YWxfYmluZGluZycsICctaW1hZScsICc8aW5maWxlLm1hZT4nLCAnLW9tYWUnLCAnPG91dGZpbGUubWFlPic=

> <r_epik_Ionization_Penalty>
1.83579

> <r_epik_Ionization_Penalty_Charging>
1.83579

> <r_epik_Ionization_Penalty_Neutral>
2.47288e-08

> <r_epik_State_Penalty>
1.95213

> <r_epik_Charging_Adjusted_Penalty>
3.78793

> <i_epik_Tot_Q>
1

> <i_epik_Tot_abs_Q>
1

> <r_epik_Metal_State_Penalty>
1.97847

> <b_epik_Metal_Only>
0

> <s_lp_Force_Field>
OPLS_2005

> <r_lp_Energy>
51.7701

> <b_lp_Chiralities_Consistent>
1

> <s_lp_Variant>
AV-unprocessed.smi:3263-8

> <Gold.Version>
5.8.1

> <Gold.Id.Protein>
6NUR|6NUR_protein|mol2

> <Gold.PLP.Fitness>
49.7612

> <Gold.PLP.PLP>
-50.4840

> <Gold.PLP.part.hbond>
-1.0000

> <Gold.PLP.part.metal>
0.0000

> <Gold.PLP.part.buried>
-4.9749

> <Gold.PLP.part.nonpolar>
-43.9985

> <Gold.PLP.part.repulsive>
0.1095

> <Gold.PLP.ligand.clash>
0.0000

> <Gold.PLP.ligand.torsion>
0.3860

> <Gold.PLP.Chemscore.Hbond>
0.0000

> <Gold.PLP.Chemscore.CHOScore>
0.0000

> <Gold.PLP.Chemscore.Metal>
0.0000

> <Gold.PLP.Chemscore.Internal.Correction>
0.0492

> <Gold.Rescore>
     Score         DG    S(hbond)    S(metal)    S(lipo)     H(rot)  DE(clash)    DE(int)     intcor
     17.73     -18.44       0.00        0.00     144.96       1.56       0.26       0.45       ----

> <Gold.Chemscore.Fitness>
17.7303

> <Gold.Chemscore.DG>
-18.4368

> <Gold.Chemscore.ZeroCoef>
-5.4800

> <Gold.Chemscore.Hbond>
0.0000

> <Gold.Chemscore.Metal>
0.0000

> <Gold.Chemscore.Lipo>
144.9623

> <Gold.Chemscore.Internal_Hbond>
0.0000

> <Gold.Chemscore.DEClash>
0.2588

> <Gold.Chemscore.DEInternal>
0.4478

> <Gold.Chemscore.Rot>
1.5640

> <Gold.Chemscore.Internal.Correction>
   9.000000E+99

> <Gold.Chemscore.Hbond.Weighted>
-0.0000

> <Gold.Chemscore.Metal.Weighted>
-0.0000

> <Gold.Chemscore.Lipo.Weighted>
-16.9606

> <Gold.Chemscore.Internal_Hbond.Weighted>
0.0000

> <Gold.Chemscore.DEClash.Weighted>
0.2588

> <Gold.Chemscore.DEInternal.Weighted>
0.4478

> <Gold.Chemscore.Rot.Weighted>
4.0038

> <Gold.Chemscore.Internal.Correction.Weighted>
   9.000000E+99

> <Gold.Protein.RotatedTorsions>
[ 6907 6896 6895 6894 ] final  148.70 input  -60.11 | X-H torsion
[ 7974 7965 7964 7962 ] final  -66.31 input  175.53 | X-H torsion
[ 8008 7997 7996 7995 ] final -178.74 input   59.86 | X-H torsion
[ 10167 10162 10161 10158 ] final  -34.84 input  -65.29 | X-H torsion
[ 10718 10713 10712 10709 ] final -123.91 input   66.30 | X-H torsion
[ 10763 10752 10751 10750 ] final  -58.03 input  -60.55 | X-H torsion
[ 11005 11000 10999 10996 ] final   58.98 input  -57.11 | X-H torsion

> <Gold.Protein.ActiveResidues>
 VAL166  LYS551  ARG553  GLY616  TRP617  ASP618  TYR619  PRO620  LYS621  CYS622 
 ASP623  PHE694  ASN695  SER759  ASP760  ASP761  ALA762  ILE779  LEU786  VAL792 
 PHE793  MET794  SER795  GLU796  ALA797  LYS798  CYS799  TRP800  GLU811  SER814 

> <Gold.Protein.RotatedAtoms>
  152.1380  133.4447  159.4752 H   0  0  0  0  0  0  0  0  0  0  0  0  # atno 6907 bound_to 6896
  150.6883  134.2340  159.4455 H   0  0  0  0  0  0  0  0  0  0  0  0  # atno 6908 bound_to 6896
  152.0229  134.9812  160.0621 H   0  0  0  0  0  0  0  0  0  0  0  0  # atno 6909 bound_to 6896
  145.7434  140.8943  143.0518 H   0  0  0  0  0  0  0  0  0  0  0  0  # atno 7974 bound_to 7965
  156.0223  140.1264  157.0344 H   0  0  0  0  0  0  0  0  0  0  0  0  # atno 8008 bound_to 7997
  154.4316  140.1066  156.6051 H   0  0  0  0  0  0  0  0  0  0  0  0  # atno 8009 bound_to 7997
  155.5926  140.3469  155.4573 H   0  0  0  0  0  0  0  0  0  0  0  0  # atno 8010 bound_to 7997
  140.7177  143.3519  151.2138 H   0  0  0  0  0  0  0  0  0  0  0  0  # atno 10167 bound_to 10162
  156.1542  130.6556  150.9958 H   0  0  0  0  0  0  0  0  0  0  0  0  # atno 10718 bound_to 10713
  154.2317  135.6359  153.5177 H   0  0  0  0  0  0  0  0  0  0  0  0  # atno 10763 bound_to 10752
  152.9948  135.5521  154.6006 H   0  0  0  0  0  0  0  0  0  0  0  0  # atno 10764 bound_to 10752
  154.5490  135.2900  155.1000 H   0  0  0  0  0  0  0  0  0  0  0  0  # atno 10765 bound_to 10752
  140.0337  134.5974  155.9472 H   0  0  0  0  0  0  0  0  0  0  0  0  # atno 11005 bound_to 11000
  144.6865  139.9492  143.7477 LP  0  0  0  0  0  0  0  0  0  0  0  0  # atno 17320 bound_to 7965
  146.0426  139.3435  143.0688 LP  0  0  0  0  0  0  0  0  0  0  0  0  # atno 17321 bound_to 7965
  139.7052  143.9468  152.2923 LP  0  0  0  0  0  0  0  0  0  0  0  0  # atno 17342 bound_to 10162
  139.9174  144.6820  150.8498 LP  0  0  0  0  0  0  0  0  0  0  0  0  # atno 17343 bound_to 10162
  157.6682  131.0867  150.7678 LP  0  0  0  0  0  0  0  0  0  0  0  0  # atno 17370 bound_to 10713
  156.7744  130.4839  149.5412 LP  0  0  0  0  0  0  0  0  0  0  0  0  # atno 17371 bound_to 10713
  141.1845  133.6553  156.5161 LP  0  0  0  0  0  0  0  0  0  0  0  0  # atno 17394 bound_to 11000
  140.4183  134.7210  157.4875 LP  0  0  0  0  0  0  0  0  0  0  0  0  # atno 17395 bound_to 11000

$$$$
