AV-unprocessed.smi:609|AV-procd|sdf|3046|dock10
  -GOLD-   2262023563D 1   1.00000     0.00000
 Structure written by MMmdl.
 43 45  0  0  0  0  0  0  0  0  2 V2000
  152.4023  143.6589  160.9086 C   0  0  0  0  0  0  0  0  0  0  0  0
  152.1030  142.7700  159.7144 C   0  0  0  0  0  0  0  0  0  0  0  0
  152.1381  141.3667  159.8769 C   0  0  0  0  0  0  0  0  0  0  0  0
  151.8643  140.5047  158.7926 C   0  0  0  0  0  0  0  0  0  0  0  0
  151.8472  139.1221  158.7247 N   0  0  0  0  0  0  0  0  0  0  0  0
  151.5314  138.9194  157.4488 C   0  0  0  0  0  0  0  0  0  0  0  0
  151.3456  140.0092  156.6797 N   0  0  0  0  0  0  0  0  0  0  0  0
  151.0087  140.0337  155.2677 C   0  0  0  0  0  0  0  0  0  0  0  0
  149.6472  140.7020  154.9905 C   0  0  1  0  0  0  0  0  0  0  0  0
  149.6200  141.0774  153.6286 O   0  0  0  0  0  0  0  0  0  0  0  0
  148.4396  139.7941  155.2924 C   0  0  0  0  0  0  0  0  0  0  0  0
  146.8546  140.6626  155.1292 S   0  0  0  0  0  0  0  0  0  0  0  0
  146.6137  141.4854  156.6742 C   0  0  0  0  0  0  0  0  0  0  0  0
  147.2822  142.5619  157.0997 N   0  3  0  0  0  0  0  0  0  0  0  0
  146.8311  142.9288  158.3393 C   0  0  0  0  0  0  0  0  0  0  0  0
  145.8466  142.0340  158.6776 C   0  0  0  0  0  0  0  0  0  0  0  0
  145.7342  141.1551  157.6301 N   0  0  0  0  0  0  0  0  0  0  0  0
  144.8152  140.0210  157.5237 C   0  0  0  0  0  0  0  0  0  0  0  0
  151.5513  141.0899  157.5312 C   0  0  0  0  0  0  0  0  0  0  0  0
  151.5127  142.4848  157.3568 C   0  0  0  0  0  0  0  0  0  0  0  0
  151.7900  143.3315  158.4504 C   0  0  0  0  0  0  0  0  0  0  0  0
  151.7453  144.8361  158.2526 C   0  0  0  0  0  0  0  0  0  0  0  0
  152.5949  143.0695  161.8054 H   0  0  0  0  0  0  0  0  0  0  0  0
  151.5580  144.3165  161.1172 H   0  0  0  0  0  0  0  0  0  0  0  0
  153.2818  144.2738  160.7166 H   0  0  0  0  0  0  0  0  0  0  0  0
  152.3765  140.9387  160.8396 H   0  0  0  0  0  0  0  0  0  0  0  0
  151.4340  137.9210  157.0479 H   0  0  0  0  0  0  0  0  0  0  0  0
  151.8029  140.5597  154.7357 H   0  0  0  0  0  0  0  0  0  0  0  0
  151.0126  139.0085  154.8948 H   0  0  0  0  0  0  0  0  0  0  0  0
  149.5698  141.6101  155.5899 H   0  0  0  0  0  0  0  0  0  0  0  0
  149.3017  140.3460  153.1215 H   0  0  0  0  0  0  0  0  0  0  0  0
  148.4398  138.9266  154.6312 H   0  0  0  0  0  0  0  0  0  0  0  0
  148.4953  139.4182  156.3137 H   0  0  0  0  0  0  0  0  0  0  0  0
  147.2336  143.7766  158.8742 H   0  0  0  0  0  0  0  0  0  0  0  0
  145.2335  141.9610  159.5643 H   0  0  0  0  0  0  0  0  0  0  0  0
  144.1932  139.9691  158.4176 H   0  0  0  0  0  0  0  0  0  0  0  0
  145.3894  139.0990  157.4282 H   0  0  0  0  0  0  0  0  0  0  0  0
  144.1792  140.1533  156.6480 H   0  0  0  0  0  0  0  0  0  0  0  0
  151.2720  142.8990  156.3890 H   0  0  0  0  0  0  0  0  0  0  0  0
  151.5004  145.0954  157.2221 H   0  0  0  0  0  0  0  0  0  0  0  0
  152.7111  145.2824  158.4896 H   0  0  0  0  0  0  0  0  0  0  0  0
  150.9889  145.2833  158.8980 H   0  0  0  0  0  0  0  0  0  0  0  0
  148.0117  143.0333  156.5804 H   0  0  0  0  0  0  0  0  0  0  0  0
  1  2  1  0  0  0  0
  1 23  1  0  0  0  0
  1 24  1  0  0  0  0
  1 25  1  0  0  0  0
  2 21  1  0  0  0  0
  2  3  2  0  0  0  0
  3  4  1  0  0  0  0
  3 26  1  0  0  0  0
  4 19  2  0  0  0  0
  4  5  1  0  0  0  0
  5  6  2  0  0  0  0
  6  7  1  0  0  0  0
  6 27  1  0  0  0  0
  7  8  1  0  0  0  0
  7 19  1  0  0  0  0
  8  9  1  0  0  0  0
  8 28  1  0  0  0  0
  8 29  1  0  0  0  0
  9 10  1  0  0  0  0
  9 11  1  0  0  0  0
  9 30  1  0  0  0  0
 10 31  1  0  0  0  0
 11 12  1  0  0  0  0
 11 32  1  0  0  0  0
 11 33  1  0  0  0  0
 12 13  1  0  0  0  0
 13 17  1  0  0  0  0
 13 14  2  0  0  0  0
 14 15  1  0  0  0  0
 14 43  1  0  0  0  0
 15 16  2  0  0  0  0
 15 34  1  0  0  0  0
 16 17  1  0  0  0  0
 16 35  1  0  0  0  0
 17 18  1  0  0  0  0
 18 36  1  0  0  0  0
 18 37  1  0  0  0  0
 18 38  1  0  0  0  0
 19 20  1  0  0  0  0
 20 21  2  0  0  0  0
 20 39  1  0  0  0  0
 21 22  1  0  0  0  0
 22 40  1  0  0  0  0
 22 41  1  0  0  0  0
 22 42  1  0  0  0  0
M  CHG  1  14   1
M  END
> <s_m_source_file>
AV-unprocessed.smi

> <i_m_source_file_index>
609

> <i_lp_mmshare_version>
43012

> <i_f3d_flags>
0

> <s_epik_input>
W0NIM11jKFtjSF0xKWMoW0NIM10pW2NIXWMoYzEyKW4oW2NIXW4yKVtDSDJdW0NASF0oW09IXSlbQ0gyXVNjM25bY0hdW2NIXW4zW0NIM10=

> <s_epik_cmdline>
J2VwaWtfcHl0aG9uJywgJy1waCcsICc3LjAnLCAnLXRuJywgJzgnLCAnLW1hJywgJzIwMCcsICctbWV0YWxfYmluZGluZycsICctaW1hZScsICc8aW5maWxlLm1hZT4nLCAnLW9tYWUnLCAnPG91dGZpbGUubWFlPic=

> <r_lp_tautomer_probability>
1

> <r_epik_Ionization_Penalty>
0.215713

> <r_epik_Ionization_Penalty_Charging>
0

> <r_epik_Ionization_Penalty_Neutral>
0.215713

> <r_epik_State_Penalty>
0.19579

> <r_epik_Charging_Adjusted_Penalty>
0.19579

> <i_epik_Tot_Q>
1

> <i_epik_Tot_abs_Q>
1

> <r_epik_Metal_State_Penalty>
0.429751

> <b_epik_Metal_Only>
0

> <s_lp_Force_Field>
OPLS_2005

> <r_lp_Energy>
9.84341

> <b_lp_Chiralities_Consistent>
1

> <s_lp_Variant>
AV-unprocessed.smi:609-2

> <Gold.Version>
5.8.1

> <Gold.Id.Protein>
6NUR|6NUR_protein|mol2

> <Gold.PLP.Fitness>
47.4679

> <Gold.PLP.PLP>
-37.3689

> <Gold.PLP.part.hbond>
-4.0950

> <Gold.PLP.part.metal>
0.0000

> <Gold.PLP.part.buried>
-2.0988

> <Gold.PLP.part.nonpolar>
-29.6870

> <Gold.PLP.part.repulsive>
0.0134

> <Gold.PLP.ligand.clash>
0.0000

> <Gold.PLP.ligand.torsion>
0.4585

> <Gold.PLP.Chemscore.Hbond>
3.6648

> <Gold.PLP.Chemscore.CHOScore>
0.0000

> <Gold.PLP.Chemscore.Metal>
0.0000

> <Gold.Chemscore.Hbonds>
donor molecule, donor type, donor heavy atom, donor atom, acceptor molecule, acceptor atom, score
      L1  H    10    31       P1  7957  0.51
      L1  H    14    43       P1  8028  1.69
      P1  H  7989  7998       L1    10  0.16
      P1  H  8011  8017       L1    10  0.98

> <Gold.PLP.Chemscore.Internal.Correction>
0.0215

> <Gold.Rescore>
     Score         DG    S(hbond)    S(metal)    S(lipo)     H(rot)  DE(clash)    DE(int)     intcor
     15.01     -15.98       1.62        0.00      98.60       2.52       0.55       0.42       ----

> <Gold.Chemscore.Fitness>
15.0144

> <Gold.Chemscore.DG>
-15.9823

> <Gold.Chemscore.ZeroCoef>
-5.4800

> <Gold.Chemscore.Hbond>
1.6184

> <Gold.Chemscore.Metal>
0.0000

> <Gold.Chemscore.Lipo>
98.5976

> <Gold.Chemscore.Internal_Hbond>
0.0000

> <Gold.Chemscore.DEClash>
0.5509

> <Gold.Chemscore.DEInternal>
0.4170

> <Gold.Chemscore.Rot>
2.5153

> <Gold.Chemscore.Internal.Correction>
   9.000000E+99

> <Gold.Chemscore.Hbonds>
donor molecule, donor type, donor heavy atom, donor atom, acceptor molecule, acceptor atom, score
      L1  H    10    31       P1  7957  0.50
      L1  H    14    43       P1  8028  0.20
      P1  H  8011  8017       L1    10  0.32

> <Gold.Chemscore.Hbond.Weighted>
-5.4055

> <Gold.Chemscore.Metal.Weighted>
-0.0000

> <Gold.Chemscore.Lipo.Weighted>
-11.5359

> <Gold.Chemscore.Internal_Hbond.Weighted>
0.0000

> <Gold.Chemscore.DEClash.Weighted>
0.5509

> <Gold.Chemscore.DEInternal.Weighted>
0.4170

> <Gold.Chemscore.Rot.Weighted>
6.4391

> <Gold.Chemscore.Internal.Correction.Weighted>
   9.000000E+99

> <Gold.Protein.RotatedTorsions>
[ 6907 6896 6895 6894 ] final -143.67 input  -60.11 | X-H torsion
[ 7974 7965 7964 7962 ] final  155.35 input  175.53 | X-H torsion
[ 8008 7997 7996 7995 ] final  -85.67 input   59.86 | X-H torsion
[ 10167 10162 10161 10158 ] final -144.96 input  -65.29 | X-H torsion
[ 10718 10713 10712 10709 ] final -177.41 input   66.30 | X-H torsion
[ 10763 10752 10751 10750 ] final -147.21 input  -60.55 | X-H torsion
[ 11005 11000 10999 10996 ] final  -75.01 input  -57.11 | X-H torsion

> <Gold.Protein.ActiveResidues>
 VAL166  LYS551  ARG553  GLY616  TRP617  ASP618  TYR619  PRO620  LYS621  CYS622 
 ASP623  PHE694  ASN695  SER759  ASP760  ASP761  ALA762  ILE779  LEU786  VAL792 
 PHE793  MET794  SER795  GLU796  ALA797  LYS798  CYS799  TRP800  GLU811  SER814 

> <Gold.Protein.RotatedAtoms>
  151.1036  133.5225  159.2608 H   0  0  0  0  0  0  0  0  0  0  0  0  # atno 6907 bound_to 6896
  151.2046  135.0456  159.8896 H   0  0  0  0  0  0  0  0  0  0  0  0  # atno 6908 bound_to 6896
  152.5445  134.0860  159.8310 H   0  0  0  0  0  0  0  0  0  0  0  0  # atno 6909 bound_to 6896
  144.8031  139.7056  143.6173 H   0  0  0  0  0  0  0  0  0  0  0  0  # atno 7974 bound_to 7965
  154.6433  140.0588  156.9871 H   0  0  0  0  0  0  0  0  0  0  0  0  # atno 8008 bound_to 7997
  155.1483  140.3272  155.4418 H   0  0  0  0  0  0  0  0  0  0  0  0  # atno 8009 bound_to 7997
  156.2541  140.1952  156.6596 H   0  0  0  0  0  0  0  0  0  0  0  0  # atno 8010 bound_to 7997
  139.7850  143.8046  152.2643 H   0  0  0  0  0  0  0  0  0  0  0  0  # atno 10167 bound_to 10162
  156.8291  130.9647  151.3107 H   0  0  0  0  0  0  0  0  0  0  0  0  # atno 10718 bound_to 10713
  154.8297  135.3366  154.6783 H   0  0  0  0  0  0  0  0  0  0  0  0  # atno 10763 bound_to 10752
  153.7404  135.6946  153.4973 H   0  0  0  0  0  0  0  0  0  0  0  0  # atno 10764 bound_to 10752
  153.2248  135.4436  155.0481 H   0  0  0  0  0  0  0  0  0  0  0  0  # atno 10765 bound_to 10752
  141.1641  133.6931  156.7451 H   0  0  0  0  0  0  0  0  0  0  0  0  # atno 11005 bound_to 11000
  146.2316  139.5825  142.9551 LP  0  0  0  0  0  0  0  0  0  0  0  0  # atno 17320 bound_to 7965
  145.5505  141.0413  143.2281 LP  0  0  0  0  0  0  0  0  0  0  0  0  # atno 17321 bound_to 7965
  139.8121  144.7331  150.9684 LP  0  0  0  0  0  0  0  0  0  0  0  0  # atno 17342 bound_to 10162
  140.7819  143.4241  151.0796 LP  0  0  0  0  0  0  0  0  0  0  0  0  # atno 17343 bound_to 10162
  157.6416  130.8810  149.9460 LP  0  0  0  0  0  0  0  0  0  0  0  0  # atno 17370 bound_to 10713
  156.0945  130.3660  150.0333 LP  0  0  0  0  0  0  0  0  0  0  0  0  # atno 17371 bound_to 10713
  140.2645  134.8440  157.3790 LP  0  0  0  0  0  0  0  0  0  0  0  0  # atno 17394 bound_to 11000
  140.1579  134.4766  155.7915 LP  0  0  0  0  0  0  0  0  0  0  0  0  # atno 17395 bound_to 11000

$$$$
