AV-unprocessed.smi:1258|AV-procd|sdf|5290|dock10
  -GOLD-   22720 4413D 1   1.00000     0.00000
 Structure written by MMmdl.
 33 34  0  0  0  0  0  0  0  0  1 V2000
  153.2802  142.8094  163.0942 C   0  0  0  0  0  0  0  0  0  0  0  0
  152.6823  142.6770  161.6862 C   0  0  1  0  0  0  0  0  0  0  0  0
  152.1528  144.0297  161.1728 C   0  0  0  0  0  0  0  0  0  0  0  0
  151.5599  143.9059  159.7609 C   0  0  0  0  0  0  0  0  0  0  0  0
  152.5847  143.3189  158.7764 C   0  0  0  0  0  0  0  0  0  0  0  0
  153.1464  141.9647  159.2611 C   0  0  2  0  0  0  0  0  0  0  0  0
  152.1391  140.9067  159.1952 N   0  0  0  0  0  0  0  0  0  0  0  0
  152.1875  139.8323  158.3925 C   0  0  0  0  0  0  0  0  0  0  0  0
  153.1051  139.6225  157.5982 O   0  0  0  0  0  0  0  0  0  0  0  0
  151.0146  138.8534  158.4988 C   0  0  0  0  0  0  0  0  0  0  0  0
  151.2639  137.6318  157.7554 N   0  0  0  0  0  0  0  0  0  0  0  0
  151.6053  137.4349  156.4802 C   0  0  0  0  0  0  0  0  0  0  0  0
  151.7435  136.1469  156.2045 N   0  0  0  0  0  0  0  0  0  0  0  0
  151.4624  135.5342  157.4144 N   0  0  0  0  0  0  0  0  0  0  0  0
  151.1775  136.4103  158.3387 N   0  0  0  0  0  0  0  0  0  0  0  0
  153.7045  142.0822  160.6940 C   0  0  0  0  0  0  0  0  0  0  0  0
  154.1307  143.4918  163.1017 H   0  0  0  0  0  0  0  0  0  0  0  0
  153.6243  141.8445  163.4674 H   0  0  0  0  0  0  0  0  0  0  0  0
  152.5417  143.1907  163.8000 H   0  0  0  0  0  0  0  0  0  0  0  0
  151.8373  141.9907  161.7563 H   0  0  0  0  0  0  0  0  0  0  0  0
  151.3939  144.4168  161.8538 H   0  0  0  0  0  0  0  0  0  0  0  0
  152.9605  144.7627  161.1631 H   0  0  0  0  0  0  0  0  0  0  0  0
  150.6708  143.2748  159.7895 H   0  0  0  0  0  0  0  0  0  0  0  0
  151.2303  144.8847  159.4110 H   0  0  0  0  0  0  0  0  0  0  0  0
  152.1380  143.2202  157.7866 H   0  0  0  0  0  0  0  0  0  0  0  0
  153.4092  144.0238  158.6628 H   0  0  0  0  0  0  0  0  0  0  0  0
  153.9721  141.6781  158.6071 H   0  0  0  0  0  0  0  0  0  0  0  0
  151.3460  140.9991  159.8134 H   0  0  0  0  0  0  0  0  0  0  0  0
  150.8151  138.5992  159.5414 H   0  0  0  0  0  0  0  0  0  0  0  0
  150.1153  139.3267  158.1036 H   0  0  0  0  0  0  0  0  0  0  0  0
  151.7536  138.2280  155.7622 H   0  0  0  0  0  0  0  0  0  0  0  0
  154.5926  142.7157  160.6740 H   0  0  0  0  0  0  0  0  0  0  0  0
  154.0412  141.1048  161.0423 H   0  0  0  0  0  0  0  0  0  0  0  0
  1  2  1  0  0  0  0
  1 17  1  0  0  0  0
  1 18  1  0  0  0  0
  1 19  1  0  0  0  0
  2 16  1  0  0  0  0
  2  3  1  0  0  0  0
  2 20  1  0  0  0  0
  3  4  1  0  0  0  0
  3 21  1  0  0  0  0
  3 22  1  0  0  0  0
  4  5  1  0  0  0  0
  4 23  1  0  0  0  0
  4 24  1  0  0  0  0
  5  6  1  0  0  0  0
  5 25  1  0  0  0  0
  5 26  1  0  0  0  0
  6  7  1  0  0  0  0
  6 16  1  0  0  0  0
  6 27  1  0  0  0  0
  7  8  1  0  0  0  0
  7 28  1  0  0  0  0
  8  9  2  0  0  0  0
  8 10  1  0  0  0  0
 10 11  1  0  0  0  0
 10 29  1  0  0  0  0
 10 30  1  0  0  0  0
 11 15  1  0  0  0  0
 11 12  1  0  0  0  0
 12 13  2  0  0  0  0
 12 31  1  0  0  0  0
 13 14  1  0  0  0  0
 14 15  2  0  0  0  0
 16 32  1  0  0  0  0
 16 33  1  0  0  0  0
M  END
> <s_m_source_file>
AV-unprocessed.smi

> <i_m_source_file_index>
1258

> <i_lp_mmshare_version>
43012

> <i_f3d_flags>
0

> <s_epik_input>
W0NIM11bQ0BASF0xW0NIMl1bQ0gyXVtDSDJdW0NASF0oW0NIMl0xKVtOSF1DKD1PKVtDSDJdbjJbY0hdbm5uMg==

> <s_epik_cmdline>
J2VwaWtfcHl0aG9uJywgJy1waCcsICc3LjAnLCAnLXRuJywgJzgnLCAnLW1hJywgJzIwMCcsICctbWV0YWxfYmluZGluZycsICctaW1hZScsICc8aW5maWxlLm1hZT4nLCAnLW9tYWUnLCAnPG91dGZpbGUubWFlPic=

> <r_lp_tautomer_probability>
1

> <r_epik_Ionization_Penalty>
5.03816e-07

> <r_epik_Ionization_Penalty_Charging>
0

> <r_epik_Ionization_Penalty_Neutral>
5.03816e-07

> <r_epik_State_Penalty>
-0

> <r_epik_Charging_Adjusted_Penalty>
0

> <i_epik_Tot_Q>
0

> <i_epik_Tot_abs_Q>
0

> <r_epik_Metal_State_Penalty>
-0

> <b_epik_Metal_Only>
0

> <s_lp_Force_Field>
OPLS_2005

> <r_lp_Energy>
10.3289

> <b_lp_Chiralities_Consistent>
1

> <s_lp_Variant>
AV-unprocessed.smi:1258-4

> <Gold.Version>
5.8.1

> <Gold.Id.Protein>
6NUR|6NUR_protein|mol2

> <Gold.PLP.Fitness>
42.9437

> <Gold.PLP.PLP>
-35.6654

> <Gold.PLP.part.hbond>
-4.0000

> <Gold.PLP.part.metal>
0.0000

> <Gold.PLP.part.buried>
-4.6872

> <Gold.PLP.part.nonpolar>
-26.9314

> <Gold.PLP.part.repulsive>
0.1472

> <Gold.PLP.ligand.clash>
0.0000

> <Gold.PLP.ligand.torsion>
0.1330

> <Gold.PLP.Chemscore.Hbond>
2.5120

> <Gold.PLP.Chemscore.CHOScore>
0.0000

> <Gold.PLP.Chemscore.Metal>
0.0000

> <Gold.Chemscore.Hbonds>
donor molecule, donor type, donor heavy atom, donor atom, acceptor molecule, acceptor atom, score
      P1  H  6896  6908       L1    15  0.51
      P1  H  7997  8010       L1     9  1.00
      P1  H 10752 10763       L1    13  1.00

> <Gold.PLP.Chemscore.Internal.Correction>
0.0083

> <Gold.Rescore>
     Score         DG    S(hbond)    S(metal)    S(lipo)     H(rot)  DE(clash)    DE(int)     intcor
     16.61     -17.97       2.31        0.00      82.80       1.92       0.00       1.36       ----

> <Gold.Chemscore.Fitness>
16.6116

> <Gold.Chemscore.DG>
-17.9667

> <Gold.Chemscore.ZeroCoef>
-5.4800

> <Gold.Chemscore.Hbond>
2.3074

> <Gold.Chemscore.Metal>
0.0000

> <Gold.Chemscore.Lipo>
82.7968

> <Gold.Chemscore.Internal_Hbond>
0.0000

> <Gold.Chemscore.DEClash>
0.0000

> <Gold.Chemscore.DEInternal>
1.3552

> <Gold.Chemscore.Rot>
1.9169

> <Gold.Chemscore.Internal.Correction>
   9.000000E+99

> <Gold.Chemscore.Hbonds>
donor molecule, donor type, donor heavy atom, donor atom, acceptor molecule, acceptor atom, score
      P1  H  6896  6908       L1    15  0.07
      P1  H  7997  8010       L1     9  0.99
      P1  H 10752 10763       L1    13  0.95

> <Gold.Chemscore.Hbond.Weighted>
-7.7068

> <Gold.Chemscore.Metal.Weighted>
-0.0000

> <Gold.Chemscore.Lipo.Weighted>
-9.6872

> <Gold.Chemscore.Internal_Hbond.Weighted>
0.0000

> <Gold.Chemscore.DEClash.Weighted>
0.0000

> <Gold.Chemscore.DEInternal.Weighted>
1.3552

> <Gold.Chemscore.Rot.Weighted>
4.9073

> <Gold.Chemscore.Internal.Correction.Weighted>
   9.000000E+99

> <Gold.Protein.RotatedTorsions>
[ 6907 6896 6895 6894 ] final -137.57 input  -60.11 | X-H torsion
[ 7974 7965 7964 7962 ] final  -57.52 input  175.53 | X-H torsion
[ 8008 7997 7996 7995 ] final   47.98 input   59.86 | X-H torsion
[ 10167 10162 10161 10158 ] final  -32.33 input  -65.29 | X-H torsion
[ 10718 10713 10712 10709 ] final   66.01 input   66.30 | X-H torsion
[ 10763 10752 10751 10750 ] final   69.62 input  -60.55 | X-H torsion
[ 11005 11000 10999 10996 ] final -142.85 input  -57.11 | X-H torsion

> <Gold.Protein.ActiveResidues>
 VAL166  LYS551  ARG553  GLY616  TRP617  ASP618  TYR619  PRO620  LYS621  CYS622 
 ASP623  PHE694  ASN695  SER759  ASP760  ASP761  ALA762  ILE779  LEU786  VAL792 
 PHE793  MET794  SER795  GLU796  ALA797  LYS798  CYS799  TRP800  GLU811  SER814 

> <Gold.Protein.RotatedAtoms>
  151.0241  133.5850  159.2667 H   0  0  0  0  0  0  0  0  0  0  0  0  # atno 6907 bound_to 6896
  151.2956  135.0753  159.9230 H   0  0  0  0  0  0  0  0  0  0  0  0  # atno 6908 bound_to 6896
  152.5330  133.9931  159.7914 H   0  0  0  0  0  0  0  0  0  0  0  0  # atno 6909 bound_to 6896
  145.8501  140.8358  142.9990 H   0  0  0  0  0  0  0  0  0  0  0  0  # atno 7974 bound_to 7965
  155.3780  140.3427  155.4245 H   0  0  0  0  0  0  0  0  0  0  0  0  # atno 8008 bound_to 7997
  156.1626  140.1606  156.8619 H   0  0  0  0  0  0  0  0  0  0  0  0  # atno 8009 bound_to 7997
  154.5154  140.0779  156.8053 H   0  0  0  0  0  0  0  0  0  0  0  0  # atno 8010 bound_to 7997
  140.7223  143.3703  151.1792 H   0  0  0  0  0  0  0  0  0  0  0  0  # atno 10167 bound_to 10162
  157.6142  130.9244  150.0052 H   0  0  0  0  0  0  0  0  0  0  0  0  # atno 10718 bound_to 10713
  153.0297  135.5204  154.7316 H   0  0  0  0  0  0  0  0  0  0  0  0  # atno 10763 bound_to 10752
  154.6342  135.2904  155.0183 H   0  0  0  0  0  0  0  0  0  0  0  0  # atno 10764 bound_to 10752
  154.1124  135.6620  153.4940 H   0  0  0  0  0  0  0  0  0  0  0  0  # atno 10765 bound_to 10752
  140.8184  134.2660  157.4911 H   0  0  0  0  0  0  0  0  0  0  0  0  # atno 11005 bound_to 11000
  144.6729  140.0940  143.7464 LP  0  0  0  0  0  0  0  0  0  0  0  0  # atno 17320 bound_to 7965
  145.9368  139.2642  143.1292 LP  0  0  0  0  0  0  0  0  0  0  0  0  # atno 17321 bound_to 7965
  139.7272  143.9129  152.3007 LP  0  0  0  0  0  0  0  0  0  0  0  0  # atno 17342 bound_to 10162
  139.8906  144.6967  150.8775 LP  0  0  0  0  0  0  0  0  0  0  0  0  # atno 17343 bound_to 10162
  156.1257  130.3644  149.9814 LP  0  0  0  0  0  0  0  0  0  0  0  0  # atno 17370 bound_to 10713
  156.7885  130.9247  151.3646 LP  0  0  0  0  0  0  0  0  0  0  0  0  # atno 17371 bound_to 10713
  139.8710  134.9522  156.4108 LP  0  0  0  0  0  0  0  0  0  0  0  0  # atno 17394 bound_to 11000
  140.9124  133.7702  155.9808 LP  0  0  0  0  0  0  0  0  0  0  0  0  # atno 17395 bound_to 11000

$$$$
