AV-unprocessed.smi:1753|AV-procd|sdf|7063|dock8
  -GOLD-   22720 8283D 1   1.00000     0.00000
 Structure written by MMmdl.
 37 38  0  0  0  0  0  0  0  0  1 V2000
  143.4625  132.3990  149.6260 C   0  0  0  0  0  0  0  0  0  0  0  0
  144.5347  133.1306  150.3783 C   0  0  0  0  0  0  0  0  0  0  0  0
  144.7238  134.5387  150.4894 C   0  0  0  0  0  0  0  0  0  0  0  0
  145.8347  134.6328  151.2828 C   0  0  0  0  0  0  0  0  0  0  0  0
  146.4766  135.7485  151.7211 N   0  0  0  0  0  0  0  0  0  0  0  0
  145.9529  136.8741  152.2377 C   0  0  0  0  0  0  0  0  0  0  0  0
  144.7540  137.0859  152.4205 O   0  0  0  0  0  0  0  0  0  0  0  0
  146.9148  137.7574  152.5422 N   0  0  0  0  0  0  0  0  0  0  0  0
  146.7007  139.0814  153.1192 C   0  0  0  0  0  0  0  0  0  0  0  0
  148.0283  139.7676  153.4939 C   0  0  1  0  0  0  0  0  0  0  0  0
  147.8165  141.1985  154.0252 C   0  0  0  0  0  0  0  0  0  0  0  0
  149.1395  141.7055  154.6075 C   0  0  0  0  0  0  0  0  0  0  0  0
  149.9488  140.2354  155.3393 S   0  0  0  0  0  0  0  0  0  0  0  0
  151.3081  140.1148  154.7911 O   0  0  0  0  0  0  0  0  0  0  0  0
  149.7125  140.2171  156.7907 O   0  0  0  0  0  0  0  0  0  0  0  0
  148.8532  139.0004  154.5423 C   0  0  0  0  0  0  0  0  0  0  0  0
  146.2589  133.3611  151.6058 N   0  0  0  0  0  0  0  0  0  0  0  0
  147.3808  132.9243  152.4145 C   0  0  0  0  0  0  0  0  0  0  0  0
  145.4497  132.4369  151.0454 N   0  0  0  0  0  0  0  0  0  0  0  0
  142.8910  133.0791  148.9940 H   0  0  0  0  0  0  0  0  0  0  0  0
  142.7645  131.9165  150.3103 H   0  0  0  0  0  0  0  0  0  0  0  0
  143.8875  131.6280  148.9827 H   0  0  0  0  0  0  0  0  0  0  0  0
  144.1316  135.3281  150.0520 H   0  0  0  0  0  0  0  0  0  0  0  0
  147.4824  135.7227  151.6427 H   0  0  0  0  0  0  0  0  0  0  0  0
  147.8724  137.4953  152.3585 H   0  0  0  0  0  0  0  0  0  0  0  0
  146.1774  139.6824  152.3750 H   0  0  0  0  0  0  0  0  0  0  0  0
  146.0385  139.0294  153.9853 H   0  0  0  0  0  0  0  0  0  0  0  0
  148.6391  139.8491  152.5934 H   0  0  0  0  0  0  0  0  0  0  0  0
  147.4421  141.8673  153.2496 H   0  0  0  0  0  0  0  0  0  0  0  0
  147.0675  141.1795  154.8182 H   0  0  0  0  0  0  0  0  0  0  0  0
  149.7872  142.0903  153.8194 H   0  0  0  0  0  0  0  0  0  0  0  0
  149.0073  142.4809  155.3621 H   0  0  0  0  0  0  0  0  0  0  0  0
  148.2102  138.5800  155.3164 H   0  0  0  0  0  0  0  0  0  0  0  0
  149.4472  138.1943  154.1114 H   0  0  0  0  0  0  0  0  0  0  0  0
  147.9802  133.7759  152.7360 H   0  0  0  0  0  0  0  0  0  0  0  0
  148.0123  132.2505  151.8344 H   0  0  0  0  0  0  0  0  0  0  0  0
  147.0140  132.3983  153.2963 H   0  0  0  0  0  0  0  0  0  0  0  0
  1  2  1  0  0  0  0
  1 20  1  0  0  0  0
  1 21  1  0  0  0  0
  1 22  1  0  0  0  0
  2 19  2  0  0  0  0
  2  3  1  0  0  0  0
  3  4  2  0  0  0  0
  3 23  1  0  0  0  0
  4  5  1  0  0  0  0
  4 17  1  0  0  0  0
  5  6  1  0  0  0  0
  5 24  1  0  0  0  0
  6  7  2  0  0  0  0
  6  8  1  0  0  0  0
  8  9  1  0  0  0  0
  8 25  1  0  0  0  0
  9 10  1  0  0  0  0
  9 26  1  0  0  0  0
  9 27  1  0  0  0  0
 10 16  1  0  0  0  0
 10 11  1  0  0  0  0
 10 28  1  0  0  0  0
 11 12  1  0  0  0  0
 11 29  1  0  0  0  0
 11 30  1  0  0  0  0
 12 13  1  0  0  0  0
 12 31  1  0  0  0  0
 12 32  1  0  0  0  0
 13 14  2  0  0  0  0
 13 15  2  0  0  0  0
 13 16  1  0  0  0  0
 16 33  1  0  0  0  0
 16 34  1  0  0  0  0
 17 18  1  0  0  0  0
 17 19  1  0  0  0  0
 18 35  1  0  0  0  0
 18 36  1  0  0  0  0
 18 37  1  0  0  0  0
M  END
> <s_m_source_file>
AV-unprocessed.smi

> <i_m_source_file_index>
1753

> <i_lp_mmshare_version>
43012

> <i_f3d_flags>
0

> <s_epik_input>
W0NIM11jMVtjSF1jKG4objEpW0NIM10pW05IXUMoPU8pW05IXVtDSDJdW0NAQEhdKFtDSDJdMilbQ0gyXVtDSDJdUzIoPU8pPU8=

> <s_epik_cmdline>
J2VwaWtfcHl0aG9uJywgJy1waCcsICc3LjAnLCAnLXRuJywgJzgnLCAnLW1hJywgJzIwMCcsICctbWV0YWxfYmluZGluZycsICctaW1hZScsICc8aW5maWxlLm1hZT4nLCAnLW9tYWUnLCAnPG91dGZpbGUubWFlPic=

> <r_lp_tautomer_probability>
1

> <r_epik_Ionization_Penalty>
9.06651e-05

> <r_epik_Ionization_Penalty_Charging>
0

> <r_epik_Ionization_Penalty_Neutral>
9.06651e-05

> <r_epik_State_Penalty>
-0

> <r_epik_Charging_Adjusted_Penalty>
0

> <i_epik_Tot_Q>
0

> <i_epik_Tot_abs_Q>
0

> <r_epik_Metal_State_Penalty>
-0

> <b_epik_Metal_Only>
0

> <s_lp_Force_Field>
OPLS_2005

> <r_lp_Energy>
6.63642

> <b_lp_Chiralities_Consistent>
1

> <s_lp_Variant>
AV-unprocessed.smi:1753-2

> <Gold.Version>
5.8.1

> <Gold.Id.Protein>
6NUR|6NUR_protein|mol2

> <Gold.PLP.Fitness>
40.1563

> <Gold.PLP.PLP>
-32.1226

> <Gold.PLP.part.hbond>
-2.8153

> <Gold.PLP.part.metal>
0.0000

> <Gold.PLP.part.buried>
-0.5515

> <Gold.PLP.part.nonpolar>
-29.6578

> <Gold.PLP.part.repulsive>
0.5263

> <Gold.PLP.ligand.clash>
0.0000

> <Gold.PLP.ligand.torsion>
0.4009

> <Gold.PLP.Chemscore.Hbond>
2.9440

> <Gold.PLP.Chemscore.CHOScore>
0.0000

> <Gold.PLP.Chemscore.Metal>
0.0000

> <Gold.Chemscore.Hbonds>
donor molecule, donor type, donor heavy atom, donor atom, acceptor molecule, acceptor atom, score
      L1  H     5    24       P1  7948  1.00
      L1  H     8    25       P1  7948  0.94
      P1  H  7989  7998       L1    14  0.99

> <Gold.PLP.Chemscore.Internal.Correction>
0.0035

> <Gold.Rescore>
     Score         DG    S(hbond)    S(metal)    S(lipo)     H(rot)  DE(clash)    DE(int)     intcor
     18.76     -19.18       2.92        0.00      62.33       1.31       0.06       0.35       ----

> <Gold.Chemscore.Fitness>
18.7591

> <Gold.Chemscore.DG>
-19.1772

> <Gold.Chemscore.ZeroCoef>
-5.4800

> <Gold.Chemscore.Hbond>
2.9200

> <Gold.Chemscore.Metal>
0.0000

> <Gold.Chemscore.Lipo>
62.3325

> <Gold.Chemscore.Internal_Hbond>
0.0000

> <Gold.Chemscore.DEClash>
0.0632

> <Gold.Chemscore.DEInternal>
0.3550

> <Gold.Chemscore.Rot>
1.3080

> <Gold.Chemscore.Internal.Correction>
   9.000000E+99

> <Gold.Chemscore.Hbonds>
donor molecule, donor type, donor heavy atom, donor atom, acceptor molecule, acceptor atom, score
      L1  H     5    24       P1  7948  0.92
      L1  H     8    25       P1  7948  0.91
      P1  H  7989  7998       L1    14  0.89

> <Gold.Chemscore.Hbond.Weighted>
-9.7529

> <Gold.Chemscore.Metal.Weighted>
-0.0000

> <Gold.Chemscore.Lipo.Weighted>
-7.2929

> <Gold.Chemscore.Internal_Hbond.Weighted>
0.0000

> <Gold.Chemscore.DEClash.Weighted>
0.0632

> <Gold.Chemscore.DEInternal.Weighted>
0.3550

> <Gold.Chemscore.Rot.Weighted>
3.3485

> <Gold.Chemscore.Internal.Correction.Weighted>
   9.000000E+99

> <Gold.Protein.RotatedTorsions>
[ 6907 6896 6895 6894 ] final  -11.22 input  -60.11 | X-H torsion
[ 7974 7965 7964 7962 ] final   23.22 input  175.53 | X-H torsion
[ 8008 7997 7996 7995 ] final   45.21 input   59.86 | X-H torsion
[ 10167 10162 10161 10158 ] final  119.17 input  -65.29 | X-H torsion
[ 10718 10713 10712 10709 ] final -143.63 input   66.30 | X-H torsion
[ 10763 10752 10751 10750 ] final -129.95 input  -60.55 | X-H torsion
[ 11005 11000 10999 10996 ] final   -5.16 input  -57.11 | X-H torsion

> <Gold.Protein.ActiveResidues>
 VAL166  LYS551  ARG553  GLY616  TRP617  ASP618  TYR619  PRO620  LYS621  CYS622 
 ASP623  PHE694  ASN695  SER759  ASP760  ASP761  ALA762  ILE779  LEU786  VAL792 
 PHE793  MET794  SER795  GLU796  ALA797  LYS798  CYS799  TRP800  GLU811  SER814 

> <Gold.Protein.RotatedAtoms>
  151.3896  135.0953  159.9521 H   0  0  0  0  0  0  0  0  0  0  0  0  # atno 6907 bound_to 6896
  152.5084  133.8993  159.7443 H   0  0  0  0  0  0  0  0  0  0  0  0  # atno 6908 bound_to 6896
  150.9444  133.6564  159.2813 H   0  0  0  0  0  0  0  0  0  0  0  0  # atno 6909 bound_to 6896
  146.1994  139.7775  142.8773 H   0  0  0  0  0  0  0  0  0  0  0  0  # atno 7974 bound_to 7965
  155.3321  140.3403  155.4239 H   0  0  0  0  0  0  0  0  0  0  0  0  # atno 8008 bound_to 7997
  156.1856  140.1679  156.8227 H   0  0  0  0  0  0  0  0  0  0  0  0  # atno 8009 bound_to 7997
  154.5383  140.0730  156.8449 H   0  0  0  0  0  0  0  0  0  0  0  0  # atno 8010 bound_to 7997
  139.6063  144.7071  151.2945 H   0  0  0  0  0  0  0  0  0  0  0  0  # atno 10167 bound_to 10162
  156.3603  130.7734  151.1901 H   0  0  0  0  0  0  0  0  0  0  0  0  # atno 10718 bound_to 10713
  154.8756  135.3878  154.4004 H   0  0  0  0  0  0  0  0  0  0  0  0  # atno 10763 bound_to 10752
  153.4729  135.7030  153.5988 H   0  0  0  0  0  0  0  0  0  0  0  0  # atno 10764 bound_to 10752
  153.4437  135.3850  155.2211 H   0  0  0  0  0  0  0  0  0  0  0  0  # atno 10765 bound_to 10752
  140.6882  133.9095  155.8600 H   0  0  0  0  0  0  0  0  0  0  0  0  # atno 11005 bound_to 11000
  145.3535  141.0312  143.3325 LP  0  0  0  0  0  0  0  0  0  0  0  0  # atno 17320 bound_to 7965
  144.8650  139.5121  143.6794 LP  0  0  0  0  0  0  0  0  0  0  0  0  # atno 17321 bound_to 7965
  140.7287  143.6927  150.7908 LP  0  0  0  0  0  0  0  0  0  0  0  0  # atno 17342 bound_to 10162
  140.0514  143.5246  152.2672 LP  0  0  0  0  0  0  0  0  0  0  0  0  # atno 17343 bound_to 10162
  157.7472  131.0402  150.4586 LP  0  0  0  0  0  0  0  0  0  0  0  0  # atno 17370 bound_to 10713
  156.4796  130.4071  149.6469 LP  0  0  0  0  0  0  0  0  0  0  0  0  # atno 17371 bound_to 10713
  141.0263  134.0819  157.4064 LP  0  0  0  0  0  0  0  0  0  0  0  0  # atno 17394 bound_to 11000
  139.8931  135.0129  156.6883 LP  0  0  0  0  0  0  0  0  0  0  0  0  # atno 17395 bound_to 11000

$$$$
