AV-unprocessed.smi:3289|AV-procd|sdf|12609|dock5
  -GOLD-   2272018533D 1   1.00000     0.00000
 Structure written by MMmdl.
 39 40  0  0  0  0  0  0  0  0  1 V2000
  151.1435  142.2050  157.6657 C   0  0  0  0  0  0  0  0  0  0  0  0
  150.2630  141.5845  156.5716 C   0  0  0  0  0  0  0  0  0  0  0  0
  148.7988  141.4538  157.0176 C   0  0  0  0  0  0  0  0  0  0  0  0
  150.8175  140.2678  156.0980 C   0  0  0  0  0  0  0  0  0  0  0  0
  151.1957  140.0485  154.8406 N   0  0  0  0  0  0  0  0  0  0  0  0
  151.6382  138.7320  154.8194 C   0  0  0  0  0  0  0  0  0  0  0  0
  151.5043  138.1889  156.0731 C   0  0  0  0  0  0  0  0  0  0  0  0
  150.9682  139.1800  156.8869 N   0  0  0  0  0  0  0  0  0  0  0  0
  150.6523  139.0170  158.3006 C   0  0  0  0  0  0  0  0  0  0  0  0
  149.8716  137.7290  158.5916 C   0  0  0  0  0  0  0  0  0  0  0  0
  150.3350  136.6265  158.2968 O   0  0  0  0  0  0  0  0  0  0  0  0
  148.6780  137.8886  159.1832 N   0  0  0  0  0  0  0  0  0  0  0  0
  147.7655  136.8084  159.5410 C   0  0  0  0  0  0  0  0  0  0  0  0
  148.0487  136.2738  160.9550 C   0  0  2  0  0  0  0  0  0  0  0  0
  147.2054  135.0551  161.3272 C   0  0  0  0  0  0  0  0  0  0  0  0
  147.1991  135.1357  162.8364 C   0  0  0  0  0  0  0  0  0  0  0  0
  147.0932  136.6402  163.0635 C   0  0  0  0  0  0  0  0  0  0  0  0
  147.7363  137.2499  161.9474 O   0  0  0  0  0  0  0  0  0  0  0  0
  152.1644  142.3492  157.3106 H   0  0  0  0  0  0  0  0  0  0  0  0
  151.1848  141.5692  158.5507 H   0  0  0  0  0  0  0  0  0  0  0  0
  150.7607  143.1784  157.9733 H   0  0  0  0  0  0  0  0  0  0  0  0
  150.2611  142.2844  155.7382 H   0  0  0  0  0  0  0  0  0  0  0  0
  148.1770  141.0673  156.2095 H   0  0  0  0  0  0  0  0  0  0  0  0
  148.3906  142.4205  157.3134 H   0  0  0  0  0  0  0  0  0  0  0  0
  148.6991  140.7775  157.8671 H   0  0  0  0  0  0  0  0  0  0  0  0
  152.0141  138.2817  153.9126 H   0  0  0  0  0  0  0  0  0  0  0  0
  151.7372  137.2019  156.4444 H   0  0  0  0  0  0  0  0  0  0  0  0
  151.5717  139.0376  158.8856 H   0  0  0  0  0  0  0  0  0  0  0  0
  150.0644  139.8783  158.6217 H   0  0  0  0  0  0  0  0  0  0  0  0
  148.3751  138.8287  159.3927 H   0  0  0  0  0  0  0  0  0  0  0  0
  146.7262  137.1286  159.4502 H   0  0  0  0  0  0  0  0  0  0  0  0
  147.9044  136.0073  158.8147 H   0  0  0  0  0  0  0  0  0  0  0  0
  149.1046  136.0179  161.0576 H   0  0  0  0  0  0  0  0  0  0  0  0
  146.1884  135.1585  160.9457 H   0  0  0  0  0  0  0  0  0  0  0  0
  147.6190  134.1195  160.9495 H   0  0  0  0  0  0  0  0  0  0  0  0
  146.3835  134.5764  163.2952 H   0  0  0  0  0  0  0  0  0  0  0  0
  148.1416  134.7591  163.2360 H   0  0  0  0  0  0  0  0  0  0  0  0
  146.0482  136.9525  163.0721 H   0  0  0  0  0  0  0  0  0  0  0  0
  147.5475  136.9517  164.0042 H   0  0  0  0  0  0  0  0  0  0  0  0
  1  2  1  0  0  0  0
  1 19  1  0  0  0  0
  1 20  1  0  0  0  0
  1 21  1  0  0  0  0
  2  3  1  0  0  0  0
  2  4  1  0  0  0  0
  2 22  1  0  0  0  0
  3 23  1  0  0  0  0
  3 24  1  0  0  0  0
  3 25  1  0  0  0  0
  4  8  1  0  0  0  0
  4  5  2  0  0  0  0
  5  6  1  0  0  0  0
  6  7  2  0  0  0  0
  6 26  1  0  0  0  0
  7  8  1  0  0  0  0
  7 27  1  0  0  0  0
  8  9  1  0  0  0  0
  9 10  1  0  0  0  0
  9 28  1  0  0  0  0
  9 29  1  0  0  0  0
 10 11  2  0  0  0  0
 10 12  1  0  0  0  0
 12 13  1  0  0  0  0
 12 30  1  0  0  0  0
 13 14  1  0  0  0  0
 13 31  1  0  0  0  0
 13 32  1  0  0  0  0
 14 18  1  0  0  0  0
 14 15  1  0  0  0  0
 14 33  1  0  0  0  0
 15 16  1  0  0  0  0
 15 34  1  0  0  0  0
 15 35  1  0  0  0  0
 16 17  1  0  0  0  0
 16 36  1  0  0  0  0
 16 37  1  0  0  0  0
 17 18  1  0  0  0  0
 17 38  1  0  0  0  0
 17 39  1  0  0  0  0
M  END
> <s_m_source_file>
AV-unprocessed.smi

> <i_m_source_file_index>
3289

> <i_lp_mmshare_version>
43012

> <i_f3d_flags>
0

> <s_epik_input>
W0NIM11bQ0hdKFtDSDNdKWMxbltjSF1bY0hdbjFbQ0gyXUMoPU8pW05IXVtDSDJdW0NAQEhdMltDSDJdW0NIMl1bQ0gyXU8y

> <s_epik_cmdline>
J2VwaWtfcHl0aG9uJywgJy1waCcsICc3LjAnLCAnLXRuJywgJzgnLCAnLW1hJywgJzIwMCcsICctbWV0YWxfYmluZGluZycsICctaW1hZScsICc8aW5maWxlLm1hZT4nLCAnLW9tYWUnLCAnPG91dGZpbGUubWFlPic=

> <r_lp_tautomer_probability>
1

> <r_epik_Ionization_Penalty>
0.587725

> <r_epik_Ionization_Penalty_Charging>
0.587725

> <r_epik_Ionization_Penalty_Neutral>
1.43432e-07

> <r_epik_State_Penalty>
0.601029

> <r_epik_Charging_Adjusted_Penalty>
1.18875

> <i_epik_Tot_Q>
0

> <i_epik_Tot_abs_Q>
0

> <r_epik_Metal_State_Penalty>
0.297663

> <b_epik_Metal_Only>
0

> <s_lp_Force_Field>
OPLS_2005

> <r_lp_Energy>
18.7222

> <b_lp_Chiralities_Consistent>
1

> <s_lp_Variant>
AV-unprocessed.smi:3289-3

> <Gold.Version>
5.8.1

> <Gold.Id.Protein>
6NUR|6NUR_protein|mol2

> <Gold.PLP.Fitness>
45.2499

> <Gold.PLP.PLP>
-36.0449

> <Gold.PLP.part.hbond>
-4.0000

> <Gold.PLP.part.metal>
0.0000

> <Gold.PLP.part.buried>
-5.6426

> <Gold.PLP.part.nonpolar>
-27.5970

> <Gold.PLP.part.repulsive>
0.2757

> <Gold.PLP.ligand.clash>
0.0000

> <Gold.PLP.ligand.torsion>
0.3771

> <Gold.PLP.Chemscore.Hbond>
3.3010

> <Gold.PLP.Chemscore.CHOScore>
0.0000

> <Gold.PLP.Chemscore.Metal>
0.0000

> <Gold.Chemscore.Hbonds>
donor molecule, donor type, donor heavy atom, donor atom, acceptor molecule, acceptor atom, score
      P1  H  6896  6908       L1    11  0.34
      P1  H  6931  6943       L1    18  0.99
      P1  H  6934  6947       L1    18  0.49
      P1  H  7989  7998       L1     5  1.00

> <Gold.PLP.Chemscore.Internal.Correction>
0.0561

> <Gold.Rescore>
     Score         DG    S(hbond)    S(metal)    S(lipo)     H(rot)  DE(clash)    DE(int)     intcor
     19.81     -20.09       3.38        0.00      65.97       1.72       0.01       0.27       ----

> <Gold.Chemscore.Fitness>
19.8142

> <Gold.Chemscore.DG>
-20.0877

> <Gold.Chemscore.ZeroCoef>
-5.4800

> <Gold.Chemscore.Hbond>
3.3790

> <Gold.Chemscore.Metal>
0.0000

> <Gold.Chemscore.Lipo>
65.9694

> <Gold.Chemscore.Internal_Hbond>
0.0000

> <Gold.Chemscore.DEClash>
0.0073

> <Gold.Chemscore.DEInternal>
0.2661

> <Gold.Chemscore.Rot>
1.7175

> <Gold.Chemscore.Internal.Correction>
   9.000000E+99

> <Gold.Chemscore.Hbonds>
donor molecule, donor type, donor heavy atom, donor atom, acceptor molecule, acceptor atom, score
      P1  H  6896  6908       L1    11  0.32
      P1  H  6931  6943       L1    18  0.42
      P1  H  6934  6947       L1    18  0.32
      P1  H  7989  7998       L1     5  0.82

> <Gold.Chemscore.Hbond.Weighted>
-11.2860

> <Gold.Chemscore.Metal.Weighted>
-0.0000

> <Gold.Chemscore.Lipo.Weighted>
-7.7184

> <Gold.Chemscore.Internal_Hbond.Weighted>
0.0000

> <Gold.Chemscore.DEClash.Weighted>
0.0073

> <Gold.Chemscore.DEInternal.Weighted>
0.2661

> <Gold.Chemscore.Rot.Weighted>
4.3967

> <Gold.Chemscore.Internal.Correction.Weighted>
   9.000000E+99

> <Gold.Protein.RotatedTorsions>
[ 6907 6896 6895 6894 ] final -158.25 input  -60.11 | X-H torsion
[ 7974 7965 7964 7962 ] final -136.69 input  175.53 | X-H torsion
[ 8008 7997 7996 7995 ] final -143.82 input   59.86 | X-H torsion
[ 10167 10162 10161 10158 ] final -101.52 input  -65.29 | X-H torsion
[ 10718 10713 10712 10709 ] final -157.17 input   66.30 | X-H torsion
[ 10763 10752 10751 10750 ] final -142.63 input  -60.55 | X-H torsion
[ 11005 11000 10999 10996 ] final   25.67 input  -57.11 | X-H torsion

> <Gold.Protein.ActiveResidues>
 VAL166  LYS551  ARG553  GLY616  TRP617  ASP618  TYR619  PRO620  LYS621  CYS622 
 ASP623  PHE694  ASN695  SER759  ASP760  ASP761  ALA762  ILE779  LEU786  VAL792 
 PHE793  MET794  SER795  GLU796  ALA797  LYS798  CYS799  TRP800  GLU811  SER814 

> <Gold.Protein.RotatedAtoms>
  151.3153  133.4063  159.2649 H   0  0  0  0  0  0  0  0  0  0  0  0  # atno 6907 bound_to 6896
  151.0080  134.9375  159.8001 H   0  0  0  0  0  0  0  0  0  0  0  0  # atno 6908 bound_to 6896
  152.5293  134.3118  159.9168 H   0  0  0  0  0  0  0  0  0  0  0  0  # atno 6909 bound_to 6896
  144.8905  140.6635  143.5148 H   0  0  0  0  0  0  0  0  0  0  0  0  # atno 7974 bound_to 7965
  155.5169  140.0588  157.2914 H   0  0  0  0  0  0  0  0  0  0  0  0  # atno 8008 bound_to 7997
  154.4532  140.1959  156.0405 H   0  0  0  0  0  0  0  0  0  0  0  0  # atno 8009 bound_to 7997
  156.0746  140.3255  155.7622 H   0  0  0  0  0  0  0  0  0  0  0  0  # atno 8010 bound_to 7997
  140.2405  143.3542  152.0806 H   0  0  0  0  0  0  0  0  0  0  0  0  # atno 10167 bound_to 10162
  156.5366  130.8545  151.2734 H   0  0  0  0  0  0  0  0  0  0  0  0  # atno 10718 bound_to 10713
  154.8501  135.3490  154.6058 H   0  0  0  0  0  0  0  0  0  0  0  0  # atno 10763 bound_to 10752
  153.6667  135.6987  153.5165 H   0  0  0  0  0  0  0  0  0  0  0  0  # atno 10764 bound_to 10752
  153.2775  135.4274  155.1004 H   0  0  0  0  0  0  0  0  0  0  0  0  # atno 10765 bound_to 10752
  140.3453  134.2288  155.7685 H   0  0  0  0  0  0  0  0  0  0  0  0  # atno 11005 bound_to 11000
  145.3791  139.1641  143.4290 LP  0  0  0  0  0  0  0  0  0  0  0  0  # atno 17320 bound_to 7965
  146.3051  140.3871  142.8690 LP  0  0  0  0  0  0  0  0  0  0  0  0  # atno 17321 bound_to 7965
  139.5079  144.6840  151.5935 LP  0  0  0  0  0  0  0  0  0  0  0  0  # atno 17342 bound_to 10162
  140.6117  143.9423  150.6458 LP  0  0  0  0  0  0  0  0  0  0  0  0  # atno 17343 bound_to 10162
  157.7412  130.9866  150.2433 LP  0  0  0  0  0  0  0  0  0  0  0  0  # atno 17370 bound_to 10713
  156.3010  130.3758  149.7750 LP  0  0  0  0  0  0  0  0  0  0  0  0  # atno 17371 bound_to 10713
  141.2027  133.7930  157.0376 LP  0  0  0  0  0  0  0  0  0  0  0  0  # atno 17394 bound_to 11000
  140.0747  134.9682  157.1526 LP  0  0  0  0  0  0  0  0  0  0  0  0  # atno 17395 bound_to 11000

$$$$
