AV-unprocessed.smi:157|AV-procd|sdf|1291|dock3
  -GOLD-   2262018573D 1   1.00000     0.00000
 Structure written by MMmdl.
 35 37  0  0  0  0  0  0  0  0  1 V2000
  151.4259  136.8315  158.9279 O   0  0  0  0  0  0  0  0  0  0  0  0
  152.1441  138.0213  158.6812 C   0  0  0  0  0  0  0  0  0  0  0  0
  153.6206  137.8463  159.0713 C   0  0  1  0  0  0  0  0  0  0  0  0
  154.3453  139.0600  158.8505 O   0  0  0  0  0  0  0  0  0  0  0  0
  155.1863  139.3407  159.9334 C   0  0  1  0  0  0  0  0  0  0  0  0
  154.5817  140.4591  160.7375 N   0  0  0  0  0  0  0  0  0  0  0  0
  154.8251  140.7604  162.0213 C   0  0  0  0  0  0  0  0  0  0  0  0
  154.1551  141.8031  162.4808 N   0  0  0  0  0  0  0  0  0  0  0  0
  153.3836  142.2109  161.3953 C   0  0  0  0  0  0  0  0  0  0  0  0
  153.6197  141.3803  160.3094 C   0  0  0  0  0  0  0  0  0  0  0  0
  153.1593  141.2873  159.0095 N   0  0  0  0  0  0  0  0  0  0  0  0
  152.0565  141.8967  158.7071 C   0  0  0  0  0  0  0  0  0  0  0  0
  151.2608  142.7404  159.4687 N   0  0  0  0  0  0  0  0  0  0  0  0
  151.7866  143.8508  160.2441 C   0  0  0  0  0  0  0  0  0  0  0  0
  152.4964  143.4148  161.5315 C   0  0  1  0  0  0  0  0  0  0  0  0
  151.5305  143.1083  162.5160 O   0  0  0  0  0  0  0  0  0  0  0  0
  155.2429  138.0630  160.7711 C   0  0  0  0  0  0  0  0  0  0  0  0
  153.8595  137.4913  160.5438 C   0  0  2  0  0  0  0  0  0  0  0  0
  153.8509  136.0976  160.7727 O   0  0  0  0  0  0  0  0  0  0  0  0
  154.0883  137.0975  158.4292 H   0  0  0  0  0  0  0  0  0  0  0  0
  156.1574  139.7194  159.6129 H   0  0  0  0  0  0  0  0  0  0  0  0
  153.0749  144.2586  161.9087 H   0  0  0  0  0  0  0  0  0  0  0  0
  153.1338  137.9851  161.1917 H   0  0  0  0  0  0  0  0  0  0  0  0
  150.6169  136.8620  158.4405 H   0  0  0  0  0  0  0  0  0  0  0  0
  152.0641  138.2528  157.6189 H   0  0  0  0  0  0  0  0  0  0  0  0
  151.6819  138.8428  159.2278 H   0  0  0  0  0  0  0  0  0  0  0  0
  155.5115  140.2067  162.6427 H   0  0  0  0  0  0  0  0  0  0  0  0
  151.6503  141.7636  157.7035 H   0  0  0  0  0  0  0  0  0  0  0  0
  150.3192  142.9270  159.1552 H   0  0  0  0  0  0  0  0  0  0  0  0
  152.4999  144.3798  159.6104 H   0  0  0  0  0  0  0  0  0  0  0  0
  150.9890  144.5614  160.4631 H   0  0  0  0  0  0  0  0  0  0  0  0
  151.9334  143.2064  163.3654 H   0  0  0  0  0  0  0  0  0  0  0  0
  156.0121  137.4127  160.3511 H   0  0  0  0  0  0  0  0  0  0  0  0
  155.4767  138.2558  161.8184 H   0  0  0  0  0  0  0  0  0  0  0  0
  153.3790  135.6835  160.0661 H   0  0  0  0  0  0  0  0  0  0  0  0
  1  2  1  0  0  0  0
  1 24  1  0  0  0  0
  2  3  1  0  0  0  0
  2 25  1  0  0  0  0
  2 26  1  0  0  0  0
  3 20  1  0  0  0  0
  3 18  1  0  0  0  0
  3  4  1  0  0  0  0
  4  5  1  0  0  0  0
  5 21  1  0  0  0  0
  5  6  1  0  0  0  0
  5 17  1  0  0  0  0
  6 10  1  0  0  0  0
  6  7  1  0  0  0  0
  7  8  2  0  0  0  0
  7 27  1  0  0  0  0
  8  9  1  0  0  0  0
  9 15  1  0  0  0  0
  9 10  2  0  0  0  0
 10 11  1  0  0  0  0
 11 12  2  0  0  0  0
 12 13  1  0  0  0  0
 12 28  1  0  0  0  0
 13 14  1  0  0  0  0
 13 29  1  0  0  0  0
 14 15  1  0  0  0  0
 14 30  1  0  0  0  0
 14 31  1  0  0  0  0
 15 22  1  0  0  0  0
 15 16  1  0  0  0  0
 16 32  1  0  0  0  0
 17 18  1  0  0  0  0
 17 33  1  0  0  0  0
 17 34  1  0  0  0  0
 18 23  1  0  0  0  0
 18 19  1  0  0  0  0
 19 35  1  0  0  0  0
M  END
> <s_m_source_file>
AV-unprocessed.smi

> <i_m_source_file_index>
157

> <i_lp_mmshare_version>
43012

> <i_f3d_flags>
0

> <s_epik_input>
W09IXVtDSDJdW0NASF0xT1tDQEhdKFtDSDJdW0NAQEhdMVtPSF0pbihbY0hdbjIpYyhjMjMpTj1bQ0hdW05IXVtDSDJdW0NASF0zW09IXQ==

> <s_epik_cmdline>
J2VwaWtfcHl0aG9uJywgJy1waCcsICc3LjAnLCAnLXRuJywgJzgnLCAnLW1hJywgJzIwMCcsICctbWV0YWxfYmluZGluZycsICctaW1hZScsICc8aW5maWxlLm1hZT4nLCAnLW9tYWUnLCAnPG91dGZpbGUubWFlPic=

> <r_lp_tautomer_probability>
1

> <r_epik_Ionization_Penalty>
0.0357149

> <r_epik_Ionization_Penalty_Charging>
0.0355056

> <r_epik_Ionization_Penalty_Neutral>
0.000209255

> <r_epik_State_Penalty>
0.0296046

> <r_epik_Charging_Adjusted_Penalty>
0.0651102

> <i_epik_Tot_Q>
0

> <i_epik_Tot_abs_Q>
0

> <r_epik_Metal_State_Penalty>
3.03559e-05

> <b_epik_Metal_Only>
0

> <s_epik_Chemistry_Notes>
This compound has an imine and may undergo hydrolysis. This compound contains an acetal/aminal-like group ( X-CH(R)-Y where X, Y are N, S, or O) that may be acid/base labile, releasing an aldehyde.

> <s_lp_Force_Field>
OPLS_2005

> <r_lp_Energy>
41.3094

> <b_lp_Chiralities_Consistent>
1

> <s_lp_Variant>
AV-unprocessed.smi:157-1

> <Gold.Version>
5.8.1

> <Gold.Id.Protein>
6NUR|6NUR_protein|mol2

> <Gold.PLP.Fitness>
40.5307

> <Gold.PLP.PLP>
-32.8716

> <Gold.PLP.part.hbond>
-5.2937

> <Gold.PLP.part.metal>
0.0000

> <Gold.PLP.part.buried>
-3.4663

> <Gold.PLP.part.nonpolar>
-23.9759

> <Gold.PLP.part.repulsive>
0.1138

> <Gold.PLP.ligand.clash>
0.0000

> <Gold.PLP.ligand.torsion>
0.5129

> <Gold.PLP.Chemscore.Hbond>
2.8880

> <Gold.PLP.Chemscore.CHOScore>
0.0000

> <Gold.PLP.Chemscore.Metal>
0.0000

> <Gold.Chemscore.Hbonds>
donor molecule, donor type, donor heavy atom, donor atom, acceptor molecule, acceptor atom, score
      P1  H  6896  6908       L1     1  0.98
      P1  H  6933  6945       L1    16  0.93
      P1  H  7997  8010       L1     4  1.00

> <Gold.PLP.Chemscore.Internal.Correction>
0.0209

> <Gold.Rescore>
     Score         DG    S(hbond)    S(metal)    S(lipo)     H(rot)  DE(clash)    DE(int)     intcor
      6.12     -10.40       2.38        0.00      53.68       3.64       2.08       2.20       ----

> <Gold.Chemscore.Fitness>
6.1193

> <Gold.Chemscore.DG>
-10.4037

> <Gold.Chemscore.ZeroCoef>
-5.4800

> <Gold.Chemscore.Hbond>
2.3809

> <Gold.Chemscore.Metal>
0.0000

> <Gold.Chemscore.Lipo>
53.6767

> <Gold.Chemscore.Internal_Hbond>
0.0000

> <Gold.Chemscore.DEClash>
2.0808

> <Gold.Chemscore.DEInternal>
2.2036

> <Gold.Chemscore.Rot>
3.6362

> <Gold.Chemscore.Internal.Correction>
   9.000000E+99

> <Gold.Chemscore.Hbonds>
donor molecule, donor type, donor heavy atom, donor atom, acceptor molecule, acceptor atom, score
      P1  H  6896  6908       L1     1  0.46
      P1  H  6933  6945       L1    16  0.83
      P1  H  7997  8010       L1     4  0.44

> <Gold.Chemscore.Hbond.Weighted>
-7.9522

> <Gold.Chemscore.Metal.Weighted>
-0.0000

> <Gold.Chemscore.Lipo.Weighted>
-6.2802

> <Gold.Chemscore.Internal_Hbond.Weighted>
0.0000

> <Gold.Chemscore.DEClash.Weighted>
2.0808

> <Gold.Chemscore.DEInternal.Weighted>
2.2036

> <Gold.Chemscore.Rot.Weighted>
9.3087

> <Gold.Chemscore.Internal.Correction.Weighted>
   9.000000E+99

> <Gold.Protein.RotatedTorsions>
[ 6907 6896 6895 6894 ] final -132.58 input  -60.11 | X-H torsion
[ 7974 7965 7964 7962 ] final -163.73 input  175.53 | X-H torsion
[ 8008 7997 7996 7995 ] final   -4.19 input   59.86 | X-H torsion
[ 10167 10162 10161 10158 ] final  -10.72 input  -65.29 | X-H torsion
[ 10718 10713 10712 10709 ] final  -52.04 input   66.30 | X-H torsion
[ 10763 10752 10751 10750 ] final  168.62 input  -60.55 | X-H torsion
[ 11005 11000 10999 10996 ] final  -72.62 input  -57.11 | X-H torsion

> <Gold.Protein.ActiveResidues>
 VAL166  LYS551  ARG553  GLY616  TRP617  ASP618  TYR619  PRO620  LYS621  CYS622 
 ASP623  PHE694  ASN695  SER759  ASP760  ASP761  ALA762  ILE779  LEU786  VAL792 
 PHE793  MET794  SER795  GLU796  ALA797  LYS798  CYS799  TRP800  GLU811  SER814 

> <Gold.Protein.RotatedAtoms>
  150.9640  133.6414  159.2749 H   0  0  0  0  0  0  0  0  0  0  0  0  # atno 6907 bound_to 6896
  151.3727  135.0924  159.9480 H   0  0  0  0  0  0  0  0  0  0  0  0  # atno 6908 bound_to 6896
  152.5158  133.9191  159.7580 H   0  0  0  0  0  0  0  0  0  0  0  0  # atno 6909 bound_to 6896
  144.7317  140.3064  143.6195 H   0  0  0  0  0  0  0  0  0  0  0  0  # atno 7974 bound_to 7965
  154.6170  140.2490  155.7597 H   0  0  0  0  0  0  0  0  0  0  0  0  # atno 8008 bound_to 7997
  156.2404  140.2934  156.0378 H   0  0  0  0  0  0  0  0  0  0  0  0  # atno 8009 bound_to 7997
  155.1959  140.0393  157.2899 H   0  0  0  0  0  0  0  0  0  0  0  0  # atno 8010 bound_to 7997
  140.7121  143.5718  150.9085 H   0  0  0  0  0  0  0  0  0  0  0  0  # atno 10167 bound_to 10162
  156.1656  130.4149  149.9725 H   0  0  0  0  0  0  0  0  0  0  0  0  # atno 10718 bound_to 10713
  154.3712  135.2753  155.2265 H   0  0  0  0  0  0  0  0  0  0  0  0  # atno 10763 bound_to 10752
  154.4412  135.5954  153.6134 H   0  0  0  0  0  0  0  0  0  0  0  0  # atno 10764 bound_to 10752
  152.9838  135.6019  154.3943 H   0  0  0  0  0  0  0  0  0  0  0  0  # atno 10765 bound_to 10752
  141.1611  133.6852  156.7086 H   0  0  0  0  0  0  0  0  0  0  0  0  # atno 11005 bound_to 11000
  145.7708  139.1857  143.2213 LP  0  0  0  0  0  0  0  0  0  0  0  0  # atno 17320 bound_to 7965
  146.0912  140.7653  142.9594 LP  0  0  0  0  0  0  0  0  0  0  0  0  # atno 17321 bound_to 7965
  139.9444  143.6345  152.3045 LP  0  0  0  0  0  0  0  0  0  0  0  0  # atno 17342 bound_to 10162
  139.6841  144.7653  151.1555 LP  0  0  0  0  0  0  0  0  0  0  0  0  # atno 17343 bound_to 10162
  156.7540  130.9126  151.3638 LP  0  0  0  0  0  0  0  0  0  0  0  0  # atno 17370 bound_to 10713
  157.6766  130.9100  150.0164 LP  0  0  0  0  0  0  0  0  0  0  0  0  # atno 17371 bound_to 10713
  140.2904  134.8245  157.4012 LP  0  0  0  0  0  0  0  0  0  0  0  0  # atno 17394 bound_to 11000
  140.1352  134.5043  155.8074 LP  0  0  0  0  0  0  0  0  0  0  0  0  # atno 17395 bound_to 11000

$$$$
