AV-unprocessed.smi:867|AV-procd|sdf|4000|dock10
  -GOLD-   22720 1483D 1   1.00000     0.00000
 Structure written by MMmdl.
 54 57  0  0  0  0  0  0  0  0  3 V2000
  152.4558  139.7299  156.2673 O   0  0  0  0  0  0  0  0  0  0  0  0
  151.2779  139.6507  155.9169 C   0  0  0  0  0  0  0  0  0  0  0  0
  150.2980  140.3206  156.5474 N   0  0  0  0  0  0  0  0  0  0  0  0
  150.4898  141.2138  157.6839 C   0  0  0  0  0  0  0  0  0  0  0  0
  150.9988  142.5943  157.2384 C   0  0  0  0  0  0  0  0  0  0  0  0
  151.4220  143.4526  158.4143 C   0  0  0  0  0  0  0  0  0  0  0  0
  150.8667  144.7383  158.5993 C   0  0  0  0  0  0  0  0  0  0  0  0
  151.2809  145.5186  159.6990 C   0  0  0  0  0  0  0  0  0  0  0  0
  152.2418  144.9958  160.5885 C   0  0  0  0  0  0  0  0  0  0  0  0
  152.7515  143.7619  160.3785 N   0  3  0  0  0  0  0  0  0  0  0  0
  152.3810  142.9834  159.3381 C   0  0  0  0  0  0  0  0  0  0  0  0
  150.8548  138.8379  154.9170 N   0  0  0  0  0  0  0  0  0  0  0  0
  151.6278  137.7565  154.2956 C   0  0  0  0  0  0  0  0  0  0  0  0
  151.0975  136.4083  154.8149 C   0  0  0  0  0  0  0  0  0  0  0  0
  149.6346  136.2424  154.5591 N   0  3  0  0  0  0  0  0  0  0  0  0
  149.1259  134.9285  155.0620 C   0  0  2  0  0  0  0  0  0  0  0  0
  150.1034  133.7627  154.7514 C   0  0  0  0  0  0  0  0  0  0  0  0
  149.2218  132.7279  154.0339 C   0  0  1  0  0  0  0  0  0  0  0  0
  148.2220  132.1198  155.0313 C   0  0  0  0  0  0  0  0  0  0  0  0
  147.2348  133.2775  155.2592 C   0  0  0  0  0  0  0  0  0  0  0  0
  147.8209  134.4097  154.3919 C   0  0  2  0  0  0  0  0  0  0  0  0
  148.3325  133.6282  153.1870 C   0  0  0  0  0  0  0  0  0  0  0  0
  148.8533  137.4227  155.0346 C   0  0  0  0  0  0  0  0  0  0  0  0
  149.4468  138.7506  154.5287 C   0  0  0  0  0  0  0  0  0  0  0  0
  149.3499  140.1871  156.2266 H   0  0  0  0  0  0  0  0  0  0  0  0
  149.5339  141.3174  158.1983 H   0  0  0  0  0  0  0  0  0  0  0  0
  151.1791  140.7625  158.3996 H   0  0  0  0  0  0  0  0  0  0  0  0
  151.8471  142.4860  156.5611 H   0  0  0  0  0  0  0  0  0  0  0  0
  150.2227  143.1160  156.6770 H   0  0  0  0  0  0  0  0  0  0  0  0
  150.1329  145.1244  157.9063 H   0  0  0  0  0  0  0  0  0  0  0  0
  150.8679  146.5043  159.8567 H   0  0  0  0  0  0  0  0  0  0  0  0
  152.6160  145.5233  161.4537 H   0  0  0  0  0  0  0  0  0  0  0  0
  152.8617  142.0176  159.2764 H   0  0  0  0  0  0  0  0  0  0  0  0
  151.5138  137.8107  153.2118 H   0  0  0  0  0  0  0  0  0  0  0  0
  152.7005  137.8202  154.4783 H   0  0  0  0  0  0  0  0  0  0  0  0
  151.6686  135.6086  154.3456 H   0  0  0  0  0  0  0  0  0  0  0  0
  151.2842  136.3336  155.8876 H   0  0  0  0  0  0  0  0  0  0  0  0
  148.9707  135.0213  156.1384 H   0  0  0  0  0  0  0  0  0  0  0  0
  150.9019  134.0664  154.0736 H   0  0  0  0  0  0  0  0  0  0  0  0
  150.5688  133.3605  155.6520 H   0  0  0  0  0  0  0  0  0  0  0  0
  149.7892  131.9833  153.4747 H   0  0  0  0  0  0  0  0  0  0  0  0
  147.7108  131.2595  154.5972 H   0  0  0  0  0  0  0  0  0  0  0  0
  148.7045  131.7938  155.9536 H   0  0  0  0  0  0  0  0  0  0  0  0
  146.2388  133.0013  154.9101 H   0  0  0  0  0  0  0  0  0  0  0  0
  147.1512  133.5548  156.3106 H   0  0  0  0  0  0  0  0  0  0  0  0
  147.0631  135.1552  154.1630 H   0  0  0  0  0  0  0  0  0  0  0  0
  148.8860  134.2421  152.4745 H   0  0  0  0  0  0  0  0  0  0  0  0
  147.5480  133.0843  152.6575 H   0  0  0  0  0  0  0  0  0  0  0  0
  147.8260  137.3778  154.6806 H   0  0  0  0  0  0  0  0  0  0  0  0
  148.8207  137.4208  156.1253 H   0  0  0  0  0  0  0  0  0  0  0  0
  148.8563  139.5896  154.9005 H   0  0  0  0  0  0  0  0  0  0  0  0
  149.3726  138.8017  153.4412 H   0  0  0  0  0  0  0  0  0  0  0  0
  149.5234  136.2259  153.5555 H   0  0  0  0  0  0  0  0  0  0  0  0
  153.4468  143.4033  161.0338 H   0  0  0  0  0  0  0  0  0  0  0  0
  1  2  2  0  0  0  0
  2  3  1  0  0  0  0
  2 12  1  0  0  0  0
  3  4  1  0  0  0  0
  3 25  1  0  0  0  0
  4  5  1  0  0  0  0
  4 26  1  0  0  0  0
  4 27  1  0  0  0  0
  5  6  1  0  0  0  0
  5 28  1  0  0  0  0
  5 29  1  0  0  0  0
  6 11  1  0  0  0  0
  6  7  2  0  0  0  0
  7  8  1  0  0  0  0
  7 30  1  0  0  0  0
  8  9  2  0  0  0  0
  8 31  1  0  0  0  0
  9 10  1  0  0  0  0
  9 32  1  0  0  0  0
 10 11  2  0  0  0  0
 10 54  1  0  0  0  0
 11 33  1  0  0  0  0
 12 24  1  0  0  0  0
 12 13  1  0  0  0  0
 13 14  1  0  0  0  0
 13 34  1  0  0  0  0
 13 35  1  0  0  0  0
 14 15  1  0  0  0  0
 14 36  1  0  0  0  0
 14 37  1  0  0  0  0
 15 16  1  0  0  0  0
 15 23  1  0  0  0  0
 15 53  1  0  0  0  0
 16 21  1  0  0  0  0
 16 17  1  0  0  0  0
 16 38  1  0  0  0  0
 17 18  1  0  0  0  0
 17 39  1  0  0  0  0
 17 40  1  0  0  0  0
 18 22  1  0  0  0  0
 18 19  1  0  0  0  0
 18 41  1  0  0  0  0
 19 20  1  0  0  0  0
 19 42  1  0  0  0  0
 19 43  1  0  0  0  0
 20 21  1  0  0  0  0
 20 44  1  0  0  0  0
 20 45  1  0  0  0  0
 21 22  1  0  0  0  0
 21 46  1  0  0  0  0
 22 47  1  0  0  0  0
 22 48  1  0  0  0  0
 23 24  1  0  0  0  0
 23 49  1  0  0  0  0
 23 50  1  0  0  0  0
 24 51  1  0  0  0  0
 24 52  1  0  0  0  0
M  CHG  1  10   1
M  CHG  1  15   1
M  END
> <s_m_source_file>
AV-unprocessed.smi

> <i_m_source_file_index>
867

> <i_lp_mmshare_version>
43012

> <i_f3d_flags>
0

> <s_epik_input>
W0NIMl0xW0NIMl1bQ0BASF0oW0NIMl0yKVtDQEBIXShbQ0gyXVtDQEhdMTIpTihbQ0gyXVtDSDJdMylbQ0gyXVtDSDJdTjNDKD1PKVtOSF1bQ0gyXVtDSDJdYzRbY0hdW2NIXVtjSF1uW2NIXTQ=

> <s_epik_cmdline>
J2VwaWtfcHl0aG9uJywgJy1waCcsICc3LjAnLCAnLXRuJywgJzgnLCAnLW1hJywgJzIwMCcsICctbWV0YWxfYmluZGluZycsICctaW1hZScsICc8aW5maWxlLm1hZT4nLCAnLW9tYWUnLCAnPG91dGZpbGUubWFlPic=

> <r_epik_Ionization_Penalty>
2.25108

> <r_epik_Ionization_Penalty_Charging>
2.25105

> <r_epik_Ionization_Penalty_Neutral>
2.64641e-05

> <r_epik_State_Penalty>
2.39519

> <r_epik_Charging_Adjusted_Penalty>
4.64625

> <i_epik_Tot_Q>
2

> <i_epik_Tot_abs_Q>
2

> <r_epik_Metal_State_Penalty>
2.40865

> <b_epik_Metal_Only>
0

> <s_lp_Force_Field>
OPLS_2005

> <r_lp_Energy>
104.696

> <b_lp_Chiralities_Consistent>
1

> <s_lp_Variant>
AV-unprocessed.smi:867-7

> <Gold.Version>
5.8.1

> <Gold.Id.Protein>
6NUR|6NUR_protein|mol2

> <Gold.PLP.Fitness>
50.2171

> <Gold.PLP.PLP>
-44.0891

> <Gold.PLP.part.hbond>
-2.0000

> <Gold.PLP.part.metal>
0.0000

> <Gold.PLP.part.buried>
-2.8298

> <Gold.PLP.part.nonpolar>
-39.1719

> <Gold.PLP.part.repulsive>
0.0999

> <Gold.PLP.ligand.clash>
1.9688

> <Gold.PLP.ligand.torsion>
0.5072

> <Gold.PLP.Chemscore.Hbond>
3.0000

> <Gold.PLP.Chemscore.CHOScore>
0.0000

> <Gold.PLP.Chemscore.Metal>
0.0000

> <Gold.Chemscore.Hbonds>
donor molecule, donor type, donor heavy atom, donor atom, acceptor molecule, acceptor atom, score
      L1  H    15    53       P1  7948  2.00
      P1  H  7997  8009       L1     1  1.00

> <Gold.PLP.Chemscore.Internal.Correction>
0.1112

> <Gold.Rescore>
     Score         DG    S(hbond)    S(metal)    S(lipo)     H(rot)  DE(clash)    DE(int)     intcor
     20.46     -21.68       1.77        0.00     119.86       1.46       0.63       0.59       ----

> <Gold.Chemscore.Fitness>
20.4627

> <Gold.Chemscore.DG>
-21.6831

> <Gold.Chemscore.ZeroCoef>
-5.4800

> <Gold.Chemscore.Hbond>
1.7695

> <Gold.Chemscore.Metal>
0.0000

> <Gold.Chemscore.Lipo>
119.8590

> <Gold.Chemscore.Internal_Hbond>
0.0000

> <Gold.Chemscore.DEClash>
0.6306

> <Gold.Chemscore.DEInternal>
0.5898

> <Gold.Chemscore.Rot>
1.4572

> <Gold.Chemscore.Internal.Correction>
   9.000000E+99

> <Gold.Chemscore.Hbonds>
donor molecule, donor type, donor heavy atom, donor atom, acceptor molecule, acceptor atom, score
      L1  H    15    53       P1  7948  0.55
      P1  H  7997  8009       L1     1  0.96

> <Gold.Chemscore.Hbond.Weighted>
-5.9101

> <Gold.Chemscore.Metal.Weighted>
-0.0000

> <Gold.Chemscore.Lipo.Weighted>
-14.0235

> <Gold.Chemscore.Internal_Hbond.Weighted>
0.0000

> <Gold.Chemscore.DEClash.Weighted>
0.6306

> <Gold.Chemscore.DEInternal.Weighted>
0.5898

> <Gold.Chemscore.Rot.Weighted>
3.7305

> <Gold.Chemscore.Internal.Correction.Weighted>
   9.000000E+99

> <Gold.Protein.RotatedTorsions>
[ 6907 6896 6895 6894 ] final -161.02 input  -60.11 | X-H torsion
[ 7974 7965 7964 7962 ] final  -73.13 input  175.53 | X-H torsion
[ 8008 7997 7996 7995 ] final -146.77 input   59.86 | X-H torsion
[ 10167 10162 10161 10158 ] final  119.18 input  -65.29 | X-H torsion
[ 10718 10713 10712 10709 ] final   58.73 input   66.30 | X-H torsion
[ 10763 10752 10751 10750 ] final  101.33 input  -60.55 | X-H torsion
[ 11005 11000 10999 10996 ] final   27.09 input  -57.11 | X-H torsion

> <Gold.Protein.ActiveResidues>
 VAL166  LYS551  ARG553  GLY616  TRP617  ASP618  TYR619  PRO620  LYS621  CYS622 
 ASP623  PHE694  ASN695  SER759  ASP760  ASP761  ALA762  ILE779  LEU786  VAL792 
 PHE793  MET794  SER795  GLU796  ALA797  LYS798  CYS799  TRP800  GLU811  SER814 

> <Gold.Protein.RotatedAtoms>
  151.3581  133.3899  159.2686 H   0  0  0  0  0  0  0  0  0  0  0  0  # atno 6907 bound_to 6896
  150.9747  134.9114  159.7819 H   0  0  0  0  0  0  0  0  0  0  0  0  # atno 6908 bound_to 6896
  152.5197  134.3544  159.9315 H   0  0  0  0  0  0  0  0  0  0  0  0  # atno 6909 bound_to 6896
  145.6562  140.9267  143.0958 H   0  0  0  0  0  0  0  0  0  0  0  0  # atno 7974 bound_to 7965
  155.5647  140.0628  157.2820 H   0  0  0  0  0  0  0  0  0  0  0  0  # atno 8008 bound_to 7997
  154.4379  140.1879  156.0864 H   0  0  0  0  0  0  0  0  0  0  0  0  # atno 8009 bound_to 7997
  156.0421  140.3294  155.7259 H   0  0  0  0  0  0  0  0  0  0  0  0  # atno 8010 bound_to 7997
  139.6063  144.7070  151.2946 H   0  0  0  0  0  0  0  0  0  0  0  0  # atno 10167 bound_to 10162
  157.5620  130.8842  149.9126 H   0  0  0  0  0  0  0  0  0  0  0  0  # atno 10718 bound_to 10713
  153.3253  135.4048  155.1450 H   0  0  0  0  0  0  0  0  0  0  0  0  # atno 10763 bound_to 10752
  154.8610  135.3597  154.5542 H   0  0  0  0  0  0  0  0  0  0  0  0  # atno 10764 bound_to 10752
  153.5978  135.7072  153.5456 H   0  0  0  0  0  0  0  0  0  0  0  0  # atno 10765 bound_to 10752
  140.3300  134.2448  155.7704 H   0  0  0  0  0  0  0  0  0  0  0  0  # atno 11005 bound_to 11000
  144.7105  139.8390  143.7416 LP  0  0  0  0  0  0  0  0  0  0  0  0  # atno 17320 bound_to 7965
  146.1163  139.4174  143.0256 LP  0  0  0  0  0  0  0  0  0  0  0  0  # atno 17321 bound_to 7965
  140.7287  143.6928  150.7908 LP  0  0  0  0  0  0  0  0  0  0  0  0  # atno 17342 bound_to 10162
  140.0514  143.5245  152.2671 LP  0  0  0  0  0  0  0  0  0  0  0  0  # atno 17343 bound_to 10162
  156.0671  130.3690  150.0854 LP  0  0  0  0  0  0  0  0  0  0  0  0  # atno 17370 bound_to 10713
  156.9017  130.9622  151.3575 LP  0  0  0  0  0  0  0  0  0  0  0  0  # atno 17371 bound_to 10713
  141.2066  133.7830  157.0169 LP  0  0  0  0  0  0  0  0  0  0  0  0  # atno 17394 bound_to 11000
  140.0869  134.9615  157.1714 LP  0  0  0  0  0  0  0  0  0  0  0  0  # atno 17395 bound_to 11000

$$$$
