AV-unprocessed.smi:1444|AV-procd|sdf|5882|dock7
  -GOLD-   22720 5563D 1   1.00000     0.00000
 Structure written by MMmdl.
 43 44  0  0  0  0  0  0  0  0  1 V2000
  151.8935  138.2661  154.2323 C   0  0  0  0  0  0  0  0  0  0  0  0
  150.4919  138.2057  153.9911 O   0  0  0  0  0  0  0  0  0  0  0  0
  149.7215  139.3123  154.2939 C   0  0  0  0  0  0  0  0  0  0  0  0
  150.3352  140.4000  154.8242 N   0  0  0  0  0  0  0  0  0  0  0  0
  149.5853  141.4824  155.1175 C   0  0  0  0  0  0  0  0  0  0  0  0
  148.1978  141.5418  154.8935 C   0  0  0  0  0  0  0  0  0  0  0  0
  147.5589  140.4150  154.3438 C   0  0  0  0  0  0  0  0  0  0  0  0
  148.3298  139.2654  154.0455 C   0  0  0  0  0  0  0  0  0  0  0  0
  147.7870  138.0837  153.4701 N   0  0  0  0  0  0  0  0  0  0  0  0
  146.5518  137.5755  153.6167 C   0  0  0  0  0  0  0  0  0  0  0  0
  145.6604  138.0622  154.3121 O   0  0  0  0  0  0  0  0  0  0  0  0
  146.4115  136.4378  152.9210 N   0  0  0  0  0  0  0  0  0  0  0  0
  145.2060  135.6134  152.8728 C   0  0  1  0  0  0  0  0  0  0  0  0
  144.2254  136.2803  151.8953 C   0  0  0  0  0  0  0  0  0  0  0  0
  145.6067  134.1606  152.5131 C   0  0  0  0  0  0  0  0  0  0  0  0
  145.2986  133.7130  151.1515 N   0  0  0  0  0  0  0  0  0  0  0  0
  146.0790  132.5417  150.7509 C   0  0  0  0  0  0  0  0  0  0  0  0
  145.7200  132.0653  149.3325 C   0  0  0  0  0  0  0  0  0  0  0  0
  144.3273  131.7813  149.2609 O   0  0  0  0  0  0  0  0  0  0  0  0
  143.5237  132.9043  149.6043 C   0  0  0  0  0  0  0  0  0  0  0  0
  143.8824  133.3773  151.0238 C   0  0  0  0  0  0  0  0  0  0  0  0
  152.3489  137.3171  153.9503 H   0  0  0  0  0  0  0  0  0  0  0  0
  152.1109  138.4355  155.2880 H   0  0  0  0  0  0  0  0  0  0  0  0
  152.3668  139.0494  153.6386 H   0  0  0  0  0  0  0  0  0  0  0  0
  150.1083  142.3290  155.5369 H   0  0  0  0  0  0  0  0  0  0  0  0
  147.6368  142.4331  155.1329 H   0  0  0  0  0  0  0  0  0  0  0  0
  146.4986  140.4596  154.1490 H   0  0  0  0  0  0  0  0  0  0  0  0
  148.4402  137.5222  152.9433 H   0  0  0  0  0  0  0  0  0  0  0  0
  147.2012  136.1133  152.3822 H   0  0  0  0  0  0  0  0  0  0  0  0
  144.7447  135.6179  153.8623 H   0  0  0  0  0  0  0  0  0  0  0  0
  143.2144  135.8960  152.0183 H   0  0  0  0  0  0  0  0  0  0  0  0
  144.5303  136.1344  150.8586 H   0  0  0  0  0  0  0  0  0  0  0  0
  144.1639  137.3544  152.0747 H   0  0  0  0  0  0  0  0  0  0  0  0
  146.6610  133.9905  152.7363 H   0  0  0  0  0  0  0  0  0  0  0  0
  145.0657  133.5153  153.2072 H   0  0  0  0  0  0  0  0  0  0  0  0
  147.1435  132.7513  150.7805 H   0  0  0  0  0  0  0  0  0  0  0  0
  145.9075  131.7253  151.4542 H   0  0  0  0  0  0  0  0  0  0  0  0
  145.9835  132.8222  148.5920 H   0  0  0  0  0  0  0  0  0  0  0  0
  146.2794  131.1636  149.0832 H   0  0  0  0  0  0  0  0  0  0  0  0
  143.6757  133.7059  148.8797 H   0  0  0  0  0  0  0  0  0  0  0  0
  142.4727  132.6198  149.5528 H   0  0  0  0  0  0  0  0  0  0  0  0
  143.6200  132.5977  151.7408 H   0  0  0  0  0  0  0  0  0  0  0  0
  143.2714  134.2465  151.2709 H   0  0  0  0  0  0  0  0  0  0  0  0
  1  2  1  0  0  0  0
  1 22  1  0  0  0  0
  1 23  1  0  0  0  0
  1 24  1  0  0  0  0
  2  3  1  0  0  0  0
  3  8  1  0  0  0  0
  3  4  2  0  0  0  0
  4  5  1  0  0  0  0
  5  6  2  0  0  0  0
  5 25  1  0  0  0  0
  6  7  1  0  0  0  0
  6 26  1  0  0  0  0
  7  8  2  0  0  0  0
  7 27  1  0  0  0  0
  8  9  1  0  0  0  0
  9 10  1  0  0  0  0
  9 28  1  0  0  0  0
 10 11  2  0  0  0  0
 10 12  1  0  0  0  0
 12 13  1  0  0  0  0
 12 29  1  0  0  0  0
 13 14  1  0  0  0  0
 13 15  1  0  0  0  0
 13 30  1  0  0  0  0
 14 31  1  0  0  0  0
 14 32  1  0  0  0  0
 14 33  1  0  0  0  0
 15 16  1  0  0  0  0
 15 34  1  0  0  0  0
 15 35  1  0  0  0  0
 16 21  1  0  0  0  0
 16 17  1  0  0  0  0
 17 18  1  0  0  0  0
 17 36  1  0  0  0  0
 17 37  1  0  0  0  0
 18 19  1  0  0  0  0
 18 38  1  0  0  0  0
 18 39  1  0  0  0  0
 19 20  1  0  0  0  0
 20 21  1  0  0  0  0
 20 40  1  0  0  0  0
 20 41  1  0  0  0  0
 21 42  1  0  0  0  0
 21 43  1  0  0  0  0
M  END
> <s_m_source_file>
AV-unprocessed.smi

> <i_m_source_file_index>
1444

> <i_lp_mmshare_version>
43012

> <i_f3d_flags>
0

> <s_epik_input>
W0NIM11PYzFuW2NIXVtjSF1bY0hdYzFbTkhdQyg9TylbTkhdW0NASF0oW0NIM10pW0NIMl1OMltDSDJdW0NIMl1PW0NIMl1bQ0gyXTI=

> <s_epik_cmdline>
J2VwaWtfcHl0aG9uJywgJy1waCcsICc3LjAnLCAnLXRuJywgJzgnLCAnLW1hJywgJzIwMCcsICctbWV0YWxfYmluZGluZycsICctaW1hZScsICc8aW5maWxlLm1hZT4nLCAnLW9tYWUnLCAnPG91dGZpbGUubWFlPic=

> <r_lp_tautomer_probability>
1

> <r_epik_Ionization_Penalty>
0.266086

> <r_epik_Ionization_Penalty_Charging>
0

> <r_epik_Ionization_Penalty_Neutral>
0.266086

> <r_epik_State_Penalty>
0.257924

> <r_epik_Charging_Adjusted_Penalty>
0.257924

> <i_epik_Tot_Q>
0

> <i_epik_Tot_abs_Q>
0

> <r_epik_Metal_State_Penalty>
0.25792

> <b_epik_Metal_Only>
0

> <s_lp_Force_Field>
OPLS_2005

> <r_lp_Energy>
29.2348

> <b_lp_Chiralities_Consistent>
1

> <s_lp_Variant>
AV-unprocessed.smi:1444-2

> <Gold.Version>
5.8.1

> <Gold.Id.Protein>
6NUR|6NUR_protein|mol2

> <Gold.PLP.Fitness>
44.5155

> <Gold.PLP.PLP>
-34.3620

> <Gold.PLP.part.hbond>
-4.0000

> <Gold.PLP.part.metal>
0.0000

> <Gold.PLP.part.buried>
-0.1921

> <Gold.PLP.part.nonpolar>
-29.8707

> <Gold.PLP.part.repulsive>
0.7796

> <Gold.PLP.ligand.clash>
0.0000

> <Gold.PLP.ligand.torsion>
1.3058

> <Gold.PLP.Chemscore.Hbond>
3.3564

> <Gold.PLP.Chemscore.CHOScore>
0.8852

> <Gold.PLP.Chemscore.Metal>
0.0000

> <Gold.Chemscore.Hbonds>
donor molecule, donor type, donor heavy atom, donor atom, acceptor molecule, acceptor atom, score
      L1  H     9    28       P1  7948  1.00
      L1  H    12    29       P1  7948  1.00
      P1  H  7989  7998       L1     4  1.00
      P1  H 10785 10796       L1    19  0.51
      L1  C     5    25       P1  8028  0.49

> <Gold.PLP.Chemscore.Internal.Correction>
0.0403

> <Gold.Rescore>
     Score         DG    S(hbond)    S(metal)    S(lipo)     H(rot)  DE(clash)    DE(int)     intcor
     15.79     -20.06       2.74        0.00      84.05       1.72       1.85       2.41       ----

> <Gold.Chemscore.Fitness>
15.7916

> <Gold.Chemscore.DG>
-20.0562

> <Gold.Chemscore.ZeroCoef>
-5.4800

> <Gold.Chemscore.Hbond>
2.7375

> <Gold.Chemscore.Metal>
0.0000

> <Gold.Chemscore.Lipo>
84.0459

> <Gold.Chemscore.Internal_Hbond>
0.0000

> <Gold.Chemscore.DEClash>
1.8531

> <Gold.Chemscore.DEInternal>
2.4114

> <Gold.Chemscore.Rot>
1.7189

> <Gold.Chemscore.Internal.Correction>
   9.000000E+99

> <Gold.Chemscore.Hbonds>
donor molecule, donor type, donor heavy atom, donor atom, acceptor molecule, acceptor atom, score
      L1  H     9    28       P1  7948  0.99
      L1  H    12    29       P1  7948  0.97
      P1  H  7989  7998       L1     4  0.30
      P1  H 10785 10796       L1    19  0.40

> <Gold.Chemscore.Hbond.Weighted>
-9.1433

> <Gold.Chemscore.Metal.Weighted>
-0.0000

> <Gold.Chemscore.Lipo.Weighted>
-9.8334

> <Gold.Chemscore.Internal_Hbond.Weighted>
0.0000

> <Gold.Chemscore.DEClash.Weighted>
1.8531

> <Gold.Chemscore.DEInternal.Weighted>
2.4114

> <Gold.Chemscore.Rot.Weighted>
4.4004

> <Gold.Chemscore.Internal.Correction.Weighted>
   9.000000E+99

> <Gold.Protein.RotatedTorsions>
[ 6907 6896 6895 6894 ] final -114.88 input  -60.11 | X-H torsion
[ 7974 7965 7964 7962 ] final  -39.87 input  175.53 | X-H torsion
[ 8008 7997 7996 7995 ] final  -78.70 input   59.86 | X-H torsion
[ 10167 10162 10161 10158 ] final  158.30 input  -65.29 | X-H torsion
[ 10718 10713 10712 10709 ] final  133.57 input   66.30 | X-H torsion
[ 10763 10752 10751 10750 ] final  -59.78 input  -60.55 | X-H torsion
[ 11005 11000 10999 10996 ] final  -66.55 input  -57.11 | X-H torsion

> <Gold.Protein.ActiveResidues>
 VAL166  LYS551  ARG553  GLY616  TRP617  ASP618  TYR619  PRO620  LYS621  CYS622 
 ASP623  PHE694  ASN695  SER759  ASP760  ASP761  ALA762  ILE779  LEU786  VAL792 
 PHE793  MET794  SER795  GLU796  ALA797  LYS798  CYS799  TRP800  GLU811  SER814 

> <Gold.Protein.RotatedAtoms>
  150.7935  133.8738  159.3265 H   0  0  0  0  0  0  0  0  0  0  0  0  # atno 6907 bound_to 6896
  151.6569  135.0992  160.0181 H   0  0  0  0  0  0  0  0  0  0  0  0  # atno 6908 bound_to 6896
  152.4014  133.6784  159.6354 H   0  0  0  0  0  0  0  0  0  0  0  0  # atno 6909 bound_to 6896
  146.0357  140.6675  142.9111 H   0  0  0  0  0  0  0  0  0  0  0  0  # atno 7974 bound_to 7965
  154.5714  140.0690  156.8970 H   0  0  0  0  0  0  0  0  0  0  0  0  # atno 8008 bound_to 7997
  155.2627  140.3359  155.4253 H   0  0  0  0  0  0  0  0  0  0  0  0  # atno 8009 bound_to 7997
  156.2121  140.1763  156.7656 H   0  0  0  0  0  0  0  0  0  0  0  0  # atno 8010 bound_to 7997
  139.4826  144.4837  151.8408 H   0  0  0  0  0  0  0  0  0  0  0  0  # atno 10167 bound_to 10162
  157.4760  131.1083  150.9743 H   0  0  0  0  0  0  0  0  0  0  0  0  # atno 10718 bound_to 10713
  154.2591  135.6311  153.5268 H   0  0  0  0  0  0  0  0  0  0  0  0  # atno 10763 bound_to 10752
  152.9899  135.5583  154.5724 H   0  0  0  0  0  0  0  0  0  0  0  0  # atno 10764 bound_to 10752
  154.5269  135.2886  155.1189 H   0  0  0  0  0  0  0  0  0  0  0  0  # atno 10765 bound_to 10752
  141.1485  133.6701  156.6157 H   0  0  0  0  0  0  0  0  0  0  0  0  # atno 11005 bound_to 11000
  144.7050  140.3816  143.7125 LP  0  0  0  0  0  0  0  0  0  0  0  0  # atno 17320 bound_to 7965
  145.6968  139.1652  143.2615 LP  0  0  0  0  0  0  0  0  0  0  0  0  # atno 17321 bound_to 7965
  140.4315  144.2109  150.5888 LP  0  0  0  0  0  0  0  0  0  0  0  0  # atno 17342 bound_to 10162
  140.4774  143.2391  151.9003 LP  0  0  0  0  0  0  0  0  0  0  0  0  # atno 17343 bound_to 10162
  157.0492  130.5780  149.5367 LP  0  0  0  0  0  0  0  0  0  0  0  0  # atno 17370 bound_to 10713
  156.0097  130.5187  150.7948 LP  0  0  0  0  0  0  0  0  0  0  0  0  # atno 17371 bound_to 10713
  140.3580  134.7712  157.4514 LP  0  0  0  0  0  0  0  0  0  0  0  0  # atno 17394 bound_to 11000
  140.0808  134.5734  155.8543 LP  0  0  0  0  0  0  0  0  0  0  0  0  # atno 17395 bound_to 11000

$$$$
