AV-unprocessed.smi:1440|AV-procd|sdf|5874|dock3
  -GOLD-   22720 5553D 1   1.00000     0.00000
 Structure written by MMmdl.
 41 42  0  0  0  0  0  0  0  0  1 V2000
  146.2401  131.7774  149.8727 C   0  0  0  0  0  0  0  0  0  0  0  0
  145.6854  132.6439  151.0122 C   0  0  2  0  0  0  0  0  0  0  0  0
  146.1172  134.1153  150.8627 C   0  0  0  0  0  0  0  0  0  0  0  0
  145.5698  134.9888  152.0064 C   0  0  0  0  0  0  0  0  0  0  0  0
  145.9586  134.4459  153.3951 C   0  0  2  0  0  0  0  0  0  0  0  0
  147.3897  134.6344  153.6284 N   0  0  0  0  0  0  0  0  0  0  0  0
  148.0513  134.2861  154.7422 C   0  0  0  0  0  0  0  0  0  0  0  0
  147.5076  133.7527  155.7107 O   0  0  0  0  0  0  0  0  0  0  0  0
  149.5572  134.5780  154.7390 C   0  0  0  0  0  0  0  0  0  0  0  0
  149.8926  135.8964  154.2067 N   0  0  0  0  0  0  0  0  0  0  0  0
  150.8464  136.7094  154.6888 C   0  0  0  0  0  0  0  0  0  0  0  0
  151.5539  136.4277  155.6555 O   0  0  0  0  0  0  0  0  0  0  0  0
  151.0314  138.0455  153.9684 C   0  0  0  0  0  0  0  0  0  0  0  0
  150.9984  139.1531  154.9060 N   0  0  0  0  0  0  0  0  0  0  0  0
  150.8907  139.1610  156.2361 C   0  0  0  0  0  0  0  0  0  0  0  0
  150.8851  140.3765  156.7654 N   0  0  0  0  0  0  0  0  0  0  0  0
  151.0018  141.1222  155.6263 C   0  0  0  0  0  0  0  0  0  0  0  0
  151.0735  140.4380  154.4844 N   0  0  0  0  0  0  0  0  0  0  0  0
  145.5507  132.9637  153.5351 C   0  0  0  0  0  0  0  0  0  0  0  0
  146.1040  132.0970  152.3903 C   0  0  0  0  0  0  0  0  0  0  0  0
  147.3306  131.7752  149.8702 H   0  0  0  0  0  0  0  0  0  0  0  0
  145.9053  132.1445  148.9022 H   0  0  0  0  0  0  0  0  0  0  0  0
  145.9052  130.7440  149.9668 H   0  0  0  0  0  0  0  0  0  0  0  0
  144.5967  132.6057  150.9532 H   0  0  0  0  0  0  0  0  0  0  0  0
  147.2057  134.1802  150.8399 H   0  0  0  0  0  0  0  0  0  0  0  0
  145.7683  134.5092  149.9075 H   0  0  0  0  0  0  0  0  0  0  0  0
  145.9174  136.0162  151.8914 H   0  0  0  0  0  0  0  0  0  0  0  0
  144.4823  135.0286  151.9312 H   0  0  0  0  0  0  0  0  0  0  0  0
  145.4183  135.0277  154.1441 H   0  0  0  0  0  0  0  0  0  0  0  0
  147.9169  135.0628  152.8811 H   0  0  0  0  0  0  0  0  0  0  0  0
  149.9233  134.5229  155.7645 H   0  0  0  0  0  0  0  0  0  0  0  0
  150.0795  133.8008  154.1782 H   0  0  0  0  0  0  0  0  0  0  0  0
  149.3641  136.2116  153.4058 H   0  0  0  0  0  0  0  0  0  0  0  0
  151.9882  138.0591  153.4447 H   0  0  0  0  0  0  0  0  0  0  0  0
  150.2510  138.1771  153.2172 H   0  0  0  0  0  0  0  0  0  0  0  0
  150.8107  138.2602  156.8270 H   0  0  0  0  0  0  0  0  0  0  0  0
  151.0343  142.2017  155.6390 H   0  0  0  0  0  0  0  0  0  0  0  0
  145.8765  132.5644  154.4962 H   0  0  0  0  0  0  0  0  0  0  0  0
  144.4624  132.8943  153.5371 H   0  0  0  0  0  0  0  0  0  0  0  0
  145.7489  131.0728  152.5074 H   0  0  0  0  0  0  0  0  0  0  0  0
  147.1919  132.0530  152.4565 H   0  0  0  0  0  0  0  0  0  0  0  0
  1  2  1  0  0  0  0
  1 21  1  0  0  0  0
  1 22  1  0  0  0  0
  1 23  1  0  0  0  0
  2 20  1  0  0  0  0
  2  3  1  0  0  0  0
  2 24  1  0  0  0  0
  3  4  1  0  0  0  0
  3 25  1  0  0  0  0
  3 26  1  0  0  0  0
  4  5  1  0  0  0  0
  4 27  1  0  0  0  0
  4 28  1  0  0  0  0
  5  6  1  0  0  0  0
  5 19  1  0  0  0  0
  5 29  1  0  0  0  0
  6  7  1  0  0  0  0
  6 30  1  0  0  0  0
  7  8  2  0  0  0  0
  7  9  1  0  0  0  0
  9 10  1  0  0  0  0
  9 31  1  0  0  0  0
  9 32  1  0  0  0  0
 10 11  1  0  0  0  0
 10 33  1  0  0  0  0
 11 12  2  0  0  0  0
 11 13  1  0  0  0  0
 13 14  1  0  0  0  0
 13 34  1  0  0  0  0
 13 35  1  0  0  0  0
 14 18  1  0  0  0  0
 14 15  1  0  0  0  0
 15 16  2  0  0  0  0
 15 36  1  0  0  0  0
 16 17  1  0  0  0  0
 17 18  2  0  0  0  0
 17 37  1  0  0  0  0
 19 20  1  0  0  0  0
 19 38  1  0  0  0  0
 19 39  1  0  0  0  0
 20 40  1  0  0  0  0
 20 41  1  0  0  0  0
M  END
> <s_m_source_file>
AV-unprocessed.smi

> <i_m_source_file_index>
1440

> <i_lp_mmshare_version>
43012

> <i_f3d_flags>
0

> <s_epik_input>
W0NIM11bQ0BASF0xW0NIMl1bQ0gyXVtDQEhdKFtDSDJdW0NIMl0xKVtOSF1DKD1PKVtDSDJdW05IXUMoPU8pW0NIMl1uMltjSF1uW2NIXW4y

> <s_epik_cmdline>
J2VwaWtfcHl0aG9uJywgJy1waCcsICc3LjAnLCAnLXRuJywgJzgnLCAnLW1hJywgJzIwMCcsICctbWV0YWxfYmluZGluZycsICctaW1hZScsICc8aW5maWxlLm1hZT4nLCAnLW9tYWUnLCAnPG91dGZpbGUubWFlPic=

> <r_lp_tautomer_probability>
1

> <r_epik_Ionization_Penalty>
7.34071e-06

> <r_epik_Ionization_Penalty_Charging>
0

> <r_epik_Ionization_Penalty_Neutral>
7.34071e-06

> <r_epik_State_Penalty>
-0

> <r_epik_Charging_Adjusted_Penalty>
0

> <i_epik_Tot_Q>
0

> <i_epik_Tot_abs_Q>
0

> <r_epik_Metal_State_Penalty>
-0

> <b_epik_Metal_Only>
0

> <s_lp_Force_Field>
OPLS_2005

> <r_lp_Energy>
6.43363

> <b_lp_Chiralities_Consistent>
1

> <s_lp_Variant>
AV-unprocessed.smi:1440-2

> <Gold.Version>
5.8.1

> <Gold.Id.Protein>
6NUR|6NUR_protein|mol2

> <Gold.PLP.Fitness>
41.5766

> <Gold.PLP.PLP>
-30.4423

> <Gold.PLP.part.hbond>
-4.8972

> <Gold.PLP.part.metal>
0.0000

> <Gold.PLP.part.buried>
0.1965

> <Gold.PLP.part.nonpolar>
-24.4983

> <Gold.PLP.part.repulsive>
0.1910

> <Gold.PLP.ligand.clash>
0.0000

> <Gold.PLP.ligand.torsion>
0.4434

> <Gold.PLP.Chemscore.Hbond>
4.0000

> <Gold.PLP.Chemscore.CHOScore>
0.0000

> <Gold.PLP.Chemscore.Metal>
0.0000

> <Gold.Chemscore.Hbonds>
donor molecule, donor type, donor heavy atom, donor atom, acceptor molecule, acceptor atom, score
      L1  H     6    30       P1  7948  1.00
      L1  H    10    33       P1  7948  1.00
      P1  H  7989  7998       L1    18  0.21
      P1  H 10752 10764       L1    12  1.00

> <Gold.PLP.Chemscore.Internal.Correction>
0.0210

> <Gold.Rescore>
     Score         DG    S(hbond)    S(metal)    S(lipo)     H(rot)  DE(clash)    DE(int)     intcor
     14.85     -16.55       3.60        0.00      54.58       2.86       0.03       1.67       ----

> <Gold.Chemscore.Fitness>
14.8547

> <Gold.Chemscore.DG>
-16.5523

> <Gold.Chemscore.ZeroCoef>
-5.4800

> <Gold.Chemscore.Hbond>
3.5969

> <Gold.Chemscore.Metal>
0.0000

> <Gold.Chemscore.Lipo>
54.5786

> <Gold.Chemscore.Internal_Hbond>
0.0000

> <Gold.Chemscore.DEClash>
0.0280

> <Gold.Chemscore.DEInternal>
1.6696

> <Gold.Chemscore.Rot>
2.8621

> <Gold.Chemscore.Internal.Correction>
   9.000000E+99

> <Gold.Chemscore.Hbonds>
donor molecule, donor type, donor heavy atom, donor atom, acceptor molecule, acceptor atom, score
      L1  H     6    30       P1  7948  0.98
      L1  H    10    33       P1  7948  0.66
      P1  H  7989  7998       L1    18  0.21
      P1  H 10752 10764       L1    12  0.71

> <Gold.Chemscore.Hbond.Weighted>
-12.0136

> <Gold.Chemscore.Metal.Weighted>
-0.0000

> <Gold.Chemscore.Lipo.Weighted>
-6.3857

> <Gold.Chemscore.Internal_Hbond.Weighted>
0.0000

> <Gold.Chemscore.DEClash.Weighted>
0.0280

> <Gold.Chemscore.DEInternal.Weighted>
1.6696

> <Gold.Chemscore.Rot.Weighted>
7.3270

> <Gold.Chemscore.Internal.Correction.Weighted>
   9.000000E+99

> <Gold.Protein.RotatedTorsions>
[ 6907 6896 6895 6894 ] final  -92.31 input  -60.11 | X-H torsion
[ 7974 7965 7964 7962 ] final  146.12 input  175.53 | X-H torsion
[ 8008 7997 7996 7995 ] final  122.40 input   59.86 | X-H torsion
[ 10167 10162 10161 10158 ] final  122.51 input  -65.29 | X-H torsion
[ 10718 10713 10712 10709 ] final -112.74 input   66.30 | X-H torsion
[ 10763 10752 10751 10750 ] final  -26.78 input  -60.55 | X-H torsion
[ 11005 11000 10999 10996 ] final   73.28 input  -57.11 | X-H torsion

> <Gold.Protein.ActiveResidues>
 VAL166  LYS551  ARG553  GLY616  TRP617  ASP618  TYR619  PRO620  LYS621  CYS622 
 ASP623  PHE694  ASN695  SER759  ASP760  ASP761  ALA762  ILE779  LEU786  VAL792 
 PHE793  MET794  SER795  GLU796  ALA797  LYS798  CYS799  TRP800  GLU811  SER814 

> <Gold.Protein.RotatedAtoms>
  150.6904  134.2142  159.4371 H   0  0  0  0  0  0  0  0  0  0  0  0  # atno 6907 bound_to 6896
  152.0102  134.9878  160.0577 H   0  0  0  0  0  0  0  0  0  0  0  0  # atno 6908 bound_to 6896
  152.1496  133.4478  159.4843 H   0  0  0  0  0  0  0  0  0  0  0  0  # atno 6909 bound_to 6896
  144.8697  139.5866  143.5892 H   0  0  0  0  0  0  0  0  0  0  0  0  # atno 7974 bound_to 7965
  156.2726  140.2786  156.1462 H   0  0  0  0  0  0  0  0  0  0  0  0  # atno 8008 bound_to 7997
  155.0902  140.0388  157.2684 H   0  0  0  0  0  0  0  0  0  0  0  0  # atno 8009 bound_to 7997
  154.6895  140.2626  155.6832 H   0  0  0  0  0  0  0  0  0  0  0  0  # atno 8010 bound_to 7997
  139.5854  144.7004  151.3422 H   0  0  0  0  0  0  0  0  0  0  0  0  # atno 10167 bound_to 10162
  156.0724  130.5936  150.8549 H   0  0  0  0  0  0  0  0  0  0  0  0  # atno 10718 bound_to 10713
  153.7215  135.6944  153.5011 H   0  0  0  0  0  0  0  0  0  0  0  0  # atno 10763 bound_to 10752
  153.2200  135.4373  155.0478 H   0  0  0  0  0  0  0  0  0  0  0  0  # atno 10764 bound_to 10752
  154.8283  135.3458  154.6748 H   0  0  0  0  0  0  0  0  0  0  0  0  # atno 10765 bound_to 10752
  139.9448  134.7333  156.1007 H   0  0  0  0  0  0  0  0  0  0  0  0  # atno 11005 bound_to 11000
  146.2921  139.7170  142.9153 LP  0  0  0  0  0  0  0  0  0  0  0  0  # atno 17320 bound_to 7965
  145.4154  141.0401  143.2993 LP  0  0  0  0  0  0  0  0  0  0  0  0  # atno 17321 bound_to 7965
  140.7126  143.7349  150.7596 LP  0  0  0  0  0  0  0  0  0  0  0  0  # atno 17342 bound_to 10162
  140.0892  143.4893  152.2488 LP  0  0  0  0  0  0  0  0  0  0  0  0  # atno 17343 bound_to 10162
  157.5802  131.0946  150.9283 LP  0  0  0  0  0  0  0  0  0  0  0  0  # atno 17370 bound_to 10713
  156.9481  130.5409  149.5281 LP  0  0  0  0  0  0  0  0  0  0  0  0  # atno 17371 bound_to 10713
  141.1095  133.6648  156.2944 LP  0  0  0  0  0  0  0  0  0  0  0  0  # atno 17394 bound_to 11000
  140.5862  134.5696  157.5490 LP  0  0  0  0  0  0  0  0  0  0  0  0  # atno 17395 bound_to 11000

$$$$
