AV-unprocessed.smi:2125|AV-procd|sdf|8674|dock9
  -GOLD-   2272011423D 1   1.00000     0.00000
 Structure written by MMmdl.
 32 33  0  0  0  0  0  0  0  0  1 V2000
  150.6660  136.6723  157.6249 C   0  0  0  0  0  0  0  0  0  0  0  0
  150.6213  137.5701  156.4898 N   0  0  0  0  0  0  0  0  0  0  0  0
  150.9293  137.0723  155.2002 C   0  0  0  0  0  0  0  0  0  0  0  0
  151.2358  135.8974  154.9960 O   0  0  0  0  0  0  0  0  0  0  0  0
  150.8527  138.0669  154.1368 C   0  0  0  0  0  0  0  0  0  0  0  0
  150.5109  139.3462  154.4052 C   0  0  0  0  0  0  0  0  0  0  0  0
  150.2142  139.8057  155.6754 N   0  0  0  0  0  0  0  0  0  0  0  0
  149.8640  141.2179  155.8755 C   0  0  0  0  0  0  0  0  0  0  0  0
  150.8481  141.9599  156.7904 C   0  0  0  0  0  0  0  0  0  0  0  0
  151.6136  141.3390  157.5292 O   0  0  0  0  0  0  0  0  0  0  0  0
  150.8281  143.2987  156.7114 N   0  0  0  0  0  0  0  0  0  0  0  0
  151.6901  144.1931  157.4729 C   0  0  0  0  0  0  0  0  0  0  0  0
  151.2425  144.4504  158.8995 C   0  0  0  0  0  0  0  0  0  0  0  0
  151.8574  145.5569  159.7260 C   0  0  0  0  0  0  0  0  0  0  0  0
  152.1535  144.1148  160.0572 C   0  0  0  0  0  0  0  0  0  0  0  0
  150.2669  138.9091  156.7638 C   0  0  0  0  0  0  0  0  0  0  0  0
  150.0117  139.2916  157.9087 O   0  0  0  0  0  0  0  0  0  0  0  0
  150.9411  135.6623  157.3236 H   0  0  0  0  0  0  0  0  0  0  0  0
  149.6699  136.6657  158.0713 H   0  0  0  0  0  0  0  0  0  0  0  0
  151.4106  137.0664  158.3187 H   0  0  0  0  0  0  0  0  0  0  0  0
  151.0736  137.7755  153.1206 H   0  0  0  0  0  0  0  0  0  0  0  0
  150.4718  140.0457  153.5827 H   0  0  0  0  0  0  0  0  0  0  0  0
  149.8401  141.7328  154.9143 H   0  0  0  0  0  0  0  0  0  0  0  0
  148.8526  141.3002  156.2779 H   0  0  0  0  0  0  0  0  0  0  0  0
  150.1701  143.7281  156.0771 H   0  0  0  0  0  0  0  0  0  0  0  0
  152.6825  143.7429  157.5057 H   0  0  0  0  0  0  0  0  0  0  0  0
  151.8037  145.1418  156.9451 H   0  0  0  0  0  0  0  0  0  0  0  0
  150.1858  144.2519  159.0686 H   0  0  0  0  0  0  0  0  0  0  0  0
  152.6563  146.1431  159.2761 H   0  0  0  0  0  0  0  0  0  0  0  0
  151.1998  146.1045  160.3980 H   0  0  0  0  0  0  0  0  0  0  0  0
  151.6954  143.7003  160.9530 H   0  0  0  0  0  0  0  0  0  0  0  0
  153.1502  143.7426  159.8278 H   0  0  0  0  0  0  0  0  0  0  0  0
  1  2  1  0  0  0  0
  1 18  1  0  0  0  0
  1 19  1  0  0  0  0
  1 20  1  0  0  0  0
  2 16  1  0  0  0  0
  2  3  1  0  0  0  0
  3  4  2  0  0  0  0
  3  5  1  0  0  0  0
  5  6  2  0  0  0  0
  5 21  1  0  0  0  0
  6  7  1  0  0  0  0
  6 22  1  0  0  0  0
  7  8  1  0  0  0  0
  7 16  1  0  0  0  0
  8  9  1  0  0  0  0
  8 23  1  0  0  0  0
  8 24  1  0  0  0  0
  9 10  2  0  0  0  0
  9 11  1  0  0  0  0
 11 12  1  0  0  0  0
 11 25  1  0  0  0  0
 12 13  1  0  0  0  0
 12 26  1  0  0  0  0
 12 27  1  0  0  0  0
 13 15  1  0  0  0  0
 13 14  1  0  0  0  0
 13 28  1  0  0  0  0
 14 15  1  0  0  0  0
 14 29  1  0  0  0  0
 14 30  1  0  0  0  0
 15 31  1  0  0  0  0
 15 32  1  0  0  0  0
 16 17  2  0  0  0  0
M  END
> <s_m_source_file>
AV-unprocessed.smi

> <i_m_source_file_index>
2125

> <i_lp_mmshare_version>
43012

> <i_f3d_flags>
0

> <s_epik_input>
W0NIM11uMWMoPU8pW2NIXVtjSF1uKGMxPU8pW0NIMl1DKD1PKVtOSF1bQ0gyXVtDSF0yW0NIMl1bQ0gyXTI=

> <s_epik_cmdline>
J2VwaWtfcHl0aG9uJywgJy1waCcsICc3LjAnLCAnLXRuJywgJzgnLCAnLW1hJywgJzIwMCcsICctbWV0YWxfYmluZGluZycsICctaW1hZScsICc8aW5maWxlLm1hZT4nLCAnLW9tYWUnLCAnPG91dGZpbGUubWFlPic=

> <r_lp_tautomer_probability>
1

> <r_epik_Ionization_Penalty>
3.09839e-08

> <r_epik_Ionization_Penalty_Charging>
1.16822e-08

> <r_epik_Ionization_Penalty_Neutral>
1.93017e-08

> <r_epik_State_Penalty>
-0

> <r_epik_Charging_Adjusted_Penalty>
1.16822e-08

> <i_epik_Tot_Q>
0

> <i_epik_Tot_abs_Q>
0

> <r_epik_Metal_State_Penalty>
-0

> <b_epik_Metal_Only>
0

> <s_lp_Force_Field>
OPLS_2005

> <r_lp_Energy>
19.7621

> <b_lp_Chiralities_Consistent>
1

> <s_lp_Variant>
AV-unprocessed.smi:2125-1

> <Gold.Version>
5.8.1

> <Gold.Id.Protein>
6NUR|6NUR_protein|mol2

> <Gold.PLP.Fitness>
42.2457

> <Gold.PLP.PLP>
-34.4246

> <Gold.PLP.part.hbond>
-2.0000

> <Gold.PLP.part.metal>
0.0000

> <Gold.PLP.part.buried>
-3.8652

> <Gold.PLP.part.nonpolar>
-29.3391

> <Gold.PLP.part.repulsive>
0.2033

> <Gold.PLP.ligand.clash>
0.0000

> <Gold.PLP.ligand.torsion>
0.8102

> <Gold.PLP.Chemscore.Hbond>
2.0000

> <Gold.PLP.Chemscore.CHOScore>
0.9668

> <Gold.PLP.Chemscore.Metal>
0.0000

> <Gold.Chemscore.Hbonds>
donor molecule, donor type, donor heavy atom, donor atom, acceptor molecule, acceptor atom, score
      L1  H    11    25       P1  8028  1.00
      P1  H 10752 10765       L1     4  1.00
      L1  C     6    22       P1  7957  0.92

> <Gold.PLP.Chemscore.Internal.Correction>
0.5411

> <Gold.Rescore>
     Score         DG    S(hbond)    S(metal)    S(lipo)     H(rot)  DE(clash)    DE(int)     intcor
     15.16     -16.14       1.95        0.00      74.99       1.81       0.15       0.83       ----

> <Gold.Chemscore.Fitness>
15.1574

> <Gold.Chemscore.DG>
-16.1436

> <Gold.Chemscore.ZeroCoef>
-5.4800

> <Gold.Chemscore.Hbond>
1.9540

> <Gold.Chemscore.Metal>
0.0000

> <Gold.Chemscore.Lipo>
74.9899

> <Gold.Chemscore.Internal_Hbond>
0.0000

> <Gold.Chemscore.DEClash>
0.1546

> <Gold.Chemscore.DEInternal>
0.8316

> <Gold.Chemscore.Rot>
1.8112

> <Gold.Chemscore.Internal.Correction>
   9.000000E+99

> <Gold.Chemscore.Hbonds>
donor molecule, donor type, donor heavy atom, donor atom, acceptor molecule, acceptor atom, score
      L1  H    11    25       P1  8028  0.98
      P1  H 10752 10765       L1     4  0.94

> <Gold.Chemscore.Hbond.Weighted>
-6.5265

> <Gold.Chemscore.Metal.Weighted>
-0.0000

> <Gold.Chemscore.Lipo.Weighted>
-8.7738

> <Gold.Chemscore.Internal_Hbond.Weighted>
0.0000

> <Gold.Chemscore.DEClash.Weighted>
0.1546

> <Gold.Chemscore.DEInternal.Weighted>
0.8316

> <Gold.Chemscore.Rot.Weighted>
4.6367

> <Gold.Chemscore.Internal.Correction.Weighted>
   9.000000E+99

> <Gold.Protein.RotatedTorsions>
[ 6907 6896 6895 6894 ] final -117.84 input  -60.11 | X-H torsion
[ 7974 7965 7964 7962 ] final  -36.72 input  175.53 | X-H torsion
[ 8008 7997 7996 7995 ] final  -64.53 input   59.86 | X-H torsion
[ 10167 10162 10161 10158 ] final   81.47 input  -65.29 | X-H torsion
[ 10718 10713 10712 10709 ] final   73.87 input   66.30 | X-H torsion
[ 10763 10752 10751 10750 ] final -170.91 input  -60.55 | X-H torsion
[ 11005 11000 10999 10996 ] final -123.17 input  -57.11 | X-H torsion

> <Gold.Protein.ActiveResidues>
 VAL166  LYS551  ARG553  GLY616  TRP617  ASP618  TYR619  PRO620  LYS621  CYS622 
 ASP623  PHE694  ASN695  SER759  ASP760  ASP761  ALA762  ILE779  LEU786  VAL792 
 PHE793  MET794  SER795  GLU796  ALA797  LYS798  CYS799  TRP800  GLU811  SER814 

> <Gold.Protein.RotatedAtoms>
  150.8170  133.8320  159.3155 H   0  0  0  0  0  0  0  0  0  0  0  0  # atno 6907 bound_to 6896
  151.6089  135.1040  160.0086 H   0  0  0  0  0  0  0  0  0  0  0  0  # atno 6908 bound_to 6896
  152.4261  133.7157  159.6561 H   0  0  0  0  0  0  0  0  0  0  0  0  # atno 6909 bound_to 6896
  146.0637  140.6312  142.8985 H   0  0  0  0  0  0  0  0  0  0  0  0  # atno 7974 bound_to 7965
  154.4617  140.0952  156.6912 H   0  0  0  0  0  0  0  0  0  0  0  0  # atno 8008 bound_to 7997
  155.4974  140.3472  155.4347 H   0  0  0  0  0  0  0  0  0  0  0  0  # atno 8009 bound_to 7997
  156.0883  140.1390  156.9613 H   0  0  0  0  0  0  0  0  0  0  0  0  # atno 8010 bound_to 7997
  139.9389  144.6102  150.8271 H   0  0  0  0  0  0  0  0  0  0  0  0  # atno 10167 bound_to 10162
  157.6567  130.9650  150.1130 H   0  0  0  0  0  0  0  0  0  0  0  0  # atno 10718 bound_to 10713
  154.6363  135.2893  155.0157 H   0  0  0  0  0  0  0  0  0  0  0  0  # atno 10763 bound_to 10752
  154.1299  135.6535  153.4924 H   0  0  0  0  0  0  0  0  0  0  0  0  # atno 10764 bound_to 10752
  153.0304  135.5308  154.7211 H   0  0  0  0  0  0  0  0  0  0  0  0  # atno 10765 bound_to 10752
  140.9940  134.0499  157.3620 H   0  0  0  0  0  0  0  0  0  0  0  0  # atno 11005 bound_to 11000
  144.7189  140.4307  143.7023 LP  0  0  0  0  0  0  0  0  0  0  0  0  # atno 17320 bound_to 7965
  145.6515  139.1566  143.2859 LP  0  0  0  0  0  0  0  0  0  0  0  0  # atno 17321 bound_to 7965
  140.7616  143.3179  151.2690 LP  0  0  0  0  0  0  0  0  0  0  0  0  # atno 17342 bound_to 10162
  139.6720  144.0003  152.2759 LP  0  0  0  0  0  0  0  0  0  0  0  0  # atno 17343 bound_to 10162
  156.2022  130.3661  149.8774 LP  0  0  0  0  0  0  0  0  0  0  0  0  # atno 17370 bound_to 10713
  156.6675  130.8807  151.3557 LP  0  0  0  0  0  0  0  0  0  0  0  0  # atno 17371 bound_to 10713
  139.9005  135.0163  156.7247 LP  0  0  0  0  0  0  0  0  0  0  0  0  # atno 17394 bound_to 11000
  140.6996  133.9318  155.8016 LP  0  0  0  0  0  0  0  0  0  0  0  0  # atno 17395 bound_to 11000

$$$$
