AV-unprocessed.smi:2582|AV-procd|sdf|10133|dock1
  -GOLD-   2272014143D 1   1.00000     0.00000
 Structure written by MMmdl.
 36 38  0  0  0  0  0  0  0  0  2 V2000
  151.8120  140.0680  155.2072 O   0  0  0  0  0  0  0  0  0  0  0  0
  151.1304  140.6874  156.0237 C   0  0  0  0  0  0  0  0  0  0  0  0
  151.6448  141.1144  157.3270 C   0  0  0  0  0  0  0  0  0  0  0  0
  150.8900  141.7572  158.2501 C   0  0  0  0  0  0  0  0  0  0  0  0
  151.4525  142.1288  159.4777 N   0  0  0  0  0  0  0  0  0  0  0  0
  152.8580  141.8402  159.7486 C   0  0  0  0  0  0  0  0  0  0  0  0
  152.8723  143.1189  160.5789 C   0  0  0  0  0  0  0  0  0  0  0  0
  151.6525  143.5449  159.7694 C   0  0  0  0  0  0  0  0  0  0  0  0
  149.5043  142.0026  157.8790 C   0  0  0  0  0  0  0  0  0  0  0  0
  149.0148  141.6512  156.7392 N   0  0  0  0  0  0  0  0  0  0  0  0
  149.8225  141.0242  155.8028 N   0  0  0  0  0  0  0  0  0  0  0  0
  149.1550  140.6582  154.5359 C   0  0  2  0  0  0  0  0  0  0  0  0
  147.6839  141.1328  154.4496 C   0  0  0  0  0  0  0  0  0  0  0  0
  147.0695  140.7088  153.1074 C   0  0  0  0  0  0  0  0  0  0  0  0
  147.2011  139.1897  152.9054 C   0  0  0  0  0  0  0  0  0  0  0  0
  148.6153  138.7675  153.0059 N   0  3  0  0  0  0  0  0  0  0  0  0
  149.2432  139.1357  154.2942 C   0  0  0  0  0  0  0  0  0  0  0  0
  152.6795  140.9017  157.5561 H   0  0  0  0  0  0  0  0  0  0  0  0
  153.0167  140.9282  160.3245 H   0  0  0  0  0  0  0  0  0  0  0  0
  153.5004  141.8924  158.8686 H   0  0  0  0  0  0  0  0  0  0  0  0
  152.6582  142.9551  161.6368 H   0  0  0  0  0  0  0  0  0  0  0  0
  153.7530  143.7439  160.4292 H   0  0  0  0  0  0  0  0  0  0  0  0
  151.9058  144.1434  158.8929 H   0  0  0  0  0  0  0  0  0  0  0  0
  150.8517  143.9905  160.3601 H   0  0  0  0  0  0  0  0  0  0  0  0
  148.8938  142.5058  158.6289 H   0  0  0  0  0  0  0  0  0  0  0  0
  149.6682  141.1542  153.7095 H   0  0  0  0  0  0  0  0  0  0  0  0
  147.0836  140.7015  155.2517 H   0  0  0  0  0  0  0  0  0  0  0  0
  147.6281  142.2163  154.5613 H   0  0  0  0  0  0  0  0  0  0  0  0
  146.0193  141.0006  153.0696 H   0  0  0  0  0  0  0  0  0  0  0  0
  147.5669  141.2352  152.2914 H   0  0  0  0  0  0  0  0  0  0  0  0
  146.6139  138.6550  153.6532 H   0  0  0  0  0  0  0  0  0  0  0  0
  146.8118  138.9026  151.9283 H   0  0  0  0  0  0  0  0  0  0  0  0
  148.6682  137.7655  152.8902 H   0  0  0  0  0  0  0  0  0  0  0  0
  150.2838  138.8103  154.2779 H   0  0  0  0  0  0  0  0  0  0  0  0
  148.7516  138.5893  155.1005 H   0  0  0  0  0  0  0  0  0  0  0  0
  149.1348  139.2085  152.2601 H   0  0  0  0  0  0  0  0  0  0  0  0
  1  2  2  0  0  0  0
  2 11  1  0  0  0  0
  2  3  1  0  0  0  0
  3  4  2  0  0  0  0
  3 18  1  0  0  0  0
  4  5  1  0  0  0  0
  4  9  1  0  0  0  0
  5  8  1  0  0  0  0
  5  6  1  0  0  0  0
  6  7  1  0  0  0  0
  6 19  1  0  0  0  0
  6 20  1  0  0  0  0
  7  8  1  0  0  0  0
  7 21  1  0  0  0  0
  7 22  1  0  0  0  0
  8 23  1  0  0  0  0
  8 24  1  0  0  0  0
  9 10  2  0  0  0  0
  9 25  1  0  0  0  0
 10 11  1  0  0  0  0
 11 12  1  0  0  0  0
 12 17  1  0  0  0  0
 12 13  1  0  0  0  0
 12 26  1  0  0  0  0
 13 14  1  0  0  0  0
 13 27  1  0  0  0  0
 13 28  1  0  0  0  0
 14 15  1  0  0  0  0
 14 29  1  0  0  0  0
 14 30  1  0  0  0  0
 15 16  1  0  0  0  0
 15 31  1  0  0  0  0
 15 32  1  0  0  0  0
 16 17  1  0  0  0  0
 16 33  1  0  0  0  0
 16 36  1  0  0  0  0
 17 34  1  0  0  0  0
 17 35  1  0  0  0  0
M  CHG  1  16   1
M  END
> <s_m_source_file>
AV-unprocessed.smi

> <i_m_source_file_index>
2582

> <i_lp_mmshare_version>
43012

> <i_f3d_flags>
0

> <s_epik_input>
W0NIMl0xW0NIMl1bQ0gyXU4xYyhbY0hdYzI9TylbY0hdbm4yW0NAQEhdM1tDSDJdW0NIMl1bQ0gyXVtOSF1bQ0gyXTM=

> <s_epik_cmdline>
J2VwaWtfcHl0aG9uJywgJy1waCcsICc3LjAnLCAnLXRuJywgJzgnLCAnLW1hJywgJzIwMCcsICctbWV0YWxfYmluZGluZycsICctaW1hZScsICc8aW5maWxlLm1hZT4nLCAnLW9tYWUnLCAnPG91dGZpbGUubWFlPic=

> <r_lp_tautomer_probability>
1

> <r_epik_Ionization_Penalty>
0.00148886

> <r_epik_Ionization_Penalty_Charging>
0.0014053

> <r_epik_Ionization_Penalty_Neutral>
8.35615e-05

> <r_epik_State_Penalty>
-0

> <r_epik_Charging_Adjusted_Penalty>
0.0014053

> <i_epik_Tot_Q>
1

> <i_epik_Tot_abs_Q>
1

> <r_epik_Metal_State_Penalty>
-0

> <b_epik_Metal_Only>
0

> <s_lp_Force_Field>
OPLS_2005

> <r_lp_Energy>
54.701

> <b_lp_Chiralities_Consistent>
1

> <s_lp_Variant>
AV-unprocessed.smi:2582-1

> <Gold.Version>
5.8.1

> <Gold.Id.Protein>
6NUR|6NUR_protein|mol2

> <Gold.PLP.Fitness>
48.8053

> <Gold.PLP.PLP>
-37.4938

> <Gold.PLP.part.hbond>
-3.0813

> <Gold.PLP.part.metal>
0.0000

> <Gold.PLP.part.buried>
-5.3219

> <Gold.PLP.part.nonpolar>
-29.8250

> <Gold.PLP.part.repulsive>
0.2194

> <Gold.PLP.ligand.clash>
0.0000

> <Gold.PLP.ligand.torsion>
0.0936

> <Gold.PLP.Chemscore.Hbond>
3.7910

> <Gold.PLP.Chemscore.CHOScore>
0.0000

> <Gold.PLP.Chemscore.Metal>
0.0000

> <Gold.Chemscore.Hbonds>
donor molecule, donor type, donor heavy atom, donor atom, acceptor molecule, acceptor atom, score
      L1  H    16    33       P1  7948  2.00
      L1  H    16    36       P1  7957  0.78
      P1  H  7989  7998       L1     1  0.90

> <Gold.PLP.Chemscore.Internal.Correction>
0.1256

> <Gold.Rescore>
     Score         DG    S(hbond)    S(metal)    S(lipo)     H(rot)  DE(clash)    DE(int)     intcor
     20.16     -21.53       2.80        0.00      83.44       1.20       0.02       1.36       ----

> <Gold.Chemscore.Fitness>
20.1585

> <Gold.Chemscore.DG>
-21.5294

> <Gold.Chemscore.ZeroCoef>
-5.4800

> <Gold.Chemscore.Hbond>
2.8038

> <Gold.Chemscore.Metal>
0.0000

> <Gold.Chemscore.Lipo>
83.4393

> <Gold.Chemscore.Internal_Hbond>
0.0000

> <Gold.Chemscore.DEClash>
0.0155

> <Gold.Chemscore.DEInternal>
1.3555

> <Gold.Chemscore.Rot>
1.2022

> <Gold.Chemscore.Internal.Correction>
   9.000000E+99

> <Gold.Chemscore.Hbonds>
donor molecule, donor type, donor heavy atom, donor atom, acceptor molecule, acceptor atom, score
      L1  H    16    33       P1  7948  0.95
      L1  H    16    36       P1  7957  0.78
      P1  H  7989  7998       L1     1  0.65

> <Gold.Chemscore.Hbond.Weighted>
-9.3647

> <Gold.Chemscore.Metal.Weighted>
-0.0000

> <Gold.Chemscore.Lipo.Weighted>
-9.7624

> <Gold.Chemscore.Internal_Hbond.Weighted>
0.0000

> <Gold.Chemscore.DEClash.Weighted>
0.0155

> <Gold.Chemscore.DEInternal.Weighted>
1.3555

> <Gold.Chemscore.Rot.Weighted>
3.0777

> <Gold.Chemscore.Internal.Correction.Weighted>
   9.000000E+99

> <Gold.Protein.RotatedTorsions>
[ 6907 6896 6895 6894 ] final -167.73 input  -60.11 | X-H torsion
[ 7974 7965 7964 7962 ] final  103.06 input  175.53 | X-H torsion
[ 8008 7997 7996 7995 ] final -171.05 input   59.86 | X-H torsion
[ 10167 10162 10161 10158 ] final   78.38 input  -65.29 | X-H torsion
[ 10718 10713 10712 10709 ] final  -68.94 input   66.30 | X-H torsion
[ 10763 10752 10751 10750 ] final -140.75 input  -60.55 | X-H torsion
[ 11005 11000 10999 10996 ] final  -39.33 input  -57.11 | X-H torsion

> <Gold.Protein.ActiveResidues>
 VAL166  LYS551  ARG553  GLY616  TRP617  ASP618  TYR619  PRO620  LYS621  CYS622 
 ASP623  PHE694  ASN695  SER759  ASP760  ASP761  ALA762  ILE779  LEU786  VAL792 
 PHE793  MET794  SER795  GLU796  ALA797  LYS798  CYS799  TRP800  GLU811  SER814 

> <Gold.Protein.RotatedAtoms>
  151.4643  133.3585  159.2813 H   0  0  0  0  0  0  0  0  0  0  0  0  # atno 6907 bound_to 6896
  150.9004  134.8418  159.7367 H   0  0  0  0  0  0  0  0  0  0  0  0  # atno 6908 bound_to 6896
  152.4876  134.4562  159.9642 H   0  0  0  0  0  0  0  0  0  0  0  0  # atno 6909 bound_to 6896
  145.3509  139.2440  143.3559 H   0  0  0  0  0  0  0  0  0  0  0  0  # atno 7974 bound_to 7965
  155.9264  140.1083  157.1167 H   0  0  0  0  0  0  0  0  0  0  0  0  # atno 8008 bound_to 7997
  154.4063  140.1246  156.4811 H   0  0  0  0  0  0  0  0  0  0  0  0  # atno 8009 bound_to 7997
  155.7133  140.3470  155.4986 H   0  0  0  0  0  0  0  0  0  0  0  0  # atno 8010 bound_to 7997
  139.9715  144.5891  150.7981 H   0  0  0  0  0  0  0  0  0  0  0  0  # atno 10167 bound_to 10162
  156.0480  130.4303  150.2074 H   0  0  0  0  0  0  0  0  0  0  0  0  # atno 10718 bound_to 10713
  154.8568  135.3544  154.5757 H   0  0  0  0  0  0  0  0  0  0  0  0  # atno 10763 bound_to 10752
  153.6369  135.7000  153.5260 H   0  0  0  0  0  0  0  0  0  0  0  0  # atno 10764 bound_to 10752
  153.3003  135.4208  155.1206 H   0  0  0  0  0  0  0  0  0  0  0  0  # atno 10765 bound_to 10752
  141.0094  133.6915  156.2172 H   0  0  0  0  0  0  0  0  0  0  0  0  # atno 11005 bound_to 11000
  146.2968  140.4124  142.8718 LP  0  0  0  0  0  0  0  0  0  0  0  0  # atno 17320 bound_to 7965
  144.8719  140.7283  143.6041 LP  0  0  0  0  0  0  0  0  0  0  0  0  # atno 17321 bound_to 7965
  140.7520  143.2983  151.3147 LP  0  0  0  0  0  0  0  0  0  0  0  0  # atno 17342 bound_to 10162
  139.6478  144.0419  152.2603 LP  0  0  0  0  0  0  0  0  0  0  0  0  # atno 17343 bound_to 10162
  157.0162  130.9965  151.3352 LP  0  0  0  0  0  0  0  0  0  0  0  0  # atno 17370 bound_to 10713
  157.5376  130.8099  149.7990 LP  0  0  0  0  0  0  0  0  0  0  0  0  # atno 17371 bound_to 10713
  140.6759  134.4818  157.5588 LP  0  0  0  0  0  0  0  0  0  0  0  0  # atno 17394 bound_to 11000
  139.9081  134.8404  156.1629 LP  0  0  0  0  0  0  0  0  0  0  0  0  # atno 17395 bound_to 11000

$$$$
