AV-unprocessed.smi:1430|AV-procd|sdf|5827|dock5
  -GOLD-   22720 5483D 1   1.00000     0.00000
 Structure written by MMmdl.
 47 48  0  0  0  0  0  0  0  0  2 V2000
  152.4447  140.9698  158.6796 C   0  0  0  0  0  0  0  0  0  0  0  0
  152.9510  140.0143  157.7544 O   0  0  0  0  0  0  0  0  0  0  0  0
  152.1338  139.6068  156.7199 C   0  0  0  0  0  0  0  0  0  0  0  0
  152.6093  138.6196  155.8344 C   0  0  0  0  0  0  0  0  0  0  0  0
  151.7825  138.1974  154.7759 C   0  0  0  0  0  0  0  0  0  0  0  0
  150.4966  138.7733  154.6401 C   0  0  0  0  0  0  0  0  0  0  0  0
  149.5752  138.4485  153.6074 N   0  0  0  0  0  0  0  0  0  0  0  0
  148.4004  139.0325  153.3168 C   0  0  0  0  0  0  0  0  0  0  0  0
  147.9270  140.0108  153.8930 O   0  0  0  0  0  0  0  0  0  0  0  0
  147.7905  138.4132  152.2963 N   0  0  0  0  0  0  0  0  0  0  0  0
  146.5017  138.7966  151.7221 C   0  0  0  0  0  0  0  0  0  0  0  0
  145.9178  137.7451  150.7515 C   0  0  0  0  0  0  0  0  0  0  0  0
  145.9529  136.3643  151.2956 N   0  3  1  0  0  0  0  0  0  0  0  0
  145.5500  136.2933  152.7178 C   0  0  0  0  0  0  0  0  0  0  0  0
  145.7466  134.8640  153.2539 C   0  0  1  0  0  0  0  0  0  0  0  0
  145.2585  134.7205  154.6995 C   0  0  0  0  0  0  0  0  0  0  0  0
  145.0105  133.9474  152.4471 O   0  0  0  0  0  0  0  0  0  0  0  0
  145.3426  133.9643  151.0579 C   0  0  2  0  0  0  0  0  0  0  0  0
  146.7260  133.3492  150.7802 C   0  0  0  0  0  0  0  0  0  0  0  0
  145.1820  135.3878  150.4904 C   0  0  0  0  0  0  0  0  0  0  0  0
  150.1210  139.7634  155.5717 C   0  0  0  0  0  0  0  0  0  0  0  0
  150.9085  140.1724  156.5883 N   0  0  0  0  0  0  0  0  0  0  0  0
  153.2061  141.1846  159.4293 H   0  0  0  0  0  0  0  0  0  0  0  0
  151.5643  140.5919  159.2013 H   0  0  0  0  0  0  0  0  0  0  0  0
  152.1934  141.9095  158.1857 H   0  0  0  0  0  0  0  0  0  0  0  0
  153.5943  138.1955  155.9629 H   0  0  0  0  0  0  0  0  0  0  0  0
  152.1579  137.4560  154.0883 H   0  0  0  0  0  0  0  0  0  0  0  0
  149.8685  137.7069  152.9880 H   0  0  0  0  0  0  0  0  0  0  0  0
  148.2596  137.6261  151.8720 H   0  0  0  0  0  0  0  0  0  0  0  0
  145.7894  139.0056  152.5218 H   0  0  0  0  0  0  0  0  0  0  0  0
  146.6477  139.7402  151.1963 H   0  0  0  0  0  0  0  0  0  0  0  0
  144.8798  138.0120  150.5489 H   0  0  0  0  0  0  0  0  0  0  0  0
  146.4312  137.7849  149.7897 H   0  0  0  0  0  0  0  0  0  0  0  0
  146.1500  136.9887  153.3063 H   0  0  0  0  0  0  0  0  0  0  0  0
  144.5081  136.6017  152.8191 H   0  0  0  0  0  0  0  0  0  0  0  0
  146.8059  134.6067  153.2289 H   0  0  0  0  0  0  0  0  0  0  0  0
  145.7954  135.3976  155.3645 H   0  0  0  0  0  0  0  0  0  0  0  0
  145.4142  133.7052  155.0651 H   0  0  0  0  0  0  0  0  0  0  0  0
  144.1946  134.9448  154.7819 H   0  0  0  0  0  0  0  0  0  0  0  0
  144.6094  133.3258  150.5644 H   0  0  0  0  0  0  0  0  0  0  0  0
  146.8975  133.2547  149.7076 H   0  0  0  0  0  0  0  0  0  0  0  0
  146.8018  132.3518  151.2136 H   0  0  0  0  0  0  0  0  0  0  0  0
  147.5382  133.9532  151.1842 H   0  0  0  0  0  0  0  0  0  0  0  0
  144.1284  135.6715  150.4992 H   0  0  0  0  0  0  0  0  0  0  0  0
  145.5044  135.4072  149.4493 H   0  0  0  0  0  0  0  0  0  0  0  0
  149.1552  140.2426  155.5026 H   0  0  0  0  0  0  0  0  0  0  0  0
  146.9200  136.0749  151.2634 H   0  0  0  0  0  0  0  0  0  0  0  0
  1  2  1  0  0  0  0
  1 23  1  0  0  0  0
  1 24  1  0  0  0  0
  1 25  1  0  0  0  0
  2  3  1  0  0  0  0
  3 22  1  0  0  0  0
  3  4  2  0  0  0  0
  4  5  1  0  0  0  0
  4 26  1  0  0  0  0
  5  6  2  0  0  0  0
  5 27  1  0  0  0  0
  6  7  1  0  0  0  0
  6 21  1  0  0  0  0
  7  8  1  0  0  0  0
  7 28  1  0  0  0  0
  8  9  2  0  0  0  0
  8 10  1  0  0  0  0
 10 11  1  0  0  0  0
 10 29  1  0  0  0  0
 11 12  1  0  0  0  0
 11 30  1  0  0  0  0
 11 31  1  0  0  0  0
 12 13  1  0  0  0  0
 12 32  1  0  0  0  0
 12 33  1  0  0  0  0
 13 20  1  0  0  0  0
 13 14  1  0  0  0  0
 13 47  1  0  0  0  0
 14 15  1  0  0  0  0
 14 34  1  0  0  0  0
 14 35  1  0  0  0  0
 15 16  1  0  0  0  0
 15 17  1  0  0  0  0
 15 36  1  0  0  0  0
 16 37  1  0  0  0  0
 16 38  1  0  0  0  0
 16 39  1  0  0  0  0
 17 18  1  0  0  0  0
 18 19  1  0  0  0  0
 18 20  1  0  0  0  0
 18 40  1  0  0  0  0
 19 41  1  0  0  0  0
 19 42  1  0  0  0  0
 19 43  1  0  0  0  0
 20 44  1  0  0  0  0
 20 45  1  0  0  0  0
 21 22  2  0  0  0  0
 21 46  1  0  0  0  0
M  CHG  1  13   1
M  END
> <s_m_source_file>
AV-unprocessed.smi

> <i_m_source_file_index>
1430

> <i_lp_mmshare_version>
43012

> <i_f3d_flags>
0

> <s_epik_input>
W0NIM11PYzFbY0hdW2NIXWMoW2NIXW4xKVtOSF1DKD1PKVtOSF1bQ0gyXVtDSDJdTjJbQ0gyXVtDQEBIXShbQ0gzXSlPW0NAQEhdKFtDSDNdKVtDSDJdMg==

> <s_epik_cmdline>
J2VwaWtfcHl0aG9uJywgJy1waCcsICc3LjAnLCAnLXRuJywgJzgnLCAnLW1hJywgJzIwMCcsICctbWV0YWxfYmluZGluZycsICctaW1hZScsICc8aW5maWxlLm1hZT4nLCAnLW9tYWUnLCAnPG91dGZpbGUubWFlPic=

> <r_lp_tautomer_probability>
1

> <r_epik_Ionization_Penalty>
0.602607

> <r_epik_Ionization_Penalty_Charging>
0.602531

> <r_epik_Ionization_Penalty_Neutral>
7.66983e-05

> <r_epik_State_Penalty>
0.617039

> <r_epik_Charging_Adjusted_Penalty>
1.21957

> <i_epik_Tot_Q>
1

> <i_epik_Tot_abs_Q>
1

> <r_epik_Metal_State_Penalty>
0.617043

> <b_epik_Metal_Only>
0

> <s_lp_Force_Field>
OPLS_2005

> <r_lp_Energy>
27.5675

> <b_lp_Chiralities_Consistent>
1

> <s_lp_Variant>
AV-unprocessed.smi:1430-6

> <Gold.Version>
5.8.1

> <Gold.Id.Protein>
6NUR|6NUR_protein|mol2

> <Gold.PLP.Fitness>
46.0654

> <Gold.PLP.PLP>
-32.5376

> <Gold.PLP.part.hbond>
-5.8953

> <Gold.PLP.part.metal>
0.0000

> <Gold.PLP.part.buried>
5.8226

> <Gold.PLP.part.nonpolar>
-33.0567

> <Gold.PLP.part.repulsive>
0.4574

> <Gold.PLP.ligand.clash>
0.0000

> <Gold.PLP.ligand.torsion>
0.2154

> <Gold.PLP.Chemscore.Hbond>
4.6409

> <Gold.PLP.Chemscore.CHOScore>
0.0000

> <Gold.PLP.Chemscore.Metal>
0.0000

> <Gold.Chemscore.Hbonds>
donor molecule, donor type, donor heavy atom, donor atom, acceptor molecule, acceptor atom, score
      L1  H     7    28       P1  7948  0.77
      L1  H    10    29       P1  7948  0.98
      L1  H    13    47       P1  7948  1.76
      P1  H  7997  8009       L1     2  1.00

> <Gold.PLP.Chemscore.Internal.Correction>
0.0361

> <Gold.Rescore>
     Score         DG    S(hbond)    S(metal)    S(lipo)     H(rot)  DE(clash)    DE(int)     intcor
     14.46     -19.22       2.56        0.00      82.92       1.76       3.14       1.62       ----

> <Gold.Chemscore.Fitness>
14.4550

> <Gold.Chemscore.DG>
-19.2184

> <Gold.Chemscore.ZeroCoef>
-5.4800

> <Gold.Chemscore.Hbond>
2.5581

> <Gold.Chemscore.Metal>
0.0000

> <Gold.Chemscore.Lipo>
82.9188

> <Gold.Chemscore.Internal_Hbond>
0.0000

> <Gold.Chemscore.DEClash>
3.1395

> <Gold.Chemscore.DEInternal>
1.6239

> <Gold.Chemscore.Rot>
1.7606

> <Gold.Chemscore.Internal.Correction>
   9.000000E+99

> <Gold.Chemscore.Hbonds>
donor molecule, donor type, donor heavy atom, donor atom, acceptor molecule, acceptor atom, score
      L1  H     7    28       P1  7948  0.28
      L1  H    10    29       P1  7948  0.91
      L1  H    13    47       P1  7948  0.83
      P1  H  7997  8009       L1     2  0.38

> <Gold.Chemscore.Hbond.Weighted>
-8.5441

> <Gold.Chemscore.Metal.Weighted>
-0.0000

> <Gold.Chemscore.Lipo.Weighted>
-9.7015

> <Gold.Chemscore.Internal_Hbond.Weighted>
0.0000

> <Gold.Chemscore.DEClash.Weighted>
3.1395

> <Gold.Chemscore.DEInternal.Weighted>
1.6239

> <Gold.Chemscore.Rot.Weighted>
4.5072

> <Gold.Chemscore.Internal.Correction.Weighted>
   9.000000E+99

> <Gold.Protein.RotatedTorsions>
[ 6907 6896 6895 6894 ] final  137.73 input  -60.11 | X-H torsion
[ 7974 7965 7964 7962 ] final  -72.80 input  175.53 | X-H torsion
[ 8008 7997 7996 7995 ] final  156.29 input   59.86 | X-H torsion
[ 10167 10162 10161 10158 ] final   74.26 input  -65.29 | X-H torsion
[ 10718 10713 10712 10709 ] final   -6.89 input   66.30 | X-H torsion
[ 10763 10752 10751 10750 ] final   74.60 input  -60.55 | X-H torsion
[ 11005 11000 10999 10996 ] final -169.44 input  -57.11 | X-H torsion

> <Gold.Protein.ActiveResidues>
 VAL166  LYS551  ARG553  GLY616  TRP617  ASP618  TYR619  PRO620  LYS621  CYS622 
 ASP623  PHE694  ASN695  SER759  ASP760  ASP761  ALA762  ILE779  LEU786  VAL792 
 PHE793  MET794  SER795  GLU796  ALA797  LYS798  CYS799  TRP800  GLU811  SER814 

> <Gold.Protein.RotatedAtoms>
  152.2747  133.5415  159.5460 H   0  0  0  0  0  0  0  0  0  0  0  0  # atno 6907 bound_to 6896
  150.7172  134.0648  159.3853 H   0  0  0  0  0  0  0  0  0  0  0  0  # atno 6908 bound_to 6896
  151.8561  135.0541  160.0515 H   0  0  0  0  0  0  0  0  0  0  0  0  # atno 6909 bound_to 6896
  145.6604  140.9254  143.0937 H   0  0  0  0  0  0  0  0  0  0  0  0  # atno 7974 bound_to 7965
  156.2431  140.1916  156.6932 H   0  0  0  0  0  0  0  0  0  0  0  0  # atno 8008 bound_to 7997
  154.6236  140.0605  156.9672 H   0  0  0  0  0  0  0  0  0  0  0  0  # atno 8009 bound_to 7997
  155.1822  140.3277  155.4376 H   0  0  0  0  0  0  0  0  0  0  0  0  # atno 8010 bound_to 7997
  140.0156  144.5580  150.7623 H   0  0  0  0  0  0  0  0  0  0  0  0  # atno 10167 bound_to 10162
  156.7252  130.5163  149.5858 H   0  0  0  0  0  0  0  0  0  0  0  0  # atno 10718 bound_to 10713
  153.0598  135.5019  154.8066 H   0  0  0  0  0  0  0  0  0  0  0  0  # atno 10763 bound_to 10752
  154.6864  135.2977  154.9543 H   0  0  0  0  0  0  0  0  0  0  0  0  # atno 10764 bound_to 10752
  154.0312  135.6729  153.4833 H   0  0  0  0  0  0  0  0  0  0  0  0  # atno 10765 bound_to 10752
  140.5308  134.5618  157.5074 H   0  0  0  0  0  0  0  0  0  0  0  0  # atno 11005 bound_to 11000
  144.7091  139.8441  143.7420 LP  0  0  0  0  0  0  0  0  0  0  0  0  # atno 17320 bound_to 7965
  146.1130  139.4137  143.0276 LP  0  0  0  0  0  0  0  0  0  0  0  0  # atno 17321 bound_to 7965
  140.7363  143.2752  151.3764 LP  0  0  0  0  0  0  0  0  0  0  0  0  # atno 17342 bound_to 10162
  139.6175  144.0974  152.2359 LP  0  0  0  0  0  0  0  0  0  0  0  0  # atno 17343 bound_to 10162
  156.1567  130.6346  151.0666 LP  0  0  0  0  0  0  0  0  0  0  0  0  # atno 17370 bound_to 10713
  157.6881  131.0818  150.7184 LP  0  0  0  0  0  0  0  0  0  0  0  0  # atno 17371 bound_to 10713
  139.9555  134.7542  156.0351 LP  0  0  0  0  0  0  0  0  0  0  0  0  # atno 17394 bound_to 11000
  141.1282  133.6593  156.3394 LP  0  0  0  0  0  0  0  0  0  0  0  0  # atno 17395 bound_to 11000

$$$$
