AV-unprocessed.smi:1224|AV-procd|sdf|5129|dock10
  -GOLD-   22720 4183D 1   1.00000     0.00000
 Structure written by MMmdl.
 44 46  0  0  0  0  0  0  0  0  2 V2000
  153.5979  142.1598  161.6344 C   0  0  0  0  0  0  0  0  0  0  0  0
  152.9599  141.7362  160.3231 C   0  0  0  0  0  0  0  0  0  0  0  0
  152.0312  142.6001  159.7002 C   0  0  0  0  0  0  0  0  0  0  0  0
  151.4188  142.2451  158.4783 C   0  0  0  0  0  0  0  0  0  0  0  0
  150.4970  142.9270  157.7025 N   0  0  0  0  0  0  0  0  0  0  0  0
  150.3179  142.0809  156.6924 C   0  0  0  0  0  0  0  0  0  0  0  0
  151.0144  140.9283  156.7231 N   0  0  0  0  0  0  0  0  0  0  0  0
  150.9872  139.8570  155.7437 C   0  0  0  0  0  0  0  0  0  0  0  0
  149.7845  139.9672  154.7873 C   0  0  1  0  0  0  0  0  0  0  0  0
  150.0506  140.9584  153.8131 O   0  0  0  0  0  0  0  0  0  0  0  0
  149.4885  138.6364  154.0779 C   0  0  0  0  0  0  0  0  0  0  0  0
  148.2999  138.7482  153.2052 N   0  3  0  0  0  0  0  0  0  0  0  0
  147.0055  138.8060  153.9158 C   0  0  0  0  0  0  0  0  0  0  0  0
  146.5868  140.2041  154.2374 C   0  0  0  0  0  0  0  0  0  0  0  0
  147.0770  141.3703  153.7062 C   0  0  0  0  0  0  0  0  0  0  0  0
  146.4557  142.5355  154.2431 C   0  0  0  0  0  0  0  0  0  0  0  0
  145.4985  142.2432  155.1776 C   0  0  0  0  0  0  0  0  0  0  0  0
  145.3419  140.5248  155.4183 S   0  0  0  0  0  0  0  0  0  0  0  0
  151.7633  140.9920  157.8928 C   0  0  0  0  0  0  0  0  0  0  0  0
  152.6847  140.1232  158.5034 C   0  0  0  0  0  0  0  0  0  0  0  0
  153.2879  140.4937  159.7234 C   0  0  0  0  0  0  0  0  0  0  0  0
  154.2838  139.5500  160.3744 C   0  0  0  0  0  0  0  0  0  0  0  0
  153.2152  143.1236  161.9711 H   0  0  0  0  0  0  0  0  0  0  0  0
  154.6784  142.2499  161.5201 H   0  0  0  0  0  0  0  0  0  0  0  0
  153.3913  141.4278  162.4153 H   0  0  0  0  0  0  0  0  0  0  0  0
  151.7817  143.5467  160.1565 H   0  0  0  0  0  0  0  0  0  0  0  0
  149.6387  142.3111  155.8846 H   0  0  0  0  0  0  0  0  0  0  0  0
  151.9251  139.8665  155.1861 H   0  0  0  0  0  0  0  0  0  0  0  0
  150.9553  138.9094  156.2826 H   0  0  0  0  0  0  0  0  0  0  0  0
  148.9053  140.2742  155.3560 H   0  0  0  0  0  0  0  0  0  0  0  0
  149.6145  140.7197  153.0089 H   0  0  0  0  0  0  0  0  0  0  0  0
  150.3559  138.3153  153.4996 H   0  0  0  0  0  0  0  0  0  0  0  0
  149.2953  137.8612  154.8208 H   0  0  0  0  0  0  0  0  0  0  0  0
  148.3944  139.5916  152.6577 H   0  0  0  0  0  0  0  0  0  0  0  0
  146.2407  138.3074  153.3190 H   0  0  0  0  0  0  0  0  0  0  0  0
  147.0985  138.2334  154.8390 H   0  0  0  0  0  0  0  0  0  0  0  0
  147.8539  141.4282  152.9582 H   0  0  0  0  0  0  0  0  0  0  0  0
  146.7282  143.5326  153.9296 H   0  0  0  0  0  0  0  0  0  0  0  0
  144.8781  142.9290  155.7359 H   0  0  0  0  0  0  0  0  0  0  0  0
  152.9260  139.1802  158.0357 H   0  0  0  0  0  0  0  0  0  0  0  0
  154.4338  138.6533  159.7726 H   0  0  0  0  0  0  0  0  0  0  0  0
  153.9283  139.2383  161.3567 H   0  0  0  0  0  0  0  0  0  0  0  0
  155.2512  140.0379  160.4944 H   0  0  0  0  0  0  0  0  0  0  0  0
  148.2888  137.9589  152.5748 H   0  0  0  0  0  0  0  0  0  0  0  0
  1  2  1  0  0  0  0
  1 23  1  0  0  0  0
  1 24  1  0  0  0  0
  1 25  1  0  0  0  0
  2 21  1  0  0  0  0
  2  3  2  0  0  0  0
  3  4  1  0  0  0  0
  3 26  1  0  0  0  0
  4 19  2  0  0  0  0
  4  5  1  0  0  0  0
  5  6  2  0  0  0  0
  6  7  1  0  0  0  0
  6 27  1  0  0  0  0
  7  8  1  0  0  0  0
  7 19  1  0  0  0  0
  8  9  1  0  0  0  0
  8 28  1  0  0  0  0
  8 29  1  0  0  0  0
  9 10  1  0  0  0  0
  9 11  1  0  0  0  0
  9 30  1  0  0  0  0
 10 31  1  0  0  0  0
 11 12  1  0  0  0  0
 11 32  1  0  0  0  0
 11 33  1  0  0  0  0
 12 13  1  0  0  0  0
 12 34  1  0  0  0  0
 12 44  1  0  0  0  0
 13 14  1  0  0  0  0
 13 35  1  0  0  0  0
 13 36  1  0  0  0  0
 14 18  1  0  0  0  0
 14 15  2  0  0  0  0
 15 16  1  0  0  0  0
 15 37  1  0  0  0  0
 16 17  2  0  0  0  0
 16 38  1  0  0  0  0
 17 18  1  0  0  0  0
 17 39  1  0  0  0  0
 19 20  1  0  0  0  0
 20 21  2  0  0  0  0
 20 40  1  0  0  0  0
 21 22  1  0  0  0  0
 22 41  1  0  0  0  0
 22 42  1  0  0  0  0
 22 43  1  0  0  0  0
M  CHG  1  12   1
M  END
> <s_m_source_file>
AV-unprocessed.smi

> <i_m_source_file_index>
1224

> <i_lp_mmshare_version>
43012

> <i_f3d_flags>
0

> <s_epik_input>
W0NIM11jKFtjSF0xKWMoW0NIM10pW2NIXWMoYzEyKW4oW2NIXW4yKVtDSDJdW0NASF0oW09IXSlbQ0gyXVtOSF1bQ0gyXWMzW2NIXVtjSF1bY0hdczM=

> <s_epik_cmdline>
J2VwaWtfcHl0aG9uJywgJy1waCcsICc3LjAnLCAnLXRuJywgJzgnLCAnLW1hJywgJzIwMCcsICctbWV0YWxfYmluZGluZycsICctaW1hZScsICc8aW5maWxlLm1hZT4nLCAnLW9tYWUnLCAnPG91dGZpbGUubWFlPic=

> <r_epik_Ionization_Penalty>
0.145091

> <r_epik_Ionization_Penalty_Charging>
0.0551904

> <r_epik_Ionization_Penalty_Neutral>
0.0899003

> <r_epik_State_Penalty>
0.131364

> <r_epik_Charging_Adjusted_Penalty>
0.186554

> <i_epik_Tot_Q>
1

> <i_epik_Tot_abs_Q>
1

> <r_epik_Metal_State_Penalty>
0.0472291

> <b_epik_Metal_Only>
0

> <s_lp_Force_Field>
OPLS_2005

> <r_lp_Energy>
7.75101

> <b_lp_Chiralities_Consistent>
1

> <s_lp_Variant>
AV-unprocessed.smi:1224-2

> <Gold.Version>
5.8.1

> <Gold.Id.Protein>
6NUR|6NUR_protein|mol2

> <Gold.PLP.Fitness>
58.2111

> <Gold.PLP.PLP>
-44.9948

> <Gold.PLP.part.hbond>
-4.0539

> <Gold.PLP.part.metal>
0.0000

> <Gold.PLP.part.buried>
-3.4887

> <Gold.PLP.part.nonpolar>
-38.0888

> <Gold.PLP.part.repulsive>
0.2013

> <Gold.PLP.ligand.clash>
0.0000

> <Gold.PLP.ligand.torsion>
0.7968

> <Gold.PLP.Chemscore.Hbond>
4.1958

> <Gold.PLP.Chemscore.CHOScore>
0.7147

> <Gold.PLP.Chemscore.Metal>
0.0000

> <Gold.Chemscore.Hbonds>
donor molecule, donor type, donor heavy atom, donor atom, acceptor molecule, acceptor atom, score
      L1  H    10    31       P1  7957  1.00
      L1  H    12    34       P1  7957  0.62
      L1  H    12    44       P1  7948  2.00
      P1  H  7989  7998       L1    10  0.42
      L1  C     6    27       P1  8028  0.74

> <Gold.PLP.Chemscore.Internal.Correction>
0.0786

> <Gold.Rescore>
     Score         DG    S(hbond)    S(metal)    S(lipo)     H(rot)  DE(clash)    DE(int)     intcor
     22.25     -23.63       3.09        0.00     119.82       2.42       0.59       0.79       ----

> <Gold.Chemscore.Fitness>
22.2524

> <Gold.Chemscore.DG>
-23.6292

> <Gold.Chemscore.ZeroCoef>
-5.4800

> <Gold.Chemscore.Hbond>
3.0946

> <Gold.Chemscore.Metal>
0.0000

> <Gold.Chemscore.Lipo>
119.8184

> <Gold.Chemscore.Internal_Hbond>
0.0000

> <Gold.Chemscore.DEClash>
0.5899

> <Gold.Chemscore.DEInternal>
0.7869

> <Gold.Chemscore.Rot>
2.4240

> <Gold.Chemscore.Internal.Correction>
   9.000000E+99

> <Gold.Chemscore.Hbonds>
donor molecule, donor type, donor heavy atom, donor atom, acceptor molecule, acceptor atom, score
      L1  H    10    31       P1  7957  0.95
      L1  H    12    34       P1  7957  0.61
      L1  H    12    44       P1  7948  0.96
      P1  H  7989  7998       L1    10  0.13

> <Gold.Chemscore.Hbond.Weighted>
-10.3360

> <Gold.Chemscore.Metal.Weighted>
-0.0000

> <Gold.Chemscore.Lipo.Weighted>
-14.0188

> <Gold.Chemscore.Internal_Hbond.Weighted>
0.0000

> <Gold.Chemscore.DEClash.Weighted>
0.5899

> <Gold.Chemscore.DEInternal.Weighted>
0.7869

> <Gold.Chemscore.Rot.Weighted>
6.2055

> <Gold.Chemscore.Internal.Correction.Weighted>
   9.000000E+99

> <Gold.Protein.RotatedTorsions>
[ 6907 6896 6895 6894 ] final -166.38 input  -60.11 | X-H torsion
[ 7974 7965 7964 7962 ] final  176.80 input  175.53 | X-H torsion
[ 8008 7997 7996 7995 ] final  143.58 input   59.86 | X-H torsion
[ 10167 10162 10161 10158 ] final  -33.52 input  -65.29 | X-H torsion
[ 10718 10713 10712 10709 ] final  130.46 input   66.30 | X-H torsion
[ 10763 10752 10751 10750 ] final -110.60 input  -60.55 | X-H torsion
[ 11005 11000 10999 10996 ] final  160.59 input  -57.11 | X-H torsion

> <Gold.Protein.ActiveResidues>
 VAL166  LYS551  ARG553  GLY616  TRP617  ASP618  TYR619  PRO620  LYS621  CYS622 
 ASP623  PHE694  ASN695  SER759  ASP760  ASP761  ALA762  ILE779  LEU786  VAL792 
 PHE793  MET794  SER795  GLU796  ALA797  LYS798  CYS799  TRP800  GLU811  SER814 

> <Gold.Protein.RotatedAtoms>
  151.4427  133.3639  159.2783 H   0  0  0  0  0  0  0  0  0  0  0  0  # atno 6907 bound_to 6896
  150.9146  134.8565  159.7459 H   0  0  0  0  0  0  0  0  0  0  0  0  # atno 6908 bound_to 6896
  152.4950  134.4360  159.9580 H   0  0  0  0  0  0  0  0  0  0  0  0  # atno 6909 bound_to 6896
  144.7178  140.0150  143.6440 H   0  0  0  0  0  0  0  0  0  0  0  0  # atno 7974 bound_to 7965
  156.2927  140.2258  156.4914 H   0  0  0  0  0  0  0  0  0  0  0  0  # atno 8008 bound_to 7997
  154.7768  140.0463  157.1117 H   0  0  0  0  0  0  0  0  0  0  0  0  # atno 8009 bound_to 7997
  154.9807  140.3078  155.4951 H   0  0  0  0  0  0  0  0  0  0  0  0  # atno 8010 bound_to 7997
  140.7203  143.3614  151.1955 H   0  0  0  0  0  0  0  0  0  0  0  0  # atno 10167 bound_to 10162
  157.5060  131.1095  150.9361 H   0  0  0  0  0  0  0  0  0  0  0  0  # atno 10718 bound_to 10713
  154.8256  135.4558  154.0910 H   0  0  0  0  0  0  0  0  0  0  0  0  # atno 10763 bound_to 10752
  153.2227  135.6896  153.7988 H   0  0  0  0  0  0  0  0  0  0  0  0  # atno 10764 bound_to 10752
  153.7399  135.3314  155.3278 H   0  0  0  0  0  0  0  0  0  0  0  0  # atno 10765 bound_to 10752
  140.2074  134.8293  157.3084 H   0  0  0  0  0  0  0  0  0  0  0  0  # atno 11005 bound_to 11000
  146.0227  139.3265  143.0803 LP  0  0  0  0  0  0  0  0  0  0  0  0  # atno 17320 bound_to 7965
  145.8549  140.9508  143.0730 LP  0  0  0  0  0  0  0  0  0  0  0  0  # atno 17321 bound_to 7965
  139.7167  143.9289  152.2969 LP  0  0  0  0  0  0  0  0  0  0  0  0  # atno 17342 bound_to 10162
  139.9032  144.6899  150.8642 LP  0  0  0  0  0  0  0  0  0  0  0  0  # atno 17343 bound_to 10162
  157.0016  130.5602  149.5312 LP  0  0  0  0  0  0  0  0  0  0  0  0  # atno 17370 bound_to 10713
  156.0258  130.5352  150.8403 LP  0  0  0  0  0  0  0  0  0  0  0  0  # atno 17371 bound_to 10713
  140.1988  134.4281  155.7674 LP  0  0  0  0  0  0  0  0  0  0  0  0  # atno 17394 bound_to 11000
  141.2227  133.7062  156.8148 LP  0  0  0  0  0  0  0  0  0  0  0  0  # atno 17395 bound_to 11000

$$$$
