AV-unprocessed.smi:3353|AV-procd|sdf|12954|dock6
  -GOLD-   2272019393D 1   1.00000     0.00000
 Structure written by MMmdl.
 43 44  0  0  0  0  0  0  0  0  2 V2000
  144.1117  132.6933  149.1383 C   0  0  0  0  0  0  0  0  0  0  0  0
  143.8967  132.7026  150.6566 C   0  0  0  0  0  0  0  0  0  0  0  0
  144.2192  133.9915  151.2372 N   0  0  0  0  0  0  0  0  0  0  0  0
  144.7068  135.1158  150.6010 C   0  0  0  0  0  0  0  0  0  0  0  0
  144.8414  136.0630  151.5764 C   0  0  0  0  0  0  0  0  0  0  0  0
  145.3021  137.4000  151.4758 N   0  0  0  0  0  0  0  0  0  0  0  0
  146.1402  138.0383  152.3086 C   0  0  0  0  0  0  0  0  0  0  0  0
  146.6541  137.5440  153.3120 O   0  0  0  0  0  0  0  0  0  0  0  0
  146.3540  139.2996  151.9097 N   0  0  0  0  0  0  0  0  0  0  0  0
  147.2105  140.2660  152.5916 C   0  0  0  0  0  0  0  0  0  0  0  0
  146.7893  140.4737  154.0666 C   0  0  1  0  0  0  0  0  0  0  0  0
  148.0082  140.8481  154.9404 C   0  0  0  0  0  0  0  0  0  0  0  0
  145.7160  141.5054  154.1761 N   0  3  0  0  0  0  0  0  0  0  0  0
  145.1293  141.6650  155.5246 C   0  0  0  0  0  0  0  0  0  0  0  0
  144.4374  143.0301  155.5295 C   0  0  0  0  0  0  0  0  0  0  0  0
  145.0740  143.8159  154.3806 C   0  0  0  0  0  0  0  0  0  0  0  0
  146.1050  142.8705  153.7593 C   0  0  0  0  0  0  0  0  0  0  0  0
  144.4157  135.4425  152.7797 C   0  0  0  0  0  0  0  0  0  0  0  0
  144.0415  134.1901  152.5668 N   0  0  0  0  0  0  0  0  0  0  0  0
  143.8749  131.7154  148.7191 H   0  0  0  0  0  0  0  0  0  0  0  0
  145.1478  132.9219  148.8872 H   0  0  0  0  0  0  0  0  0  0  0  0
  143.4761  133.4290  148.6446 H   0  0  0  0  0  0  0  0  0  0  0  0
  142.8607  132.4583  150.8956 H   0  0  0  0  0  0  0  0  0  0  0  0
  144.5192  131.9420  151.1292 H   0  0  0  0  0  0  0  0  0  0  0  0
  144.9056  135.1327  149.5396 H   0  0  0  0  0  0  0  0  0  0  0  0
  144.9556  137.9238  150.6854 H   0  0  0  0  0  0  0  0  0  0  0  0
  145.8899  139.6148  151.0703 H   0  0  0  0  0  0  0  0  0  0  0  0
  148.2572  139.9583  152.5544 H   0  0  0  0  0  0  0  0  0  0  0  0
  147.1380  141.1955  152.0275 H   0  0  0  0  0  0  0  0  0  0  0  0
  146.3858  139.5313  154.4412 H   0  0  0  0  0  0  0  0  0  0  0  0
  148.8057  140.1092  154.8634 H   0  0  0  0  0  0  0  0  0  0  0  0
  147.7514  140.9035  155.9979 H   0  0  0  0  0  0  0  0  0  0  0  0
  148.4242  141.8121  154.6456 H   0  0  0  0  0  0  0  0  0  0  0  0
  144.4324  140.8621  155.7664 H   0  0  0  0  0  0  0  0  0  0  0  0
  145.9256  141.6584  156.2711 H   0  0  0  0  0  0  0  0  0  0  0  0
  143.3681  142.9127  155.3495 H   0  0  0  0  0  0  0  0  0  0  0  0
  144.5553  143.5347  156.4890 H   0  0  0  0  0  0  0  0  0  0  0  0
  144.3113  144.0804  153.6469 H   0  0  0  0  0  0  0  0  0  0  0  0
  145.5363  144.7427  154.7224 H   0  0  0  0  0  0  0  0  0  0  0  0
  147.0958  143.1025  154.1537 H   0  0  0  0  0  0  0  0  0  0  0  0
  146.1407  142.9718  152.6743 H   0  0  0  0  0  0  0  0  0  0  0  0
  144.3666  135.8497  153.7788 H   0  0  0  0  0  0  0  0  0  0  0  0
  144.9608  141.2255  153.5662 H   0  0  0  0  0  0  0  0  0  0  0  0
  1  2  1  0  0  0  0
  1 20  1  0  0  0  0
  1 21  1  0  0  0  0
  1 22  1  0  0  0  0
  2  3  1  0  0  0  0
  2 23  1  0  0  0  0
  2 24  1  0  0  0  0
  3 19  1  0  0  0  0
  3  4  1  0  0  0  0
  4  5  2  0  0  0  0
  4 25  1  0  0  0  0
  5  6  1  0  0  0  0
  5 18  1  0  0  0  0
  6  7  1  0  0  0  0
  6 26  1  0  0  0  0
  7  8  2  0  0  0  0
  7  9  1  0  0  0  0
  9 10  1  0  0  0  0
  9 27  1  0  0  0  0
 10 11  1  0  0  0  0
 10 28  1  0  0  0  0
 10 29  1  0  0  0  0
 11 12  1  0  0  0  0
 11 13  1  0  0  0  0
 11 30  1  0  0  0  0
 12 31  1  0  0  0  0
 12 32  1  0  0  0  0
 12 33  1  0  0  0  0
 13 17  1  0  0  0  0
 13 14  1  0  0  0  0
 13 43  1  0  0  0  0
 14 15  1  0  0  0  0
 14 34  1  0  0  0  0
 14 35  1  0  0  0  0
 15 16  1  0  0  0  0
 15 36  1  0  0  0  0
 15 37  1  0  0  0  0
 16 17  1  0  0  0  0
 16 38  1  0  0  0  0
 16 39  1  0  0  0  0
 17 40  1  0  0  0  0
 17 41  1  0  0  0  0
 18 19  2  0  0  0  0
 18 42  1  0  0  0  0
M  CHG  1  13   1
M  END
> <s_m_source_file>
AV-unprocessed.smi

> <i_m_source_file_index>
3353

> <i_lp_mmshare_version>
43012

> <i_f3d_flags>
0

> <s_epik_input>
W0NIM11bQ0gyXW4xW2NIXWMoW2NIXW4xKVtOSF1DKD1PKVtOSF1bQ0gyXVtDQEhdKFtDSDNdKU4yW0NIMl1bQ0gyXVtDSDJdW0NIMl0y

> <s_epik_cmdline>
J2VwaWtfcHl0aG9uJywgJy1waCcsICc3LjAnLCAnLXRuJywgJzgnLCAnLW1hJywgJzIwMCcsICctbWV0YWxfYmluZGluZycsICctaW1hZScsICc8aW5maWxlLm1hZT4nLCAnLW9tYWUnLCAnPG91dGZpbGUubWFlPic=

> <r_lp_tautomer_probability>
1

> <r_epik_Ionization_Penalty>
0.000914091

> <r_epik_Ionization_Penalty_Charging>
0.000761583

> <r_epik_Ionization_Penalty_Neutral>
0.000152508

> <r_epik_State_Penalty>
0.000487427

> <r_epik_Charging_Adjusted_Penalty>
0.00124901

> <i_epik_Tot_Q>
1

> <i_epik_Tot_abs_Q>
1

> <r_epik_Metal_State_Penalty>
-0

> <b_epik_Metal_Only>
0

> <s_lp_Force_Field>
OPLS_2005

> <r_lp_Energy>
35.4291

> <b_lp_Chiralities_Consistent>
1

> <s_lp_Variant>
AV-unprocessed.smi:3353-2

> <Gold.Version>
5.8.1

> <Gold.Id.Protein>
6NUR|6NUR_protein|mol2

> <Gold.PLP.Fitness>
46.5337

> <Gold.PLP.PLP>
-35.9099

> <Gold.PLP.part.hbond>
-2.9412

> <Gold.PLP.part.metal>
0.0000

> <Gold.PLP.part.buried>
-4.9318

> <Gold.PLP.part.nonpolar>
-29.3190

> <Gold.PLP.part.repulsive>
1.3521

> <Gold.PLP.ligand.clash>
0.0000

> <Gold.PLP.ligand.torsion>
0.7104

> <Gold.PLP.Chemscore.Hbond>
3.0000

> <Gold.PLP.Chemscore.CHOScore>
1.0000

> <Gold.PLP.Chemscore.Metal>
0.0000

> <Gold.Chemscore.Hbonds>
donor molecule, donor type, donor heavy atom, donor atom, acceptor molecule, acceptor atom, score
      L1  H     6    26       P1 10171  1.00
      L1  H    13    43       P1 10175  2.00
      L1  C     4    25       P1  7921  1.00

> <Gold.PLP.Chemscore.Internal.Correction>
0.0447

> <Gold.Rescore>
     Score         DG    S(hbond)    S(metal)    S(lipo)     H(rot)  DE(clash)    DE(int)     intcor
     13.77     -15.67       1.88        0.00      68.68       1.61       0.40       1.50       ----

> <Gold.Chemscore.Fitness>
13.7719

> <Gold.Chemscore.DG>
-15.6748

> <Gold.Chemscore.ZeroCoef>
-5.4800

> <Gold.Chemscore.Hbond>
1.8818

> <Gold.Chemscore.Metal>
0.0000

> <Gold.Chemscore.Lipo>
68.6816

> <Gold.Chemscore.Internal_Hbond>
0.0000

> <Gold.Chemscore.DEClash>
0.4021

> <Gold.Chemscore.DEInternal>
1.5008

> <Gold.Chemscore.Rot>
1.6117

> <Gold.Chemscore.Internal.Correction>
   9.000000E+99

> <Gold.Chemscore.Hbonds>
donor molecule, donor type, donor heavy atom, donor atom, acceptor molecule, acceptor atom, score
      L1  H     6    26       P1 10171  0.93
      L1  H    13    43       P1 10175  0.35

> <Gold.Chemscore.Hbond.Weighted>
-6.2851

> <Gold.Chemscore.Metal.Weighted>
-0.0000

> <Gold.Chemscore.Lipo.Weighted>
-8.0357

> <Gold.Chemscore.Internal_Hbond.Weighted>
0.0000

> <Gold.Chemscore.DEClash.Weighted>
0.4021

> <Gold.Chemscore.DEInternal.Weighted>
1.5008

> <Gold.Chemscore.Rot.Weighted>
4.1260

> <Gold.Chemscore.Internal.Correction.Weighted>
   9.000000E+99

> <Gold.Protein.RotatedTorsions>
[ 6907 6896 6895 6894 ] final -133.13 input  -60.11 | X-H torsion
[ 7974 7965 7964 7962 ] final  -55.76 input  175.53 | X-H torsion
[ 8008 7997 7996 7995 ] final   96.52 input   59.86 | X-H torsion
[ 10167 10162 10161 10158 ] final -119.64 input  -65.29 | X-H torsion
[ 10718 10713 10712 10709 ] final -163.85 input   66.30 | X-H torsion
[ 10763 10752 10751 10750 ] final   36.26 input  -60.55 | X-H torsion
[ 11005 11000 10999 10996 ] final   71.30 input  -57.11 | X-H torsion

> <Gold.Protein.ActiveResidues>
 VAL166  LYS551  ARG553  GLY616  TRP617  ASP618  TYR619  PRO620  LYS621  CYS622 
 ASP623  PHE694  ASN695  SER759  ASP760  ASP761  ALA762  ILE779  LEU786  VAL792 
 PHE793  MET794  SER795  GLU796  ALA797  LYS798  CYS799  TRP800  GLU811  SER814 

> <Gold.Protein.RotatedAtoms>
  150.9705  133.6349  159.2738 H   0  0  0  0  0  0  0  0  0  0  0  0  # atno 6907 bound_to 6896
  151.3640  135.0908  159.9453 H   0  0  0  0  0  0  0  0  0  0  0  0  # atno 6908 bound_to 6896
  152.5181  133.9272  159.7618 H   0  0  0  0  0  0  0  0  0  0  0  0  # atno 6909 bound_to 6896
  145.8705  140.8219  142.9890 H   0  0  0  0  0  0  0  0  0  0  0  0  # atno 7974 bound_to 7965
  156.0805  140.3271  155.7688 H   0  0  0  0  0  0  0  0  0  0  0  0  # atno 8008 bound_to 7997
  155.5160  140.0581  157.2932 H   0  0  0  0  0  0  0  0  0  0  0  0  # atno 8009 bound_to 7997
  154.4579  140.1952  156.0343 H   0  0  0  0  0  0  0  0  0  0  0  0  # atno 8010 bound_to 7997
  140.0445  143.5121  152.2113 H   0  0  0  0  0  0  0  0  0  0  0  0  # atno 10167 bound_to 10162
  156.6306  130.8928  151.2976 H   0  0  0  0  0  0  0  0  0  0  0  0  # atno 10718 bound_to 10713
  153.0084  135.6311  154.1957 H   0  0  0  0  0  0  0  0  0  0  0  0  # atno 10763 bound_to 10752
  154.1700  135.2819  155.3085 H   0  0  0  0  0  0  0  0  0  0  0  0  # atno 10764 bound_to 10752
  154.5916  135.5616  153.7344 H   0  0  0  0  0  0  0  0  0  0  0  0  # atno 10765 bound_to 10752
  139.9551  134.7159  156.0772 H   0  0  0  0  0  0  0  0  0  0  0  0  # atno 11005 bound_to 11000
  144.6726  140.1232  143.7448 LP  0  0  0  0  0  0  0  0  0  0  0  0  # atno 17320 bound_to 7965
  145.9142  139.2506  143.1419 LP  0  0  0  0  0  0  0  0  0  0  0  0  # atno 17321 bound_to 7965
  139.5992  144.7577  151.3211 LP  0  0  0  0  0  0  0  0  0  0  0  0  # atno 17342 bound_to 10162
  140.7245  143.7042  150.7820 LP  0  0  0  0  0  0  0  0  0  0  0  0  # atno 17343 bound_to 10162
  157.7201  130.9547  150.1405 LP  0  0  0  0  0  0  0  0  0  0  0  0  # atno 17370 bound_to 10713
  156.2238  130.3676  149.8525 LP  0  0  0  0  0  0  0  0  0  0  0  0  # atno 17371 bound_to 10713
  141.1221  133.6610  156.3241 LP  0  0  0  0  0  0  0  0  0  0  0  0  # atno 17394 bound_to 11000
  140.5628  134.5917  157.5438 LP  0  0  0  0  0  0  0  0  0  0  0  0  # atno 17395 bound_to 11000

$$$$
