AV-unprocessed.smi:2135|AV-procd|sdf|8700|dock1
  -GOLD-   2272011453D 1   1.00000     0.00000
 Structure written by MMmdl.
 43 44  0  0  0  0  0  0  0  0  2 V2000
  146.8000  138.1139  156.4644 C   0  0  0  0  0  0  0  0  0  0  0  0
  146.0328  139.6185  157.1910 S   0  0  0  0  0  0  0  0  0  0  0  0
  144.5878  139.5804  156.9189 O   0  0  0  0  0  0  0  0  0  0  0  0
  146.5136  139.7430  158.5756 O   0  0  0  0  0  0  0  0  0  0  0  0
  146.7246  140.9327  156.2841 N   0  0  0  0  0  0  0  0  0  0  0  0
  148.0512  141.4710  156.6361 C   0  0  0  0  0  0  0  0  0  0  0  0
  149.0913  141.1495  155.5506 C   0  0  0  0  0  0  0  0  0  0  0  0
  148.6116  141.5909  154.1555 C   0  0  0  0  0  0  0  0  0  0  0  0
  147.2249  141.0014  153.8081 C   0  0  1  0  0  0  0  0  0  0  0  0
  147.2635  139.5073  153.4337 C   0  0  0  0  0  0  0  0  0  0  0  0
  148.2914  138.8399  153.5551 O   0  0  0  0  0  0  0  0  0  0  0  0
  146.1259  138.9969  152.9354 N   0  0  0  0  0  0  0  0  0  0  0  0
  145.9415  137.6133  152.5150 C   0  0  0  0  0  0  0  0  0  0  0  0
  144.4889  137.1494  152.7125 C   0  0  0  0  0  0  0  0  0  0  0  0
  144.2805  135.7169  152.2625 C   0  0  0  0  0  0  0  0  0  0  0  0
  144.6136  135.3174  150.9494 C   0  0  0  0  0  0  0  0  0  0  0  0
  144.4047  133.9776  150.5606 C   0  0  0  0  0  0  0  0  0  0  0  0
  143.8666  133.0677  151.4938 C   0  0  0  0  0  0  0  0  0  0  0  0
  143.5591  133.4868  152.7411 N   0  3  0  0  0  0  0  0  0  0  0  0
  143.7447  134.7604  153.1523 C   0  0  0  0  0  0  0  0  0  0  0  0
  146.2240  141.3183  154.9475 C   0  0  0  0  0  0  0  0  0  0  0  0
  146.5480  137.2525  157.0821 H   0  0  0  0  0  0  0  0  0  0  0  0
  147.8830  138.2277  156.4332 H   0  0  0  0  0  0  0  0  0  0  0  0
  146.4135  137.9470  155.4620 H   0  0  0  0  0  0  0  0  0  0  0  0
  147.9649  142.5516  156.7558 H   0  0  0  0  0  0  0  0  0  0  0  0
  148.3770  141.0762  157.5983 H   0  0  0  0  0  0  0  0  0  0  0  0
  150.0313  141.6484  155.7879 H   0  0  0  0  0  0  0  0  0  0  0  0
  149.3123  140.0831  155.5622 H   0  0  0  0  0  0  0  0  0  0  0  0
  148.5509  142.6796  154.1282 H   0  0  0  0  0  0  0  0  0  0  0  0
  149.3501  141.3155  153.4013 H   0  0  0  0  0  0  0  0  0  0  0  0
  146.8739  141.5130  152.9105 H   0  0  0  0  0  0  0  0  0  0  0  0
  145.3269  139.6094  152.8552 H   0  0  0  0  0  0  0  0  0  0  0  0
  146.2436  137.4991  151.4724 H   0  0  0  0  0  0  0  0  0  0  0  0
  146.6149  136.9891  153.1033 H   0  0  0  0  0  0  0  0  0  0  0  0
  144.2063  137.2415  153.7622 H   0  0  0  0  0  0  0  0  0  0  0  0
  143.8061  137.7912  152.1540 H   0  0  0  0  0  0  0  0  0  0  0  0
  145.0235  136.0276  150.2460 H   0  0  0  0  0  0  0  0  0  0  0  0
  144.6538  133.6531  149.5607 H   0  0  0  0  0  0  0  0  0  0  0  0
  143.6743  132.0259  151.2820 H   0  0  0  0  0  0  0  0  0  0  0  0
  143.4591  134.9746  154.1722 H   0  0  0  0  0  0  0  0  0  0  0  0
  145.2575  140.8517  154.7590 H   0  0  0  0  0  0  0  0  0  0  0  0
  146.0297  142.3913  154.9595 H   0  0  0  0  0  0  0  0  0  0  0  0
  143.1702  132.8125  153.4010 H   0  0  0  0  0  0  0  0  0  0  0  0
  1  2  1  0  0  0  0
  1 22  1  0  0  0  0
  1 23  1  0  0  0  0
  1 24  1  0  0  0  0
  2  3  2  0  0  0  0
  2  4  2  0  0  0  0
  2  5  1  0  0  0  0
  5 21  1  0  0  0  0
  5  6  1  0  0  0  0
  6  7  1  0  0  0  0
  6 25  1  0  0  0  0
  6 26  1  0  0  0  0
  7  8  1  0  0  0  0
  7 27  1  0  0  0  0
  7 28  1  0  0  0  0
  8  9  1  0  0  0  0
  8 29  1  0  0  0  0
  8 30  1  0  0  0  0
  9 10  1  0  0  0  0
  9 21  1  0  0  0  0
  9 31  1  0  0  0  0
 10 11  2  0  0  0  0
 10 12  1  0  0  0  0
 12 13  1  0  0  0  0
 12 32  1  0  0  0  0
 13 14  1  0  0  0  0
 13 33  1  0  0  0  0
 13 34  1  0  0  0  0
 14 15  1  0  0  0  0
 14 35  1  0  0  0  0
 14 36  1  0  0  0  0
 15 20  1  0  0  0  0
 15 16  2  0  0  0  0
 16 17  1  0  0  0  0
 16 37  1  0  0  0  0
 17 18  2  0  0  0  0
 17 38  1  0  0  0  0
 18 19  1  0  0  0  0
 18 39  1  0  0  0  0
 19 20  2  0  0  0  0
 19 43  1  0  0  0  0
 20 40  1  0  0  0  0
 21 41  1  0  0  0  0
 21 42  1  0  0  0  0
M  CHG  1  19   1
M  END
> <s_m_source_file>
AV-unprocessed.smi

> <i_m_source_file_index>
2135

> <i_lp_mmshare_version>
43012

> <i_f3d_flags>
0

> <s_epik_input>
W0NIM11TKD1PKSg9TylOMVtDSDJdW0NIMl1bQ0gyXVtDQEhdKFtDSDJdMSlDKD1PKVtOSF1bQ0gyXVtDSDJdYzJbY0hdW2NIXVtjSF1uW2NIXTI=

> <s_epik_cmdline>
J2VwaWtfcHl0aG9uJywgJy1waCcsICc3LjAnLCAnLXRuJywgJzgnLCAnLW1hJywgJzIwMCcsICctbWV0YWxfYmluZGluZycsICctaW1hZScsICc8aW5maWxlLm1hZT4nLCAnLW9tYWUnLCAnPG91dGZpbGUubWFlPic=

> <r_epik_Ionization_Penalty>
2.24912

> <r_epik_Ionization_Penalty_Charging>
2.24912

> <r_epik_Ionization_Penalty_Neutral>
2.62834e-08

> <r_epik_State_Penalty>
2.39611

> <r_epik_Charging_Adjusted_Penalty>
4.64523

> <i_epik_Tot_Q>
1

> <i_epik_Tot_abs_Q>
1

> <r_epik_Metal_State_Penalty>
2.40934

> <b_epik_Metal_Only>
0

> <s_lp_Force_Field>
OPLS_2005

> <r_lp_Energy>
5.07519

> <b_lp_Chiralities_Consistent>
1

> <s_lp_Variant>
AV-unprocessed.smi:2135-3

> <Gold.Version>
5.8.1

> <Gold.Id.Protein>
6NUR|6NUR_protein|mol2

> <Gold.PLP.Fitness>
39.1683

> <Gold.PLP.PLP>
-30.6537

> <Gold.PLP.part.hbond>
-3.0000

> <Gold.PLP.part.metal>
0.0000

> <Gold.PLP.part.buried>
-4.5769

> <Gold.PLP.part.nonpolar>
-24.9830

> <Gold.PLP.part.repulsive>
0.8133

> <Gold.PLP.ligand.clash>
0.0000

> <Gold.PLP.ligand.torsion>
1.3023

> <Gold.PLP.Chemscore.Hbond>
3.0000

> <Gold.PLP.Chemscore.CHOScore>
0.0000

> <Gold.PLP.Chemscore.Metal>
0.0000

> <Gold.Chemscore.Hbonds>
donor molecule, donor type, donor heavy atom, donor atom, acceptor molecule, acceptor atom, score
      L1  H    12    32       P1 10175  1.00
      L1  H    19    43       P1 10957  2.00

> <Gold.PLP.Chemscore.Internal.Correction>
2.1191

> <Gold.Rescore>
     Score         DG    S(hbond)    S(metal)    S(lipo)     H(rot)  DE(clash)    DE(int)     intcor
     13.55     -15.30       1.99        0.00      63.44       1.65       0.52       1.24       ----

> <Gold.Chemscore.Fitness>
13.5477

> <Gold.Chemscore.DG>
-15.3028

> <Gold.Chemscore.ZeroCoef>
-5.4800

> <Gold.Chemscore.Hbond>
1.9861

> <Gold.Chemscore.Metal>
0.0000

> <Gold.Chemscore.Lipo>
63.4448

> <Gold.Chemscore.Internal_Hbond>
0.0000

> <Gold.Chemscore.DEClash>
0.5170

> <Gold.Chemscore.DEInternal>
1.2382

> <Gold.Chemscore.Rot>
1.6538

> <Gold.Chemscore.Internal.Correction>
   9.000000E+99

> <Gold.Chemscore.Hbonds>
donor molecule, donor type, donor heavy atom, donor atom, acceptor molecule, acceptor atom, score
      L1  H    12    32       P1 10175  1.00
      L1  H    19    43       P1 10957  0.65

> <Gold.Chemscore.Hbond.Weighted>
-6.6335

> <Gold.Chemscore.Metal.Weighted>
-0.0000

> <Gold.Chemscore.Lipo.Weighted>
-7.4230

> <Gold.Chemscore.Internal_Hbond.Weighted>
0.0000

> <Gold.Chemscore.DEClash.Weighted>
0.5170

> <Gold.Chemscore.DEInternal.Weighted>
1.2382

> <Gold.Chemscore.Rot.Weighted>
4.2337

> <Gold.Chemscore.Internal.Correction.Weighted>
   9.000000E+99

> <Gold.Protein.RotatedTorsions>
[ 6907 6896 6895 6894 ] final   65.10 input  -60.11 | X-H torsion
[ 7974 7965 7964 7962 ] final  169.04 input  175.53 | X-H torsion
[ 8008 7997 7996 7995 ] final -159.18 input   59.86 | X-H torsion
[ 10167 10162 10161 10158 ] final  -35.01 input  -65.29 | X-H torsion
[ 10718 10713 10712 10709 ] final  121.32 input   66.30 | X-H torsion
[ 10763 10752 10751 10750 ] final   40.43 input  -60.55 | X-H torsion
[ 11005 11000 10999 10996 ] final   87.34 input  -57.11 | X-H torsion

> <Gold.Protein.ActiveResidues>
 VAL166  LYS551  ARG553  GLY616  TRP617  ASP618  TYR619  PRO620  LYS621  CYS622 
 ASP623  PHE694  ASN695  SER759  ASP760  ASP761  ALA762  ILE779  LEU786  VAL792 
 PHE793  MET794  SER795  GLU796  ALA797  LYS798  CYS799  TRP800  GLU811  SER814 

> <Gold.Protein.RotatedAtoms>
  152.4382  134.5644  159.9903 H   0  0  0  0  0  0  0  0  0  0  0  0  # atno 6907 bound_to 6896
  151.5749  133.3379  159.3005 H   0  0  0  0  0  0  0  0  0  0  0  0  # atno 6908 bound_to 6896
  150.8283  134.7559  159.6896 H   0  0  0  0  0  0  0  0  0  0  0  0  # atno 6909 bound_to 6896
  144.7368  139.8996  143.6408 H   0  0  0  0  0  0  0  0  0  0  0  0  # atno 7974 bound_to 7965
  155.7587  140.0836  157.2166 H   0  0  0  0  0  0  0  0  0  0  0  0  # atno 8008 bound_to 7997
  154.4005  140.1547  156.2863 H   0  0  0  0  0  0  0  0  0  0  0  0  # atno 8009 bound_to 7997
  155.8861  140.3418  155.5925 H   0  0  0  0  0  0  0  0  0  0  0  0  # atno 8010 bound_to 7997
  140.7174  143.3507  151.2162 H   0  0  0  0  0  0  0  0  0  0  0  0  # atno 10167 bound_to 10162
  157.5827  131.1073  150.8156 H   0  0  0  0  0  0  0  0  0  0  0  0  # atno 10718 bound_to 10713
  152.9937  135.6192  154.2624 H   0  0  0  0  0  0  0  0  0  0  0  0  # atno 10763 bound_to 10752
  154.2360  135.2790  155.2874 H   0  0  0  0  0  0  0  0  0  0  0  0  # atno 10764 bound_to 10752
  154.5410  135.5761  153.6897 H   0  0  0  0  0  0  0  0  0  0  0  0  # atno 10765 bound_to 10752
  139.8922  134.8416  156.2846 H   0  0  0  0  0  0  0  0  0  0  0  0  # atno 11005 bound_to 11000
  146.1082  139.4084  143.0304 LP  0  0  0  0  0  0  0  0  0  0  0  0  # atno 17320 bound_to 7965
  145.7482  140.9983  143.1265 LP  0  0  0  0  0  0  0  0  0  0  0  0  # atno 17321 bound_to 7965
  139.7037  143.9491  152.2917 LP  0  0  0  0  0  0  0  0  0  0  0  0  # atno 17342 bound_to 10162
  139.9192  144.6810  150.8479 LP  0  0  0  0  0  0  0  0  0  0  0  0  # atno 17343 bound_to 10162
  156.8599  130.5109  149.5304 LP  0  0  0  0  0  0  0  0  0  0  0  0  # atno 17370 bound_to 10713
  156.0873  130.5868  150.9671 LP  0  0  0  0  0  0  0  0  0  0  0  0  # atno 17371 bound_to 10713
  141.0016  133.7148  156.0969 LP  0  0  0  0  0  0  0  0  0  0  0  0  # atno 17394 bound_to 11000
  140.7490  134.4066  157.5544 LP  0  0  0  0  0  0  0  0  0  0  0  0  # atno 17395 bound_to 11000

$$$$
