AV-unprocessed.smi:1197|AV-procd|sdf|5009|dock9
  -GOLD-   22720 4 23D 1   1.00000     0.00000
 Structure written by MMmdl.
 41 42  0  0  0  0  0  0  0  0  2 V2000
  152.4968  140.1609  158.9439 C   0  0  0  0  0  0  0  0  0  0  0  0
  152.7234  140.1226  157.5392 O   0  0  0  0  0  0  0  0  0  0  0  0
  151.9980  139.2253  156.7828 C   0  0  0  0  0  0  0  0  0  0  0  0
  152.2109  139.1905  155.3904 C   0  0  0  0  0  0  0  0  0  0  0  0
  151.4744  138.2782  154.6109 C   0  0  0  0  0  0  0  0  0  0  0  0
  150.5384  137.4314  155.2510 C   0  0  0  0  0  0  0  0  0  0  0  0
  149.7535  136.4570  154.5774 N   0  0  0  0  0  0  0  0  0  0  0  0
  149.1973  135.3426  155.0823 C   0  0  0  0  0  0  0  0  0  0  0  0
  149.3173  134.9533  156.2437 O   0  0  0  0  0  0  0  0  0  0  0  0
  148.5004  134.6819  154.1466 N   0  0  0  0  0  0  0  0  0  0  0  0
  147.7856  133.4265  154.3528 C   0  0  0  0  0  0  0  0  0  0  0  0
  148.3361  132.3340  153.4216 C   0  0  0  0  0  0  0  0  0  0  0  0
  147.4190  132.0452  152.2903 N   0  3  0  0  0  0  0  0  0  0  0  0
  146.2389  131.2486  152.7032 C   0  0  0  0  0  0  0  0  0  0  0  0
  145.3505  130.9314  151.4879 C   0  0  0  0  0  0  0  0  0  0  0  0
  144.9596  132.1418  150.8523 O   0  0  0  0  0  0  0  0  0  0  0  0
  146.0785  132.8774  150.3734 C   0  0  0  0  0  0  0  0  0  0  0  0
  146.9886  133.2592  151.5529 C   0  0  0  0  0  0  0  0  0  0  0  0
  150.4114  137.5338  156.6517 C   0  0  0  0  0  0  0  0  0  0  0  0
  151.1130  138.4071  157.4046 N   0  0  0  0  0  0  0  0  0  0  0  0
  153.1498  140.9085  159.3939 H   0  0  0  0  0  0  0  0  0  0  0  0
  152.7220  139.2013  159.4114 H   0  0  0  0  0  0  0  0  0  0  0  0
  151.4675  140.4394  159.1740 H   0  0  0  0  0  0  0  0  0  0  0  0
  152.9314  139.8487  154.9279 H   0  0  0  0  0  0  0  0  0  0  0  0
  151.6523  138.2362  153.5475 H   0  0  0  0  0  0  0  0  0  0  0  0
  149.6472  136.5992  153.5835 H   0  0  0  0  0  0  0  0  0  0  0  0
  148.4596  135.0806  153.2199 H   0  0  0  0  0  0  0  0  0  0  0  0
  147.8526  133.1086  155.3933 H   0  0  0  0  0  0  0  0  0  0  0  0
  146.7285  133.5967  154.1465 H   0  0  0  0  0  0  0  0  0  0  0  0
  149.2942  132.6766  153.0275 H   0  0  0  0  0  0  0  0  0  0  0  0
  148.5416  131.4163  153.9754 H   0  0  0  0  0  0  0  0  0  0  0  0
  146.5640  130.3179  153.1696 H   0  0  0  0  0  0  0  0  0  0  0  0
  145.6674  131.8005  153.4512 H   0  0  0  0  0  0  0  0  0  0  0  0
  145.8730  130.2862  150.7799 H   0  0  0  0  0  0  0  0  0  0  0  0
  144.4560  130.3955  151.8062 H   0  0  0  0  0  0  0  0  0  0  0  0
  146.6257  132.2923  149.6325 H   0  0  0  0  0  0  0  0  0  0  0  0
  145.7213  133.7754  149.8690 H   0  0  0  0  0  0  0  0  0  0  0  0
  146.4558  133.9297  152.2293 H   0  0  0  0  0  0  0  0  0  0  0  0
  147.8519  133.8070  151.1771 H   0  0  0  0  0  0  0  0  0  0  0  0
  149.7215  136.8980  157.1871 H   0  0  0  0  0  0  0  0  0  0  0  0
  147.9340  131.4690  151.6398 H   0  0  0  0  0  0  0  0  0  0  0  0
  1  2  1  0  0  0  0
  1 21  1  0  0  0  0
  1 22  1  0  0  0  0
  1 23  1  0  0  0  0
  2  3  1  0  0  0  0
  3 20  1  0  0  0  0
  3  4  2  0  0  0  0
  4  5  1  0  0  0  0
  4 24  1  0  0  0  0
  5  6  2  0  0  0  0
  5 25  1  0  0  0  0
  6  7  1  0  0  0  0
  6 19  1  0  0  0  0
  7  8  1  0  0  0  0
  7 26  1  0  0  0  0
  8  9  2  0  0  0  0
  8 10  1  0  0  0  0
 10 11  1  0  0  0  0
 10 27  1  0  0  0  0
 11 12  1  0  0  0  0
 11 28  1  0  0  0  0
 11 29  1  0  0  0  0
 12 13  1  0  0  0  0
 12 30  1  0  0  0  0
 12 31  1  0  0  0  0
 13 18  1  0  0  0  0
 13 14  1  0  0  0  0
 13 41  1  0  0  0  0
 14 15  1  0  0  0  0
 14 32  1  0  0  0  0
 14 33  1  0  0  0  0
 15 16  1  0  0  0  0
 15 34  1  0  0  0  0
 15 35  1  0  0  0  0
 16 17  1  0  0  0  0
 17 18  1  0  0  0  0
 17 36  1  0  0  0  0
 17 37  1  0  0  0  0
 18 38  1  0  0  0  0
 18 39  1  0  0  0  0
 19 20  2  0  0  0  0
 19 40  1  0  0  0  0
M  CHG  1  13   1
M  END
> <s_m_source_file>
AV-unprocessed.smi

> <i_m_source_file_index>
1197

> <i_lp_mmshare_version>
43012

> <i_f3d_flags>
0

> <s_epik_input>
W0NIM11PYzFbY0hdW2NIXWMoW2NIXW4xKVtOSF1DKD1PKVtOSF1bQ0gyXVtDSDJdTjJbQ0gyXVtDSDJdT1tDSDJdW0NIMl0y

> <s_epik_cmdline>
J2VwaWtfcHl0aG9uJywgJy1waCcsICc3LjAnLCAnLXRuJywgJzgnLCAnLW1hJywgJzIwMCcsICctbWV0YWxfYmluZGluZycsICctaW1hZScsICc8aW5maWxlLm1hZT4nLCAnLW9tYWUnLCAnPG91dGZpbGUubWFlPic=

> <r_lp_tautomer_probability>
1

> <r_epik_Ionization_Penalty>
0.602607

> <r_epik_Ionization_Penalty_Charging>
0.602531

> <r_epik_Ionization_Penalty_Neutral>
7.65795e-05

> <r_epik_State_Penalty>
0.617039

> <r_epik_Charging_Adjusted_Penalty>
1.21957

> <i_epik_Tot_Q>
1

> <i_epik_Tot_abs_Q>
1

> <r_epik_Metal_State_Penalty>
0.617043

> <b_epik_Metal_Only>
0

> <s_lp_Force_Field>
OPLS_2005

> <r_lp_Energy>
19.492

> <b_lp_Chiralities_Consistent>
1

> <s_lp_Variant>
AV-unprocessed.smi:1197-2

> <Gold.Version>
5.8.1

> <Gold.Id.Protein>
6NUR|6NUR_protein|mol2

> <Gold.PLP.Fitness>
43.4638

> <Gold.PLP.PLP>
-32.4642

> <Gold.PLP.part.hbond>
-4.0000

> <Gold.PLP.part.metal>
0.0000

> <Gold.PLP.part.buried>
-4.5349

> <Gold.PLP.part.nonpolar>
-24.2093

> <Gold.PLP.part.repulsive>
0.1802

> <Gold.PLP.ligand.clash>
0.0000

> <Gold.PLP.ligand.torsion>
0.5172

> <Gold.PLP.Chemscore.Hbond>
4.0000

> <Gold.PLP.Chemscore.CHOScore>
0.0000

> <Gold.PLP.Chemscore.Metal>
0.0000

> <Gold.Chemscore.Hbonds>
donor molecule, donor type, donor heavy atom, donor atom, acceptor molecule, acceptor atom, score
      L1  H     7    26       P1  7948  1.00
      L1  H    10    27       P1  7948  1.00
      L1  H    13    41       P1 10747  1.00
      P1  H  7997  8008       L1     2  1.00

> <Gold.PLP.Chemscore.Internal.Correction>
0.0341

> <Gold.Rescore>
     Score         DG    S(hbond)    S(metal)    S(lipo)     H(rot)  DE(clash)    DE(int)     intcor
     18.87     -20.72       3.50        0.00      70.32       1.83       0.00       1.85       ----

> <Gold.Chemscore.Fitness>
18.8657

> <Gold.Chemscore.DG>
-20.7200

> <Gold.Chemscore.ZeroCoef>
-5.4800

> <Gold.Chemscore.Hbond>
3.4992

> <Gold.Chemscore.Metal>
0.0000

> <Gold.Chemscore.Lipo>
70.3185

> <Gold.Chemscore.Internal_Hbond>
0.0000

> <Gold.Chemscore.DEClash>
0.0015

> <Gold.Chemscore.DEInternal>
1.8529

> <Gold.Chemscore.Rot>
1.8260

> <Gold.Chemscore.Internal.Correction>
   9.000000E+99

> <Gold.Chemscore.Hbonds>
donor molecule, donor type, donor heavy atom, donor atom, acceptor molecule, acceptor atom, score
      L1  H     7    26       P1  7948  0.59
      L1  H    10    27       P1  7948  0.84
      L1  H    13    41       P1 10747  1.00
      P1  H  7997  8008       L1     2  0.33

> <Gold.Chemscore.Hbond.Weighted>
-11.6872

> <Gold.Chemscore.Metal.Weighted>
-0.0000

> <Gold.Chemscore.Lipo.Weighted>
-8.2273

> <Gold.Chemscore.Internal_Hbond.Weighted>
0.0000

> <Gold.Chemscore.DEClash.Weighted>
0.0015

> <Gold.Chemscore.DEInternal.Weighted>
1.8529

> <Gold.Chemscore.Rot.Weighted>
4.6744

> <Gold.Chemscore.Internal.Correction.Weighted>
   9.000000E+99

> <Gold.Protein.RotatedTorsions>
[ 6907 6896 6895 6894 ] final  140.56 input  -60.11 | X-H torsion
[ 7974 7965 7964 7962 ] final   73.25 input  175.53 | X-H torsion
[ 8008 7997 7996 7995 ] final  -60.83 input   59.86 | X-H torsion
[ 10167 10162 10161 10158 ] final  -13.27 input  -65.29 | X-H torsion
[ 10718 10713 10712 10709 ] final   62.95 input   66.30 | X-H torsion
[ 10763 10752 10751 10750 ] final -115.34 input  -60.55 | X-H torsion
[ 11005 11000 10999 10996 ] final -105.76 input  -57.11 | X-H torsion

> <Gold.Protein.ActiveResidues>
 VAL166  LYS551  ARG553  GLY616  TRP617  ASP618  TYR619  PRO620  LYS621  CYS622 
 ASP623  PHE694  ASN695  SER759  ASP760  ASP761  ALA762  ILE779  LEU786  VAL792 
 PHE793  MET794  SER795  GLU796  ALA797  LYS798  CYS799  TRP800  GLU811  SER814 

> <Gold.Protein.RotatedAtoms>
  152.2416  133.5140  159.5273 H   0  0  0  0  0  0  0  0  0  0  0  0  # atno 6907 bound_to 6896
  150.7066  134.1081  159.3999 H   0  0  0  0  0  0  0  0  0  0  0  0  # atno 6908 bound_to 6896
  151.9002  135.0381  160.0556 H   0  0  0  0  0  0  0  0  0  0  0  0  # atno 6909 bound_to 6896
  145.7432  139.2729  143.1474 H   0  0  0  0  0  0  0  0  0  0  0  0  # atno 7974 bound_to 7965
  154.4418  140.1031  156.6336 H   0  0  0  0  0  0  0  0  0  0  0  0  # atno 8008 bound_to 7997
  155.5578  140.3487  155.4465 H   0  0  0  0  0  0  0  0  0  0  0  0  # atno 8009 bound_to 7997
  156.0482  140.1298  157.0069 H   0  0  0  0  0  0  0  0  0  0  0  0  # atno 8010 bound_to 7997
  140.7179  143.5444  150.9372 H   0  0  0  0  0  0  0  0  0  0  0  0  # atno 10167 bound_to 10162
  157.5937  130.9078  149.9653 H   0  0  0  0  0  0  0  0  0  0  0  0  # atno 10718 bound_to 10713
  154.8477  135.4385  154.1648 H   0  0  0  0  0  0  0  0  0  0  0  0  # atno 10763 bound_to 10752
  153.2776  135.6950  153.7424 H   0  0  0  0  0  0  0  0  0  0  0  0  # atno 10764 bound_to 10752
  153.6640  135.3430  155.3110 H   0  0  0  0  0  0  0  0  0  0  0  0  # atno 10765 bound_to 10752
  141.1038  133.8835  157.1773 H   0  0  0  0  0  0  0  0  0  0  0  0  # atno 11005 bound_to 11000
  146.0428  140.8148  142.9820 LP  0  0  0  0  0  0  0  0  0  0  0  0  # atno 17320 bound_to 7965
  144.6866  140.2935  143.7274 LP  0  0  0  0  0  0  0  0  0  0  0  0  # atno 17321 bound_to 7965
  139.9167  143.6654  152.3105 LP  0  0  0  0  0  0  0  0  0  0  0  0  # atno 17342 bound_to 10162
  139.7057  144.7628  151.1197 LP  0  0  0  0  0  0  0  0  0  0  0  0  # atno 17343 bound_to 10162
  156.0996  130.3657  150.0243 LP  0  0  0  0  0  0  0  0  0  0  0  0  # atno 17370 bound_to 10713
  156.8361  130.9409  151.3634 LP  0  0  0  0  0  0  0  0  0  0  0  0  # atno 17371 bound_to 10713
  139.9899  135.0068  156.9951 LP  0  0  0  0  0  0  0  0  0  0  0  0  # atno 17394 bound_to 11000
  140.4955  134.1150  155.7240 LP  0  0  0  0  0  0  0  0  0  0  0  0  # atno 17395 bound_to 11000

$$$$
