AV-unprocessed.smi:236|AV-procd|sdf|1812|dock7
  -GOLD-   2262020393D 1   1.00000     0.00000
 Structure written by MMmdl.
 58 62  0  0  0  0  0  0  0  0  1 V2000
  142.9066  132.4800  150.4609 C   0  0  0  0  0  0  0  0  0  0  0  0
  144.3466  132.3089  150.9667 C   0  0  1  0  0  0  0  0  0  0  0  0
  145.1995  131.8524  149.9202 O   0  0  0  0  0  0  0  0  0  0  0  0
  146.5112  132.3830  150.0892 C   0  0  0  0  0  0  0  0  0  0  0  0
  146.4901  133.1229  151.4238 C   0  0  0  0  0  0  0  0  0  0  0  0
  145.0351  133.5623  151.5388 C   0  0  2  0  0  0  0  0  0  0  0  0
  144.7126  133.7201  152.9075 O   0  0  0  0  0  0  0  0  0  0  0  0
  144.7080  134.8713  150.7676 C   0  0  0  0  0  0  0  0  0  0  0  0
  145.4707  136.0269  151.2129 N   0  0  0  0  0  0  0  0  0  0  0  0
  146.3807  136.7487  150.4736 C   0  0  0  0  0  0  0  0  0  0  0  0
  146.9436  137.7446  151.1015 N   0  0  0  0  0  0  0  0  0  0  0  0
  146.3626  137.7211  152.3638 C   0  0  0  0  0  0  0  0  0  0  0  0
  146.5059  138.5074  153.5424 C   0  0  0  0  0  0  0  0  0  0  0  0
  147.3530  139.5487  153.6802 N   0  0  0  0  0  0  0  0  0  0  0  0
  146.6770  140.7904  154.0290 C   0  0  0  0  0  0  0  0  0  0  0  0
  147.6785  141.9559  153.9997 C   0  0  0  0  0  0  0  0  0  0  0  0
  148.7767  141.6582  154.8565 O   0  0  0  0  0  0  0  0  0  0  0  0
  149.4883  140.4914  154.4466 C   0  0  1  0  0  0  0  0  0  0  0  0
  150.6861  140.3083  155.3868 C   0  0  0  0  0  0  0  0  0  0  0  0
  150.3670  140.8580  156.6543 O   0  0  0  0  0  0  0  0  0  0  0  0
  151.5173  141.2215  157.3974 C   0  0  0  0  0  0  0  0  0  0  0  0
  151.2423  142.5149  158.1342 C   0  0  0  0  0  0  0  0  0  0  0  0
  151.9977  143.7800  157.7935 C   0  0  0  0  0  0  0  0  0  0  0  0
  152.2666  143.0721  159.0966 C   0  0  0  0  0  0  0  0  0  0  0  0
  148.5255  139.2894  154.5068 C   0  0  0  0  0  0  0  0  0  0  0  0
  145.7581  138.1766  154.6233 N   0  0  0  0  0  0  0  0  0  0  0  0
  144.9117  137.1443  154.5592 C   0  0  0  0  0  0  0  0  0  0  0  0
  144.6705  136.3237  153.5342 N   0  0  0  0  0  0  0  0  0  0  0  0
  145.4297  136.6493  152.4484 C   0  0  0  0  0  0  0  0  0  0  0  0
  142.2567  132.8584  151.2503 H   0  0  0  0  0  0  0  0  0  0  0  0
  142.5009  131.5248  150.1278 H   0  0  0  0  0  0  0  0  0  0  0  0
  142.8527  133.1680  149.6173 H   0  0  0  0  0  0  0  0  0  0  0  0
  144.3546  131.5254  151.7270 H   0  0  0  0  0  0  0  0  0  0  0  0
  147.2645  131.5954  150.0658 H   0  0  0  0  0  0  0  0  0  0  0  0
  146.7176  133.0727  149.2701 H   0  0  0  0  0  0  0  0  0  0  0  0
  146.7341  132.4168  152.2197 H   0  0  0  0  0  0  0  0  0  0  0  0
  147.2194  133.9297  151.4792 H   0  0  0  0  0  0  0  0  0  0  0  0
  145.4162  134.1896  153.3295 H   0  0  0  0  0  0  0  0  0  0  0  0
  144.8924  134.7388  149.7012 H   0  0  0  0  0  0  0  0  0  0  0  0
  143.6494  135.1152  150.8634 H   0  0  0  0  0  0  0  0  0  0  0  0
  146.6243  136.5038  149.4499 H   0  0  0  0  0  0  0  0  0  0  0  0
  145.8612  140.9817  153.3308 H   0  0  0  0  0  0  0  0  0  0  0  0
  146.2381  140.7021  155.0239 H   0  0  0  0  0  0  0  0  0  0  0  0
  148.0339  142.1387  152.9843 H   0  0  0  0  0  0  0  0  0  0  0  0
  147.1984  142.8732  154.3402 H   0  0  0  0  0  0  0  0  0  0  0  0
  149.8504  140.6176  153.4245 H   0  0  0  0  0  0  0  0  0  0  0  0
  150.9436  139.2514  155.4729 H   0  0  0  0  0  0  0  0  0  0  0  0
  151.5573  140.8273  154.9840 H   0  0  0  0  0  0  0  0  0  0  0  0
  151.7560  140.4460  158.1263 H   0  0  0  0  0  0  0  0  0  0  0  0
  152.3801  141.3432  156.7405 H   0  0  0  0  0  0  0  0  0  0  0  0
  150.2032  142.6367  158.4351 H   0  0  0  0  0  0  0  0  0  0  0  0
  152.7639  143.7222  157.0230 H   0  0  0  0  0  0  0  0  0  0  0  0
  151.4485  144.7184  157.8344 H   0  0  0  0  0  0  0  0  0  0  0  0
  151.8972  143.5373  160.0081 H   0  0  0  0  0  0  0  0  0  0  0  0
  153.2128  142.5433  159.1935 H   0  0  0  0  0  0  0  0  0  0  0  0
  148.2253  139.1157  155.5404 H   0  0  0  0  0  0  0  0  0  0  0  0
  149.0279  138.3857  154.1591 H   0  0  0  0  0  0  0  0  0  0  0  0
  144.3492  136.9458  155.4596 H   0  0  0  0  0  0  0  0  0  0  0  0
  1  2  1  0  0  0  0
  1 30  1  0  0  0  0
  1 31  1  0  0  0  0
  1 32  1  0  0  0  0
  2  6  1  0  0  0  0
  2  3  1  0  0  0  0
  2 33  1  0  0  0  0
  3  4  1  0  0  0  0
  4  5  1  0  0  0  0
  4 34  1  0  0  0  0
  4 35  1  0  0  0  0
  5  6  1  0  0  0  0
  5 36  1  0  0  0  0
  5 37  1  0  0  0  0
  6  7  1  0  0  0  0
  6  8  1  0  0  0  0
  7 38  1  0  0  0  0
  8  9  1  0  0  0  0
  8 39  1  0  0  0  0
  8 40  1  0  0  0  0
  9 29  1  0  0  0  0
  9 10  1  0  0  0  0
 10 11  2  0  0  0  0
 10 41  1  0  0  0  0
 11 12  1  0  0  0  0
 12 29  2  0  0  0  0
 12 13  1  0  0  0  0
 13 14  1  0  0  0  0
 13 26  2  0  0  0  0
 14 25  1  0  0  0  0
 14 15  1  0  0  0  0
 15 16  1  0  0  0  0
 15 42  1  0  0  0  0
 15 43  1  0  0  0  0
 16 17  1  0  0  0  0
 16 44  1  0  0  0  0
 16 45  1  0  0  0  0
 17 18  1  0  0  0  0
 18 19  1  0  0  0  0
 18 25  1  0  0  0  0
 18 46  1  0  0  0  0
 19 20  1  0  0  0  0
 19 47  1  0  0  0  0
 19 48  1  0  0  0  0
 20 21  1  0  0  0  0
 21 22  1  0  0  0  0
 21 49  1  0  0  0  0
 21 50  1  0  0  0  0
 22 24  1  0  0  0  0
 22 23  1  0  0  0  0
 22 51  1  0  0  0  0
 23 24  1  0  0  0  0
 23 52  1  0  0  0  0
 23 53  1  0  0  0  0
 24 54  1  0  0  0  0
 24 55  1  0  0  0  0
 25 56  1  0  0  0  0
 25 57  1  0  0  0  0
 26 27  1  0  0  0  0
 27 28  2  0  0  0  0
 27 58  1  0  0  0  0
 28 29  1  0  0  0  0
M  END
> <s_m_source_file>
AV-unprocessed.smi

> <i_m_source_file_index>
236

> <i_lp_mmshare_version>
43012

> <i_f3d_flags>
0

> <s_epik_input>
W0NIMl0xW0NIMl1PW0NAQEhdKFtDSDNdKVtDQEBdMShbT0hdKVtDSDJdbihbY0hdbjIpYyhjMjMpbltjSF1uYzNONFtDSDJdW0NIMl1PW0NASF0oW0NIMl00KVtDSDJdT1tDSDJdW0NIXTVbQ0gyXVtDSDJdNQ==

> <s_epik_cmdline>
J2VwaWtfcHl0aG9uJywgJy1waCcsICc3LjAnLCAnLXRuJywgJzgnLCAnLW1hJywgJzIwMCcsICctbWV0YWxfYmluZGluZycsICctaW1hZScsICc8aW5maWxlLm1hZT4nLCAnLW9tYWUnLCAnPG91dGZpbGUubWFlPic=

> <r_lp_tautomer_probability>
1

> <r_epik_Ionization_Penalty>
7.21838e-05

> <r_epik_Ionization_Penalty_Charging>
0

> <r_epik_Ionization_Penalty_Neutral>
7.21838e-05

> <r_epik_State_Penalty>
-0

> <r_epik_Charging_Adjusted_Penalty>
0

> <i_epik_Tot_Q>
0

> <i_epik_Tot_abs_Q>
0

> <r_epik_Metal_State_Penalty>
-0

> <b_epik_Metal_Only>
0

> <s_lp_Force_Field>
OPLS_2005

> <r_lp_Energy>
49.6686

> <b_lp_Chiralities_Consistent>
1

> <s_lp_Variant>
AV-unprocessed.smi:236-4

> <Gold.Version>
5.8.1

> <Gold.Id.Protein>
6NUR|6NUR_protein|mol2

> <Gold.PLP.Fitness>
44.1220

> <Gold.PLP.PLP>
-41.1935

> <Gold.PLP.part.hbond>
-1.0000

> <Gold.PLP.part.metal>
0.0000

> <Gold.PLP.part.buried>
1.8695

> <Gold.PLP.part.nonpolar>
-46.2505

> <Gold.PLP.part.repulsive>
3.0656

> <Gold.PLP.ligand.clash>
0.0000

> <Gold.PLP.ligand.torsion>
1.3399

> <Gold.PLP.Chemscore.Hbond>
0.6000

> <Gold.PLP.Chemscore.CHOScore>
0.9984

> <Gold.PLP.Chemscore.Metal>
0.0000

> <Gold.Chemscore.Hbonds>
donor molecule, donor type, donor heavy atom, donor atom, acceptor molecule, acceptor atom, score
      P1  H  7954  7966       L1    11  0.55
      L1  C    10    41       P1  7921  1.00

> <Gold.PLP.Chemscore.Internal.Correction>
0.8129

> <Gold.Rescore>
     Score         DG    S(hbond)    S(metal)    S(lipo)     H(rot)  DE(clash)    DE(int)     intcor
      7.10     -12.88       0.07        0.00     124.04       2.87       2.93       2.85       ----

> <Gold.Chemscore.Fitness>
7.0996

> <Gold.Chemscore.DG>
-12.8795

> <Gold.Chemscore.ZeroCoef>
-5.4800

> <Gold.Chemscore.Hbond>
0.0668

> <Gold.Chemscore.Metal>
0.0000

> <Gold.Chemscore.Lipo>
124.0363

> <Gold.Chemscore.Internal_Hbond>
0.0000

> <Gold.Chemscore.DEClash>
2.9267

> <Gold.Chemscore.DEInternal>
2.8533

> <Gold.Chemscore.Rot>
2.8655

> <Gold.Chemscore.Internal.Correction>
   9.000000E+99

> <Gold.Chemscore.Hbonds>
donor molecule, donor type, donor heavy atom, donor atom, acceptor molecule, acceptor atom, score
      P1  H  7954  7966       L1    11  0.03

> <Gold.Chemscore.Hbond.Weighted>
-0.2230

> <Gold.Chemscore.Metal.Weighted>
-0.0000

> <Gold.Chemscore.Lipo.Weighted>
-14.5123

> <Gold.Chemscore.Internal_Hbond.Weighted>
0.0000

> <Gold.Chemscore.DEClash.Weighted>
2.9267

> <Gold.Chemscore.DEInternal.Weighted>
2.8533

> <Gold.Chemscore.Rot.Weighted>
7.3358

> <Gold.Chemscore.Internal.Correction.Weighted>
   9.000000E+99

> <Gold.Protein.RotatedTorsions>
[ 6907 6896 6895 6894 ] final  -85.42 input  -60.11 | X-H torsion
[ 7974 7965 7964 7962 ] final  -29.74 input  175.53 | X-H torsion
[ 8008 7997 7996 7995 ] final  -28.43 input   59.86 | X-H torsion
[ 10167 10162 10161 10158 ] final  158.58 input  -65.29 | X-H torsion
[ 10718 10713 10712 10709 ] final -162.78 input   66.30 | X-H torsion
[ 10763 10752 10751 10750 ] final -111.32 input  -60.55 | X-H torsion
[ 11005 11000 10999 10996 ] final   81.17 input  -57.11 | X-H torsion

> <Gold.Protein.ActiveResidues>
 VAL166  LYS551  ARG553  GLY616  TRP617  ASP618  TYR619  PRO620  LYS621  CYS622 
 ASP623  PHE694  ASN695  SER759  ASP760  ASP761  ALA762  ILE779  LEU786  VAL792 
 PHE793  MET794  SER795  GLU796  ALA797  LYS798  CYS799  TRP800  GLU811  SER814 

> <Gold.Protein.RotatedAtoms>
  150.6870  134.3207  159.4785 H   0  0  0  0  0  0  0  0  0  0  0  0  # atno 6907 bound_to 6896
  152.1083  134.9290  160.0576 H   0  0  0  0  0  0  0  0  0  0  0  0  # atno 6908 bound_to 6896
  152.0543  133.3998  159.4427 H   0  0  0  0  0  0  0  0  0  0  0  0  # atno 6909 bound_to 6896
  146.1194  140.5451  142.8742 H   0  0  0  0  0  0  0  0  0  0  0  0  # atno 7974 bound_to 7965
  154.4333  140.1845  156.1088 H   0  0  0  0  0  0  0  0  0  0  0  0  # atno 8008 bound_to 7997
  156.0234  140.3338  155.7037 H   0  0  0  0  0  0  0  0  0  0  0  0  # atno 8009 bound_to 7997
  155.5943  140.0634  157.2741 H   0  0  0  0  0  0  0  0  0  0  0  0  # atno 8010 bound_to 7997
  139.4827  144.4811  151.8443 H   0  0  0  0  0  0  0  0  0  0  0  0  # atno 10167 bound_to 10162
  156.6153  130.8867  151.2945 H   0  0  0  0  0  0  0  0  0  0  0  0  # atno 10718 bound_to 10713
  154.8294  135.4531  154.1021 H   0  0  0  0  0  0  0  0  0  0  0  0  # atno 10763 bound_to 10752
  153.2307  135.6905  153.7899 H   0  0  0  0  0  0  0  0  0  0  0  0  # atno 10764 bound_to 10752
  153.7282  135.3331  155.3257 H   0  0  0  0  0  0  0  0  0  0  0  0  # atno 10765 bound_to 10752
  139.9108  134.7976  156.2006 H   0  0  0  0  0  0  0  0  0  0  0  0  # atno 11005 bound_to 11000
  144.7583  140.5361  143.6753 LP  0  0  0  0  0  0  0  0  0  0  0  0  # atno 17320 bound_to 7965
  145.5498  139.1476  143.3400 LP  0  0  0  0  0  0  0  0  0  0  0  0  # atno 17321 bound_to 7965
  140.4287  144.2145  150.5887 LP  0  0  0  0  0  0  0  0  0  0  0  0  # atno 17342 bound_to 10162
  140.4801  143.2382  151.8967 LP  0  0  0  0  0  0  0  0  0  0  0  0  # atno 17343 bound_to 10162
  157.7243  130.9601  150.1567 LP  0  0  0  0  0  0  0  0  0  0  0  0  # atno 17370 bound_to 10713
  156.2356  130.3686  149.8395 LP  0  0  0  0  0  0  0  0  0  0  0  0  # atno 17371 bound_to 10713
  141.0527  133.6880  156.1802 LP  0  0  0  0  0  0  0  0  0  0  0  0  # atno 17394 bound_to 11000
  140.6785  134.4792  157.5588 LP  0  0  0  0  0  0  0  0  0  0  0  0  # atno 17395 bound_to 11000

$$$$
