AV-unprocessed.smi:1662|AV-procd|sdf|6657|dock7
  -GOLD-   22720 7363D 1   1.00000     0.00000
 Structure written by MMmdl.
 47 48  0  0  0  0  0  0  0  0  1 V2000
  150.9430  144.3585  158.5509 C   0  0  0  0  0  0  0  0  0  0  0  0
  151.7787  143.1160  158.7026 C   0  0  0  0  0  0  0  0  0  0  0  0
  151.5779  142.1724  157.8425 N   0  0  0  0  0  0  0  0  0  0  0  0
  152.2897  140.9893  157.8930 N   0  0  0  0  0  0  0  0  0  0  0  0
  151.9153  140.0185  156.8536 C   0  0  0  0  0  0  0  0  0  0  0  0
  150.7393  140.4822  155.9813 C   0  0  0  0  0  0  0  0  0  0  0  0
  150.9272  141.2105  155.0056 O   0  0  0  0  0  0  0  0  0  0  0  0
  149.5290  140.0265  156.3417 N   0  0  0  0  0  0  0  0  0  0  0  0
  148.2622  140.3346  155.6786 C   0  0  2  0  0  0  0  0  0  0  0  0
  148.4279  140.0881  154.1667 C   0  0  0  0  0  0  0  0  0  0  0  0
  147.1602  140.4564  153.3834 C   0  0  0  0  0  0  0  0  0  0  0  0
  146.7375  141.9068  153.6651 C   0  0  0  0  0  0  0  0  0  0  0  0
  146.5426  142.1754  155.1712 C   0  0  1  0  0  0  0  0  0  0  0  0
  145.2547  141.5144  155.7038 C   0  0  0  0  0  0  0  0  0  0  0  0
  147.8245  141.7968  155.9610 C   0  0  1  0  0  0  0  0  0  0  0  0
  147.7009  142.1159  157.4641 C   0  0  0  0  0  0  0  0  0  0  0  0
  153.2563  140.7033  158.8126 C   0  0  0  0  0  0  0  0  0  0  0  0
  153.8752  139.6381  158.8138 O   0  0  0  0  0  0  0  0  0  0  0  0
  153.4771  141.7762  159.7849 C   0  0  0  0  0  0  0  0  0  0  0  0
  154.4759  141.5143  160.7703 C   0  0  0  0  0  0  0  0  0  0  0  0
  155.2714  141.2942  161.5820 N   0  0  0  0  0  0  0  0  0  0  0  0
  152.7786  142.9386  159.7506 C   0  0  0  0  0  0  0  0  0  0  0  0
  152.9693  144.0830  160.7367 C   0  0  0  0  0  0  0  0  0  0  0  0
  151.5749  145.2347  158.4052 H   0  0  0  0  0  0  0  0  0  0  0  0
  150.3324  144.5246  159.4385 H   0  0  0  0  0  0  0  0  0  0  0  0
  150.2691  144.2939  157.6950 H   0  0  0  0  0  0  0  0  0  0  0  0
  152.7647  139.8221  156.1966 H   0  0  0  0  0  0  0  0  0  0  0  0
  151.6728  139.0582  157.3126 H   0  0  0  0  0  0  0  0  0  0  0  0
  149.4777  139.4251  157.1512 H   0  0  0  0  0  0  0  0  0  0  0  0
  147.4840  139.6613  156.0410 H   0  0  0  0  0  0  0  0  0  0  0  0
  149.2653  140.6755  153.7871 H   0  0  0  0  0  0  0  0  0  0  0  0
  148.6784  139.0423  153.9844 H   0  0  0  0  0  0  0  0  0  0  0  0
  147.3355  140.3240  152.3153 H   0  0  0  0  0  0  0  0  0  0  0  0
  146.3529  139.7728  153.6466 H   0  0  0  0  0  0  0  0  0  0  0  0
  147.5025  142.5804  153.2767 H   0  0  0  0  0  0  0  0  0  0  0  0
  145.8244  142.1416  153.1170 H   0  0  0  0  0  0  0  0  0  0  0  0
  146.3987  143.2512  155.2811 H   0  0  0  0  0  0  0  0  0  0  0  0
  145.3120  140.4266  155.6894 H   0  0  0  0  0  0  0  0  0  0  0  0
  144.3929  141.8041  155.1021 H   0  0  0  0  0  0  0  0  0  0  0  0
  145.0417  141.8205  156.7277 H   0  0  0  0  0  0  0  0  0  0  0  0
  148.6179  142.4434  155.5816 H   0  0  0  0  0  0  0  0  0  0  0  0
  147.0239  141.4252  157.9670 H   0  0  0  0  0  0  0  0  0  0  0  0
  147.3267  143.1275  157.6215 H   0  0  0  0  0  0  0  0  0  0  0  0
  148.6660  142.0505  157.9666 H   0  0  0  0  0  0  0  0  0  0  0  0
  153.7273  143.8602  161.4868 H   0  0  0  0  0  0  0  0  0  0  0  0
  152.0386  144.2920  161.2653 H   0  0  0  0  0  0  0  0  0  0  0  0
  153.2805  144.9890  160.2157 H   0  0  0  0  0  0  0  0  0  0  0  0
  1  2  1  0  0  0  0
  1 24  1  0  0  0  0
  1 25  1  0  0  0  0
  1 26  1  0  0  0  0
  2 22  1  0  0  0  0
  2  3  2  0  0  0  0
  3  4  1  0  0  0  0
  4  5  1  0  0  0  0
  4 17  1  0  0  0  0
  5  6  1  0  0  0  0
  5 27  1  0  0  0  0
  5 28  1  0  0  0  0
  6  7  2  0  0  0  0
  6  8  1  0  0  0  0
  8  9  1  0  0  0  0
  8 29  1  0  0  0  0
  9 15  1  0  0  0  0
  9 10  1  0  0  0  0
  9 30  1  0  0  0  0
 10 11  1  0  0  0  0
 10 31  1  0  0  0  0
 10 32  1  0  0  0  0
 11 12  1  0  0  0  0
 11 33  1  0  0  0  0
 11 34  1  0  0  0  0
 12 13  1  0  0  0  0
 12 35  1  0  0  0  0
 12 36  1  0  0  0  0
 13 14  1  0  0  0  0
 13 15  1  0  0  0  0
 13 37  1  0  0  0  0
 14 38  1  0  0  0  0
 14 39  1  0  0  0  0
 14 40  1  0  0  0  0
 15 16  1  0  0  0  0
 15 41  1  0  0  0  0
 16 42  1  0  0  0  0
 16 43  1  0  0  0  0
 16 44  1  0  0  0  0
 17 18  2  0  0  0  0
 17 19  1  0  0  0  0
 19 20  1  0  0  0  0
 19 22  2  0  0  0  0
 20 21  3  0  0  0  0
 22 23  1  0  0  0  0
 23 45  1  0  0  0  0
 23 46  1  0  0  0  0
 23 47  1  0  0  0  0
M  END
> <s_m_source_file>
AV-unprocessed.smi

> <i_m_source_file_index>
1662

> <i_lp_mmshare_version>
43012

> <i_f3d_flags>
0

> <s_epik_input>
TiNDYyhjMVtDSDNdKWMoPU8pbihuYzFbQ0gzXSlbQ0gyXUMoPU8pW05IXVtDQEBIXTJbQ0gyXVtDSDJdW0NIMl1bQ0BASF0oW0NIM10pW0NASF0yW0NIM10=

> <s_epik_cmdline>
J2VwaWtfcHl0aG9uJywgJy1waCcsICc3LjAnLCAnLXRuJywgJzgnLCAnLW1hJywgJzIwMCcsICctbWV0YWxfYmluZGluZycsICctaW1hZScsICc8aW5maWxlLm1hZT4nLCAnLW9tYWUnLCAnPG91dGZpbGUubWFlPic=

> <r_lp_tautomer_probability>
1

> <r_epik_Ionization_Penalty>
1.90709e-08

> <r_epik_Ionization_Penalty_Charging>
2.37982e-11

> <r_epik_Ionization_Penalty_Neutral>
1.90471e-08

> <r_epik_State_Penalty>
-0

> <r_epik_Charging_Adjusted_Penalty>
2.37982e-11

> <i_epik_Tot_Q>
0

> <i_epik_Tot_abs_Q>
0

> <r_epik_Metal_State_Penalty>
-0

> <b_epik_Metal_Only>
0

> <s_lp_Force_Field>
OPLS_2005

> <r_lp_Energy>
29.144

> <b_lp_Chiralities_Consistent>
1

> <s_lp_Variant>
AV-unprocessed.smi:1662-1

> <Gold.Version>
5.8.1

> <Gold.Id.Protein>
6NUR|6NUR_protein|mol2

> <Gold.PLP.Fitness>
44.3446

> <Gold.PLP.PLP>
-40.9922

> <Gold.PLP.part.hbond>
-3.0000

> <Gold.PLP.part.metal>
0.0000

> <Gold.PLP.part.buried>
-3.2027

> <Gold.PLP.part.nonpolar>
-35.0830

> <Gold.PLP.part.repulsive>
0.1555

> <Gold.PLP.ligand.clash>
0.0000

> <Gold.PLP.ligand.torsion>
0.4743

> <Gold.PLP.Chemscore.Hbond>
1.4320

> <Gold.PLP.Chemscore.CHOScore>
0.0000

> <Gold.PLP.Chemscore.Metal>
0.0000

> <Gold.Chemscore.Hbonds>
donor molecule, donor type, donor heavy atom, donor atom, acceptor molecule, acceptor atom, score
      P1  H  7989  7998       L1     7  0.56
      P1  H  7997  8008       L1    18  0.70

> <Gold.PLP.Chemscore.Internal.Correction>
0.0049

> <Gold.Rescore>
     Score         DG    S(hbond)    S(metal)    S(lipo)     H(rot)  DE(clash)    DE(int)     intcor
     12.90     -16.96       1.41        0.00      89.52       1.45       2.84       1.21       ----

> <Gold.Chemscore.Fitness>
12.8965

> <Gold.Chemscore.DG>
-16.9558

> <Gold.Chemscore.ZeroCoef>
-5.4800

> <Gold.Chemscore.Hbond>
1.4117

> <Gold.Chemscore.Metal>
0.0000

> <Gold.Chemscore.Lipo>
89.5193

> <Gold.Chemscore.Internal_Hbond>
0.0000

> <Gold.Chemscore.DEClash>
2.8448

> <Gold.Chemscore.DEInternal>
1.2144

> <Gold.Chemscore.Rot>
1.4504

> <Gold.Chemscore.Internal.Correction>
   9.000000E+99

> <Gold.Chemscore.Hbonds>
donor molecule, donor type, donor heavy atom, donor atom, acceptor molecule, acceptor atom, score
      P1  H  7989  7998       L1     7  0.56
      P1  H  7997  8008       L1    18  0.07

> <Gold.Chemscore.Hbond.Weighted>
-4.7150

> <Gold.Chemscore.Metal.Weighted>
-0.0000

> <Gold.Chemscore.Lipo.Weighted>
-10.4738

> <Gold.Chemscore.Internal_Hbond.Weighted>
0.0000

> <Gold.Chemscore.DEClash.Weighted>
2.8448

> <Gold.Chemscore.DEInternal.Weighted>
1.2144

> <Gold.Chemscore.Rot.Weighted>
3.7129

> <Gold.Chemscore.Internal.Correction.Weighted>
   9.000000E+99

> <Gold.Protein.RotatedTorsions>
[ 6907 6896 6895 6894 ] final   24.99 input  -60.11 | X-H torsion
[ 7974 7965 7964 7962 ] final   16.36 input  175.53 | X-H torsion
[ 8008 7997 7996 7995 ] final -102.17 input   59.86 | X-H torsion
[ 10167 10162 10161 10158 ] final  -84.17 input  -65.29 | X-H torsion
[ 10718 10713 10712 10709 ] final   10.08 input   66.30 | X-H torsion
[ 10763 10752 10751 10750 ] final  -28.03 input  -60.55 | X-H torsion
[ 11005 11000 10999 10996 ] final   16.59 input  -57.11 | X-H torsion

> <Gold.Protein.ActiveResidues>
 VAL166  LYS551  ARG553  GLY616  TRP617  ASP618  TYR619  PRO620  LYS621  CYS622 
 ASP623  PHE694  ASN695  SER759  ASP760  ASP761  ALA762  ILE779  LEU786  VAL792 
 PHE793  MET794  SER795  GLU796  ALA797  LYS798  CYS799  TRP800  GLU811  SER814 

> <Gold.Protein.RotatedAtoms>
  151.9657  135.0101  160.0549 H   0  0  0  0  0  0  0  0  0  0  0  0  # atno 6907 bound_to 6896
  152.1828  133.4714  159.4975 H   0  0  0  0  0  0  0  0  0  0  0  0  # atno 6908 bound_to 6896
  150.6920  134.1729  159.4262 H   0  0  0  0  0  0  0  0  0  0  0  0  # atno 6909 bound_to 6896
  146.2251  139.8759  142.8579 H   0  0  0  0  0  0  0  0  0  0  0  0  # atno 7974 bound_to 7965
  154.8529  140.0430  157.1616 H   0  0  0  0  0  0  0  0  0  0  0  0  # atno 8008 bound_to 7997
  154.8923  140.2988  155.5343 H   0  0  0  0  0  0  0  0  0  0  0  0  # atno 8009 bound_to 7997
  156.2996  140.2391  156.3940 H   0  0  0  0  0  0  0  0  0  0  0  0  # atno 8010 bound_to 7997
  140.4157  143.2604  151.8957 H   0  0  0  0  0  0  0  0  0  0  0  0  # atno 10167 bound_to 10162
  156.9757  130.5986  149.5672 H   0  0  0  0  0  0  0  0  0  0  0  0  # atno 10718 bound_to 10713
  153.7417  135.6932  153.4965 H   0  0  0  0  0  0  0  0  0  0  0  0  # atno 10763 bound_to 10752
  153.2064  135.4418  155.0327 H   0  0  0  0  0  0  0  0  0  0  0  0  # atno 10764 bound_to 10752
  154.8218  135.3426  154.6942 H   0  0  0  0  0  0  0  0  0  0  0  0  # atno 10765 bound_to 10752
  140.4454  134.1279  155.7695 H   0  0  0  0  0  0  0  0  0  0  0  0  # atno 11005 bound_to 11000
  145.2561  141.0061  143.3853 LP  0  0  0  0  0  0  0  0  0  0  0  0  # atno 17320 bound_to 7965
  144.9335  139.4271  143.6483 LP  0  0  0  0  0  0  0  0  0  0  0  0  # atno 17321 bound_to 7965
  139.4782  144.5490  151.8415 LP  0  0  0  0  0  0  0  0  0  0  0  0  # atno 17342 bound_to 10162
  140.4589  144.1750  150.5904 LP  0  0  0  0  0  0  0  0  0  0  0  0  # atno 17343 bound_to 10162
  156.0264  130.5358  150.8419 LP  0  0  0  0  0  0  0  0  0  0  0  0  # atno 17370 bound_to 10713
  157.5561  131.0945  150.9626 LP  0  0  0  0  0  0  0  0  0  0  0  0  # atno 17371 bound_to 10713
  141.1687  133.8651  157.1636 LP  0  0  0  0  0  0  0  0  0  0  0  0  # atno 17394 bound_to 11000
  140.0042  135.0015  157.0256 LP  0  0  0  0  0  0  0  0  0  0  0  0  # atno 17395 bound_to 11000

$$$$
