AV-unprocessed.smi:298|AV-procd|sdf|2262|dock2
  -GOLD-   2262022153D 1   1.00000     0.00000
 Structure written by MMmdl.
 38 40  0  0  0  0  0  0  0  0  1 V2000
  153.1063  142.8720  161.7955 C   0  0  0  0  0  0  0  0  0  0  0  0
  152.5886  142.4825  160.4221 C   0  0  0  0  0  0  0  0  0  0  0  0
  152.9632  141.2344  159.8751 C   0  0  0  0  0  0  0  0  0  0  0  0
  152.4999  140.8324  158.6032 C   0  0  0  0  0  0  0  0  0  0  0  0
  152.7326  139.6710  157.8863 N   0  0  0  0  0  0  0  0  0  0  0  0
  152.0235  139.8900  156.7826 C   0  0  0  0  0  0  0  0  0  0  0  0
  151.3573  141.0575  156.7003 N   0  0  0  0  0  0  0  0  0  0  0  0
  150.5194  141.5132  155.6060 C   0  0  0  0  0  0  0  0  0  0  0  0
  149.0809  140.9603  155.6945 C   0  0  1  0  0  0  0  0  0  0  0  0
  148.1573  141.9584  155.3032 O   0  0  0  0  0  0  0  0  0  0  0  0
  148.8558  139.6872  154.8496 C   0  0  0  0  0  0  0  0  0  0  0  0
  149.9172  138.7016  154.9787 N   0  0  0  0  0  0  0  0  0  0  0  0
  150.8933  138.3623  154.1301 C   0  0  0  0  0  0  0  0  0  0  0  0
  151.6936  137.4047  154.5817 N   0  0  0  0  0  0  0  0  0  0  0  0
  151.1091  137.1970  155.7972 C   0  0  0  0  0  0  0  0  0  0  0  0
  151.6215  136.2044  156.7266 C   0  0  0  0  0  0  0  0  0  0  0  0
  152.0296  135.4136  157.4666 N   0  0  0  0  0  0  0  0  0  0  0  0
  150.0485  137.9443  156.0952 N   0  0  0  0  0  0  0  0  0  0  0  0
  151.6452  141.7209  157.8880 C   0  0  0  0  0  0  0  0  0  0  0  0
  151.2665  142.9659  158.4204 C   0  0  0  0  0  0  0  0  0  0  0  0
  151.7379  143.3518  159.6926 C   0  0  0  0  0  0  0  0  0  0  0  0
  151.3208  144.6970  160.2602 C   0  0  0  0  0  0  0  0  0  0  0  0
  153.7572  142.1012  162.2088 H   0  0  0  0  0  0  0  0  0  0  0  0
  152.2776  143.0168  162.4889 H   0  0  0  0  0  0  0  0  0  0  0  0
  153.6788  143.7983  161.7405 H   0  0  0  0  0  0  0  0  0  0  0  0
  153.6099  140.5716  160.4312 H   0  0  0  0  0  0  0  0  0  0  0  0
  151.9821  139.1582  155.9891 H   0  0  0  0  0  0  0  0  0  0  0  0
  150.5209  142.6037  155.6097 H   0  0  0  0  0  0  0  0  0  0  0  0
  150.9827  141.2052  154.6677 H   0  0  0  0  0  0  0  0  0  0  0  0
  148.8629  140.7186  156.7355 H   0  0  0  0  0  0  0  0  0  0  0  0
  148.4111  142.7764  155.7029 H   0  0  0  0  0  0  0  0  0  0  0  0
  147.9203  139.2125  155.1478 H   0  0  0  0  0  0  0  0  0  0  0  0
  148.7443  139.9452  153.7953 H   0  0  0  0  0  0  0  0  0  0  0  0
  151.0162  138.8215  153.1601 H   0  0  0  0  0  0  0  0  0  0  0  0
  150.6152  143.6163  157.8551 H   0  0  0  0  0  0  0  0  0  0  0  0
  150.6522  145.2261  159.5803 H   0  0  0  0  0  0  0  0  0  0  0  0
  152.1941  145.3276  160.4290 H   0  0  0  0  0  0  0  0  0  0  0  0
  150.7982  144.5670  161.2081 H   0  0  0  0  0  0  0  0  0  0  0  0
  1  2  1  0  0  0  0
  1 23  1  0  0  0  0
  1 24  1  0  0  0  0
  1 25  1  0  0  0  0
  2 21  1  0  0  0  0
  2  3  2  0  0  0  0
  3  4  1  0  0  0  0
  3 26  1  0  0  0  0
  4 19  2  0  0  0  0
  4  5  1  0  0  0  0
  5  6  2  0  0  0  0
  6  7  1  0  0  0  0
  6 27  1  0  0  0  0
  7  8  1  0  0  0  0
  7 19  1  0  0  0  0
  8  9  1  0  0  0  0
  8 28  1  0  0  0  0
  8 29  1  0  0  0  0
  9 10  1  0  0  0  0
  9 11  1  0  0  0  0
  9 30  1  0  0  0  0
 10 31  1  0  0  0  0
 11 12  1  0  0  0  0
 11 32  1  0  0  0  0
 11 33  1  0  0  0  0
 12 18  1  0  0  0  0
 12 13  1  0  0  0  0
 13 14  2  0  0  0  0
 13 34  1  0  0  0  0
 14 15  1  0  0  0  0
 15 16  1  0  0  0  0
 15 18  2  0  0  0  0
 16 17  3  0  0  0  0
 19 20  1  0  0  0  0
 20 21  2  0  0  0  0
 20 35  1  0  0  0  0
 21 22  1  0  0  0  0
 22 36  1  0  0  0  0
 22 37  1  0  0  0  0
 22 38  1  0  0  0  0
M  END
> <s_m_source_file>
AV-unprocessed.smi

> <i_m_source_file_index>
298

> <i_lp_mmshare_version>
43012

> <i_f3d_flags>
0

> <s_epik_input>
W0NIM11jKFtjSF0xKWMoW0NIM10pW2NIXWMoYzEyKW4oW2NIXW4yKVtDSDJdW0NASF0oW09IXSlbQ0gyXW4zW2NIXW5jKG4zKUMjTg==

> <s_epik_cmdline>
J2VwaWtfcHl0aG9uJywgJy1waCcsICc3LjAnLCAnLXRuJywgJzgnLCAnLW1hJywgJzIwMCcsICctbWV0YWxfYmluZGluZycsICctaW1hZScsICc8aW5maWxlLm1hZT4nLCAnLW9tYWUnLCAnPG91dGZpbGUubWFlPic=

> <r_epik_Ionization_Penalty>
0.0968684

> <r_epik_Ionization_Penalty_Charging>
0

> <r_epik_Ionization_Penalty_Neutral>
0.0968684

> <r_epik_State_Penalty>
0.0870047

> <r_epik_Charging_Adjusted_Penalty>
0.0870047

> <i_epik_Tot_Q>
0

> <i_epik_Tot_abs_Q>
0

> <r_epik_Metal_State_Penalty>
0.0746849

> <b_epik_Metal_Only>
0

> <s_lp_Force_Field>
OPLS_2005

> <r_lp_Energy>
12.6861

> <b_lp_Chiralities_Consistent>
1

> <s_lp_Variant>
AV-unprocessed.smi:298-2

> <Gold.Version>
5.8.1

> <Gold.Id.Protein>
6NUR|6NUR_protein|mol2

> <Gold.PLP.Fitness>
50.4584

> <Gold.PLP.PLP>
-42.4880

> <Gold.PLP.part.hbond>
-3.5132

> <Gold.PLP.part.metal>
0.0000

> <Gold.PLP.part.buried>
-6.7375

> <Gold.PLP.part.nonpolar>
-31.8957

> <Gold.PLP.part.repulsive>
0.1886

> <Gold.PLP.ligand.clash>
0.0000

> <Gold.PLP.ligand.torsion>
1.1112

> <Gold.PLP.Chemscore.Hbond>
2.4138

> <Gold.PLP.Chemscore.CHOScore>
0.9796

> <Gold.PLP.Chemscore.Metal>
0.0000

> <Gold.Chemscore.Hbonds>
donor molecule, donor type, donor heavy atom, donor atom, acceptor molecule, acceptor atom, score
      L1  H    10    31       P1  8028  1.00
      P1  H  7997  8009       L1     5  0.67
      P1  H 10752 10765       L1    14  0.68
      L1  C    13    34       P1  7957  0.53

> <Gold.PLP.Chemscore.Internal.Correction>
0.0128

> <Gold.Rescore>
     Score         DG    S(hbond)    S(metal)    S(lipo)     H(rot)  DE(clash)    DE(int)     intcor
     15.72     -17.17       2.40        0.00      97.69       3.03       0.13       1.33       ----

> <Gold.Chemscore.Fitness>
15.7162

> <Gold.Chemscore.DG>
-17.1741

> <Gold.Chemscore.ZeroCoef>
-5.4800

> <Gold.Chemscore.Hbond>
2.4029

> <Gold.Chemscore.Metal>
0.0000

> <Gold.Chemscore.Lipo>
97.6863

> <Gold.Chemscore.Internal_Hbond>
0.0000

> <Gold.Chemscore.DEClash>
0.1256

> <Gold.Chemscore.DEInternal>
1.3323

> <Gold.Chemscore.Rot>
3.0316

> <Gold.Chemscore.Internal.Correction>
   9.000000E+99

> <Gold.Chemscore.Hbonds>
donor molecule, donor type, donor heavy atom, donor atom, acceptor molecule, acceptor atom, score
      L1  H    10    31       P1  8028  0.93
      P1  H  7997  8009       L1     5  0.03
      P1  H 10752 10765       L1    14  0.31

> <Gold.Chemscore.Hbond.Weighted>
-8.0257

> <Gold.Chemscore.Metal.Weighted>
-0.0000

> <Gold.Chemscore.Lipo.Weighted>
-11.4293

> <Gold.Chemscore.Internal_Hbond.Weighted>
0.0000

> <Gold.Chemscore.DEClash.Weighted>
0.1256

> <Gold.Chemscore.DEInternal.Weighted>
1.3323

> <Gold.Chemscore.Rot.Weighted>
7.7609

> <Gold.Chemscore.Internal.Correction.Weighted>
   9.000000E+99

> <Gold.Protein.RotatedTorsions>
[ 6907 6896 6895 6894 ] final  113.65 input  -60.11 | X-H torsion
[ 7974 7965 7964 7962 ] final -116.21 input  175.53 | X-H torsion
[ 8008 7997 7996 7995 ] final  155.23 input   59.86 | X-H torsion
[ 10167 10162 10161 10158 ] final  -82.05 input  -65.29 | X-H torsion
[ 10718 10713 10712 10709 ] final -135.65 input   66.30 | X-H torsion
[ 10763 10752 10751 10750 ] final  159.57 input  -60.55 | X-H torsion
[ 11005 11000 10999 10996 ] final   28.37 input  -57.11 | X-H torsion

> <Gold.Protein.ActiveResidues>
 VAL166  LYS551  ARG553  GLY616  TRP617  ASP618  TYR619  PRO620  LYS621  CYS622 
 ASP623  PHE694  ASN695  SER759  ASP760  ASP761  ALA762  ILE779  LEU786  VAL792 
 PHE793  MET794  SER795  GLU796  ALA797  LYS798  CYS799  TRP800  GLU811  SER814 

> <Gold.Protein.RotatedAtoms>
  152.4848  133.8345  159.7120 H   0  0  0  0  0  0  0  0  0  0  0  0  # atno 6907 bound_to 6896
  150.8926  133.7213  159.2907 H   0  0  0  0  0  0  0  0  0  0  0  0  # atno 6908 bound_to 6896
  151.4681  135.1047  159.9796 H   0  0  0  0  0  0  0  0  0  0  0  0  # atno 6909 bound_to 6896
  145.0995  140.8542  143.3935 H   0  0  0  0  0  0  0  0  0  0  0  0  # atno 7974 bound_to 7965
  156.2489  140.1945  156.6769 H   0  0  0  0  0  0  0  0  0  0  0  0  # atno 8008 bound_to 7997
  154.6350  140.0591  156.9804 H   0  0  0  0  0  0  0  0  0  0  0  0  # atno 8009 bound_to 7997
  155.1650  140.3263  155.4406 H   0  0  0  0  0  0  0  0  0  0  0  0  # atno 8010 bound_to 7997
  140.4355  143.2533  151.8699 H   0  0  0  0  0  0  0  0  0  0  0  0  # atno 10167 bound_to 10162
  156.2684  130.7251  151.1210 H   0  0  0  0  0  0  0  0  0  0  0  0  # atno 10718 bound_to 10713
  154.2338  135.2777  155.2880 H   0  0  0  0  0  0  0  0  0  0  0  0  # atno 10763 bound_to 10752
  154.5601  135.5649  153.7003 H   0  0  0  0  0  0  0  0  0  0  0  0  # atno 10764 bound_to 10752
  153.0014  135.6296  154.2481 H   0  0  0  0  0  0  0  0  0  0  0  0  # atno 10765 bound_to 10752
  140.3163  134.2593  155.7725 H   0  0  0  0  0  0  0  0  0  0  0  0  # atno 11005 bound_to 11000
  145.0972  139.2848  143.5704 LP  0  0  0  0  0  0  0  0  0  0  0  0  # atno 17320 bound_to 7965
  146.3530  140.0528  142.8634 LP  0  0  0  0  0  0  0  0  0  0  0  0  # atno 17321 bound_to 7965
  139.4787  144.5287  151.8698 LP  0  0  0  0  0  0  0  0  0  0  0  0  # atno 17342 bound_to 10162
  140.4378  144.2027  150.5890 LP  0  0  0  0  0  0  0  0  0  0  0  0  # atno 17343 bound_to 10162
  157.7275  131.0638  150.5861 LP  0  0  0  0  0  0  0  0  0  0  0  0  # atno 17370 bound_to 10713
  156.5955  130.4340  149.5919 LP  0  0  0  0  0  0  0  0  0  0  0  0  # atno 17371 bound_to 10713
  141.2097  133.7742  156.9982 LP  0  0  0  0  0  0  0  0  0  0  0  0  # atno 17394 bound_to 11000
  140.0980  134.9552  157.1880 LP  0  0  0  0  0  0  0  0  0  0  0  0  # atno 17395 bound_to 11000

$$$$
