AV-unprocessed.smi:1254|AV-procd|sdf|5271|dock7
  -GOLD-   22720 4383D 1   1.00000     0.00000
 Structure written by MMmdl.
 46 47  0  0  0  0  0  0  0  0  2 V2000
  151.0498  142.2150  156.3463 C   0  0  0  0  0  0  0  0  0  0  0  0
  150.6927  141.0242  155.5249 C   0  0  0  0  0  0  0  0  0  0  0  0
  149.5028  140.5334  155.0654 C   0  0  0  0  0  0  0  0  0  0  0  0
  149.8920  139.3687  154.3516 C   0  0  0  0  0  0  0  0  0  0  0  0
  148.9272  138.5498  153.7115 N   0  0  0  0  0  0  0  0  0  0  0  0
  147.5895  138.6419  153.7985 C   0  0  0  0  0  0  0  0  0  0  0  0
  146.9760  139.4628  154.4814 O   0  0  0  0  0  0  0  0  0  0  0  0
  146.9852  137.7213  153.0338 N   0  0  0  0  0  0  0  0  0  0  0  0
  145.5406  137.5683  152.8975 C   0  0  0  0  0  0  0  0  0  0  0  0
  145.1617  136.1968  152.3101 C   0  0  2  0  0  0  0  0  0  0  0  0
  145.8161  135.9588  150.9338 C   0  0  0  0  0  0  0  0  0  0  0  0
  145.3922  134.6604  150.3542 N   0  3  1  0  0  0  0  0  0  0  0  0
  146.0755  133.4859  150.9607 C   0  0  0  0  0  0  0  0  0  0  0  0
  145.5199  132.1373  150.4545 C   0  0  0  0  0  0  0  0  0  0  0  0
  145.7736  131.0293  151.4877 C   0  0  0  0  0  0  0  0  0  0  0  0
  146.1166  131.7461  149.0922 C   0  0  0  0  0  0  0  0  0  0  0  0
  143.9100  134.5684  150.3195 C   0  0  0  0  0  0  0  0  0  0  0  0
  143.2908  134.8845  151.6949 C   0  0  0  0  0  0  0  0  0  0  0  0
  143.7471  136.1528  152.1483 O   0  0  0  0  0  0  0  0  0  0  0  0
  151.2005  139.1672  154.3726 N   0  0  0  0  0  0  0  0  0  0  0  0
  151.7204  140.2275  155.1241 O   0  0  0  0  0  0  0  0  0  0  0  0
  150.1591  142.7796  156.6227 H   0  0  0  0  0  0  0  0  0  0  0  0
  151.7139  142.8801  155.7943 H   0  0  0  0  0  0  0  0  0  0  0  0
  151.5568  141.9140  157.2632 H   0  0  0  0  0  0  0  0  0  0  0  0
  148.5156  140.9433  155.2191 H   0  0  0  0  0  0  0  0  0  0  0  0
  149.2958  137.8241  153.1150 H   0  0  0  0  0  0  0  0  0  0  0  0
  147.5629  137.0856  152.5031 H   0  0  0  0  0  0  0  0  0  0  0  0
  145.0864  137.6948  153.8805 H   0  0  0  0  0  0  0  0  0  0  0  0
  145.1489  138.3707  152.2701 H   0  0  0  0  0  0  0  0  0  0  0  0
  145.4740  135.4128  153.0017 H   0  0  0  0  0  0  0  0  0  0  0  0
  145.5207  136.7535  150.2473 H   0  0  0  0  0  0  0  0  0  0  0  0
  146.9034  136.0069  151.0050 H   0  0  0  0  0  0  0  0  0  0  0  0
  147.1397  133.5226  150.7232 H   0  0  0  0  0  0  0  0  0  0  0  0
  146.0116  133.5388  152.0476 H   0  0  0  0  0  0  0  0  0  0  0  0
  144.4396  132.2153  150.3368 H   0  0  0  0  0  0  0  0  0  0  0  0
  146.8407  130.8814  151.6578 H   0  0  0  0  0  0  0  0  0  0  0  0
  145.3547  130.0785  151.1570 H   0  0  0  0  0  0  0  0  0  0  0  0
  145.3151  131.2723  152.4468 H   0  0  0  0  0  0  0  0  0  0  0  0
  147.2015  131.6494  149.1469 H   0  0  0  0  0  0  0  0  0  0  0  0
  145.8863  132.4870  148.3264 H   0  0  0  0  0  0  0  0  0  0  0  0
  145.7161  130.7916  148.7491 H   0  0  0  0  0  0  0  0  0  0  0  0
  143.5446  135.2930  149.5905 H   0  0  0  0  0  0  0  0  0  0  0  0
  143.5806  133.5925  149.9657 H   0  0  0  0  0  0  0  0  0  0  0  0
  142.2041  134.9127  151.6154 H   0  0  0  0  0  0  0  0  0  0  0  0
  143.5296  134.1147  152.4295 H   0  0  0  0  0  0  0  0  0  0  0  0
  145.7039  134.6747  149.3934 H   0  0  0  0  0  0  0  0  0  0  0  0
  1  2  1  0  0  0  0
  1 22  1  0  0  0  0
  1 23  1  0  0  0  0
  1 24  1  0  0  0  0
  2 21  1  0  0  0  0
  2  3  2  0  0  0  0
  3  4  1  0  0  0  0
  3 25  1  0  0  0  0
  4  5  1  0  0  0  0
  4 20  2  0  0  0  0
  5  6  1  0  0  0  0
  5 26  1  0  0  0  0
  6  7  2  0  0  0  0
  6  8  1  0  0  0  0
  8  9  1  0  0  0  0
  8 27  1  0  0  0  0
  9 10  1  0  0  0  0
  9 28  1  0  0  0  0
  9 29  1  0  0  0  0
 10 19  1  0  0  0  0
 10 11  1  0  0  0  0
 10 30  1  0  0  0  0
 11 12  1  0  0  0  0
 11 31  1  0  0  0  0
 11 32  1  0  0  0  0
 12 13  1  0  0  0  0
 12 17  1  0  0  0  0
 12 46  1  0  0  0  0
 13 14  1  0  0  0  0
 13 33  1  0  0  0  0
 13 34  1  0  0  0  0
 14 15  1  0  0  0  0
 14 16  1  0  0  0  0
 14 35  1  0  0  0  0
 15 36  1  0  0  0  0
 15 37  1  0  0  0  0
 15 38  1  0  0  0  0
 16 39  1  0  0  0  0
 16 40  1  0  0  0  0
 16 41  1  0  0  0  0
 17 18  1  0  0  0  0
 17 42  1  0  0  0  0
 17 43  1  0  0  0  0
 18 19  1  0  0  0  0
 18 44  1  0  0  0  0
 18 45  1  0  0  0  0
 20 21  1  0  0  0  0
M  CHG  1  12   1
M  END
> <s_m_source_file>
AV-unprocessed.smi

> <i_m_source_file_index>
1254

> <i_lp_mmshare_version>
43012

> <i_f3d_flags>
0

> <s_epik_input>
W0NIM11jMVtjSF1jKG5vMSlbTkhdQyg9TylbTkhdW0NIMl1bQ0BASF0yW0NIMl1OKFtDSDJdW0NIMl1PMilbQ0gyXVtDSF0oW0NIM10pW0NIM10=

> <s_epik_cmdline>
J2VwaWtfcHl0aG9uJywgJy1waCcsICc3LjAnLCAnLXRuJywgJzgnLCAnLW1hJywgJzIwMCcsICctbWV0YWxfYmluZGluZycsICctaW1hZScsICc8aW5maWxlLm1hZT4nLCAnLW9tYWUnLCAnPG91dGZpbGUubWFlPic=

> <r_epik_Ionization_Penalty>
0.0986825

> <r_epik_Ionization_Penalty_Charging>
0.0986478

> <r_epik_Ionization_Penalty_Neutral>
3.46838e-05

> <r_epik_State_Penalty>
0.0887259

> <r_epik_Charging_Adjusted_Penalty>
0.187374

> <i_epik_Tot_Q>
1

> <i_epik_Tot_abs_Q>
1

> <r_epik_Metal_State_Penalty>
0.103424

> <b_epik_Metal_Only>
0

> <s_lp_Force_Field>
OPLS_2005

> <r_lp_Energy>
16.7856

> <b_lp_Chiralities_Consistent>
1

> <s_lp_Variant>
AV-unprocessed.smi:1254-3

> <Gold.Version>
5.8.1

> <Gold.Id.Protein>
6NUR|6NUR_protein|mol2

> <Gold.PLP.Fitness>
44.1067

> <Gold.PLP.PLP>
-35.9200

> <Gold.PLP.part.hbond>
-5.8637

> <Gold.PLP.part.metal>
0.0000

> <Gold.PLP.part.buried>
-1.5278

> <Gold.PLP.part.nonpolar>
-27.7998

> <Gold.PLP.part.repulsive>
0.5762

> <Gold.PLP.ligand.clash>
0.0000

> <Gold.PLP.ligand.torsion>
0.4367

> <Gold.PLP.Chemscore.Hbond>
2.9920

> <Gold.PLP.Chemscore.CHOScore>
0.0000

> <Gold.PLP.Chemscore.Metal>
0.0000

> <Gold.Chemscore.Hbonds>
donor molecule, donor type, donor heavy atom, donor atom, acceptor molecule, acceptor atom, score
      L1  H     5    26       P1  7948  1.00
      L1  H     8    27       P1  7948  1.00
      L1  H    12    46       P1  7921  1.00

> <Gold.PLP.Chemscore.Internal.Correction>
0.0842

> <Gold.Rescore>
     Score         DG    S(hbond)    S(metal)    S(lipo)     H(rot)  DE(clash)    DE(int)     intcor
     18.71     -21.04       2.84        0.00      89.74       1.73       0.30       2.03       ----

> <Gold.Chemscore.Fitness>
18.7097

> <Gold.Chemscore.DG>
-21.0447

> <Gold.Chemscore.ZeroCoef>
-5.4800

> <Gold.Chemscore.Hbond>
2.8418

> <Gold.Chemscore.Metal>
0.0000

> <Gold.Chemscore.Lipo>
89.7394

> <Gold.Chemscore.Internal_Hbond>
0.0000

> <Gold.Chemscore.DEClash>
0.3031

> <Gold.Chemscore.DEInternal>
2.0318

> <Gold.Chemscore.Rot>
1.7291

> <Gold.Chemscore.Internal.Correction>
   9.000000E+99

> <Gold.Chemscore.Hbonds>
donor molecule, donor type, donor heavy atom, donor atom, acceptor molecule, acceptor atom, score
      L1  H     5    26       P1  7948  0.85
      L1  H     8    27       P1  7948  1.00
      L1  H    12    46       P1  7921  0.93

> <Gold.Chemscore.Hbond.Weighted>
-9.4916

> <Gold.Chemscore.Metal.Weighted>
-0.0000

> <Gold.Chemscore.Lipo.Weighted>
-10.4995

> <Gold.Chemscore.Internal_Hbond.Weighted>
0.0000

> <Gold.Chemscore.DEClash.Weighted>
0.3031

> <Gold.Chemscore.DEInternal.Weighted>
2.0318

> <Gold.Chemscore.Rot.Weighted>
4.4265

> <Gold.Chemscore.Internal.Correction.Weighted>
   9.000000E+99

> <Gold.Protein.RotatedTorsions>
[ 6907 6896 6895 6894 ] final   76.97 input  -60.11 | X-H torsion
[ 7974 7965 7964 7962 ] final  147.82 input  175.53 | X-H torsion
[ 8008 7997 7996 7995 ] final -100.36 input   59.86 | X-H torsion
[ 10167 10162 10161 10158 ] final   44.15 input  -65.29 | X-H torsion
[ 10718 10713 10712 10709 ] final -172.97 input   66.30 | X-H torsion
[ 10763 10752 10751 10750 ] final -158.28 input  -60.55 | X-H torsion
[ 11005 11000 10999 10996 ] final   57.69 input  -57.11 | X-H torsion

> <Gold.Protein.ActiveResidues>
 VAL166  LYS551  ARG553  GLY616  TRP617  ASP618  TYR619  PRO620  LYS621  CYS622 
 ASP623  PHE694  ASN695  SER759  ASP760  ASP761  ALA762  ILE779  LEU786  VAL792 
 PHE793  MET794  SER795  GLU796  ALA797  LYS798  CYS799  TRP800  GLU811  SER814 

> <Gold.Protein.RotatedAtoms>
  152.5097  134.3888  159.9376 H   0  0  0  0  0  0  0  0  0  0  0  0  # atno 6907 bound_to 6896
  151.3848  133.3803  159.2722 H   0  0  0  0  0  0  0  0  0  0  0  0  # atno 6908 bound_to 6896
  150.9477  134.8901  159.7711 H   0  0  0  0  0  0  0  0  0  0  0  0  # atno 6909 bound_to 6896
  144.8561  139.6077  143.5951 H   0  0  0  0  0  0  0  0  0  0  0  0  # atno 7974 bound_to 7965
  154.8276  140.0441  157.1454 H   0  0  0  0  0  0  0  0  0  0  0  0  # atno 8008 bound_to 7997
  154.9189  140.3024  155.5206 H   0  0  0  0  0  0  0  0  0  0  0  0  # atno 8009 bound_to 7997
  156.2985  140.2344  156.4237 H   0  0  0  0  0  0  0  0  0  0  0  0  # atno 8010 bound_to 7997
  140.3372  144.2515  150.6160 H   0  0  0  0  0  0  0  0  0  0  0  0  # atno 10167 bound_to 10162
  156.7634  130.9422  151.3118 H   0  0  0  0  0  0  0  0  0  0  0  0  # atno 10718 bound_to 10713
  154.7569  135.3107  154.8453 H   0  0  0  0  0  0  0  0  0  0  0  0  # atno 10763 bound_to 10752
  153.9224  135.6794  153.4751 H   0  0  0  0  0  0  0  0  0  0  0  0  # atno 10764 bound_to 10752
  153.1167  135.4841  154.9057 H   0  0  0  0  0  0  0  0  0  0  0  0  # atno 10765 bound_to 10752
  140.0434  134.5841  155.9353 H   0  0  0  0  0  0  0  0  0  0  0  0  # atno 11005 bound_to 11000
  146.2824  139.6913  142.9219 LP  0  0  0  0  0  0  0  0  0  0  0  0  # atno 17320 bound_to 7965
  145.4403  141.0422  143.2861 LP  0  0  0  0  0  0  0  0  0  0  0  0  # atno 17321 bound_to 7965
  140.5342  143.2237  151.8189 LP  0  0  0  0  0  0  0  0  0  0  0  0  # atno 17342 bound_to 10162
  139.4846  144.4682  151.9458 LP  0  0  0  0  0  0  0  0  0  0  0  0  # atno 17343 bound_to 10162
  157.6724  130.9063  150.0072 LP  0  0  0  0  0  0  0  0  0  0  0  0  # atno 17370 bound_to 10713
  156.1325  130.3643  149.9710 LP  0  0  0  0  0  0  0  0  0  0  0  0  # atno 17371 bound_to 10713
  141.1894  133.6565  156.5368 LP  0  0  0  0  0  0  0  0  0  0  0  0  # atno 17394 bound_to 11000
  140.4033  134.7337  157.4793 LP  0  0  0  0  0  0  0  0  0  0  0  0  # atno 17395 bound_to 11000

$$$$
