AV-unprocessed.smi:2601|AV-procd|sdf|10183|dock10
  -GOLD-   2272014193D 1   1.00000     0.00000
 Structure written by MMmdl.
 47 48  0  0  0  0  0  0  0  0  1 V2000
  151.8175  144.9603  160.4800 C   0  0  0  0  0  0  0  0  0  0  0  0
  152.2926  143.5901  160.5132 N   0  0  0  0  0  0  0  0  0  0  0  0
  152.8655  143.1220  161.6430 N   0  0  0  0  0  0  0  0  0  0  0  0
  153.1813  141.8698  161.3639 C   0  0  0  0  0  0  0  0  0  0  0  0
  152.8199  141.4984  160.0400 C   0  0  0  0  0  0  0  0  0  0  0  0
  152.2515  142.6276  159.5186 C   0  0  0  0  0  0  0  0  0  0  0  0
  151.6669  142.8721  158.1584 C   0  0  0  0  0  0  0  0  0  0  0  0
  151.5098  141.6036  157.2967 C   0  0  0  0  0  0  0  0  0  0  0  0
  150.3907  141.6849  156.3626 N   0  0  0  0  0  0  0  0  0  0  0  0
  150.2275  140.9204  155.2702 C   0  0  0  0  0  0  0  0  0  0  0  0
  151.0434  140.0570  154.9453 O   0  0  0  0  0  0  0  0  0  0  0  0
  149.0859  141.1602  154.5793 N   0  0  0  0  0  0  0  0  0  0  0  0
  148.0114  142.0959  154.9279 C   0  0  0  0  0  0  0  0  0  0  0  0
  146.7312  141.3025  155.2759 C   0  0  0  0  0  0  0  0  0  0  0  0
  146.8230  140.6203  156.6555 C   0  0  0  0  0  0  0  0  0  0  0  0
  145.5242  142.2549  155.2869 C   0  0  0  0  0  0  0  0  0  0  0  0
  146.4299  140.3490  154.2420 O   0  0  0  0  0  0  0  0  0  0  0  0
  147.4744  139.5638  153.6400 C   0  0  0  0  0  0  0  0  0  0  0  0
  147.8054  138.3242  154.4967 C   0  0  0  0  0  0  0  0  0  0  0  0
  146.8770  139.0836  152.3073 C   0  0  0  0  0  0  0  0  0  0  0  0
  148.7200  140.4369  153.3627 C   0  0  0  0  0  0  0  0  0  0  0  0
  150.7370  144.9689  160.3359 H   0  0  0  0  0  0  0  0  0  0  0  0
  152.2905  145.4955  159.6565 H   0  0  0  0  0  0  0  0  0  0  0  0
  152.0539  145.4739  161.4130 H   0  0  0  0  0  0  0  0  0  0  0  0
  153.6620  141.2713  162.1236 H   0  0  0  0  0  0  0  0  0  0  0  0
  152.9579  140.5477  159.5468 H   0  0  0  0  0  0  0  0  0  0  0  0
  150.6915  143.3449  158.2729 H   0  0  0  0  0  0  0  0  0  0  0  0
  152.2722  143.5941  157.6112 H   0  0  0  0  0  0  0  0  0  0  0  0
  152.4130  141.4546  156.7047 H   0  0  0  0  0  0  0  0  0  0  0  0
  151.4073  140.7218  157.9306 H   0  0  0  0  0  0  0  0  0  0  0  0
  149.6745  142.3655  156.5703 H   0  0  0  0  0  0  0  0  0  0  0  0
  148.2648  142.7764  155.7412 H   0  0  0  0  0  0  0  0  0  0  0  0
  147.8279  142.7435  154.0689 H   0  0  0  0  0  0  0  0  0  0  0  0
  146.8319  141.3616  157.4547 H   0  0  0  0  0  0  0  0  0  0  0  0
  147.7292  140.0355  156.7793 H   0  0  0  0  0  0  0  0  0  0  0  0
  145.9722  139.9609  156.8285 H   0  0  0  0  0  0  0  0  0  0  0  0
  145.6487  143.0470  156.0260 H   0  0  0  0  0  0  0  0  0  0  0  0
  144.6029  141.7217  155.5240 H   0  0  0  0  0  0  0  0  0  0  0  0
  145.3855  142.7291  154.3148 H   0  0  0  0  0  0  0  0  0  0  0  0
  148.4316  137.6258  153.9407 H   0  0  0  0  0  0  0  0  0  0  0  0
  146.8992  137.7924  154.7877 H   0  0  0  0  0  0  0  0  0  0  0  0
  148.3551  138.5658  155.4010 H   0  0  0  0  0  0  0  0  0  0  0  0
  147.5912  138.4812  151.7448 H   0  0  0  0  0  0  0  0  0  0  0  0
  146.5862  139.9252  151.6777 H   0  0  0  0  0  0  0  0  0  0  0  0
  145.9870  138.4750  152.4703 H   0  0  0  0  0  0  0  0  0  0  0  0
  148.5088  141.1612  152.5742 H   0  0  0  0  0  0  0  0  0  0  0  0
  149.5333  139.8200  152.9773 H   0  0  0  0  0  0  0  0  0  0  0  0
  1  2  1  0  0  0  0
  1 22  1  0  0  0  0
  1 23  1  0  0  0  0
  1 24  1  0  0  0  0
  2  6  1  0  0  0  0
  2  3  1  0  0  0  0
  3  4  2  0  0  0  0
  4  5  1  0  0  0  0
  4 25  1  0  0  0  0
  5  6  2  0  0  0  0
  5 26  1  0  0  0  0
  6  7  1  0  0  0  0
  7  8  1  0  0  0  0
  7 27  1  0  0  0  0
  7 28  1  0  0  0  0
  8  9  1  0  0  0  0
  8 29  1  0  0  0  0
  8 30  1  0  0  0  0
  9 10  1  0  0  0  0
  9 31  1  0  0  0  0
 10 11  2  0  0  0  0
 10 12  1  0  0  0  0
 12 21  1  0  0  0  0
 12 13  1  0  0  0  0
 13 14  1  0  0  0  0
 13 32  1  0  0  0  0
 13 33  1  0  0  0  0
 14 15  1  0  0  0  0
 14 16  1  0  0  0  0
 14 17  1  0  0  0  0
 15 34  1  0  0  0  0
 15 35  1  0  0  0  0
 15 36  1  0  0  0  0
 16 37  1  0  0  0  0
 16 38  1  0  0  0  0
 16 39  1  0  0  0  0
 17 18  1  0  0  0  0
 18 19  1  0  0  0  0
 18 20  1  0  0  0  0
 18 21  1  0  0  0  0
 19 40  1  0  0  0  0
 19 41  1  0  0  0  0
 19 42  1  0  0  0  0
 20 43  1  0  0  0  0
 20 44  1  0  0  0  0
 20 45  1  0  0  0  0
 21 46  1  0  0  0  0
 21 47  1  0  0  0  0
M  END
> <s_m_source_file>
AV-unprocessed.smi

> <i_m_source_file_index>
2601

> <i_lp_mmshare_version>
43012

> <i_f3d_flags>
0

> <s_epik_input>
W0NIM11uMW5bY0hdW2NIXWMxW0NIMl1bQ0gyXVtOSF1DKD1PKU4oW0NIMl1DMihbQ0gzXSlbQ0gzXSlbQ0gyXUMoTzIpKFtDSDNdKVtDSDNd

> <s_epik_cmdline>
J2VwaWtfcHl0aG9uJywgJy1waCcsICc3LjAnLCAnLXRuJywgJzgnLCAnLW1hJywgJzIwMCcsICctbWV0YWxfYmluZGluZycsICctaW1hZScsICc8aW5maWxlLm1hZT4nLCAnLW9tYWUnLCAnPG91dGZpbGUubWFlPic=

> <r_lp_tautomer_probability>
1

> <r_epik_Ionization_Penalty>
0.00250606

> <r_epik_Ionization_Penalty_Charging>
0

> <r_epik_Ionization_Penalty_Neutral>
0.00250606

> <r_epik_State_Penalty>
0.0017149

> <r_epik_Charging_Adjusted_Penalty>
0.0017149

> <i_epik_Tot_Q>
0

> <i_epik_Tot_abs_Q>
0

> <r_epik_Metal_State_Penalty>
-0

> <b_epik_Metal_Only>
0

> <s_lp_Force_Field>
OPLS_2005

> <r_lp_Energy>
30.5553

> <b_lp_Chiralities_Consistent>
1

> <s_lp_Variant>
AV-unprocessed.smi:2601-1

> <Gold.Version>
5.8.1

> <Gold.Id.Protein>
6NUR|6NUR_protein|mol2

> <Gold.PLP.Fitness>
45.7127

> <Gold.PLP.PLP>
-42.4128

> <Gold.PLP.part.hbond>
-1.7762

> <Gold.PLP.part.metal>
0.0000

> <Gold.PLP.part.buried>
3.0323

> <Gold.PLP.part.nonpolar>
-43.7270

> <Gold.PLP.part.repulsive>
0.8685

> <Gold.PLP.ligand.clash>
0.0000

> <Gold.PLP.ligand.torsion>
0.4093

> <Gold.PLP.Chemscore.Hbond>
1.3713

> <Gold.PLP.Chemscore.CHOScore>
0.0000

> <Gold.PLP.Chemscore.Metal>
0.0000

> <Gold.Chemscore.Hbonds>
donor molecule, donor type, donor heavy atom, donor atom, acceptor molecule, acceptor atom, score
      P1  H  7989  7998       L1    11  0.85

> <Gold.PLP.Chemscore.Internal.Correction>
0.0046

> <Gold.Rescore>
     Score         DG    S(hbond)    S(metal)    S(lipo)     H(rot)  DE(clash)    DE(int)     intcor
     15.65     -17.50       1.17        0.00      98.47       1.33       1.68       0.18       ----

> <Gold.Chemscore.Fitness>
15.6527

> <Gold.Chemscore.DG>
-17.5048

> <Gold.Chemscore.ZeroCoef>
-5.4800

> <Gold.Chemscore.Hbond>
1.1705

> <Gold.Chemscore.Metal>
0.0000

> <Gold.Chemscore.Lipo>
98.4693

> <Gold.Chemscore.Internal_Hbond>
0.0000

> <Gold.Chemscore.DEClash>
1.6765

> <Gold.Chemscore.DEInternal>
0.1757

> <Gold.Chemscore.Rot>
1.3303

> <Gold.Chemscore.Internal.Correction>
   9.000000E+99

> <Gold.Chemscore.Hbonds>
donor molecule, donor type, donor heavy atom, donor atom, acceptor molecule, acceptor atom, score
      P1  H  7989  7998       L1    11  0.15

> <Gold.Chemscore.Hbond.Weighted>
-3.9094

> <Gold.Chemscore.Metal.Weighted>
-0.0000

> <Gold.Chemscore.Lipo.Weighted>
-11.5209

> <Gold.Chemscore.Internal_Hbond.Weighted>
0.0000

> <Gold.Chemscore.DEClash.Weighted>
1.6765

> <Gold.Chemscore.DEInternal.Weighted>
0.1757

> <Gold.Chemscore.Rot.Weighted>
3.4055

> <Gold.Chemscore.Internal.Correction.Weighted>
   9.000000E+99

> <Gold.Protein.RotatedTorsions>
[ 6907 6896 6895 6894 ] final  -55.92 input  -60.11 | X-H torsion
[ 7974 7965 7964 7962 ] final   44.29 input  175.53 | X-H torsion
[ 8008 7997 7996 7995 ] final   30.44 input   59.86 | X-H torsion
[ 10167 10162 10161 10158 ] final   44.24 input  -65.29 | X-H torsion
[ 10718 10713 10712 10709 ] final   28.83 input   66.30 | X-H torsion
[ 10763 10752 10751 10750 ] final    0.30 input  -60.55 | X-H torsion
[ 11005 11000 10999 10996 ] final  169.42 input  -57.11 | X-H torsion

> <Gold.Protein.ActiveResidues>
 VAL166  LYS551  ARG553  GLY616  TRP617  ASP618  TYR619  PRO620  LYS621  CYS622 
 ASP623  PHE694  ASN695  SER759  ASP760  ASP761  ALA762  ILE779  LEU786  VAL792 
 PHE793  MET794  SER795  GLU796  ALA797  LYS798  CYS799  TRP800  GLU811  SER814 

> <Gold.Protein.RotatedAtoms>
  150.8211  134.7419  159.6772 H   0  0  0  0  0  0  0  0  0  0  0  0  # atno 6907 bound_to 6896
  152.4326  134.5744  159.9940 H   0  0  0  0  0  0  0  0  0  0  0  0  # atno 6908 bound_to 6896
  151.5928  133.3327  159.3067 H   0  0  0  0  0  0  0  0  0  0  0  0  # atno 6909 bound_to 6896
  146.0581  139.5091  142.9675 H   0  0  0  0  0  0  0  0  0  0  0  0  # atno 7974 bound_to 7965
  155.0905  140.3219  155.4575 H   0  0  0  0  0  0  0  0  0  0  0  0  # atno 8008 bound_to 7997
  156.2744  140.2079  156.5979 H   0  0  0  0  0  0  0  0  0  0  0  0  # atno 8009 bound_to 7997
  154.6907  140.0517  157.0347 H   0  0  0  0  0  0  0  0  0  0  0  0  # atno 8010 bound_to 7997
  140.3363  144.2526  150.6161 H   0  0  0  0  0  0  0  0  0  0  0  0  # atno 10167 bound_to 10162
  157.2386  130.7058  149.6347 H   0  0  0  0  0  0  0  0  0  0  0  0  # atno 10718 bound_to 10713
  153.3224  135.6970  153.7018 H   0  0  0  0  0  0  0  0  0  0  0  0  # atno 10763 bound_to 10752
  153.5853  135.3490  155.2891 H   0  0  0  0  0  0  0  0  0  0  0  0  # atno 10764 bound_to 10752
  154.8600  135.4305  154.2392 H   0  0  0  0  0  0  0  0  0  0  0  0  # atno 10765 bound_to 10752
  140.2976  134.7622  157.3889 H   0  0  0  0  0  0  0  0  0  0  0  0  # atno 11005 bound_to 11000
  145.6608  141.0241  143.1710 LP  0  0  0  0  0  0  0  0  0  0  0  0  # atno 17320 bound_to 7965
  144.7159  139.8198  143.7399 LP  0  0  0  0  0  0  0  0  0  0  0  0  # atno 17321 bound_to 7965
  140.5351  143.2235  151.8176 LP  0  0  0  0  0  0  0  0  0  0  0  0  # atno 17342 bound_to 10162
  139.4848  144.4672  151.9470 LP  0  0  0  0  0  0  0  0  0  0  0  0  # atno 17343 bound_to 10162
  155.9671  130.4465  150.5545 LP  0  0  0  0  0  0  0  0  0  0  0  0  # atno 17370 bound_to 10713
  157.3403  131.0715  151.1793 LP  0  0  0  0  0  0  0  0  0  0  0  0  # atno 17371 bound_to 10713
  140.1139  134.5309  155.8242 LP  0  0  0  0  0  0  0  0  0  0  0  0  # atno 17394 bound_to 11000
  141.2134  133.6733  156.6740 LP  0  0  0  0  0  0  0  0  0  0  0  0  # atno 17395 bound_to 11000

$$$$
