AV-unprocessed.smi:2010|AV-procd|sdf|8149|dock2
  -GOLD-   2272010393D 1   1.00000     0.00000
 Structure written by MMmdl.
 41 42  0  0  0  0  0  0  0  0  1 V2000
  151.9358  145.3017  158.9419 C   0  0  0  0  0  0  0  0  0  0  0  0
  151.8603  143.7738  159.0719 C   0  0  0  0  0  0  0  0  0  0  0  0
  153.2160  143.1664  159.4572 C   0  0  0  0  0  0  0  0  0  0  0  0
  153.1355  141.6357  159.5820 C   0  0  0  0  0  0  0  0  0  0  0  0
  152.6020  141.0164  158.3533 N   0  0  0  0  0  0  0  0  0  0  0  0
  152.8147  139.3044  158.1913 S   0  0  0  0  0  0  0  0  0  0  0  0
  154.2433  138.9832  158.3302 O   0  0  0  0  0  0  0  0  0  0  0  0
  151.8037  138.6245  159.0152 O   0  0  0  0  0  0  0  0  0  0  0  0
  152.3841  139.1204  156.5323 N   0  0  0  0  0  0  0  0  0  0  0  0
  151.4372  138.0746  156.1387 C   0  0  2  0  0  0  0  0  0  0  0  0
  152.0273  136.6911  156.4577 C   0  0  0  0  0  0  0  0  0  0  0  0
  151.0345  138.2639  154.6606 C   0  0  0  0  0  0  0  0  0  0  0  0
  150.0188  139.2845  154.4577 N   0  0  0  0  0  0  0  0  0  0  0  0
  148.7469  139.1366  153.9452 C   0  0  0  0  0  0  0  0  0  0  0  0
  148.1627  140.3707  153.9432 C   0  0  0  0  0  0  0  0  0  0  0  0
  149.1703  141.2222  154.4761 C   0  0  0  0  0  0  0  0  0  0  0  0
  150.2804  140.5700  154.7812 N   0  0  0  0  0  0  0  0  0  0  0  0
  151.3110  141.5841  157.9107 C   0  0  0  0  0  0  0  0  0  0  0  0
  151.3848  143.1134  157.7708 C   0  0  0  0  0  0  0  0  0  0  0  0
  152.6423  145.5999  158.1667 H   0  0  0  0  0  0  0  0  0  0  0  0
  152.2563  145.7592  159.8783 H   0  0  0  0  0  0  0  0  0  0  0  0
  150.9629  145.7221  158.6862 H   0  0  0  0  0  0  0  0  0  0  0  0
  151.1419  143.5408  159.8593 H   0  0  0  0  0  0  0  0  0  0  0  0
  153.9661  143.4300  158.7102 H   0  0  0  0  0  0  0  0  0  0  0  0
  153.5602  143.5899  160.4015 H   0  0  0  0  0  0  0  0  0  0  0  0
  154.1294  141.2396  159.7903 H   0  0  0  0  0  0  0  0  0  0  0  0
  152.5009  141.3555  160.4238 H   0  0  0  0  0  0  0  0  0  0  0  0
  153.1854  139.1998  155.9065 H   0  0  0  0  0  0  0  0  0  0  0  0
  150.5329  138.2030  156.7348 H   0  0  0  0  0  0  0  0  0  0  0  0
  151.3450  135.8972  156.1528 H   0  0  0  0  0  0  0  0  0  0  0  0
  152.2066  136.5759  157.5266 H   0  0  0  0  0  0  0  0  0  0  0  0
  152.9763  136.5288  155.9465 H   0  0  0  0  0  0  0  0  0  0  0  0
  151.9147  138.5311  154.0737 H   0  0  0  0  0  0  0  0  0  0  0  0
  150.6669  137.3247  154.2448 H   0  0  0  0  0  0  0  0  0  0  0  0
  148.3680  138.1752  153.6306 H   0  0  0  0  0  0  0  0  0  0  0  0
  147.1677  140.6264  153.6106 H   0  0  0  0  0  0  0  0  0  0  0  0
  149.1290  142.2875  154.6481 H   0  0  0  0  0  0  0  0  0  0  0  0
  151.0184  141.1498  156.9554 H   0  0  0  0  0  0  0  0  0  0  0  0
  150.5388  141.3079  158.6297 H   0  0  0  0  0  0  0  0  0  0  0  0
  150.4045  143.5007  157.4916 H   0  0  0  0  0  0  0  0  0  0  0  0
  152.0618  143.3706  156.9547 H   0  0  0  0  0  0  0  0  0  0  0  0
  1  2  1  0  0  0  0
  1 20  1  0  0  0  0
  1 21  1  0  0  0  0
  1 22  1  0  0  0  0
  2 19  1  0  0  0  0
  2  3  1  0  0  0  0
  2 23  1  0  0  0  0
  3  4  1  0  0  0  0
  3 24  1  0  0  0  0
  3 25  1  0  0  0  0
  4  5  1  0  0  0  0
  4 26  1  0  0  0  0
  4 27  1  0  0  0  0
  5  6  1  0  0  0  0
  5 18  1  0  0  0  0
  6  7  2  0  0  0  0
  6  8  2  0  0  0  0
  6  9  1  0  0  0  0
  9 10  1  0  0  0  0
  9 28  1  0  0  0  0
 10 11  1  0  0  0  0
 10 12  1  0  0  0  0
 10 29  1  0  0  0  0
 11 30  1  0  0  0  0
 11 31  1  0  0  0  0
 11 32  1  0  0  0  0
 12 13  1  0  0  0  0
 12 33  1  0  0  0  0
 12 34  1  0  0  0  0
 13 17  1  0  0  0  0
 13 14  1  0  0  0  0
 14 15  2  0  0  0  0
 14 35  1  0  0  0  0
 15 16  1  0  0  0  0
 15 36  1  0  0  0  0
 16 17  2  0  0  0  0
 16 37  1  0  0  0  0
 18 19  1  0  0  0  0
 18 38  1  0  0  0  0
 18 39  1  0  0  0  0
 19 40  1  0  0  0  0
 19 41  1  0  0  0  0
M  END
> <s_m_source_file>
AV-unprocessed.smi

> <i_m_source_file_index>
2010

> <i_lp_mmshare_version>
43012

> <i_f3d_flags>
0

> <s_epik_input>
W0NIM11bQ0hdMVtDSDJdW0NIMl1OKFtDSDJdW0NIMl0xKVMoPU8pKD1PKVtOSF1bQ0BIXShbQ0gzXSlbQ0gyXW4yW2NIXVtjSF1bY0hdbjI=

> <s_epik_cmdline>
J2VwaWtfcHl0aG9uJywgJy1waCcsICc3LjAnLCAnLXRuJywgJzgnLCAnLW1hJywgJzIwMCcsICctbWV0YWxfYmluZGluZycsICctaW1hZScsICc8aW5maWxlLm1hZT4nLCAnLW9tYWUnLCAnPG91dGZpbGUubWFlPic=

> <r_lp_tautomer_probability>
1

> <r_epik_Ionization_Penalty>
0.0313937

> <r_epik_Ionization_Penalty_Charging>
0

> <r_epik_Ionization_Penalty_Neutral>
0.0313937

> <r_epik_State_Penalty>
0.0259441

> <r_epik_Charging_Adjusted_Penalty>
0.0259441

> <i_epik_Tot_Q>
0

> <i_epik_Tot_abs_Q>
0

> <r_epik_Metal_State_Penalty>
0.365037

> <b_epik_Metal_Only>
0

> <s_lp_Force_Field>
OPLS_2005

> <r_lp_Energy>
8.42971

> <b_lp_Chiralities_Consistent>
1

> <s_lp_Variant>
AV-unprocessed.smi:2010-1

> <Gold.Version>
5.8.1

> <Gold.Id.Protein>
6NUR|6NUR_protein|mol2

> <Gold.PLP.Fitness>
47.2325

> <Gold.PLP.PLP>
-38.0662

> <Gold.PLP.part.hbond>
-2.2955

> <Gold.PLP.part.metal>
0.0000

> <Gold.PLP.part.buried>
-1.2213

> <Gold.PLP.part.nonpolar>
-33.7536

> <Gold.PLP.part.repulsive>
0.0928

> <Gold.PLP.ligand.clash>
0.0000

> <Gold.PLP.ligand.torsion>
0.7900

> <Gold.PLP.Chemscore.Hbond>
1.9600

> <Gold.PLP.Chemscore.CHOScore>
1.3651

> <Gold.PLP.Chemscore.Metal>
0.0000

> <Gold.Chemscore.Hbonds>
donor molecule, donor type, donor heavy atom, donor atom, acceptor molecule, acceptor atom, score
      P1  H  7989  7998       L1    17  0.84
      P1  H  7997  8008       L1     7  1.00
      L1  C    14    35       P1  7948  0.63
      L1  C    16    37       P1  8028  0.75

> <Gold.PLP.Chemscore.Internal.Correction>
0.7711

> <Gold.Rescore>
     Score         DG    S(hbond)    S(metal)    S(lipo)     H(rot)  DE(clash)    DE(int)     intcor
     17.14     -18.10       1.68        0.00      98.75       1.78       0.03       0.92       ----

> <Gold.Chemscore.Fitness>
17.1448

> <Gold.Chemscore.DG>
-18.0998

> <Gold.Chemscore.ZeroCoef>
-5.4800

> <Gold.Chemscore.Hbond>
1.6816

> <Gold.Chemscore.Metal>
0.0000

> <Gold.Chemscore.Lipo>
98.7543

> <Gold.Chemscore.Internal_Hbond>
0.0000

> <Gold.Chemscore.DEClash>
0.0345

> <Gold.Chemscore.DEInternal>
0.9205

> <Gold.Chemscore.Rot>
1.7778

> <Gold.Chemscore.Internal.Correction>
   9.000000E+99

> <Gold.Chemscore.Hbonds>
donor molecule, donor type, donor heavy atom, donor atom, acceptor molecule, acceptor atom, score
      P1  H  7989  7998       L1    17  0.13
      P1  H  7997  8008       L1     7  0.39

> <Gold.Chemscore.Hbond.Weighted>
-5.6166

> <Gold.Chemscore.Metal.Weighted>
-0.0000

> <Gold.Chemscore.Lipo.Weighted>
-11.5543

> <Gold.Chemscore.Internal_Hbond.Weighted>
0.0000

> <Gold.Chemscore.DEClash.Weighted>
0.0345

> <Gold.Chemscore.DEInternal.Weighted>
0.9205

> <Gold.Chemscore.Rot.Weighted>
4.5511

> <Gold.Chemscore.Internal.Correction.Weighted>
   9.000000E+99

> <Gold.Protein.RotatedTorsions>
[ 6907 6896 6895 6894 ] final  -19.84 input  -60.11 | X-H torsion
[ 7974 7965 7964 7962 ] final -172.05 input  175.53 | X-H torsion
[ 8008 7997 7996 7995 ] final -110.70 input   59.86 | X-H torsion
[ 10167 10162 10161 10158 ] final    3.72 input  -65.29 | X-H torsion
[ 10718 10713 10712 10709 ] final   33.79 input   66.30 | X-H torsion
[ 10763 10752 10751 10750 ] final  147.87 input  -60.55 | X-H torsion
[ 11005 11000 10999 10996 ] final   56.56 input  -57.11 | X-H torsion

> <Gold.Protein.ActiveResidues>
 VAL166  LYS551  ARG553  GLY616  TRP617  ASP618  TYR619  PRO620  LYS621  CYS622 
 ASP623  PHE694  ASN695  SER759  ASP760  ASP761  ALA762  ILE779  LEU786  VAL792 
 PHE793  MET794  SER795  GLU796  ALA797  LYS798  CYS799  TRP800  GLU811  SER814 

> <Gold.Protein.RotatedAtoms>
  151.2572  135.0642  159.9083 H   0  0  0  0  0  0  0  0  0  0  0  0  # atno 6907 bound_to 6896
  152.5371  134.0270  159.8018 H   0  0  0  0  0  0  0  0  0  0  0  0  # atno 6908 bound_to 6896
  151.0487  133.5593  159.2675 H   0  0  0  0  0  0  0  0  0  0  0  0  # atno 6909 bound_to 6896
  144.7150  140.1830  143.6356 H   0  0  0  0  0  0  0  0  0  0  0  0  # atno 7974 bound_to 7965
  154.9785  140.0396  157.2267 H   0  0  0  0  0  0  0  0  0  0  0  0  # atno 8008 bound_to 7997
  154.7736  140.2806  155.6096 H   0  0  0  0  0  0  0  0  0  0  0  0  # atno 8009 bound_to 7997
  156.2925  140.2605  156.2544 H   0  0  0  0  0  0  0  0  0  0  0  0  # atno 8010 bound_to 7997
  140.6571  143.7399  150.7673 H   0  0  0  0  0  0  0  0  0  0  0  0  # atno 10167 bound_to 10162
  157.3023  130.7357  149.6674 H   0  0  0  0  0  0  0  0  0  0  0  0  # atno 10718 bound_to 10713
  154.0454  135.2886  155.3348 H   0  0  0  0  0  0  0  0  0  0  0  0  # atno 10763 bound_to 10752
  154.6902  135.5229  153.8386 H   0  0  0  0  0  0  0  0  0  0  0  0  # atno 10764 bound_to 10752
  153.0582  135.6603  154.0655 H   0  0  0  0  0  0  0  0  0  0  0  0  # atno 10765 bound_to 10752
  140.0520  134.5724  155.9253 H   0  0  0  0  0  0  0  0  0  0  0  0  # atno 11005 bound_to 11000
  145.8839  139.2338  143.1589 LP  0  0  0  0  0  0  0  0  0  0  0  0  # atno 17320 bound_to 7965
  145.9968  140.8555  143.0038 LP  0  0  0  0  0  0  0  0  0  0  0  0  # atno 17321 bound_to 7965
  140.1061  143.4743  152.2397 LP  0  0  0  0  0  0  0  0  0  0  0  0  # atno 17342 bound_to 10162
  139.5796  144.7504  151.3674 LP  0  0  0  0  0  0  0  0  0  0  0  0  # atno 17343 bound_to 10162
  155.9672  130.4276  150.4751 LP  0  0  0  0  0  0  0  0  0  0  0  0  # atno 17370 bound_to 10713
  157.2735  131.0592  151.2244 LP  0  0  0  0  0  0  0  0  0  0  0  0  # atno 17371 bound_to 10713
  141.1934  133.6579  156.5549 LP  0  0  0  0  0  0  0  0  0  0  0  0  # atno 17394 bound_to 11000
  140.3903  134.7446  157.4717 LP  0  0  0  0  0  0  0  0  0  0  0  0  # atno 17395 bound_to 11000

$$$$
