AV-unprocessed.smi:35|AV-procd|sdf|260|dock9
  -GOLD-   2262016 23D 1   1.00000     0.00000
 Structure written by MMmdl.
 29 30  0  0  0  0  0  0  0  0  1 V2000
  150.5616  143.4657  158.4242 O   0  0  0  0  0  0  0  0  0  0  0  0
  150.5975  142.4773  157.6947 C   0  0  0  0  0  0  0  0  0  0  0  0
  149.9750  142.5002  156.4431 N   0  0  0  0  0  0  0  0  0  0  0  0
  149.9513  141.4446  155.5293 C   0  0  0  0  0  0  0  0  0  0  0  0
  149.3518  141.5680  154.4619 O   0  0  0  0  0  0  0  0  0  0  0  0
  150.6271  140.2591  155.8953 N   0  0  0  0  0  0  0  0  0  0  0  0
  150.6221  139.0842  154.9446 C   0  0  1  0  0  0  0  0  0  0  0  0
  151.2497  137.9996  155.5645 O   0  0  0  0  0  0  0  0  0  0  0  0
  150.4201  136.8444  155.4952 C   0  0  1  0  0  0  0  0  0  0  0  0
  150.7242  135.9332  156.6949 C   0  0  0  0  0  0  0  0  0  0  0  0
  152.1139  135.7200  156.8180 O   0  0  0  0  0  0  0  0  0  0  0  0
  149.0040  137.4244  155.4635 C   0  0  2  0  0  0  0  0  0  0  0  0
  148.0353  136.5350  154.9408 O   0  0  0  0  0  0  0  0  0  0  0  0
  149.1774  138.6764  154.6121 C   0  0  2  0  0  0  0  0  0  0  0  0
  149.0300  138.4219  153.2260 O   0  0  0  0  0  0  0  0  0  0  0  0
  151.2410  140.1816  157.1388 C   0  0  0  0  0  0  0  0  0  0  0  0
  151.2503  141.2127  158.0157 C   0  0  0  0  0  0  0  0  0  0  0  0
  152.1786  140.9015  159.7379 Br  0  0  0  0  0  0  0  0  0  0  0  0
  149.4973  143.3502  156.1804 H   0  0  0  0  0  0  0  0  0  0  0  0
  151.2161  139.3800  154.0775 H   0  0  0  0  0  0  0  0  0  0  0  0
  150.6449  136.3353  154.5560 H   0  0  0  0  0  0  0  0  0  0  0  0
  150.3721  136.3999  157.6150 H   0  0  0  0  0  0  0  0  0  0  0  0
  150.2100  134.9762  156.6027 H   0  0  0  0  0  0  0  0  0  0  0  0
  152.3185  135.5850  157.7309 H   0  0  0  0  0  0  0  0  0  0  0  0
  148.7056  137.7167  156.4713 H   0  0  0  0  0  0  0  0  0  0  0  0
  148.4201  136.0714  154.2123 H   0  0  0  0  0  0  0  0  0  0  0  0
  148.4703  139.4582  154.8936 H   0  0  0  0  0  0  0  0  0  0  0  0
  149.0833  137.4886  153.0860 H   0  0  0  0  0  0  0  0  0  0  0  0
  151.7299  139.2655  157.4354 H   0  0  0  0  0  0  0  0  0  0  0  0
  1  2  2  0  0  0  0
  2 17  1  0  0  0  0
  2  3  1  0  0  0  0
  3 19  1  0  0  0  0
  3  4  1  0  0  0  0
  4  5  2  0  0  0  0
  4  6  1  0  0  0  0
  6  7  1  0  0  0  0
  6 16  1  0  0  0  0
  7 14  1  0  0  0  0
  7  8  1  0  0  0  0
  7 20  1  0  0  0  0
  8  9  1  0  0  0  0
  9 10  1  0  0  0  0
  9 12  1  0  0  0  0
  9 21  1  0  0  0  0
 10 11  1  0  0  0  0
 10 22  1  0  0  0  0
 10 23  1  0  0  0  0
 11 24  1  0  0  0  0
 12 13  1  0  0  0  0
 12 14  1  0  0  0  0
 12 25  1  0  0  0  0
 13 26  1  0  0  0  0
 14 15  1  0  0  0  0
 14 27  1  0  0  0  0
 15 28  1  0  0  0  0
 16 17  2  0  0  0  0
 16 29  1  0  0  0  0
 17 18  1  0  0  0  0
M  END
> <s_m_source_file>
AV-unprocessed.smi

> <i_m_source_file_index>
35

> <i_lp_mmshare_version>
43012

> <i_f3d_flags>
0

> <s_epik_input>
Tz1jMVtuSF1jKD1PKW4oW2NIXWMxQnIpW0NAQEhdMk9bQ0BASF0oW0NIMl1bT0hdKVtDQEBIXShbT0hdKVtDQEhdMltPSF0=

> <s_epik_cmdline>
J2VwaWtfcHl0aG9uJywgJy1waCcsICc3LjAnLCAnLXRuJywgJzgnLCAnLW1hJywgJzIwMCcsICctbWV0YWxfYmluZGluZycsICctaW1hZScsICc8aW5maWxlLm1hZT4nLCAnLW9tYWUnLCAnPG91dGZpbGUubWFlPic=

> <r_lp_tautomer_probability>
0.999537

> <r_epik_Ionization_Penalty>
0.10812

> <r_epik_Ionization_Penalty_Charging>
0.108119

> <r_epik_Ionization_Penalty_Neutral>
4.93006e-07

> <r_epik_State_Penalty>
0.0979238

> <r_epik_Charging_Adjusted_Penalty>
0.206043

> <i_epik_Tot_Q>
0

> <i_epik_Tot_abs_Q>
0

> <r_epik_Metal_State_Penalty>
3.07911

> <b_epik_Metal_Only>
0

> <s_epik_Chemistry_Notes>
This compound contains an acetal/aminal-like group ( X-CH(R)-Y where X, Y are N, S, or O) that may be acid/base labile, releasing an aldehyde.

> <s_lp_Force_Field>
OPLS_2005

> <r_lp_Energy>
30.2872

> <b_lp_Chiralities_Consistent>
1

> <s_lp_Variant>
AV-unprocessed.smi:35-14

> <Gold.Version>
5.8.1

> <Gold.Id.Protein>
6NUR|6NUR_protein|mol2

> <Gold.PLP.Fitness>
41.7499

> <Gold.PLP.PLP>
-28.4973

> <Gold.PLP.part.hbond>
-6.2445

> <Gold.PLP.part.metal>
0.0000

> <Gold.PLP.part.buried>
-3.1921

> <Gold.PLP.part.nonpolar>
-19.2522

> <Gold.PLP.part.repulsive>
0.5284

> <Gold.PLP.ligand.clash>
0.0000

> <Gold.PLP.ligand.torsion>
0.1007

> <Gold.PLP.Chemscore.Hbond>
4.4805

> <Gold.PLP.Chemscore.CHOScore>
0.0000

> <Gold.PLP.Chemscore.Metal>
0.0000

> <Gold.Chemscore.Hbonds>
donor molecule, donor type, donor heavy atom, donor atom, acceptor molecule, acceptor atom, score
      L1  H     3    19       P1  8028  1.00
      L1  H    13    26       P1  7948  0.06
      L1  H    15    28       P1  7948  0.86
      P1  H  8011  8017       L1     5  0.14
      P1  H 10752 10765       L1    11  0.55

> <Gold.PLP.Chemscore.Internal.Correction>
0.0125

> <Gold.Rescore>
     Score         DG    S(hbond)    S(metal)    S(lipo)     H(rot)  DE(clash)    DE(int)     intcor
     13.19     -14.65       4.41        0.00      32.80       3.67       0.29       1.17       ----

> <Gold.Chemscore.Fitness>
13.1856

> <Gold.Chemscore.DG>
-14.6459

> <Gold.Chemscore.ZeroCoef>
-5.4800

> <Gold.Chemscore.Hbond>
4.4085

> <Gold.Chemscore.Metal>
0.0000

> <Gold.Chemscore.Lipo>
32.7950

> <Gold.Chemscore.Internal_Hbond>
0.0000

> <Gold.Chemscore.DEClash>
0.2934

> <Gold.Chemscore.DEInternal>
1.1669

> <Gold.Chemscore.Rot>
3.6701

> <Gold.Chemscore.Internal.Correction>
   9.000000E+99

> <Gold.Chemscore.Hbonds>
donor molecule, donor type, donor heavy atom, donor atom, acceptor molecule, acceptor atom, score
      L1  H     3    19       P1  8028  0.98
      L1  H    13    26       P1  7948  0.09
      L1  H    15    28       P1  7948  0.85
      P1  H  8011  8017       L1     5  0.15
      P1  H 10752 10765       L1    11  0.42

> <Gold.Chemscore.Hbond.Weighted>
-14.7243

> <Gold.Chemscore.Metal.Weighted>
-0.0000

> <Gold.Chemscore.Lipo.Weighted>
-3.8370

> <Gold.Chemscore.Internal_Hbond.Weighted>
0.0000

> <Gold.Chemscore.DEClash.Weighted>
0.2934

> <Gold.Chemscore.DEInternal.Weighted>
1.1669

> <Gold.Chemscore.Rot.Weighted>
9.3955

> <Gold.Chemscore.Internal.Correction.Weighted>
   9.000000E+99

> <Gold.Protein.RotatedTorsions>
[ 6907 6896 6895 6894 ] final -107.57 input  -60.11 | X-H torsion
[ 7974 7965 7964 7962 ] final  134.00 input  175.53 | X-H torsion
[ 8008 7997 7996 7995 ] final  -92.19 input   59.86 | X-H torsion
[ 10167 10162 10161 10158 ] final -171.31 input  -65.29 | X-H torsion
[ 10718 10713 10712 10709 ] final -175.31 input   66.30 | X-H torsion
[ 10763 10752 10751 10750 ] final -165.51 input  -60.55 | X-H torsion
[ 11005 11000 10999 10996 ] final   31.35 input  -57.11 | X-H torsion

> <Gold.Protein.ActiveResidues>
 VAL166  LYS551  ARG553  GLY616  TRP617  ASP618  TYR619  PRO620  LYS621  CYS622 
 ASP623  PHE694  ASN695  SER759  ASP760  ASP761  ALA762  ILE779  LEU786  VAL792 
 PHE793  MET794  SER795  GLU796  ALA797  LYS798  CYS799  TRP800  GLU811  SER814 

> <Gold.Protein.RotatedAtoms>
  150.7452  133.9806  159.3574 H   0  0  0  0  0  0  0  0  0  0  0  0  # atno 6907 bound_to 6896
  151.7747  135.0775  160.0374 H   0  0  0  0  0  0  0  0  0  0  0  0  # atno 6908 bound_to 6896
  152.3315  133.5927  159.5849 H   0  0  0  0  0  0  0  0  0  0  0  0  # atno 6909 bound_to 6896
  144.9808  139.4507  143.5387 H   0  0  0  0  0  0  0  0  0  0  0  0  # atno 7974 bound_to 7965
  154.7200  140.0511  157.0631 H   0  0  0  0  0  0  0  0  0  0  0  0  # atno 8008 bound_to 7997
  155.0440  140.3172  155.4696 H   0  0  0  0  0  0  0  0  0  0  0  0  # atno 8009 bound_to 7997
  156.2814  140.2128  156.5564 H   0  0  0  0  0  0  0  0  0  0  0  0  # atno 8010 bound_to 7997
  139.5810  144.1424  152.1515 H   0  0  0  0  0  0  0  0  0  0  0  0  # atno 10167 bound_to 10162
  156.7979  130.9541  151.3119 H   0  0  0  0  0  0  0  0  0  0  0  0  # atno 10718 bound_to 10713
  154.6924  135.2973  154.9460 H   0  0  0  0  0  0  0  0  0  0  0  0  # atno 10763 bound_to 10752
  154.0418  135.6656  153.4795 H   0  0  0  0  0  0  0  0  0  0  0  0  # atno 10764 bound_to 10752
  153.0622  135.5109  154.8024 H   0  0  0  0  0  0  0  0  0  0  0  0  # atno 10765 bound_to 10752
  140.2848  134.2932  155.7791 H   0  0  0  0  0  0  0  0  0  0  0  0  # atno 11005 bound_to 11000
  146.3407  139.9079  142.8784 LP  0  0  0  0  0  0  0  0  0  0  0  0  # atno 17320 bound_to 7965
  145.2424  141.0014  143.3928 LP  0  0  0  0  0  0  0  0  0  0  0  0  # atno 17321 bound_to 7965
  140.0977  144.5567  150.7011 LP  0  0  0  0  0  0  0  0  0  0  0  0  # atno 17342 bound_to 10162
  140.7088  143.2488  151.4645 LP  0  0  0  0  0  0  0  0  0  0  0  0  # atno 17343 bound_to 10162
  157.6568  130.8931  149.9746 LP  0  0  0  0  0  0  0  0  0  0  0  0  # atno 17370 bound_to 10713
  156.1119  130.3649  150.0035 LP  0  0  0  0  0  0  0  0  0  0  0  0  # atno 17371 bound_to 10713
  141.2156  133.7548  156.9535 LP  0  0  0  0  0  0  0  0  0  0  0  0  # atno 17394 bound_to 11000
  140.1250  134.9392  157.2257 LP  0  0  0  0  0  0  0  0  0  0  0  0  # atno 17395 bound_to 11000

$$$$
