AV-unprocessed.smi:1576|AV-procd|sdf|6347|dock8
  -GOLD-   22720 6563D 1   1.00000     0.00000
 Structure written by MMmdl.
 45 47  0  0  0  0  0  0  0  0  3 V2000
  150.2368  136.0187  158.1034 O   0  0  0  0  0  0  0  0  0  0  0  0
  150.0350  136.1081  156.8871 C   0  0  0  0  0  0  0  0  0  0  0  0
  150.2891  137.2582  156.2381 N   0  0  0  0  0  0  0  0  0  0  0  0
  150.7617  138.4924  156.7584 C   0  0  0  0  0  0  0  0  0  0  0  0
  150.2581  139.6822  156.1911 C   0  0  0  0  0  0  0  0  0  0  0  0
  150.6890  140.9298  156.6867 C   0  0  0  0  0  0  0  0  0  0  0  0
  151.6122  140.9675  157.7567 C   0  0  0  0  0  0  0  0  0  0  0  0
  152.1002  142.1578  158.3113 N   0  0  0  0  0  0  0  0  0  0  0  0
  151.4602  143.3459  157.7521 C   0  0  0  0  0  0  0  0  0  0  0  0
  152.1501  144.6269  158.2518 C   0  0  0  0  0  0  0  0  0  0  0  0
  152.2039  144.6586  159.7876 C   0  0  0  0  0  0  0  0  0  0  0  0
  152.8587  143.3750  160.3232 C   0  0  0  0  0  0  0  0  0  0  0  0
  152.1523  142.1244  159.7708 C   0  0  0  0  0  0  0  0  0  0  0  0
  152.0560  139.8076  158.2871 N   0  3  0  0  0  0  0  0  0  0  0  0
  151.6700  138.5925  157.8402 C   0  0  0  0  0  0  0  0  0  0  0  0
  149.5839  135.1370  156.0481 N   0  5  0  0  0  0  0  0  0  0  0  0
  150.4378  134.1893  155.3216 C   0  0  2  0  0  0  0  0  0  0  0  0
  149.5744  133.0505  154.7293 C   0  0  0  0  0  0  0  0  0  0  0  0
  149.2613  132.0212  155.8229 C   0  0  0  0  0  0  0  0  0  0  0  0
  150.7554  131.9712  156.8781 S   0  0  0  0  0  0  0  0  0  0  0  0
  150.3582  132.0837  158.2902 O   0  0  0  0  0  0  0  0  0  0  0  0
  151.6276  130.8751  156.4276 O   0  0  0  0  0  0  0  0  0  0  0  0
  151.4594  133.5654  156.2927 C   0  0  0  0  0  0  0  0  0  0  0  0
  150.1906  137.2149  155.2343 H   0  0  0  0  0  0  0  0  0  0  0  0
  149.5519  139.6415  155.3746 H   0  0  0  0  0  0  0  0  0  0  0  0
  150.3129  141.8422  156.2477 H   0  0  0  0  0  0  0  0  0  0  0  0
  151.4992  143.3057  156.6627 H   0  0  0  0  0  0  0  0  0  0  0  0
  150.4066  143.3611  158.0340 H   0  0  0  0  0  0  0  0  0  0  0  0
  153.1630  144.6768  157.8498 H   0  0  0  0  0  0  0  0  0  0  0  0
  151.6243  145.5053  157.8765 H   0  0  0  0  0  0  0  0  0  0  0  0
  152.7564  145.5348  160.1280 H   0  0  0  0  0  0  0  0  0  0  0  0
  151.1936  144.7505  160.1885 H   0  0  0  0  0  0  0  0  0  0  0  0
  153.9112  143.3559  160.0374 H   0  0  0  0  0  0  0  0  0  0  0  0
  152.8335  143.3677  161.4132 H   0  0  0  0  0  0  0  0  0  0  0  0
  151.1394  142.0655  160.1716 H   0  0  0  0  0  0  0  0  0  0  0  0
  152.6788  141.2271  160.0991 H   0  0  0  0  0  0  0  0  0  0  0  0
  152.0938  137.7539  158.3723 H   0  0  0  0  0  0  0  0  0  0  0  0
  150.9802  134.6883  154.5172 H   0  0  0  0  0  0  0  0  0  0  0  0
  148.6663  133.4179  154.2495 H   0  0  0  0  0  0  0  0  0  0  0  0
  150.1532  132.5544  153.9496 H   0  0  0  0  0  0  0  0  0  0  0  0
  148.4195  132.3436  156.4378 H   0  0  0  0  0  0  0  0  0  0  0  0
  149.0435  131.0292  155.4280 H   0  0  0  0  0  0  0  0  0  0  0  0
  152.3891  133.3402  155.7703 H   0  0  0  0  0  0  0  0  0  0  0  0
  151.7001  134.2036  157.1436 H   0  0  0  0  0  0  0  0  0  0  0  0
  152.7151  139.8496  159.0648 H   0  0  0  0  0  0  0  0  0  0  0  0
  1  2  2  0  0  0  0
  2  3  1  0  0  0  0
  2 16  1  0  0  0  0
  3  4  1  0  0  0  0
  3 24  1  0  0  0  0
  4 15  1  0  0  0  0
  4  5  2  0  0  0  0
  5  6  1  0  0  0  0
  5 25  1  0  0  0  0
  6  7  2  0  0  0  0
  6 26  1  0  0  0  0
  7  8  1  0  0  0  0
  7 14  1  0  0  0  0
  8 13  1  0  0  0  0
  8  9  1  0  0  0  0
  9 10  1  0  0  0  0
  9 27  1  0  0  0  0
  9 28  1  0  0  0  0
 10 11  1  0  0  0  0
 10 29  1  0  0  0  0
 10 30  1  0  0  0  0
 11 12  1  0  0  0  0
 11 31  1  0  0  0  0
 11 32  1  0  0  0  0
 12 13  1  0  0  0  0
 12 33  1  0  0  0  0
 12 34  1  0  0  0  0
 13 35  1  0  0  0  0
 13 36  1  0  0  0  0
 14 15  2  0  0  0  0
 14 45  1  0  0  0  0
 15 37  1  0  0  0  0
 16 17  1  0  0  0  0
 17 23  1  0  0  0  0
 17 18  1  0  0  0  0
 17 38  1  0  0  0  0
 18 19  1  0  0  0  0
 18 39  1  0  0  0  0
 18 40  1  0  0  0  0
 19 20  1  0  0  0  0
 19 41  1  0  0  0  0
 19 42  1  0  0  0  0
 20 21  2  0  0  0  0
 20 22  2  0  0  0  0
 20 23  1  0  0  0  0
 23 43  1  0  0  0  0
 23 44  1  0  0  0  0
M  CHG  1  14   1
M  CHG  1  16  -1
M  END
> <s_m_source_file>
AV-unprocessed.smi

> <i_m_source_file_index>
1576

> <i_lp_mmshare_version>
43012

> <i_f3d_flags>
0

> <s_epik_input>
Tz1TMSg9TylbQ0gyXVtDSDJdW0NASF0oW0NIMl0xKVtOSF1DKD1PKVtOSF1jMltjSF1bY0hdYyhuW2NIXTIpTjNbQ0gyXVtDSDJdW0NIMl1bQ0gyXVtDSDJdMw==

> <s_epik_cmdline>
J2VwaWtfcHl0aG9uJywgJy1waCcsICc3LjAnLCAnLXRuJywgJzgnLCAnLW1hJywgJzIwMCcsICctbWV0YWxfYmluZGluZycsICctaW1hZScsICc8aW5maWxlLm1hZT4nLCAnLW9tYWUnLCAnPG91dGZpbGUubWFlPic=

> <r_lp_tautomer_probability>
0.999994

> <r_epik_Ionization_Penalty>
8.26491

> <r_epik_Ionization_Penalty_Charging>
8.26491

> <r_epik_Ionization_Penalty_Neutral>
3.15169e-06

> <r_epik_State_Penalty>
7.8977

> <r_epik_Charging_Adjusted_Penalty>
16.1626

> <i_epik_Tot_Q>
0

> <i_epik_Tot_abs_Q>
2

> <r_epik_Metal_State_Penalty>
3.88896

> <b_epik_Metal_Only>
1

> <s_lp_Force_Field>
OPLS_2005

> <r_lp_Energy>
29.9243

> <b_lp_Chiralities_Consistent>
1

> <s_lp_Variant>
AV-unprocessed.smi:1576-5

> <Gold.Version>
5.8.1

> <Gold.Id.Protein>
6NUR|6NUR_protein|mol2

> <Gold.PLP.Fitness>
38.1857

> <Gold.PLP.PLP>
-35.5393

> <Gold.PLP.part.hbond>
-2.0000

> <Gold.PLP.part.metal>
0.0000

> <Gold.PLP.part.buried>
-5.5567

> <Gold.PLP.part.nonpolar>
-28.8422

> <Gold.PLP.part.repulsive>
0.1552

> <Gold.PLP.ligand.clash>
0.0000

> <Gold.PLP.ligand.torsion>
1.3934

> <Gold.PLP.Chemscore.Hbond>
1.7615

> <Gold.PLP.Chemscore.CHOScore>
0.0000

> <Gold.PLP.Chemscore.Metal>
0.0000

> <Gold.Chemscore.Hbonds>
donor molecule, donor type, donor heavy atom, donor atom, acceptor molecule, acceptor atom, score
      P1  H  6896  6907       L1    21  1.00
      P1  H  6896  6908       L1     1  0.78

> <Gold.PLP.Chemscore.Internal.Correction>
0.1487

> <Gold.Rescore>
     Score         DG    S(hbond)    S(metal)    S(lipo)     H(rot)  DE(clash)    DE(int)     intcor
     17.10     -19.64       1.81        0.00      96.53       1.24       0.01       2.52       ----

> <Gold.Chemscore.Fitness>
17.1010

> <Gold.Chemscore.DG>
-19.6402

> <Gold.Chemscore.ZeroCoef>
-5.4800

> <Gold.Chemscore.Hbond>
1.8060

> <Gold.Chemscore.Metal>
0.0000

> <Gold.Chemscore.Lipo>
96.5287

> <Gold.Chemscore.Internal_Hbond>
0.0000

> <Gold.Chemscore.DEClash>
0.0149

> <Gold.Chemscore.DEInternal>
2.5244

> <Gold.Chemscore.Rot>
1.2366

> <Gold.Chemscore.Internal.Correction>
   9.000000E+99

> <Gold.Chemscore.Hbonds>
donor molecule, donor type, donor heavy atom, donor atom, acceptor molecule, acceptor atom, score
      P1  H  6896  6907       L1    21  0.81
      P1  H  6896  6908       L1     1  0.73

> <Gold.Chemscore.Hbond.Weighted>
-6.0321

> <Gold.Chemscore.Metal.Weighted>
-0.0000

> <Gold.Chemscore.Lipo.Weighted>
-11.2939

> <Gold.Chemscore.Internal_Hbond.Weighted>
0.0000

> <Gold.Chemscore.DEClash.Weighted>
0.0149

> <Gold.Chemscore.DEInternal.Weighted>
2.5244

> <Gold.Chemscore.Rot.Weighted>
3.1657

> <Gold.Chemscore.Internal.Correction.Weighted>
   9.000000E+99

> <Gold.Protein.RotatedTorsions>
[ 6907 6896 6895 6894 ] final -167.32 input  -60.11 | X-H torsion
[ 7974 7965 7964 7962 ] final  -77.78 input  175.53 | X-H torsion
[ 8008 7997 7996 7995 ] final  -84.72 input   59.86 | X-H torsion
[ 10167 10162 10161 10158 ] final  -35.97 input  -65.29 | X-H torsion
[ 10718 10713 10712 10709 ] final  -32.52 input   66.30 | X-H torsion
[ 10763 10752 10751 10750 ] final  -22.60 input  -60.55 | X-H torsion
[ 11005 11000 10999 10996 ] final -179.40 input  -57.11 | X-H torsion

> <Gold.Protein.ActiveResidues>
 VAL166  LYS551  ARG553  GLY616  TRP617  ASP618  TYR619  PRO620  LYS621  CYS622 
 ASP623  PHE694  ASN695  SER759  ASP760  ASP761  ALA762  ILE779  LEU786  VAL792 
 PHE793  MET794  SER795  GLU796  ALA797  LYS798  CYS799  TRP800  GLU811  SER814 

> <Gold.Protein.RotatedAtoms>
  151.4577  133.3601  159.2804 H   0  0  0  0  0  0  0  0  0  0  0  0  # atno 6907 bound_to 6896
  150.9047  134.8463  159.7395 H   0  0  0  0  0  0  0  0  0  0  0  0  # atno 6908 bound_to 6896
  152.4899  134.4501  159.9623 H   0  0  0  0  0  0  0  0  0  0  0  0  # atno 6909 bound_to 6896
  145.5951  140.9421  143.1271 H   0  0  0  0  0  0  0  0  0  0  0  0  # atno 7974 bound_to 7965
  154.6329  140.0601  156.9753 H   0  0  0  0  0  0  0  0  0  0  0  0  # atno 8008 bound_to 7997
  155.1638  140.3285  155.4387 H   0  0  0  0  0  0  0  0  0  0  0  0  # atno 8009 bound_to 7997
  156.2492  140.1926  156.6744 H   0  0  0  0  0  0  0  0  0  0  0  0  # atno 8010 bound_to 7997
  140.7153  143.3440  151.2295 H   0  0  0  0  0  0  0  0  0  0  0  0  # atno 10167 bound_to 10162
  156.3739  130.4344  149.7523 H   0  0  0  0  0  0  0  0  0  0  0  0  # atno 10718 bound_to 10713
  153.6545  135.6979  153.5198 H   0  0  0  0  0  0  0  0  0  0  0  0  # atno 10763 bound_to 10752
  153.2680  135.4224  155.0959 H   0  0  0  0  0  0  0  0  0  0  0  0  # atno 10764 bound_to 10752
  154.8468  135.3571  154.6090 H   0  0  0  0  0  0  0  0  0  0  0  0  # atno 10765 bound_to 10752
  140.4191  134.6622  157.4654 H   0  0  0  0  0  0  0  0  0  0  0  0  # atno 11005 bound_to 11000
  144.7334  139.7658  143.7338 LP  0  0  0  0  0  0  0  0  0  0  0  0  # atno 17320 bound_to 7965
  146.1618  139.4734  142.9984 LP  0  0  0  0  0  0  0  0  0  0  0  0  # atno 17321 bound_to 7965
  139.6955  143.9620  152.2880 LP  0  0  0  0  0  0  0  0  0  0  0  0  # atno 17342 bound_to 10162
  139.9296  144.6750  150.8377 LP  0  0  0  0  0  0  0  0  0  0  0  0  # atno 17343 bound_to 10162
  156.4640  130.7965  151.2985 LP  0  0  0  0  0  0  0  0  0  0  0  0  # atno 17370 bound_to 10713
  157.7486  131.0057  150.3123 LP  0  0  0  0  0  0  0  0  0  0  0  0  # atno 17371 bound_to 10713
  140.0213  134.6543  155.9236 LP  0  0  0  0  0  0  0  0  0  0  0  0  # atno 17394 bound_to 11000
  141.1791  133.6544  156.4948 LP  0  0  0  0  0  0  0  0  0  0  0  0  # atno 17395 bound_to 11000

$$$$
