AV-unprocessed.smi:3344|AV-procd|sdf|12898|dock2
  -GOLD-   2272019303D 1   1.00000     0.00000
 Structure written by MMmdl.
 43 44  0  0  0  0  0  0  0  0  2 V2000
  150.5854  135.4390  156.0982 C   0  0  0  0  0  0  0  0  0  0  0  0
  150.0043  136.2662  154.9337 C   0  0  1  0  0  0  0  0  0  0  0  0
  148.4677  136.2956  154.9408 C   0  0  0  0  0  0  0  0  0  0  0  0
  147.8592  137.3653  154.9856 O   0  0  0  0  0  0  0  0  0  0  0  0
  147.8474  135.1057  154.8962 N   0  0  0  0  0  0  0  0  0  0  0  0
  146.4013  134.9194  154.8733 C   0  0  0  0  0  0  0  0  0  0  0  0
  145.7533  135.6524  153.6816 C   0  0  0  0  0  0  0  0  0  0  0  0
  146.2215  135.1451  152.3635 N   0  3  0  0  0  0  0  0  0  0  0  0
  145.3499  135.5942  151.2415 C   0  0  0  0  0  0  0  0  0  0  0  0
  144.1304  134.6911  150.9750 C   0  0  0  0  0  0  0  0  0  0  0  0
  144.4262  133.5869  149.9483 C   0  0  0  0  0  0  0  0  0  0  0  0
  145.3737  132.4930  150.4581 C   0  0  0  0  0  0  0  0  0  0  0  0
  146.7089  133.0188  151.0119 C   0  0  0  0  0  0  0  0  0  0  0  0
  146.5632  133.6936  152.3900 C   0  0  0  0  0  0  0  0  0  0  0  0
  150.5346  137.6239  154.9053 N   0  0  0  0  0  0  0  0  0  0  0  0
  150.3621  138.5942  154.0048 C   0  0  0  0  0  0  0  0  0  0  0  0
  150.9619  139.7340  154.3186 N   0  0  0  0  0  0  0  0  0  0  0  0
  151.5187  139.3770  155.5140 C   0  0  0  0  0  0  0  0  0  0  0  0
  151.2843  138.1284  155.9172 N   0  0  0  0  0  0  0  0  0  0  0  0
  150.2152  134.4134  156.0747 H   0  0  0  0  0  0  0  0  0  0  0  0
  150.3279  135.8600  157.0711 H   0  0  0  0  0  0  0  0  0  0  0  0
  151.6732  135.3944  156.0372 H   0  0  0  0  0  0  0  0  0  0  0  0
  150.3181  135.7810  154.0077 H   0  0  0  0  0  0  0  0  0  0  0  0
  148.4178  134.2731  154.8603 H   0  0  0  0  0  0  0  0  0  0  0  0
  146.1635  133.8545  154.8456 H   0  0  0  0  0  0  0  0  0  0  0  0
  146.0161  135.3013  155.8184 H   0  0  0  0  0  0  0  0  0  0  0  0
  144.6662  135.5822  153.7375 H   0  0  0  0  0  0  0  0  0  0  0  0
  145.9970  136.7125  153.7606 H   0  0  0  0  0  0  0  0  0  0  0  0
  145.0085  136.6122  151.4331 H   0  0  0  0  0  0  0  0  0  0  0  0
  145.9557  135.6788  150.3386 H   0  0  0  0  0  0  0  0  0  0  0  0
  143.7285  134.2750  151.8996 H   0  0  0  0  0  0  0  0  0  0  0  0
  143.3356  135.3139  150.5627 H   0  0  0  0  0  0  0  0  0  0  0  0
  143.4869  133.1196  149.6501 H   0  0  0  0  0  0  0  0  0  0  0  0
  144.8361  134.0314  149.0404 H   0  0  0  0  0  0  0  0  0  0  0  0
  144.8695  131.8961  151.2192 H   0  0  0  0  0  0  0  0  0  0  0  0
  145.5795  131.8074  149.6351 H   0  0  0  0  0  0  0  0  0  0  0  0
  147.3655  132.1568  151.1360 H   0  0  0  0  0  0  0  0  0  0  0  0
  147.2148  133.6669  150.2954 H   0  0  0  0  0  0  0  0  0  0  0  0
  147.5147  133.5963  152.9129 H   0  0  0  0  0  0  0  0  0  0  0  0
  145.8339  133.1472  152.9899 H   0  0  0  0  0  0  0  0  0  0  0  0
  149.7831  138.4659  153.1017 H   0  0  0  0  0  0  0  0  0  0  0  0
  152.1085  140.0595  156.1081 H   0  0  0  0  0  0  0  0  0  0  0  0
  147.0953  135.6238  152.1967 H   0  0  0  0  0  0  0  0  0  0  0  0
  1  2  1  0  0  0  0
  1 20  1  0  0  0  0
  1 21  1  0  0  0  0
  1 22  1  0  0  0  0
  2  3  1  0  0  0  0
  2 15  1  0  0  0  0
  2 23  1  0  0  0  0
  3  4  2  0  0  0  0
  3  5  1  0  0  0  0
  5  6  1  0  0  0  0
  5 24  1  0  0  0  0
  6  7  1  0  0  0  0
  6 25  1  0  0  0  0
  6 26  1  0  0  0  0
  7  8  1  0  0  0  0
  7 27  1  0  0  0  0
  7 28  1  0  0  0  0
  8 14  1  0  0  0  0
  8  9  1  0  0  0  0
  8 43  1  0  0  0  0
  9 10  1  0  0  0  0
  9 29  1  0  0  0  0
  9 30  1  0  0  0  0
 10 11  1  0  0  0  0
 10 31  1  0  0  0  0
 10 32  1  0  0  0  0
 11 12  1  0  0  0  0
 11 33  1  0  0  0  0
 11 34  1  0  0  0  0
 12 13  1  0  0  0  0
 12 35  1  0  0  0  0
 12 36  1  0  0  0  0
 13 14  1  0  0  0  0
 13 37  1  0  0  0  0
 13 38  1  0  0  0  0
 14 39  1  0  0  0  0
 14 40  1  0  0  0  0
 15 19  1  0  0  0  0
 15 16  1  0  0  0  0
 16 17  2  0  0  0  0
 16 41  1  0  0  0  0
 17 18  1  0  0  0  0
 18 19  2  0  0  0  0
 18 42  1  0  0  0  0
M  CHG  1   8   1
M  END
> <s_m_source_file>
AV-unprocessed.smi

> <i_m_source_file_index>
3344

> <i_lp_mmshare_version>
43012

> <i_f3d_flags>
0

> <s_epik_input>
bjFbY0hdbltjSF1uMVtDQEhdKFtDSDNdKUMoPU8pW05IXVtDSDJdW0NIMl1OMltDSDJdW0NIMl1bQ0gyXVtDSDJdW0NIMl1bQ0gyXTI=

> <s_epik_cmdline>
J2VwaWtfcHl0aG9uJywgJy1waCcsICc3LjAnLCAnLXRuJywgJzgnLCAnLW1hJywgJzIwMCcsICctbWV0YWxfYmluZGluZycsICctaW1hZScsICc8aW5maWxlLm1hZT4nLCAnLW9tYWUnLCAnPG91dGZpbGUubWFlPic=

> <r_lp_tautomer_probability>
1

> <r_epik_Ionization_Penalty>
0.00266407

> <r_epik_Ionization_Penalty_Charging>
0.00265606

> <r_epik_Ionization_Penalty_Neutral>
8.01095e-06

> <r_epik_State_Penalty>
0.00184955

> <r_epik_Charging_Adjusted_Penalty>
0.00450561

> <i_epik_Tot_Q>
1

> <i_epik_Tot_abs_Q>
1

> <r_epik_Metal_State_Penalty>
-0

> <b_epik_Metal_Only>
0

> <s_lp_Force_Field>
OPLS_2005

> <r_lp_Energy>
28.0166

> <b_lp_Chiralities_Consistent>
1

> <s_lp_Variant>
AV-unprocessed.smi:3344-2

> <Gold.Version>
5.8.1

> <Gold.Id.Protein>
6NUR|6NUR_protein|mol2

> <Gold.PLP.Fitness>
40.6897

> <Gold.PLP.PLP>
-27.2642

> <Gold.PLP.part.hbond>
-2.0000

> <Gold.PLP.part.metal>
0.0000

> <Gold.PLP.part.buried>
-2.6528

> <Gold.PLP.part.nonpolar>
-22.7995

> <Gold.PLP.part.repulsive>
0.2006

> <Gold.PLP.ligand.clash>
0.0000

> <Gold.PLP.ligand.torsion>
0.3180

> <Gold.PLP.Chemscore.Hbond>
3.0000

> <Gold.PLP.Chemscore.CHOScore>
1.6314

> <Gold.PLP.Chemscore.Metal>
0.0000

> <Gold.Chemscore.Hbonds>
donor molecule, donor type, donor heavy atom, donor atom, acceptor molecule, acceptor atom, score
      L1  H     8    43       P1  7948  2.00
      P1  H  7989  7998       L1    17  1.00
      L1  C    16    41       P1  7948  0.72
      L1  C    16    41       P1  7957  0.96

> <Gold.PLP.Chemscore.Internal.Correction>
0.1672

> <Gold.Rescore>
     Score         DG    S(hbond)    S(metal)    S(lipo)     H(rot)  DE(clash)    DE(int)     intcor
     11.07     -11.91       1.99        0.00      53.62       2.54       0.12       0.72       ----

> <Gold.Chemscore.Fitness>
11.0702

> <Gold.Chemscore.DG>
-11.9083

> <Gold.Chemscore.ZeroCoef>
-5.4800

> <Gold.Chemscore.Hbond>
1.9914

> <Gold.Chemscore.Metal>
0.0000

> <Gold.Chemscore.Lipo>
53.6214

> <Gold.Chemscore.Internal_Hbond>
0.0000

> <Gold.Chemscore.DEClash>
0.1214

> <Gold.Chemscore.DEInternal>
0.7167

> <Gold.Chemscore.Rot>
2.5377

> <Gold.Chemscore.Internal.Correction>
   9.000000E+99

> <Gold.Chemscore.Hbonds>
donor molecule, donor type, donor heavy atom, donor atom, acceptor molecule, acceptor atom, score
      L1  H     8    43       P1  7948  0.99
      P1  H  7989  7998       L1    17  0.92

> <Gold.Chemscore.Hbond.Weighted>
-6.6512

> <Gold.Chemscore.Metal.Weighted>
-0.0000

> <Gold.Chemscore.Lipo.Weighted>
-6.2737

> <Gold.Chemscore.Internal_Hbond.Weighted>
0.0000

> <Gold.Chemscore.DEClash.Weighted>
0.1214

> <Gold.Chemscore.DEInternal.Weighted>
0.7167

> <Gold.Chemscore.Rot.Weighted>
6.4966

> <Gold.Chemscore.Internal.Correction.Weighted>
   9.000000E+99

> <Gold.Protein.RotatedTorsions>
[ 6907 6896 6895 6894 ] final  148.97 input  -60.11 | X-H torsion
[ 7974 7965 7964 7962 ] final  168.54 input  175.53 | X-H torsion
[ 8008 7997 7996 7995 ] final  -37.55 input   59.86 | X-H torsion
[ 10167 10162 10161 10158 ] final  174.17 input  -65.29 | X-H torsion
[ 10718 10713 10712 10709 ] final  175.88 input   66.30 | X-H torsion
[ 10763 10752 10751 10750 ] final   84.40 input  -60.55 | X-H torsion
[ 11005 11000 10999 10996 ] final  -24.62 input  -57.11 | X-H torsion

> <Gold.Protein.ActiveResidues>
 VAL166  LYS551  ARG553  GLY616  TRP617  ASP618  TYR619  PRO620  LYS621  CYS622 
 ASP623  PHE694  ASN695  SER759  ASP760  ASP761  ALA762  ILE779  LEU786  VAL792 
 PHE793  MET794  SER795  GLU796  ALA797  LYS798  CYS799  TRP800  GLU811  SER814 

> <Gold.Protein.RotatedAtoms>
  152.1343  133.4426  159.4735 H   0  0  0  0  0  0  0  0  0  0  0  0  # atno 6907 bound_to 6896
  150.6880  134.2383  159.4471 H   0  0  0  0  0  0  0  0  0  0  0  0  # atno 6908 bound_to 6896
  152.0269  134.9790  160.0622 H   0  0  0  0  0  0  0  0  0  0  0  0  # atno 6909 bound_to 6896
  144.7385  139.8923  143.6404 H   0  0  0  0  0  0  0  0  0  0  0  0  # atno 7974 bound_to 7965
  154.4051  140.1601  156.2555 H   0  0  0  0  0  0  0  0  0  0  0  0  # atno 8008 bound_to 7997
  155.9082  140.3429  155.6056 H   0  0  0  0  0  0  0  0  0  0  0  0  # atno 8009 bound_to 7997
  155.7367  140.0787  157.2255 H   0  0  0  0  0  0  0  0  0  0  0  0  # atno 8010 bound_to 7997
  139.5132  144.3178  152.0231 H   0  0  0  0  0  0  0  0  0  0  0  0  # atno 10167 bound_to 10162
  156.9283  130.9963  151.2992 H   0  0  0  0  0  0  0  0  0  0  0  0  # atno 10718 bound_to 10713
  153.1378  135.4655  154.9449 H   0  0  0  0  0  0  0  0  0  0  0  0  # atno 10763 bound_to 10752
  154.7721  135.3162  154.8170 H   0  0  0  0  0  0  0  0  0  0  0  0  # atno 10764 bound_to 10752
  153.8699  135.6904  153.4829 H   0  0  0  0  0  0  0  0  0  0  0  0  # atno 10765 bound_to 10752
  140.8862  133.7620  156.0363 H   0  0  0  0  0  0  0  0  0  0  0  0  # atno 11005 bound_to 11000
  146.1133  139.4140  143.0274 LP  0  0  0  0  0  0  0  0  0  0  0  0  # atno 17320 bound_to 7965
  145.7411  141.0007  143.1300 LP  0  0  0  0  0  0  0  0  0  0  0  0  # atno 17321 bound_to 7965
  140.2620  144.4056  150.6182 LP  0  0  0  0  0  0  0  0  0  0  0  0  # atno 17342 bound_to 10162
  140.6150  143.2172  151.6810 LP  0  0  0  0  0  0  0  0  0  0  0  0  # atno 17343 bound_to 10162
  157.5863  130.8412  149.8594 LP  0  0  0  0  0  0  0  0  0  0  0  0  # atno 17370 bound_to 10713
  156.0459  130.3728  150.1320 LP  0  0  0  0  0  0  0  0  0  0  0  0  # atno 17371 bound_to 10713
  140.8402  134.3075  157.5316 LP  0  0  0  0  0  0  0  0  0  0  0  0  # atno 17394 bound_to 11000
  139.8724  134.9412  156.3790 LP  0  0  0  0  0  0  0  0  0  0  0  0  # atno 17395 bound_to 11000

$$$$
