AV-unprocessed.smi:964|AV-procd|sdf|4277|dock2
  -GOLD-   22720 2183D 1   1.00000     0.00000
 Structure written by MMmdl.
 20 20  0  0  0  0  0  0  0  0  2 V2000
  150.9445  141.2272  156.5130 C   0  0  0  0  0  0  0  0  0  0  0  0
  150.0934  140.8307  155.3553 C   0  0  0  0  0  0  0  0  0  0  0  0
  148.7316  140.9537  155.3574 N   0  0  0  0  0  0  0  0  0  0  0  0
  148.4519  140.4884  154.1448 C   0  0  0  0  0  0  0  0  0  0  0  0
  147.0778  140.3625  153.5727 C   0  0  0  0  0  0  0  0  0  0  0  0
  146.7757  138.9380  153.0877 C   0  0  0  0  0  0  0  0  0  0  0  0
  147.3324  138.6959  151.7463 N   0  3  0  0  0  0  0  0  0  0  0  0
  149.5453  140.1124  153.4773 N   0  0  0  0  0  0  0  0  0  0  0  0
  150.6331  140.3264  154.2471 N   0  0  0  0  0  0  0  0  0  0  0  0
  150.3423  141.6938  157.2930 H   0  0  0  0  0  0  0  0  0  0  0  0
  151.7074  141.9386  156.1956 H   0  0  0  0  0  0  0  0  0  0  0  0
  151.4387  140.3517  156.9352 H   0  0  0  0  0  0  0  0  0  0  0  0
  146.3586  140.6599  154.3372 H   0  0  0  0  0  0  0  0  0  0  0  0
  146.9697  141.0719  152.7509 H   0  0  0  0  0  0  0  0  0  0  0  0
  147.1941  138.2057  153.7792 H   0  0  0  0  0  0  0  0  0  0  0  0
  145.6988  138.7694  153.0527 H   0  0  0  0  0  0  0  0  0  0  0  0
  147.8198  137.8110  151.7394 H   0  0  0  0  0  0  0  0  0  0  0  0
  147.9768  139.4361  151.5074 H   0  0  0  0  0  0  0  0  0  0  0  0
  146.5825  138.6699  151.0698 H   0  0  0  0  0  0  0  0  0  0  0  0
  149.5983  139.7267  152.5451 H   0  0  0  0  0  0  0  0  0  0  0  0
  1  2  1  0  0  0  0
  1 10  1  0  0  0  0
  1 11  1  0  0  0  0
  1 12  1  0  0  0  0
  2  9  2  0  0  0  0
  2  3  1  0  0  0  0
  3  4  2  0  0  0  0
  4  5  1  0  0  0  0
  4  8  1  0  0  0  0
  5  6  1  0  0  0  0
  5 13  1  0  0  0  0
  5 14  1  0  0  0  0
  6  7  1  0  0  0  0
  6 15  1  0  0  0  0
  6 16  1  0  0  0  0
  7 17  1  0  0  0  0
  7 18  1  0  0  0  0
  7 19  1  0  0  0  0
  8  9  1  0  0  0  0
  8 20  1  0  0  0  0
M  CHG  1   7   1
M  END
> <s_m_source_file>
AV-unprocessed.smi

> <i_m_source_file_index>
964

> <i_lp_mmshare_version>
43012

> <i_f3d_flags>
0

> <s_epik_input>
W0NIM11jMW5jKG5bbkhdMSlbQ0gyXVtDSDJdW05IMl0=

> <s_epik_cmdline>
J2VwaWtfcHl0aG9uJywgJy1waCcsICc3LjAnLCAnLXRuJywgJzgnLCAnLW1hJywgJzIwMCcsICctbWV0YWxfYmluZGluZycsICctaW1hZScsICc8aW5maWxlLm1hZT4nLCAnLW9tYWUnLCAnPG91dGZpbGUubWFlPic=

> <r_lp_tautomer_probability>
0.948284

> <r_epik_Ionization_Penalty>
0.00675923

> <r_epik_Ionization_Penalty_Charging>
0.00465044

> <r_epik_Ionization_Penalty_Neutral>
0.00210879

> <r_epik_State_Penalty>
0.393939

> <r_epik_Charging_Adjusted_Penalty>
0.398589

> <i_epik_Tot_Q>
1

> <i_epik_Tot_abs_Q>
1

> <r_epik_Metal_State_Penalty>
0.594419

> <b_epik_Metal_Only>
0

> <s_lp_Force_Field>
OPLS_2005

> <r_lp_Energy>
1.69127

> <b_lp_Chiralities_Consistent>
1

> <s_lp_Variant>
AV-unprocessed.smi:964-1

> <Gold.Version>
5.8.1

> <Gold.Id.Protein>
6NUR|6NUR_protein|mol2

> <Gold.PLP.Fitness>
31.4114

> <Gold.PLP.PLP>
-17.0098

> <Gold.PLP.part.hbond>
-3.5717

> <Gold.PLP.part.metal>
0.0000

> <Gold.PLP.part.buried>
-4.2984

> <Gold.PLP.part.nonpolar>
-10.5720

> <Gold.PLP.part.repulsive>
1.9416

> <Gold.PLP.ligand.clash>
0.0000

> <Gold.PLP.ligand.torsion>
0.1436

> <Gold.PLP.Chemscore.Hbond>
4.8960

> <Gold.PLP.Chemscore.CHOScore>
0.0000

> <Gold.PLP.Chemscore.Metal>
0.0000

> <Gold.Chemscore.Hbonds>
donor molecule, donor type, donor heavy atom, donor atom, acceptor molecule, acceptor atom, score
      L1  H     7    17       P1  7948  2.00
      L1  H     7    18       P1  7957  1.00
      L1  H     8    20       P1  7957  0.65
      P1  H  7989  7998       L1     9  0.57

> <Gold.PLP.Chemscore.Internal.Correction>
0.0008

> <Gold.Rescore>
     Score         DG    S(hbond)    S(metal)    S(lipo)     H(rot)  DE(clash)    DE(int)     intcor
     15.68     -15.80       3.63        0.00      17.64       1.51       0.00       0.11       ----

> <Gold.Chemscore.Fitness>
15.6849

> <Gold.Chemscore.DG>
-15.7997

> <Gold.Chemscore.ZeroCoef>
-5.4800

> <Gold.Chemscore.Hbond>
3.6277

> <Gold.Chemscore.Metal>
0.0000

> <Gold.Chemscore.Lipo>
17.6422

> <Gold.Chemscore.Internal_Hbond>
0.0000

> <Gold.Chemscore.DEClash>
0.0009

> <Gold.Chemscore.DEInternal>
0.1139

> <Gold.Chemscore.Rot>
1.5082

> <Gold.Chemscore.Internal.Correction>
   9.000000E+99

> <Gold.Chemscore.Hbonds>
donor molecule, donor type, donor heavy atom, donor atom, acceptor molecule, acceptor atom, score
      L1  H     7    17       P1  7948  1.00
      L1  H     7    18       P1  7957  0.94
      L1  H     8    20       P1  7957  0.62
      P1  H  7989  7998       L1     9  0.39

> <Gold.Chemscore.Hbond.Weighted>
-12.1166

> <Gold.Chemscore.Metal.Weighted>
-0.0000

> <Gold.Chemscore.Lipo.Weighted>
-2.0641

> <Gold.Chemscore.Internal_Hbond.Weighted>
0.0000

> <Gold.Chemscore.DEClash.Weighted>
0.0009

> <Gold.Chemscore.DEInternal.Weighted>
0.1139

> <Gold.Chemscore.Rot.Weighted>
3.8611

> <Gold.Chemscore.Internal.Correction.Weighted>
   9.000000E+99

> <Gold.Protein.RotatedTorsions>
[ 6907 6896 6895 6894 ] final   23.19 input  -60.11 | X-H torsion
[ 7974 7965 7964 7962 ] final  -13.08 input  175.53 | X-H torsion
[ 8008 7997 7996 7995 ] final  -90.77 input   59.86 | X-H torsion
[ 10167 10162 10161 10158 ] final -149.10 input  -65.29 | X-H torsion
[ 10718 10713 10712 10709 ] final  143.26 input   66.30 | X-H torsion
[ 10763 10752 10751 10750 ] final  124.87 input  -60.55 | X-H torsion
[ 11005 11000 10999 10996 ] final  147.09 input  -57.11 | X-H torsion

> <Gold.Protein.ActiveResidues>
 VAL166  LYS551  ARG553  GLY616  TRP617  ASP618  TYR619  PRO620  LYS621  CYS622 
 ASP623  PHE694  ASN695  SER759  ASP760  ASP761  ALA762  ILE779  LEU786  VAL792 
 PHE793  MET794  SER795  GLU796  ALA797  LYS798  CYS799  TRP800  GLU811  SER814 

> <Gold.Protein.RotatedAtoms>
  151.9386  135.0224  160.0534 H   0  0  0  0  0  0  0  0  0  0  0  0  # atno 6907 bound_to 6896
  152.2056  133.4868  159.5090 H   0  0  0  0  0  0  0  0  0  0  0  0  # atno 6908 bound_to 6896
  150.6964  134.1451  159.4162 H   0  0  0  0  0  0  0  0  0  0  0  0  # atno 6909 bound_to 6896
  146.2128  140.3151  142.8386 H   0  0  0  0  0  0  0  0  0  0  0  0  # atno 7974 bound_to 7965
  154.7026  140.0527  157.0473 H   0  0  0  0  0  0  0  0  0  0  0  0  # atno 8008 bound_to 7997
  155.0664  140.3195  155.4625 H   0  0  0  0  0  0  0  0  0  0  0  0  # atno 8009 bound_to 7997
  156.2765  140.2089  156.5791 H   0  0  0  0  0  0  0  0  0  0  0  0  # atno 8010 bound_to 7997
  139.7472  143.8572  152.2577 H   0  0  0  0  0  0  0  0  0  0  0  0  # atno 10167 bound_to 10162
  157.3710  131.0979  151.0828 H   0  0  0  0  0  0  0  0  0  0  0  0  # atno 10718 bound_to 10713
  153.6682  135.3335  155.3146 H   0  0  0  0  0  0  0  0  0  0  0  0  # atno 10763 bound_to 10752
  154.8497  135.4380  154.1733 H   0  0  0  0  0  0  0  0  0  0  0  0  # atno 10764 bound_to 10752
  153.2717  135.7001  153.7550 H   0  0  0  0  0  0  0  0  0  0  0  0  # atno 10765 bound_to 10752
  140.0847  134.9076  157.1556 H   0  0  0  0  0  0  0  0  0  0  0  0  # atno 11005 bound_to 11000
  144.8960  140.7583  143.5897 LP  0  0  0  0  0  0  0  0  0  0  0  0  # atno 17320 bound_to 7965
  145.3075  139.1829  143.4656 LP  0  0  0  0  0  0  0  0  0  0  0  0  # atno 17321 bound_to 7965
  139.8540  144.7150  150.9179 LP  0  0  0  0  0  0  0  0  0  0  0  0  # atno 17342 bound_to 10162
  140.7793  143.3875  151.1369 LP  0  0  0  0  0  0  0  0  0  0  0  0  # atno 17343 bound_to 10162
  157.1932  130.6361  149.5712 LP  0  0  0  0  0  0  0  0  0  0  0  0  # atno 17370 bound_to 10713
  155.9755  130.4715  150.6468 LP  0  0  0  0  0  0  0  0  0  0  0  0  # atno 17371 bound_to 10713
  140.3438  134.2675  155.7208 LP  0  0  0  0  0  0  0  0  0  0  0  0  # atno 17394 bound_to 11000
  141.2058  133.7849  157.0210 LP  0  0  0  0  0  0  0  0  0  0  0  0  # atno 17395 bound_to 11000

$$$$
