AV-unprocessed.smi:1411|AV-procd|sdf|5739|dock8
  -GOLD-   22720 5373D 1   1.00000     0.00000
 Structure written by MMmdl.
 43 44  0  0  0  0  0  0  0  0  3 V2000
  152.6530  139.8637  156.8407 O   0  0  0  0  0  0  0  0  0  0  0  0
  151.5323  140.1667  157.2527 C   0  0  0  0  0  0  0  0  0  0  0  0
  150.2815  139.4196  156.7679 C   0  0  0  0  0  0  0  0  0  0  0  0
  149.2354  140.3129  156.2427 N   0  0  0  0  0  0  0  0  0  0  0  0
  148.2544  140.7449  157.1570 C   0  0  0  0  0  0  0  0  0  0  0  0
  147.2515  141.5688  156.7958 C   0  0  0  0  0  0  0  0  0  0  0  0
  146.2558  142.0056  157.7500 N   0  3  0  0  0  0  0  0  0  0  0  0
  145.3261  142.7008  157.3534 O   0  0  0  0  0  0  0  0  0  0  0  0
  146.3689  141.6688  158.9249 O   0  5  0  0  0  0  0  0  0  0  0  0
  147.2049  142.0082  155.4146 C   0  0  0  0  0  0  0  0  0  0  0  0
  148.1430  141.6026  154.5362 C   0  0  0  0  0  0  0  0  0  0  0  0
  149.2363  140.7093  154.9330 C   0  0  0  0  0  0  0  0  0  0  0  0
  150.0999  140.3412  154.1366 O   0  0  0  0  0  0  0  0  0  0  0  0
  151.3174  141.1486  158.1418 N   0  0  0  0  0  0  0  0  0  0  0  0
  152.3447  141.9995  158.7393 C   0  0  0  0  0  0  0  0  0  0  0  0
  152.2528  141.8920  160.2772 C   0  0  0  0  0  0  0  0  0  0  0  0
  153.1079  142.9011  161.0699 C   0  0  0  0  0  0  0  0  0  0  0  0
  152.3147  144.0825  161.6657 C   0  0  0  0  0  0  0  0  0  0  0  0
  151.7531  145.1188  160.6705 C   0  0  0  0  0  0  0  0  0  0  0  0
  150.6028  144.6036  159.7811 C   0  0  0  0  0  0  0  0  0  0  0  0
  150.9958  144.2334  158.3377 C   0  0  0  0  0  0  0  0  0  0  0  0
  152.2993  143.4316  158.1542 C   0  0  0  0  0  0  0  0  0  0  0  0
  150.5831  138.6866  156.0178 H   0  0  0  0  0  0  0  0  0  0  0  0
  149.8801  138.8293  157.5934 H   0  0  0  0  0  0  0  0  0  0  0  0
  148.3822  140.3664  158.1612 H   0  0  0  0  0  0  0  0  0  0  0  0
  146.4188  142.6666  155.0751 H   0  0  0  0  0  0  0  0  0  0  0  0
  148.0896  141.9437  153.5127 H   0  0  0  0  0  0  0  0  0  0  0  0
  150.3648  141.3247  158.4266 H   0  0  0  0  0  0  0  0  0  0  0  0
  153.3178  141.5872  158.4659 H   0  0  0  0  0  0  0  0  0  0  0  0
  151.2174  141.9310  160.6139 H   0  0  0  0  0  0  0  0  0  0  0  0
  152.5824  140.8876  160.5473 H   0  0  0  0  0  0  0  0  0  0  0  0
  153.5511  142.3645  161.9096 H   0  0  0  0  0  0  0  0  0  0  0  0
  153.9577  143.2522  160.4848 H   0  0  0  0  0  0  0  0  0  0  0  0
  151.5041  143.6992  162.2868 H   0  0  0  0  0  0  0  0  0  0  0  0
  152.9771  144.6109  162.3523 H   0  0  0  0  0  0  0  0  0  0  0  0
  151.3602  145.9445  161.2649 H   0  0  0  0  0  0  0  0  0  0  0  0
  152.5508  145.5612  160.0739 H   0  0  0  0  0  0  0  0  0  0  0  0
  150.0868  143.7757  160.2643 H   0  0  0  0  0  0  0  0  0  0  0  0
  149.8471  145.3871  159.7141 H   0  0  0  0  0  0  0  0  0  0  0  0
  150.1666  143.7075  157.8637 H   0  0  0  0  0  0  0  0  0  0  0  0
  151.1068  145.1617  157.7762 H   0  0  0  0  0  0  0  0  0  0  0  0
  153.1456  144.0106  158.5192 H   0  0  0  0  0  0  0  0  0  0  0  0
  152.4827  143.3595  157.0814 H   0  0  0  0  0  0  0  0  0  0  0  0
  1  2  2  0  0  0  0
  2  3  1  0  0  0  0
  2 14  1  0  0  0  0
  3  4  1  0  0  0  0
  3 23  1  0  0  0  0
  3 24  1  0  0  0  0
  4 12  1  0  0  0  0
  4  5  1  0  0  0  0
  5  6  2  0  0  0  0
  5 25  1  0  0  0  0
  6  7  1  0  0  0  0
  6 10  1  0  0  0  0
  7  8  2  0  0  0  0
  7  9  1  0  0  0  0
 10 11  2  0  0  0  0
 10 26  1  0  0  0  0
 11 12  1  0  0  0  0
 11 27  1  0  0  0  0
 12 13  2  0  0  0  0
 14 15  1  0  0  0  0
 14 28  1  0  0  0  0
 15 22  1  0  0  0  0
 15 16  1  0  0  0  0
 15 29  1  0  0  0  0
 16 17  1  0  0  0  0
 16 30  1  0  0  0  0
 16 31  1  0  0  0  0
 17 18  1  0  0  0  0
 17 32  1  0  0  0  0
 17 33  1  0  0  0  0
 18 19  1  0  0  0  0
 18 34  1  0  0  0  0
 18 35  1  0  0  0  0
 19 20  1  0  0  0  0
 19 36  1  0  0  0  0
 19 37  1  0  0  0  0
 20 21  1  0  0  0  0
 20 38  1  0  0  0  0
 20 39  1  0  0  0  0
 21 22  1  0  0  0  0
 21 40  1  0  0  0  0
 21 41  1  0  0  0  0
 22 42  1  0  0  0  0
 22 43  1  0  0  0  0
M  CHG  1   7   1
M  CHG  1   9  -1
M  END
> <s_m_source_file>
AV-unprocessed.smi

> <i_m_source_file_index>
1411

> <i_lp_mmshare_version>
43012

> <i_f3d_flags>
0

> <s_epik_input>
Tz1jMVtjSF1bY0hdYyhbTitdKD1PKVtPLV0pW2NIXW4xW0NIMl1DKD1PKVtOSF1bQ0hdMltDSDJdW0NIMl1bQ0gyXVtDSDJdW0NIMl1bQ0gyXVtDSDJdMg==

> <s_epik_cmdline>
J2VwaWtfcHl0aG9uJywgJy1waCcsICc3LjAnLCAnLXRuJywgJzgnLCAnLW1hJywgJzIwMCcsICctbWV0YWxfYmluZGluZycsICctaW1hZScsICc8aW5maWxlLm1hZT4nLCAnLW9tYWUnLCAnPG91dGZpbGUubWFlPic=

> <r_lp_tautomer_probability>
1

> <r_epik_Ionization_Penalty>
2.02954e-08

> <r_epik_Ionization_Penalty_Charging>
8.05481e-11

> <r_epik_Ionization_Penalty_Neutral>
2.02148e-08

> <r_epik_State_Penalty>
-0

> <r_epik_Charging_Adjusted_Penalty>
8.05481e-11

> <i_epik_Tot_Q>
0

> <i_epik_Tot_abs_Q>
2

> <r_epik_Metal_State_Penalty>
-0

> <b_epik_Metal_Only>
0

> <s_lp_Force_Field>
OPLS_2005

> <r_lp_Energy>
31.3753

> <b_lp_Chiralities_Consistent>
1

> <s_lp_Variant>
AV-unprocessed.smi:1411-1

> <Gold.Version>
5.8.1

> <Gold.Id.Protein>
6NUR|6NUR_protein|mol2

> <Gold.PLP.Fitness>
46.4217

> <Gold.PLP.PLP>
-39.4045

> <Gold.PLP.part.hbond>
-3.0000

> <Gold.PLP.part.metal>
0.0000

> <Gold.PLP.part.buried>
-6.3525

> <Gold.PLP.part.nonpolar>
-31.9246

> <Gold.PLP.part.repulsive>
0.9817

> <Gold.PLP.ligand.clash>
0.0000

> <Gold.PLP.ligand.torsion>
0.5025

> <Gold.PLP.Chemscore.Hbond>
2.6571

> <Gold.PLP.Chemscore.CHOScore>
0.0000

> <Gold.PLP.Chemscore.Metal>
0.0000

> <Gold.Chemscore.Hbonds>
donor molecule, donor type, donor heavy atom, donor atom, acceptor molecule, acceptor atom, score
      P1  H  6934  6946       L1     9  0.77
      P1  H  7989  7998       L1    13  0.86
      P1  H  7997  8008       L1     1  1.00

> <Gold.PLP.Chemscore.Internal.Correction>
0.0508

> <Gold.Rescore>
     Score         DG    S(hbond)    S(metal)    S(lipo)     H(rot)  DE(clash)    DE(int)     intcor
     22.53     -23.12       2.76        0.00     105.63       1.54       0.09       0.51       ----

> <Gold.Chemscore.Fitness>
22.5293

> <Gold.Chemscore.DG>
-23.1235

> <Gold.Chemscore.ZeroCoef>
-5.4800

> <Gold.Chemscore.Hbond>
2.7621

> <Gold.Chemscore.Metal>
0.0000

> <Gold.Chemscore.Lipo>
105.6300

> <Gold.Chemscore.Internal_Hbond>
0.0000

> <Gold.Chemscore.DEClash>
0.0890

> <Gold.Chemscore.DEInternal>
0.5052

> <Gold.Chemscore.Rot>
1.5393

> <Gold.Chemscore.Internal.Correction>
   9.000000E+99

> <Gold.Chemscore.Hbonds>
donor molecule, donor type, donor heavy atom, donor atom, acceptor molecule, acceptor atom, score
      P1  H  6934  6946       L1     9  0.72
      P1  H  7989  7998       L1    13  0.85
      P1  H  7997  8008       L1     1  0.99

> <Gold.Chemscore.Hbond.Weighted>
-9.2255

> <Gold.Chemscore.Metal.Weighted>
-0.0000

> <Gold.Chemscore.Lipo.Weighted>
-12.3587

> <Gold.Chemscore.Internal_Hbond.Weighted>
0.0000

> <Gold.Chemscore.DEClash.Weighted>
0.0890

> <Gold.Chemscore.DEInternal.Weighted>
0.5052

> <Gold.Chemscore.Rot.Weighted>
3.9407

> <Gold.Chemscore.Internal.Correction.Weighted>
   9.000000E+99

> <Gold.Protein.RotatedTorsions>
[ 6907 6896 6895 6894 ] final   36.55 input  -60.11 | X-H torsion
[ 7974 7965 7964 7962 ] final  128.99 input  175.53 | X-H torsion
[ 8008 7997 7996 7995 ] final  -64.48 input   59.86 | X-H torsion
[ 10167 10162 10161 10158 ] final -124.01 input  -65.29 | X-H torsion
[ 10718 10713 10712 10709 ] final   39.63 input   66.30 | X-H torsion
[ 10763 10752 10751 10750 ] final  157.74 input  -60.55 | X-H torsion
[ 11005 11000 10999 10996 ] final  -25.30 input  -57.11 | X-H torsion

> <Gold.Protein.ActiveResidues>
 VAL166  LYS551  ARG553  GLY616  TRP617  ASP618  TYR619  PRO620  LYS621  CYS622 
 ASP623  PHE694  ASN695  SER759  ASP760  ASP761  ALA762  ILE779  LEU786  VAL792 
 PHE793  MET794  SER795  GLU796  ALA797  LYS798  CYS799  TRP800  GLU811  SER814 

> <Gold.Protein.RotatedAtoms>
  152.1312  134.9133  160.0558 H   0  0  0  0  0  0  0  0  0  0  0  0  # atno 6907 bound_to 6896
  152.0237  133.3904  159.4277 H   0  0  0  0  0  0  0  0  0  0  0  0  # atno 6908 bound_to 6896
  150.6856  134.3519  159.4956 H   0  0  0  0  0  0  0  0  0  0  0  0  # atno 6909 bound_to 6896
  145.0335  139.4025  143.5138 H   0  0  0  0  0  0  0  0  0  0  0  0  # atno 7974 bound_to 7965
  154.4614  140.0953  156.6903 H   0  0  0  0  0  0  0  0  0  0  0  0  # atno 8008 bound_to 7997
  155.4983  140.3473  155.4348 H   0  0  0  0  0  0  0  0  0  0  0  0  # atno 8009 bound_to 7997
  156.0877  140.1389  156.9621 H   0  0  0  0  0  0  0  0  0  0  0  0  # atno 8010 bound_to 7997
  139.9974  143.5576  152.2317 H   0  0  0  0  0  0  0  0  0  0  0  0  # atno 10167 bound_to 10162
  157.3728  130.7710  149.7132 H   0  0  0  0  0  0  0  0  0  0  0  0  # atno 10718 bound_to 10713
  154.2050  135.2788  155.2978 H   0  0  0  0  0  0  0  0  0  0  0  0  # atno 10763 bound_to 10752
  154.5824  135.5585  153.7201 H   0  0  0  0  0  0  0  0  0  0  0  0  # atno 10764 bound_to 10752
  153.0078  135.6348  154.2189 H   0  0  0  0  0  0  0  0  0  0  0  0  # atno 10765 bound_to 10752
  140.8925  133.7579  156.0439 H   0  0  0  0  0  0  0  0  0  0  0  0  # atno 11005 bound_to 11000
  146.3501  139.9897  142.8687 LP  0  0  0  0  0  0  0  0  0  0  0  0  # atno 17320 bound_to 7965
  145.1740  140.9735  143.4305 LP  0  0  0  0  0  0  0  0  0  0  0  0  # atno 17321 bound_to 7965
  139.6296  144.7642  151.2565 LP  0  0  0  0  0  0  0  0  0  0  0  0  # atno 17342 bound_to 10162
  140.7432  143.6503  150.8255 LP  0  0  0  0  0  0  0  0  0  0  0  0  # atno 17343 bound_to 10162
  155.9759  130.4083  150.3817 LP  0  0  0  0  0  0  0  0  0  0  0  0  # atno 17370 bound_to 10713
  157.1910  131.0415  151.2700 LP  0  0  0  0  0  0  0  0  0  0  0  0  # atno 17371 bound_to 10713
  140.8329  134.3157  157.5342 LP  0  0  0  0  0  0  0  0  0  0  0  0  # atno 17394 bound_to 11000
  139.8731  134.9373  156.3685 LP  0  0  0  0  0  0  0  0  0  0  0  0  # atno 17395 bound_to 11000

$$$$
