AV-unprocessed.smi:671|AV-procd|sdf|3288|dock7
  -GOLD-   22720 0243D 1   1.00000     0.00000
 Structure written by MMmdl.
 50 51  0  0  0  0  0  0  0  0  2 V2000
  147.4254  141.6258  154.0686 C   0  0  0  0  0  0  0  0  0  0  0  0
  148.6795  141.3395  154.8244 C   0  0  0  0  0  0  0  0  0  0  0  0
  149.2987  142.2288  155.6463 N   0  3  0  0  0  0  0  0  0  0  0  0
  150.4021  141.6814  156.1754 N   0  0  0  0  0  0  0  0  0  0  0  0
  151.2139  142.4813  157.0925 C   0  0  0  0  0  0  0  0  0  0  0  0
  150.5552  140.4030  155.7267 C   0  0  0  0  0  0  0  0  0  0  0  0
  151.6801  139.4981  156.1123 C   0  0  0  0  0  0  0  0  0  0  0  0
  149.4655  140.1819  154.8743 C   0  0  0  0  0  0  0  0  0  0  0  0
  149.1900  138.9064  154.1283 C   0  0  0  0  0  0  0  0  0  0  0  0
  148.0716  138.0545  154.7705 C   0  0  1  0  0  0  0  0  0  0  0  0
  146.8386  138.8891  155.1503 C   0  0  0  0  0  0  0  0  0  0  0  0
  147.6564  136.9892  153.8543 N   0  0  0  0  0  0  0  0  0  0  0  0
  146.7911  135.9837  154.0829 C   0  0  0  0  0  0  0  0  0  0  0  0
  146.2212  135.8531  155.1639 O   0  0  0  0  0  0  0  0  0  0  0  0
  146.6117  135.1559  153.0401 N   0  0  0  0  0  0  0  0  0  0  0  0
  145.7087  134.0100  152.9926 C   0  0  1  0  0  0  0  0  0  0  0  0
  144.3274  134.4359  152.4578 C   0  0  0  0  0  0  0  0  0  0  0  0
  144.1686  133.7598  151.0950 C   0  0  0  0  0  0  0  0  0  0  0  0
  145.0183  132.4981  151.2015 C   0  0  0  0  0  0  0  0  0  0  0  0
  146.2383  132.9384  152.0156 C   0  0  2  0  0  0  0  0  0  0  0  0
  146.9666  131.7775  152.7066 C   0  0  0  0  0  0  0  0  0  0  0  0
  147.5770  141.4448  153.0043 H   0  0  0  0  0  0  0  0  0  0  0  0
  147.1237  142.6650  154.2033 H   0  0  0  0  0  0  0  0  0  0  0  0
  146.6184  140.9831  154.4201 H   0  0  0  0  0  0  0  0  0  0  0  0
  152.2207  142.0669  157.1487 H   0  0  0  0  0  0  0  0  0  0  0  0
  150.7562  142.4631  158.0819 H   0  0  0  0  0  0  0  0  0  0  0  0
  151.2697  143.5093  156.7318 H   0  0  0  0  0  0  0  0  0  0  0  0
  151.5290  138.4962  155.7133 H   0  0  0  0  0  0  0  0  0  0  0  0
  151.7528  139.4271  157.1977 H   0  0  0  0  0  0  0  0  0  0  0  0
  152.6224  139.8836  155.7231 H   0  0  0  0  0  0  0  0  0  0  0  0
  148.9307  139.1209  153.0911 H   0  0  0  0  0  0  0  0  0  0  0  0
  150.1120  138.3263  154.0740 H   0  0  0  0  0  0  0  0  0  0  0  0
  148.4467  137.6018  155.6897 H   0  0  0  0  0  0  0  0  0  0  0  0
  147.0858  139.6535  155.8871 H   0  0  0  0  0  0  0  0  0  0  0  0
  146.0607  138.2615  155.5861 H   0  0  0  0  0  0  0  0  0  0  0  0
  146.4126  139.3888  154.2793 H   0  0  0  0  0  0  0  0  0  0  0  0
  148.0926  137.0023  152.9433 H   0  0  0  0  0  0  0  0  0  0  0  0
  147.1379  135.3441  152.2000 H   0  0  0  0  0  0  0  0  0  0  0  0
  145.5751  133.5751  153.9850 H   0  0  0  0  0  0  0  0  0  0  0  0
  143.5529  134.0722  153.1345 H   0  0  0  0  0  0  0  0  0  0  0  0
  144.2052  135.5179  152.3876 H   0  0  0  0  0  0  0  0  0  0  0  0
  143.1275  133.5466  150.8509 H   0  0  0  0  0  0  0  0  0  0  0  0
  144.5685  134.4063  150.3133 H   0  0  0  0  0  0  0  0  0  0  0  0
  144.4624  131.7292  151.7405 H   0  0  0  0  0  0  0  0  0  0  0  0
  145.2887  132.0913  150.2265 H   0  0  0  0  0  0  0  0  0  0  0  0
  146.9332  133.4084  151.3166 H   0  0  0  0  0  0  0  0  0  0  0  0
  146.3108  131.2560  153.4045 H   0  0  0  0  0  0  0  0  0  0  0  0
  147.8303  132.1376  153.2665 H   0  0  0  0  0  0  0  0  0  0  0  0
  147.3228  131.0496  151.9772 H   0  0  0  0  0  0  0  0  0  0  0  0
  149.0263  143.1777  155.8698 H   0  0  0  0  0  0  0  0  0  0  0  0
  1  2  1  0  0  0  0
  1 22  1  0  0  0  0
  1 23  1  0  0  0  0
  1 24  1  0  0  0  0
  2  8  1  0  0  0  0
  2  3  2  0  0  0  0
  3  4  1  0  0  0  0
  3 50  1  0  0  0  0
  4  5  1  0  0  0  0
  4  6  1  0  0  0  0
  5 25  1  0  0  0  0
  5 26  1  0  0  0  0
  5 27  1  0  0  0  0
  6  7  1  0  0  0  0
  6  8  2  0  0  0  0
  7 28  1  0  0  0  0
  7 29  1  0  0  0  0
  7 30  1  0  0  0  0
  8  9  1  0  0  0  0
  9 10  1  0  0  0  0
  9 31  1  0  0  0  0
  9 32  1  0  0  0  0
 10 11  1  0  0  0  0
 10 12  1  0  0  0  0
 10 33  1  0  0  0  0
 11 34  1  0  0  0  0
 11 35  1  0  0  0  0
 11 36  1  0  0  0  0
 12 13  1  0  0  0  0
 12 37  1  0  0  0  0
 13 14  2  0  0  0  0
 13 15  1  0  0  0  0
 15 16  1  0  0  0  0
 15 38  1  0  0  0  0
 16 20  1  0  0  0  0
 16 17  1  0  0  0  0
 16 39  1  0  0  0  0
 17 18  1  0  0  0  0
 17 40  1  0  0  0  0
 17 41  1  0  0  0  0
 18 19  1  0  0  0  0
 18 42  1  0  0  0  0
 18 43  1  0  0  0  0
 19 20  1  0  0  0  0
 19 44  1  0  0  0  0
 19 45  1  0  0  0  0
 20 21  1  0  0  0  0
 20 46  1  0  0  0  0
 21 47  1  0  0  0  0
 21 48  1  0  0  0  0
 21 49  1  0  0  0  0
M  CHG  1   3   1
M  END
> <s_m_source_file>
AV-unprocessed.smi

> <i_m_source_file_index>
671

> <i_lp_mmshare_version>
43012

> <i_f3d_flags>
0

> <s_epik_input>
W0NIM11jMW5uKFtDSDNdKWMoW0NIM10pYzFbQ0gyXVtDQEhdKFtDSDNdKVtOSF1DKD1PKVtOSF1bQ0BASF0yW0NIMl1bQ0gyXVtDSDJdW0NASF0yW0NIM10=

> <s_epik_cmdline>
J2VwaWtfcHl0aG9uJywgJy1waCcsICc3LjAnLCAnLXRuJywgJzgnLCAnLW1hJywgJzIwMCcsICctbWV0YWxfYmluZGluZycsICctaW1hZScsICc8aW5maWxlLm1hZT4nLCAnLW9tYWUnLCAnPG91dGZpbGUubWFlPic=

> <r_lp_tautomer_probability>
1

> <r_epik_Ionization_Penalty>
2.28705

> <r_epik_Ionization_Penalty_Charging>
2.28698

> <r_epik_Ionization_Penalty_Neutral>
6.23157e-05

> <r_epik_State_Penalty>
2.43671

> <r_epik_Charging_Adjusted_Penalty>
4.72369

> <i_epik_Tot_Q>
1

> <i_epik_Tot_abs_Q>
1

> <r_epik_Metal_State_Penalty>
2.44911

> <b_epik_Metal_Only>
0

> <s_lp_Force_Field>
OPLS_2005

> <r_lp_Energy>
34.8229

> <b_lp_Chiralities_Consistent>
1

> <s_lp_Variant>
AV-unprocessed.smi:671-16

> <Gold.Version>
5.8.1

> <Gold.Id.Protein>
6NUR|6NUR_protein|mol2

> <Gold.PLP.Fitness>
45.0227

> <Gold.PLP.PLP>
-35.2276

> <Gold.PLP.part.hbond>
-2.8139

> <Gold.PLP.part.metal>
0.0000

> <Gold.PLP.part.buried>
-5.0824

> <Gold.PLP.part.nonpolar>
-27.4601

> <Gold.PLP.part.repulsive>
0.2130

> <Gold.PLP.ligand.clash>
0.0000

> <Gold.PLP.ligand.torsion>
0.7018

> <Gold.PLP.Chemscore.Hbond>
3.7200

> <Gold.PLP.Chemscore.CHOScore>
0.0000

> <Gold.PLP.Chemscore.Metal>
0.0000

> <Gold.Chemscore.Hbonds>
donor molecule, donor type, donor heavy atom, donor atom, acceptor molecule, acceptor atom, score
      L1  H     3    50       P1  8028  2.00
      L1  H    12    37       P1  7948  0.96
      L1  H    15    38       P1  7948  0.69

> <Gold.PLP.Chemscore.Internal.Correction>
0.0387

> <Gold.Rescore>
     Score         DG    S(hbond)    S(metal)    S(lipo)     H(rot)  DE(clash)    DE(int)     intcor
     19.52     -20.31       2.83        0.00      78.90       1.51       0.03       0.77       ----

> <Gold.Chemscore.Fitness>
19.5197

> <Gold.Chemscore.DG>
-20.3145

> <Gold.Chemscore.ZeroCoef>
-5.4800

> <Gold.Chemscore.Hbond>
2.8317

> <Gold.Chemscore.Metal>
0.0000

> <Gold.Chemscore.Lipo>
78.8994

> <Gold.Chemscore.Internal_Hbond>
0.0000

> <Gold.Chemscore.DEClash>
0.0275

> <Gold.Chemscore.DEInternal>
0.7673

> <Gold.Chemscore.Rot>
1.5057

> <Gold.Chemscore.Internal.Correction>
   9.000000E+99

> <Gold.Chemscore.Hbonds>
donor molecule, donor type, donor heavy atom, donor atom, acceptor molecule, acceptor atom, score
      L1  H     3    50       P1  8028  0.95
      L1  H    12    37       P1  7948  0.90
      L1  H    15    38       P1  7948  0.64

> <Gold.Chemscore.Hbond.Weighted>
-9.4579

> <Gold.Chemscore.Metal.Weighted>
-0.0000

> <Gold.Chemscore.Lipo.Weighted>
-9.2312

> <Gold.Chemscore.Internal_Hbond.Weighted>
0.0000

> <Gold.Chemscore.DEClash.Weighted>
0.0275

> <Gold.Chemscore.DEInternal.Weighted>
0.7673

> <Gold.Chemscore.Rot.Weighted>
3.8547

> <Gold.Chemscore.Internal.Correction.Weighted>
   9.000000E+99

> <Gold.Protein.RotatedTorsions>
[ 6907 6896 6895 6894 ] final -132.23 input  -60.11 | X-H torsion
[ 7974 7965 7964 7962 ] final -178.63 input  175.53 | X-H torsion
[ 8008 7997 7996 7995 ] final -103.52 input   59.86 | X-H torsion
[ 10167 10162 10161 10158 ] final   77.52 input  -65.29 | X-H torsion
[ 10718 10713 10712 10709 ] final   23.63 input   66.30 | X-H torsion
[ 10763 10752 10751 10750 ] final  104.57 input  -60.55 | X-H torsion
[ 11005 11000 10999 10996 ] final   43.03 input  -57.11 | X-H torsion

> <Gold.Protein.ActiveResidues>
 VAL166  LYS551  ARG553  GLY616  TRP617  ASP618  TYR619  PRO620  LYS621  CYS622 
 ASP623  PHE694  ASN695  SER759  ASP760  ASP761  ALA762  ILE779  LEU786  VAL792 
 PHE793  MET794  SER795  GLU796  ALA797  LYS798  CYS799  TRP800  GLU811  SER814 

> <Gold.Protein.RotatedAtoms>
  150.9600  133.6456  159.2755 H   0  0  0  0  0  0  0  0  0  0  0  0  # atno 6907 bound_to 6896
  151.3782  135.0934  159.9497 H   0  0  0  0  0  0  0  0  0  0  0  0  # atno 6908 bound_to 6896
  152.5144  133.9140  159.7556 H   0  0  0  0  0  0  0  0  0  0  0  0  # atno 6909 bound_to 6896
  144.7132  140.0840  143.6424 H   0  0  0  0  0  0  0  0  0  0  0  0  # atno 7974 bound_to 7965
  154.8721  140.0422  157.1731 H   0  0  0  0  0  0  0  0  0  0  0  0  # atno 8008 bound_to 7997
  154.8728  140.2961  155.5450 H   0  0  0  0  0  0  0  0  0  0  0  0  # atno 8009 bound_to 7997
  156.2999  140.2426  156.3719 H   0  0  0  0  0  0  0  0  0  0  0  0  # atno 8010 bound_to 7997
  139.9807  144.5828  150.7903 H   0  0  0  0  0  0  0  0  0  0  0  0  # atno 10167 bound_to 10162
  157.1688  130.6750  149.6070 H   0  0  0  0  0  0  0  0  0  0  0  0  # atno 10718 bound_to 10713
  153.3677  135.3939  155.1765 H   0  0  0  0  0  0  0  0  0  0  0  0  # atno 10763 bound_to 10752
  154.8689  135.3695  154.5018 H   0  0  0  0  0  0  0  0  0  0  0  0  # atno 10764 bound_to 10752
  153.5483  135.7083  153.5664 H   0  0  0  0  0  0  0  0  0  0  0  0  # atno 10765 bound_to 10752
  140.1683  134.4254  155.8273 H   0  0  0  0  0  0  0  0  0  0  0  0  # atno 11005 bound_to 11000
  145.9677  139.2847  143.1117 LP  0  0  0  0  0  0  0  0  0  0  0  0  # atno 17320 bound_to 7965
  145.9151  140.9154  143.0434 LP  0  0  0  0  0  0  0  0  0  0  0  0  # atno 17321 bound_to 7965
  140.7490  143.2931  151.3276 LP  0  0  0  0  0  0  0  0  0  0  0  0  # atno 17342 bound_to 10162
  139.6412  144.0536  152.2555 LP  0  0  0  0  0  0  0  0  0  0  0  0  # atno 17343 bound_to 10162
  155.9742  130.4686  150.6366 LP  0  0  0  0  0  0  0  0  0  0  0  0  # atno 17370 bound_to 10713
  157.4063  131.0817  151.1262 LP  0  0  0  0  0  0  0  0  0  0  0  0  # atno 17371 bound_to 10713
  141.2215  133.6944  156.7718 LP  0  0  0  0  0  0  0  0  0  0  0  0  # atno 17394 bound_to 11000
  140.2408  134.8615  157.3571 LP  0  0  0  0  0  0  0  0  0  0  0  0  # atno 17395 bound_to 11000

$$$$
