AV-unprocessed.smi:1072|AV-procd|sdf|4687|dock2
  -GOLD-   22720 3203D 1   1.00000     0.00000
 Structure written by MMmdl.
 45 46  0  0  0  0  0  0  0  0  2 V2000
  153.0768  138.6716  154.3998 C   0  0  0  0  0  0  0  0  0  0  0  0
  152.1080  139.4235  155.2872 C   0  0  0  0  0  0  0  0  0  0  0  0
  151.1592  140.0920  154.7511 N   0  0  0  0  0  0  0  0  0  0  0  0
  150.2558  140.7897  155.5707 C   0  0  0  0  0  0  0  0  0  0  0  0
  149.1618  141.5580  154.8498 C   0  0  0  0  0  0  0  0  0  0  0  0
  150.3714  140.7648  156.9295 C   0  0  0  0  0  0  0  0  0  0  0  0
  149.4141  141.5072  157.8620 C   0  0  0  0  0  0  0  0  0  0  0  0
  150.0064  142.6996  158.6168 C   0  0  0  0  0  0  0  0  0  0  0  0
  149.2681  143.5575  159.0998 O   0  0  0  0  0  0  0  0  0  0  0  0
  151.3481  142.7312  158.6994 N   0  0  0  0  0  0  0  0  0  0  0  0
  152.2053  143.7399  159.3387 C   0  0  1  0  0  0  0  0  0  0  0  0
  151.9706  145.1173  158.6816 C   0  0  0  0  0  0  0  0  0  0  0  0
  151.9531  143.8209  160.8675 C   0  0  0  0  0  0  0  0  0  0  0  0
  152.3076  142.5144  161.6002 C   0  0  0  0  0  0  0  0  0  0  0  0
  153.7714  142.1089  161.3503 C   0  0  1  0  0  0  0  0  0  0  0  0
  154.1228  140.7997  162.0711 C   0  0  0  0  0  0  0  0  0  0  0  0
  154.0519  142.0150  159.8392 C   0  0  0  0  0  0  0  0  0  0  0  0
  153.6767  143.3186  159.1077 C   0  0  0  0  0  0  0  0  0  0  0  0
  151.4763  139.9794  157.5080 C   0  0  0  0  0  0  0  0  0  0  0  0
  151.6187  139.9123  158.7283 O   0  0  0  0  0  0  0  0  0  0  0  0
  152.3168  139.3395  156.6455 N   0  5  0  0  0  0  0  0  0  0  0  0
  152.7113  138.6220  153.3733 H   0  0  0  0  0  0  0  0  0  0  0  0
  153.2124  137.6518  154.7617 H   0  0  0  0  0  0  0  0  0  0  0  0
  154.0469  139.1690  154.3963 H   0  0  0  0  0  0  0  0  0  0  0  0
  149.2548  142.6269  155.0425 H   0  0  0  0  0  0  0  0  0  0  0  0
  148.1772  141.2284  155.1818 H   0  0  0  0  0  0  0  0  0  0  0  0
  149.2181  141.4060  153.7714 H   0  0  0  0  0  0  0  0  0  0  0  0
  148.5323  141.8515  157.3213 H   0  0  0  0  0  0  0  0  0  0  0  0
  149.0282  140.7916  158.5888 H   0  0  0  0  0  0  0  0  0  0  0  0
  151.8384  141.9636  158.2636 H   0  0  0  0  0  0  0  0  0  0  0  0
  152.6641  145.8634  159.0707 H   0  0  0  0  0  0  0  0  0  0  0  0
  150.9642  145.4935  158.8656 H   0  0  0  0  0  0  0  0  0  0  0  0
  152.1127  145.0705  157.6013 H   0  0  0  0  0  0  0  0  0  0  0  0
  152.5551  144.6279  161.2871 H   0  0  0  0  0  0  0  0  0  0  0  0
  150.9191  144.0908  161.0816 H   0  0  0  0  0  0  0  0  0  0  0  0
  152.1357  142.6420  162.6695 H   0  0  0  0  0  0  0  0  0  0  0  0
  151.6380  141.7161  161.2777 H   0  0  0  0  0  0  0  0  0  0  0  0
  154.4107  142.8920  161.7606 H   0  0  0  0  0  0  0  0  0  0  0  0
  153.5153  139.9708  161.7065 H   0  0  0  0  0  0  0  0  0  0  0  0
  153.9569  140.8863  163.1452 H   0  0  0  0  0  0  0  0  0  0  0  0
  155.1701  140.5368  161.9200 H   0  0  0  0  0  0  0  0  0  0  0  0
  155.1076  141.7979  159.6721 H   0  0  0  0  0  0  0  0  0  0  0  0
  153.4992  141.1775  159.4114 H   0  0  0  0  0  0  0  0  0  0  0  0
  153.8724  143.2056  158.0403 H   0  0  0  0  0  0  0  0  0  0  0  0
  154.3417  144.1127  159.4505 H   0  0  0  0  0  0  0  0  0  0  0  0
  1  2  1  0  0  0  0
  1 22  1  0  0  0  0
  1 23  1  0  0  0  0
  1 24  1  0  0  0  0
  2 21  1  0  0  0  0
  2  3  2  0  0  0  0
  3  4  1  0  0  0  0
  4  5  1  0  0  0  0
  4  6  2  0  0  0  0
  5 25  1  0  0  0  0
  5 26  1  0  0  0  0
  5 27  1  0  0  0  0
  6  7  1  0  0  0  0
  6 19  1  0  0  0  0
  7  8  1  0  0  0  0
  7 28  1  0  0  0  0
  7 29  1  0  0  0  0
  8  9  2  0  0  0  0
  8 10  1  0  0  0  0
 10 11  1  0  0  0  0
 10 30  1  0  0  0  0
 11 18  1  0  0  0  0
 11 12  1  0  0  0  0
 11 13  1  0  0  0  0
 12 31  1  0  0  0  0
 12 32  1  0  0  0  0
 12 33  1  0  0  0  0
 13 14  1  0  0  0  0
 13 34  1  0  0  0  0
 13 35  1  0  0  0  0
 14 15  1  0  0  0  0
 14 36  1  0  0  0  0
 14 37  1  0  0  0  0
 15 16  1  0  0  0  0
 15 17  1  0  0  0  0
 15 38  1  0  0  0  0
 16 39  1  0  0  0  0
 16 40  1  0  0  0  0
 16 41  1  0  0  0  0
 17 18  1  0  0  0  0
 17 42  1  0  0  0  0
 17 43  1  0  0  0  0
 18 44  1  0  0  0  0
 18 45  1  0  0  0  0
 19 20  2  0  0  0  0
 19 21  1  0  0  0  0
M  CHG  1  21  -1
M  END
> <s_m_source_file>
AV-unprocessed.smi

> <i_m_source_file_index>
1072

> <i_lp_mmshare_version>
43012

> <i_f3d_flags>
0

> <s_epik_input>
W0NIM11jMW5jKFtDSDNdKWMoYyg9TylbbkhdMSlbQ0gyXUMoPU8pW05IXVtDQEBdMihbQ0gzXSlbQ0gyXVtDSDJdW0NAQEhdKFtDSDNdKVtDSDJdW0NIMl0y

> <s_epik_cmdline>
J2VwaWtfcHl0aG9uJywgJy1waCcsICc3LjAnLCAnLXRuJywgJzgnLCAnLW1hJywgJzIwMCcsICctbWV0YWxfYmluZGluZycsICctaW1hZScsICc8aW5maWxlLm1hZT4nLCAnLW9tYWUnLCAnPG91dGZpbGUubWFlPic=

> <r_lp_tautomer_probability>
0.839158

> <r_epik_Ionization_Penalty>
6.73882

> <r_epik_Ionization_Penalty_Charging>
8.02239e-08

> <r_epik_Ionization_Penalty_Neutral>
6.73882

> <r_epik_State_Penalty>
4.55873

> <r_epik_Charging_Adjusted_Penalty>
4.55873

> <i_epik_Tot_Q>
-1

> <i_epik_Tot_abs_Q>
1

> <r_epik_Metal_State_Penalty>
0.872514

> <b_epik_Metal_Only>
1

> <s_lp_Force_Field>
OPLS_2005

> <r_lp_Energy>
14.8033

> <b_lp_Chiralities_Consistent>
1

> <s_lp_Variant>
AV-unprocessed.smi:1072-5

> <Gold.Version>
5.8.1

> <Gold.Id.Protein>
6NUR|6NUR_protein|mol2

> <Gold.PLP.Fitness>
47.0667

> <Gold.PLP.PLP>
-44.7581

> <Gold.PLP.part.hbond>
-1.3723

> <Gold.PLP.part.metal>
0.0000

> <Gold.PLP.part.buried>
-6.8495

> <Gold.PLP.part.nonpolar>
-37.7437

> <Gold.PLP.part.repulsive>
0.2902

> <Gold.PLP.ligand.clash>
0.0000

> <Gold.PLP.ligand.torsion>
0.3480

> <Gold.PLP.Chemscore.Hbond>
1.0000

> <Gold.PLP.Chemscore.CHOScore>
0.0000

> <Gold.PLP.Chemscore.Metal>
0.0000

> <Gold.Chemscore.Hbonds>
donor molecule, donor type, donor heavy atom, donor atom, acceptor molecule, acceptor atom, score
      P1  H  7989  7998       L1     3  1.00

> <Gold.PLP.Chemscore.Internal.Correction>
0.0047

> <Gold.Rescore>
     Score         DG    S(hbond)    S(metal)    S(lipo)     H(rot)  DE(clash)    DE(int)     intcor
     16.75     -19.38       0.81        0.00     126.94       1.43       0.07       2.56       ----

> <Gold.Chemscore.Fitness>
16.7467

> <Gold.Chemscore.DG>
-19.3784

> <Gold.Chemscore.ZeroCoef>
-5.4800

> <Gold.Chemscore.Hbond>
0.8134

> <Gold.Chemscore.Metal>
0.0000

> <Gold.Chemscore.Lipo>
126.9440

> <Gold.Chemscore.Internal_Hbond>
0.0000

> <Gold.Chemscore.DEClash>
0.0708

> <Gold.Chemscore.DEInternal>
2.5609

> <Gold.Chemscore.Rot>
1.4339

> <Gold.Chemscore.Internal.Correction>
   9.000000E+99

> <Gold.Chemscore.Hbonds>
donor molecule, donor type, donor heavy atom, donor atom, acceptor molecule, acceptor atom, score
      P1  H  7989  7998       L1     3  0.71

> <Gold.Chemscore.Hbond.Weighted>
-2.7167

> <Gold.Chemscore.Metal.Weighted>
-0.0000

> <Gold.Chemscore.Lipo.Weighted>
-14.8524

> <Gold.Chemscore.Internal_Hbond.Weighted>
0.0000

> <Gold.Chemscore.DEClash.Weighted>
0.0708

> <Gold.Chemscore.DEInternal.Weighted>
2.5609

> <Gold.Chemscore.Rot.Weighted>
3.6708

> <Gold.Chemscore.Internal.Correction.Weighted>
   9.000000E+99

> <Gold.Protein.RotatedTorsions>
[ 6907 6896 6895 6894 ] final   88.15 input  -60.11 | X-H torsion
[ 7974 7965 7964 7962 ] final  -23.52 input  175.53 | X-H torsion
[ 8008 7997 7996 7995 ] final  117.15 input   59.86 | X-H torsion
[ 10167 10162 10161 10158 ] final   -9.81 input  -65.29 | X-H torsion
[ 10718 10713 10712 10709 ] final  -91.59 input   66.30 | X-H torsion
[ 10763 10752 10751 10750 ] final  175.96 input  -60.55 | X-H torsion
[ 11005 11000 10999 10996 ] final  -86.02 input  -57.11 | X-H torsion

> <Gold.Protein.ActiveResidues>
 VAL166  LYS551  ARG553  GLY616  TRP617  ASP618  TYR619  PRO620  LYS621  CYS622 
 ASP623  PHE694  ASN695  SER759  ASP760  ASP761  ALA762  ILE779  LEU786  VAL792 
 PHE793  MET794  SER795  GLU796  ALA797  LYS798  CYS799  TRP800  GLU811  SER814 

> <Gold.Protein.RotatedAtoms>
  152.5421  134.2165  159.8770 H   0  0  0  0  0  0  0  0  0  0  0  0  # atno 6907 bound_to 6896
  151.2145  133.4530  159.2606 H   0  0  0  0  0  0  0  0  0  0  0  0  # atno 6908 bound_to 6896
  151.0865  134.9903  159.8437 H   0  0  0  0  0  0  0  0  0  0  0  0  # atno 6909 bound_to 6896
  146.1611  140.4627  142.8571 H   0  0  0  0  0  0  0  0  0  0  0  0  # atno 7974 bound_to 7965
  156.2479  140.2902  156.0634 H   0  0  0  0  0  0  0  0  0  0  0  0  # atno 8008 bound_to 7997
  155.1750  140.0403  157.2888 H   0  0  0  0  0  0  0  0  0  0  0  0  # atno 8009 bound_to 7997
  154.6299  140.2497  155.7453 H   0  0  0  0  0  0  0  0  0  0  0  0  # atno 8010 bound_to 7997
  140.7097  143.5816  150.8986 H   0  0  0  0  0  0  0  0  0  0  0  0  # atno 10167 bound_to 10162
  155.9995  130.4954  150.5497 H   0  0  0  0  0  0  0  0  0  0  0  0  # atno 10718 bound_to 10713
  154.4746  135.2772  155.1617 H   0  0  0  0  0  0  0  0  0  0  0  0  # atno 10763 bound_to 10752
  154.3352  135.6182  153.5573 H   0  0  0  0  0  0  0  0  0  0  0  0  # atno 10764 bound_to 10752
  152.9868  135.5775  154.5134 H   0  0  0  0  0  0  0  0  0  0  0  0  # atno 10765 bound_to 10752
  141.1635  133.7431  156.9100 H   0  0  0  0  0  0  0  0  0  0  0  0  # atno 11005 bound_to 11000
  144.8028  140.6245  143.6466 LP  0  0  0  0  0  0  0  0  0  0  0  0  # atno 17320 bound_to 7965
  145.4586  139.1515  143.3879 LP  0  0  0  0  0  0  0  0  0  0  0  0  # atno 17321 bound_to 7965
  139.9542  143.6237  152.3020 LP  0  0  0  0  0  0  0  0  0  0  0  0  # atno 17342 bound_to 10162
  139.6766  144.7658  151.1684 LP  0  0  0  0  0  0  0  0  0  0  0  0  # atno 17343 bound_to 10162
  157.3422  131.0719  151.1779 LP  0  0  0  0  0  0  0  0  0  0  0  0  # atno 17370 bound_to 10713
  157.2624  130.6665  149.5980 LP  0  0  0  0  0  0  0  0  0  0  0  0  # atno 17371 bound_to 10713
  140.1523  134.9222  157.2609 LP  0  0  0  0  0  0  0  0  0  0  0  0  # atno 17394 bound_to 11000
  140.2708  134.3462  155.7374 LP  0  0  0  0  0  0  0  0  0  0  0  0  # atno 17395 bound_to 11000

$$$$
