AV-unprocessed.smi:463|AV-procd|sdf|2634|dock5
  -GOLD-   2262023 43D 1   1.00000     0.00000
 Structure written by MMmdl.
 42 44  0  0  0  0  0  0  0  0  1 V2000
  154.7192  140.6670  161.9795 C   0  0  0  0  0  0  0  0  0  0  0  0
  153.6595  141.6108  161.4498 C   0  0  0  0  0  0  0  0  0  0  0  0
  153.1747  142.6581  162.2579 C   0  0  0  0  0  0  0  0  0  0  0  0
  152.1856  143.5278  161.7624 C   0  0  0  0  0  0  0  0  0  0  0  0
  151.6777  143.3547  160.4602 C   0  0  0  0  0  0  0  0  0  0  0  0
  152.1588  142.3053  159.6376 C   0  0  0  0  0  0  0  0  0  0  0  0
  151.7217  142.0637  158.3538 O   0  0  0  0  0  0  0  0  0  0  0  0
  150.4036  142.4618  158.0013 C   0  0  0  0  0  0  0  0  0  0  0  0
  150.3142  142.6311  156.4786 C   0  0  0  0  0  0  0  0  0  0  0  0
  149.8098  141.4295  155.8289 N   0  0  0  0  0  0  0  0  0  0  0  0
  148.5315  141.1100  155.4985 C   0  0  0  0  0  0  0  0  0  0  0  0
  147.3666  142.0195  155.7645 C   0  0  0  0  0  0  0  0  0  0  0  0
  146.3641  142.0823  154.6011 C   0  0  0  0  0  0  0  0  0  0  0  0
  145.8090  140.8104  154.3400 O   0  0  0  0  0  0  0  0  0  0  0  0
  148.3664  139.9253  154.9075 N   0  0  0  0  0  0  0  0  0  0  0  0
  149.6529  139.4262  154.8572 C   0  0  0  0  0  0  0  0  0  0  0  0
  150.1447  138.2023  154.3492 C   0  0  0  0  0  0  0  0  0  0  0  0
  151.5222  137.9061  154.4109 C   0  0  0  0  0  0  0  0  0  0  0  0
  152.4255  138.8270  154.9801 C   0  0  0  0  0  0  0  0  0  0  0  0
  151.9562  140.0524  155.4909 C   0  0  0  0  0  0  0  0  0  0  0  0
  150.5804  140.3434  155.4263 C   0  0  0  0  0  0  0  0  0  0  0  0
  153.1494  141.4406  160.1466 C   0  0  0  0  0  0  0  0  0  0  0  0
  155.3379  141.1567  162.7321 H   0  0  0  0  0  0  0  0  0  0  0  0
  155.3719  140.3267  161.1751 H   0  0  0  0  0  0  0  0  0  0  0  0
  154.2509  139.7940  162.4344 H   0  0  0  0  0  0  0  0  0  0  0  0
  153.5578  142.7970  163.2581 H   0  0  0  0  0  0  0  0  0  0  0  0
  151.8144  144.3300  162.3829 H   0  0  0  0  0  0  0  0  0  0  0  0
  150.9194  144.0410  160.1156 H   0  0  0  0  0  0  0  0  0  0  0  0
  149.6836  141.7106  158.3289 H   0  0  0  0  0  0  0  0  0  0  0  0
  150.1507  143.4063  158.4859 H   0  0  0  0  0  0  0  0  0  0  0  0
  149.6857  143.4832  156.2242 H   0  0  0  0  0  0  0  0  0  0  0  0
  151.3010  142.8539  156.0719 H   0  0  0  0  0  0  0  0  0  0  0  0
  146.8503  141.6380  156.6460 H   0  0  0  0  0  0  0  0  0  0  0  0
  147.7045  143.0177  156.0403 H   0  0  0  0  0  0  0  0  0  0  0  0
  145.5700  142.8013  154.8049 H   0  0  0  0  0  0  0  0  0  0  0  0
  146.8730  142.4140  153.6958 H   0  0  0  0  0  0  0  0  0  0  0  0
  145.0373  140.9231  153.8060 H   0  0  0  0  0  0  0  0  0  0  0  0
  149.4606  137.4895  153.9130 H   0  0  0  0  0  0  0  0  0  0  0  0
  151.8873  136.9672  154.0206 H   0  0  0  0  0  0  0  0  0  0  0  0
  153.4789  138.5921  155.0247 H   0  0  0  0  0  0  0  0  0  0  0  0
  152.6451  140.7596  155.9285 H   0  0  0  0  0  0  0  0  0  0  0  0
  153.5195  140.6370  159.5267 H   0  0  0  0  0  0  0  0  0  0  0  0
  1  2  1  0  0  0  0
  1 23  1  0  0  0  0
  1 24  1  0  0  0  0
  1 25  1  0  0  0  0
  2 22  1  0  0  0  0
  2  3  2  0  0  0  0
  3  4  1  0  0  0  0
  3 26  1  0  0  0  0
  4  5  2  0  0  0  0
  4 27  1  0  0  0  0
  5  6  1  0  0  0  0
  5 28  1  0  0  0  0
  6  7  1  0  0  0  0
  6 22  2  0  0  0  0
  7  8  1  0  0  0  0
  8  9  1  0  0  0  0
  8 29  1  0  0  0  0
  8 30  1  0  0  0  0
  9 10  1  0  0  0  0
  9 31  1  0  0  0  0
  9 32  1  0  0  0  0
 10 21  1  0  0  0  0
 10 11  1  0  0  0  0
 11 12  1  0  0  0  0
 11 15  2  0  0  0  0
 12 13  1  0  0  0  0
 12 33  1  0  0  0  0
 12 34  1  0  0  0  0
 13 14  1  0  0  0  0
 13 35  1  0  0  0  0
 13 36  1  0  0  0  0
 14 37  1  0  0  0  0
 15 16  1  0  0  0  0
 16 21  2  0  0  0  0
 16 17  1  0  0  0  0
 17 18  2  0  0  0  0
 17 38  1  0  0  0  0
 18 19  1  0  0  0  0
 18 39  1  0  0  0  0
 19 20  2  0  0  0  0
 19 40  1  0  0  0  0
 20 21  1  0  0  0  0
 20 41  1  0  0  0  0
 22 42  1  0  0  0  0
M  END
> <s_m_source_file>
AV-unprocessed.smi

> <i_m_source_file_index>
463

> <i_lp_mmshare_version>
43012

> <i_f3d_flags>
0

> <s_epik_input>
W0NIM11jMVtjSF1bY0hdW2NIXWMoW2NIXTEpT1tDSDJdW0NIMl1uKGMobjIpW0NIMl1bQ0gyXVtPSF0pYyhjMjMpW2NIXVtjSF1bY0hdW2NIXTM=

> <s_epik_cmdline>
J2VwaWtfcHl0aG9uJywgJy1waCcsICc3LjAnLCAnLXRuJywgJzgnLCAnLW1hJywgJzIwMCcsICctbWV0YWxfYmluZGluZycsICctaW1hZScsICc8aW5maWxlLm1hZT4nLCAnLW9tYWUnLCAnPG91dGZpbGUubWFlPic=

> <r_lp_tautomer_probability>
1

> <r_epik_Ionization_Penalty>
0.206757

> <r_epik_Ionization_Penalty_Charging>
0

> <r_epik_Ionization_Penalty_Neutral>
0.206757

> <r_epik_State_Penalty>
0.196743

> <r_epik_Charging_Adjusted_Penalty>
0.196743

> <i_epik_Tot_Q>
0

> <i_epik_Tot_abs_Q>
0

> <r_epik_Metal_State_Penalty>
0.000233299

> <b_epik_Metal_Only>
0

> <s_lp_Force_Field>
OPLS_2005

> <r_lp_Energy>
15.5684

> <b_lp_Chiralities_Consistent>
1

> <s_lp_Variant>
AV-unprocessed.smi:463-1

> <Gold.Version>
5.8.1

> <Gold.Id.Protein>
6NUR|6NUR_protein|mol2

> <Gold.PLP.Fitness>
53.1365

> <Gold.PLP.PLP>
-52.7112

> <Gold.PLP.part.hbond>
-1.0000

> <Gold.PLP.part.metal>
0.0000

> <Gold.PLP.part.buried>
2.4321

> <Gold.PLP.part.nonpolar>
-53.2638

> <Gold.PLP.part.repulsive>
0.1022

> <Gold.PLP.ligand.clash>
0.0000

> <Gold.PLP.ligand.torsion>
1.3325

> <Gold.PLP.Chemscore.Hbond>
1.0000

> <Gold.PLP.Chemscore.CHOScore>
0.0000

> <Gold.PLP.Chemscore.Metal>
0.0000

> <Gold.Chemscore.Hbonds>
donor molecule, donor type, donor heavy atom, donor atom, acceptor molecule, acceptor atom, score
      L1  H    14    37       P1 10175  1.00

> <Gold.PLP.Chemscore.Internal.Correction>
0.0903

> <Gold.Rescore>
     Score         DG    S(hbond)    S(metal)    S(lipo)     H(rot)  DE(clash)    DE(int)     intcor
     15.92     -20.10       0.96        0.00     147.36       2.28       1.58       2.59       ----

> <Gold.Chemscore.Fitness>
15.9223

> <Gold.Chemscore.DG>
-20.0957

> <Gold.Chemscore.ZeroCoef>
-5.4800

> <Gold.Chemscore.Hbond>
0.9630

> <Gold.Chemscore.Metal>
0.0000

> <Gold.Chemscore.Lipo>
147.3631

> <Gold.Chemscore.Internal_Hbond>
0.0000

> <Gold.Chemscore.DEClash>
1.5804

> <Gold.Chemscore.DEInternal>
2.5930

> <Gold.Chemscore.Rot>
2.2821

> <Gold.Chemscore.Internal.Correction>
   9.000000E+99

> <Gold.Chemscore.Hbonds>
donor molecule, donor type, donor heavy atom, donor atom, acceptor molecule, acceptor atom, score
      L1  H    14    37       P1 10175  0.84

> <Gold.Chemscore.Hbond.Weighted>
-3.2163

> <Gold.Chemscore.Metal.Weighted>
-0.0000

> <Gold.Chemscore.Lipo.Weighted>
-17.2415

> <Gold.Chemscore.Internal_Hbond.Weighted>
0.0000

> <Gold.Chemscore.DEClash.Weighted>
1.5804

> <Gold.Chemscore.DEInternal.Weighted>
2.5930

> <Gold.Chemscore.Rot.Weighted>
5.8421

> <Gold.Chemscore.Internal.Correction.Weighted>
   9.000000E+99

> <Gold.Protein.RotatedTorsions>
[ 6907 6896 6895 6894 ] final  144.20 input  -60.11 | X-H torsion
[ 7974 7965 7964 7962 ] final   97.02 input  175.53 | X-H torsion
[ 8008 7997 7996 7995 ] final -171.83 input   59.86 | X-H torsion
[ 10167 10162 10161 10158 ] final  140.03 input  -65.29 | X-H torsion
[ 10718 10713 10712 10709 ] final  145.61 input   66.30 | X-H torsion
[ 10763 10752 10751 10750 ] final -125.52 input  -60.55 | X-H torsion
[ 11005 11000 10999 10996 ] final  -70.77 input  -57.11 | X-H torsion

> <Gold.Protein.ActiveResidues>
 VAL166  LYS551  ARG553  GLY616  TRP617  ASP618  TYR619  PRO620  LYS621  CYS622 
 ASP623  PHE694  ASN695  SER759  ASP760  ASP761  ALA762  ILE779  LEU786  VAL792 
 PHE793  MET794  SER795  GLU796  ALA797  LYS798  CYS799  TRP800  GLU811  SER814 

> <Gold.Protein.RotatedAtoms>
  152.1967  133.4811  159.5036 H   0  0  0  0  0  0  0  0  0  0  0  0  # atno 6907 bound_to 6896
  150.6961  134.1643  159.4197 H   0  0  0  0  0  0  0  0  0  0  0  0  # atno 6908 bound_to 6896
  151.9559  135.0146  160.0595 H   0  0  0  0  0  0  0  0  0  0  0  0  # atno 6909 bound_to 6896
  145.4310  139.2310  143.3144 H   0  0  0  0  0  0  0  0  0  0  0  0  # atno 7974 bound_to 7965
  155.9367  140.1101  157.1089 H   0  0  0  0  0  0  0  0  0  0  0  0  # atno 8008 bound_to 7997
  154.4081  140.1227  156.4939 H   0  0  0  0  0  0  0  0  0  0  0  0  # atno 8009 bound_to 7997
  155.7013  140.3472  155.4936 H   0  0  0  0  0  0  0  0  0  0  0  0  # atno 8010 bound_to 7997
  139.5061  144.6259  151.5938 H   0  0  0  0  0  0  0  0  0  0  0  0  # atno 10167 bound_to 10162
  157.3432  131.0939  151.1064 H   0  0  0  0  0  0  0  0  0  0  0  0  # atno 10718 bound_to 10713
  154.8737  135.4026  154.3282 H   0  0  0  0  0  0  0  0  0  0  0  0  # atno 10763 bound_to 10752
  153.4100  135.7020  153.6371 H   0  0  0  0  0  0  0  0  0  0  0  0  # atno 10764 bound_to 10752
  153.5078  135.3714  155.2542 H   0  0  0  0  0  0  0  0  0  0  0  0  # atno 10765 bound_to 10752
  141.1580  133.6799  156.6804 H   0  0  0  0  0  0  0  0  0  0  0  0  # atno 11005 bound_to 11000
  146.2607  140.5047  142.8855 LP  0  0  0  0  0  0  0  0  0  0  0  0  # atno 17320 bound_to 7965
  144.8182  140.6505  143.6370 LP  0  0  0  0  0  0  0  0  0  0  0  0  # atno 17321 bound_to 7965
  140.5976  143.9668  150.6364 LP  0  0  0  0  0  0  0  0  0  0  0  0  # atno 17342 bound_to 10162
  140.2869  143.3351  152.1099 LP  0  0  0  0  0  0  0  0  0  0  0  0  # atno 17343 bound_to 10162
  157.2268  130.6507  149.5833 LP  0  0  0  0  0  0  0  0  0  0  0  0  # atno 17370 bound_to 10713
  155.9710  130.4611  150.6098 LP  0  0  0  0  0  0  0  0  0  0  0  0  # atno 17371 bound_to 10713
  140.3107  134.8089  157.4173 LP  0  0  0  0  0  0  0  0  0  0  0  0  # atno 17394 bound_to 11000
  140.1181  134.5256  155.8207 LP  0  0  0  0  0  0  0  0  0  0  0  0  # atno 17395 bound_to 11000

$$$$
