AV-unprocessed.smi:287|AV-procd|sdf|2207|dock10
  -GOLD-   2262022 43D 1   1.00000     0.00000
 Structure written by MMmdl.
 55 58  0  0  0  0  0  0  0  0  1 V2000
  147.0091  132.2767  152.6974 C   0  0  0  0  0  0  0  0  0  0  0  0
  147.9298  132.2175  153.8676 C   0  0  0  0  0  0  0  0  0  0  0  0
  148.3018  133.1180  154.8227 C   0  0  0  0  0  0  0  0  0  0  0  0
  149.2386  132.4674  155.6807 C   0  0  0  0  0  0  0  0  0  0  0  0
  149.9275  133.0794  156.8929 C   0  0  1  0  0  0  0  0  0  0  0  0
  148.8902  133.3516  157.9944 C   0  0  0  0  0  0  0  0  0  0  0  0
  150.8801  132.2106  157.4754 O   0  0  0  0  0  0  0  0  0  0  0  0
  150.6900  134.3796  156.5491 C   0  0  0  0  0  0  0  0  0  0  0  0
  150.9077  135.2324  157.7112 N   0  0  0  0  0  0  0  0  0  0  0  0
  151.7373  136.2937  157.6370 C   0  0  0  0  0  0  0  0  0  0  0  0
  152.0915  136.6720  156.3859 N   0  0  0  0  0  0  0  0  0  0  0  0
  152.8971  137.7215  156.2053 C   0  0  0  0  0  0  0  0  0  0  0  0
  153.4487  138.5163  157.1233 N   0  0  0  0  0  0  0  0  0  0  0  0
  153.1060  138.1377  158.3887 C   0  0  0  0  0  0  0  0  0  0  0  0
  152.2630  137.0413  158.7325 C   0  0  0  0  0  0  0  0  0  0  0  0
  152.1554  136.9620  160.1169 N   0  0  0  0  0  0  0  0  0  0  0  0
  152.8798  137.9546  160.5558 C   0  0  0  0  0  0  0  0  0  0  0  0
  153.4817  138.7190  159.5832 N   0  0  0  0  0  0  0  0  0  0  0  0
  154.3496  139.9198  159.7803 C   0  0  1  0  0  0  0  0  0  0  0  0
  153.6942  141.0273  159.2419 O   0  0  0  0  0  0  0  0  0  0  0  0
  153.8303  142.1388  160.1205 C   0  0  1  0  0  0  0  0  0  0  0  0
  152.6818  143.1316  159.8833 C   0  0  0  0  0  0  0  0  0  0  0  0
  151.4382  142.4866  160.0563 O   0  0  0  0  0  0  0  0  0  0  0  0
  153.7919  141.4741  161.4979 C   0  0  2  0  0  0  0  0  0  0  0  0
  154.3262  142.2875  162.5266 O   0  0  0  0  0  0  0  0  0  0  0  0
  154.5796  140.1853  161.2769 C   0  0  2  0  0  0  0  0  0  0  0  0
  155.9595  140.3470  161.5504 O   0  0  0  0  0  0  0  0  0  0  0  0
  149.3448  131.1923  155.1796 C   0  0  0  0  0  0  0  0  0  0  0  0
  150.1163  129.9807  155.5873 C   0  0  0  0  0  0  0  0  0  0  0  0
  148.5608  131.0348  154.0764 O   0  0  0  0  0  0  0  0  0  0  0  0
  155.2630  139.6992  159.2256 H   0  0  0  0  0  0  0  0  0  0  0  0
  154.8043  142.6077  159.9648 H   0  0  0  0  0  0  0  0  0  0  0  0
  152.7623  141.2254  161.7558 H   0  0  0  0  0  0  0  0  0  0  0  0
  154.1942  139.3692  161.8901 H   0  0  0  0  0  0  0  0  0  0  0  0
  146.4927  133.2358  152.6567 H   0  0  0  0  0  0  0  0  0  0  0  0
  146.2571  131.4898  152.7563 H   0  0  0  0  0  0  0  0  0  0  0  0
  147.5606  132.1504  151.7657 H   0  0  0  0  0  0  0  0  0  0  0  0
  147.9479  134.1360  154.8936 H   0  0  0  0  0  0  0  0  0  0  0  0
  148.1229  134.0459  157.6497 H   0  0  0  0  0  0  0  0  0  0  0  0
  149.3515  133.7883  158.8812 H   0  0  0  0  0  0  0  0  0  0  0  0
  148.3870  132.4337  158.3012 H   0  0  0  0  0  0  0  0  0  0  0  0
  150.4983  131.3488  157.5430 H   0  0  0  0  0  0  0  0  0  0  0  0
  151.6683  134.1045  156.1528 H   0  0  0  0  0  0  0  0  0  0  0  0
  150.1765  134.9373  155.7649 H   0  0  0  0  0  0  0  0  0  0  0  0
  150.5707  134.8601  158.5877 H   0  0  0  0  0  0  0  0  0  0  0  0
  153.1303  137.9607  155.1784 H   0  0  0  0  0  0  0  0  0  0  0  0
  152.9896  138.1623  161.6103 H   0  0  0  0  0  0  0  0  0  0  0  0
  152.7595  143.9944  160.5459 H   0  0  0  0  0  0  0  0  0  0  0  0
  152.7138  143.5061  158.8599 H   0  0  0  0  0  0  0  0  0  0  0  0
  150.7740  143.1450  160.1922 H   0  0  0  0  0  0  0  0  0  0  0  0
  153.9240  142.0390  163.3447 H   0  0  0  0  0  0  0  0  0  0  0  0
  156.0560  140.5584  162.4669 H   0  0  0  0  0  0  0  0  0  0  0  0
  149.9722  129.7696  156.6470 H   0  0  0  0  0  0  0  0  0  0  0  0
  151.1823  130.1252  155.4119 H   0  0  0  0  0  0  0  0  0  0  0  0
  149.7986  129.1022  155.0250 H   0  0  0  0  0  0  0  0  0  0  0  0
  1  2  1  0  0  0  0
  1 35  1  0  0  0  0
  1 36  1  0  0  0  0
  1 37  1  0  0  0  0
  2 30  1  0  0  0  0
  2  3  2  0  0  0  0
  3  4  1  0  0  0  0
  3 38  1  0  0  0  0
  4  5  1  0  0  0  0
  4 28  2  0  0  0  0
  5  6  1  0  0  0  0
  5  7  1  0  0  0  0
  5  8  1  0  0  0  0
  6 39  1  0  0  0  0
  6 40  1  0  0  0  0
  6 41  1  0  0  0  0
  7 42  1  0  0  0  0
  8  9  1  0  0  0  0
  8 43  1  0  0  0  0
  8 44  1  0  0  0  0
  9 10  1  0  0  0  0
  9 45  1  0  0  0  0
 10 15  1  0  0  0  0
 10 11  2  0  0  0  0
 11 12  1  0  0  0  0
 12 13  2  0  0  0  0
 12 46  1  0  0  0  0
 13 14  1  0  0  0  0
 14 18  1  0  0  0  0
 14 15  2  0  0  0  0
 15 16  1  0  0  0  0
 16 17  2  0  0  0  0
 17 18  1  0  0  0  0
 17 47  1  0  0  0  0
 18 19  1  0  0  0  0
 19 31  1  0  0  0  0
 19 26  1  0  0  0  0
 19 20  1  0  0  0  0
 20 21  1  0  0  0  0
 21 32  1  0  0  0  0
 21 22  1  0  0  0  0
 21 24  1  0  0  0  0
 22 23  1  0  0  0  0
 22 48  1  0  0  0  0
 22 49  1  0  0  0  0
 23 50  1  0  0  0  0
 24 33  1  0  0  0  0
 24 25  1  0  0  0  0
 24 26  1  0  0  0  0
 25 51  1  0  0  0  0
 26 34  1  0  0  0  0
 26 27  1  0  0  0  0
 27 52  1  0  0  0  0
 28 29  1  0  0  0  0
 28 30  1  0  0  0  0
 29 53  1  0  0  0  0
 29 54  1  0  0  0  0
 29 55  1  0  0  0  0
M  END
> <s_m_source_file>
AV-unprocessed.smi

> <i_m_source_file_index>
287

> <i_lp_mmshare_version>
43012

> <i_f3d_flags>
0

> <s_epik_input>
W0NIM11jMVtjSF1jKGMobzEpW0NIM10pW0NAQF0oW0NIM10pKFtPSF0pW0NIMl1bTkhdYyhuW2NIXW4yKWMoYzIzKW5bY0hdbjNbQ0BASF00T1tDQEhdKFtDSDJdW09IXSlbQ0BASF0oW09IXSlbQ0BIXTRbT0hd

> <s_epik_cmdline>
J2VwaWtfcHl0aG9uJywgJy1waCcsICc3LjAnLCAnLXRuJywgJzgnLCAnLW1hJywgJzIwMCcsICctbWV0YWxfYmluZGluZycsICctaW1hZScsICc8aW5maWxlLm1hZT4nLCAnLW9tYWUnLCAnPG91dGZpbGUubWFlPic=

> <r_lp_tautomer_probability>
1

> <r_epik_Ionization_Penalty>
0.000992612

> <r_epik_Ionization_Penalty_Charging>
0

> <r_epik_Ionization_Penalty_Neutral>
0.000992612

> <r_epik_State_Penalty>
-0

> <r_epik_Charging_Adjusted_Penalty>
0

> <i_epik_Tot_Q>
0

> <i_epik_Tot_abs_Q>
0

> <r_epik_Metal_State_Penalty>
-0

> <b_epik_Metal_Only>
0

> <s_epik_Chemistry_Notes>
This compound contains an acetal/aminal-like group ( X-CH(R)-Y where X, Y are N, S, or O) that may be acid/base labile, releasing an aldehyde.

> <s_lp_Force_Field>
OPLS_2005

> <r_lp_Energy>
44.3809

> <b_lp_Chiralities_Consistent>
1

> <s_lp_Variant>
AV-unprocessed.smi:287-31

> <Gold.Version>
5.8.1

> <Gold.Id.Protein>
6NUR|6NUR_protein|mol2

> <Gold.PLP.Fitness>
53.4248

> <Gold.PLP.PLP>
-45.7946

> <Gold.PLP.part.hbond>
-6.2090

> <Gold.PLP.part.metal>
0.0000

> <Gold.PLP.part.buried>
-4.5972

> <Gold.PLP.part.nonpolar>
-36.9621

> <Gold.PLP.part.repulsive>
2.5019

> <Gold.PLP.ligand.clash>
0.0000

> <Gold.PLP.ligand.torsion>
0.5852

> <Gold.PLP.Chemscore.Hbond>
2.9100

> <Gold.PLP.Chemscore.CHOScore>
0.0000

> <Gold.PLP.Chemscore.Metal>
0.0000

> <Gold.Chemscore.Hbonds>
donor molecule, donor type, donor heavy atom, donor atom, acceptor molecule, acceptor atom, score
      P1  H  6896  6908       L1     7  0.02
      P1  H  6896  6909       L1    16  0.55
      P1  H  7997  8008       L1    13  0.86
      P1  H 10752 10765       L1    11  0.50

> <Gold.PLP.Chemscore.Internal.Correction>
0.0705

> <Gold.Rescore>
     Score         DG    S(hbond)    S(metal)    S(lipo)     H(rot)  DE(clash)    DE(int)     intcor
      6.71      -9.75       2.12        0.00      91.19       5.27       1.53       1.52       ----

> <Gold.Chemscore.Fitness>
6.7059

> <Gold.Chemscore.DG>
-9.7545

> <Gold.Chemscore.ZeroCoef>
-5.4800

> <Gold.Chemscore.Hbond>
2.1225

> <Gold.Chemscore.Metal>
0.0000

> <Gold.Chemscore.Lipo>
91.1912

> <Gold.Chemscore.Internal_Hbond>
0.0000

> <Gold.Chemscore.DEClash>
1.5272

> <Gold.Chemscore.DEInternal>
1.5214

> <Gold.Chemscore.Rot>
5.2672

> <Gold.Chemscore.Internal.Correction>
   9.000000E+99

> <Gold.Chemscore.Hbonds>
donor molecule, donor type, donor heavy atom, donor atom, acceptor molecule, acceptor atom, score
      P1  H  6896  6909       L1    16  0.03
      P1  H  7997  8008       L1    13  0.81
      P1  H 10752 10765       L1    11  0.04

> <Gold.Chemscore.Hbond.Weighted>
-7.0891

> <Gold.Chemscore.Metal.Weighted>
-0.0000

> <Gold.Chemscore.Lipo.Weighted>
-10.6694

> <Gold.Chemscore.Internal_Hbond.Weighted>
0.0000

> <Gold.Chemscore.DEClash.Weighted>
1.5272

> <Gold.Chemscore.DEInternal.Weighted>
1.5214

> <Gold.Chemscore.Rot.Weighted>
13.4839

> <Gold.Chemscore.Internal.Correction.Weighted>
   9.000000E+99

> <Gold.Protein.RotatedTorsions>
[ 6907 6896 6895 6894 ] final  120.56 input  -60.11 | X-H torsion
[ 7974 7965 7964 7962 ] final  -49.29 input  175.53 | X-H torsion
[ 8008 7997 7996 7995 ] final  -52.82 input   59.86 | X-H torsion
[ 10167 10162 10161 10158 ] final  -47.27 input  -65.29 | X-H torsion
[ 10718 10713 10712 10709 ] final -149.32 input   66.30 | X-H torsion
[ 10763 10752 10751 10750 ] final -166.06 input  -60.55 | X-H torsion
[ 11005 11000 10999 10996 ] final -168.19 input  -57.11 | X-H torsion

> <Gold.Protein.ActiveResidues>
 VAL166  LYS551  ARG553  GLY616  TRP617  ASP618  TYR619  PRO620  LYS621  CYS622 
 ASP623  PHE694  ASN695  SER759  ASP760  ASP761  ALA762  ILE779  LEU786  VAL792 
 PHE793  MET794  SER795  GLU796  ALA797  LYS798  CYS799  TRP800  GLU811  SER814 

> <Gold.Protein.RotatedAtoms>
  152.4389  133.7411  159.6641 H   0  0  0  0  0  0  0  0  0  0  0  0  # atno 6907 bound_to 6896
  150.8277  133.8134  159.3118 H   0  0  0  0  0  0  0  0  0  0  0  0  # atno 6908 bound_to 6896
  151.5797  135.1061  160.0066 H   0  0  0  0  0  0  0  0  0  0  0  0  # atno 6909 bound_to 6896
  145.9421  140.7652  142.9547 H   0  0  0  0  0  0  0  0  0  0  0  0  # atno 7974 bound_to 7965
  154.4116  140.1214  156.5054 H   0  0  0  0  0  0  0  0  0  0  0  0  # atno 8008 bound_to 7997
  155.6853  140.3496  155.4852 H   0  0  0  0  0  0  0  0  0  0  0  0  # atno 8009 bound_to 7997
  155.9516  140.1106  157.0962 H   0  0  0  0  0  0  0  0  0  0  0  0  # atno 8010 bound_to 7997
  140.6782  143.2792  151.3903 H   0  0  0  0  0  0  0  0  0  0  0  0  # atno 10167 bound_to 10162
  156.4316  130.8078  151.2305 H   0  0  0  0  0  0  0  0  0  0  0  0  # atno 10718 bound_to 10713
  154.6871  135.2964  154.9533 H   0  0  0  0  0  0  0  0  0  0  0  0  # atno 10763 bound_to 10752
  154.0508  135.6644  153.4804 H   0  0  0  0  0  0  0  0  0  0  0  0  # atno 10764 bound_to 10752
  153.0586  135.5129  154.7943 H   0  0  0  0  0  0  0  0  0  0  0  0  # atno 10765 bound_to 10752
  140.5448  134.5487  157.5108 H   0  0  0  0  0  0  0  0  0  0  0  0  # atno 11005 bound_to 11000
  144.6781  140.2297  143.7357 LP  0  0  0  0  0  0  0  0  0  0  0  0  # atno 17320 bound_to 7965
  145.8286  139.2075  143.1896 LP  0  0  0  0  0  0  0  0  0  0  0  0  # atno 17321 bound_to 7965
  139.6087  144.1143  152.2276 LP  0  0  0  0  0  0  0  0  0  0  0  0  # atno 17342 bound_to 10162
  140.0550  144.5902  150.7307 LP  0  0  0  0  0  0  0  0  0  0  0  0  # atno 17343 bound_to 10162
  157.7508  131.0196  150.3676 LP  0  0  0  0  0  0  0  0  0  0  0  0  # atno 17370 bound_to 10713
  156.4014  130.3916  149.6957 LP  0  0  0  0  0  0  0  0  0  0  0  0  # atno 17371 bound_to 10713
  139.9485  134.7659  156.0504 LP  0  0  0  0  0  0  0  0  0  0  0  0  # atno 17394 bound_to 11000
  141.1206  133.6614  156.3205 LP  0  0  0  0  0  0  0  0  0  0  0  0  # atno 17395 bound_to 11000

$$$$
