AV-unprocessed.smi:552|AV-procd|sdf|2902|dock6
  -GOLD-   2262023393D 1   1.00000     0.00000
 Structure written by MMmdl.
 42 43  0  0  0  0  0  0  0  0  1 V2000
  143.2251  137.2076  152.8745 C   0  0  0  0  0  0  0  0  0  0  0  0
  144.7008  137.3784  153.2633 C   0  0  0  0  0  0  0  0  0  0  0  0
  145.6489  137.5005  152.0554 C   0  0  2  0  0  0  0  0  0  0  0  0
  145.5836  136.2553  151.1570 C   0  0  0  0  0  0  0  0  0  0  0  0
  147.0214  137.7151  152.5098 N   0  0  0  0  0  0  0  0  0  0  0  0
  147.4041  138.6056  153.4362 C   0  0  0  0  0  0  0  0  0  0  0  0
  146.6256  139.3623  154.0162 O   0  0  0  0  0  0  0  0  0  0  0  0
  148.7350  138.5713  153.6212 N   0  0  0  0  0  0  0  0  0  0  0  0
  149.5182  139.3466  154.5176 C   0  0  0  0  0  0  0  0  0  0  0  0
  150.9100  139.1816  154.7026 C   0  0  0  0  0  0  0  0  0  0  0  0
  151.5824  140.0249  155.6076 C   0  0  0  0  0  0  0  0  0  0  0  0
  150.8531  141.0169  156.3053 C   0  0  0  0  0  0  0  0  0  0  0  0
  151.5064  141.8688  157.2233 N   0  0  0  0  0  0  0  0  0  0  0  0
  151.1950  143.2968  157.1751 C   0  0  0  0  0  0  0  0  0  0  0  0
  152.1945  144.0947  158.0294 C   0  0  0  0  0  0  0  0  0  0  0  0
  152.2085  143.5804  159.3566 O   0  0  0  0  0  0  0  0  0  0  0  0
  152.6246  142.2195  159.3912 C   0  0  0  0  0  0  0  0  0  0  0  0
  151.6432  141.3526  158.5835 C   0  0  0  0  0  0  0  0  0  0  0  0
  149.5222  141.1853  156.1072 N   0  0  0  0  0  0  0  0  0  0  0  0
  148.8817  140.3762  155.2380 C   0  0  0  0  0  0  0  0  0  0  0  0
  142.6041  137.0829  153.7618 H   0  0  0  0  0  0  0  0  0  0  0  0
  143.0846  136.3279  152.2458 H   0  0  0  0  0  0  0  0  0  0  0  0
  142.8494  138.0735  152.3289 H   0  0  0  0  0  0  0  0  0  0  0  0
  144.8059  138.2531  153.9065 H   0  0  0  0  0  0  0  0  0  0  0  0
  145.0004  136.5214  153.8677 H   0  0  0  0  0  0  0  0  0  0  0  0
  145.3263  138.3611  151.4664 H   0  0  0  0  0  0  0  0  0  0  0  0
  144.5698  136.0880  150.7920 H   0  0  0  0  0  0  0  0  0  0  0  0
  145.8952  135.3598  151.6955 H   0  0  0  0  0  0  0  0  0  0  0  0
  146.2305  136.3617  150.2855 H   0  0  0  0  0  0  0  0  0  0  0  0
  147.7330  137.1391  152.0845 H   0  0  0  0  0  0  0  0  0  0  0  0
  149.2548  137.9631  153.0056 H   0  0  0  0  0  0  0  0  0  0  0  0
  151.4756  138.4412  154.1586 H   0  0  0  0  0  0  0  0  0  0  0  0
  152.6478  139.9115  155.7395 H   0  0  0  0  0  0  0  0  0  0  0  0
  151.2325  143.6585  156.1468 H   0  0  0  0  0  0  0  0  0  0  0  0
  150.1798  143.4569  157.5413 H   0  0  0  0  0  0  0  0  0  0  0  0
  153.1966  144.0502  157.5995 H   0  0  0  0  0  0  0  0  0  0  0  0
  151.9073  145.1459  158.0588 H   0  0  0  0  0  0  0  0  0  0  0  0
  153.6385  142.1277  158.9982 H   0  0  0  0  0  0  0  0  0  0  0  0
  152.6544  141.8847  160.4282 H   0  0  0  0  0  0  0  0  0  0  0  0
  150.6622  141.3573  159.0606 H   0  0  0  0  0  0  0  0  0  0  0  0
  151.9945  140.3221  158.5937 H   0  0  0  0  0  0  0  0  0  0  0  0
  147.8229  140.5553  155.1197 H   0  0  0  0  0  0  0  0  0  0  0  0
  1  2  1  0  0  0  0
  1 21  1  0  0  0  0
  1 22  1  0  0  0  0
  1 23  1  0  0  0  0
  2  3  1  0  0  0  0
  2 24  1  0  0  0  0
  2 25  1  0  0  0  0
  3  4  1  0  0  0  0
  3  5  1  0  0  0  0
  3 26  1  0  0  0  0
  4 27  1  0  0  0  0
  4 28  1  0  0  0  0
  4 29  1  0  0  0  0
  5  6  1  0  0  0  0
  5 30  1  0  0  0  0
  6  7  2  0  0  0  0
  6  8  1  0  0  0  0
  8  9  1  0  0  0  0
  8 31  1  0  0  0  0
  9 20  1  0  0  0  0
  9 10  2  0  0  0  0
 10 11  1  0  0  0  0
 10 32  1  0  0  0  0
 11 12  2  0  0  0  0
 11 33  1  0  0  0  0
 12 13  1  0  0  0  0
 12 19  1  0  0  0  0
 13 18  1  0  0  0  0
 13 14  1  0  0  0  0
 14 15  1  0  0  0  0
 14 34  1  0  0  0  0
 14 35  1  0  0  0  0
 15 16  1  0  0  0  0
 15 36  1  0  0  0  0
 15 37  1  0  0  0  0
 16 17  1  0  0  0  0
 17 18  1  0  0  0  0
 17 38  1  0  0  0  0
 17 39  1  0  0  0  0
 18 40  1  0  0  0  0
 18 41  1  0  0  0  0
 19 20  2  0  0  0  0
 20 42  1  0  0  0  0
M  END
> <s_m_source_file>
AV-unprocessed.smi

> <i_m_source_file_index>
552

> <i_lp_mmshare_version>
43012

> <i_f3d_flags>
0

> <s_epik_input>
W0NIM11bQ0gyXVtDQEhdKFtDSDNdKVtOSF1DKD1PKVtOSF1jMVtjSF1bY0hdYyhuW2NIXTEpTjJbQ0gyXVtDSDJdT1tDSDJdW0NIMl0y

> <s_epik_cmdline>
J2VwaWtfcHl0aG9uJywgJy1waCcsICc3LjAnLCAnLXRuJywgJzgnLCAnLW1hJywgJzIwMCcsICctbWV0YWxfYmluZGluZycsICctaW1hZScsICc8aW5maWxlLm1hZT4nLCAnLW9tYWUnLCAnPG91dGZpbGUubWFlPic=

> <r_lp_tautomer_probability>
1

> <r_epik_Ionization_Penalty>
0.00215965

> <r_epik_Ionization_Penalty_Charging>
0

> <r_epik_Ionization_Penalty_Neutral>
0.00215965

> <r_epik_State_Penalty>
0.00145276

> <r_epik_Charging_Adjusted_Penalty>
0.00145276

> <i_epik_Tot_Q>
0

> <i_epik_Tot_abs_Q>
0

> <r_epik_Metal_State_Penalty>
-0

> <b_epik_Metal_Only>
0

> <s_lp_Force_Field>
OPLS_2005

> <r_lp_Energy>
20.9108

> <b_lp_Chiralities_Consistent>
1

> <s_lp_Variant>
AV-unprocessed.smi:552-1

> <Gold.Version>
5.8.1

> <Gold.Id.Protein>
6NUR|6NUR_protein|mol2

> <Gold.PLP.Fitness>
40.3626

> <Gold.PLP.PLP>
-36.1534

> <Gold.PLP.part.hbond>
-2.9172

> <Gold.PLP.part.metal>
0.0000

> <Gold.PLP.part.buried>
0.0508

> <Gold.PLP.part.nonpolar>
-33.9839

> <Gold.PLP.part.repulsive>
0.3682

> <Gold.PLP.ligand.clash>
0.0000

> <Gold.PLP.ligand.torsion>
0.6668

> <Gold.PLP.Chemscore.Hbond>
1.7308

> <Gold.PLP.Chemscore.CHOScore>
0.0000

> <Gold.PLP.Chemscore.Metal>
0.0000

> <Gold.Chemscore.Hbonds>
donor molecule, donor type, donor heavy atom, donor atom, acceptor molecule, acceptor atom, score
      L1  H     5    30       P1  7948  0.98
      L1  H     8    31       P1  7948  0.74

> <Gold.PLP.Chemscore.Internal.Correction>
0.3502

> <Gold.Rescore>
     Score         DG    S(hbond)    S(metal)    S(lipo)     H(rot)  DE(clash)    DE(int)     intcor
     14.94     -18.28       1.84        0.00      86.40       1.35       0.10       3.24       ----

> <Gold.Chemscore.Fitness>
14.9398

> <Gold.Chemscore.DG>
-18.2789

> <Gold.Chemscore.ZeroCoef>
-5.4800

> <Gold.Chemscore.Hbond>
1.8424

> <Gold.Chemscore.Metal>
0.0000

> <Gold.Chemscore.Lipo>
86.4028

> <Gold.Chemscore.Internal_Hbond>
0.0000

> <Gold.Chemscore.DEClash>
0.0993

> <Gold.Chemscore.DEInternal>
3.2398

> <Gold.Chemscore.Rot>
1.3530

> <Gold.Chemscore.Internal.Correction>
   9.000000E+99

> <Gold.Chemscore.Hbonds>
donor molecule, donor type, donor heavy atom, donor atom, acceptor molecule, acceptor atom, score
      L1  H     5    30       P1  7948  0.91
      L1  H     8    31       P1  7948  0.70

> <Gold.Chemscore.Hbond.Weighted>
-6.1535

> <Gold.Chemscore.Metal.Weighted>
-0.0000

> <Gold.Chemscore.Lipo.Weighted>
-10.1091

> <Gold.Chemscore.Internal_Hbond.Weighted>
0.0000

> <Gold.Chemscore.DEClash.Weighted>
0.0993

> <Gold.Chemscore.DEInternal.Weighted>
3.2398

> <Gold.Chemscore.Rot.Weighted>
3.4638

> <Gold.Chemscore.Internal.Correction.Weighted>
   9.000000E+99

> <Gold.Protein.RotatedTorsions>
[ 6907 6896 6895 6894 ] final -115.57 input  -60.11 | X-H torsion
[ 7974 7965 7964 7962 ] final  177.44 input  175.53 | X-H torsion
[ 8008 7997 7996 7995 ] final   65.73 input   59.86 | X-H torsion
[ 10167 10162 10161 10158 ] final   37.69 input  -65.29 | X-H torsion
[ 10718 10713 10712 10709 ] final   28.03 input   66.30 | X-H torsion
[ 10763 10752 10751 10750 ] final -179.10 input  -60.55 | X-H torsion
[ 11005 11000 10999 10996 ] final -128.66 input  -57.11 | X-H torsion

> <Gold.Protein.ActiveResidues>
 VAL166  LYS551  ARG553  GLY616  TRP617  ASP618  TYR619  PRO620  LYS621  CYS622 
 ASP623  PHE694  ASN695  SER759  ASP760  ASP761  ALA762  ILE779  LEU786  VAL792 
 PHE793  MET794  SER795  GLU796  ALA797  LYS798  CYS799  TRP800  GLU811  SER814 

> <Gold.Protein.RotatedAtoms>
  150.7988  133.8640  159.3239 H   0  0  0  0  0  0  0  0  0  0  0  0  # atno 6907 bound_to 6896
  151.6458  135.1005  160.0160 H   0  0  0  0  0  0  0  0  0  0  0  0  # atno 6908 bound_to 6896
  152.4073  133.6869  159.6402 H   0  0  0  0  0  0  0  0  0  0  0  0  # atno 6909 bound_to 6896
  144.7169  140.0248  143.6439 H   0  0  0  0  0  0  0  0  0  0  0  0  # atno 7974 bound_to 7965
  155.6664  140.3497  155.4801 H   0  0  0  0  0  0  0  0  0  0  0  0  # atno 8008 bound_to 7997
  155.9725  140.1158  157.0822 H   0  0  0  0  0  0  0  0  0  0  0  0  # atno 8009 bound_to 7997
  154.4170  140.1154  156.5312 H   0  0  0  0  0  0  0  0  0  0  0  0  # atno 8010 bound_to 7997
  140.4008  144.1726  150.6133 H   0  0  0  0  0  0  0  0  0  0  0  0  # atno 10167 bound_to 10162
  157.2281  130.7010  149.6300 H   0  0  0  0  0  0  0  0  0  0  0  0  # atno 10718 bound_to 10713
  154.5394  135.2805  155.1109 H   0  0  0  0  0  0  0  0  0  0  0  0  # atno 10763 bound_to 10752
  154.2598  135.6324  153.5274 H   0  0  0  0  0  0  0  0  0  0  0  0  # atno 10764 bound_to 10752
  152.9975  135.5603  154.5929 H   0  0  0  0  0  0  0  0  0  0  0  0  # atno 10765 bound_to 10752
  140.9497  134.1082  157.4074 H   0  0  0  0  0  0  0  0  0  0  0  0  # atno 11005 bound_to 11000
  146.0151  139.3203  143.0847 LP  0  0  0  0  0  0  0  0  0  0  0  0  # atno 17320 bound_to 7965
  145.8635  140.9461  143.0687 LP  0  0  0  0  0  0  0  0  0  0  0  0  # atno 17321 bound_to 7965
  140.4742  143.2402  151.9047 LP  0  0  0  0  0  0  0  0  0  0  0  0  # atno 17342 bound_to 10162
  139.4785  144.5338  151.8628 LP  0  0  0  0  0  0  0  0  0  0  0  0  # atno 17343 bound_to 10162
  155.9677  130.4498  150.5672 LP  0  0  0  0  0  0  0  0  0  0  0  0  # atno 17370 bound_to 10713
  157.3507  131.0733  151.1715 LP  0  0  0  0  0  0  0  0  0  0  0  0  # atno 17371 bound_to 10713
  139.8844  135.0062  156.6365 LP  0  0  0  0  0  0  0  0  0  0  0  0  # atno 17394 bound_to 11000
  140.7620  133.8810  155.8425 LP  0  0  0  0  0  0  0  0  0  0  0  0  # atno 17395 bound_to 11000

$$$$
