AV-unprocessed.smi:3258|AV-procd|sdf|12469|dock2
  -GOLD-   2272018363D 1   1.00000     0.00000
 Structure written by MMmdl.
 38 39  0  0  0  0  0  0  0  0  1 V2000
  143.9478  137.0615  152.6524 C   0  0  0  0  0  0  0  0  0  0  0  0
  144.9435  135.9217  152.3852 C   0  0  1  0  0  0  0  0  0  0  0  0
  145.0035  135.5664  150.8870 C   0  0  0  0  0  0  0  0  0  0  0  0
  145.0612  134.1326  150.6615 N   0  0  0  0  0  0  0  0  0  0  0  0
  144.0195  133.2297  150.6267 C   0  0  0  0  0  0  0  0  0  0  0  0
  144.5583  131.9966  150.3952 C   0  0  0  0  0  0  0  0  0  0  0  0
  145.9551  132.2509  150.2989 C   0  0  0  0  0  0  0  0  0  0  0  0
  146.2533  133.5303  150.4582 N   0  0  0  0  0  0  0  0  0  0  0  0
  146.2717  136.2974  152.8659 N   0  0  0  0  0  0  0  0  0  0  0  0
  146.5671  136.6648  154.1203 C   0  0  0  0  0  0  0  0  0  0  0  0
  145.7391  136.7542  155.0269 O   0  0  0  0  0  0  0  0  0  0  0  0
  147.8736  136.9272  154.2643 N   0  0  0  0  0  0  0  0  0  0  0  0
  148.5172  137.3641  155.4992 C   0  0  0  0  0  0  0  0  0  0  0  0
  149.9223  137.9390  155.2399 C   0  0  2  0  0  0  0  0  0  0  0  0
  150.6757  138.3074  156.5013 C   0  0  0  0  0  0  0  0  0  0  0  0
  151.7649  139.2292  155.9608 C   0  0  0  0  0  0  0  0  0  0  0  0
  151.1971  139.8789  154.8272 O   0  0  0  0  0  0  0  0  0  0  0  0
  149.9545  139.2711  154.4872 C   0  0  0  0  0  0  0  0  0  0  0  0
  142.9464  136.7940  152.3145 H   0  0  0  0  0  0  0  0  0  0  0  0
  144.2414  137.9744  152.1330 H   0  0  0  0  0  0  0  0  0  0  0  0
  143.8834  137.2892  153.7167 H   0  0  0  0  0  0  0  0  0  0  0  0
  144.6015  135.0384  152.9280 H   0  0  0  0  0  0  0  0  0  0  0  0
  144.1178  135.9476  150.3771 H   0  0  0  0  0  0  0  0  0  0  0  0
  145.8637  136.0406  150.4112 H   0  0  0  0  0  0  0  0  0  0  0  0
  142.9940  133.5364  150.7713 H   0  0  0  0  0  0  0  0  0  0  0  0
  144.0347  131.0562  150.3083 H   0  0  0  0  0  0  0  0  0  0  0  0
  146.7557  131.5487  150.1197 H   0  0  0  0  0  0  0  0  0  0  0  0
  147.0248  136.2518  152.1951 H   0  0  0  0  0  0  0  0  0  0  0  0
  148.4695  136.8199  153.4565 H   0  0  0  0  0  0  0  0  0  0  0  0
  147.8948  138.0885  156.0277 H   0  0  0  0  0  0  0  0  0  0  0  0
  148.5953  136.4963  156.1543 H   0  0  0  0  0  0  0  0  0  0  0  0
  150.5155  137.2088  154.6864 H   0  0  0  0  0  0  0  0  0  0  0  0
  150.0276  138.8568  157.1856 H   0  0  0  0  0  0  0  0  0  0  0  0
  151.0766  137.4425  157.0306 H   0  0  0  0  0  0  0  0  0  0  0  0
  152.1075  139.9493  156.7042 H   0  0  0  0  0  0  0  0  0  0  0  0
  152.6264  138.6476  155.6304 H   0  0  0  0  0  0  0  0  0  0  0  0
  149.8562  139.1452  153.4088 H   0  0  0  0  0  0  0  0  0  0  0  0
  149.1499  139.9256  154.8253 H   0  0  0  0  0  0  0  0  0  0  0  0
  1  2  1  0  0  0  0
  1 19  1  0  0  0  0
  1 20  1  0  0  0  0
  1 21  1  0  0  0  0
  2  3  1  0  0  0  0
  2  9  1  0  0  0  0
  2 22  1  0  0  0  0
  3  4  1  0  0  0  0
  3 23  1  0  0  0  0
  3 24  1  0  0  0  0
  4  8  1  0  0  0  0
  4  5  1  0  0  0  0
  5  6  2  0  0  0  0
  5 25  1  0  0  0  0
  6  7  1  0  0  0  0
  6 26  1  0  0  0  0
  7  8  2  0  0  0  0
  7 27  1  0  0  0  0
  9 10  1  0  0  0  0
  9 28  1  0  0  0  0
 10 11  2  0  0  0  0
 10 12  1  0  0  0  0
 12 13  1  0  0  0  0
 12 29  1  0  0  0  0
 13 14  1  0  0  0  0
 13 30  1  0  0  0  0
 13 31  1  0  0  0  0
 14 18  1  0  0  0  0
 14 15  1  0  0  0  0
 14 32  1  0  0  0  0
 15 16  1  0  0  0  0
 15 33  1  0  0  0  0
 15 34  1  0  0  0  0
 16 17  1  0  0  0  0
 16 35  1  0  0  0  0
 16 36  1  0  0  0  0
 17 18  1  0  0  0  0
 18 37  1  0  0  0  0
 18 38  1  0  0  0  0
M  END
> <s_m_source_file>
AV-unprocessed.smi

> <i_m_source_file_index>
3258

> <i_lp_mmshare_version>
43012

> <i_f3d_flags>
0

> <s_epik_input>
bjFbY0hdW2NIXVtjSF1uMVtDSDJdW0NAQEhdKFtDSDNdKVtOSF1DKD1PKVtOSF1bQ0gyXVtDQEBIXTJbQ0gyXVtDSDJdT1tDSDJdMg==

> <s_epik_cmdline>
J2VwaWtfcHl0aG9uJywgJy1waCcsICc3LjAnLCAnLXRuJywgJzgnLCAnLW1hJywgJzIwMCcsICctbWV0YWxfYmluZGluZycsICctaW1hZScsICc8aW5maWxlLm1hZT4nLCAnLW9tYWUnLCAnPG91dGZpbGUubWFlPic=

> <r_lp_tautomer_probability>
1

> <r_epik_Ionization_Penalty>
6.85079e-05

> <r_epik_Ionization_Penalty_Charging>
0

> <r_epik_Ionization_Penalty_Neutral>
6.85079e-05

> <r_epik_State_Penalty>
-0

> <r_epik_Charging_Adjusted_Penalty>
0

> <i_epik_Tot_Q>
0

> <i_epik_Tot_abs_Q>
0

> <r_epik_Metal_State_Penalty>
-0

> <b_epik_Metal_Only>
0

> <s_lp_Force_Field>
OPLS_2005

> <r_lp_Energy>
17.05

> <b_lp_Chiralities_Consistent>
1

> <s_lp_Variant>
AV-unprocessed.smi:3258-2

> <Gold.Version>
5.8.1

> <Gold.Id.Protein>
6NUR|6NUR_protein|mol2

> <Gold.PLP.Fitness>
42.5157

> <Gold.PLP.PLP>
-29.5756

> <Gold.PLP.part.hbond>
-3.0000

> <Gold.PLP.part.metal>
0.0000

> <Gold.PLP.part.buried>
-5.7332

> <Gold.PLP.part.nonpolar>
-22.3651

> <Gold.PLP.part.repulsive>
0.3094

> <Gold.PLP.ligand.clash>
0.0000

> <Gold.PLP.ligand.torsion>
1.0206

> <Gold.PLP.Chemscore.Hbond>
2.9760

> <Gold.PLP.Chemscore.CHOScore>
2.0000

> <Gold.PLP.Chemscore.Metal>
0.0000

> <Gold.Chemscore.Hbonds>
donor molecule, donor type, donor heavy atom, donor atom, acceptor molecule, acceptor atom, score
      L1  H     9    28       P1  7948  0.99
      L1  H    12    29       P1  7948  1.00
      P1  H  7989  7998       L1    17  1.00
      L1  C     5    25       P1 10186  1.00
      L1  C     7    27       P1 10747  1.00

> <Gold.PLP.Chemscore.Internal.Correction>
0.0534

> <Gold.Rescore>
     Score         DG    S(hbond)    S(metal)    S(lipo)     H(rot)  DE(clash)    DE(int)     intcor
     16.10     -18.20       2.90        0.00      67.01       1.87       0.02       2.08       ----

> <Gold.Chemscore.Fitness>
16.1026

> <Gold.Chemscore.DG>
-18.2033

> <Gold.Chemscore.ZeroCoef>
-5.4800

> <Gold.Chemscore.Hbond>
2.8971

> <Gold.Chemscore.Metal>
0.0000

> <Gold.Chemscore.Lipo>
67.0111

> <Gold.Chemscore.Internal_Hbond>
0.0000

> <Gold.Chemscore.DEClash>
0.0164

> <Gold.Chemscore.DEInternal>
2.0843

> <Gold.Chemscore.Rot>
1.8724

> <Gold.Chemscore.Internal.Correction>
   9.000000E+99

> <Gold.Chemscore.Hbonds>
donor molecule, donor type, donor heavy atom, donor atom, acceptor molecule, acceptor atom, score
      L1  H     9    28       P1  7948  0.93
      L1  H    12    29       P1  7948  0.99
      P1  H  7989  7998       L1    17  0.60

> <Gold.Chemscore.Hbond.Weighted>
-9.6763

> <Gold.Chemscore.Metal.Weighted>
-0.0000

> <Gold.Chemscore.Lipo.Weighted>
-7.8403

> <Gold.Chemscore.Internal_Hbond.Weighted>
0.0000

> <Gold.Chemscore.DEClash.Weighted>
0.0164

> <Gold.Chemscore.DEInternal.Weighted>
2.0843

> <Gold.Chemscore.Rot.Weighted>
4.7933

> <Gold.Chemscore.Internal.Correction.Weighted>
   9.000000E+99

> <Gold.Protein.RotatedTorsions>
[ 6907 6896 6895 6894 ] final -129.67 input  -60.11 | X-H torsion
[ 7974 7965 7964 7962 ] final  139.45 input  175.53 | X-H torsion
[ 8008 7997 7996 7995 ] final  -80.00 input   59.86 | X-H torsion
[ 10167 10162 10161 10158 ] final  -22.50 input  -65.29 | X-H torsion
[ 10718 10713 10712 10709 ] final   27.08 input   66.30 | X-H torsion
[ 10763 10752 10751 10750 ] final  172.05 input  -60.55 | X-H torsion
[ 11005 11000 10999 10996 ] final -133.03 input  -57.11 | X-H torsion

> <Gold.Protein.ActiveResidues>
 VAL166  LYS551  ARG553  GLY616  TRP617  ASP618  TYR619  PRO620  LYS621  CYS622 
 ASP623  PHE694  ASN695  SER759  ASP760  ASP761  ALA762  ILE779  LEU786  VAL792 
 PHE793  MET794  SER795  GLU796  ALA797  LYS798  CYS799  TRP800  GLU811  SER814 

> <Gold.Protein.RotatedAtoms>
  150.9313  133.6764  159.2810 H   0  0  0  0  0  0  0  0  0  0  0  0  # atno 6907 bound_to 6896
  151.4185  135.0993  159.9616 H   0  0  0  0  0  0  0  0  0  0  0  0  # atno 6908 bound_to 6896
  152.5027  133.8770  159.7382 H   0  0  0  0  0  0  0  0  0  0  0  0  # atno 6909 bound_to 6896
  144.9278  139.5086  143.5632 H   0  0  0  0  0  0  0  0  0  0  0  0  # atno 7974 bound_to 7965
  154.5840  140.0669  156.9145 H   0  0  0  0  0  0  0  0  0  0  0  0  # atno 8008 bound_to 7997
  155.2412  140.3345  155.4274 H   0  0  0  0  0  0  0  0  0  0  0  0  # atno 8009 bound_to 7997
  156.2209  140.1798  156.7463 H   0  0  0  0  0  0  0  0  0  0  0  0  # atno 8010 bound_to 7997
  140.7286  143.4529  151.0491 H   0  0  0  0  0  0  0  0  0  0  0  0  # atno 10167 bound_to 10162
  157.2155  130.6954  149.6247 H   0  0  0  0  0  0  0  0  0  0  0  0  # atno 10718 bound_to 10713
  154.4206  135.2758  155.1978 H   0  0  0  0  0  0  0  0  0  0  0  0  # atno 10763 bound_to 10752
  154.3925  135.6063  153.5855 H   0  0  0  0  0  0  0  0  0  0  0  0  # atno 10764 bound_to 10752
  152.9833  135.5907  154.4501 H   0  0  0  0  0  0  0  0  0  0  0  0  # atno 10765 bound_to 10752
  140.9117  134.1559  157.4384 H   0  0  0  0  0  0  0  0  0  0  0  0  # atno 11005 bound_to 11000
  146.3233  139.8205  142.8927 LP  0  0  0  0  0  0  0  0  0  0  0  0  # atno 17320 bound_to 7965
  145.3191  141.0239  143.3510 LP  0  0  0  0  0  0  0  0  0  0  0  0  # atno 17321 bound_to 7965
  139.8207  143.7825  152.3176 LP  0  0  0  0  0  0  0  0  0  0  0  0  # atno 17342 bound_to 10162
  139.7906  144.7411  150.9960 LP  0  0  0  0  0  0  0  0  0  0  0  0  # atno 17343 bound_to 10162
  155.9687  130.4537  150.5822 LP  0  0  0  0  0  0  0  0  0  0  0  0  # atno 17370 bound_to 10713
  157.3629  131.0753  151.1621 LP  0  0  0  0  0  0  0  0  0  0  0  0  # atno 17371 bound_to 10713
  139.8759  134.9938  156.5664 LP  0  0  0  0  0  0  0  0  0  0  0  0  # atno 17394 bound_to 11000
  140.8101  133.8436  155.8802 LP  0  0  0  0  0  0  0  0  0  0  0  0  # atno 17395 bound_to 11000

$$$$
