AV-unprocessed.smi:287|AV-procd|sdf|2200|dock8
  -GOLD-   2262022 13D 1   1.00000     0.00000
 Structure written by MMmdl.
 55 58  0  0  0  0  0  0  0  0  1 V2000
  153.2130  142.0416  161.9065 C   0  0  0  0  0  0  0  0  0  0  0  0
  152.6781  142.2865  160.5374 C   0  0  0  0  0  0  0  0  0  0  0  0
  151.9687  141.5294  159.6512 C   0  0  0  0  0  0  0  0  0  0  0  0
  151.7354  142.3332  158.4952 C   0  0  0  0  0  0  0  0  0  0  0  0
  150.9852  141.9144  157.2378 C   0  0  2  0  0  0  0  0  0  0  0  0
  151.3219  140.4537  156.8973 C   0  0  0  0  0  0  0  0  0  0  0  0
  151.3683  142.6655  156.1018 O   0  0  0  0  0  0  0  0  0  0  0  0
  149.4540  142.0934  157.3612 C   0  0  0  0  0  0  0  0  0  0  0  0
  148.8173  142.4343  156.0931 N   0  0  0  0  0  0  0  0  0  0  0  0
  148.1223  141.5023  155.4090 C   0  0  0  0  0  0  0  0  0  0  0  0
  148.2183  141.4084  154.0570 N   0  0  0  0  0  0  0  0  0  0  0  0
  147.5137  140.4809  153.4021 C   0  0  0  0  0  0  0  0  0  0  0  0
  146.6739  139.5687  153.8958 N   0  0  0  0  0  0  0  0  0  0  0  0
  146.5781  139.6558  155.2544 C   0  0  0  0  0  0  0  0  0  0  0  0
  147.2659  140.5903  156.0774 C   0  0  0  0  0  0  0  0  0  0  0  0
  146.9255  140.3873  157.4082 N   0  0  0  0  0  0  0  0  0  0  0  0
  146.0829  139.3903  157.3691 C   0  0  0  0  0  0  0  0  0  0  0  0
  145.8176  138.8889  156.1140 N   0  0  0  0  0  0  0  0  0  0  0  0
  144.9024  137.7631  155.7600 C   0  0  1  0  0  0  0  0  0  0  0  0
  143.5945  138.1757  155.9946 O   0  0  0  0  0  0  0  0  0  0  0  0
  142.7424  137.5751  155.0307 C   0  0  1  0  0  0  0  0  0  0  0  0
  141.3988  138.3199  154.9425 C   0  0  0  0  0  0  0  0  0  0  0  0
  140.8274  138.4411  156.2276 O   0  0  0  0  0  0  0  0  0  0  0  0
  143.5961  137.5835  153.7525 C   0  0  1  0  0  0  0  0  0  0  0  0
  143.4814  138.8089  153.0535 O   0  0  0  0  0  0  0  0  0  0  0  0
  145.0209  137.3936  154.2706 C   0  0  2  0  0  0  0  0  0  0  0  0
  145.4007  136.0406  154.1139 O   0  0  0  0  0  0  0  0  0  0  0  0
  152.3548  143.5286  158.7695 C   0  0  0  0  0  0  0  0  0  0  0  0
  152.5323  144.8008  158.0081 C   0  0  0  0  0  0  0  0  0  0  0  0
  152.9221  143.5113  160.0079 O   0  0  0  0  0  0  0  0  0  0  0  0
  145.1746  136.9524  156.4378 H   0  0  0  0  0  0  0  0  0  0  0  0
  142.5771  136.5353  155.3202 H   0  0  0  0  0  0  0  0  0  0  0  0
  143.2895  136.7909  153.0684 H   0  0  0  0  0  0  0  0  0  0  0  0
  145.7422  138.0319  153.7567 H   0  0  0  0  0  0  0  0  0  0  0  0
  152.9669  141.0356  162.2464 H   0  0  0  0  0  0  0  0  0  0  0  0
  152.7913  142.7512  162.6185 H   0  0  0  0  0  0  0  0  0  0  0  0
  154.2977  142.1485  161.9230 H   0  0  0  0  0  0  0  0  0  0  0  0
  151.6439  140.5128  159.8167 H   0  0  0  0  0  0  0  0  0  0  0  0
  151.0323  139.7835  157.7074 H   0  0  0  0  0  0  0  0  0  0  0  0
  152.3920  140.3221  156.7297 H   0  0  0  0  0  0  0  0  0  0  0  0
  150.8032  140.1221  155.9969 H   0  0  0  0  0  0  0  0  0  0  0  0
  150.8196  143.4331  156.0512 H   0  0  0  0  0  0  0  0  0  0  0  0
  148.9953  141.2024  157.7930 H   0  0  0  0  0  0  0  0  0  0  0  0
  149.2489  142.9140  158.0506 H   0  0  0  0  0  0  0  0  0  0  0  0
  148.8917  143.3997  155.8043 H   0  0  0  0  0  0  0  0  0  0  0  0
  147.6396  140.4676  152.3298 H   0  0  0  0  0  0  0  0  0  0  0  0
  145.6287  138.9892  158.2634 H   0  0  0  0  0  0  0  0  0  0  0  0
  141.5190  139.3037  154.4875 H   0  0  0  0  0  0  0  0  0  0  0  0
  140.6959  137.7579  154.3272 H   0  0  0  0  0  0  0  0  0  0  0  0
  139.9906  138.0019  156.2272 H   0  0  0  0  0  0  0  0  0  0  0  0
  143.7581  138.6745  152.1602 H   0  0  0  0  0  0  0  0  0  0  0  0
  146.3395  136.0019  154.0132 H   0  0  0  0  0  0  0  0  0  0  0  0
  152.9364  144.6033  157.0151 H   0  0  0  0  0  0  0  0  0  0  0  0
  153.2183  145.4758  158.5201 H   0  0  0  0  0  0  0  0  0  0  0  0
  151.5793  145.3161  157.8898 H   0  0  0  0  0  0  0  0  0  0  0  0
  1  2  1  0  0  0  0
  1 35  1  0  0  0  0
  1 36  1  0  0  0  0
  1 37  1  0  0  0  0
  2 30  1  0  0  0  0
  2  3  2  0  0  0  0
  3  4  1  0  0  0  0
  3 38  1  0  0  0  0
  4  5  1  0  0  0  0
  4 28  2  0  0  0  0
  5  6  1  0  0  0  0
  5  7  1  0  0  0  0
  5  8  1  0  0  0  0
  6 39  1  0  0  0  0
  6 40  1  0  0  0  0
  6 41  1  0  0  0  0
  7 42  1  0  0  0  0
  8  9  1  0  0  0  0
  8 43  1  0  0  0  0
  8 44  1  0  0  0  0
  9 10  1  0  0  0  0
  9 45  1  0  0  0  0
 10 15  1  0  0  0  0
 10 11  2  0  0  0  0
 11 12  1  0  0  0  0
 12 13  2  0  0  0  0
 12 46  1  0  0  0  0
 13 14  1  0  0  0  0
 14 18  1  0  0  0  0
 14 15  2  0  0  0  0
 15 16  1  0  0  0  0
 16 17  2  0  0  0  0
 17 18  1  0  0  0  0
 17 47  1  0  0  0  0
 18 19  1  0  0  0  0
 19 31  1  0  0  0  0
 19 26  1  0  0  0  0
 19 20  1  0  0  0  0
 20 21  1  0  0  0  0
 21 32  1  0  0  0  0
 21 22  1  0  0  0  0
 21 24  1  0  0  0  0
 22 23  1  0  0  0  0
 22 48  1  0  0  0  0
 22 49  1  0  0  0  0
 23 50  1  0  0  0  0
 24 33  1  0  0  0  0
 24 25  1  0  0  0  0
 24 26  1  0  0  0  0
 25 51  1  0  0  0  0
 26 34  1  0  0  0  0
 26 27  1  0  0  0  0
 27 52  1  0  0  0  0
 28 29  1  0  0  0  0
 28 30  1  0  0  0  0
 29 53  1  0  0  0  0
 29 54  1  0  0  0  0
 29 55  1  0  0  0  0
M  END
> <s_m_source_file>
AV-unprocessed.smi

> <i_m_source_file_index>
287

> <i_lp_mmshare_version>
43012

> <i_f3d_flags>
0

> <s_epik_input>
W0NIM11jMVtjSF1jKGMobzEpW0NIM10pW0NAQF0oW0NIM10pKFtPSF0pW0NIMl1bTkhdYyhuW2NIXW4yKWMoYzIzKW5bY0hdbjNbQ0BASF00T1tDQEhdKFtDSDJdW09IXSlbQ0BASF0oW09IXSlbQ0BIXTRbT0hd

> <s_epik_cmdline>
J2VwaWtfcHl0aG9uJywgJy1waCcsICc3LjAnLCAnLXRuJywgJzgnLCAnLW1hJywgJzIwMCcsICctbWV0YWxfYmluZGluZycsICctaW1hZScsICc8aW5maWxlLm1hZT4nLCAnLW9tYWUnLCAnPG91dGZpbGUubWFlPic=

> <r_lp_tautomer_probability>
1

> <r_epik_Ionization_Penalty>
0.000992612

> <r_epik_Ionization_Penalty_Charging>
0

> <r_epik_Ionization_Penalty_Neutral>
0.000992612

> <r_epik_State_Penalty>
-0

> <r_epik_Charging_Adjusted_Penalty>
0

> <i_epik_Tot_Q>
0

> <i_epik_Tot_abs_Q>
0

> <r_epik_Metal_State_Penalty>
-0

> <b_epik_Metal_Only>
0

> <s_epik_Chemistry_Notes>
This compound contains an acetal/aminal-like group ( X-CH(R)-Y where X, Y are N, S, or O) that may be acid/base labile, releasing an aldehyde.

> <s_lp_Force_Field>
OPLS_2005

> <r_lp_Energy>
38.4634

> <b_lp_Chiralities_Consistent>
1

> <s_lp_Variant>
AV-unprocessed.smi:287-24

> <Gold.Version>
5.8.1

> <Gold.Id.Protein>
6NUR|6NUR_protein|mol2

> <Gold.PLP.Fitness>
52.5365

> <Gold.PLP.PLP>
-40.8515

> <Gold.PLP.part.hbond>
-5.4369

> <Gold.PLP.part.metal>
0.0000

> <Gold.PLP.part.buried>
-6.4693

> <Gold.PLP.part.nonpolar>
-28.9406

> <Gold.PLP.part.repulsive>
0.4125

> <Gold.PLP.ligand.clash>
0.0000

> <Gold.PLP.ligand.torsion>
2.1965

> <Gold.PLP.Chemscore.Hbond>
4.6661

> <Gold.PLP.Chemscore.CHOScore>
0.6419

> <Gold.PLP.Chemscore.Metal>
0.0000

> <Gold.Chemscore.Hbonds>
donor molecule, donor type, donor heavy atom, donor atom, acceptor molecule, acceptor atom, score
      L1  H     7    42       P1  8028  0.21
      L1  H     9    45       P1  8028  0.49
      L1  H    25    51       P1 10171  0.24
      L1  C    12    46       P1  7957  0.96

> <Gold.PLP.Chemscore.Internal.Correction>
0.1544

> <Gold.Rescore>
     Score         DG    S(hbond)    S(metal)    S(lipo)     H(rot)  DE(clash)    DE(int)     intcor
     11.15     -16.03       4.00        0.00      91.13       5.27       0.21       4.67       ----

> <Gold.Chemscore.Fitness>
11.1502

> <Gold.Chemscore.DG>
-16.0300

> <Gold.Chemscore.ZeroCoef>
-5.4800

> <Gold.Chemscore.Hbond>
4.0034

> <Gold.Chemscore.Metal>
0.0000

> <Gold.Chemscore.Lipo>
91.1331

> <Gold.Chemscore.Internal_Hbond>
0.0000

> <Gold.Chemscore.DEClash>
0.2085

> <Gold.Chemscore.DEInternal>
4.6712

> <Gold.Chemscore.Rot>
5.2672

> <Gold.Chemscore.Internal.Correction>
   9.000000E+99

> <Gold.Chemscore.Hbonds>
donor molecule, donor type, donor heavy atom, donor atom, acceptor molecule, acceptor atom, score
      L1  H     7    42       P1  8028  0.23
      L1  H     9    45       P1  8028  0.48
      L1  H    25    51       P1 10171  0.20

> <Gold.Chemscore.Hbond.Weighted>
-13.3713

> <Gold.Chemscore.Metal.Weighted>
-0.0000

> <Gold.Chemscore.Lipo.Weighted>
-10.6626

> <Gold.Chemscore.Internal_Hbond.Weighted>
0.0000

> <Gold.Chemscore.DEClash.Weighted>
0.2085

> <Gold.Chemscore.DEInternal.Weighted>
4.6712

> <Gold.Chemscore.Rot.Weighted>
13.4839

> <Gold.Chemscore.Internal.Correction.Weighted>
   9.000000E+99

> <Gold.Protein.RotatedTorsions>
[ 6907 6896 6895 6894 ] final -172.55 input  -60.11 | X-H torsion
[ 7974 7965 7964 7962 ] final  122.94 input  175.53 | X-H torsion
[ 8008 7997 7996 7995 ] final  -71.52 input   59.86 | X-H torsion
[ 10167 10162 10161 10158 ] final  116.72 input  -65.29 | X-H torsion
[ 10718 10713 10712 10709 ] final  -31.50 input   66.30 | X-H torsion
[ 10763 10752 10751 10750 ] final   45.69 input  -60.55 | X-H torsion
[ 11005 11000 10999 10996 ] final  -87.72 input  -57.11 | X-H torsion

> <Gold.Protein.ActiveResidues>
 VAL166  LYS551  ARG553  GLY616  TRP617  ASP618  TYR619  PRO620  LYS621  CYS622 
 ASP623  PHE694  ASN695  SER759  ASP760  ASP761  ALA762  ILE779  LEU786  VAL792 
 PHE793  MET794  SER795  GLU796  ALA797  LYS798  CYS799  TRP800  GLU811  SER814 

> <Gold.Protein.RotatedAtoms>
  151.5417  133.3431  159.2936 H   0  0  0  0  0  0  0  0  0  0  0  0  # atno 6907 bound_to 6896
  150.8531  134.7865  159.7036 H   0  0  0  0  0  0  0  0  0  0  0  0  # atno 6908 bound_to 6896
  152.4572  134.5273  159.9852 H   0  0  0  0  0  0  0  0  0  0  0  0  # atno 6909 bound_to 6896
  145.1017  139.3514  143.4809 H   0  0  0  0  0  0  0  0  0  0  0  0  # atno 7974 bound_to 7965
  154.5094  140.0814  156.7959 H   0  0  0  0  0  0  0  0  0  0  0  0  # atno 8008 bound_to 7997
  155.3819  140.3428  155.4229 H   0  0  0  0  0  0  0  0  0  0  0  0  # atno 8009 bound_to 7997
  156.1555  140.1572  156.8687 H   0  0  0  0  0  0  0  0  0  0  0  0  # atno 8010 bound_to 7997
  139.6228  144.7104  151.2598 H   0  0  0  0  0  0  0  0  0  0  0  0  # atno 10167 bound_to 10162
  156.3865  130.4365  149.7427 H   0  0  0  0  0  0  0  0  0  0  0  0  # atno 10718 bound_to 10713
  152.9821  135.6031  154.3478 H   0  0  0  0  0  0  0  0  0  0  0  0  # atno 10763 bound_to 10752
  154.3170  135.2770  155.2540 H   0  0  0  0  0  0  0  0  0  0  0  0  # atno 10764 bound_to 10752
  154.4724  135.5938  153.6386 H   0  0  0  0  0  0  0  0  0  0  0  0  # atno 10765 bound_to 10752
  141.1613  133.7528  156.9347 H   0  0  0  0  0  0  0  0  0  0  0  0  # atno 11005 bound_to 11000
  146.3529  140.0897  142.8613 LP  0  0  0  0  0  0  0  0  0  0  0  0  # atno 17320 bound_to 7965
  145.0948  140.9308  143.4747 LP  0  0  0  0  0  0  0  0  0  0  0  0  # atno 17321 bound_to 7965
  140.7392  143.6624  150.8153 LP  0  0  0  0  0  0  0  0  0  0  0  0  # atno 17342 bound_to 10162
  140.0237  143.5515  152.2789 LP  0  0  0  0  0  0  0  0  0  0  0  0  # atno 17343 bound_to 10162
  156.4497  130.7901  151.2922 LP  0  0  0  0  0  0  0  0  0  0  0  0  # atno 17370 bound_to 10713
  157.7496  131.0099  150.3285 LP  0  0  0  0  0  0  0  0  0  0  0  0  # atno 17371 bound_to 10713
  140.1362  134.9323  157.2405 LP  0  0  0  0  0  0  0  0  0  0  0  0  # atno 17394 bound_to 11000
  140.2892  134.3260  155.7320 LP  0  0  0  0  0  0  0  0  0  0  0  0  # atno 17395 bound_to 11000

$$$$
