AV-unprocessed.smi:556|AV-procd|sdf|2912|dock8
  -GOLD-   2262023403D 1   1.00000     0.00000
 Structure written by MMmdl.
 38 39  0  0  0  0  0  0  0  0  1 V2000
  152.5012  144.3942  158.2739 C   0  0  0  0  0  0  0  0  0  0  0  0
  151.5859  143.4856  159.1120 C   0  0  2  0  0  0  0  0  0  0  0  0
  150.9565  144.2022  160.3257 C   0  0  0  0  0  0  0  0  0  0  0  0
  151.9082  144.3982  161.3607 O   0  0  0  0  0  0  0  0  0  0  0  0
  152.4251  143.1655  161.8367 C   0  0  0  0  0  0  0  0  0  0  0  0
  153.1774  142.4642  160.6978 C   0  0  0  0  0  0  0  0  0  0  0  0
  152.2975  142.2574  159.5352 N   0  0  0  0  0  0  0  0  0  0  0  0
  152.1962  141.0397  158.9400 C   0  0  0  0  0  0  0  0  0  0  0  0
  152.8310  140.0498  159.3073 O   0  0  0  0  0  0  0  0  0  0  0  0
  151.3808  140.9987  157.8733 N   0  0  0  0  0  0  0  0  0  0  0  0
  151.1330  139.8151  157.0623 C   0  0  0  0  0  0  0  0  0  0  0  0
  151.2201  140.1578  155.5695 C   0  0  0  0  0  0  0  0  0  0  0  0
  149.8576  140.2268  154.9386 C   0  0  0  0  0  0  0  0  0  0  0  0
  149.0926  139.1561  154.3939 C   0  0  0  0  0  0  0  0  0  0  0  0
  147.9260  139.5504  153.9102 N   0  0  0  0  0  0  0  0  0  0  0  0
  147.9047  140.8812  154.1290 N   0  0  0  0  0  0  0  0  0  0  0  0
  146.7515  141.6525  153.7180 C   0  0  0  0  0  0  0  0  0  0  0  0
  149.0571  141.3175  154.7469 C   0  0  0  0  0  0  0  0  0  0  0  0
  151.9557  145.2633  157.9052 H   0  0  0  0  0  0  0  0  0  0  0  0
  152.8968  143.8634  157.4076 H   0  0  0  0  0  0  0  0  0  0  0  0
  153.3470  144.7617  158.8556 H   0  0  0  0  0  0  0  0  0  0  0  0
  150.7352  143.2413  158.4752 H   0  0  0  0  0  0  0  0  0  0  0  0
  150.5511  145.1696  160.0284 H   0  0  0  0  0  0  0  0  0  0  0  0
  150.1172  143.6226  160.7136 H   0  0  0  0  0  0  0  0  0  0  0  0
  153.1031  143.3651  162.6666 H   0  0  0  0  0  0  0  0  0  0  0  0
  151.6221  142.5363  162.2247 H   0  0  0  0  0  0  0  0  0  0  0  0
  154.0298  143.0702  160.3898 H   0  0  0  0  0  0  0  0  0  0  0  0
  153.5998  141.5356  161.0835 H   0  0  0  0  0  0  0  0  0  0  0  0
  150.9018  141.8466  157.6072 H   0  0  0  0  0  0  0  0  0  0  0  0
  151.8623  139.0428  157.3123 H   0  0  0  0  0  0  0  0  0  0  0  0
  150.1449  139.4182  157.3008 H   0  0  0  0  0  0  0  0  0  0  0  0
  151.7424  141.1076  155.4474 H   0  0  0  0  0  0  0  0  0  0  0  0
  151.8377  139.4134  155.0650 H   0  0  0  0  0  0  0  0  0  0  0  0
  149.3509  138.1090  154.3358 H   0  0  0  0  0  0  0  0  0  0  0  0
  146.8639  142.6905  154.0325 H   0  0  0  0  0  0  0  0  0  0  0  0
  145.8498  141.2408  154.1728 H   0  0  0  0  0  0  0  0  0  0  0  0
  146.6532  141.6189  152.6326 H   0  0  0  0  0  0  0  0  0  0  0  0
  149.2111  142.3570  154.9967 H   0  0  0  0  0  0  0  0  0  0  0  0
  1  2  1  0  0  0  0
  1 19  1  0  0  0  0
  1 20  1  0  0  0  0
  1 21  1  0  0  0  0
  2  7  1  0  0  0  0
  2  3  1  0  0  0  0
  2 22  1  0  0  0  0
  3  4  1  0  0  0  0
  3 23  1  0  0  0  0
  3 24  1  0  0  0  0
  4  5  1  0  0  0  0
  5  6  1  0  0  0  0
  5 25  1  0  0  0  0
  5 26  1  0  0  0  0
  6  7  1  0  0  0  0
  6 27  1  0  0  0  0
  6 28  1  0  0  0  0
  7  8  1  0  0  0  0
  8  9  2  0  0  0  0
  8 10  1  0  0  0  0
 10 11  1  0  0  0  0
 10 29  1  0  0  0  0
 11 12  1  0  0  0  0
 11 30  1  0  0  0  0
 11 31  1  0  0  0  0
 12 13  1  0  0  0  0
 12 32  1  0  0  0  0
 12 33  1  0  0  0  0
 13 18  2  0  0  0  0
 13 14  1  0  0  0  0
 14 15  2  0  0  0  0
 14 34  1  0  0  0  0
 15 16  1  0  0  0  0
 16 17  1  0  0  0  0
 16 18  1  0  0  0  0
 17 35  1  0  0  0  0
 17 36  1  0  0  0  0
 17 37  1  0  0  0  0
 18 38  1  0  0  0  0
M  END
> <s_m_source_file>
AV-unprocessed.smi

> <i_m_source_file_index>
556

> <i_lp_mmshare_version>
43012

> <i_f3d_flags>
0

> <s_epik_input>
W0NIM11bQ0BASF0xW0NIMl1PW0NIMl1bQ0gyXU4xQyg9TylbTkhdW0NIMl1bQ0gyXWMyW2NIXW5uKFtDSDNdKVtjSF0y

> <s_epik_cmdline>
J2VwaWtfcHl0aG9uJywgJy1waCcsICc3LjAnLCAnLXRuJywgJzgnLCAnLW1hJywgJzIwMCcsICctbWV0YWxfYmluZGluZycsICctaW1hZScsICc8aW5maWxlLm1hZT4nLCAnLW9tYWUnLCAnPG91dGZpbGUubWFlPic=

> <r_lp_tautomer_probability>
1

> <r_epik_Ionization_Penalty>
0.000536334

> <r_epik_Ionization_Penalty_Charging>
0

> <r_epik_Ionization_Penalty_Neutral>
0.000536334

> <r_epik_State_Penalty>
-0

> <r_epik_Charging_Adjusted_Penalty>
0

> <i_epik_Tot_Q>
0

> <i_epik_Tot_abs_Q>
0

> <r_epik_Metal_State_Penalty>
-0

> <b_epik_Metal_Only>
0

> <s_lp_Force_Field>
OPLS_2005

> <r_lp_Energy>
29.3296

> <b_lp_Chiralities_Consistent>
1

> <s_lp_Variant>
AV-unprocessed.smi:556-1

> <Gold.Version>
5.8.1

> <Gold.Id.Protein>
6NUR|6NUR_protein|mol2

> <Gold.PLP.Fitness>
45.5950

> <Gold.PLP.PLP>
-44.1060

> <Gold.PLP.part.hbond>
0.0000

> <Gold.PLP.part.metal>
0.0000

> <Gold.PLP.part.buried>
-3.6957

> <Gold.PLP.part.nonpolar>
-40.1687

> <Gold.PLP.part.repulsive>
0.4009

> <Gold.PLP.ligand.clash>
0.0000

> <Gold.PLP.ligand.torsion>
0.7601

> <Gold.PLP.Chemscore.Hbond>
0.0000

> <Gold.PLP.Chemscore.CHOScore>
1.0000

> <Gold.PLP.Chemscore.Metal>
0.0000

> <Gold.Chemscore.Hbonds>
donor molecule, donor type, donor heavy atom, donor atom, acceptor molecule, acceptor atom, score
      L1  C    18    38       P1  8028  1.00

> <Gold.PLP.Chemscore.Internal.Correction>
0.0091

> <Gold.Rescore>
     Score         DG    S(hbond)    S(metal)    S(lipo)     H(rot)  DE(clash)    DE(int)     intcor
     12.71     -13.59       0.00        0.00      99.98       1.40       0.10       0.79       ----

> <Gold.Chemscore.Fitness>
12.7094

> <Gold.Chemscore.DG>
-13.5929

> <Gold.Chemscore.ZeroCoef>
-5.4800

> <Gold.Chemscore.Hbond>
0.0000

> <Gold.Chemscore.Metal>
0.0000

> <Gold.Chemscore.Lipo>
99.9751

> <Gold.Chemscore.Internal_Hbond>
0.0000

> <Gold.Chemscore.DEClash>
0.0972

> <Gold.Chemscore.DEInternal>
0.7863

> <Gold.Chemscore.Rot>
1.4001

> <Gold.Chemscore.Internal.Correction>
   9.000000E+99

> <Gold.Chemscore.Hbond.Weighted>
-0.0000

> <Gold.Chemscore.Metal.Weighted>
-0.0000

> <Gold.Chemscore.Lipo.Weighted>
-11.6971

> <Gold.Chemscore.Internal_Hbond.Weighted>
0.0000

> <Gold.Chemscore.DEClash.Weighted>
0.0972

> <Gold.Chemscore.DEInternal.Weighted>
0.7863

> <Gold.Chemscore.Rot.Weighted>
3.5842

> <Gold.Chemscore.Internal.Correction.Weighted>
   9.000000E+99

> <Gold.Protein.RotatedTorsions>
[ 6907 6896 6895 6894 ] final  -17.22 input  -60.11 | X-H torsion
[ 7974 7965 7964 7962 ] final  145.33 input  175.53 | X-H torsion
[ 8008 7997 7996 7995 ] final   -7.39 input   59.86 | X-H torsion
[ 10167 10162 10161 10158 ] final -162.33 input  -65.29 | X-H torsion
[ 10718 10713 10712 10709 ] final  -29.53 input   66.30 | X-H torsion
[ 10763 10752 10751 10750 ] final  -73.08 input  -60.55 | X-H torsion
[ 11005 11000 10999 10996 ] final   34.17 input  -57.11 | X-H torsion

> <Gold.Protein.ActiveResidues>
 VAL166  LYS551  ARG553  GLY616  TRP617  ASP618  TYR619  PRO620  LYS621  CYS622 
 ASP623  PHE694  ASN695  SER759  ASP760  ASP761  ALA762  ILE779  LEU786  VAL792 
 PHE793  MET794  SER795  GLU796  ALA797  LYS798  CYS799  TRP800  GLU811  SER814 

> <Gold.Protein.RotatedAtoms>
  151.2966  135.0757  159.9223 H   0  0  0  0  0  0  0  0  0  0  0  0  # atno 6907 bound_to 6896
  152.5306  133.9876  159.7846 H   0  0  0  0  0  0  0  0  0  0  0  0  # atno 6908 bound_to 6896
  151.0155  133.5873  159.2708 H   0  0  0  0  0  0  0  0  0  0  0  0  # atno 6909 bound_to 6896
  144.8762  139.5770  143.5864 H   0  0  0  0  0  0  0  0  0  0  0  0  # atno 7974 bound_to 7965
  154.5843  140.2408  155.8009 H   0  0  0  0  0  0  0  0  0  0  0  0  # atno 8008 bound_to 7997
  156.2202  140.3000  155.9890 H   0  0  0  0  0  0  0  0  0  0  0  0  # atno 8009 bound_to 7997
  155.2485  140.0410  157.2974 H   0  0  0  0  0  0  0  0  0  0  0  0  # atno 8010 bound_to 7997
  139.6400  144.0277  152.2084 H   0  0  0  0  0  0  0  0  0  0  0  0  # atno 10167 bound_to 10162
  156.4113  130.4408  149.7250 H   0  0  0  0  0  0  0  0  0  0  0  0  # atno 10718 bound_to 10713
  154.4545  135.5909  153.6214 H   0  0  0  0  0  0  0  0  0  0  0  0  # atno 10763 bound_to 10752
  152.9817  135.6029  154.3563 H   0  0  0  0  0  0  0  0  0  0  0  0  # atno 10764 bound_to 10752
  154.3428  135.2841  155.2392 H   0  0  0  0  0  0  0  0  0  0  0  0  # atno 10765 bound_to 10752
  140.2556  134.3252  155.7875 H   0  0  0  0  0  0  0  0  0  0  0  0  # atno 11005 bound_to 11000
  146.2964  139.7290  142.9124 LP  0  0  0  0  0  0  0  0  0  0  0  0  # atno 17320 bound_to 7965
  145.4039  141.0388  143.3055 LP  0  0  0  0  0  0  0  0  0  0  0  0  # atno 17321 bound_to 7965
  139.9964  144.6324  150.7768 LP  0  0  0  0  0  0  0  0  0  0  0  0  # atno 17342 bound_to 10162
  140.7486  143.2924  151.3294 LP  0  0  0  0  0  0  0  0  0  0  0  0  # atno 17343 bound_to 10162
  156.4228  130.7777  151.2794 LP  0  0  0  0  0  0  0  0  0  0  0  0  # atno 17370 bound_to 10713
  157.7507  131.0178  150.3599 LP  0  0  0  0  0  0  0  0  0  0  0  0  # atno 17371 bound_to 10713
  141.2196  133.7379  156.9106 LP  0  0  0  0  0  0  0  0  0  0  0  0  # atno 17394 bound_to 11000
  140.1515  134.9227  157.2598 LP  0  0  0  0  0  0  0  0  0  0  0  0  # atno 17395 bound_to 11000

$$$$
