AV-unprocessed.smi:2113|AV-procd|sdf|8616|dock3
  -GOLD-   2272011353D 1   1.00000     0.00000
 Structure written by MMmdl.
 44 45  0  0  0  0  0  0  0  0  1 V2000
  146.5018  142.9774  153.9214 C   0  0  0  0  0  0  0  0  0  0  0  0
  147.4329  141.7680  154.0296 C   0  0  0  0  0  0  0  0  0  0  0  0
  147.1968  140.9107  152.9190 O   0  0  0  0  0  0  0  0  0  0  0  0
  146.9839  139.5374  153.2368 C   0  0  1  0  0  0  0  0  0  0  0  0
  146.7879  138.7813  151.9144 C   0  0  0  0  0  0  0  0  0  0  0  0
  148.1756  138.9755  154.0279 C   0  0  0  0  0  0  0  0  0  0  0  0
  148.0098  138.5156  155.1581 O   0  0  0  0  0  0  0  0  0  0  0  0
  149.3706  139.0156  153.4184 N   0  0  0  0  0  0  0  0  0  0  0  0
  150.6227  138.5622  154.0136 C   0  0  0  0  0  0  0  0  0  0  0  0
  151.0116  139.3489  155.2542 C   0  0  0  0  0  0  0  0  0  0  0  0
  150.3065  140.5075  155.6363 C   0  0  0  0  0  0  0  0  0  0  0  0
  150.6989  141.1921  156.8020 C   0  0  0  0  0  0  0  0  0  0  0  0
  151.7902  140.7002  157.5572 C   0  0  0  0  0  0  0  0  0  0  0  0
  152.1938  141.3640  158.7357 N   0  0  0  0  0  0  0  0  0  0  0  0
  152.2351  142.8221  158.6619 C   0  0  0  0  0  0  0  0  0  0  0  0
  152.3740  143.4257  160.0702 C   0  0  0  0  0  0  0  0  0  0  0  0
  153.5108  142.8710  160.7237 O   0  0  0  0  0  0  0  0  0  0  0  0
  153.3938  141.4612  160.8841 C   0  0  0  0  0  0  0  0  0  0  0  0
  153.2968  140.7896  159.5040 C   0  0  0  0  0  0  0  0  0  0  0  0
  152.4664  139.5853  157.1836 N   0  0  0  0  0  0  0  0  0  0  0  0
  152.0877  138.9340  156.0638 C   0  0  0  0  0  0  0  0  0  0  0  0
  146.6497  143.6593  154.7587 H   0  0  0  0  0  0  0  0  0  0  0  0
  145.4563  142.6679  153.9226 H   0  0  0  0  0  0  0  0  0  0  0  0
  146.6862  143.5324  153.0014 H   0  0  0  0  0  0  0  0  0  0  0  0
  148.4692  142.1068  154.0500 H   0  0  0  0  0  0  0  0  0  0  0  0
  147.2402  141.2372  154.9627 H   0  0  0  0  0  0  0  0  0  0  0  0
  146.0695  139.4388  153.8253 H   0  0  0  0  0  0  0  0  0  0  0  0
  146.6372  137.7151  152.0861 H   0  0  0  0  0  0  0  0  0  0  0  0
  147.6484  138.8963  151.2540 H   0  0  0  0  0  0  0  0  0  0  0  0
  145.9136  139.1550  151.3813 H   0  0  0  0  0  0  0  0  0  0  0  0
  149.4178  139.4008  152.4864 H   0  0  0  0  0  0  0  0  0  0  0  0
  150.5615  137.4967  154.2423 H   0  0  0  0  0  0  0  0  0  0  0  0
  151.4144  138.6742  153.2726 H   0  0  0  0  0  0  0  0  0  0  0  0
  149.4729  140.8654  155.0501 H   0  0  0  0  0  0  0  0  0  0  0  0
  150.1503  142.0691  157.1112 H   0  0  0  0  0  0  0  0  0  0  0  0
  153.0840  143.1183  158.0443 H   0  0  0  0  0  0  0  0  0  0  0  0
  151.3423  143.2287  158.1894 H   0  0  0  0  0  0  0  0  0  0  0  0
  152.4958  144.5069  160.0043 H   0  0  0  0  0  0  0  0  0  0  0  0
  151.4755  143.2420  160.6618 H   0  0  0  0  0  0  0  0  0  0  0  0
  154.2670  141.0903  161.4209 H   0  0  0  0  0  0  0  0  0  0  0  0
  152.5208  141.2244  161.4947 H   0  0  0  0  0  0  0  0  0  0  0  0
  153.1488  139.7168  159.6342 H   0  0  0  0  0  0  0  0  0  0  0  0
  154.2296  140.9270  158.9555 H   0  0  0  0  0  0  0  0  0  0  0  0
  152.6571  138.0511  155.8141 H   0  0  0  0  0  0  0  0  0  0  0  0
  1  2  1  0  0  0  0
  1 22  1  0  0  0  0
  1 23  1  0  0  0  0
  1 24  1  0  0  0  0
  2  3  1  0  0  0  0
  2 25  1  0  0  0  0
  2 26  1  0  0  0  0
  3  4  1  0  0  0  0
  4  5  1  0  0  0  0
  4  6  1  0  0  0  0
  4 27  1  0  0  0  0
  5 28  1  0  0  0  0
  5 29  1  0  0  0  0
  5 30  1  0  0  0  0
  6  7  2  0  0  0  0
  6  8  1  0  0  0  0
  8  9  1  0  0  0  0
  8 31  1  0  0  0  0
  9 10  1  0  0  0  0
  9 32  1  0  0  0  0
  9 33  1  0  0  0  0
 10 21  1  0  0  0  0
 10 11  2  0  0  0  0
 11 12  1  0  0  0  0
 11 34  1  0  0  0  0
 12 13  2  0  0  0  0
 12 35  1  0  0  0  0
 13 14  1  0  0  0  0
 13 20  1  0  0  0  0
 14 19  1  0  0  0  0
 14 15  1  0  0  0  0
 15 16  1  0  0  0  0
 15 36  1  0  0  0  0
 15 37  1  0  0  0  0
 16 17  1  0  0  0  0
 16 38  1  0  0  0  0
 16 39  1  0  0  0  0
 17 18  1  0  0  0  0
 18 19  1  0  0  0  0
 18 40  1  0  0  0  0
 18 41  1  0  0  0  0
 19 42  1  0  0  0  0
 19 43  1  0  0  0  0
 20 21  2  0  0  0  0
 21 44  1  0  0  0  0
M  END
> <s_m_source_file>
AV-unprocessed.smi

> <i_m_source_file_index>
2113

> <i_lp_mmshare_version>
43012

> <i_f3d_flags>
0

> <s_epik_input>
W0NIM11bQ0gyXU9bQ0BIXShbQ0gzXSlDKD1PKVtOSF1bQ0gyXWMxW2NIXVtjSF1jKG5bY0hdMSlOMltDSDJdW0NIMl1PW0NIMl1bQ0gyXTI=

> <s_epik_cmdline>
J2VwaWtfcHl0aG9uJywgJy1waCcsICc3LjAnLCAnLXRuJywgJzgnLCAnLW1hJywgJzIwMCcsICctbWV0YWxfYmluZGluZycsICctaW1hZScsICc8aW5maWxlLm1hZT4nLCAnLW9tYWUnLCAnPG91dGZpbGUubWFlPic=

> <r_lp_tautomer_probability>
1

> <r_epik_Ionization_Penalty>
0.00454344

> <r_epik_Ionization_Penalty_Charging>
0

> <r_epik_Ionization_Penalty_Neutral>
0.00454344

> <r_epik_State_Penalty>
0.00328127

> <r_epik_Charging_Adjusted_Penalty>
0.00328127

> <i_epik_Tot_Q>
0

> <i_epik_Tot_abs_Q>
0

> <r_epik_Metal_State_Penalty>
-0

> <b_epik_Metal_Only>
0

> <s_lp_Force_Field>
OPLS_2005

> <r_lp_Energy>
17.3963

> <b_lp_Chiralities_Consistent>
1

> <s_lp_Variant>
AV-unprocessed.smi:2113-2

> <Gold.Version>
5.8.1

> <Gold.Id.Protein>
6NUR|6NUR_protein|mol2

> <Gold.PLP.Fitness>
48.0760

> <Gold.PLP.PLP>
-43.1156

> <Gold.PLP.part.hbond>
-2.4482

> <Gold.PLP.part.metal>
0.0000

> <Gold.PLP.part.buried>
-3.9567

> <Gold.PLP.part.nonpolar>
-37.9916

> <Gold.PLP.part.repulsive>
0.3600

> <Gold.PLP.ligand.clash>
0.0000

> <Gold.PLP.ligand.torsion>
0.6652

> <Gold.PLP.Chemscore.Hbond>
1.9588

> <Gold.PLP.Chemscore.CHOScore>
0.0000

> <Gold.PLP.Chemscore.Metal>
0.0000

> <Gold.Chemscore.Hbonds>
donor molecule, donor type, donor heavy atom, donor atom, acceptor molecule, acceptor atom, score
      L1  H     8    31       P1  7957  0.88
      P1  H  7997  8010       L1    20  0.94

> <Gold.PLP.Chemscore.Internal.Correction>
0.4145

> <Gold.Rescore>
     Score         DG    S(hbond)    S(metal)    S(lipo)     H(rot)  DE(clash)    DE(int)     intcor
     16.89     -17.66       1.44        0.00     104.35       1.90       0.13       0.64       ----

> <Gold.Chemscore.Fitness>
16.8880

> <Gold.Chemscore.DG>
-17.6573

> <Gold.Chemscore.ZeroCoef>
-5.4800

> <Gold.Chemscore.Hbond>
1.4429

> <Gold.Chemscore.Metal>
0.0000

> <Gold.Chemscore.Lipo>
104.3545

> <Gold.Chemscore.Internal_Hbond>
0.0000

> <Gold.Chemscore.DEClash>
0.1261

> <Gold.Chemscore.DEInternal>
0.6433

> <Gold.Chemscore.Rot>
1.8952

> <Gold.Chemscore.Internal.Correction>
   9.000000E+99

> <Gold.Chemscore.Hbonds>
donor molecule, donor type, donor heavy atom, donor atom, acceptor molecule, acceptor atom, score
      L1  H     8    31       P1  7957  0.84
      P1  H  7997  8010       L1    20  0.23

> <Gold.Chemscore.Hbond.Weighted>
-4.8194

> <Gold.Chemscore.Metal.Weighted>
-0.0000

> <Gold.Chemscore.Lipo.Weighted>
-12.2095

> <Gold.Chemscore.Internal_Hbond.Weighted>
0.0000

> <Gold.Chemscore.DEClash.Weighted>
0.1261

> <Gold.Chemscore.DEInternal.Weighted>
0.6433

> <Gold.Chemscore.Rot.Weighted>
4.8516

> <Gold.Chemscore.Internal.Correction.Weighted>
   9.000000E+99

> <Gold.Protein.RotatedTorsions>
[ 6907 6896 6895 6894 ] final  143.59 input  -60.11 | X-H torsion
[ 7974 7965 7964 7962 ] final  -60.01 input  175.53 | X-H torsion
[ 8008 7997 7996 7995 ] final   52.96 input   59.86 | X-H torsion
[ 10167 10162 10161 10158 ] final  -33.55 input  -65.29 | X-H torsion
[ 10718 10713 10712 10709 ] final  -87.62 input   66.30 | X-H torsion
[ 10763 10752 10751 10750 ] final  -31.08 input  -60.55 | X-H torsion
[ 11005 11000 10999 10996 ] final   77.03 input  -57.11 | X-H torsion

> <Gold.Protein.ActiveResidues>
 VAL166  LYS551  ARG553  GLY616  TRP617  ASP618  TYR619  PRO620  LYS621  CYS622 
 ASP623  PHE694  ASN695  SER759  ASP760  ASP761  ALA762  ILE779  LEU786  VAL792 
 PHE793  MET794  SER795  GLU796  ALA797  LYS798  CYS799  TRP800  GLU811  SER814 

> <Gold.Protein.RotatedAtoms>
  152.2044  133.4864  159.5075 H   0  0  0  0  0  0  0  0  0  0  0  0  # atno 6907 bound_to 6896
  150.6976  134.1549  159.4163 H   0  0  0  0  0  0  0  0  0  0  0  0  # atno 6908 bound_to 6896
  151.9467  135.0188  160.0590 H   0  0  0  0  0  0  0  0  0  0  0  0  # atno 6909 bound_to 6896
  145.8206  140.8543  143.0135 H   0  0  0  0  0  0  0  0  0  0  0  0  # atno 7974 bound_to 7965
  155.4604  140.3461  155.4312 H   0  0  0  0  0  0  0  0  0  0  0  0  # atno 8008 bound_to 7997
  156.1164  140.1475  156.9296 H   0  0  0  0  0  0  0  0  0  0  0  0  # atno 8009 bound_to 7997
  154.4792  140.0875  156.7316 H   0  0  0  0  0  0  0  0  0  0  0  0  # atno 8010 bound_to 7997
  140.7202  143.3612  151.1959 H   0  0  0  0  0  0  0  0  0  0  0  0  # atno 10167 bound_to 10162
  155.9985  130.4806  150.4895 H   0  0  0  0  0  0  0  0  0  0  0  0  # atno 10718 bound_to 10713
  153.7915  135.6897  153.4871 H   0  0  0  0  0  0  0  0  0  0  0  0  # atno 10763 bound_to 10752
  153.1746  135.4529  154.9947 H   0  0  0  0  0  0  0  0  0  0  0  0  # atno 10764 bound_to 10752
  154.8042  135.3350  154.7411 H   0  0  0  0  0  0  0  0  0  0  0  0  # atno 10765 bound_to 10752
  139.9272  134.7649  156.1470 H   0  0  0  0  0  0  0  0  0  0  0  0  # atno 11005 bound_to 11000
  144.6748  140.0527  143.7478 LP  0  0  0  0  0  0  0  0  0  0  0  0  # atno 17320 bound_to 7965
  145.9679  139.2848  143.1116 LP  0  0  0  0  0  0  0  0  0  0  0  0  # atno 17321 bound_to 7965
  139.7164  143.9293  152.2968 LP  0  0  0  0  0  0  0  0  0  0  0  0  # atno 17342 bound_to 10162
  139.9035  144.6898  150.8639 LP  0  0  0  0  0  0  0  0  0  0  0  0  # atno 17343 bound_to 10162
  157.2892  131.0623  151.2145 LP  0  0  0  0  0  0  0  0  0  0  0  0  # atno 17370 bound_to 10713
  157.3164  130.6915  149.6244 LP  0  0  0  0  0  0  0  0  0  0  0  0  # atno 17371 bound_to 10713
  141.0838  133.6743  156.2392 LP  0  0  0  0  0  0  0  0  0  0  0  0  # atno 17394 bound_to 11000
  140.6302  134.5272  157.5558 LP  0  0  0  0  0  0  0  0  0  0  0  0  # atno 17395 bound_to 11000

$$$$
