AV-unprocessed.smi:1983|AV-procd|sdf|8028|dock3
  -GOLD-   2272010223D 1   1.00000     0.00000
 Structure written by MMmdl.
 49 50  0  0  0  0  0  0  0  0  1 V2000
  151.1098  135.4126  156.1808 C   0  0  0  0  0  0  0  0  0  0  0  0
  149.8222  135.0459  155.4220 C   0  0  2  0  0  0  0  0  0  0  0  0
  149.9874  133.7731  154.5736 C   0  0  0  0  0  0  0  0  0  0  0  0
  149.1046  133.7928  153.4720 O   0  0  0  0  0  0  0  0  0  0  0  0
  149.4159  136.1486  154.5549 N   0  0  0  0  0  0  0  0  0  0  0  0
  149.1664  137.4026  154.9576 C   0  0  0  0  0  0  0  0  0  0  0  0
  149.2484  137.7841  156.1251 O   0  0  0  0  0  0  0  0  0  0  0  0
  148.8275  138.1946  153.9306 N   0  0  0  0  0  0  0  0  0  0  0  0
  148.5173  139.6177  154.0357 C   0  0  0  0  0  0  0  0  0  0  0  0
  149.2605  140.3673  155.1357 C   0  0  0  0  0  0  0  0  0  0  0  0
  148.6059  140.9716  156.2314 C   0  0  0  0  0  0  0  0  0  0  0  0
  149.3737  141.6395  157.2043 C   0  0  0  0  0  0  0  0  0  0  0  0
  150.7802  141.6859  157.0626 C   0  0  0  0  0  0  0  0  0  0  0  0
  151.5658  142.3528  158.0268 N   0  0  0  0  0  0  0  0  0  0  0  0
  151.1663  143.7017  158.4213 C   0  0  0  0  0  0  0  0  0  0  0  0
  152.2835  144.3736  159.2405 C   0  0  1  0  0  0  0  0  0  0  0  0
  151.8630  145.7490  159.7683 C   0  0  0  0  0  0  0  0  0  0  0  0
  152.6057  143.5453  160.3543 O   0  0  0  0  0  0  0  0  0  0  0  0
  153.0959  142.2669  159.9586 C   0  0  1  0  0  0  0  0  0  0  0  0
  153.4932  141.4945  161.2208 C   0  0  0  0  0  0  0  0  0  0  0  0
  152.0096  141.5321  159.1499 C   0  0  0  0  0  0  0  0  0  0  0  0
  151.4074  141.0947  156.0159 N   0  0  0  0  0  0  0  0  0  0  0  0
  150.6660  140.4594  155.0841 C   0  0  0  0  0  0  0  0  0  0  0  0
  151.4182  134.6058  156.8460 H   0  0  0  0  0  0  0  0  0  0  0  0
  150.9680  136.3025  156.7946 H   0  0  0  0  0  0  0  0  0  0  0  0
  151.9337  135.6098  155.4941 H   0  0  0  0  0  0  0  0  0  0  0  0
  149.0246  134.8686  156.1464 H   0  0  0  0  0  0  0  0  0  0  0  0
  151.0033  133.7057  154.1820 H   0  0  0  0  0  0  0  0  0  0  0  0
  149.8120  132.8766  155.1694 H   0  0  0  0  0  0  0  0  0  0  0  0
  148.9904  134.6887  153.1938 H   0  0  0  0  0  0  0  0  0  0  0  0
  149.3237  135.9400  153.5715 H   0  0  0  0  0  0  0  0  0  0  0  0
  148.7886  137.7878  153.0075 H   0  0  0  0  0  0  0  0  0  0  0  0
  148.7655  140.0835  153.0819 H   0  0  0  0  0  0  0  0  0  0  0  0
  147.4430  139.7551  154.1717 H   0  0  0  0  0  0  0  0  0  0  0  0
  147.5327  140.9297  156.3405 H   0  0  0  0  0  0  0  0  0  0  0  0
  148.8798  142.0928  158.0507 H   0  0  0  0  0  0  0  0  0  0  0  0
  150.9528  144.3029  157.5364 H   0  0  0  0  0  0  0  0  0  0  0  0
  150.2489  143.6475  159.0094 H   0  0  0  0  0  0  0  0  0  0  0  0
  153.1720  144.4984  158.6185 H   0  0  0  0  0  0  0  0  0  0  0  0
  151.6215  146.4265  158.9489 H   0  0  0  0  0  0  0  0  0  0  0  0
  152.6645  146.2042  160.3506 H   0  0  0  0  0  0  0  0  0  0  0  0
  150.9856  145.6735  160.4115 H   0  0  0  0  0  0  0  0  0  0  0  0
  153.9851  142.4018  159.3401 H   0  0  0  0  0  0  0  0  0  0  0  0
  153.8872  140.5094  160.9704 H   0  0  0  0  0  0  0  0  0  0  0  0
  152.6382  141.3550  161.8829 H   0  0  0  0  0  0  0  0  0  0  0  0
  154.2625  142.0287  161.7794 H   0  0  0  0  0  0  0  0  0  0  0  0
  151.1493  141.3162  159.7851 H   0  0  0  0  0  0  0  0  0  0  0  0
  152.4026  140.5734  158.8138 H   0  0  0  0  0  0  0  0  0  0  0  0
  151.2144  140.0083  154.2702 H   0  0  0  0  0  0  0  0  0  0  0  0
  1  2  1  0  0  0  0
  1 24  1  0  0  0  0
  1 25  1  0  0  0  0
  1 26  1  0  0  0  0
  2  3  1  0  0  0  0
  2  5  1  0  0  0  0
  2 27  1  0  0  0  0
  3  4  1  0  0  0  0
  3 28  1  0  0  0  0
  3 29  1  0  0  0  0
  4 30  1  0  0  0  0
  5  6  1  0  0  0  0
  5 31  1  0  0  0  0
  6  7  2  0  0  0  0
  6  8  1  0  0  0  0
  8  9  1  0  0  0  0
  8 32  1  0  0  0  0
  9 10  1  0  0  0  0
  9 33  1  0  0  0  0
  9 34  1  0  0  0  0
 10 23  1  0  0  0  0
 10 11  2  0  0  0  0
 11 12  1  0  0  0  0
 11 35  1  0  0  0  0
 12 13  2  0  0  0  0
 12 36  1  0  0  0  0
 13 14  1  0  0  0  0
 13 22  1  0  0  0  0
 14 21  1  0  0  0  0
 14 15  1  0  0  0  0
 15 16  1  0  0  0  0
 15 37  1  0  0  0  0
 15 38  1  0  0  0  0
 16 17  1  0  0  0  0
 16 18  1  0  0  0  0
 16 39  1  0  0  0  0
 17 40  1  0  0  0  0
 17 41  1  0  0  0  0
 17 42  1  0  0  0  0
 18 19  1  0  0  0  0
 19 20  1  0  0  0  0
 19 21  1  0  0  0  0
 19 43  1  0  0  0  0
 20 44  1  0  0  0  0
 20 45  1  0  0  0  0
 20 46  1  0  0  0  0
 21 47  1  0  0  0  0
 21 48  1  0  0  0  0
 22 23  2  0  0  0  0
 23 49  1  0  0  0  0
M  END
> <s_m_source_file>
AV-unprocessed.smi

> <i_m_source_file_index>
1983

> <i_lp_mmshare_version>
43012

> <i_f3d_flags>
0

> <s_epik_input>
W09IXVtDSDJdW0NAQEhdKFtDSDNdKVtOSF1DKD1PKVtOSF1bQ0gyXWMxW2NIXVtjSF1jKG5bY0hdMSlOMltDSDJdW0NAQEhdKFtDSDNdKU9bQ0BASF0oW0NIM10pW0NIMl0y

> <s_epik_cmdline>
J2VwaWtfcHl0aG9uJywgJy1waCcsICc3LjAnLCAnLXRuJywgJzgnLCAnLW1hJywgJzIwMCcsICctbWV0YWxfYmluZGluZycsICctaW1hZScsICc8aW5maWxlLm1hZT4nLCAnLW9tYWUnLCAnPG91dGZpbGUubWFlPic=

> <r_lp_tautomer_probability>
1

> <r_epik_Ionization_Penalty>
0.00801967

> <r_epik_Ionization_Penalty_Charging>
0

> <r_epik_Ionization_Penalty_Neutral>
0.00801967

> <r_epik_State_Penalty>
0.00598289

> <r_epik_Charging_Adjusted_Penalty>
0.00598289

> <i_epik_Tot_Q>
0

> <i_epik_Tot_abs_Q>
0

> <r_epik_Metal_State_Penalty>
0.00590297

> <b_epik_Metal_Only>
0

> <s_lp_Force_Field>
OPLS_2005

> <r_lp_Energy>
13.3716

> <b_lp_Chiralities_Consistent>
1

> <s_lp_Variant>
AV-unprocessed.smi:1983-1

> <Gold.Version>
5.8.1

> <Gold.Id.Protein>
6NUR|6NUR_protein|mol2

> <Gold.PLP.Fitness>
48.8524

> <Gold.PLP.PLP>
-41.6755

> <Gold.PLP.part.hbond>
-3.2612

> <Gold.PLP.part.metal>
0.0000

> <Gold.PLP.part.buried>
-3.1620

> <Gold.PLP.part.nonpolar>
-34.3116

> <Gold.PLP.part.repulsive>
0.1272

> <Gold.PLP.ligand.clash>
0.0000

> <Gold.PLP.ligand.torsion>
1.0349

> <Gold.PLP.Chemscore.Hbond>
2.9600

> <Gold.PLP.Chemscore.CHOScore>
0.0000

> <Gold.PLP.Chemscore.Metal>
0.0000

> <Gold.Chemscore.Hbonds>
donor molecule, donor type, donor heavy atom, donor atom, acceptor molecule, acceptor atom, score
      L1  H     4    30       P1  7948  0.75
      L1  H     5    31       P1  7948  1.00
      L1  H     8    32       P1  7948  1.00

> <Gold.PLP.Chemscore.Internal.Correction>
0.3667

> <Gold.Rescore>
     Score         DG    S(hbond)    S(metal)    S(lipo)     H(rot)  DE(clash)    DE(int)     intcor
     16.56     -19.28       2.54        0.00     102.52       2.61       0.45       2.27       ----

> <Gold.Chemscore.Fitness>
16.5647

> <Gold.Chemscore.DG>
-19.2836

> <Gold.Chemscore.ZeroCoef>
-5.4800

> <Gold.Chemscore.Hbond>
2.5419

> <Gold.Chemscore.Metal>
0.0000

> <Gold.Chemscore.Lipo>
102.5194

> <Gold.Chemscore.Internal_Hbond>
0.0000

> <Gold.Chemscore.DEClash>
0.4454

> <Gold.Chemscore.DEInternal>
2.2736

> <Gold.Chemscore.Rot>
2.6097

> <Gold.Chemscore.Internal.Correction>
   9.000000E+99

> <Gold.Chemscore.Hbonds>
donor molecule, donor type, donor heavy atom, donor atom, acceptor molecule, acceptor atom, score
      L1  H     4    30       P1  7948  0.09
      L1  H     5    31       P1  7948  0.65
      L1  H     8    32       P1  7948  0.94

> <Gold.Chemscore.Hbond.Weighted>
-8.4898

> <Gold.Chemscore.Metal.Weighted>
-0.0000

> <Gold.Chemscore.Lipo.Weighted>
-11.9948

> <Gold.Chemscore.Internal_Hbond.Weighted>
0.0000

> <Gold.Chemscore.DEClash.Weighted>
0.4454

> <Gold.Chemscore.DEInternal.Weighted>
2.2736

> <Gold.Chemscore.Rot.Weighted>
6.6809

> <Gold.Chemscore.Internal.Correction.Weighted>
   9.000000E+99

> <Gold.Protein.RotatedTorsions>
[ 6907 6896 6895 6894 ] final   59.02 input  -60.11 | X-H torsion
[ 7974 7965 7964 7962 ] final  -72.98 input  175.53 | X-H torsion
[ 8008 7997 7996 7995 ] final -143.87 input   59.86 | X-H torsion
[ 10167 10162 10161 10158 ] final  120.50 input  -65.29 | X-H torsion
[ 10718 10713 10712 10709 ] final  -32.41 input   66.30 | X-H torsion
[ 10763 10752 10751 10750 ] final  -54.99 input  -60.55 | X-H torsion
[ 11005 11000 10999 10996 ] final   -5.52 input  -57.11 | X-H torsion

> <Gold.Protein.ActiveResidues>
 VAL166  LYS551  ARG553  GLY616  TRP617  ASP618  TYR619  PRO620  LYS621  CYS622 
 ASP623  PHE694  ASN695  SER759  ASP760  ASP761  ALA762  ILE779  LEU786  VAL792 
 PHE793  MET794  SER795  GLU796  ALA797  LYS798  CYS799  TRP800  GLU811  SER814 

> <Gold.Protein.RotatedAtoms>
  152.3877  134.6491  160.0119 H   0  0  0  0  0  0  0  0  0  0  0  0  # atno 6907 bound_to 6896
  151.6734  133.3308  159.3210 H   0  0  0  0  0  0  0  0  0  0  0  0  # atno 6908 bound_to 6896
  150.7800  134.6779  159.6472 H   0  0  0  0  0  0  0  0  0  0  0  0  # atno 6909 bound_to 6896
  145.6581  140.9261  143.0948 H   0  0  0  0  0  0  0  0  0  0  0  0  # atno 7974 bound_to 7965
  155.5177  140.0589  157.2912 H   0  0  0  0  0  0  0  0  0  0  0  0  # atno 8008 bound_to 7997
  154.4529  140.1958  156.0413 H   0  0  0  0  0  0  0  0  0  0  0  0  # atno 8009 bound_to 7997
  156.0740  140.3256  155.7615 H   0  0  0  0  0  0  0  0  0  0  0  0  # atno 8010 bound_to 7997
  139.5978  144.7047  151.3134 H   0  0  0  0  0  0  0  0  0  0  0  0  # atno 10167 bound_to 10162
  156.3753  130.4346  149.7512 H   0  0  0  0  0  0  0  0  0  0  0  0  # atno 10718 bound_to 10713
  154.1837  135.6439  153.5041 H   0  0  0  0  0  0  0  0  0  0  0  0  # atno 10763 bound_to 10752
  153.0052  135.5412  154.6487 H   0  0  0  0  0  0  0  0  0  0  0  0  # atno 10764 bound_to 10752
  154.5858  135.2929  155.0659 H   0  0  0  0  0  0  0  0  0  0  0  0  # atno 10765 bound_to 10752
  140.6921  133.9062  155.8625 H   0  0  0  0  0  0  0  0  0  0  0  0  # atno 11005 bound_to 11000
  144.7099  139.8413  143.7418 LP  0  0  0  0  0  0  0  0  0  0  0  0  # atno 17320 bound_to 7965
  146.1148  139.4157  143.0265 LP  0  0  0  0  0  0  0  0  0  0  0  0  # atno 17321 bound_to 7965
  140.7226  143.7093  150.7782 LP  0  0  0  0  0  0  0  0  0  0  0  0  # atno 17342 bound_to 10162
  140.0663  143.5105  152.2602 LP  0  0  0  0  0  0  0  0  0  0  0  0  # atno 17343 bound_to 10162
  156.4624  130.7958  151.2978 LP  0  0  0  0  0  0  0  0  0  0  0  0  # atno 17370 bound_to 10713
  157.7487  131.0061  150.3141 LP  0  0  0  0  0  0  0  0  0  0  0  0  # atno 17371 bound_to 10713
  141.0233  134.0858  157.4096 LP  0  0  0  0  0  0  0  0  0  0  0  0  # atno 17394 bound_to 11000
  139.8920  135.0122  156.6825 LP  0  0  0  0  0  0  0  0  0  0  0  0  # atno 17395 bound_to 11000

$$$$
