AV-unprocessed.smi:1915|AV-procd|sdf|7761|dock7
  -GOLD-   22720 9503D 1   1.00000     0.00000
 Structure written by MMmdl.
 44 45  0  0  0  0  0  0  0  0  1 V2000
  154.0930  141.7273  161.2114 C   0  0  0  0  0  0  0  0  0  0  0  0
  153.0494  141.9529  160.1038 C   0  0  0  0  0  0  0  0  0  0  0  0
  152.0035  142.9823  160.5574 C   0  0  0  0  0  0  0  0  0  0  0  0
  152.3597  140.6512  159.6370 C   0  0  0  0  0  0  0  0  0  0  0  0
  151.6672  140.7950  158.3562 N   0  0  0  0  0  0  0  0  0  0  0  0
  150.5288  141.6915  158.2322 C   0  0  0  0  0  0  0  0  0  0  0  0
  149.9111  141.3969  156.8481 C   0  0  2  0  0  0  0  0  0  0  0  0
  148.5388  140.7134  156.9464 C   0  0  0  0  0  0  0  0  0  0  0  0
  148.4168  139.6478  157.5514 O   0  0  0  0  0  0  0  0  0  0  0  0
  147.5191  141.3293  156.3300 N   0  0  0  0  0  0  0  0  0  0  0  0
  146.1593  140.8076  156.2332 C   0  0  0  0  0  0  0  0  0  0  0  0
  145.1750  141.5286  157.1769 C   0  0  0  0  0  0  0  0  0  0  0  0
  144.2843  142.5363  156.4696 C   0  0  0  0  0  0  0  0  0  0  0  0
  144.3760  142.7250  155.0736 C   0  0  0  0  0  0  0  0  0  0  0  0
  143.5426  143.6853  154.4693 C   0  0  0  0  0  0  0  0  0  0  0  0
  142.6524  144.4156  155.2797 C   0  0  0  0  0  0  0  0  0  0  0  0
  142.6347  144.1507  156.6637 C   0  0  0  0  0  0  0  0  0  0  0  0
  143.4312  143.2332  157.2535 N   0  0  0  0  0  0  0  0  0  0  0  0
  150.9348  140.4917  156.1355 C   0  0  0  0  0  0  0  0  0  0  0  0
  151.9196  140.1181  157.2298 C   0  0  0  0  0  0  0  0  0  0  0  0
  152.8124  139.2881  157.0653 O   0  0  0  0  0  0  0  0  0  0  0  0
  153.6496  141.2361  162.0781 H   0  0  0  0  0  0  0  0  0  0  0  0
  154.5195  142.6727  161.5472 H   0  0  0  0  0  0  0  0  0  0  0  0
  154.9218  141.1109  160.8642 H   0  0  0  0  0  0  0  0  0  0  0  0
  153.5697  142.3808  159.2460 H   0  0  0  0  0  0  0  0  0  0  0  0
  151.4411  142.6219  161.4192 H   0  0  0  0  0  0  0  0  0  0  0  0
  151.2905  143.1976  159.7608 H   0  0  0  0  0  0  0  0  0  0  0  0
  152.4743  143.9250  160.8377 H   0  0  0  0  0  0  0  0  0  0  0  0
  153.0905  139.8429  159.5739 H   0  0  0  0  0  0  0  0  0  0  0  0
  151.6333  140.3335  160.3861 H   0  0  0  0  0  0  0  0  0  0  0  0
  149.8260  141.5400  159.0534 H   0  0  0  0  0  0  0  0  0  0  0  0
  150.8777  142.7235  158.2869 H   0  0  0  0  0  0  0  0  0  0  0  0
  149.8027  142.3317  156.2952 H   0  0  0  0  0  0  0  0  0  0  0  0
  147.7067  142.2020  155.8577 H   0  0  0  0  0  0  0  0  0  0  0  0
  145.8061  140.8595  155.2023 H   0  0  0  0  0  0  0  0  0  0  0  0
  146.1986  139.7493  156.4923 H   0  0  0  0  0  0  0  0  0  0  0  0
  144.5449  140.7948  157.6809 H   0  0  0  0  0  0  0  0  0  0  0  0
  145.7296  142.0363  157.9669 H   0  0  0  0  0  0  0  0  0  0  0  0
  145.0737  142.1531  154.4796 H   0  0  0  0  0  0  0  0  0  0  0  0
  143.5872  143.8602  153.4045 H   0  0  0  0  0  0  0  0  0  0  0  0
  141.9984  145.1606  154.8512 H   0  0  0  0  0  0  0  0  0  0  0  0
  141.9645  144.6919  157.3150 H   0  0  0  0  0  0  0  0  0  0  0  0
  150.4972  139.5952  155.6930 H   0  0  0  0  0  0  0  0  0  0  0  0
  151.4573  141.0343  155.3473 H   0  0  0  0  0  0  0  0  0  0  0  0
  1  2  1  0  0  0  0
  1 22  1  0  0  0  0
  1 23  1  0  0  0  0
  1 24  1  0  0  0  0
  2  3  1  0  0  0  0
  2  4  1  0  0  0  0
  2 25  1  0  0  0  0
  3 26  1  0  0  0  0
  3 27  1  0  0  0  0
  3 28  1  0  0  0  0
  4  5  1  0  0  0  0
  4 29  1  0  0  0  0
  4 30  1  0  0  0  0
  5 20  1  0  0  0  0
  5  6  1  0  0  0  0
  6  7  1  0  0  0  0
  6 31  1  0  0  0  0
  6 32  1  0  0  0  0
  7  8  1  0  0  0  0
  7 19  1  0  0  0  0
  7 33  1  0  0  0  0
  8  9  2  0  0  0  0
  8 10  1  0  0  0  0
 10 11  1  0  0  0  0
 10 34  1  0  0  0  0
 11 12  1  0  0  0  0
 11 35  1  0  0  0  0
 11 36  1  0  0  0  0
 12 13  1  0  0  0  0
 12 37  1  0  0  0  0
 12 38  1  0  0  0  0
 13 18  1  0  0  0  0
 13 14  2  0  0  0  0
 14 15  1  0  0  0  0
 14 39  1  0  0  0  0
 15 16  2  0  0  0  0
 15 40  1  0  0  0  0
 16 17  1  0  0  0  0
 16 41  1  0  0  0  0
 17 18  2  0  0  0  0
 17 42  1  0  0  0  0
 19 20  1  0  0  0  0
 19 43  1  0  0  0  0
 19 44  1  0  0  0  0
 20 21  2  0  0  0  0
M  END
> <s_m_source_file>
AV-unprocessed.smi

> <i_m_source_file_index>
1915

> <i_lp_mmshare_version>
43012

> <i_f3d_flags>
0

> <s_epik_input>
W0NIM11bQ0hdKFtDSDNdKVtDSDJdTjFbQ0gyXVtDQEhdKFtDSDJdQzE9TylDKD1PKVtOSF1bQ0gyXVtDSDJdYzJbY0hdW2NIXVtjSF1bY0hdbjI=

> <s_epik_cmdline>
J2VwaWtfcHl0aG9uJywgJy1waCcsICc3LjAnLCAnLXRuJywgJzgnLCAnLW1hJywgJzIwMCcsICctbWV0YWxfYmluZGluZycsICctaW1hZScsICc8aW5maWxlLm1hZT4nLCAnLW9tYWUnLCAnPG91dGZpbGUubWFlPic=

> <r_epik_Ionization_Penalty>
0.0252359

> <r_epik_Ionization_Penalty_Charging>
0

> <r_epik_Ionization_Penalty_Neutral>
0.0252359

> <r_epik_State_Penalty>
0.020532

> <r_epik_Charging_Adjusted_Penalty>
0.020532

> <i_epik_Tot_Q>
0

> <i_epik_Tot_abs_Q>
0

> <r_epik_Metal_State_Penalty>
0.0196901

> <b_epik_Metal_Only>
0

> <s_lp_Force_Field>
OPLS_2005

> <r_lp_Energy>
14.5856

> <b_lp_Chiralities_Consistent>
1

> <s_lp_Variant>
AV-unprocessed.smi:1915-2

> <Gold.Version>
5.8.1

> <Gold.Id.Protein>
6NUR|6NUR_protein|mol2

> <Gold.PLP.Fitness>
48.6677

> <Gold.PLP.PLP>
-44.4110

> <Gold.PLP.part.hbond>
-2.0000

> <Gold.PLP.part.metal>
0.0000

> <Gold.PLP.part.buried>
-5.0069

> <Gold.PLP.part.nonpolar>
-38.1327

> <Gold.PLP.part.repulsive>
0.1837

> <Gold.PLP.ligand.clash>
0.0000

> <Gold.PLP.ligand.torsion>
0.5201

> <Gold.PLP.Chemscore.Hbond>
1.7200

> <Gold.PLP.Chemscore.CHOScore>
0.0000

> <Gold.PLP.Chemscore.Metal>
0.0000

> <Gold.Chemscore.Hbonds>
donor molecule, donor type, donor heavy atom, donor atom, acceptor molecule, acceptor atom, score
      P1  H  7997  8008       L1    21  1.00

> <Gold.PLP.Chemscore.Internal.Correction>
0.1369

> <Gold.Rescore>
     Score         DG    S(hbond)    S(metal)    S(lipo)     H(rot)  DE(clash)    DE(int)     intcor
     18.40     -19.11       1.88        0.00     101.02       1.75       0.04       0.67       ----

> <Gold.Chemscore.Fitness>
18.4044

> <Gold.Chemscore.DG>
-19.1129

> <Gold.Chemscore.ZeroCoef>
-5.4800

> <Gold.Chemscore.Hbond>
1.8810

> <Gold.Chemscore.Metal>
0.0000

> <Gold.Chemscore.Lipo>
101.0168

> <Gold.Chemscore.Internal_Hbond>
0.0000

> <Gold.Chemscore.DEClash>
0.0407

> <Gold.Chemscore.DEInternal>
0.6678

> <Gold.Chemscore.Rot>
1.7456

> <Gold.Chemscore.Internal.Correction>
   9.000000E+99

> <Gold.Chemscore.Hbonds>
donor molecule, donor type, donor heavy atom, donor atom, acceptor molecule, acceptor atom, score
      P1  H  7997  8008       L1    21  0.78

> <Gold.Chemscore.Hbond.Weighted>
-6.2827

> <Gold.Chemscore.Metal.Weighted>
-0.0000

> <Gold.Chemscore.Lipo.Weighted>
-11.8190

> <Gold.Chemscore.Internal_Hbond.Weighted>
0.0000

> <Gold.Chemscore.DEClash.Weighted>
0.0407

> <Gold.Chemscore.DEInternal.Weighted>
0.6678

> <Gold.Chemscore.Rot.Weighted>
4.4688

> <Gold.Chemscore.Internal.Correction.Weighted>
   9.000000E+99

> <Gold.Protein.RotatedTorsions>
[ 6907 6896 6895 6894 ] final  -26.37 input  -60.11 | X-H torsion
[ 7974 7965 7964 7962 ] final   35.18 input  175.53 | X-H torsion
[ 8008 7997 7996 7995 ] final  -59.07 input   59.86 | X-H torsion
[ 10167 10162 10161 10158 ] final -120.09 input  -65.29 | X-H torsion
[ 10718 10713 10712 10709 ] final  -75.59 input   66.30 | X-H torsion
[ 10763 10752 10751 10750 ] final  -83.31 input  -60.55 | X-H torsion
[ 11005 11000 10999 10996 ] final   39.43 input  -57.11 | X-H torsion

> <Gold.Protein.ActiveResidues>
 VAL166  LYS551  ARG553  GLY616  TRP617  ASP618  TYR619  PRO620  LYS621  CYS622 
 ASP623  PHE694  ASN695  SER759  ASP760  ASP761  ALA762  ILE779  LEU786  VAL792 
 PHE793  MET794  SER795  GLU796  ALA797  LYS798  CYS799  TRP800  GLU811  SER814 

> <Gold.Protein.RotatedAtoms>
  151.1619  135.0277  159.8713 H   0  0  0  0  0  0  0  0  0  0  0  0  # atno 6907 bound_to 6896
  152.5451  134.1269  159.8433 H   0  0  0  0  0  0  0  0  0  0  0  0  # atno 6908 bound_to 6896
  151.1365  133.4954  159.2630 H   0  0  0  0  0  0  0  0  0  0  0  0  # atno 6909 bound_to 6896
  146.1301  139.6174  142.9232 H   0  0  0  0  0  0  0  0  0  0  0  0  # atno 7974 bound_to 7965
  154.4336  140.1070  156.6057 H   0  0  0  0  0  0  0  0  0  0  0  0  # atno 8008 bound_to 7997
  155.5863  140.3491  155.4535 H   0  0  0  0  0  0  0  0  0  0  0  0  # atno 8009 bound_to 7997
  156.0280  140.1254  157.0277 H   0  0  0  0  0  0  0  0  0  0  0  0  # atno 8010 bound_to 7997
  140.0396  143.5166  152.2136 H   0  0  0  0  0  0  0  0  0  0  0  0  # atno 10167 bound_to 10162
  156.0202  130.4444  150.3066 H   0  0  0  0  0  0  0  0  0  0  0  0  # atno 10718 bound_to 10713
  154.5861  135.5561  153.7233 H   0  0  0  0  0  0  0  0  0  0  0  0  # atno 10763 bound_to 10752
  153.0099  135.6332  154.1914 H   0  0  0  0  0  0  0  0  0  0  0  0  # atno 10764 bound_to 10752
  154.1855  135.2885  155.3018 H   0  0  0  0  0  0  0  0  0  0  0  0  # atno 10765 bound_to 10752
  140.2029  134.3848  155.8087 H   0  0  0  0  0  0  0  0  0  0  0  0  # atno 11005 bound_to 11000
  145.5280  141.0428  143.2399 LP  0  0  0  0  0  0  0  0  0  0  0  0  # atno 17320 bound_to 7965
  144.7681  139.6797  143.7206 LP  0  0  0  0  0  0  0  0  0  0  0  0  # atno 17321 bound_to 7965
  139.6022  144.7586  151.3145 LP  0  0  0  0  0  0  0  0  0  0  0  0  # atno 17342 bound_to 10162
  140.7266  143.6986  150.7863 LP  0  0  0  0  0  0  0  0  0  0  0  0  # atno 17343 bound_to 10162
  157.1168  131.0236  151.3025 LP  0  0  0  0  0  0  0  0  0  0  0  0  # atno 17370 bound_to 10713
  157.4660  130.7681  149.7279 LP  0  0  0  0  0  0  0  0  0  0  0  0  # atno 17371 bound_to 10713
  141.2227  133.7103  156.8288 LP  0  0  0  0  0  0  0  0  0  0  0  0  # atno 17394 bound_to 11000
  140.2034  134.8880  157.3195 LP  0  0  0  0  0  0  0  0  0  0  0  0  # atno 17395 bound_to 11000

$$$$
