AV-unprocessed.smi:2648|AV-procd|sdf|10286|dock5
  -GOLD-   2272014303D 1   1.00000     0.00000
 Structure written by MMmdl.
 33 34  0  0  0  0  0  0  0  0  2 V2000
  145.6210  137.8878  154.0887 O   0  0  0  0  0  0  0  0  0  0  0  0
  146.5897  137.3902  153.5152 C   0  0  0  0  0  0  0  0  0  0  0  0
  147.8560  137.7695  153.7403 N   0  0  0  0  0  0  0  0  0  0  0  0
  148.2579  138.8064  154.6834 C   0  0  0  0  0  0  0  0  0  0  0  0
  149.7515  139.1506  154.5381 C   0  0  0  0  0  0  0  0  0  0  0  0
  150.1041  140.3303  155.3315 N   0  0  0  0  0  0  0  0  0  0  0  0
  150.9799  140.3211  156.3450 C   0  0  0  0  0  0  0  0  0  0  0  0
  151.6112  139.3592  156.7813 O   0  0  0  0  0  0  0  0  0  0  0  0
  151.0915  141.7268  156.8940 C   0  0  0  0  0  0  0  0  0  0  0  0
  150.1673  142.3994  156.0063 N   0  0  0  0  0  0  0  0  0  0  0  0
  149.6174  141.5655  155.1141 C   0  0  0  0  0  0  0  0  0  0  0  0
  148.8096  141.8896  154.2447 O   0  0  0  0  0  0  0  0  0  0  0  0
  146.5256  136.4271  152.5791 N   0  0  0  0  0  0  0  0  0  0  0  0
  145.3771  135.7483  152.0874 C   0  0  0  0  0  0  0  0  0  0  0  0
  145.4762  135.1221  150.8249 C   0  0  0  0  0  0  0  0  0  0  0  0
  144.3679  134.4216  150.3065 C   0  0  0  0  0  0  0  0  0  0  0  0
  143.2256  134.3456  151.0223 N   0  3  0  0  0  0  0  0  0  0  0  0
  143.0871  134.9157  152.2384 C   0  0  0  0  0  0  0  0  0  0  0  0
  144.1612  135.6294  152.8081 C   0  0  0  0  0  0  0  0  0  0  0  0
  148.5941  137.3139  153.2235 H   0  0  0  0  0  0  0  0  0  0  0  0
  147.6428  139.6969  154.5411 H   0  0  0  0  0  0  0  0  0  0  0  0
  148.0532  138.4485  155.6928 H   0  0  0  0  0  0  0  0  0  0  0  0
  150.3626  138.2991  154.8427 H   0  0  0  0  0  0  0  0  0  0  0  0
  149.9975  139.3286  153.4896 H   0  0  0  0  0  0  0  0  0  0  0  0
  150.7643  141.7810  157.9328 H   0  0  0  0  0  0  0  0  0  0  0  0
  152.1040  142.1191  156.7944 H   0  0  0  0  0  0  0  0  0  0  0  0
  149.9738  143.3890  156.0599 H   0  0  0  0  0  0  0  0  0  0  0  0
  147.3975  136.1872  152.1305 H   0  0  0  0  0  0  0  0  0  0  0  0
  146.3906  135.1807  150.2523 H   0  0  0  0  0  0  0  0  0  0  0  0
  144.3618  133.9219  149.3489 H   0  0  0  0  0  0  0  0  0  0  0  0
  142.1295  134.7798  152.7197 H   0  0  0  0  0  0  0  0  0  0  0  0
  144.0347  136.0593  153.7899 H   0  0  0  0  0  0  0  0  0  0  0  0
  142.4357  133.8320  150.6306 H   0  0  0  0  0  0  0  0  0  0  0  0
  1  2  2  0  0  0  0
  2  3  1  0  0  0  0
  2 13  1  0  0  0  0
  3  4  1  0  0  0  0
  3 20  1  0  0  0  0
  4  5  1  0  0  0  0
  4 21  1  0  0  0  0
  4 22  1  0  0  0  0
  5  6  1  0  0  0  0
  5 23  1  0  0  0  0
  5 24  1  0  0  0  0
  6 11  1  0  0  0  0
  6  7  1  0  0  0  0
  7  8  2  0  0  0  0
  7  9  1  0  0  0  0
  9 10  1  0  0  0  0
  9 25  1  0  0  0  0
  9 26  1  0  0  0  0
 10 11  1  0  0  0  0
 10 27  1  0  0  0  0
 11 12  2  0  0  0  0
 13 14  1  0  0  0  0
 13 28  1  0  0  0  0
 14 19  1  0  0  0  0
 14 15  2  0  0  0  0
 15 16  1  0  0  0  0
 15 29  1  0  0  0  0
 16 17  2  0  0  0  0
 16 30  1  0  0  0  0
 17 18  1  0  0  0  0
 17 33  1  0  0  0  0
 18 19  2  0  0  0  0
 18 31  1  0  0  0  0
 19 32  1  0  0  0  0
M  CHG  1  17   1
M  END
> <s_m_source_file>
AV-unprocessed.smi

> <i_m_source_file_index>
2648

> <i_lp_mmshare_version>
43012

> <i_f3d_flags>
0

> <s_epik_input>
W2NIXTFbY0hdbltjSF1bY0hdYzFbTkhdQyg9TylbTkhdW0NIMl1bQ0gyXU4yQyg9TylbQ0gyXVtOSF1DMj1P

> <s_epik_cmdline>
J2VwaWtfcHl0aG9uJywgJy1waCcsICc3LjAnLCAnLXRuJywgJzgnLCAnLW1hJywgJzIwMCcsICctbWV0YWxfYmluZGluZycsICctaW1hZScsICc8aW5maWxlLm1hZT4nLCAnLW9tYWUnLCAnPG91dGZpbGUubWFlPic=

> <r_lp_tautomer_probability>
1

> <r_epik_Ionization_Penalty>
1.05701

> <r_epik_Ionization_Penalty_Charging>
1.05694

> <r_epik_Ionization_Penalty_Neutral>
7.31213e-05

> <r_epik_State_Penalty>
1.11031

> <r_epik_Charging_Adjusted_Penalty>
2.16725

> <i_epik_Tot_Q>
1

> <i_epik_Tot_abs_Q>
1

> <r_epik_Metal_State_Penalty>
1.22924

> <b_epik_Metal_Only>
0

> <s_lp_Force_Field>
OPLS_2005

> <r_lp_Energy>
27.1091

> <b_lp_Chiralities_Consistent>
1

> <s_lp_Variant>
AV-unprocessed.smi:2648-2

> <Gold.Version>
5.8.1

> <Gold.Id.Protein>
6NUR|6NUR_protein|mol2

> <Gold.PLP.Fitness>
42.3681

> <Gold.PLP.PLP>
-29.8358

> <Gold.PLP.part.hbond>
-4.7933

> <Gold.PLP.part.metal>
0.0000

> <Gold.PLP.part.buried>
-2.8974

> <Gold.PLP.part.nonpolar>
-22.6234

> <Gold.PLP.part.repulsive>
0.5221

> <Gold.PLP.ligand.clash>
0.0000

> <Gold.PLP.ligand.torsion>
0.1780

> <Gold.PLP.Chemscore.Hbond>
4.2925

> <Gold.PLP.Chemscore.CHOScore>
0.0000

> <Gold.PLP.Chemscore.Metal>
0.0000

> <Gold.Chemscore.Hbonds>
donor molecule, donor type, donor heavy atom, donor atom, acceptor molecule, acceptor atom, score
      L1  H     3    20       P1  7948  0.91
      L1  H    10    27       P1  8028  0.96
      L1  H    13    28       P1  7948  1.00
      L1  H    17    33       P1 10186  1.22
      P1  H  8011  8017       L1    12  0.25

> <Gold.PLP.Chemscore.Internal.Correction>
0.0109

> <Gold.Rescore>
     Score         DG    S(hbond)    S(metal)    S(lipo)     H(rot)  DE(clash)    DE(int)     intcor
     16.91     -18.80       3.92        0.00      44.89       1.96       0.74       1.15       ----

> <Gold.Chemscore.Fitness>
16.9055

> <Gold.Chemscore.DG>
-18.8033

> <Gold.Chemscore.ZeroCoef>
-5.4800

> <Gold.Chemscore.Hbond>
3.9225

> <Gold.Chemscore.Metal>
0.0000

> <Gold.Chemscore.Lipo>
44.8896

> <Gold.Chemscore.Internal_Hbond>
0.0000

> <Gold.Chemscore.DEClash>
0.7432

> <Gold.Chemscore.DEInternal>
1.1546

> <Gold.Chemscore.Rot>
1.9648

> <Gold.Chemscore.Internal.Correction>
   9.000000E+99

> <Gold.Chemscore.Hbonds>
donor molecule, donor type, donor heavy atom, donor atom, acceptor molecule, acceptor atom, score
      L1  H     3    20       P1  7948  0.90
      L1  H    10    27       P1  8028  0.92
      L1  H    13    28       P1  7948  0.95
      L1  H    17    33       P1 10186  0.51
      P1  H  8011  8017       L1    12  0.21

> <Gold.Chemscore.Hbond.Weighted>
-13.1011

> <Gold.Chemscore.Metal.Weighted>
-0.0000

> <Gold.Chemscore.Lipo.Weighted>
-5.2521

> <Gold.Chemscore.Internal_Hbond.Weighted>
0.0000

> <Gold.Chemscore.DEClash.Weighted>
0.7432

> <Gold.Chemscore.DEInternal.Weighted>
1.1546

> <Gold.Chemscore.Rot.Weighted>
5.0299

> <Gold.Chemscore.Internal.Correction.Weighted>
   9.000000E+99

> <Gold.Protein.RotatedTorsions>
[ 6907 6896 6895 6894 ] final -123.75 input  -60.11 | X-H torsion
[ 7974 7965 7964 7962 ] final  -50.63 input  175.53 | X-H torsion
[ 8008 7997 7996 7995 ] final  -12.20 input   59.86 | X-H torsion
[ 10167 10162 10161 10158 ] final  -54.12 input  -65.29 | X-H torsion
[ 10718 10713 10712 10709 ] final -157.83 input   66.30 | X-H torsion
[ 10763 10752 10751 10750 ] final  -40.81 input  -60.55 | X-H torsion
[ 11005 11000 10999 10996 ] final  -78.13 input  -57.11 | X-H torsion

> <Gold.Protein.ActiveResidues>
 VAL166  LYS551  ARG553  GLY616  TRP617  ASP618  TYR619  PRO620  LYS621  CYS622 
 ASP623  PHE694  ASN695  SER759  ASP760  ASP761  ALA762  ILE779  LEU786  VAL792 
 PHE793  MET794  SER795  GLU796  ALA797  LYS798  CYS799  TRP800  GLU811  SER814 

> <Gold.Protein.RotatedAtoms>
  150.8701  133.7518  159.2963 H   0  0  0  0  0  0  0  0  0  0  0  0  # atno 6907 bound_to 6896
  151.5132  135.1064  159.9869 H   0  0  0  0  0  0  0  0  0  0  0  0  # atno 6908 bound_to 6896
  152.4689  133.7940  159.6973 H   0  0  0  0  0  0  0  0  0  0  0  0  # atno 6909 bound_to 6896
  145.9278  140.7777  142.9615 H   0  0  0  0  0  0  0  0  0  0  0  0  # atno 7974 bound_to 7965
  154.5398  140.2282  155.8660 H   0  0  0  0  0  0  0  0  0  0  0  0  # atno 8008 bound_to 7997
  156.1847  140.3092  155.9178 H   0  0  0  0  0  0  0  0  0  0  0  0  # atno 8009 bound_to 7997
  155.3281  140.0444  157.3032 H   0  0  0  0  0  0  0  0  0  0  0  0  # atno 8010 bound_to 7997
  140.6448  143.2529  151.4890 H   0  0  0  0  0  0  0  0  0  0  0  0  # atno 10167 bound_to 10162
  156.5457  130.8583  151.2763 H   0  0  0  0  0  0  0  0  0  0  0  0  # atno 10718 bound_to 10713
  153.9521  135.6749  153.4744 H   0  0  0  0  0  0  0  0  0  0  0  0  # atno 10763 bound_to 10752
  153.0879  135.4889  154.8630 H   0  0  0  0  0  0  0  0  0  0  0  0  # atno 10764 bound_to 10752
  154.7319  135.3140  154.8835 H   0  0  0  0  0  0  0  0  0  0  0  0  # atno 10765 bound_to 10752
  141.1663  133.7050  156.7924 H   0  0  0  0  0  0  0  0  0  0  0  0  # atno 11005 bound_to 11000
  144.6761  140.2078  143.7380 LP  0  0  0  0  0  0  0  0  0  0  0  0  # atno 17320 bound_to 7965
  145.8466  139.2155  143.1796 LP  0  0  0  0  0  0  0  0  0  0  0  0  # atno 17321 bound_to 7965
  139.5658  144.2046  152.1763 LP  0  0  0  0  0  0  0  0  0  0  0  0  # atno 17342 bound_to 10162
  140.1327  144.5274  150.6792 LP  0  0  0  0  0  0  0  0  0  0  0  0  # atno 17343 bound_to 10162
  157.7397  130.9836  150.2330 LP  0  0  0  0  0  0  0  0  0  0  0  0  # atno 17370 bound_to 10713
  156.2930  130.3748  149.7823 LP  0  0  0  0  0  0  0  0  0  0  0  0  # atno 17371 bound_to 10713
  140.2315  134.8682  157.3482 LP  0  0  0  0  0  0  0  0  0  0  0  0  # atno 17394 bound_to 11000
  140.1886  134.4400  155.7729 LP  0  0  0  0  0  0  0  0  0  0  0  0  # atno 17395 bound_to 11000

$$$$
