AV-unprocessed.smi:1204|AV-procd|sdf|5037|dock1
  -GOLD-   22720 4 63D 1   1.00000     0.00000
 Structure written by MMmdl.
 27 28  0  0  0  0  0  0  0  0  1 V2000
  150.5607  141.7128  157.9439 O   0  0  0  0  0  0  0  0  0  0  0  0
  151.6364  141.1979  157.6354 C   0  0  0  0  0  0  0  0  0  0  0  0
  152.7174  141.1624  158.4383 N   0  0  0  0  0  0  0  0  0  0  0  0
  152.8528  141.6595  159.7615 C   0  0  0  0  0  0  0  0  0  0  0  0
  153.8247  141.0032  160.5503 C   0  0  0  0  0  0  0  0  0  0  0  0
  154.0374  141.4215  161.8781 C   0  0  0  0  0  0  0  0  0  0  0  0
  153.2720  142.4871  162.3839 C   0  0  0  0  0  0  0  0  0  0  0  0
  152.3252  143.0858  161.5323 C   0  0  0  0  0  0  0  0  0  0  0  0
  152.1195  142.6865  160.2594 N   0  0  0  0  0  0  0  0  0  0  0  0
  151.8133  140.5681  156.2450 C   0  0  2  0  0  0  0  0  0  0  0  0
  150.4682  140.2050  155.5737 C   0  0  0  0  0  0  0  0  0  0  0  0
  150.7198  139.5978  154.3128 O   0  0  0  0  0  0  0  0  0  0  0  0
  151.4946  138.4153  154.4519 C   0  0  0  0  0  0  0  0  0  0  0  0
  152.8381  138.7743  155.1070 C   0  0  0  0  0  0  0  0  0  0  0  0
  152.5904  139.3785  156.3693 O   0  0  0  0  0  0  0  0  0  0  0  0
  153.5374  140.7152  158.0550 H   0  0  0  0  0  0  0  0  0  0  0  0
  154.4042  140.1860  160.1456 H   0  0  0  0  0  0  0  0  0  0  0  0
  154.7755  140.9328  162.4968 H   0  0  0  0  0  0  0  0  0  0  0  0
  153.4062  142.8364  163.3970 H   0  0  0  0  0  0  0  0  0  0  0  0
  151.7172  143.9072  161.8816 H   0  0  0  0  0  0  0  0  0  0  0  0
  152.3524  141.2866  155.6251 H   0  0  0  0  0  0  0  0  0  0  0  0
  149.8809  139.5320  156.2014 H   0  0  0  0  0  0  0  0  0  0  0  0
  149.8650  141.0982  155.4074 H   0  0  0  0  0  0  0  0  0  0  0  0
  150.9549  137.6775  155.0477 H   0  0  0  0  0  0  0  0  0  0  0  0
  151.6574  137.9778  153.4670 H   0  0  0  0  0  0  0  0  0  0  0  0
  153.4405  137.8778  155.2538 H   0  0  0  0  0  0  0  0  0  0  0  0
  153.4138  139.4491  154.4715 H   0  0  0  0  0  0  0  0  0  0  0  0
  1  2  2  0  0  0  0
  2  3  1  0  0  0  0
  2 10  1  0  0  0  0
  3  4  1  0  0  0  0
  3 16  1  0  0  0  0
  4  9  1  0  0  0  0
  4  5  2  0  0  0  0
  5  6  1  0  0  0  0
  5 17  1  0  0  0  0
  6  7  2  0  0  0  0
  6 18  1  0  0  0  0
  7  8  1  0  0  0  0
  7 19  1  0  0  0  0
  8  9  2  0  0  0  0
  8 20  1  0  0  0  0
 10 15  1  0  0  0  0
 10 11  1  0  0  0  0
 10 21  1  0  0  0  0
 11 12  1  0  0  0  0
 11 22  1  0  0  0  0
 11 23  1  0  0  0  0
 12 13  1  0  0  0  0
 13 14  1  0  0  0  0
 13 24  1  0  0  0  0
 13 25  1  0  0  0  0
 14 15  1  0  0  0  0
 14 26  1  0  0  0  0
 14 27  1  0  0  0  0
M  END
> <s_m_source_file>
AV-unprocessed.smi

> <i_m_source_file_index>
1204

> <i_lp_mmshare_version>
43012

> <i_f3d_flags>
0

> <s_epik_input>
TzFbQ0gyXVtDSDJdT1tDSDJdW0NASF0xQyg9TylbTkhdYzJbY0hdW2NIXVtjSF1bY0hdbjI=

> <s_epik_cmdline>
J2VwaWtfcHl0aG9uJywgJy1waCcsICc3LjAnLCAnLXRuJywgJzgnLCAnLW1hJywgJzIwMCcsICctbWV0YWxfYmluZGluZycsICctaW1hZScsICc8aW5maWxlLm1hZT4nLCAnLW9tYWUnLCAnPG91dGZpbGUubWFlPic=

> <r_epik_Ionization_Penalty>
0.0014012

> <r_epik_Ionization_Penalty_Charging>
0

> <r_epik_Ionization_Penalty_Neutral>
0.0014012

> <r_epik_State_Penalty>
0.00242437

> <r_epik_Charging_Adjusted_Penalty>
0.00242437

> <i_epik_Tot_Q>
0

> <i_epik_Tot_abs_Q>
0

> <r_epik_Metal_State_Penalty>
-0

> <b_epik_Metal_Only>
0

> <s_lp_Force_Field>
OPLS_2005

> <r_lp_Energy>
11.5524

> <b_lp_Chiralities_Consistent>
1

> <s_lp_Variant>
AV-unprocessed.smi:1204-1

> <Gold.Version>
5.8.1

> <Gold.Id.Protein>
6NUR|6NUR_protein|mol2

> <Gold.PLP.Fitness>
39.2101

> <Gold.PLP.PLP>
-34.8199

> <Gold.PLP.part.hbond>
-2.0000

> <Gold.PLP.part.metal>
0.0000

> <Gold.PLP.part.buried>
-4.1590

> <Gold.PLP.part.nonpolar>
-27.9397

> <Gold.PLP.part.repulsive>
0.2996

> <Gold.PLP.ligand.clash>
0.0000

> <Gold.PLP.ligand.torsion>
0.7308

> <Gold.PLP.Chemscore.Hbond>
1.9500

> <Gold.PLP.Chemscore.CHOScore>
0.0000

> <Gold.PLP.Chemscore.Metal>
0.0000

> <Gold.Chemscore.Hbonds>
donor molecule, donor type, donor heavy atom, donor atom, acceptor molecule, acceptor atom, score
      P1  H  7989  7998       L1    12  1.00
      P1  H  7997  8010       L1    15  0.94

> <Gold.PLP.Chemscore.Internal.Correction>
0.0018

> <Gold.Rescore>
     Score         DG    S(hbond)    S(metal)    S(lipo)     H(rot)  DE(clash)    DE(int)     intcor
     12.70     -14.16       0.89        0.00      70.60       1.00       0.00       1.46       ----

> <Gold.Chemscore.Fitness>
12.6957

> <Gold.Chemscore.DG>
-14.1604

> <Gold.Chemscore.ZeroCoef>
-5.4800

> <Gold.Chemscore.Hbond>
0.8924

> <Gold.Chemscore.Metal>
0.0000

> <Gold.Chemscore.Lipo>
70.5971

> <Gold.Chemscore.Internal_Hbond>
0.0000

> <Gold.Chemscore.DEClash>
0.0029

> <Gold.Chemscore.DEInternal>
1.4619

> <Gold.Chemscore.Rot>
1.0000

> <Gold.Chemscore.Internal.Correction>
   9.000000E+99

> <Gold.Chemscore.Hbonds>
donor molecule, donor type, donor heavy atom, donor atom, acceptor molecule, acceptor atom, score
      P1  H  7989  7998       L1    12  0.27
      P1  H  7997  8010       L1    15  0.08

> <Gold.Chemscore.Hbond.Weighted>
-2.9806

> <Gold.Chemscore.Metal.Weighted>
-0.0000

> <Gold.Chemscore.Lipo.Weighted>
-8.2599

> <Gold.Chemscore.Internal_Hbond.Weighted>
0.0000

> <Gold.Chemscore.DEClash.Weighted>
0.0029

> <Gold.Chemscore.DEInternal.Weighted>
1.4619

> <Gold.Chemscore.Rot.Weighted>
2.5600

> <Gold.Chemscore.Internal.Correction.Weighted>
   9.000000E+99

> <Gold.Protein.RotatedTorsions>
[ 6907 6896 6895 6894 ] final  -55.96 input  -60.11 | X-H torsion
[ 7974 7965 7964 7962 ] final  -69.21 input  175.53 | X-H torsion
[ 8008 7997 7996 7995 ] final   51.79 input   59.86 | X-H torsion
[ 10167 10162 10161 10158 ] final   28.44 input  -65.29 | X-H torsion
[ 10718 10713 10712 10709 ] final   58.64 input   66.30 | X-H torsion
[ 10763 10752 10751 10750 ] final   39.56 input  -60.55 | X-H torsion
[ 11005 11000 10999 10996 ] final  172.87 input  -57.11 | X-H torsion

> <Gold.Protein.ActiveResidues>
 VAL166  LYS551  ARG553  GLY616  TRP617  ASP618  TYR619  PRO620  LYS621  CYS622 
 ASP623  PHE694  ASN695  SER759  ASP760  ASP761  ALA762  ILE779  LEU786  VAL792 
 PHE793  MET794  SER795  GLU796  ALA797  LYS798  CYS799  TRP800  GLU811  SER814 

> <Gold.Protein.RotatedAtoms>
  150.8208  134.7414  159.6769 H   0  0  0  0  0  0  0  0  0  0  0  0  # atno 6907 bound_to 6896
  152.4323  134.5750  159.9941 H   0  0  0  0  0  0  0  0  0  0  0  0  # atno 6908 bound_to 6896
  151.5934  133.3326  159.3068 H   0  0  0  0  0  0  0  0  0  0  0  0  # atno 6909 bound_to 6896
  145.7066  140.9095  143.0702 H   0  0  0  0  0  0  0  0  0  0  0  0  # atno 7974 bound_to 7965
  155.4411  140.3454  155.4290 H   0  0  0  0  0  0  0  0  0  0  0  0  # atno 8008 bound_to 7997
  156.1278  140.1505  156.9140 H   0  0  0  0  0  0  0  0  0  0  0  0  # atno 8009 bound_to 7997
  154.4871  140.0852  156.7492 H   0  0  0  0  0  0  0  0  0  0  0  0  # atno 8010 bound_to 7997
  140.4852  144.0553  150.6278 H   0  0  0  0  0  0  0  0  0  0  0  0  # atno 10167 bound_to 10162
  157.5612  130.8837  149.9114 H   0  0  0  0  0  0  0  0  0  0  0  0  # atno 10718 bound_to 10713
  152.9963  135.6217  154.2485 H   0  0  0  0  0  0  0  0  0  0  0  0  # atno 10763 bound_to 10752
  154.2224  135.2795  155.2922 H   0  0  0  0  0  0  0  0  0  0  0  0  # atno 10764 bound_to 10752
  154.5518  135.5731  153.6987 H   0  0  0  0  0  0  0  0  0  0  0  0  # atno 10765 bound_to 10752
  140.3344  134.7330  157.4158 H   0  0  0  0  0  0  0  0  0  0  0  0  # atno 11005 bound_to 11000
  144.6953  139.9019  143.7459 LP  0  0  0  0  0  0  0  0  0  0  0  0  # atno 17320 bound_to 7965
  146.0750  139.3738  143.0500 LP  0  0  0  0  0  0  0  0  0  0  0  0  # atno 17321 bound_to 7965
  140.3806  143.2804  152.0174 LP  0  0  0  0  0  0  0  0  0  0  0  0  # atno 17342 bound_to 10162
  139.4841  144.6157  151.7350 LP  0  0  0  0  0  0  0  0  0  0  0  0  # atno 17343 bound_to 10162
  156.0665  130.3691  150.0868 LP  0  0  0  0  0  0  0  0  0  0  0  0  # atno 17370 bound_to 10713
  156.9032  130.9627  151.3573 LP  0  0  0  0  0  0  0  0  0  0  0  0  # atno 17371 bound_to 10713
  140.0833  134.5701  155.8518 LP  0  0  0  0  0  0  0  0  0  0  0  0  # atno 17394 bound_to 11000
  141.2055  133.6647  156.6184 LP  0  0  0  0  0  0  0  0  0  0  0  0  # atno 17395 bound_to 11000

$$$$
