AV-unprocessed.smi:2969|AV-procd|sdf|11329|dock4
  -GOLD-   2272016233D 1   1.00000     0.00000
 Structure written by MMmdl.
 40 40  0  0  0  0  0  0  0  0  1 V2000
  145.0779  132.7307  150.0930 C   0  0  0  0  0  0  0  0  0  0  0  0
  145.5264  133.6855  151.2068 C   0  0  0  0  0  0  0  0  0  0  0  0
  146.9097  133.3626  151.8074 C   0  0  0  0  0  0  0  0  0  0  0  0
  146.8532  132.6989  153.0978 N   0  0  0  0  0  0  0  0  0  0  0  0
  147.5298  133.1697  154.2271 C   0  0  0  0  0  0  0  0  0  0  0  0
  148.2972  134.3175  154.0900 N   0  0  0  0  0  0  0  0  0  0  0  0
  147.4711  132.5170  155.4268 C   0  0  0  0  0  0  0  0  0  0  0  0
  148.1193  133.0179  156.5714 N   0  0  0  0  0  0  0  0  0  0  0  0
  147.3653  133.9814  157.3921 C   0  0  0  0  0  0  0  0  0  0  0  0
  147.2479  133.5300  158.8569 C   0  0  0  0  0  0  0  0  0  0  0  0
  148.3196  134.0834  159.6020 O   0  0  0  0  0  0  0  0  0  0  0  0
  148.3635  133.6031  160.9334 C   0  0  0  0  0  0  0  0  0  0  0  0
  149.3909  132.6685  156.9087 C   0  0  0  0  0  0  0  0  0  0  0  0
  149.8973  133.0290  157.9734 O   0  0  0  0  0  0  0  0  0  0  0  0
  150.2634  131.8453  155.9364 C   0  0  0  0  0  0  0  0  0  0  0  0
  150.3988  132.4834  154.7732 F   0  0  0  0  0  0  0  0  0  0  0  0
  151.4771  131.6738  156.4622 F   0  0  0  0  0  0  0  0  0  0  0  0
  149.7204  130.6459  155.7354 F   0  0  0  0  0  0  0  0  0  0  0  0
  146.6468  131.3095  155.5773 C   0  0  0  0  0  0  0  0  0  0  0  0
  146.4863  130.6733  156.6181 O   0  0  0  0  0  0  0  0  0  0  0  0
  146.0072  130.8872  154.4153 N   0  0  0  0  0  0  0  0  0  0  0  0
  146.0782  131.5156  153.1775 C   0  0  0  0  0  0  0  0  0  0  0  0
  145.4773  131.0252  152.2211 O   0  0  0  0  0  0  0  0  0  0  0  0
  145.4435  130.0519  154.4764 H   0  0  0  0  0  0  0  0  0  0  0  0
  144.0681  132.9720  149.7610 H   0  0  0  0  0  0  0  0  0  0  0  0
  145.0762  131.6965  150.4382 H   0  0  0  0  0  0  0  0  0  0  0  0
  145.7328  132.7961  149.2240 H   0  0  0  0  0  0  0  0  0  0  0  0
  145.5156  134.7073  150.8270 H   0  0  0  0  0  0  0  0  0  0  0  0
  144.7873  133.6574  152.0077 H   0  0  0  0  0  0  0  0  0  0  0  0
  147.4690  132.6938  151.1530 H   0  0  0  0  0  0  0  0  0  0  0  0
  147.5331  134.2538  151.8884 H   0  0  0  0  0  0  0  0  0  0  0  0
  148.3732  134.8065  153.2096 H   0  0  0  0  0  0  0  0  0  0  0  0
  148.7831  134.7285  154.8742 H   0  0  0  0  0  0  0  0  0  0  0  0
  147.8436  134.9613  157.3482 H   0  0  0  0  0  0  0  0  0  0  0  0
  146.3644  134.1346  156.9863 H   0  0  0  0  0  0  0  0  0  0  0  0
  146.2867  133.8267  159.2793 H   0  0  0  0  0  0  0  0  0  0  0  0
  147.3024  132.4418  158.9090 H   0  0  0  0  0  0  0  0  0  0  0  0
  149.2055  134.0550  161.4573 H   0  0  0  0  0  0  0  0  0  0  0  0
  148.4916  132.5203  160.9586 H   0  0  0  0  0  0  0  0  0  0  0  0
  147.4530  133.8621  161.4751 H   0  0  0  0  0  0  0  0  0  0  0  0
  1  2  1  0  0  0  0
  1 25  1  0  0  0  0
  1 26  1  0  0  0  0
  1 27  1  0  0  0  0
  2  3  1  0  0  0  0
  2 28  1  0  0  0  0
  2 29  1  0  0  0  0
  3  4  1  0  0  0  0
  3 30  1  0  0  0  0
  3 31  1  0  0  0  0
  4 22  1  0  0  0  0
  4  5  1  0  0  0  0
  5  6  1  0  0  0  0
  5  7  2  0  0  0  0
  6 32  1  0  0  0  0
  6 33  1  0  0  0  0
  7  8  1  0  0  0  0
  7 19  1  0  0  0  0
  8  9  1  0  0  0  0
  8 13  1  0  0  0  0
  9 10  1  0  0  0  0
  9 34  1  0  0  0  0
  9 35  1  0  0  0  0
 10 11  1  0  0  0  0
 10 36  1  0  0  0  0
 10 37  1  0  0  0  0
 11 12  1  0  0  0  0
 12 38  1  0  0  0  0
 12 39  1  0  0  0  0
 12 40  1  0  0  0  0
 13 14  2  0  0  0  0
 13 15  1  0  0  0  0
 15 16  1  0  0  0  0
 15 17  1  0  0  0  0
 15 18  1  0  0  0  0
 19 20  2  0  0  0  0
 19 21  1  0  0  0  0
 21 24  1  0  0  0  0
 21 22  1  0  0  0  0
 22 23  2  0  0  0  0
M  END
> <s_m_source_file>
AV-unprocessed.smi

> <i_m_source_file_index>
2969

> <i_lp_mmshare_version>
43012

> <i_f3d_flags>
0

> <s_epik_input>
W0NIM11bQ0gyXVtDSDJdbjFjKFtOSDJdKWMoYyg9TylbbkhdYzE9TylOKEMoPU8pQyhGKShGKUYpW0NIMl1bQ0gyXU9bQ0gzXQ==

> <s_epik_cmdline>
J2VwaWtfcHl0aG9uJywgJy1waCcsICc3LjAnLCAnLXRuJywgJzgnLCAnLW1hJywgJzIwMCcsICctbWV0YWxfYmluZGluZycsICctaW1hZScsICc8aW5maWxlLm1hZT4nLCAnLW9tYWUnLCAnPG91dGZpbGUubWFlPic=

> <r_lp_tautomer_probability>
1

> <r_epik_Ionization_Penalty>
0.000513649

> <r_epik_Ionization_Penalty_Charging>
0.000443136

> <r_epik_Ionization_Penalty_Neutral>
7.05129e-05

> <r_epik_State_Penalty>
-0

> <r_epik_Charging_Adjusted_Penalty>
0.000443136

> <i_epik_Tot_Q>
0

> <i_epik_Tot_abs_Q>
0

> <r_epik_Metal_State_Penalty>
0.330936

> <b_epik_Metal_Only>
0

> <s_epik_Chemistry_Notes>
This compound has an imine and may undergo hydrolysis.

> <s_lp_Force_Field>
OPLS_2005

> <r_lp_Energy>
31.7287

> <b_lp_Chiralities_Consistent>
1

> <s_lp_Variant>
AV-unprocessed.smi:2969-1

> <Gold.Version>
5.8.1

> <Gold.Id.Protein>
6NUR|6NUR_protein|mol2

> <Gold.PLP.Fitness>
29.7310

> <Gold.PLP.PLP>
-24.8003

> <Gold.PLP.part.hbond>
-2.0915

> <Gold.PLP.part.metal>
0.0000

> <Gold.PLP.part.buried>
-4.7647

> <Gold.PLP.part.nonpolar>
-17.7230

> <Gold.PLP.part.repulsive>
0.2510

> <Gold.PLP.ligand.clash>
1.9111

> <Gold.PLP.ligand.torsion>
2.1137

> <Gold.PLP.Chemscore.Hbond>
2.0000

> <Gold.PLP.Chemscore.CHOScore>
0.0000

> <Gold.PLP.Chemscore.Metal>
0.0000

> <Gold.Chemscore.Hbonds>
donor molecule, donor type, donor heavy atom, donor atom, acceptor molecule, acceptor atom, score
      L1  H     6    32       P1  7948  1.00
      L1  H    21    24       P1 10956  0.36
      P1  H  6896  6907       L1    14  1.00

> <Gold.PLP.Chemscore.Internal.Correction>
5.0693

> <Gold.Rescore>
     Score         DG    S(hbond)    S(metal)    S(lipo)     H(rot)  DE(clash)    DE(int)     intcor
     -0.61     -10.28       1.92        0.00      35.82       2.27       0.02      10.88       ----

> <Gold.Chemscore.Fitness>
-0.6121

> <Gold.Chemscore.DG>
-10.2820

> <Gold.Chemscore.ZeroCoef>
-5.4800

> <Gold.Chemscore.Hbond>
1.9195

> <Gold.Chemscore.Metal>
0.0000

> <Gold.Chemscore.Lipo>
35.8232

> <Gold.Chemscore.Internal_Hbond>
0.0000

> <Gold.Chemscore.DEClash>
0.0155

> <Gold.Chemscore.DEInternal>
10.8786

> <Gold.Chemscore.Rot>
2.2658

> <Gold.Chemscore.Internal.Correction>
   9.000000E+99

> <Gold.Chemscore.Hbonds>
donor molecule, donor type, donor heavy atom, donor atom, acceptor molecule, acceptor atom, score
      L1  H     6    32       P1  7948  0.66
      L1  H    21    24       P1 10956  0.21
      P1  H  6896  6907       L1    14  1.00

> <Gold.Chemscore.Hbond.Weighted>
-6.4112

> <Gold.Chemscore.Metal.Weighted>
-0.0000

> <Gold.Chemscore.Lipo.Weighted>
-4.1913

> <Gold.Chemscore.Internal_Hbond.Weighted>
0.0000

> <Gold.Chemscore.DEClash.Weighted>
0.0155

> <Gold.Chemscore.DEInternal.Weighted>
10.8786

> <Gold.Chemscore.Rot.Weighted>
5.8005

> <Gold.Chemscore.Internal.Correction.Weighted>
   9.000000E+99

> <Gold.Protein.RotatedTorsions>
[ 6907 6896 6895 6894 ] final -135.21 input  -60.11 | X-H torsion
[ 7974 7965 7964 7962 ] final  120.65 input  175.53 | X-H torsion
[ 8008 7997 7996 7995 ] final   40.19 input   59.86 | X-H torsion
[ 10167 10162 10161 10158 ] final -154.85 input  -65.29 | X-H torsion
[ 10718 10713 10712 10709 ] final -107.37 input   66.30 | X-H torsion
[ 10763 10752 10751 10750 ] final   64.54 input  -60.55 | X-H torsion
[ 11005 11000 10999 10996 ] final  108.08 input  -57.11 | X-H torsion

> <Gold.Protein.ActiveResidues>
 VAL166  LYS551  ARG553  GLY616  TRP617  ASP618  TYR619  PRO620  LYS621  CYS622 
 ASP623  PHE694  ASN695  SER759  ASP760  ASP761  ALA762  ILE779  LEU786  VAL792 
 PHE793  MET794  SER795  GLU796  ALA797  LYS798  CYS799  TRP800  GLU811  SER814 

> <Gold.Protein.RotatedAtoms>
  150.9951  133.6110  159.2702 H   0  0  0  0  0  0  0  0  0  0  0  0  # atno 6907 bound_to 6896
  151.3317  135.0842  159.9350 H   0  0  0  0  0  0  0  0  0  0  0  0  # atno 6908 bound_to 6896
  152.5257  133.9580  159.7758 H   0  0  0  0  0  0  0  0  0  0  0  0  # atno 6909 bound_to 6896
  145.1286  139.3342  143.4677 H   0  0  0  0  0  0  0  0  0  0  0  0  # atno 7974 bound_to 7965
  155.2491  140.3351  155.4284 H   0  0  0  0  0  0  0  0  0  0  0  0  # atno 8008 bound_to 7997
  156.2223  140.1814  156.7490 H   0  0  0  0  0  0  0  0  0  0  0  0  # atno 8009 bound_to 7997
  154.5845  140.0648  156.9136 H   0  0  0  0  0  0  0  0  0  0  0  0  # atno 8010 bound_to 7997
  139.6980  143.9311  152.2416 H   0  0  0  0  0  0  0  0  0  0  0  0  # atno 10167 bound_to 10162
  156.0433  130.5659  150.7812 H   0  0  0  0  0  0  0  0  0  0  0  0  # atno 10718 bound_to 10713
  153.0060  135.5389  154.6526 H   0  0  0  0  0  0  0  0  0  0  0  0  # atno 10763 bound_to 10752
  154.5755  135.2845  155.0787 H   0  0  0  0  0  0  0  0  0  0  0  0  # atno 10764 bound_to 10752
  154.1937  135.6496  153.5119 H   0  0  0  0  0  0  0  0  0  0  0  0  # atno 10765 bound_to 10752
  139.8838  134.9420  156.5918 H   0  0  0  0  0  0  0  0  0  0  0  0  # atno 11005 bound_to 11000
  146.3515  140.1276  142.8598 LP  0  0  0  0  0  0  0  0  0  0  0  0  # atno 17320 bound_to 7965
  145.0660  140.9122  143.4910 LP  0  0  0  0  0  0  0  0  0  0  0  0  # atno 17321 bound_to 7965
  139.9145  144.6836  150.8527 LP  0  0  0  0  0  0  0  0  0  0  0  0  # atno 17342 bound_to 10162
  140.7701  143.3419  151.2190 LP  0  0  0  0  0  0  0  0  0  0  0  0  # atno 17343 bound_to 10162
  157.5279  131.0935  150.9994 LP  0  0  0  0  0  0  0  0  0  0  0  0  # atno 17370 bound_to 10713
  157.0308  130.5710  149.5343 LP  0  0  0  0  0  0  0  0  0  0  0  0  # atno 17371 bound_to 10713
  140.7950  133.8551  155.8678 LP  0  0  0  0  0  0  0  0  0  0  0  0  # atno 17394 bound_to 11000
  140.9644  134.1614  157.4628 LP  0  0  0  0  0  0  0  0  0  0  0  0  # atno 17395 bound_to 11000

$$$$
