AV-unprocessed.smi:2407|AV-procd|sdf|9519|dock7
  -GOLD-   2272013153D 1   1.00000     0.00000
 Structure written by MMmdl.
 38 39  0  0  0  0  0  0  0  0  1 V2000
  146.9970  140.4639  153.2328 C   0  0  0  0  0  0  0  0  0  0  0  0
  147.8035  139.4172  153.9435 C   0  0  0  0  0  0  0  0  0  0  0  0
  147.3368  138.0558  154.1258 C   0  0  0  0  0  0  0  0  0  0  0  0
  148.1169  137.1709  154.7830 C   0  0  0  0  0  0  0  0  0  0  0  0
  149.4230  137.5487  155.3185 C   0  0  0  0  0  0  0  0  0  0  0  0
  150.1502  136.7723  155.9379 O   0  0  0  0  0  0  0  0  0  0  0  0
  149.7599  138.8490  155.0755 N   0  0  0  0  0  0  0  0  0  0  0  0
  151.0318  139.3999  155.5550 C   0  0  0  0  0  0  0  0  0  0  0  0
  150.8152  140.4304  156.6895 C   0  0  1  0  0  0  0  0  0  0  0  0
  149.8548  139.9259  157.5953 O   0  0  0  0  0  0  0  0  0  0  0  0
  152.0966  140.7232  157.4841 C   0  0  0  0  0  0  0  0  0  0  0  0
  151.8880  141.8901  158.2682 O   0  0  0  0  0  0  0  0  0  0  0  0
  152.4047  141.9314  159.5466 C   0  0  0  0  0  0  0  0  0  0  0  0
  153.1039  140.8504  160.1423 C   0  0  0  0  0  0  0  0  0  0  0  0
  153.6037  140.9559  161.4534 C   0  0  0  0  0  0  0  0  0  0  0  0
  153.4141  142.1401  162.1856 C   0  0  0  0  0  0  0  0  0  0  0  0
  152.7248  143.2198  161.6050 C   0  0  0  0  0  0  0  0  0  0  0  0
  152.2173  143.1237  160.2893 C   0  0  0  0  0  0  0  0  0  0  0  0
  151.4834  144.3044  159.6618 C   0  0  0  0  0  0  0  0  0  0  0  0
  151.4762  145.3712  160.4621 F   0  0  0  0  0  0  0  0  0  0  0  0
  152.0870  144.6429  158.5230 F   0  0  0  0  0  0  0  0  0  0  0  0
  150.2177  143.9750  159.4019 F   0  0  0  0  0  0  0  0  0  0  0  0
  148.9599  139.7609  154.4081 N   0  0  0  0  0  0  0  0  0  0  0  0
  146.1541  140.0194  152.7034 H   0  0  0  0  0  0  0  0  0  0  0  0
  147.6048  140.9975  152.5013 H   0  0  0  0  0  0  0  0  0  0  0  0
  146.6010  141.1929  153.9399 H   0  0  0  0  0  0  0  0  0  0  0  0
  146.3729  137.7620  153.7370 H   0  0  0  0  0  0  0  0  0  0  0  0
  147.7678  136.1579  154.9184 H   0  0  0  0  0  0  0  0  0  0  0  0
  151.6955  138.5924  155.8712 H   0  0  0  0  0  0  0  0  0  0  0  0
  151.5578  139.8658  154.7193 H   0  0  0  0  0  0  0  0  0  0  0  0
  150.4283  141.3703  156.2921 H   0  0  0  0  0  0  0  0  0  0  0  0
  150.2844  139.7523  158.4195 H   0  0  0  0  0  0  0  0  0  0  0  0
  152.3191  139.8768  158.1363 H   0  0  0  0  0  0  0  0  0  0  0  0
  152.9407  140.8624  156.8060 H   0  0  0  0  0  0  0  0  0  0  0  0
  153.2712  139.9244  159.6141 H   0  0  0  0  0  0  0  0  0  0  0  0
  154.1339  140.1261  161.8970 H   0  0  0  0  0  0  0  0  0  0  0  0
  153.7987  142.2218  163.1915 H   0  0  0  0  0  0  0  0  0  0  0  0
  152.5934  144.1232  162.1814 H   0  0  0  0  0  0  0  0  0  0  0  0
  1  2  1  0  0  0  0
  1 24  1  0  0  0  0
  1 25  1  0  0  0  0
  1 26  1  0  0  0  0
  2 23  2  0  0  0  0
  2  3  1  0  0  0  0
  3  4  2  0  0  0  0
  3 27  1  0  0  0  0
  4  5  1  0  0  0  0
  4 28  1  0  0  0  0
  5  6  2  0  0  0  0
  5  7  1  0  0  0  0
  7  8  1  0  0  0  0
  7 23  1  0  0  0  0
  8  9  1  0  0  0  0
  8 29  1  0  0  0  0
  8 30  1  0  0  0  0
  9 10  1  0  0  0  0
  9 11  1  0  0  0  0
  9 31  1  0  0  0  0
 10 32  1  0  0  0  0
 11 12  1  0  0  0  0
 11 33  1  0  0  0  0
 11 34  1  0  0  0  0
 12 13  1  0  0  0  0
 13 18  1  0  0  0  0
 13 14  2  0  0  0  0
 14 15  1  0  0  0  0
 14 35  1  0  0  0  0
 15 16  2  0  0  0  0
 15 36  1  0  0  0  0
 16 17  1  0  0  0  0
 16 37  1  0  0  0  0
 17 18  2  0  0  0  0
 17 38  1  0  0  0  0
 18 19  1  0  0  0  0
 19 20  1  0  0  0  0
 19 21  1  0  0  0  0
 19 22  1  0  0  0  0
M  END
> <s_m_source_file>
AV-unprocessed.smi

> <i_m_source_file_index>
2407

> <i_lp_mmshare_version>
43012

> <i_f3d_flags>
0

> <s_epik_input>
W0NIM11jMVtjSF1bY0hdYyg9TyluKG4xKVtDSDJdW0NASF0oW09IXSlbQ0gyXU9jMltjSF1bY0hdW2NIXVtjSF1jMkMoRikoRilG

> <s_epik_cmdline>
J2VwaWtfcHl0aG9uJywgJy1waCcsICc3LjAnLCAnLXRuJywgJzgnLCAnLW1hJywgJzIwMCcsICctbWV0YWxfYmluZGluZycsICctaW1hZScsICc8aW5maWxlLm1hZT4nLCAnLW9tYWUnLCAnPG91dGZpbGUubWFlPic=

> <r_lp_tautomer_probability>
1

> <r_epik_Ionization_Penalty>
5.91655e-06

> <r_epik_Ionization_Penalty_Charging>
5.79937e-06

> <r_epik_Ionization_Penalty_Neutral>
1.17174e-07

> <r_epik_State_Penalty>
-0

> <r_epik_Charging_Adjusted_Penalty>
5.79937e-06

> <i_epik_Tot_Q>
0

> <i_epik_Tot_abs_Q>
0

> <r_epik_Metal_State_Penalty>
-0

> <b_epik_Metal_Only>
0

> <s_lp_Force_Field>
OPLS_2005

> <r_lp_Energy>
30.1001

> <b_lp_Chiralities_Consistent>
1

> <s_lp_Variant>
AV-unprocessed.smi:2407-2

> <Gold.Version>
5.8.1

> <Gold.Id.Protein>
6NUR|6NUR_protein|mol2

> <Gold.PLP.Fitness>
47.5277

> <Gold.PLP.PLP>
-48.6340

> <Gold.PLP.part.hbond>
0.0000

> <Gold.PLP.part.metal>
0.0000

> <Gold.PLP.part.buried>
-5.5081

> <Gold.PLP.part.nonpolar>
-42.4957

> <Gold.PLP.part.repulsive>
0.1905

> <Gold.PLP.ligand.clash>
0.4530

> <Gold.PLP.ligand.torsion>
0.6185

> <Gold.PLP.Chemscore.Hbond>
0.0000

> <Gold.PLP.Chemscore.CHOScore>
0.0000

> <Gold.PLP.Chemscore.Metal>
0.0000

> <Gold.PLP.Chemscore.Internal.Correction>
0.5837

> <Gold.Rescore>
     Score         DG    S(hbond)    S(metal)    S(lipo)     H(rot)  DE(clash)    DE(int)     intcor
      8.74     -12.10       0.00        0.00     113.56       2.60       0.16       3.20       ----

> <Gold.Chemscore.Fitness>
8.7407

> <Gold.Chemscore.DG>
-12.1017

> <Gold.Chemscore.ZeroCoef>
-5.4800

> <Gold.Chemscore.Hbond>
0.0000

> <Gold.Chemscore.Metal>
0.0000

> <Gold.Chemscore.Lipo>
113.5608

> <Gold.Chemscore.Internal_Hbond>
0.0000

> <Gold.Chemscore.DEClash>
0.1598

> <Gold.Chemscore.DEInternal>
3.2012

> <Gold.Chemscore.Rot>
2.6035

> <Gold.Chemscore.Internal.Correction>
   9.000000E+99

> <Gold.Chemscore.Hbond.Weighted>
-0.0000

> <Gold.Chemscore.Metal.Weighted>
-0.0000

> <Gold.Chemscore.Lipo.Weighted>
-13.2866

> <Gold.Chemscore.Internal_Hbond.Weighted>
0.0000

> <Gold.Chemscore.DEClash.Weighted>
0.1598

> <Gold.Chemscore.DEInternal.Weighted>
3.2012

> <Gold.Chemscore.Rot.Weighted>
6.6649

> <Gold.Chemscore.Internal.Correction.Weighted>
   9.000000E+99

> <Gold.Protein.RotatedTorsions>
[ 6907 6896 6895 6894 ] final  -12.62 input  -60.11 | X-H torsion
[ 7974 7965 7964 7962 ] final  -51.99 input  175.53 | X-H torsion
[ 8008 7997 7996 7995 ] final  162.45 input   59.86 | X-H torsion
[ 10167 10162 10161 10158 ] final  -24.19 input  -65.29 | X-H torsion
[ 10718 10713 10712 10709 ] final  121.55 input   66.30 | X-H torsion
[ 10763 10752 10751 10750 ] final   96.77 input  -60.55 | X-H torsion
[ 11005 11000 10999 10996 ] final  -50.48 input  -57.11 | X-H torsion

> <Gold.Protein.ActiveResidues>
 VAL166  LYS551  ARG553  GLY616  TRP617  ASP618  TYR619  PRO620  LYS621  CYS622 
 ASP623  PHE694  ASN695  SER759  ASP760  ASP761  ALA762  ILE779  LEU786  VAL792 
 PHE793  MET794  SER795  GLU796  ALA797  LYS798  CYS799  TRP800  GLU811  SER814 

> <Gold.Protein.RotatedAtoms>
  151.3676  135.0916  159.9454 H   0  0  0  0  0  0  0  0  0  0  0  0  # atno 6907 bound_to 6896
  152.5144  133.9196  159.7538 H   0  0  0  0  0  0  0  0  0  0  0  0  # atno 6908 bound_to 6896
  150.9603  133.6397  159.2784 H   0  0  0  0  0  0  0  0  0  0  0  0  # atno 6909 bound_to 6896
  145.9129  140.7899  142.9686 H   0  0  0  0  0  0  0  0  0  0  0  0  # atno 7974 bound_to 7965
  156.2030  140.1750  156.7859 H   0  0  0  0  0  0  0  0  0  0  0  0  # atno 8008 bound_to 7997
  154.5617  140.0698  156.8860 H   0  0  0  0  0  0  0  0  0  0  0  0  # atno 8009 bound_to 7997
  155.2835  140.3350  155.4259 H   0  0  0  0  0  0  0  0  0  0  0  0  # atno 8010 bound_to 7997
  140.7288  143.4376  151.0706 H   0  0  0  0  0  0  0  0  0  0  0  0  # atno 10167 bound_to 10162
  157.5809  131.1075  150.8188 H   0  0  0  0  0  0  0  0  0  0  0  0  # atno 10718 bound_to 10713
  153.2689  135.4206  155.0968 H   0  0  0  0  0  0  0  0  0  0  0  0  # atno 10763 bound_to 10752
  154.8448  135.3467  154.6271 H   0  0  0  0  0  0  0  0  0  0  0  0  # atno 10764 bound_to 10752
  153.6691  135.7044  153.5210 H   0  0  0  0  0  0  0  0  0  0  0  0  # atno 10765 bound_to 10752
  141.0818  133.6651  156.3737 H   0  0  0  0  0  0  0  0  0  0  0  0  # atno 11005 bound_to 11000
  144.6745  140.1855  143.7402 LP  0  0  0  0  0  0  0  0  0  0  0  0  # atno 17320 bound_to 7965
  145.8648  139.2241  143.1695 LP  0  0  0  0  0  0  0  0  0  0  0  0  # atno 17321 bound_to 7965
  139.8039  143.8045  152.3165 LP  0  0  0  0  0  0  0  0  0  0  0  0  # atno 17342 bound_to 10162
  139.8071  144.7351  150.9747 LP  0  0  0  0  0  0  0  0  0  0  0  0  # atno 17343 bound_to 10162
  156.8635  130.5121  149.5302 LP  0  0  0  0  0  0  0  0  0  0  0  0  # atno 17370 bound_to 10713
  156.0855  130.5855  150.9640 LP  0  0  0  0  0  0  0  0  0  0  0  0  # atno 17371 bound_to 10713
  140.5451  134.6082  157.5391 LP  0  0  0  0  0  0  0  0  0  0  0  0  # atno 17394 bound_to 11000
  139.9633  134.7416  156.0191 LP  0  0  0  0  0  0  0  0  0  0  0  0  # atno 17395 bound_to 11000

$$$$
