AV-unprocessed.smi:1355|AV-procd|sdf|5537|dock3
  -GOLD-   22720 5133D 1   1.00000     0.00000
 Structure written by MMmdl.
 32 33  0  0  0  0  0  0  0  0  1 V2000
  153.8861  139.1527  159.2726 C   0  0  0  0  0  0  0  0  0  0  0  0
  153.7555  139.1673  157.8624 O   0  0  0  0  0  0  0  0  0  0  0  0
  152.4932  138.6924  157.4267 C   0  0  0  0  0  0  0  0  0  0  0  0
  151.3682  139.4544  158.1411 C   0  0  0  0  0  0  0  0  0  0  0  0
  151.3010  140.8525  157.7338 N   0  0  0  0  0  0  0  0  0  0  0  0
  150.7942  141.3982  156.5946 C   0  0  0  0  0  0  0  0  0  0  0  0
  150.1657  140.5890  155.4918 C   0  0  1  0  0  0  0  0  0  0  0  0
  149.2862  141.4475  154.5706 C   0  0  0  0  0  0  0  0  0  0  0  0
  151.1385  139.9379  154.7017 O   0  0  0  0  0  0  0  0  0  0  0  0
  150.9065  142.7251  156.4945 N   0  0  0  0  0  0  0  0  0  0  0  0
  151.5132  143.0751  157.6831 C   0  0  0  0  0  0  0  0  0  0  0  0
  151.8906  144.3421  158.1829 C   0  0  0  0  0  0  0  0  0  0  0  0
  152.5044  144.4566  159.4473 C   0  0  0  0  0  0  0  0  0  0  0  0
  152.7496  143.3081  160.2275 C   0  0  0  0  0  0  0  0  0  0  0  0
  152.3838  142.0363  159.7463 C   0  0  0  0  0  0  0  0  0  0  0  0
  151.7707  141.9273  158.4833 C   0  0  0  0  0  0  0  0  0  0  0  0
  154.8666  139.5360  159.5535 H   0  0  0  0  0  0  0  0  0  0  0  0
  153.7965  138.1391  159.6651 H   0  0  0  0  0  0  0  0  0  0  0  0
  153.1305  139.7803  159.7465 H   0  0  0  0  0  0  0  0  0  0  0  0
  152.3977  138.8197  156.3471 H   0  0  0  0  0  0  0  0  0  0  0  0
  152.4066  137.6254  157.6370 H   0  0  0  0  0  0  0  0  0  0  0  0
  150.4116  138.9852  157.9094 H   0  0  0  0  0  0  0  0  0  0  0  0
  151.4688  139.3831  159.2229 H   0  0  0  0  0  0  0  0  0  0  0  0
  149.5354  139.8075  155.9088 H   0  0  0  0  0  0  0  0  0  0  0  0
  148.4939  141.9433  155.1310 H   0  0  0  0  0  0  0  0  0  0  0  0
  148.8120  140.8381  153.8008 H   0  0  0  0  0  0  0  0  0  0  0  0
  149.8685  142.2212  154.0686 H   0  0  0  0  0  0  0  0  0  0  0  0
  151.3792  139.1332  155.1350 H   0  0  0  0  0  0  0  0  0  0  0  0
  151.7063  145.2274  157.5925 H   0  0  0  0  0  0  0  0  0  0  0  0
  152.7878  145.4298  159.8204 H   0  0  0  0  0  0  0  0  0  0  0  0
  153.2192  143.4040  161.1955 H   0  0  0  0  0  0  0  0  0  0  0  0
  152.5713  141.1557  160.3426 H   0  0  0  0  0  0  0  0  0  0  0  0
  1  2  1  0  0  0  0
  1 17  1  0  0  0  0
  1 18  1  0  0  0  0
  1 19  1  0  0  0  0
  2  3  1  0  0  0  0
  3  4  1  0  0  0  0
  3 20  1  0  0  0  0
  3 21  1  0  0  0  0
  4  5  1  0  0  0  0
  4 22  1  0  0  0  0
  4 23  1  0  0  0  0
  5 16  1  0  0  0  0
  5  6  1  0  0  0  0
  6  7  1  0  0  0  0
  6 10  2  0  0  0  0
  7  8  1  0  0  0  0
  7  9  1  0  0  0  0
  7 24  1  0  0  0  0
  8 25  1  0  0  0  0
  8 26  1  0  0  0  0
  8 27  1  0  0  0  0
  9 28  1  0  0  0  0
 10 11  1  0  0  0  0
 11 16  2  0  0  0  0
 11 12  1  0  0  0  0
 12 13  2  0  0  0  0
 12 29  1  0  0  0  0
 13 14  1  0  0  0  0
 13 30  1  0  0  0  0
 14 15  2  0  0  0  0
 14 31  1  0  0  0  0
 15 16  1  0  0  0  0
 15 32  1  0  0  0  0
M  END
> <s_m_source_file>
AV-unprocessed.smi

> <i_m_source_file_index>
1355

> <i_lp_mmshare_version>
43012

> <i_f3d_flags>
0

> <s_epik_input>
W0NIM11PW0NIMl1bQ0gyXW4oYyhuMSlbQ0BIXShbQ0gzXSlbT0hdKWMoYzEyKVtjSF1bY0hdW2NIXVtjSF0y

> <s_epik_cmdline>
J2VwaWtfcHl0aG9uJywgJy1waCcsICc3LjAnLCAnLXRuJywgJzgnLCAnLW1hJywgJzIwMCcsICctbWV0YWxfYmluZGluZycsICctaW1hZScsICc8aW5maWxlLm1hZT4nLCAnLW9tYWUnLCAnPG91dGZpbGUubWFlPic=

> <r_epik_Ionization_Penalty>
0.055138

> <r_epik_Ionization_Penalty_Charging>
0

> <r_epik_Ionization_Penalty_Neutral>
0.055138

> <r_epik_State_Penalty>
0.0474756

> <r_epik_Charging_Adjusted_Penalty>
0.0474756

> <i_epik_Tot_Q>
0

> <i_epik_Tot_abs_Q>
0

> <r_epik_Metal_State_Penalty>
4.94275e-05

> <b_epik_Metal_Only>
0

> <s_lp_Force_Field>
OPLS_2005

> <r_lp_Energy>
6.46782

> <b_lp_Chiralities_Consistent>
1

> <s_lp_Variant>
AV-unprocessed.smi:1355-2

> <Gold.Version>
5.8.1

> <Gold.Id.Protein>
6NUR|6NUR_protein|mol2

> <Gold.PLP.Fitness>
41.0801

> <Gold.PLP.PLP>
-36.5966

> <Gold.PLP.part.hbond>
-1.9220

> <Gold.PLP.part.metal>
0.0000

> <Gold.PLP.part.buried>
-4.9492

> <Gold.PLP.part.nonpolar>
-30.9973

> <Gold.PLP.part.repulsive>
1.0349

> <Gold.PLP.ligand.clash>
0.0000

> <Gold.PLP.ligand.torsion>
0.7623

> <Gold.PLP.Chemscore.Hbond>
2.0000

> <Gold.PLP.Chemscore.CHOScore>
0.0000

> <Gold.PLP.Chemscore.Metal>
0.0000

> <Gold.Chemscore.Hbonds>
donor molecule, donor type, donor heavy atom, donor atom, acceptor molecule, acceptor atom, score
      P1  H  7989  7998       L1     9  1.00
      P1  H  7997  8010       L1     2  0.94

> <Gold.PLP.Chemscore.Internal.Correction>
0.0082

> <Gold.Rescore>
     Score         DG    S(hbond)    S(metal)    S(lipo)     H(rot)  DE(clash)    DE(int)     intcor
     16.54     -17.59       1.95        0.00      92.48       2.04       0.05       1.01       ----

> <Gold.Chemscore.Fitness>
16.5388

> <Gold.Chemscore.DG>
-17.5917

> <Gold.Chemscore.ZeroCoef>
-5.4800

> <Gold.Chemscore.Hbond>
1.9496

> <Gold.Chemscore.Metal>
0.0000

> <Gold.Chemscore.Lipo>
92.4779

> <Gold.Chemscore.Internal_Hbond>
0.0000

> <Gold.Chemscore.DEClash>
0.0456

> <Gold.Chemscore.DEInternal>
1.0073

> <Gold.Chemscore.Rot>
2.0390

> <Gold.Chemscore.Internal.Correction>
   9.000000E+99

> <Gold.Chemscore.Hbonds>
donor molecule, donor type, donor heavy atom, donor atom, acceptor molecule, acceptor atom, score
      P1  H  7989  7998       L1     9  0.81
      P1  H  7997  8010       L1     2  0.73

> <Gold.Chemscore.Hbond.Weighted>
-6.5117

> <Gold.Chemscore.Metal.Weighted>
-0.0000

> <Gold.Chemscore.Lipo.Weighted>
-10.8199

> <Gold.Chemscore.Internal_Hbond.Weighted>
0.0000

> <Gold.Chemscore.DEClash.Weighted>
0.0456

> <Gold.Chemscore.DEInternal.Weighted>
1.0073

> <Gold.Chemscore.Rot.Weighted>
5.2199

> <Gold.Chemscore.Internal.Correction.Weighted>
   9.000000E+99

> <Gold.Protein.RotatedTorsions>
[ 6907 6896 6895 6894 ] final   85.59 input  -60.11 | X-H torsion
[ 7974 7965 7964 7962 ] final -103.65 input  175.53 | X-H torsion
[ 8008 7997 7996 7995 ] final   17.11 input   59.86 | X-H torsion
[ 10167 10162 10161 10158 ] final   76.05 input  -65.29 | X-H torsion
[ 10718 10713 10712 10709 ] final   37.31 input   66.30 | X-H torsion
[ 10763 10752 10751 10750 ] final  -12.95 input  -60.55 | X-H torsion
[ 11005 11000 10999 10996 ] final  -96.28 input  -57.11 | X-H torsion

> <Gold.Protein.ActiveResidues>
 VAL166  LYS551  ARG553  GLY616  TRP617  ASP618  TYR619  PRO620  LYS621  CYS622 
 ASP623  PHE694  ASN695  SER759  ASP760  ASP761  ALA762  ILE779  LEU786  VAL792 
 PHE793  MET794  SER795  GLU796  ALA797  LYS798  CYS799  TRP800  GLU811  SER814 

> <Gold.Protein.RotatedAtoms>
  152.5378  134.2562  159.8917 H   0  0  0  0  0  0  0  0  0  0  0  0  # atno 6907 bound_to 6896
  151.2523  133.4337  159.2619 H   0  0  0  0  0  0  0  0  0  0  0  0  # atno 6908 bound_to 6896
  151.0528  134.9698  159.8276 H   0  0  0  0  0  0  0  0  0  0  0  0  # atno 6909 bound_to 6896
  145.2532  140.9245  143.3083 H   0  0  0  0  0  0  0  0  0  0  0  0  # atno 7974 bound_to 7965
  154.8867  140.2981  155.5394 H   0  0  0  0  0  0  0  0  0  0  0  0  # atno 8008 bound_to 7997
  156.3021  140.2432  156.3811 H   0  0  0  0  0  0  0  0  0  0  0  0  # atno 8009 bound_to 7997
  154.8661  140.0403  157.1684 H   0  0  0  0  0  0  0  0  0  0  0  0  # atno 8010 bound_to 7997
  139.9964  144.5719  150.7774 H   0  0  0  0  0  0  0  0  0  0  0  0  # atno 10167 bound_to 10162
  157.3454  130.7570  149.6941 H   0  0  0  0  0  0  0  0  0  0  0  0  # atno 10718 bound_to 10713
  153.5060  135.7017  153.5806 H   0  0  0  0  0  0  0  0  0  0  0  0  # atno 10763 bound_to 10752
  153.3917  135.3894  155.1927 H   0  0  0  0  0  0  0  0  0  0  0  0  # atno 10764 bound_to 10752
  154.8707  135.3860  154.4535 H   0  0  0  0  0  0  0  0  0  0  0  0  # atno 10765 bound_to 10752
  141.1416  133.8086  157.0550 H   0  0  0  0  0  0  0  0  0  0  0  0  # atno 11005 bound_to 11000
  144.9484  139.4110  143.6414 LP  0  0  0  0  0  0  0  0  0  0  0  0  # atno 17320 bound_to 7965
  146.3297  139.8480  142.8878 LP  0  0  0  0  0  0  0  0  0  0  0  0  # atno 17321 bound_to 7965
  140.7435  143.2847  151.3496 LP  0  0  0  0  0  0  0  0  0  0  0  0  # atno 17342 bound_to 10162
  139.6303  144.0734  152.2470 LP  0  0  0  0  0  0  0  0  0  0  0  0  # atno 17343 bound_to 10162
  155.9713  130.4155  150.4187 LP  0  0  0  0  0  0  0  0  0  0  0  0  # atno 17370 bound_to 10713
  157.2242  131.0489  151.2529 LP  0  0  0  0  0  0  0  0  0  0  0  0  # atno 17371 bound_to 10713
  140.0608  134.9756  157.1300 LP  0  0  0  0  0  0  0  0  0  0  0  0  # atno 17394 bound_to 11000
  140.3852  134.2244  155.7169 LP  0  0  0  0  0  0  0  0  0  0  0  0  # atno 17395 bound_to 11000

$$$$
