AV-unprocessed.smi:2062|AV-procd|sdf|8401|dock1
  -GOLD-   2272011 83D 1   1.00000     0.00000
 Structure written by MMmdl.
 42 43  0  0  0  0  0  0  0  0  1 V2000
  153.3141  138.7049  154.5364 C   0  0  0  0  0  0  0  0  0  0  0  0
  152.2724  139.1019  155.5944 C   0  0  0  0  0  0  0  0  0  0  0  0
  152.7626  138.6837  156.9916 C   0  0  0  0  0  0  0  0  0  0  0  0
  150.8879  138.4954  155.2646 C   0  0  0  0  0  0  0  0  0  0  0  0
  150.0224  139.3171  154.4168 N   0  0  0  0  0  0  0  0  0  0  0  0
  149.7030  140.6102  155.0157 C   0  0  0  0  0  0  0  0  0  0  0  0
  148.7620  141.4398  154.1255 C   0  0  0  0  0  0  0  0  0  0  0  0
  147.5822  140.6925  153.8512 O   0  0  0  0  0  0  0  0  0  0  0  0
  147.8505  139.4507  153.2041 C   0  0  2  0  0  0  0  0  0  0  0  0
  146.5127  138.7393  152.9376 C   0  0  0  0  0  0  0  0  0  0  0  0
  146.7139  137.3977  152.4004 N   0  0  0  0  0  0  0  0  0  0  0  0
  145.7387  136.5076  152.1694 C   0  0  0  0  0  0  0  0  0  0  0  0
  144.5461  136.7437  152.3620 O   0  0  0  0  0  0  0  0  0  0  0  0
  146.2369  135.3473  151.7126 N   0  0  0  0  0  0  0  0  0  0  0  0
  145.5251  134.1659  151.3879 C   0  0  0  0  0  0  0  0  0  0  0  0
  144.1924  134.1771  151.4519 N   0  0  0  0  0  0  0  0  0  0  0  0
  143.6393  132.9430  151.0976 C   0  0  0  0  0  0  0  0  0  0  0  0
  144.5741  131.9943  150.7645 C   0  0  0  0  0  0  0  0  0  0  0  0
  146.1990  132.6143  150.8818 S   0  0  0  0  0  0  0  0  0  0  0  0
  148.7795  138.6168  154.1081 C   0  0  0  0  0  0  0  0  0  0  0  0
  153.4446  137.6232  154.4942 H   0  0  0  0  0  0  0  0  0  0  0  0
  154.2857  139.1494  154.7535 H   0  0  0  0  0  0  0  0  0  0  0  0
  153.0152  139.0438  153.5439 H   0  0  0  0  0  0  0  0  0  0  0  0
  152.1971  140.1900  155.5684 H   0  0  0  0  0  0  0  0  0  0  0  0
  152.8931  137.6031  157.0572 H   0  0  0  0  0  0  0  0  0  0  0  0
  152.0626  138.9780  157.7729 H   0  0  0  0  0  0  0  0  0  0  0  0
  153.7218  139.1471  157.2237 H   0  0  0  0  0  0  0  0  0  0  0  0
  151.0518  137.5480  154.7489 H   0  0  0  0  0  0  0  0  0  0  0  0
  150.3663  138.2289  156.1854 H   0  0  0  0  0  0  0  0  0  0  0  0
  149.2399  140.4622  155.9925 H   0  0  0  0  0  0  0  0  0  0  0  0
  150.6142  141.1835  155.1813 H   0  0  0  0  0  0  0  0  0  0  0  0
  148.4877  142.3686  154.6256 H   0  0  0  0  0  0  0  0  0  0  0  0
  149.2541  141.7121  153.1904 H   0  0  0  0  0  0  0  0  0  0  0  0
  148.3547  139.6427  152.2552 H   0  0  0  0  0  0  0  0  0  0  0  0
  145.9223  138.6845  153.8539 H   0  0  0  0  0  0  0  0  0  0  0  0
  145.9205  139.3108  152.2224 H   0  0  0  0  0  0  0  0  0  0  0  0
  147.6674  137.1206  152.2173 H   0  0  0  0  0  0  0  0  0  0  0  0
  147.2384  135.2976  151.5981 H   0  0  0  0  0  0  0  0  0  0  0  0
  142.5656  132.8271  151.1092 H   0  0  0  0  0  0  0  0  0  0  0  0
  144.4062  130.9727  150.4578 H   0  0  0  0  0  0  0  0  0  0  0  0
  149.0042  137.6705  153.6145 H   0  0  0  0  0  0  0  0  0  0  0  0
  148.2573  138.3681  155.0337 H   0  0  0  0  0  0  0  0  0  0  0  0
  1  2  1  0  0  0  0
  1 21  1  0  0  0  0
  1 22  1  0  0  0  0
  1 23  1  0  0  0  0
  2  3  1  0  0  0  0
  2  4  1  0  0  0  0
  2 24  1  0  0  0  0
  3 25  1  0  0  0  0
  3 26  1  0  0  0  0
  3 27  1  0  0  0  0
  4  5  1  0  0  0  0
  4 28  1  0  0  0  0
  4 29  1  0  0  0  0
  5 20  1  0  0  0  0
  5  6  1  0  0  0  0
  6  7  1  0  0  0  0
  6 30  1  0  0  0  0
  6 31  1  0  0  0  0
  7  8  1  0  0  0  0
  7 32  1  0  0  0  0
  7 33  1  0  0  0  0
  8  9  1  0  0  0  0
  9 10  1  0  0  0  0
  9 20  1  0  0  0  0
  9 34  1  0  0  0  0
 10 11  1  0  0  0  0
 10 35  1  0  0  0  0
 10 36  1  0  0  0  0
 11 12  1  0  0  0  0
 11 37  1  0  0  0  0
 12 13  2  0  0  0  0
 12 14  1  0  0  0  0
 14 15  1  0  0  0  0
 14 38  1  0  0  0  0
 15 19  1  0  0  0  0
 15 16  2  0  0  0  0
 16 17  1  0  0  0  0
 17 18  2  0  0  0  0
 17 39  1  0  0  0  0
 18 19  1  0  0  0  0
 18 40  1  0  0  0  0
 20 41  1  0  0  0  0
 20 42  1  0  0  0  0
M  END
> <s_m_source_file>
AV-unprocessed.smi

> <i_m_source_file_index>
2062

> <i_lp_mmshare_version>
43012

> <i_f3d_flags>
0

> <s_epik_input>
W0NIM11bQ0hdKFtDSDNdKVtDSDJdTjFbQ0gyXVtDSDJdT1tDQEhdKFtDSDJdMSlbQ0gyXVtOSF1DKD1PKVtOSF1jMm5bY0hdW2NIXXMy

> <s_epik_cmdline>
J2VwaWtfcHl0aG9uJywgJy1waCcsICc3LjAnLCAnLXRuJywgJzgnLCAnLW1hJywgJzIwMCcsICctbWV0YWxfYmluZGluZycsICctaW1hZScsICc8aW5maWxlLm1hZT4nLCAnLW9tYWUnLCAnPG91dGZpbGUubWFlPic=

> <r_lp_tautomer_probability>
0.999

> <r_epik_Ionization_Penalty>
1.11227

> <r_epik_Ionization_Penalty_Charging>
0

> <r_epik_Ionization_Penalty_Neutral>
1.11227

> <r_epik_State_Penalty>
1.17021

> <r_epik_Charging_Adjusted_Penalty>
1.17021

> <i_epik_Tot_Q>
0

> <i_epik_Tot_abs_Q>
0

> <r_epik_Metal_State_Penalty>
1.22349

> <b_epik_Metal_Only>
0

> <s_lp_Force_Field>
OPLS_2005

> <r_lp_Energy>
23.0648

> <b_lp_Chiralities_Consistent>
1

> <s_lp_Variant>
AV-unprocessed.smi:2062-6

> <Gold.Version>
5.8.1

> <Gold.Id.Protein>
6NUR|6NUR_protein|mol2

> <Gold.PLP.Fitness>
41.3541

> <Gold.PLP.PLP>
-33.7383

> <Gold.PLP.part.hbond>
-2.0000

> <Gold.PLP.part.metal>
0.0000

> <Gold.PLP.part.buried>
-1.6146

> <Gold.PLP.part.nonpolar>
-30.5322

> <Gold.PLP.part.repulsive>
0.8707

> <Gold.PLP.ligand.clash>
0.0000

> <Gold.PLP.ligand.torsion>
0.4307

> <Gold.PLP.Chemscore.Hbond>
1.9440

> <Gold.PLP.Chemscore.CHOScore>
0.8701

> <Gold.PLP.Chemscore.Metal>
0.0000

> <Gold.Chemscore.Hbonds>
donor molecule, donor type, donor heavy atom, donor atom, acceptor molecule, acceptor atom, score
      L1  H    11    37       P1  7948  1.00
      L1  H    14    38       P1  7948  0.94
      L1  C    17    39       P1 10186  0.45

> <Gold.PLP.Chemscore.Internal.Correction>
0.0348

> <Gold.Rescore>
     Score         DG    S(hbond)    S(metal)    S(lipo)     H(rot)  DE(clash)    DE(int)     intcor
     15.44     -17.51       1.92        0.00      85.57       1.72       0.23       1.84       ----

> <Gold.Chemscore.Fitness>
15.4391

> <Gold.Chemscore.DG>
-17.5056

> <Gold.Chemscore.ZeroCoef>
-5.4800

> <Gold.Chemscore.Hbond>
1.9209

> <Gold.Chemscore.Metal>
0.0000

> <Gold.Chemscore.Lipo>
85.5698

> <Gold.Chemscore.Internal_Hbond>
0.0000

> <Gold.Chemscore.DEClash>
0.2256

> <Gold.Chemscore.DEInternal>
1.8410

> <Gold.Chemscore.Rot>
1.7195

> <Gold.Chemscore.Internal.Correction>
   9.000000E+99

> <Gold.Chemscore.Hbonds>
donor molecule, donor type, donor heavy atom, donor atom, acceptor molecule, acceptor atom, score
      L1  H    11    37       P1  7948  0.98
      L1  H    14    38       P1  7948  0.85

> <Gold.Chemscore.Hbond.Weighted>
-6.4158

> <Gold.Chemscore.Metal.Weighted>
-0.0000

> <Gold.Chemscore.Lipo.Weighted>
-10.0117

> <Gold.Chemscore.Internal_Hbond.Weighted>
0.0000

> <Gold.Chemscore.DEClash.Weighted>
0.2256

> <Gold.Chemscore.DEInternal.Weighted>
1.8410

> <Gold.Chemscore.Rot.Weighted>
4.4019

> <Gold.Chemscore.Internal.Correction.Weighted>
   9.000000E+99

> <Gold.Protein.RotatedTorsions>
[ 6907 6896 6895 6894 ] final   94.35 input  -60.11 | X-H torsion
[ 7974 7965 7964 7962 ] final   74.34 input  175.53 | X-H torsion
[ 8008 7997 7996 7995 ] final    5.85 input   59.86 | X-H torsion
[ 10167 10162 10161 10158 ] final -151.06 input  -65.29 | X-H torsion
[ 10718 10713 10712 10709 ] final  -91.55 input   66.30 | X-H torsion
[ 10763 10752 10751 10750 ] final -133.11 input  -60.55 | X-H torsion
[ 11005 11000 10999 10996 ] final  -87.37 input  -57.11 | X-H torsion

> <Gold.Protein.ActiveResidues>
 VAL166  LYS551  ARG553  GLY616  TRP617  ASP618  TYR619  PRO620  LYS621  CYS622 
 ASP623  PHE694  ASN695  SER759  ASP760  ASP761  ALA762  ILE779  LEU786  VAL792 
 PHE793  MET794  SER795  GLU796  ALA797  LYS798  CYS799  TRP800  GLU811  SER814 

> <Gold.Protein.RotatedAtoms>
  152.5450  134.1207  159.8397 H   0  0  0  0  0  0  0  0  0  0  0  0  # atno 6907 bound_to 6896
  151.1263  133.5061  159.2608 H   0  0  0  0  0  0  0  0  0  0  0  0  # atno 6908 bound_to 6896
  151.1724  135.0333  159.8812 H   0  0  0  0  0  0  0  0  0  0  0  0  # atno 6909 bound_to 6896
  145.7295  139.2678  143.1550 H   0  0  0  0  0  0  0  0  0  0  0  0  # atno 7974 bound_to 7965
  154.7336  140.2735  155.6434 H   0  0  0  0  0  0  0  0  0  0  0  0  # atno 8008 bound_to 7997
  156.2856  140.2711  156.1969 H   0  0  0  0  0  0  0  0  0  0  0  0  # atno 8009 bound_to 7997
  155.0349  140.0371  157.2478 H   0  0  0  0  0  0  0  0  0  0  0  0  # atno 8010 bound_to 7997
  139.7300  143.8823  152.2531 H   0  0  0  0  0  0  0  0  0  0  0  0  # atno 10167 bound_to 10162
  155.9994  130.4952  150.5492 H   0  0  0  0  0  0  0  0  0  0  0  0  # atno 10718 bound_to 10713
  154.8736  135.3776  154.4520 H   0  0  0  0  0  0  0  0  0  0  0  0  # atno 10763 bound_to 10752
  153.5195  135.7029  153.5744 H   0  0  0  0  0  0  0  0  0  0  0  0  # atno 10764 bound_to 10752
  153.3997  135.3951  155.1945 H   0  0  0  0  0  0  0  0  0  0  0  0  # atno 10765 bound_to 10752
  141.1618  133.7507  156.9296 H   0  0  0  0  0  0  0  0  0  0  0  0  # atno 11005 bound_to 11000
  146.0551  140.8029  142.9762 LP  0  0  0  0  0  0  0  0  0  0  0  0  # atno 17320 bound_to 7965
  144.6896  140.3112  143.7248 LP  0  0  0  0  0  0  0  0  0  0  0  0  # atno 17321 bound_to 7965
  139.8743  144.7051  150.8950 LP  0  0  0  0  0  0  0  0  0  0  0  0  # atno 17342 bound_to 10162
  140.7769  143.3712  151.1646 LP  0  0  0  0  0  0  0  0  0  0  0  0  # atno 17343 bound_to 10162
  157.3417  131.0718  151.1783 LP  0  0  0  0  0  0  0  0  0  0  0  0  # atno 17370 bound_to 10713
  157.2629  130.6667  149.5983 LP  0  0  0  0  0  0  0  0  0  0  0  0  # atno 17371 bound_to 10713
  140.1395  134.9303  157.2447 LP  0  0  0  0  0  0  0  0  0  0  0  0  # atno 17394 bound_to 11000
  140.2854  134.3302  155.7330 LP  0  0  0  0  0  0  0  0  0  0  0  0  # atno 17395 bound_to 11000

$$$$
