AV-unprocessed.smi:1166|AV-procd|sdf|4935|dock9
  -GOLD-   22720 3523D 1   1.00000     0.00000
 Structure written by MMmdl.
 47 48  0  0  0  0  0  0  0  0  2 V2000
  152.1985  144.3839  157.8669 C   0  0  0  0  0  0  0  0  0  0  0  0
  152.0853  144.5646  159.3083 N   0  0  0  0  0  0  0  0  0  0  0  0
  151.3323  145.6893  159.8524 C   0  0  0  0  0  0  0  0  0  0  0  0
  152.6393  143.6037  160.1815 C   0  0  0  0  0  0  0  0  0  0  0  0
  152.5313  143.6827  161.5913 C   0  0  0  0  0  0  0  0  0  0  0  0
  153.1127  142.6854  162.4015 C   0  0  0  0  0  0  0  0  0  0  0  0
  153.8051  141.6068  161.7964 C   0  0  0  0  0  0  0  0  0  0  0  0
  154.4366  140.5438  162.5010 N   0  0  0  0  0  0  0  0  0  0  0  0
  154.5931  139.2549  162.1510 C   0  0  0  0  0  0  0  0  0  0  0  0
  154.2237  138.7492  161.0921 O   0  0  0  0  0  0  0  0  0  0  0  0
  155.2172  138.5672  163.1177 N   0  0  0  0  0  0  0  0  0  0  0  0
  155.5362  137.1433  163.0697 C   0  0  1  0  0  0  0  0  0  0  0  0
  155.9452  136.6310  164.4600 C   0  0  0  0  0  0  0  0  0  0  0  0
  156.2215  135.1244  164.3953 C   0  0  0  0  0  0  0  0  0  0  0  0
  155.0099  134.3559  163.8385 C   0  0  0  0  0  0  0  0  0  0  0  0
  154.5651  134.9042  162.5409 N   0  0  0  0  0  0  0  0  0  0  0  0
  154.9881  134.0907  161.0615 S   0  0  0  0  0  0  0  0  0  0  0  0
  156.7604  134.5124  160.8040 C   0  0  0  0  0  0  0  0  0  0  0  0
  154.8919  132.6428  161.3023 O   0  0  0  0  0  0  0  0  0  0  0  0
  154.2087  134.7019  159.9739 O   0  0  0  0  0  0  0  0  0  0  0  0
  154.3199  136.3602  162.5383 C   0  0  0  0  0  0  0  0  0  0  0  0
  153.8797  141.5751  160.3891 C   0  0  0  0  0  0  0  0  0  0  0  0
  153.3081  142.5509  159.6517 N   0  3  0  0  0  0  0  0  0  0  0  0
  153.2453  144.3908  157.5615 H   0  0  0  0  0  0  0  0  0  0  0  0
  151.6885  145.1813  157.3259 H   0  0  0  0  0  0  0  0  0  0  0  0
  151.7516  143.4371  157.5624 H   0  0  0  0  0  0  0  0  0  0  0  0
  150.4707  145.3346  160.4192 H   0  0  0  0  0  0  0  0  0  0  0  0
  150.9654  146.3420  159.0600 H   0  0  0  0  0  0  0  0  0  0  0  0
  151.9604  146.2882  160.5125 H   0  0  0  0  0  0  0  0  0  0  0  0
  152.0091  144.4967  162.0709 H   0  0  0  0  0  0  0  0  0  0  0  0
  153.0077  142.7806  163.4698 H   0  0  0  0  0  0  0  0  0  0  0  0
  154.8041  140.7940  163.4075 H   0  0  0  0  0  0  0  0  0  0  0  0
  155.4885  139.0624  163.9546 H   0  0  0  0  0  0  0  0  0  0  0  0
  156.3695  136.9932  162.3833 H   0  0  0  0  0  0  0  0  0  0  0  0
  156.8329  137.1554  164.8158 H   0  0  0  0  0  0  0  0  0  0  0  0
  155.1519  136.8294  165.1821 H   0  0  0  0  0  0  0  0  0  0  0  0
  157.0989  134.9407  163.7766 H   0  0  0  0  0  0  0  0  0  0  0  0
  156.4679  134.7510  165.3895 H   0  0  0  0  0  0  0  0  0  0  0  0
  155.2438  133.2960  163.7437 H   0  0  0  0  0  0  0  0  0  0  0  0
  154.1803  134.4253  164.5428 H   0  0  0  0  0  0  0  0  0  0  0  0
  157.1120  134.0272  159.8937 H   0  0  0  0  0  0  0  0  0  0  0  0
  157.3536  134.1568  161.6446 H   0  0  0  0  0  0  0  0  0  0  0  0
  156.8750  135.5892  160.6943 H   0  0  0  0  0  0  0  0  0  0  0  0
  153.4486  136.5599  163.1636 H   0  0  0  0  0  0  0  0  0  0  0  0
  154.0596  136.6960  161.5345 H   0  0  0  0  0  0  0  0  0  0  0  0
  154.3807  140.7993  159.8279 H   0  0  0  0  0  0  0  0  0  0  0  0
  153.3857  142.4922  158.6362 H   0  0  0  0  0  0  0  0  0  0  0  0
  1  2  1  0  0  0  0
  1 24  1  0  0  0  0
  1 25  1  0  0  0  0
  1 26  1  0  0  0  0
  2  3  1  0  0  0  0
  2  4  1  0  0  0  0
  3 27  1  0  0  0  0
  3 28  1  0  0  0  0
  3 29  1  0  0  0  0
  4 23  1  0  0  0  0
  4  5  2  0  0  0  0
  5  6  1  0  0  0  0
  5 30  1  0  0  0  0
  6  7  2  0  0  0  0
  6 31  1  0  0  0  0
  7  8  1  0  0  0  0
  7 22  1  0  0  0  0
  8  9  1  0  0  0  0
  8 32  1  0  0  0  0
  9 10  2  0  0  0  0
  9 11  1  0  0  0  0
 11 12  1  0  0  0  0
 11 33  1  0  0  0  0
 12 21  1  0  0  0  0
 12 13  1  0  0  0  0
 12 34  1  0  0  0  0
 13 14  1  0  0  0  0
 13 35  1  0  0  0  0
 13 36  1  0  0  0  0
 14 15  1  0  0  0  0
 14 37  1  0  0  0  0
 14 38  1  0  0  0  0
 15 16  1  0  0  0  0
 15 39  1  0  0  0  0
 15 40  1  0  0  0  0
 16 17  1  0  0  0  0
 16 21  1  0  0  0  0
 17 18  1  0  0  0  0
 17 19  2  0  0  0  0
 17 20  2  0  0  0  0
 18 41  1  0  0  0  0
 18 42  1  0  0  0  0
 18 43  1  0  0  0  0
 21 44  1  0  0  0  0
 21 45  1  0  0  0  0
 22 23  2  0  0  0  0
 22 46  1  0  0  0  0
 23 47  1  0  0  0  0
M  CHG  1  23   1
M  END
> <s_m_source_file>
AV-unprocessed.smi

> <i_m_source_file_index>
1166

> <i_lp_mmshare_version>
43012

> <i_f3d_flags>
0

> <s_epik_input>
W0NIM11OKFtDSDNdKWMxW2NIXVtjSF1jKFtjSF1uMSlbTkhdQyg9TylbTkhdW0NAQEhdMltDSDJdW0NIMl1bQ0gyXU4oW0NIMl0yKVMoPU8pKD1PKVtDSDNd

> <s_epik_cmdline>
J2VwaWtfcHl0aG9uJywgJy1waCcsICc3LjAnLCAnLXRuJywgJzgnLCAnLW1hJywgJzIwMCcsICctbWV0YWxfYmluZGluZycsICctaW1hZScsICc8aW5maWxlLm1hZT4nLCAnLW9tYWUnLCAnPG91dGZpbGUubWFlPic=

> <r_lp_tautomer_probability>
0.999994

> <r_epik_Ionization_Penalty>
0.276583

> <r_epik_Ionization_Penalty_Charging>
0.276565

> <r_epik_Ionization_Penalty_Neutral>
1.87575e-05

> <r_epik_State_Penalty>
0.268949

> <r_epik_Charging_Adjusted_Penalty>
0.545513

> <i_epik_Tot_Q>
1

> <i_epik_Tot_abs_Q>
1

> <r_epik_Metal_State_Penalty>
0.551815

> <b_epik_Metal_Only>
0

> <s_lp_Force_Field>
OPLS_2005

> <r_lp_Energy>
8.45094

> <b_lp_Chiralities_Consistent>
1

> <s_lp_Variant>
AV-unprocessed.smi:1166-2

> <Gold.Version>
5.8.1

> <Gold.Id.Protein>
6NUR|6NUR_protein|mol2

> <Gold.PLP.Fitness>
47.7770

> <Gold.PLP.PLP>
-45.5541

> <Gold.PLP.part.hbond>
-1.0000

> <Gold.PLP.part.metal>
0.0000

> <Gold.PLP.part.buried>
-5.2366

> <Gold.PLP.part.nonpolar>
-38.8935

> <Gold.PLP.part.repulsive>
0.0471

> <Gold.PLP.ligand.clash>
0.0000

> <Gold.PLP.ligand.torsion>
1.4197

> <Gold.PLP.Chemscore.Hbond>
1.0000

> <Gold.PLP.Chemscore.CHOScore>
0.0000

> <Gold.PLP.Chemscore.Metal>
0.0000

> <Gold.Chemscore.Hbonds>
donor molecule, donor type, donor heavy atom, donor atom, acceptor molecule, acceptor atom, score
      P1  H  6896  6909       L1    20  1.00

> <Gold.PLP.Chemscore.Internal.Correction>
2.0623

> <Gold.Rescore>
     Score         DG    S(hbond)    S(metal)    S(lipo)     H(rot)  DE(clash)    DE(int)     intcor
     14.13     -18.31       0.96        0.00     104.16       1.00       0.22       3.97       ----

> <Gold.Chemscore.Fitness>
14.1296

> <Gold.Chemscore.DG>
-18.3148

> <Gold.Chemscore.ZeroCoef>
-5.4800

> <Gold.Chemscore.Hbond>
0.9606

> <Gold.Chemscore.Metal>
0.0000

> <Gold.Chemscore.Lipo>
104.1590

> <Gold.Chemscore.Internal_Hbond>
0.0000

> <Gold.Chemscore.DEClash>
0.2163

> <Gold.Chemscore.DEInternal>
3.9689

> <Gold.Chemscore.Rot>
1.0000

> <Gold.Chemscore.Internal.Correction>
   9.000000E+99

> <Gold.Chemscore.Hbonds>
donor molecule, donor type, donor heavy atom, donor atom, acceptor molecule, acceptor atom, score
      P1  H  6896  6909       L1    20  0.96

> <Gold.Chemscore.Hbond.Weighted>
-3.2082

> <Gold.Chemscore.Metal.Weighted>
-0.0000

> <Gold.Chemscore.Lipo.Weighted>
-12.1866

> <Gold.Chemscore.Internal_Hbond.Weighted>
0.0000

> <Gold.Chemscore.DEClash.Weighted>
0.2163

> <Gold.Chemscore.DEInternal.Weighted>
3.9689

> <Gold.Chemscore.Rot.Weighted>
2.5600

> <Gold.Chemscore.Internal.Correction.Weighted>
   9.000000E+99

> <Gold.Protein.RotatedTorsions>
[ 6907 6896 6895 6894 ] final -169.07 input  -60.11 | X-H torsion
[ 7974 7965 7964 7962 ] final -133.98 input  175.53 | X-H torsion
[ 8008 7997 7996 7995 ] final -106.77 input   59.86 | X-H torsion
[ 10167 10162 10161 10158 ] final  -49.35 input  -65.29 | X-H torsion
[ 10718 10713 10712 10709 ] final  -28.11 input   66.30 | X-H torsion
[ 10763 10752 10751 10750 ] final  -74.13 input  -60.55 | X-H torsion
[ 11005 11000 10999 10996 ] final  -45.15 input  -57.11 | X-H torsion

> <Gold.Protein.ActiveResidues>
 VAL166  LYS551  ARG553  GLY616  TRP617  ASP618  TYR619  PRO620  LYS621  CYS622 
 ASP623  PHE694  ASN695  SER759  ASP760  ASP761  ALA762  ILE779  LEU786  VAL792 
 PHE793  MET794  SER795  GLU796  ALA797  LYS798  CYS799  TRP800  GLU811  SER814 

> <Gold.Protein.RotatedAtoms>
  151.4857  133.3536  159.2845 H   0  0  0  0  0  0  0  0  0  0  0  0  # atno 6907 bound_to 6896
  150.8868  134.8268  159.7275 H   0  0  0  0  0  0  0  0  0  0  0  0  # atno 6908 bound_to 6896
  152.4798  134.4762  159.9703 H   0  0  0  0  0  0  0  0  0  0  0  0  # atno 6909 bound_to 6896
  144.9144  140.6936  143.5005 H   0  0  0  0  0  0  0  0  0  0  0  0  # atno 7974 bound_to 7965
  154.9194  140.0408  157.1990 H   0  0  0  0  0  0  0  0  0  0  0  0  # atno 8008 bound_to 7997
  154.8268  140.2892  155.5727 H   0  0  0  0  0  0  0  0  0  0  0  0  # atno 8009 bound_to 7997
  156.2984  140.2508  156.3186 H   0  0  0  0  0  0  0  0  0  0  0  0  # atno 8010 bound_to 7997
  140.6689  143.2701  151.4202 H   0  0  0  0  0  0  0  0  0  0  0  0  # atno 10167 bound_to 10162
  156.4294  130.4442  149.7128 H   0  0  0  0  0  0  0  0  0  0  0  0  # atno 10718 bound_to 10713
  154.4689  135.5874  153.6308 H   0  0  0  0  0  0  0  0  0  0  0  0  # atno 10763 bound_to 10752
  152.9832  135.6062  154.3391 H   0  0  0  0  0  0  0  0  0  0  0  0  # atno 10764 bound_to 10752
  154.3271  135.2843  155.2469 H   0  0  0  0  0  0  0  0  0  0  0  0  # atno 10765 bound_to 10752
  141.0497  133.6748  156.2972 H   0  0  0  0  0  0  0  0  0  0  0  0  # atno 11005 bound_to 11000
  145.3400  139.1735  143.4491 LP  0  0  0  0  0  0  0  0  0  0  0  0  # atno 17320 bound_to 7965
  146.3174  140.3440  142.8650 LP  0  0  0  0  0  0  0  0  0  0  0  0  # atno 17321 bound_to 7965
  139.5949  144.1419  152.2132 LP  0  0  0  0  0  0  0  0  0  0  0  0  # atno 17342 bound_to 10162
  140.0785  144.5720  150.7139 LP  0  0  0  0  0  0  0  0  0  0  0  0  # atno 17343 bound_to 10162
  156.4037  130.7687  151.2696 LP  0  0  0  0  0  0  0  0  0  0  0  0  # atno 17370 bound_to 10713
  157.7508  131.0232  150.3825 LP  0  0  0  0  0  0  0  0  0  0  0  0  # atno 17371 bound_to 10713
  140.6080  134.5488  157.5529 LP  0  0  0  0  0  0  0  0  0  0  0  0  # atno 17394 bound_to 11000
  139.9340  134.7910  156.0853 LP  0  0  0  0  0  0  0  0  0  0  0  0  # atno 17395 bound_to 11000

$$$$
