AV-unprocessed.smi:1284|AV-procd|sdf|5366|dock2
  -GOLD-   22720 4503D 1   1.00000     0.00000
 Structure written by MMmdl.
 40 42  0  0  0  0  0  0  0  0  2 V2000
  149.3125  138.4328  158.5956 N   0  0  0  0  0  0  0  0  0  0  0  0
  150.5619  137.9614  158.6102 C   0  0  0  0  0  0  0  0  0  0  0  0
  150.8990  137.0289  159.3375 O   0  0  0  0  0  0  0  0  0  0  0  0
  151.5712  138.6395  157.6782 C   0  0  0  0  0  0  0  0  0  0  0  0
  151.7518  140.0848  158.0293 C   0  0  0  0  0  0  0  0  0  0  0  0
  151.2063  141.1404  157.3605 N   0  3  0  0  0  0  0  0  0  0  0  0
  151.5882  142.3357  157.9697 C   0  0  0  0  0  0  0  0  0  0  0  0
  151.2836  143.6558  157.6524 C   0  0  0  0  0  0  0  0  0  0  0  0
  151.8357  144.6506  158.4853 C   0  0  0  0  0  0  0  0  0  0  0  0
  152.6562  144.3166  159.5818 C   0  0  0  0  0  0  0  0  0  0  0  0
  152.9610  142.9750  159.8907 C   0  0  0  0  0  0  0  0  0  0  0  0
  152.4090  141.9955  159.0645 C   0  0  0  0  0  0  0  0  0  0  0  0
  152.4776  140.5961  159.0665 N   0  0  0  0  0  0  0  0  0  0  0  0
  153.2617  139.9054  160.1041 C   0  0  0  0  0  0  0  0  0  0  0  0
  153.8714  138.5792  159.6058 C   0  0  1  0  0  0  0  0  0  0  0  0
  155.0791  138.8756  158.9354 O   0  0  0  0  0  0  0  0  0  0  0  0
  154.0647  137.5661  160.7257 C   0  0  0  0  0  0  0  0  0  0  0  0
  153.8136  137.9182  162.0706 C   0  0  0  0  0  0  0  0  0  0  0  0
  153.9695  136.9641  163.0949 C   0  0  0  0  0  0  0  0  0  0  0  0
  154.3773  135.6534  162.7814 C   0  0  0  0  0  0  0  0  0  0  0  0
  154.6297  135.2970  161.4430 C   0  0  0  0  0  0  0  0  0  0  0  0
  154.4748  136.2508  160.4185 C   0  0  0  0  0  0  0  0  0  0  0  0
  148.6161  138.0200  159.1996 H   0  0  0  0  0  0  0  0  0  0  0  0
  149.0667  139.2023  157.9896 H   0  0  0  0  0  0  0  0  0  0  0  0
  152.5378  138.1366  157.7341 H   0  0  0  0  0  0  0  0  0  0  0  0
  151.2242  138.5477  156.6491 H   0  0  0  0  0  0  0  0  0  0  0  0
  150.6549  143.9141  156.8129 H   0  0  0  0  0  0  0  0  0  0  0  0
  151.6258  145.6901  158.2793 H   0  0  0  0  0  0  0  0  0  0  0  0
  153.0610  145.1046  160.2000 H   0  0  0  0  0  0  0  0  0  0  0  0
  153.5883  142.7350  160.7359 H   0  0  0  0  0  0  0  0  0  0  0  0
  154.0572  140.5889  160.4034 H   0  0  0  0  0  0  0  0  0  0  0  0
  152.6473  139.7559  160.9921 H   0  0  0  0  0  0  0  0  0  0  0  0
  153.2082  138.1419  158.8586 H   0  0  0  0  0  0  0  0  0  0  0  0
  155.5733  138.0757  158.8396 H   0  0  0  0  0  0  0  0  0  0  0  0
  153.4912  138.9186  162.3205 H   0  0  0  0  0  0  0  0  0  0  0  0
  153.7743  137.2375  164.1215 H   0  0  0  0  0  0  0  0  0  0  0  0
  154.4964  134.9218  163.5669 H   0  0  0  0  0  0  0  0  0  0  0  0
  154.9411  134.2914  161.2018 H   0  0  0  0  0  0  0  0  0  0  0  0
  154.6630  135.9664  159.3935 H   0  0  0  0  0  0  0  0  0  0  0  0
  150.6173  141.0471  156.5431 H   0  0  0  0  0  0  0  0  0  0  0  0
  1  2  1  0  0  0  0
  1 23  1  0  0  0  0
  1 24  1  0  0  0  0
  2  3  2  0  0  0  0
  2  4  1  0  0  0  0
  4  5  1  0  0  0  0
  4 25  1  0  0  0  0
  4 26  1  0  0  0  0
  5 13  1  0  0  0  0
  5  6  2  0  0  0  0
  6  7  1  0  0  0  0
  6 40  1  0  0  0  0
  7 12  2  0  0  0  0
  7  8  1  0  0  0  0
  8  9  2  0  0  0  0
  8 27  1  0  0  0  0
  9 10  1  0  0  0  0
  9 28  1  0  0  0  0
 10 11  2  0  0  0  0
 10 29  1  0  0  0  0
 11 12  1  0  0  0  0
 11 30  1  0  0  0  0
 12 13  1  0  0  0  0
 13 14  1  0  0  0  0
 14 15  1  0  0  0  0
 14 31  1  0  0  0  0
 14 32  1  0  0  0  0
 15 16  1  0  0  0  0
 15 17  1  0  0  0  0
 15 33  1  0  0  0  0
 16 34  1  0  0  0  0
 17 22  1  0  0  0  0
 17 18  2  0  0  0  0
 18 19  1  0  0  0  0
 18 35  1  0  0  0  0
 19 20  2  0  0  0  0
 19 36  1  0  0  0  0
 20 21  1  0  0  0  0
 20 37  1  0  0  0  0
 21 22  2  0  0  0  0
 21 38  1  0  0  0  0
 22 39  1  0  0  0  0
M  CHG  1   6   1
M  END
> <s_m_source_file>
AV-unprocessed.smi

> <i_m_source_file_index>
1284

> <i_lp_mmshare_version>
43012

> <i_f3d_flags>
0

> <s_epik_input>
W2NIXTFbY0hdW2NIXVtjSF1jKGMxMiluKGMobjIpW0NIMl1DKD1PKVtOSDJdKVtDSDJdW0NASF0oW09IXSljM1tjSF1bY0hdW2NIXVtjSF1bY0hdMw==

> <s_epik_cmdline>
J2VwaWtfcHl0aG9uJywgJy1waCcsICc3LjAnLCAnLXRuJywgJzgnLCAnLW1hJywgJzIwMCcsICctbWV0YWxfYmluZGluZycsICctaW1hZScsICc8aW5maWxlLm1hZT4nLCAnLW9tYWUnLCAnPG91dGZpbGUubWFlPic=

> <r_epik_Ionization_Penalty>
1.66646

> <r_epik_Ionization_Penalty_Charging>
1.66645

> <r_epik_Ionization_Penalty_Neutral>
1.67657e-06

> <r_epik_State_Penalty>
1.76975

> <r_epik_Charging_Adjusted_Penalty>
3.43621

> <i_epik_Tot_Q>
1

> <i_epik_Tot_abs_Q>
1

> <r_epik_Metal_State_Penalty>
1.80493

> <b_epik_Metal_Only>
0

> <s_lp_Force_Field>
OPLS_2005

> <r_lp_Energy>
14.9388

> <b_lp_Chiralities_Consistent>
1

> <s_lp_Variant>
AV-unprocessed.smi:1284-4

> <Gold.Version>
5.8.1

> <Gold.Id.Protein>
6NUR|6NUR_protein|mol2

> <Gold.PLP.Fitness>
46.1628

> <Gold.PLP.PLP>
-42.0543

> <Gold.PLP.part.hbond>
-2.0000

> <Gold.PLP.part.metal>
0.0000

> <Gold.PLP.part.buried>
-5.4951

> <Gold.PLP.part.nonpolar>
-35.1966

> <Gold.PLP.part.repulsive>
0.2625

> <Gold.PLP.ligand.clash>
0.0000

> <Gold.PLP.ligand.torsion>
0.9629

> <Gold.PLP.Chemscore.Hbond>
2.0000

> <Gold.PLP.Chemscore.CHOScore>
0.0000

> <Gold.PLP.Chemscore.Metal>
0.0000

> <Gold.Chemscore.Hbonds>
donor molecule, donor type, donor heavy atom, donor atom, acceptor molecule, acceptor atom, score
      P1  H  6896  6908       L1     3  0.96
      P1  H  7997  8010       L1    16  1.00

> <Gold.PLP.Chemscore.Internal.Correction>
0.0343

> <Gold.Rescore>
     Score         DG    S(hbond)    S(metal)    S(lipo)     H(rot)  DE(clash)    DE(int)     intcor
     17.72     -18.69       1.92        0.00     122.10       2.92       0.04       0.92       ----

> <Gold.Chemscore.Fitness>
17.7239

> <Gold.Chemscore.DG>
-18.6851

> <Gold.Chemscore.ZeroCoef>
-5.4800

> <Gold.Chemscore.Hbond>
1.9162

> <Gold.Chemscore.Metal>
0.0000

> <Gold.Chemscore.Lipo>
122.1045

> <Gold.Chemscore.Internal_Hbond>
0.0000

> <Gold.Chemscore.DEClash>
0.0404

> <Gold.Chemscore.DEInternal>
0.9208

> <Gold.Chemscore.Rot>
2.9223

> <Gold.Chemscore.Internal.Correction>
   9.000000E+99

> <Gold.Chemscore.Hbonds>
donor molecule, donor type, donor heavy atom, donor atom, acceptor molecule, acceptor atom, score
      P1  H  6896  6908       L1     3  0.89
      P1  H  7997  8010       L1    16  0.57

> <Gold.Chemscore.Hbond.Weighted>
-6.4001

> <Gold.Chemscore.Metal.Weighted>
-0.0000

> <Gold.Chemscore.Lipo.Weighted>
-14.2862

> <Gold.Chemscore.Internal_Hbond.Weighted>
0.0000

> <Gold.Chemscore.DEClash.Weighted>
0.0404

> <Gold.Chemscore.DEInternal.Weighted>
0.9208

> <Gold.Chemscore.Rot.Weighted>
7.4812

> <Gold.Chemscore.Internal.Correction.Weighted>
   9.000000E+99

> <Gold.Protein.RotatedTorsions>
[ 6907 6896 6895 6894 ] final -154.06 input  -60.11 | X-H torsion
[ 7974 7965 7964 7962 ] final -124.01 input  175.53 | X-H torsion
[ 8008 7997 7996 7995 ] final  -23.99 input   59.86 | X-H torsion
[ 10167 10162 10161 10158 ] final   95.00 input  -65.29 | X-H torsion
[ 10718 10713 10712 10709 ] final  -11.65 input   66.30 | X-H torsion
[ 10763 10752 10751 10750 ] final  150.29 input  -60.55 | X-H torsion
[ 11005 11000 10999 10996 ] final   54.82 input  -57.11 | X-H torsion

> <Gold.Protein.ActiveResidues>
 VAL166  LYS551  ARG553  GLY616  TRP617  ASP618  TYR619  PRO620  LYS621  CYS622 
 ASP623  PHE694  ASN695  SER759  ASP760  ASP761  ALA762  ILE779  LEU786  VAL792 
 PHE793  MET794  SER795  GLU796  ALA797  LYS798  CYS799  TRP800  GLU811  SER814 

> <Gold.Protein.RotatedAtoms>
  151.2518  133.4346  159.2611 H   0  0  0  0  0  0  0  0  0  0  0  0  # atno 6907 bound_to 6896
  151.0610  134.9737  159.8271 H   0  0  0  0  0  0  0  0  0  0  0  0  # atno 6908 bound_to 6896
  152.5398  134.2468  159.8936 H   0  0  0  0  0  0  0  0  0  0  0  0  # atno 6909 bound_to 6896
  145.0126  140.7919  143.4429 H   0  0  0  0  0  0  0  0  0  0  0  0  # atno 7974 bound_to 7965
  154.4554  140.1966  156.0395 H   0  0  0  0  0  0  0  0  0  0  0  0  # atno 8008 bound_to 7997
  156.0735  140.3281  155.7577 H   0  0  0  0  0  0  0  0  0  0  0  0  # atno 8009 bound_to 7997
  155.5226  140.0571  157.2895 H   0  0  0  0  0  0  0  0  0  0  0  0  # atno 8010 bound_to 7997
  139.8030  144.6806  150.9740 H   0  0  0  0  0  0  0  0  0  0  0  0  # atno 10167 bound_to 10162
  156.6559  130.4968  149.6046 H   0  0  0  0  0  0  0  0  0  0  0  0  # atno 10718 bound_to 10713
  154.0851  135.2856  155.3283 H   0  0  0  0  0  0  0  0  0  0  0  0  # atno 10763 bound_to 10752
  154.6658  135.5318  153.8078 H   0  0  0  0  0  0  0  0  0  0  0  0  # atno 10764 bound_to 10752
  153.0434  135.6545  154.1023 H   0  0  0  0  0  0  0  0  0  0  0  0  # atno 10765 bound_to 10752
  140.0656  134.5542  155.9103 H   0  0  0  0  0  0  0  0  0  0  0  0  # atno 11005 bound_to 11000
  145.2003  139.2255  143.5196 LP  0  0  0  0  0  0  0  0  0  0  0  0  # atno 17320 bound_to 7965
  146.3472  140.1819  142.8589 LP  0  0  0  0  0  0  0  0  0  0  0  0  # atno 17321 bound_to 7965
  140.7820  143.4262  151.0764 LP  0  0  0  0  0  0  0  0  0  0  0  0  # atno 17342 bound_to 10162
  139.7933  143.8187  152.3154 LP  0  0  0  0  0  0  0  0  0  0  0  0  # atno 17343 bound_to 10162
  156.2048  130.6642  151.1206 LP  0  0  0  0  0  0  0  0  0  0  0  0  # atno 17370 bound_to 10713
  157.7126  131.0726  150.6447 LP  0  0  0  0  0  0  0  0  0  0  0  0  # atno 17371 bound_to 10713
  141.1991  133.6605  156.5827 LP  0  0  0  0  0  0  0  0  0  0  0  0  # atno 17394 bound_to 11000
  140.3704  134.7610  157.4595 LP  0  0  0  0  0  0  0  0  0  0  0  0  # atno 17395 bound_to 11000

$$$$
