AV-unprocessed.smi:1550|AV-procd|sdf|6225|dock8
  -GOLD-   22720 6403D 1   1.00000     0.00000
 Structure written by MMmdl.
 43 44  0  0  0  0  0  0  0  0  1 V2000
  148.5311  138.0766  157.5091 C   0  0  0  0  0  0  0  0  0  0  0  0
  149.8665  137.8245  158.2249 C   0  0  1  0  0  0  0  0  0  0  0  0
  150.2123  139.0190  158.9206 O   0  0  0  0  0  0  0  0  0  0  0  0
  150.8395  140.0264  158.1348 C   0  0  0  0  0  0  0  0  0  0  0  0
  151.0413  141.2727  159.0062 C   0  0  2  0  0  0  0  0  0  0  0  0
  151.1635  142.5552  158.1602 C   0  0  0  0  0  0  0  0  0  0  0  0
  151.4512  143.7661  159.0554 C   0  0  0  0  0  0  0  0  0  0  0  0
  152.6711  143.4788  159.9371 C   0  0  0  0  0  0  0  0  0  0  0  0
  152.4881  142.1488  160.6848 C   0  0  0  0  0  0  0  0  0  0  0  0
  152.2438  141.0992  159.7536 O   0  0  0  0  0  0  0  0  0  0  0  0
  149.7614  136.6464  159.2071 C   0  0  0  0  0  0  0  0  0  0  0  0
  150.6116  135.7568  159.1791 O   0  0  0  0  0  0  0  0  0  0  0  0
  148.7129  136.6900  160.0528 N   0  0  0  0  0  0  0  0  0  0  0  0
  148.3208  135.7597  161.0294 C   0  0  0  0  0  0  0  0  0  0  0  0
  148.6270  134.4363  161.0046 C   0  0  0  0  0  0  0  0  0  0  0  0
  148.1793  133.5213  162.0409 C   0  0  0  0  0  0  0  0  0  0  0  0
  148.5985  132.0594  162.0456 C   0  0  0  0  0  0  0  0  0  0  0  0
  149.3853  131.7772  161.0061 F   0  0  0  0  0  0  0  0  0  0  0  0
  149.2716  131.7857  163.1623 F   0  0  0  0  0  0  0  0  0  0  0  0
  147.5348  131.2575  161.9955 F   0  0  0  0  0  0  0  0  0  0  0  0
  147.4475  134.0545  163.0369 C   0  0  0  0  0  0  0  0  0  0  0  0
  147.1073  135.4090  163.0567 N   0  0  0  0  0  0  0  0  0  0  0  0
  147.4906  136.3024  162.1174 C   0  0  0  0  0  0  0  0  0  0  0  0
  147.1472  137.4809  162.2046 O   0  0  0  0  0  0  0  0  0  0  0  0
  146.5392  135.7284  163.8282 H   0  0  0  0  0  0  0  0  0  0  0  0
  148.1970  137.1897  156.9696 H   0  0  0  0  0  0  0  0  0  0  0  0
  148.6288  138.8852  156.7843 H   0  0  0  0  0  0  0  0  0  0  0  0
  147.7453  138.3590  158.2110 H   0  0  0  0  0  0  0  0  0  0  0  0
  150.6252  137.6133  157.4686 H   0  0  0  0  0  0  0  0  0  0  0  0
  151.7960  139.6938  157.7295 H   0  0  0  0  0  0  0  0  0  0  0  0
  150.1924  140.2672  157.2900 H   0  0  0  0  0  0  0  0  0  0  0  0
  150.1941  141.3692  159.6879 H   0  0  0  0  0  0  0  0  0  0  0  0
  151.9673  142.4408  157.4315 H   0  0  0  0  0  0  0  0  0  0  0  0
  150.2477  142.7233  157.5923 H   0  0  0  0  0  0  0  0  0  0  0  0
  151.6195  144.6572  158.4503 H   0  0  0  0  0  0  0  0  0  0  0  0
  150.5842  143.9726  159.6842 H   0  0  0  0  0  0  0  0  0  0  0  0
  153.5673  143.4270  159.3176 H   0  0  0  0  0  0  0  0  0  0  0  0
  152.8255  144.2929  160.6457 H   0  0  0  0  0  0  0  0  0  0  0  0
  153.3873  141.9127  161.2540 H   0  0  0  0  0  0  0  0  0  0  0  0
  151.6667  142.2133  161.4000 H   0  0  0  0  0  0  0  0  0  0  0  0
  148.1423  137.5223  160.0125 H   0  0  0  0  0  0  0  0  0  0  0  0
  149.1989  134.0147  160.1939 H   0  0  0  0  0  0  0  0  0  0  0  0
  147.0755  133.4975  163.8843 H   0  0  0  0  0  0  0  0  0  0  0  0
  1  2  1  0  0  0  0
  1 26  1  0  0  0  0
  1 27  1  0  0  0  0
  1 28  1  0  0  0  0
  2  3  1  0  0  0  0
  2 11  1  0  0  0  0
  2 29  1  0  0  0  0
  3  4  1  0  0  0  0
  4  5  1  0  0  0  0
  4 30  1  0  0  0  0
  4 31  1  0  0  0  0
  5 10  1  0  0  0  0
  5  6  1  0  0  0  0
  5 32  1  0  0  0  0
  6  7  1  0  0  0  0
  6 33  1  0  0  0  0
  6 34  1  0  0  0  0
  7  8  1  0  0  0  0
  7 35  1  0  0  0  0
  7 36  1  0  0  0  0
  8  9  1  0  0  0  0
  8 37  1  0  0  0  0
  8 38  1  0  0  0  0
  9 10  1  0  0  0  0
  9 39  1  0  0  0  0
  9 40  1  0  0  0  0
 11 12  2  0  0  0  0
 11 13  1  0  0  0  0
 13 14  1  0  0  0  0
 13 41  1  0  0  0  0
 14 23  1  0  0  0  0
 14 15  2  0  0  0  0
 15 16  1  0  0  0  0
 15 42  1  0  0  0  0
 16 17  1  0  0  0  0
 16 21  2  0  0  0  0
 17 18  1  0  0  0  0
 17 19  1  0  0  0  0
 17 20  1  0  0  0  0
 21 22  1  0  0  0  0
 21 43  1  0  0  0  0
 22 25  1  0  0  0  0
 22 23  1  0  0  0  0
 23 24  2  0  0  0  0
M  END
> <s_m_source_file>
AV-unprocessed.smi

> <i_m_source_file_index>
1550

> <i_lp_mmshare_version>
43012

> <i_f3d_flags>
0

> <s_epik_input>
TzFbQ0gyXVtDSDJdW0NIMl1bQ0gyXVtDQEhdMVtDSDJdT1tDQEBIXShbQ0gzXSlDKD1PKVtOSF1jMltjSF1jKEMoRikoRilGKVtjSF1bbkhdYzI9Tw==

> <s_epik_cmdline>
J2VwaWtfcHl0aG9uJywgJy1waCcsICc3LjAnLCAnLXRuJywgJzgnLCAnLW1hJywgJzIwMCcsICctbWV0YWxfYmluZGluZycsICctaW1hZScsICc8aW5maWxlLm1hZT4nLCAnLW9tYWUnLCAnPG91dGZpbGUubWFlPic=

> <r_lp_tautomer_probability>
0.999

> <r_epik_Ionization_Penalty>
0.00891333

> <r_epik_Ionization_Penalty_Charging>
0.00891323

> <r_epik_Ionization_Penalty_Neutral>
1.00146e-07

> <r_epik_State_Penalty>
0.00674197

> <r_epik_Charging_Adjusted_Penalty>
0.0156552

> <i_epik_Tot_Q>
0

> <i_epik_Tot_abs_Q>
0

> <r_epik_Metal_State_Penalty>
0.321024

> <b_epik_Metal_Only>
0

> <s_lp_Force_Field>
OPLS_2005

> <r_lp_Energy>
24.7831

> <b_lp_Chiralities_Consistent>
1

> <s_lp_Variant>
AV-unprocessed.smi:1550-2

> <Gold.Version>
5.8.1

> <Gold.Id.Protein>
6NUR|6NUR_protein|mol2

> <Gold.PLP.Fitness>
48.5626

> <Gold.PLP.PLP>
-43.1817

> <Gold.PLP.part.hbond>
-3.0000

> <Gold.PLP.part.metal>
0.0000

> <Gold.PLP.part.buried>
-5.9076

> <Gold.PLP.part.nonpolar>
-34.6028

> <Gold.PLP.part.repulsive>
0.3401

> <Gold.PLP.ligand.clash>
0.0000

> <Gold.PLP.ligand.torsion>
0.8285

> <Gold.PLP.Chemscore.Hbond>
2.3120

> <Gold.PLP.Chemscore.CHOScore>
0.0000

> <Gold.PLP.Chemscore.Metal>
0.0000

> <Gold.Chemscore.Hbonds>
donor molecule, donor type, donor heavy atom, donor atom, acceptor molecule, acceptor atom, score
      P1  H  6896  6909       L1    12  0.03
      P1  H  6931  6943       L1    24  0.52
      P1  H  6934  6947       L1    24  0.62

> <Gold.PLP.Chemscore.Internal.Correction>
0.1020

> <Gold.Rescore>
     Score         DG    S(hbond)    S(metal)    S(lipo)     H(rot)  DE(clash)    DE(int)     intcor
     16.84     -17.96       2.39        0.00      79.14       1.86       0.22       0.90       ----

> <Gold.Chemscore.Fitness>
16.8376

> <Gold.Chemscore.DG>
-17.9578

> <Gold.Chemscore.ZeroCoef>
-5.4800

> <Gold.Chemscore.Hbond>
2.3871

> <Gold.Chemscore.Metal>
0.0000

> <Gold.Chemscore.Lipo>
79.1373

> <Gold.Chemscore.Internal_Hbond>
0.0000

> <Gold.Chemscore.DEClash>
0.2213

> <Gold.Chemscore.DEInternal>
0.8989

> <Gold.Chemscore.Rot>
1.8571

> <Gold.Chemscore.Internal.Correction>
   9.000000E+99

> <Gold.Chemscore.Hbonds>
donor molecule, donor type, donor heavy atom, donor atom, acceptor molecule, acceptor atom, score
      P1  H  6896  6909       L1    12  0.07
      P1  H  6931  6943       L1    24  0.07
      P1  H  6934  6947       L1    24  0.60

> <Gold.Chemscore.Hbond.Weighted>
-7.9728

> <Gold.Chemscore.Metal.Weighted>
-0.0000

> <Gold.Chemscore.Lipo.Weighted>
-9.2591

> <Gold.Chemscore.Internal_Hbond.Weighted>
0.0000

> <Gold.Chemscore.DEClash.Weighted>
0.2213

> <Gold.Chemscore.DEInternal.Weighted>
0.8989

> <Gold.Chemscore.Rot.Weighted>
4.7541

> <Gold.Chemscore.Internal.Correction.Weighted>
   9.000000E+99

> <Gold.Protein.RotatedTorsions>
[ 6907 6896 6895 6894 ] final   55.38 input  -60.11 | X-H torsion
[ 7974 7965 7964 7962 ] final -120.83 input  175.53 | X-H torsion
[ 8008 7997 7996 7995 ] final  135.47 input   59.86 | X-H torsion
[ 10167 10162 10161 10158 ] final   25.55 input  -65.29 | X-H torsion
[ 10718 10713 10712 10709 ] final  -52.35 input   66.30 | X-H torsion
[ 10763 10752 10751 10750 ] final  162.58 input  -60.55 | X-H torsion
[ 11005 11000 10999 10996 ] final   18.79 input  -57.11 | X-H torsion

> <Gold.Protein.ActiveResidues>
 VAL166  LYS551  ARG553  GLY616  TRP617  ASP618  TYR619  PRO620  LYS621  CYS622 
 ASP623  PHE694  ASN695  SER759  ASP760  ASP761  ALA762  ILE779  LEU786  VAL792 
 PHE793  MET794  SER795  GLU796  ALA797  LYS798  CYS799  TRP800  GLU811  SER814 

> <Gold.Protein.RotatedAtoms>
  152.3533  134.6975  160.0229 H   0  0  0  0  0  0  0  0  0  0  0  0  # atno 6907 bound_to 6896
  151.7322  133.3313  159.3351 H   0  0  0  0  0  0  0  0  0  0  0  0  # atno 6908 bound_to 6896
  150.7554  134.6287  159.6219 H   0  0  0  0  0  0  0  0  0  0  0  0  # atno 6909 bound_to 6896
  145.0470  140.8189  143.4232 H   0  0  0  0  0  0  0  0  0  0  0  0  # atno 7974 bound_to 7965
  156.3003  140.2470  156.3586 H   0  0  0  0  0  0  0  0  0  0  0  0  # atno 8008 bound_to 7997
  154.8898  140.0409  157.1851 H   0  0  0  0  0  0  0  0  0  0  0  0  # atno 8009 bound_to 7997
  154.8609  140.2920  155.5544 H   0  0  0  0  0  0  0  0  0  0  0  0  # atno 8010 bound_to 7997
  140.5097  144.0181  150.6367 H   0  0  0  0  0  0  0  0  0  0  0  0  # atno 10167 bound_to 10162
  156.1629  130.4149  149.9765 H   0  0  0  0  0  0  0  0  0  0  0  0  # atno 10718 bound_to 10713
  154.2805  135.2763  155.2699 H   0  0  0  0  0  0  0  0  0  0  0  0  # atno 10763 bound_to 10752
  154.5222  135.5753  153.6693 H   0  0  0  0  0  0  0  0  0  0  0  0  # atno 10764 bound_to 10752
  152.9930  135.6207  154.2964 H   0  0  0  0  0  0  0  0  0  0  0  0  # atno 10765 bound_to 10752
  140.4209  134.1520  155.7673 H   0  0  0  0  0  0  0  0  0  0  0  0  # atno 11005 bound_to 11000
  145.1575  139.2478  143.5409 LP  0  0  0  0  0  0  0  0  0  0  0  0  # atno 17320 bound_to 7965
  146.3515  140.1293  142.8597 LP  0  0  0  0  0  0  0  0  0  0  0  0  # atno 17321 bound_to 7965
  140.3500  143.2969  152.0497 LP  0  0  0  0  0  0  0  0  0  0  0  0  # atno 17342 bound_to 10162
  139.4893  144.6381  151.6934 LP  0  0  0  0  0  0  0  0  0  0  0  0  # atno 17343 bound_to 10162
  156.7588  130.9143  151.3640 LP  0  0  0  0  0  0  0  0  0  0  0  0  # atno 17370 bound_to 10713
  157.6746  130.9082  150.0120 LP  0  0  0  0  0  0  0  0  0  0  0  0  # atno 17371 bound_to 10713
  141.1784  133.8465  157.1342 LP  0  0  0  0  0  0  0  0  0  0  0  0  # atno 17394 bound_to 11000
  140.0201  134.9950  157.0574 LP  0  0  0  0  0  0  0  0  0  0  0  0  # atno 17395 bound_to 11000

$$$$
