AV-unprocessed.smi:3332|AV-procd|sdf|12829|dock10
  -GOLD-   2272019213D 1   1.00000     0.00000
 Structure written by MMmdl.
 41 42  0  0  0  0  0  0  0  0  1 V2000
  150.4387  133.0936  155.5245 C   0  0  0  0  0  0  0  0  0  0  0  0
  149.6946  134.2148  154.7911 C   0  0  0  0  0  0  0  0  0  0  0  0
  149.8448  135.5398  155.4789 C   0  0  0  0  0  0  0  0  0  0  0  0
  150.3866  136.6199  154.7753 N   0  0  0  0  0  0  0  0  0  0  0  0
  150.4599  137.7300  155.5120 C   0  0  0  0  0  0  0  0  0  0  0  0
  150.9677  139.0329  154.9930 C   0  0  0  0  0  0  0  0  0  0  0  0
  152.1973  139.5316  155.7680 C   0  0  0  0  0  0  0  0  0  0  0  0
  151.8122  140.2736  156.9625 N   0  0  0  0  0  0  0  0  0  0  0  0
  152.4720  140.2471  158.1306 C   0  0  0  0  0  0  0  0  0  0  0  0
  153.4917  139.5825  158.3149 O   0  0  0  0  0  0  0  0  0  0  0  0
  151.8963  141.1077  159.2611 C   0  0  0  0  0  0  0  0  0  0  0  0
  152.7280  142.3735  159.5647 C   0  0  2  0  0  0  0  0  0  0  0  0
  152.4040  143.0060  160.8968 C   0  0  0  0  0  0  0  0  0  0  0  0
  152.1018  144.2981  160.7928 C   0  0  0  0  0  0  0  0  0  0  0  0
  152.1613  144.7910  159.3740 C   0  0  0  0  0  0  0  0  0  0  0  0
  152.4821  143.5222  158.5527 C   0  0  0  0  0  0  0  0  0  0  0  0
  149.8272  137.5231  157.1387 S   0  0  0  0  0  0  0  0  0  0  0  0
  149.4849  135.8525  156.7692 C   0  0  0  0  0  0  0  0  0  0  0  0
  148.8710  134.9546  157.7915 C   0  0  0  0  0  0  0  0  0  0  0  0
  150.3171  132.1422  155.0063 H   0  0  0  0  0  0  0  0  0  0  0  0
  150.0628  132.9700  156.5406 H   0  0  0  0  0  0  0  0  0  0  0  0
  151.5063  133.3064  155.5854 H   0  0  0  0  0  0  0  0  0  0  0  0
  150.0590  134.2763  153.7653 H   0  0  0  0  0  0  0  0  0  0  0  0
  148.6388  133.9525  154.7139 H   0  0  0  0  0  0  0  0  0  0  0  0
  151.2088  138.9098  153.9365 H   0  0  0  0  0  0  0  0  0  0  0  0
  150.1648  139.7693  155.0463 H   0  0  0  0  0  0  0  0  0  0  0  0
  152.8099  138.6844  156.0779 H   0  0  0  0  0  0  0  0  0  0  0  0
  152.8270  140.1519  155.1275 H   0  0  0  0  0  0  0  0  0  0  0  0
  150.9843  140.8481  156.8968 H   0  0  0  0  0  0  0  0  0  0  0  0
  150.8829  141.3957  158.9788 H   0  0  0  0  0  0  0  0  0  0  0  0
  151.8029  140.5052  160.1662 H   0  0  0  0  0  0  0  0  0  0  0  0
  153.7903  142.1243  159.5712 H   0  0  0  0  0  0  0  0  0  0  0  0
  152.4366  142.4517  161.8233 H   0  0  0  0  0  0  0  0  0  0  0  0
  151.8504  144.9474  161.6183 H   0  0  0  0  0  0  0  0  0  0  0  0
  151.2091  145.2340  159.0807 H   0  0  0  0  0  0  0  0  0  0  0  0
  152.9429  145.5447  159.2752 H   0  0  0  0  0  0  0  0  0  0  0  0
  153.3519  143.6761  157.9130 H   0  0  0  0  0  0  0  0  0  0  0  0
  151.6432  143.2905  157.8953 H   0  0  0  0  0  0  0  0  0  0  0  0
  147.9908  134.4538  157.3881 H   0  0  0  0  0  0  0  0  0  0  0  0
  148.5621  135.5136  158.6751 H   0  0  0  0  0  0  0  0  0  0  0  0
  149.5801  134.1899  158.1080 H   0  0  0  0  0  0  0  0  0  0  0  0
  1  2  1  0  0  0  0
  1 20  1  0  0  0  0
  1 21  1  0  0  0  0
  1 22  1  0  0  0  0
  2  3  1  0  0  0  0
  2 23  1  0  0  0  0
  2 24  1  0  0  0  0
  3 18  2  0  0  0  0
  3  4  1  0  0  0  0
  4  5  2  0  0  0  0
  5  6  1  0  0  0  0
  5 17  1  0  0  0  0
  6  7  1  0  0  0  0
  6 25  1  0  0  0  0
  6 26  1  0  0  0  0
  7  8  1  0  0  0  0
  7 27  1  0  0  0  0
  7 28  1  0  0  0  0
  8  9  1  0  0  0  0
  8 29  1  0  0  0  0
  9 10  2  0  0  0  0
  9 11  1  0  0  0  0
 11 12  1  0  0  0  0
 11 30  1  0  0  0  0
 11 31  1  0  0  0  0
 12 16  1  0  0  0  0
 12 13  1  0  0  0  0
 12 32  1  0  0  0  0
 13 14  2  0  0  0  0
 13 33  1  0  0  0  0
 14 15  1  0  0  0  0
 14 34  1  0  0  0  0
 15 16  1  0  0  0  0
 15 35  1  0  0  0  0
 15 36  1  0  0  0  0
 16 37  1  0  0  0  0
 16 38  1  0  0  0  0
 17 18  1  0  0  0  0
 18 19  1  0  0  0  0
 19 39  1  0  0  0  0
 19 40  1  0  0  0  0
 19 41  1  0  0  0  0
M  END
> <s_m_source_file>
AV-unprocessed.smi

> <i_m_source_file_index>
3332

> <i_lp_mmshare_version>
43012

> <i_f3d_flags>
0

> <s_epik_input>
W0NIM11bQ0gyXWMxbmMoc2MxW0NIM10pW0NIMl1bQ0gyXVtOSF1DKD1PKVtDSDJdW0NAQEhdMltDSF09W0NIXVtDSDJdW0NIMl0y

> <s_epik_cmdline>
J2VwaWtfcHl0aG9uJywgJy1waCcsICc3LjAnLCAnLXRuJywgJzgnLCAnLW1hJywgJzIwMCcsICctbWV0YWxfYmluZGluZycsICctaW1hZScsICc8aW5maWxlLm1hZT4nLCAnLW9tYWUnLCAnPG91dGZpbGUubWFlPic=

> <r_epik_Ionization_Penalty>
0.00221844

> <r_epik_Ionization_Penalty_Charging>
0

> <r_epik_Ionization_Penalty_Neutral>
0.00221844

> <r_epik_State_Penalty>
0.00152607

> <r_epik_Charging_Adjusted_Penalty>
0.00152607

> <i_epik_Tot_Q>
0

> <i_epik_Tot_abs_Q>
0

> <r_epik_Metal_State_Penalty>
-0

> <b_epik_Metal_Only>
0

> <s_lp_Force_Field>
OPLS_2005

> <r_lp_Energy>
6.78745

> <b_lp_Chiralities_Consistent>
1

> <s_lp_Variant>
AV-unprocessed.smi:3332-1

> <Gold.Version>
5.8.1

> <Gold.Id.Protein>
6NUR|6NUR_protein|mol2

> <Gold.PLP.Fitness>
40.9782

> <Gold.PLP.PLP>
-39.1460

> <Gold.PLP.part.hbond>
-1.0000

> <Gold.PLP.part.metal>
0.0000

> <Gold.PLP.part.buried>
-4.8495

> <Gold.PLP.part.nonpolar>
-33.3690

> <Gold.PLP.part.repulsive>
0.3017

> <Gold.PLP.ligand.clash>
0.0000

> <Gold.PLP.ligand.torsion>
0.6105

> <Gold.PLP.Chemscore.Hbond>
1.0000

> <Gold.PLP.Chemscore.CHOScore>
0.0000

> <Gold.PLP.Chemscore.Metal>
0.0000

> <Gold.Chemscore.Hbonds>
donor molecule, donor type, donor heavy atom, donor atom, acceptor molecule, acceptor atom, score
      P1  H  7997  8009       L1    10  1.00

> <Gold.PLP.Chemscore.Internal.Correction>
0.0532

> <Gold.Rescore>
     Score         DG    S(hbond)    S(metal)    S(lipo)     H(rot)  DE(clash)    DE(int)     intcor
     17.02     -17.71       0.97        0.00     109.82       1.51       0.05       0.65       ----

> <Gold.Chemscore.Fitness>
17.0169

> <Gold.Chemscore.DG>
-17.7137

> <Gold.Chemscore.ZeroCoef>
-5.4800

> <Gold.Chemscore.Hbond>
0.9734

> <Gold.Chemscore.Metal>
0.0000

> <Gold.Chemscore.Lipo>
109.8204

> <Gold.Chemscore.Internal_Hbond>
0.0000

> <Gold.Chemscore.DEClash>
0.0504

> <Gold.Chemscore.DEInternal>
0.6464

> <Gold.Chemscore.Rot>
1.5103

> <Gold.Chemscore.Internal.Correction>
   9.000000E+99

> <Gold.Chemscore.Hbonds>
donor molecule, donor type, donor heavy atom, donor atom, acceptor molecule, acceptor atom, score
      P1  H  7997  8009       L1    10  0.55

> <Gold.Chemscore.Hbond.Weighted>
-3.2511

> <Gold.Chemscore.Metal.Weighted>
-0.0000

> <Gold.Chemscore.Lipo.Weighted>
-12.8490

> <Gold.Chemscore.Internal_Hbond.Weighted>
0.0000

> <Gold.Chemscore.DEClash.Weighted>
0.0504

> <Gold.Chemscore.DEInternal.Weighted>
0.6464

> <Gold.Chemscore.Rot.Weighted>
3.8664

> <Gold.Chemscore.Internal.Correction.Weighted>
   9.000000E+99

> <Gold.Protein.RotatedTorsions>
[ 6907 6896 6895 6894 ] final  171.52 input  -60.11 | X-H torsion
[ 7974 7965 7964 7962 ] final  175.36 input  175.53 | X-H torsion
[ 8008 7997 7996 7995 ] final  155.34 input   59.86 | X-H torsion
[ 10167 10162 10161 10158 ] final   69.63 input  -65.29 | X-H torsion
[ 10718 10713 10712 10709 ] final   50.68 input   66.30 | X-H torsion
[ 10763 10752 10751 10750 ] final  -87.46 input  -60.55 | X-H torsion
[ 11005 11000 10999 10996 ] final  139.66 input  -57.11 | X-H torsion

> <Gold.Protein.ActiveResidues>
 VAL166  LYS551  ARG553  GLY616  TRP617  ASP618  TYR619  PRO620  LYS621  CYS622 
 ASP623  PHE694  ASN695  SER759  ASP760  ASP761  ALA762  ILE779  LEU786  VAL792 
 PHE793  MET794  SER795  GLU796  ALA797  LYS798  CYS799  TRP800  GLU811  SER814 

> <Gold.Protein.RotatedAtoms>
  151.7989  133.3367  159.3520 H   0  0  0  0  0  0  0  0  0  0  0  0  # atno 6907 bound_to 6896
  150.7365  134.5772  159.5929 H   0  0  0  0  0  0  0  0  0  0  0  0  # atno 6908 bound_to 6896
  152.3157  134.7444  160.0377 H   0  0  0  0  0  0  0  0  0  0  0  0  # atno 6909 bound_to 6896
  144.7203  139.9935  143.6440 H   0  0  0  0  0  0  0  0  0  0  0  0  # atno 7974 bound_to 7965
  156.2483  140.1942  156.6787 H   0  0  0  0  0  0  0  0  0  0  0  0  # atno 8008 bound_to 7997
  154.6338  140.0592  156.9790 H   0  0  0  0  0  0  0  0  0  0  0  0  # atno 8009 bound_to 7997
  155.1668  140.3265  155.4403 H   0  0  0  0  0  0  0  0  0  0  0  0  # atno 8010 bound_to 7997
  140.0657  144.5195  150.7262 H   0  0  0  0  0  0  0  0  0  0  0  0  # atno 10167 bound_to 10162
  157.4908  130.8374  149.8200 H   0  0  0  0  0  0  0  0  0  0  0  0  # atno 10718 bound_to 10713
  154.6339  135.5412  153.7711 H   0  0  0  0  0  0  0  0  0  0  0  0  # atno 10763 bound_to 10752
  153.0298  135.6442  154.1260 H   0  0  0  0  0  0  0  0  0  0  0  0  # atno 10764 bound_to 10752
  154.1189  135.2921  155.3193 H   0  0  0  0  0  0  0  0  0  0  0  0  # atno 10765 bound_to 10752
  140.0271  134.9369  157.0589 H   0  0  0  0  0  0  0  0  0  0  0  0  # atno 11005 bound_to 11000
  146.0392  139.3406  143.0707 LP  0  0  0  0  0  0  0  0  0  0  0  0  # atno 17320 bound_to 7965
  145.8356  140.9608  143.0826 LP  0  0  0  0  0  0  0  0  0  0  0  0  # atno 17321 bound_to 7965
  140.7150  143.2537  151.4462 LP  0  0  0  0  0  0  0  0  0  0  0  0  # atno 17342 bound_to 10162
  139.5866  144.1590  152.2037 LP  0  0  0  0  0  0  0  0  0  0  0  0  # atno 17343 bound_to 10162
  156.0172  130.3809  150.2073 LP  0  0  0  0  0  0  0  0  0  0  0  0  # atno 17370 bound_to 10713
  157.0262  130.9994  151.3325 LP  0  0  0  0  0  0  0  0  0  0  0  0  # atno 17371 bound_to 10713
  140.4288  134.1802  155.7167 LP  0  0  0  0  0  0  0  0  0  0  0  0  # atno 17394 bound_to 11000
  141.1809  133.8416  157.1261 LP  0  0  0  0  0  0  0  0  0  0  0  0  # atno 17395 bound_to 11000

$$$$
