AV-unprocessed.smi:2310|AV-procd|sdf|9257|dock6
  -GOLD-   2272012483D 1   1.00000     0.00000
 Structure written by MMmdl.
 46 47  0  0  0  0  0  0  0  0  2 V2000
  149.2312  132.6651  154.2635 C   0  0  0  0  0  0  0  0  0  0  0  0
  149.4726  134.1714  154.0871 C   0  0  0  0  0  0  0  0  0  0  0  0
  149.8480  134.9006  155.3931 C   0  0  2  0  0  0  0  0  0  0  0  0
  148.7828  134.7170  156.4902 C   0  0  0  0  0  0  0  0  0  0  0  0
  149.1351  133.6968  157.4903 C   0  0  0  0  0  0  0  0  0  0  0  0
  149.4122  132.8946  158.2764 N   0  0  0  0  0  0  0  0  0  0  0  0
  150.0575  136.3235  155.1326 N   0  0  0  0  0  0  0  0  0  0  0  0
  150.1889  137.2694  156.0734 C   0  0  0  0  0  0  0  0  0  0  0  0
  150.1181  137.0402  157.2805 O   0  0  0  0  0  0  0  0  0  0  0  0
  150.3870  138.4801  155.5237 N   0  0  0  0  0  0  0  0  0  0  0  0
  150.5623  139.7321  156.1781 C   0  0  0  0  0  0  0  0  0  0  0  0
  151.3212  139.8738  157.3679 C   0  0  0  0  0  0  0  0  0  0  0  0
  151.4729  141.1450  157.9560 C   0  0  0  0  0  0  0  0  0  0  0  0
  150.8746  142.2683  157.3431 C   0  0  0  0  0  0  0  0  0  0  0  0
  150.9671  143.5746  157.8437 N   0  0  0  0  0  0  0  0  0  0  0  0
  150.2734  143.7946  159.1018 C   0  0  0  0  0  0  0  0  0  0  0  0
  150.8398  145.1025  159.6619 C   0  0  0  0  0  0  0  0  0  0  0  0
  152.1849  145.2881  158.9495 C   0  0  0  0  0  0  0  0  0  0  0  0
  152.3218  144.0615  158.0445 C   0  0  0  0  0  0  0  0  0  0  0  0
  150.1721  142.0960  156.2033 N   0  3  0  0  0  0  0  0  0  0  0  0
  149.9971  140.8985  155.6009 C   0  0  0  0  0  0  0  0  0  0  0  0
  149.1784  140.9047  154.3203 C   0  0  0  0  0  0  0  0  0  0  0  0
  148.9217  132.2118  153.3216 H   0  0  0  0  0  0  0  0  0  0  0  0
  148.4459  132.4760  154.9959 H   0  0  0  0  0  0  0  0  0  0  0  0
  150.1315  132.1476  154.5953 H   0  0  0  0  0  0  0  0  0  0  0  0
  150.2536  134.3268  153.3417 H   0  0  0  0  0  0  0  0  0  0  0  0
  148.5674  134.6144  153.6712 H   0  0  0  0  0  0  0  0  0  0  0  0
  150.7856  134.4730  155.7538 H   0  0  0  0  0  0  0  0  0  0  0  0
  148.6191  135.6510  157.0283 H   0  0  0  0  0  0  0  0  0  0  0  0
  147.8275  134.4305  156.0495 H   0  0  0  0  0  0  0  0  0  0  0  0
  150.1238  136.6010  154.1641 H   0  0  0  0  0  0  0  0  0  0  0  0
  150.3336  138.5225  154.5165 H   0  0  0  0  0  0  0  0  0  0  0  0
  151.8057  139.0314  157.8366 H   0  0  0  0  0  0  0  0  0  0  0  0
  152.0477  141.2494  158.8646 H   0  0  0  0  0  0  0  0  0  0  0  0
  149.1956  143.8579  158.9493 H   0  0  0  0  0  0  0  0  0  0  0  0
  150.4675  142.9749  159.7949 H   0  0  0  0  0  0  0  0  0  0  0  0
  150.1770  145.9365  159.4272 H   0  0  0  0  0  0  0  0  0  0  0  0
  150.9475  145.0595  160.7461 H   0  0  0  0  0  0  0  0  0  0  0  0
  152.1640  146.1995  158.3509 H   0  0  0  0  0  0  0  0  0  0  0  0
  153.0186  145.3689  159.6476 H   0  0  0  0  0  0  0  0  0  0  0  0
  152.9356  143.3038  158.5329 H   0  0  0  0  0  0  0  0  0  0  0  0
  152.7930  144.3150  157.0946 H   0  0  0  0  0  0  0  0  0  0  0  0
  149.0621  139.9150  153.8802 H   0  0  0  0  0  0  0  0  0  0  0  0
  149.6539  141.5447  153.5767 H   0  0  0  0  0  0  0  0  0  0  0  0
  148.1810  141.2987  154.5174 H   0  0  0  0  0  0  0  0  0  0  0  0
  149.7496  142.9180  155.7710 H   0  0  0  0  0  0  0  0  0  0  0  0
  1  2  1  0  0  0  0
  1 23  1  0  0  0  0
  1 24  1  0  0  0  0
  1 25  1  0  0  0  0
  2  3  1  0  0  0  0
  2 26  1  0  0  0  0
  2 27  1  0  0  0  0
  3  4  1  0  0  0  0
  3  7  1  0  0  0  0
  3 28  1  0  0  0  0
  4  5  1  0  0  0  0
  4 29  1  0  0  0  0
  4 30  1  0  0  0  0
  5  6  3  0  0  0  0
  7  8  1  0  0  0  0
  7 31  1  0  0  0  0
  8  9  2  0  0  0  0
  8 10  1  0  0  0  0
 10 11  1  0  0  0  0
 10 32  1  0  0  0  0
 11 21  1  0  0  0  0
 11 12  2  0  0  0  0
 12 13  1  0  0  0  0
 12 33  1  0  0  0  0
 13 14  2  0  0  0  0
 13 34  1  0  0  0  0
 14 15  1  0  0  0  0
 14 20  1  0  0  0  0
 15 19  1  0  0  0  0
 15 16  1  0  0  0  0
 16 17  1  0  0  0  0
 16 35  1  0  0  0  0
 16 36  1  0  0  0  0
 17 18  1  0  0  0  0
 17 37  1  0  0  0  0
 17 38  1  0  0  0  0
 18 19  1  0  0  0  0
 18 39  1  0  0  0  0
 18 40  1  0  0  0  0
 19 41  1  0  0  0  0
 19 42  1  0  0  0  0
 20 21  2  0  0  0  0
 20 46  1  0  0  0  0
 21 22  1  0  0  0  0
 22 43  1  0  0  0  0
 22 44  1  0  0  0  0
 22 45  1  0  0  0  0
M  CHG  1  20   1
M  END
> <s_m_source_file>
AV-unprocessed.smi

> <i_m_source_file_index>
2310

> <i_lp_mmshare_version>
43012

> <i_f3d_flags>
0

> <s_epik_input>
TiNDW0NIMl1bQ0BASF0oW0NIMl1bQ0gzXSlbTkhdQyg9TylbTkhdYzFbY0hdW2NIXWMobmMxW0NIM10pTjJbQ0gyXVtDSDJdW0NIMl1bQ0gyXTI=

> <s_epik_cmdline>
J2VwaWtfcHl0aG9uJywgJy1waCcsICc3LjAnLCAnLXRuJywgJzgnLCAnLW1hJywgJzIwMCcsICctbWV0YWxfYmluZGluZycsICctaW1hZScsICc8aW5maWxlLm1hZT4nLCAnLW9tYWUnLCAnPG91dGZpbGUubWFlPic=

> <r_lp_tautomer_probability>
0.999994

> <r_epik_Ionization_Penalty>
0.577302

> <r_epik_Ionization_Penalty_Charging>
0.577278

> <r_epik_Ionization_Penalty_Neutral>
2.39253e-05

> <r_epik_State_Penalty>
0.589738

> <r_epik_Charging_Adjusted_Penalty>
1.16702

> <i_epik_Tot_Q>
1

> <i_epik_Tot_abs_Q>
1

> <r_epik_Metal_State_Penalty>
0.784556

> <b_epik_Metal_Only>
0

> <s_lp_Force_Field>
OPLS_2005

> <r_lp_Energy>
39.7138

> <b_lp_Chiralities_Consistent>
1

> <s_lp_Variant>
AV-unprocessed.smi:2310-3

> <Gold.Version>
5.8.1

> <Gold.Id.Protein>
6NUR|6NUR_protein|mol2

> <Gold.PLP.Fitness>
43.8985

> <Gold.PLP.PLP>
-37.5432

> <Gold.PLP.part.hbond>
-2.0000

> <Gold.PLP.part.metal>
0.0000

> <Gold.PLP.part.buried>
-4.9350

> <Gold.PLP.part.nonpolar>
-31.4121

> <Gold.PLP.part.repulsive>
0.3365

> <Gold.PLP.ligand.clash>
0.0000

> <Gold.PLP.ligand.torsion>
1.1076

> <Gold.PLP.Chemscore.Hbond>
2.8480

> <Gold.PLP.Chemscore.CHOScore>
0.0000

> <Gold.PLP.Chemscore.Metal>
0.0000

> <Gold.Chemscore.Hbonds>
donor molecule, donor type, donor heavy atom, donor atom, acceptor molecule, acceptor atom, score
      L1  H    20    46       P1  8028  2.00
      P1  H  6896  6907       L1     6  0.77

> <Gold.PLP.Chemscore.Internal.Correction>
0.0264

> <Gold.Rescore>
     Score         DG    S(hbond)    S(metal)    S(lipo)     H(rot)  DE(clash)    DE(int)     intcor
     16.19     -21.05       2.62        0.00      94.91       1.68       1.57       3.29       ----

> <Gold.Chemscore.Fitness>
16.1914

> <Gold.Chemscore.DG>
-21.0459

> <Gold.Chemscore.ZeroCoef>
-5.4800

> <Gold.Chemscore.Hbond>
2.6245

> <Gold.Chemscore.Metal>
0.0000

> <Gold.Chemscore.Lipo>
94.9112

> <Gold.Chemscore.Internal_Hbond>
0.0000

> <Gold.Chemscore.DEClash>
1.5694

> <Gold.Chemscore.DEInternal>
3.2852

> <Gold.Chemscore.Rot>
1.6815

> <Gold.Chemscore.Internal.Correction>
   9.000000E+99

> <Gold.Chemscore.Hbonds>
donor molecule, donor type, donor heavy atom, donor atom, acceptor molecule, acceptor atom, score
      L1  H    20    46       P1  8028  0.95
      P1  H  6896  6907       L1     6  0.51

> <Gold.Chemscore.Hbond.Weighted>
-8.7658

> <Gold.Chemscore.Metal.Weighted>
-0.0000

> <Gold.Chemscore.Lipo.Weighted>
-11.1046

> <Gold.Chemscore.Internal_Hbond.Weighted>
0.0000

> <Gold.Chemscore.DEClash.Weighted>
1.5694

> <Gold.Chemscore.DEInternal.Weighted>
3.2852

> <Gold.Chemscore.Rot.Weighted>
4.3045

> <Gold.Chemscore.Internal.Correction.Weighted>
   9.000000E+99

> <Gold.Protein.RotatedTorsions>
[ 6907 6896 6895 6894 ] final -150.89 input  -60.11 | X-H torsion
[ 7974 7965 7964 7962 ] final  177.98 input  175.53 | X-H torsion
[ 8008 7997 7996 7995 ] final   64.62 input   59.86 | X-H torsion
[ 10167 10162 10161 10158 ] final  -46.97 input  -65.29 | X-H torsion
[ 10718 10713 10712 10709 ] final  161.40 input   66.30 | X-H torsion
[ 10763 10752 10751 10750 ] final  131.44 input  -60.55 | X-H torsion
[ 11005 11000 10999 10996 ] final  -53.32 input  -57.11 | X-H torsion

> <Gold.Protein.ActiveResidues>
 VAL166  LYS551  ARG553  GLY616  TRP617  ASP618  TYR619  PRO620  LYS621  CYS622 
 ASP623  PHE694  ASN695  SER759  ASP760  ASP761  ALA762  ILE779  LEU786  VAL792 
 PHE793  MET794  SER795  GLU796  ALA797  LYS798  CYS799  TRP800  GLU811  SER814 

> <Gold.Protein.RotatedAtoms>
  151.2051  133.4588  159.2596 H   0  0  0  0  0  0  0  0  0  0  0  0  # atno 6907 bound_to 6896
  151.1031  134.9984  159.8468 H   0  0  0  0  0  0  0  0  0  0  0  0  # atno 6908 bound_to 6896
  152.5445  134.1976  159.8752 H   0  0  0  0  0  0  0  0  0  0  0  0  # atno 6909 bound_to 6896
  144.7162  140.0328  143.6438 H   0  0  0  0  0  0  0  0  0  0  0  0  # atno 7974 bound_to 7965
  155.6489  140.3497  155.4741 H   0  0  0  0  0  0  0  0  0  0  0  0  # atno 8008 bound_to 7997
  155.9864  140.1185  157.0702 H   0  0  0  0  0  0  0  0  0  0  0  0  # atno 8009 bound_to 7997
  154.4206  140.1128  156.5492 H   0  0  0  0  0  0  0  0  0  0  0  0  # atno 8010 bound_to 7997
  140.6795  143.2806  151.3859 H   0  0  0  0  0  0  0  0  0  0  0  0  # atno 10167 bound_to 10162
  157.1370  131.0531  151.2344 H   0  0  0  0  0  0  0  0  0  0  0  0  # atno 10718 bound_to 10713
  153.7744  135.3177  155.3357 H   0  0  0  0  0  0  0  0  0  0  0  0  # atno 10763 bound_to 10752
  154.8184  135.4620  154.0712 H   0  0  0  0  0  0  0  0  0  0  0  0  # atno 10764 bound_to 10752
  153.1982  135.6918  153.8350 H   0  0  0  0  0  0  0  0  0  0  0  0  # atno 10765 bound_to 10752
  141.0970  133.6623  156.4154 H   0  0  0  0  0  0  0  0  0  0  0  0  # atno 11005 bound_to 11000
  146.0088  139.3152  143.0883 LP  0  0  0  0  0  0  0  0  0  0  0  0  # atno 17320 bound_to 7965
  145.8706  140.9422  143.0652 LP  0  0  0  0  0  0  0  0  0  0  0  0  # atno 17321 bound_to 7965
  139.6108  144.1102  152.2296 LP  0  0  0  0  0  0  0  0  0  0  0  0  # atno 17342 bound_to 10162
  140.0516  144.5928  150.7332 LP  0  0  0  0  0  0  0  0  0  0  0  0  # atno 17343 bound_to 10162
  157.4341  130.7507  149.7014 LP  0  0  0  0  0  0  0  0  0  0  0  0  # atno 17370 bound_to 10713
  155.9796  130.4038  150.3577 LP  0  0  0  0  0  0  0  0  0  0  0  0  # atno 17371 bound_to 10713
  140.5116  134.6389  157.5286 LP  0  0  0  0  0  0  0  0  0  0  0  0  # atno 17394 bound_to 11000
  139.9809  134.7138  155.9861 LP  0  0  0  0  0  0  0  0  0  0  0  0  # atno 17395 bound_to 11000

$$$$
