AV-unprocessed.smi:301|AV-procd|sdf|2271|dock4
  -GOLD-   2262022163D 1   1.00000     0.00000
 Structure written by MMmdl.
 32 33  0  0  0  0  0  0  0  0  1 V2000
  153.2075  143.2077  163.1300 C   0  0  0  0  0  0  0  0  0  0  0  0
  153.1620  142.7383  161.7163 C   0  0  0  0  0  0  0  0  0  0  0  0
  152.3685  143.2748  160.7860 N   0  0  0  0  0  0  0  0  0  0  0  0
  152.5009  142.6537  159.5394 C   0  0  0  0  0  0  0  0  0  0  0  0
  151.6790  143.1278  158.3742 C   0  0  0  0  0  0  0  0  0  0  0  0
  150.8812  141.9777  157.7481 C   0  0  0  0  0  0  0  0  0  0  0  0
  150.9797  140.8307  158.1866 O   0  0  0  0  0  0  0  0  0  0  0  0
  150.0840  142.3021  156.7185 N   0  0  0  0  0  0  0  0  0  0  0  0
  149.2539  141.3624  155.9736 C   0  0  0  0  0  0  0  0  0  0  0  0
  150.0899  140.5325  154.9856 C   0  0  1  0  0  0  0  0  0  0  0  0
  151.3409  139.9146  155.6082 C   0  0  0  0  0  0  0  0  0  0  0  0
  151.5752  138.7261  154.7048 C   0  0  0  0  0  0  0  0  0  0  0  0
  150.1486  138.2560  154.4390 C   0  0  0  0  0  0  0  0  0  0  0  0
  149.3349  139.4249  154.4965 O   0  0  0  0  0  0  0  0  0  0  0  0
  153.4239  141.6365  159.5392 C   0  0  0  0  0  0  0  0  0  0  0  0
  154.1476  141.4140  161.1083 S   0  0  0  0  0  0  0  0  0  0  0  0
  152.7910  144.2121  163.2135 H   0  0  0  0  0  0  0  0  0  0  0  0
  154.2380  143.2277  163.4852 H   0  0  0  0  0  0  0  0  0  0  0  0
  152.6300  142.5347  163.7637 H   0  0  0  0  0  0  0  0  0  0  0  0
  150.9783  143.9042  158.6838 H   0  0  0  0  0  0  0  0  0  0  0  0
  152.3259  143.5798  157.6207 H   0  0  0  0  0  0  0  0  0  0  0  0
  150.0608  143.2662  156.4192 H   0  0  0  0  0  0  0  0  0  0  0  0
  148.7239  140.7056  156.6654 H   0  0  0  0  0  0  0  0  0  0  0  0
  148.4905  141.9267  155.4374 H   0  0  0  0  0  0  0  0  0  0  0  0
  150.3879  141.1403  154.1295 H   0  0  0  0  0  0  0  0  0  0  0  0
  152.1857  140.6033  155.6382 H   0  0  0  0  0  0  0  0  0  0  0  0
  151.1398  139.5750  156.6253 H   0  0  0  0  0  0  0  0  0  0  0  0
  152.0451  139.0495  153.7749 H   0  0  0  0  0  0  0  0  0  0  0  0
  152.2017  137.9572  155.1574 H   0  0  0  0  0  0  0  0  0  0  0  0
  150.0500  137.7471  153.4799 H   0  0  0  0  0  0  0  0  0  0  0  0
  149.8220  137.5699  155.2214 H   0  0  0  0  0  0  0  0  0  0  0  0
  153.7156  141.0027  158.7148 H   0  0  0  0  0  0  0  0  0  0  0  0
  1  2  1  0  0  0  0
  1 17  1  0  0  0  0
  1 18  1  0  0  0  0
  1 19  1  0  0  0  0
  2 16  1  0  0  0  0
  2  3  2  0  0  0  0
  3  4  1  0  0  0  0
  4  5  1  0  0  0  0
  4 15  2  0  0  0  0
  5  6  1  0  0  0  0
  5 20  1  0  0  0  0
  5 21  1  0  0  0  0
  6  7  2  0  0  0  0
  6  8  1  0  0  0  0
  8  9  1  0  0  0  0
  8 22  1  0  0  0  0
  9 10  1  0  0  0  0
  9 23  1  0  0  0  0
  9 24  1  0  0  0  0
 10 14  1  0  0  0  0
 10 11  1  0  0  0  0
 10 25  1  0  0  0  0
 11 12  1  0  0  0  0
 11 26  1  0  0  0  0
 11 27  1  0  0  0  0
 12 13  1  0  0  0  0
 12 28  1  0  0  0  0
 12 29  1  0  0  0  0
 13 14  1  0  0  0  0
 13 30  1  0  0  0  0
 13 31  1  0  0  0  0
 15 16  1  0  0  0  0
 15 32  1  0  0  0  0
M  END
> <s_m_source_file>
AV-unprocessed.smi

> <i_m_source_file_index>
301

> <i_lp_mmshare_version>
43012

> <i_f3d_flags>
0

> <s_epik_input>
W0NIM11jMW5jKFtjSF1zMSlbQ0gyXUMoPU8pW05IXVtDSDJdW0NAQEhdMltDSDJdW0NIMl1bQ0gyXU8y

> <s_epik_cmdline>
J2VwaWtfcHl0aG9uJywgJy1waCcsICc3LjAnLCAnLXRuJywgJzgnLCAnLW1hJywgJzIwMCcsICctbWV0YWxfYmluZGluZycsICctaW1hZScsICc8aW5maWxlLm1hZT4nLCAnLW9tYWUnLCAnPG91dGZpbGUubWFlPic=

> <r_lp_tautomer_probability>
1

> <r_epik_Ionization_Penalty>
6.06873e-05

> <r_epik_Ionization_Penalty_Charging>
0

> <r_epik_Ionization_Penalty_Neutral>
6.06873e-05

> <r_epik_State_Penalty>
-0

> <r_epik_Charging_Adjusted_Penalty>
0

> <i_epik_Tot_Q>
0

> <i_epik_Tot_abs_Q>
0

> <r_epik_Metal_State_Penalty>
-0

> <b_epik_Metal_Only>
0

> <s_lp_Force_Field>
OPLS_2005

> <r_lp_Energy>
16.0562

> <b_lp_Chiralities_Consistent>
1

> <s_lp_Variant>
AV-unprocessed.smi:301-2

> <Gold.Version>
5.8.1

> <Gold.Id.Protein>
6NUR|6NUR_protein|mol2

> <Gold.PLP.Fitness>
40.3672

> <Gold.PLP.PLP>
-38.0051

> <Gold.PLP.part.hbond>
-1.0000

> <Gold.PLP.part.metal>
0.0000

> <Gold.PLP.part.buried>
-3.3885

> <Gold.PLP.part.nonpolar>
-33.5159

> <Gold.PLP.part.repulsive>
0.2458

> <Gold.PLP.ligand.clash>
0.0000

> <Gold.PLP.ligand.torsion>
0.2166

> <Gold.PLP.Chemscore.Hbond>
0.9280

> <Gold.PLP.Chemscore.CHOScore>
0.0000

> <Gold.PLP.Chemscore.Metal>
0.0000

> <Gold.Chemscore.Hbonds>
donor molecule, donor type, donor heavy atom, donor atom, acceptor molecule, acceptor atom, score
      L1  H     8    22       P1  8028  0.90

> <Gold.PLP.Chemscore.Internal.Correction>
0.0113

> <Gold.Rescore>
     Score         DG    S(hbond)    S(metal)    S(lipo)     H(rot)  DE(clash)    DE(int)     intcor
     13.94     -16.83       0.98        0.00     102.06       1.51       0.10       2.80       ----

> <Gold.Chemscore.Fitness>
13.9364

> <Gold.Chemscore.DG>
-16.8341

> <Gold.Chemscore.ZeroCoef>
-5.4800

> <Gold.Chemscore.Hbond>
0.9819

> <Gold.Chemscore.Metal>
0.0000

> <Gold.Chemscore.Lipo>
102.0647

> <Gold.Chemscore.Internal_Hbond>
0.0000

> <Gold.Chemscore.DEClash>
0.1017

> <Gold.Chemscore.DEInternal>
2.7959

> <Gold.Chemscore.Rot>
1.5106

> <Gold.Chemscore.Internal.Correction>
   9.000000E+99

> <Gold.Chemscore.Hbonds>
donor molecule, donor type, donor heavy atom, donor atom, acceptor molecule, acceptor atom, score
      L1  H     8    22       P1  8028  0.84

> <Gold.Chemscore.Hbond.Weighted>
-3.2795

> <Gold.Chemscore.Metal.Weighted>
-0.0000

> <Gold.Chemscore.Lipo.Weighted>
-11.9416

> <Gold.Chemscore.Internal_Hbond.Weighted>
0.0000

> <Gold.Chemscore.DEClash.Weighted>
0.1017

> <Gold.Chemscore.DEInternal.Weighted>
2.7959

> <Gold.Chemscore.Rot.Weighted>
3.8670

> <Gold.Chemscore.Internal.Correction.Weighted>
   9.000000E+99

> <Gold.Protein.RotatedTorsions>
[ 6907 6896 6895 6894 ] final    7.57 input  -60.11 | X-H torsion
[ 7974 7965 7964 7962 ] final -152.31 input  175.53 | X-H torsion
[ 8008 7997 7996 7995 ] final    6.42 input   59.86 | X-H torsion
[ 10167 10162 10161 10158 ] final -153.60 input  -65.29 | X-H torsion
[ 10718 10713 10712 10709 ] final   65.39 input   66.30 | X-H torsion
[ 10763 10752 10751 10750 ] final  138.48 input  -60.55 | X-H torsion
[ 11005 11000 10999 10996 ] final  -17.13 input  -57.11 | X-H torsion

> <Gold.Protein.ActiveResidues>
 VAL166  LYS551  ARG553  GLY616  TRP617  ASP618  TYR619  PRO620  LYS621  CYS622 
 ASP623  PHE694  ASN695  SER759  ASP760  ASP761  ALA762  ILE779  LEU786  VAL792 
 PHE793  MET794  SER795  GLU796  ALA797  LYS798  CYS799  TRP800  GLU811  SER814 

> <Gold.Protein.RotatedAtoms>
  151.6920  135.0945  160.0235 H   0  0  0  0  0  0  0  0  0  0  0  0  # atno 6907 bound_to 6896
  152.3773  133.6494  159.6142 H   0  0  0  0  0  0  0  0  0  0  0  0  # atno 6908 bound_to 6896
  150.7719  133.9089  159.3405 H   0  0  0  0  0  0  0  0  0  0  0  0  # atno 6909 bound_to 6896
  144.7801  140.4679  143.5845 H   0  0  0  0  0  0  0  0  0  0  0  0  # atno 7974 bound_to 7965
  154.7408  140.2748  155.6375 H   0  0  0  0  0  0  0  0  0  0  0  0  # atno 8008 bound_to 7997
  156.2873  140.2697  156.2060 H   0  0  0  0  0  0  0  0  0  0  0  0  # atno 8009 bound_to 7997
  155.0261  140.0371  157.2446 H   0  0  0  0  0  0  0  0  0  0  0  0  # atno 8010 bound_to 7997
  139.7083  143.9150  152.2458 H   0  0  0  0  0  0  0  0  0  0  0  0  # atno 10167 bound_to 10162
  157.6102  130.9211  149.9970 H   0  0  0  0  0  0  0  0  0  0  0  0  # atno 10718 bound_to 10713
  153.8903  135.3034  155.3447 H   0  0  0  0  0  0  0  0  0  0  0  0  # atno 10763 bound_to 10752
  154.7719  135.4881  153.9669 H   0  0  0  0  0  0  0  0  0  0  0  0  # atno 10764 bound_to 10752
  153.1301  135.6802  153.9290 H   0  0  0  0  0  0  0  0  0  0  0  0  # atno 10765 bound_to 10752
  140.8138  133.8120  155.9590 H   0  0  0  0  0  0  0  0  0  0  0  0  # atno 11005 bound_to 11000
  145.6075  139.1510  143.3095 LP  0  0  0  0  0  0  0  0  0  0  0  0  # atno 17320 bound_to 7965
  146.2004  140.6192  142.9105 LP  0  0  0  0  0  0  0  0  0  0  0  0  # atno 17321 bound_to 7965
  139.9012  144.6910  150.8663 LP  0  0  0  0  0  0  0  0  0  0  0  0  # atno 17342 bound_to 10162
  140.7727  143.3512  151.2010 LP  0  0  0  0  0  0  0  0  0  0  0  0  # atno 17343 bound_to 10162
  156.1202  130.3646  149.9900 LP  0  0  0  0  0  0  0  0  0  0  0  0  # atno 17370 bound_to 10713
  156.7981  130.9281  151.3646 LP  0  0  0  0  0  0  0  0  0  0  0  0  # atno 17371 bound_to 10713
  140.9170  134.2189  157.4950 LP  0  0  0  0  0  0  0  0  0  0  0  0  # atno 17394 bound_to 11000
  139.8712  134.9775  156.4964 LP  0  0  0  0  0  0  0  0  0  0  0  0  # atno 17395 bound_to 11000

$$$$
