AV-unprocessed.smi:1593|AV-procd|sdf|6412|dock7
  -GOLD-   22720 7 43D 1   1.00000     0.00000
 Structure written by MMmdl.
 36 37  0  0  0  0  0  0  0  0  3 V2000
  146.6436  135.8677  162.8242 C   0  0  0  0  0  0  0  0  0  0  0  0
  147.4235  135.7196  161.5631 C   0  0  0  0  0  0  0  0  0  0  0  0
  147.5350  134.7088  160.6510 C   0  0  0  0  0  0  0  0  0  0  0  0
  148.4394  135.2372  159.6898 C   0  0  0  0  0  0  0  0  0  0  0  0
  148.8786  134.6058  158.5900 N   0  5  0  0  0  0  0  0  0  0  0  0
  148.9316  135.2576  157.4065 C   0  0  0  0  0  0  0  0  0  0  0  0
  148.8381  136.4755  157.2356 O   0  0  0  0  0  0  0  0  0  0  0  0
  149.0989  134.4470  156.3518 N   0  0  0  0  0  0  0  0  0  0  0  0
  149.1839  134.8709  154.9594 C   0  0  0  0  0  0  0  0  0  0  0  0
  148.6618  133.7780  154.0078 C   0  0  0  0  0  0  0  0  0  0  0  0
  147.6685  134.3015  153.0382 N   0  3  0  0  0  0  0  0  0  0  0  0
  147.1276  133.2403  152.1555 C   0  0  0  0  0  0  0  0  0  0  0  0
  146.1431  133.8374  151.1357 C   0  0  0  0  0  0  0  0  0  0  0  0
  145.0988  134.5168  151.8212 O   0  0  0  0  0  0  0  0  0  0  0  0
  145.5927  135.5945  152.6070 C   0  0  0  0  0  0  0  0  0  0  0  0
  146.5611  135.0577  153.6747 C   0  0  0  0  0  0  0  0  0  0  0  0
  148.8537  136.4540  160.0006 N   0  0  0  0  0  0  0  0  0  0  0  0
  148.2007  136.7737  161.1969 O   0  0  0  0  0  0  0  0  0  0  0  0
  146.2520  134.9057  163.1549 H   0  0  0  0  0  0  0  0  0  0  0  0
  145.8016  136.5446  162.6789 H   0  0  0  0  0  0  0  0  0  0  0  0
  147.2688  136.2696  163.6216 H   0  0  0  0  0  0  0  0  0  0  0  0
  147.0453  133.7468  160.6655 H   0  0  0  0  0  0  0  0  0  0  0  0
  149.1756  133.4573  156.5366 H   0  0  0  0  0  0  0  0  0  0  0  0
  148.6375  135.8065  154.8372 H   0  0  0  0  0  0  0  0  0  0  0  0
  150.2285  135.0899  154.7367 H   0  0  0  0  0  0  0  0  0  0  0  0
  149.5141  133.3705  153.4616 H   0  0  0  0  0  0  0  0  0  0  0  0
  148.2261  132.9456  154.5627 H   0  0  0  0  0  0  0  0  0  0  0  0
  147.9433  132.7443  151.6278 H   0  0  0  0  0  0  0  0  0  0  0  0
  146.6273  132.4813  152.7592 H   0  0  0  0  0  0  0  0  0  0  0  0
  146.6534  134.5214  150.4554 H   0  0  0  0  0  0  0  0  0  0  0  0
  145.7086  133.0461  150.5247 H   0  0  0  0  0  0  0  0  0  0  0  0
  146.0848  136.3307  151.9691 H   0  0  0  0  0  0  0  0  0  0  0  0
  144.7513  136.0983  153.0833 H   0  0  0  0  0  0  0  0  0  0  0  0
  146.0251  134.4088  154.3692 H   0  0  0  0  0  0  0  0  0  0  0  0
  146.9510  135.8925  154.2559 H   0  0  0  0  0  0  0  0  0  0  0  0
  148.1636  134.9455  152.4380 H   0  0  0  0  0  0  0  0  0  0  0  0
  1  2  1  0  0  0  0
  1 19  1  0  0  0  0
  1 20  1  0  0  0  0
  1 21  1  0  0  0  0
  2 18  1  0  0  0  0
  2  3  2  0  0  0  0
  3  4  1  0  0  0  0
  3 22  1  0  0  0  0
  4  5  1  0  0  0  0
  4 17  2  0  0  0  0
  5  6  1  0  0  0  0
  6  7  2  0  0  0  0
  6  8  1  0  0  0  0
  8  9  1  0  0  0  0
  8 23  1  0  0  0  0
  9 10  1  0  0  0  0
  9 24  1  0  0  0  0
  9 25  1  0  0  0  0
 10 11  1  0  0  0  0
 10 26  1  0  0  0  0
 10 27  1  0  0  0  0
 11 16  1  0  0  0  0
 11 12  1  0  0  0  0
 11 36  1  0  0  0  0
 12 13  1  0  0  0  0
 12 28  1  0  0  0  0
 12 29  1  0  0  0  0
 13 14  1  0  0  0  0
 13 30  1  0  0  0  0
 13 31  1  0  0  0  0
 14 15  1  0  0  0  0
 15 16  1  0  0  0  0
 15 32  1  0  0  0  0
 15 33  1  0  0  0  0
 16 34  1  0  0  0  0
 16 35  1  0  0  0  0
 17 18  1  0  0  0  0
M  CHG  1   5  -1
M  CHG  1  11   1
M  END
> <s_m_source_file>
AV-unprocessed.smi

> <i_m_source_file_index>
1593

> <i_lp_mmshare_version>
43012

> <i_f3d_flags>
0

> <s_epik_input>
W0NIM11jMVtjSF1jKG5vMSlbTkhdQyg9TylbTkhdW0NIMl1bQ0gyXU4yW0NIMl1bQ0gyXU9bQ0gyXVtDSDJdMg==

> <s_epik_cmdline>
J2VwaWtfcHl0aG9uJywgJy1waCcsICc3LjAnLCAnLXRuJywgJzgnLCAnLW1hJywgJzIwMCcsICctbWV0YWxfYmluZGluZycsICctaW1hZScsICc8aW5maWxlLm1hZT4nLCAnLW9tYWUnLCAnPG91dGZpbGUubWFlPic=

> <r_epik_Ionization_Penalty>
6.73013

> <r_epik_Ionization_Penalty_Charging>
6.73004

> <r_epik_Ionization_Penalty_Neutral>
9.27027e-05

> <r_epik_State_Penalty>
6.93052

> <r_epik_Charging_Adjusted_Penalty>
13.6606

> <i_epik_Tot_Q>
0

> <i_epik_Tot_abs_Q>
2

> <r_epik_Metal_State_Penalty>
2.86736

> <b_epik_Metal_Only>
1

> <s_lp_Force_Field>
OPLS_2005

> <r_lp_Energy>
3.0075

> <b_lp_Chiralities_Consistent>
1

> <s_lp_Variant>
AV-unprocessed.smi:1593-4

> <Gold.Version>
5.8.1

> <Gold.Id.Protein>
6NUR|6NUR_protein|mol2

> <Gold.PLP.Fitness>
40.6389

> <Gold.PLP.PLP>
-25.4502

> <Gold.PLP.part.hbond>
-4.8967

> <Gold.PLP.part.metal>
0.0000

> <Gold.PLP.part.buried>
-0.7805

> <Gold.PLP.part.nonpolar>
-18.8963

> <Gold.PLP.part.repulsive>
0.1397

> <Gold.PLP.ligand.clash>
0.0000

> <Gold.PLP.ligand.torsion>
0.9763

> <Gold.PLP.Chemscore.Hbond>
5.6880

> <Gold.PLP.Chemscore.CHOScore>
0.0000

> <Gold.PLP.Chemscore.Metal>
0.0000

> <Gold.Chemscore.Hbonds>
donor molecule, donor type, donor heavy atom, donor atom, acceptor molecule, acceptor atom, score
      L1  H    11    36       P1  7948  2.00
      P1  H  6896  6909       L1     5  1.30
      P1  H  6931  6943       L1    18  1.00

> <Gold.PLP.Chemscore.Internal.Correction>
0.0773

> <Gold.Rescore>
     Score         DG    S(hbond)    S(metal)    S(lipo)     H(rot)  DE(clash)    DE(int)     intcor
     12.06     -14.62       2.27        0.00      48.71       1.62       0.16       2.40       ----

> <Gold.Chemscore.Fitness>
12.0565

> <Gold.Chemscore.DG>
-14.6218

> <Gold.Chemscore.ZeroCoef>
-5.4800

> <Gold.Chemscore.Hbond>
2.2746

> <Gold.Chemscore.Metal>
0.0000

> <Gold.Chemscore.Lipo>
48.7072

> <Gold.Chemscore.Internal_Hbond>
0.0000

> <Gold.Chemscore.DEClash>
0.1644

> <Gold.Chemscore.DEInternal>
2.4009

> <Gold.Chemscore.Rot>
1.6228

> <Gold.Chemscore.Internal.Correction>
   9.000000E+99

> <Gold.Chemscore.Hbonds>
donor molecule, donor type, donor heavy atom, donor atom, acceptor molecule, acceptor atom, score
      L1  H    11    36       P1  7948  0.64
      P1  H  6896  6909       L1     5  0.05
      P1  H  6931  6943       L1    18  0.60
      P1  H  6934  6947       L1    18  0.01

> <Gold.Chemscore.Hbond.Weighted>
-7.5973

> <Gold.Chemscore.Metal.Weighted>
-0.0000

> <Gold.Chemscore.Lipo.Weighted>
-5.6987

> <Gold.Chemscore.Internal_Hbond.Weighted>
0.0000

> <Gold.Chemscore.DEClash.Weighted>
0.1644

> <Gold.Chemscore.DEInternal.Weighted>
2.4009

> <Gold.Chemscore.Rot.Weighted>
4.1542

> <Gold.Chemscore.Internal.Correction.Weighted>
   9.000000E+99

> <Gold.Protein.RotatedTorsions>
[ 6907 6896 6895 6894 ] final   26.02 input  -60.11 | X-H torsion
[ 7974 7965 7964 7962 ] final -140.75 input  175.53 | X-H torsion
[ 8008 7997 7996 7995 ] final  173.02 input   59.86 | X-H torsion
[ 10167 10162 10161 10158 ] final  -64.12 input  -65.29 | X-H torsion
[ 10718 10713 10712 10709 ] final -164.95 input   66.30 | X-H torsion
[ 10763 10752 10751 10750 ] final -109.11 input  -60.55 | X-H torsion
[ 11005 11000 10999 10996 ] final  152.73 input  -57.11 | X-H torsion

> <Gold.Protein.ActiveResidues>
 VAL166  LYS551  ARG553  GLY616  TRP617  ASP618  TYR619  PRO620  LYS621  CYS622 
 ASP623  PHE694  ASN695  SER759  ASP760  ASP761  ALA762  ILE779  LEU786  VAL792 
 PHE793  MET794  SER795  GLU796  ALA797  LYS798  CYS799  TRP800  GLU811  SER814 

> <Gold.Protein.RotatedAtoms>
  151.9813  135.0027  160.0557 H   0  0  0  0  0  0  0  0  0  0  0  0  # atno 6907 bound_to 6896
  152.1694  133.4629  159.4909 H   0  0  0  0  0  0  0  0  0  0  0  0  # atno 6908 bound_to 6896
  150.6899  134.1890  159.4320 H   0  0  0  0  0  0  0  0  0  0  0  0  # atno 6909 bound_to 6896
  144.8573  140.6162  143.5351 H   0  0  0  0  0  0  0  0  0  0  0  0  # atno 7974 bound_to 7965
  156.1117  140.1471  156.9330 H   0  0  0  0  0  0  0  0  0  0  0  0  # atno 8008 bound_to 7997
  154.4771  140.0891  156.7332 H   0  0  0  0  0  0  0  0  0  0  0  0  # atno 8009 bound_to 7997
  155.4585  140.3437  155.4312 H   0  0  0  0  0  0  0  0  0  0  0  0  # atno 8010 bound_to 7997
  140.5823  143.2329  151.6316 H   0  0  0  0  0  0  0  0  0  0  0  0  # atno 10167 bound_to 10162
  156.6464  130.8989  151.3005 H   0  0  0  0  0  0  0  0  0  0  0  0  # atno 10718 bound_to 10713
  154.8174  135.4613  154.0683 H   0  0  0  0  0  0  0  0  0  0  0  0  # atno 10763 bound_to 10752
  153.2064  135.6876  153.8174 H   0  0  0  0  0  0  0  0  0  0  0  0  # atno 10764 bound_to 10752
  153.7640  135.3280  155.3318 H   0  0  0  0  0  0  0  0  0  0  0  0  # atno 10765 bound_to 10752
  140.1334  134.8787  157.2234 H   0  0  0  0  0  0  0  0  0  0  0  0  # atno 11005 bound_to 11000
  145.4382  139.1539  143.3985 LP  0  0  0  0  0  0  0  0  0  0  0  0  # atno 17320 bound_to 7965
  146.2833  140.4502  142.8768 LP  0  0  0  0  0  0  0  0  0  0  0  0  # atno 17321 bound_to 7965
  139.5177  144.3308  152.0828 LP  0  0  0  0  0  0  0  0  0  0  0  0  # atno 17342 bound_to 10162
  140.2459  144.4220  150.6241 LP  0  0  0  0  0  0  0  0  0  0  0  0  # atno 17343 bound_to 10162
  157.7155  130.9492  150.1239 LP  0  0  0  0  0  0  0  0  0  0  0  0  # atno 17370 bound_to 10713
  156.2119  130.3667  149.8660 LP  0  0  0  0  0  0  0  0  0  0  0  0  # atno 17371 bound_to 10713
  140.2813  134.3346  155.7342 LP  0  0  0  0  0  0  0  0  0  0  0  0  # atno 17394 bound_to 11000
  141.2174  133.7480  156.9368 LP  0  0  0  0  0  0  0  0  0  0  0  0  # atno 17395 bound_to 11000

$$$$
