AV-unprocessed.smi:101|AV-procd|sdf|940|dock2
  -GOLD-   2262017463D 1   1.00000     0.00000
 Structure written by MMmdl.
 43 45  0  0  0  0  0  0  0  0  2 V2000
  148.8663  133.5515  154.4093 C   0  0  0  0  0  0  0  0  0  0  0  0
  148.7998  134.5769  155.5277 C   0  0  0  0  0  0  0  0  0  0  0  0
  148.6142  135.8940  155.2885 C   0  0  0  0  0  0  0  0  0  0  0  0
  148.5525  136.8271  156.3107 N   0  0  0  0  0  0  0  0  0  0  0  0
  148.3444  138.3058  156.0367 C   0  0  1  0  0  0  0  0  0  0  0  0
  149.3798  139.0563  156.5969 O   0  0  0  0  0  0  0  0  0  0  0  0
  150.3570  139.3973  155.6174 C   0  0  2  0  0  0  0  0  0  0  0  0
  150.7483  140.8716  155.7925 C   0  0  0  0  0  0  0  0  0  0  0  0
  150.9474  141.1866  157.1630 O   0  0  0  0  0  0  0  0  0  0  0  0
  152.0415  140.7258  157.8026 C   0  0  0  0  0  0  0  0  0  0  0  0
  152.6887  139.7468  157.4249 O   0  0  0  0  0  0  0  0  0  0  0  0
  152.3909  141.5202  159.0159 C   0  0  0  0  0  0  0  0  0  0  0  0
  153.1808  140.9274  160.0287 C   0  0  0  0  0  0  0  0  0  0  0  0
  153.5268  141.6522  161.1860 C   0  0  0  0  0  0  0  0  0  0  0  0
  153.0867  142.9790  161.3450 C   0  0  0  0  0  0  0  0  0  0  0  0
  152.2991  143.5796  160.3456 C   0  0  0  0  0  0  0  0  0  0  0  0
  151.9521  142.8555  159.1884 C   0  0  0  0  0  0  0  0  0  0  0  0
  149.7693  139.0482  154.2401 C   0  0  1  0  0  0  0  0  0  0  0  0
  150.5090  137.9813  153.6770 O   0  0  0  0  0  0  0  0  0  0  0  0
  148.3444  138.5855  154.5245 C   0  0  2  0  0  0  0  0  0  0  0  0
  147.4019  139.5834  154.1953 O   0  0  0  0  0  0  0  0  0  0  0  0
  148.7166  136.3991  157.6552 C   0  0  0  0  0  0  0  0  0  0  0  0
  148.6809  137.2531  158.5416 O   0  0  0  0  0  0  0  0  0  0  0  0
  148.9011  135.0722  157.9063 N   0  5  0  0  0  0  0  0  0  0  0  0
  148.9452  134.1330  156.9188 C   0  0  0  0  0  0  0  0  0  0  0  0
  149.1035  132.9368  157.1602 O   0  0  0  0  0  0  0  0  0  0  0  0
  148.7613  134.0223  153.4316 H   0  0  0  0  0  0  0  0  0  0  0  0
  148.0680  132.8169  154.5186 H   0  0  0  0  0  0  0  0  0  0  0  0
  149.8221  133.0273  154.4304 H   0  0  0  0  0  0  0  0  0  0  0  0
  148.5183  136.2110  154.2628 H   0  0  0  0  0  0  0  0  0  0  0  0
  147.4065  138.5502  156.5390 H   0  0  0  0  0  0  0  0  0  0  0  0
  151.2475  138.7978  155.8104 H   0  0  0  0  0  0  0  0  0  0  0  0
  151.6608  141.0780  155.2312 H   0  0  0  0  0  0  0  0  0  0  0  0
  149.9652  141.5121  155.3844 H   0  0  0  0  0  0  0  0  0  0  0  0
  153.5308  139.9100  159.9294 H   0  0  0  0  0  0  0  0  0  0  0  0
  154.1307  141.1887  161.9520 H   0  0  0  0  0  0  0  0  0  0  0  0
  153.3523  143.5350  162.2320 H   0  0  0  0  0  0  0  0  0  0  0  0
  151.9594  144.5977  160.4657 H   0  0  0  0  0  0  0  0  0  0  0  0
  151.3445  143.3447  158.4430 H   0  0  0  0  0  0  0  0  0  0  0  0
  149.8007  139.8880  153.5442 H   0  0  0  0  0  0  0  0  0  0  0  0
  149.9716  137.5588  153.0243 H   0  0  0  0  0  0  0  0  0  0  0  0
  148.0762  137.6942  153.9552 H   0  0  0  0  0  0  0  0  0  0  0  0
  147.7667  140.1164  153.5050 H   0  0  0  0  0  0  0  0  0  0  0  0
  1  2  1  0  0  0  0
  1 27  1  0  0  0  0
  1 28  1  0  0  0  0
  1 29  1  0  0  0  0
  2 25  1  0  0  0  0
  2  3  2  0  0  0  0
  3  4  1  0  0  0  0
  3 30  1  0  0  0  0
  4  5  1  0  0  0  0
  4 22  1  0  0  0  0
  5 20  1  0  0  0  0
  5  6  1  0  0  0  0
  5 31  1  0  0  0  0
  6  7  1  0  0  0  0
  7  8  1  0  0  0  0
  7 18  1  0  0  0  0
  7 32  1  0  0  0  0
  8  9  1  0  0  0  0
  8 33  1  0  0  0  0
  8 34  1  0  0  0  0
  9 10  1  0  0  0  0
 10 11  2  0  0  0  0
 10 12  1  0  0  0  0
 12 17  1  0  0  0  0
 12 13  2  0  0  0  0
 13 14  1  0  0  0  0
 13 35  1  0  0  0  0
 14 15  2  0  0  0  0
 14 36  1  0  0  0  0
 15 16  1  0  0  0  0
 15 37  1  0  0  0  0
 16 17  2  0  0  0  0
 16 38  1  0  0  0  0
 17 39  1  0  0  0  0
 18 19  1  0  0  0  0
 18 20  1  0  0  0  0
 18 40  1  0  0  0  0
 19 41  1  0  0  0  0
 20 21  1  0  0  0  0
 20 42  1  0  0  0  0
 21 43  1  0  0  0  0
 22 23  2  0  0  0  0
 22 24  1  0  0  0  0
 24 25  1  0  0  0  0
 25 26  2  0  0  0  0
M  CHG  1  24  -1
M  END
> <s_m_source_file>
AV-unprocessed.smi

> <i_m_source_file_index>
101

> <i_lp_mmshare_version>
43012

> <i_f3d_flags>
0

> <s_epik_input>
Tz1jMVtuSF1jKD1PKW4oW2NIXWMxW0NIM10pW0NAQEhdMk9bQ0BIXShbQ0BASF0oW09IXSlbQ0BIXTJbT0hdKVtDSDJdT0MoPU8pYzNbY0hdW2NIXVtjSF1bY0hdW2NIXTM=

> <s_epik_cmdline>
J2VwaWtfcHl0aG9uJywgJy1waCcsICc3LjAnLCAnLXRuJywgJzgnLCAnLW1hJywgJzIwMCcsICctbWV0YWxfYmluZGluZycsICctaW1hZScsICc8aW5maWxlLm1hZT4nLCAnLW9tYWUnLCAnPG91dGZpbGUubWFlPic=

> <r_lp_tautomer_probability>
0.999537

> <r_epik_Ionization_Penalty>
3.21006

> <r_epik_Ionization_Penalty_Charging>
5.75142e-08

> <r_epik_Ionization_Penalty_Neutral>
3.21006

> <r_epik_State_Penalty>
3.20925

> <r_epik_Charging_Adjusted_Penalty>
3.20925

> <i_epik_Tot_Q>
-1

> <i_epik_Tot_abs_Q>
1

> <r_epik_Metal_State_Penalty>
0.119957

> <b_epik_Metal_Only>
1

> <s_epik_Chemistry_Notes>
This compound has an ester and may undergo hydrolysis at high or low pH. This compound contains an acetal/aminal-like group ( X-CH(R)-Y where X, Y are N, S, or O) that may be acid/base labile, releasing an aldehyde.

> <s_lp_Force_Field>
OPLS_2005

> <r_lp_Energy>
38.3221

> <b_lp_Chiralities_Consistent>
1

> <s_lp_Variant>
AV-unprocessed.smi:101-28

> <Gold.Version>
5.8.1

> <Gold.Id.Protein>
6NUR|6NUR_protein|mol2

> <Gold.PLP.Fitness>
53.5381

> <Gold.PLP.PLP>
-39.8349

> <Gold.PLP.part.hbond>
-4.4386

> <Gold.PLP.part.metal>
0.0000

> <Gold.PLP.part.buried>
-4.5586

> <Gold.PLP.part.nonpolar>
-30.7674

> <Gold.PLP.part.repulsive>
0.0288

> <Gold.PLP.ligand.clash>
0.0000

> <Gold.PLP.ligand.torsion>
0.7267

> <Gold.PLP.Chemscore.Hbond>
4.0000

> <Gold.PLP.Chemscore.CHOScore>
1.0000

> <Gold.PLP.Chemscore.Metal>
0.0000

> <Gold.Chemscore.Hbonds>
donor molecule, donor type, donor heavy atom, donor atom, acceptor molecule, acceptor atom, score
      L1  H    19    41       P1  7948  1.00
      P1  H  7997  8010       L1    11  1.00
      L1  C     3    30       P1  7948  1.00

> <Gold.PLP.Chemscore.Internal.Correction>
0.1565

> <Gold.Rescore>
     Score         DG    S(hbond)    S(metal)    S(lipo)     H(rot)  DE(clash)    DE(int)     intcor
     14.33     -17.65       2.79        0.00      95.88       3.27       0.00       3.32       ----

> <Gold.Chemscore.Fitness>
14.3303

> <Gold.Chemscore.DG>
-17.6548

> <Gold.Chemscore.ZeroCoef>
-5.4800

> <Gold.Chemscore.Hbond>
2.7894

> <Gold.Chemscore.Metal>
0.0000

> <Gold.Chemscore.Lipo>
95.8801

> <Gold.Chemscore.Internal_Hbond>
0.0000

> <Gold.Chemscore.DEClash>
0.0015

> <Gold.Chemscore.DEInternal>
3.3230

> <Gold.Chemscore.Rot>
3.2656

> <Gold.Chemscore.Internal.Correction>
   9.000000E+99

> <Gold.Chemscore.Hbonds>
donor molecule, donor type, donor heavy atom, donor atom, acceptor molecule, acceptor atom, score
      L1  H    19    41       P1  7948  0.25
      P1  H  6896  6909       L1    24  0.01
      P1  H  7997  8010       L1    11  0.94

> <Gold.Chemscore.Hbond.Weighted>
-9.3167

> <Gold.Chemscore.Metal.Weighted>
-0.0000

> <Gold.Chemscore.Lipo.Weighted>
-11.2180

> <Gold.Chemscore.Internal_Hbond.Weighted>
0.0000

> <Gold.Chemscore.DEClash.Weighted>
0.0015

> <Gold.Chemscore.DEInternal.Weighted>
3.3230

> <Gold.Chemscore.Rot.Weighted>
8.3598

> <Gold.Chemscore.Internal.Correction.Weighted>
   9.000000E+99

> <Gold.Protein.RotatedTorsions>
[ 6907 6896 6895 6894 ] final   24.09 input  -60.11 | X-H torsion
[ 7974 7965 7964 7962 ] final  -98.44 input  175.53 | X-H torsion
[ 8008 7997 7996 7995 ] final   62.98 input   59.86 | X-H torsion
[ 10167 10162 10161 10158 ] final  -61.52 input  -65.29 | X-H torsion
[ 10718 10713 10712 10709 ] final -133.51 input   66.30 | X-H torsion
[ 10763 10752 10751 10750 ] final  -59.92 input  -60.55 | X-H torsion
[ 11005 11000 10999 10996 ] final -141.85 input  -57.11 | X-H torsion

> <Gold.Protein.ActiveResidues>
 VAL166  LYS551  ARG553  GLY616  TRP617  ASP618  TYR619  PRO620  LYS621  CYS622 
 ASP623  PHE694  ASN695  SER759  ASP760  ASP761  ALA762  ILE779  LEU786  VAL792 
 PHE793  MET794  SER795  GLU796  ALA797  LYS798  CYS799  TRP800  GLU811  SER814 

> <Gold.Protein.RotatedAtoms>
  151.9522  135.0163  160.0542 H   0  0  0  0  0  0  0  0  0  0  0  0  # atno 6907 bound_to 6896
  152.1942  133.4790  159.5032 H   0  0  0  0  0  0  0  0  0  0  0  0  # atno 6908 bound_to 6896
  150.6941  134.1590  159.4212 H   0  0  0  0  0  0  0  0  0  0  0  0  # atno 6909 bound_to 6896
  145.3206  140.9421  143.2718 H   0  0  0  0  0  0  0  0  0  0  0  0  # atno 7974 bound_to 7965
  155.6229  140.3496  155.4658 H   0  0  0  0  0  0  0  0  0  0  0  0  # atno 8008 bound_to 7997
  156.0064  140.1224  157.0521 H   0  0  0  0  0  0  0  0  0  0  0  0  # atno 8009 bound_to 7997
  154.4266  140.1090  156.5755 H   0  0  0  0  0  0  0  0  0  0  0  0  # atno 8010 bound_to 7997
  140.6000  143.2359  151.5949 H   0  0  0  0  0  0  0  0  0  0  0  0  # atno 10167 bound_to 10162
  156.2457  130.7122  151.1002 H   0  0  0  0  0  0  0  0  0  0  0  0  # atno 10718 bound_to 10713
  154.2612  135.6308  153.5275 H   0  0  0  0  0  0  0  0  0  0  0  0  # atno 10763 bound_to 10752
  152.9895  135.5588  154.5702 H   0  0  0  0  0  0  0  0  0  0  0  0  # atno 10764 bound_to 10752
  154.5252  135.2885  155.1203 H   0  0  0  0  0  0  0  0  0  0  0  0  # atno 10765 bound_to 10752
  140.8283  134.2547  157.4868 H   0  0  0  0  0  0  0  0  0  0  0  0  # atno 11005 bound_to 11000
  144.8942  139.4734  143.6663 LP  0  0  0  0  0  0  0  0  0  0  0  0  # atno 17320 bound_to 7965
  146.3084  139.7659  142.9039 LP  0  0  0  0  0  0  0  0  0  0  0  0  # atno 17321 bound_to 7965
  139.5285  144.2987  152.1091 LP  0  0  0  0  0  0  0  0  0  0  0  0  # atno 17342 bound_to 10162
  140.2167  144.4508  150.6361 LP  0  0  0  0  0  0  0  0  0  0  0  0  # atno 17343 bound_to 10162
  157.7194  131.0691  150.6198 LP  0  0  0  0  0  0  0  0  0  0  0  0  # atno 17370 bound_to 10713
  156.6275  130.4422  149.5799 LP  0  0  0  0  0  0  0  0  0  0  0  0  # atno 17371 bound_to 10713
  139.8706  134.9572  156.4263 LP  0  0  0  0  0  0  0  0  0  0  0  0  # atno 17394 bound_to 11000
  140.9025  133.7769  155.9697 LP  0  0  0  0  0  0  0  0  0  0  0  0  # atno 17395 bound_to 11000

$$$$
