AV-unprocessed.smi:228|AV-procd|sdf|1744|dock5
  -GOLD-   2262020253D 1   1.00000     0.00000
 Structure written by MMmdl.
 60 63  0  0  0  0  0  0  0  0  2 V2000
  150.0582  132.1717  155.3133 C   0  0  0  0  0  0  0  0  0  0  0  0
  149.7515  133.2860  154.4250 N   0  0  0  0  0  0  0  0  0  0  0  0
  149.0798  132.9494  153.1670 C   0  0  0  0  0  0  0  0  0  0  0  0
  147.5694  133.2822  153.1692 C   0  0  1  0  0  0  0  0  0  0  0  0
  147.2453  133.8618  151.9216 O   0  0  0  0  0  0  0  0  0  0  0  0
  146.7085  132.0149  153.3384 C   0  0  0  0  0  0  0  0  0  0  0  0
  147.3861  130.8005  152.8185 N   0  3  0  0  0  0  0  0  0  0  0  0
  148.2285  130.1351  153.8402 C   0  0  0  0  0  0  0  0  0  0  0  0
  148.9521  128.9217  153.2314 C   0  0  0  0  0  0  0  0  0  0  0  0
  147.9972  128.0210  152.6846 O   0  0  0  0  0  0  0  0  0  0  0  0
  147.2358  128.6196  151.6428 C   0  0  0  0  0  0  0  0  0  0  0  0
  146.4562  129.8223  152.1998 C   0  0  0  0  0  0  0  0  0  0  0  0
  149.3347  134.3889  155.1013 C   0  0  0  0  0  0  0  0  0  0  0  0
  148.1973  134.3414  155.8467 N   0  0  0  0  0  0  0  0  0  0  0  0
  147.7772  135.4242  156.5062 C   0  0  0  0  0  0  0  0  0  0  0  0
  148.3309  136.6361  156.5544 N   0  0  0  0  0  0  0  0  0  0  0  0
  149.4735  136.6933  155.8115 C   0  0  0  0  0  0  0  0  0  0  0  0
  150.0414  135.6235  155.0629 C   0  0  0  0  0  0  0  0  0  0  0  0
  151.1970  136.0546  154.4237 N   0  0  0  0  0  0  0  0  0  0  0  0
  151.3112  137.3048  154.7797 C   0  0  0  0  0  0  0  0  0  0  0  0
  150.3178  137.7742  155.6104 N   0  0  0  0  0  0  0  0  0  0  0  0
  150.2025  139.1071  156.1341 C   0  0  0  0  0  0  0  0  0  0  0  0
  151.3820  140.0830  156.1005 C   0  0  0  0  0  0  0  0  0  0  0  0
  150.9060  140.6895  157.4416 C   0  0  0  0  0  0  0  0  0  0  0  0
  152.0052  141.0263  158.4688 C   0  0  0  0  0  0  0  0  0  0  0  0
  153.1498  140.2083  158.3274 O   0  0  0  0  0  0  0  0  0  0  0  0
  150.0280  141.9446  157.2831 C   0  0  0  0  0  0  0  0  0  0  0  0
  150.7822  143.0570  156.8458 O   0  0  0  0  0  0  0  0  0  0  0  0
  150.1342  139.3635  157.6415 C   0  0  0  0  0  0  0  0  0  0  0  0
  150.9063  132.3994  155.9591 H   0  0  0  0  0  0  0  0  0  0  0  0
  150.3141  131.2786  154.7425 H   0  0  0  0  0  0  0  0  0  0  0  0
  149.2003  131.9342  155.9439 H   0  0  0  0  0  0  0  0  0  0  0  0
  149.5735  133.4503  152.3330 H   0  0  0  0  0  0  0  0  0  0  0  0
  149.2289  131.8838  152.9871 H   0  0  0  0  0  0  0  0  0  0  0  0
  147.3303  134.0010  153.9509 H   0  0  0  0  0  0  0  0  0  0  0  0
  147.7239  134.6727  151.8339 H   0  0  0  0  0  0  0  0  0  0  0  0
  146.4698  131.8902  154.3961 H   0  0  0  0  0  0  0  0  0  0  0  0
  145.7525  132.1290  152.8250 H   0  0  0  0  0  0  0  0  0  0  0  0
  148.9632  130.8401  154.2313 H   0  0  0  0  0  0  0  0  0  0  0  0
  147.6067  129.8192  154.6793 H   0  0  0  0  0  0  0  0  0  0  0  0
  149.6578  129.2353  152.4602 H   0  0  0  0  0  0  0  0  0  0  0  0
  149.5283  128.4037  153.9984 H   0  0  0  0  0  0  0  0  0  0  0  0
  147.8903  128.9237  150.8243 H   0  0  0  0  0  0  0  0  0  0  0  0
  146.5450  127.8788  151.2400 H   0  0  0  0  0  0  0  0  0  0  0  0
  145.7342  129.4817  152.9438 H   0  0  0  0  0  0  0  0  0  0  0  0
  145.8864  130.2859  151.3953 H   0  0  0  0  0  0  0  0  0  0  0  0
  146.8673  135.3036  157.0753 H   0  0  0  0  0  0  0  0  0  0  0  0
  152.1285  137.9233  154.4381 H   0  0  0  0  0  0  0  0  0  0  0  0
  149.3367  139.5582  155.6454 H   0  0  0  0  0  0  0  0  0  0  0  0
  152.3484  139.5822  156.1627 H   0  0  0  0  0  0  0  0  0  0  0  0
  151.3643  140.7735  155.2567 H   0  0  0  0  0  0  0  0  0  0  0  0
  152.3225  142.0646  158.3693 H   0  0  0  0  0  0  0  0  0  0  0  0
  151.6408  140.9054  159.4892 H   0  0  0  0  0  0  0  0  0  0  0  0
  153.4818  140.0045  159.1884 H   0  0  0  0  0  0  0  0  0  0  0  0
  149.2186  141.7695  156.5737 H   0  0  0  0  0  0  0  0  0  0  0  0
  149.5531  142.2153  158.2265 H   0  0  0  0  0  0  0  0  0  0  0  0
  150.1903  143.6975  156.4815 H   0  0  0  0  0  0  0  0  0  0  0  0
  149.1206  139.4754  158.0277 H   0  0  0  0  0  0  0  0  0  0  0  0
  150.6842  138.6226  158.2223 H   0  0  0  0  0  0  0  0  0  0  0  0
  148.0168  131.1154  152.0947 H   0  0  0  0  0  0  0  0  0  0  0  0
  1  2  1  0  0  0  0
  1 30  1  0  0  0  0
  1 31  1  0  0  0  0
  1 32  1  0  0  0  0
  2  3  1  0  0  0  0
  2 13  1  0  0  0  0
  3  4  1  0  0  0  0
  3 33  1  0  0  0  0
  3 34  1  0  0  0  0
  4  5  1  0  0  0  0
  4  6  1  0  0  0  0
  4 35  1  0  0  0  0
  5 36  1  0  0  0  0
  6  7  1  0  0  0  0
  6 37  1  0  0  0  0
  6 38  1  0  0  0  0
  7 12  1  0  0  0  0
  7  8  1  0  0  0  0
  7 60  1  0  0  0  0
  8  9  1  0  0  0  0
  8 39  1  0  0  0  0
  8 40  1  0  0  0  0
  9 10  1  0  0  0  0
  9 41  1  0  0  0  0
  9 42  1  0  0  0  0
 10 11  1  0  0  0  0
 11 12  1  0  0  0  0
 11 43  1  0  0  0  0
 11 44  1  0  0  0  0
 12 45  1  0  0  0  0
 12 46  1  0  0  0  0
 13 18  1  0  0  0  0
 13 14  2  0  0  0  0
 14 15  1  0  0  0  0
 15 16  2  0  0  0  0
 15 47  1  0  0  0  0
 16 17  1  0  0  0  0
 17 21  1  0  0  0  0
 17 18  2  0  0  0  0
 18 19  1  0  0  0  0
 19 20  2  0  0  0  0
 20 21  1  0  0  0  0
 20 48  1  0  0  0  0
 21 22  1  0  0  0  0
 22 29  1  0  0  0  0
 22 23  1  0  0  0  0
 22 49  1  0  0  0  0
 23 24  1  0  0  0  0
 23 50  1  0  0  0  0
 23 51  1  0  0  0  0
 24 25  1  0  0  0  0
 24 27  1  0  0  0  0
 24 29  1  0  0  0  0
 25 26  1  0  0  0  0
 25 52  1  0  0  0  0
 25 53  1  0  0  0  0
 26 54  1  0  0  0  0
 27 28  1  0  0  0  0
 27 55  1  0  0  0  0
 27 56  1  0  0  0  0
 28 57  1  0  0  0  0
 29 58  1  0  0  0  0
 29 59  1  0  0  0  0
M  CHG  1   7   1
M  END
> <s_m_source_file>
AV-unprocessed.smi

> <i_m_source_file_index>
228

> <i_lp_mmshare_version>
43012

> <i_f3d_flags>
0

> <s_epik_input>
W0NIMl0xW0NIMl1PW0NIMl1bQ0gyXU4xW0NIMl1bQ0BASF0oW09IXSlbQ0gyXU4oW0NIM10pYyhuW2NIXW4yKWMoYzIzKW5bY0hdbjNbQ0hdKFtDSDJdNClbQ0gyXUM0KFtDSDJdW09IXSlbQ0gyXVtPSF0=

> <s_epik_cmdline>
J2VwaWtfcHl0aG9uJywgJy1waCcsICc3LjAnLCAnLXRuJywgJzgnLCAnLW1hJywgJzIwMCcsICctbWV0YWxfYmluZGluZycsICctaW1hZScsICc8aW5maWxlLm1hZT4nLCAnLW9tYWUnLCAnPG91dGZpbGUubWFlPic=

> <r_lp_tautomer_probability>
1

> <r_epik_Ionization_Penalty>
0.403032

> <r_epik_Ionization_Penalty_Charging>
0.40072

> <r_epik_Ionization_Penalty_Neutral>
0.00231206

> <r_epik_State_Penalty>
0.387266

> <r_epik_Charging_Adjusted_Penalty>
0.787986

> <i_epik_Tot_Q>
1

> <i_epik_Tot_abs_Q>
1

> <r_epik_Metal_State_Penalty>
0.385845

> <b_epik_Metal_Only>
0

> <s_lp_Force_Field>
OPLS_2005

> <r_lp_Energy>
50.3724

> <b_lp_Chiralities_Consistent>
1

> <s_lp_Variant>
AV-unprocessed.smi:228-2

> <Gold.Version>
5.8.1

> <Gold.Id.Protein>
6NUR|6NUR_protein|mol2

> <Gold.PLP.Fitness>
49.6939

> <Gold.PLP.PLP>
-39.1454

> <Gold.PLP.part.hbond>
-5.0000

> <Gold.PLP.part.metal>
0.0000

> <Gold.PLP.part.buried>
-5.2512

> <Gold.PLP.part.nonpolar>
-30.0485

> <Gold.PLP.part.repulsive>
1.8313

> <Gold.PLP.ligand.clash>
0.0000

> <Gold.PLP.ligand.torsion>
2.7712

> <Gold.PLP.Chemscore.Hbond>
4.9600

> <Gold.PLP.Chemscore.CHOScore>
0.0000

> <Gold.PLP.Chemscore.Metal>
0.0000

> <Gold.Chemscore.Hbonds>
donor molecule, donor type, donor heavy atom, donor atom, acceptor molecule, acceptor atom, score
      L1  H     5    36       P1  7948  1.00
      L1  H     7    60       P1 10747  0.91
      L1  H    28    57       P1  8028  1.00
      P1  H  7997  8008       L1    26  0.96
      P1  H 10752 10763       L1    19  0.95

> <Gold.PLP.Chemscore.Internal.Correction>
1.2109

> <Gold.Rescore>
     Score         DG    S(hbond)    S(metal)    S(lipo)     H(rot)  DE(clash)    DE(int)     intcor
      9.07     -14.23       3.59        0.00      84.21       5.11       0.36       4.80       ----

> <Gold.Chemscore.Fitness>
9.0691

> <Gold.Chemscore.DG>
-14.2301

> <Gold.Chemscore.ZeroCoef>
-5.4800

> <Gold.Chemscore.Hbond>
3.5904

> <Gold.Chemscore.Metal>
0.0000

> <Gold.Chemscore.Lipo>
84.2072

> <Gold.Chemscore.Internal_Hbond>
0.0000

> <Gold.Chemscore.DEClash>
0.3562

> <Gold.Chemscore.DEInternal>
4.8048

> <Gold.Chemscore.Rot>
5.1149

> <Gold.Chemscore.Internal.Correction>
   9.000000E+99

> <Gold.Chemscore.Hbonds>
donor molecule, donor type, donor heavy atom, donor atom, acceptor molecule, acceptor atom, score
      L1  H     5    36       P1  7948  0.39
      L1  H     7    60       P1 10747  0.84
      L1  H    28    57       P1  8028  1.00
      P1  H  7997  8008       L1    26  0.64
      P1  H 10752 10763       L1    19  0.22

> <Gold.Chemscore.Hbond.Weighted>
-11.9920

> <Gold.Chemscore.Metal.Weighted>
-0.0000

> <Gold.Chemscore.Lipo.Weighted>
-9.8522

> <Gold.Chemscore.Internal_Hbond.Weighted>
0.0000

> <Gold.Chemscore.DEClash.Weighted>
0.3562

> <Gold.Chemscore.DEInternal.Weighted>
4.8048

> <Gold.Chemscore.Rot.Weighted>
13.0942

> <Gold.Chemscore.Internal.Correction.Weighted>
   9.000000E+99

> <Gold.Protein.RotatedTorsions>
[ 6907 6896 6895 6894 ] final   92.59 input  -60.11 | X-H torsion
[ 7974 7965 7964 7962 ] final  -65.91 input  175.53 | X-H torsion
[ 8008 7997 7996 7995 ] final  -86.26 input   59.86 | X-H torsion
[ 10167 10162 10161 10158 ] final -148.28 input  -65.29 | X-H torsion
[ 10718 10713 10712 10709 ] final   98.63 input   66.30 | X-H torsion
[ 10763 10752 10751 10750 ] final   40.42 input  -60.55 | X-H torsion
[ 11005 11000 10999 10996 ] final   28.41 input  -57.11 | X-H torsion

> <Gold.Protein.ActiveResidues>
 VAL166  LYS551  ARG553  GLY616  TRP617  ASP618  TYR619  PRO620  LYS621  CYS622 
 ASP623  PHE694  ASN695  SER759  ASP760  ASP761  ALA762  ILE779  LEU786  VAL792 
 PHE793  MET794  SER795  GLU796  ALA797  LYS798  CYS799  TRP800  GLU811  SER814 

> <Gold.Protein.RotatedAtoms>
  152.5453  134.1479  159.8505 H   0  0  0  0  0  0  0  0  0  0  0  0  # atno 6907 bound_to 6896
  151.1509  133.4901  159.2603 H   0  0  0  0  0  0  0  0  0  0  0  0  # atno 6908 bound_to 6896
  151.1473  135.0220  159.8707 H   0  0  0  0  0  0  0  0  0  0  0  0  # atno 6909 bound_to 6896
  145.7483  140.8920  143.0493 H   0  0  0  0  0  0  0  0  0  0  0  0  # atno 7974 bound_to 7965
  154.6499  140.0580  156.9944 H   0  0  0  0  0  0  0  0  0  0  0  0  # atno 8008 bound_to 7997
  155.1386  140.3263  155.4439 H   0  0  0  0  0  0  0  0  0  0  0  0  # atno 8009 bound_to 7997
  156.2571  140.1968  156.6503 H   0  0  0  0  0  0  0  0  0  0  0  0  # atno 8010 bound_to 7997
  139.7546  143.8467  152.2594 H   0  0  0  0  0  0  0  0  0  0  0  0  # atno 10167 bound_to 10162
  157.6892  131.0646  150.4825 H   0  0  0  0  0  0  0  0  0  0  0  0  # atno 10718 bound_to 10713
  152.9937  135.6192  154.2623 H   0  0  0  0  0  0  0  0  0  0  0  0  # atno 10763 bound_to 10752
  154.2358  135.2790  155.2874 H   0  0  0  0  0  0  0  0  0  0  0  0  # atno 10764 bound_to 10752
  154.5411  135.5761  153.6898 H   0  0  0  0  0  0  0  0  0  0  0  0  # atno 10765 bound_to 10752
  140.3159  134.2598  155.7725 H   0  0  0  0  0  0  0  0  0  0  0  0  # atno 11005 bound_to 11000
  144.6855  139.9556  143.7479 LP  0  0  0  0  0  0  0  0  0  0  0  0  # atno 17320 bound_to 7965
  146.0381  139.3396  143.0714 LP  0  0  0  0  0  0  0  0  0  0  0  0  # atno 17321 bound_to 7965
  139.8456  144.7189  150.9277 LP  0  0  0  0  0  0  0  0  0  0  0  0  # atno 17342 bound_to 10162
  140.7801  143.3945  151.1254 LP  0  0  0  0  0  0  0  0  0  0  0  0  # atno 17343 bound_to 10162
  156.5156  130.4150  149.6277 LP  0  0  0  0  0  0  0  0  0  0  0  0  # atno 17370 bound_to 10713
  156.3200  130.7275  151.2185 LP  0  0  0  0  0  0  0  0  0  0  0  0  # atno 17371 bound_to 10713
  141.2098  133.7739  156.9975 LP  0  0  0  0  0  0  0  0  0  0  0  0  # atno 17394 bound_to 11000
  140.0984  134.9550  157.1885 LP  0  0  0  0  0  0  0  0  0  0  0  0  # atno 17395 bound_to 11000

$$$$
