AV-unprocessed.smi:2062|AV-procd|sdf|8403|dock1
  -GOLD-   2272011 93D 1   1.00000     0.00000
 Structure written by MMmdl.
 42 43  0  0  0  0  0  0  0  0  3 V2000
  143.8884  132.4629  148.4338 C   0  0  0  0  0  0  0  0  0  0  0  0
  144.9186  132.7329  149.5403 C   0  0  0  0  0  0  0  0  0  0  0  0
  145.9468  131.5908  149.6044 C   0  0  0  0  0  0  0  0  0  0  0  0
  144.2133  132.9525  150.8967 C   0  0  0  0  0  0  0  0  0  0  0  0
  143.4917  134.2519  150.9756 N   0  3  2  0  0  0  0  0  0  0  0  0
  144.2768  135.3981  150.4564 C   0  0  0  0  0  0  0  0  0  0  0  0
  145.3190  135.8682  151.4855 C   0  0  0  0  0  0  0  0  0  0  0  0
  144.6560  136.2005  152.6970 O   0  0  0  0  0  0  0  0  0  0  0  0
  144.0015  135.0831  153.2900 C   0  0  1  0  0  0  0  0  0  0  0  0
  143.3894  135.5189  154.6330 C   0  0  0  0  0  0  0  0  0  0  0  0
  142.4739  136.6424  154.4647 N   0  0  0  0  0  0  0  0  0  0  0  0
  141.1669  136.5575  154.1807 C   0  0  0  0  0  0  0  0  0  0  0  0
  140.6304  135.4528  154.0687 O   0  0  0  0  0  0  0  0  0  0  0  0
  140.5643  137.7593  154.0396 N   0  5  0  0  0  0  0  0  0  0  0  0
  139.2368  137.8683  154.2124 C   0  0  0  0  0  0  0  0  0  0  0  0
  138.4933  136.9114  154.7803 N   0  0  0  0  0  0  0  0  0  0  0  0
  137.1370  137.2336  154.8546 C   0  0  0  0  0  0  0  0  0  0  0  0
  136.8395  138.4602  154.3222 C   0  0  0  0  0  0  0  0  0  0  0  0
  138.2630  139.2525  153.7095 S   0  0  0  0  0  0  0  0  0  0  0  0
  142.9214  134.5735  152.3099 C   0  0  0  0  0  0  0  0  0  0  0  0
  143.3212  131.5527  148.6320 H   0  0  0  0  0  0  0  0  0  0  0  0
  144.3735  132.3468  147.4641 H   0  0  0  0  0  0  0  0  0  0  0  0
  143.1782  133.2858  148.3470 H   0  0  0  0  0  0  0  0  0  0  0  0
  145.4471  133.6432  149.2589 H   0  0  0  0  0  0  0  0  0  0  0  0
  145.4755  130.6467  149.8799 H   0  0  0  0  0  0  0  0  0  0  0  0
  146.7304  131.7973  150.3336 H   0  0  0  0  0  0  0  0  0  0  0  0
  146.4338  131.4480  148.6393 H   0  0  0  0  0  0  0  0  0  0  0  0
  143.5278  132.1315  151.1065 H   0  0  0  0  0  0  0  0  0  0  0  0
  144.9718  132.9138  151.6796 H   0  0  0  0  0  0  0  0  0  0  0  0
  144.7519  135.1462  149.5078 H   0  0  0  0  0  0  0  0  0  0  0  0
  143.5880  136.2170  150.2447 H   0  0  0  0  0  0  0  0  0  0  0  0
  146.0787  135.1056  151.6633 H   0  0  0  0  0  0  0  0  0  0  0  0
  145.8379  136.7527  151.1160 H   0  0  0  0  0  0  0  0  0  0  0  0
  144.7318  134.2961  153.4842 H   0  0  0  0  0  0  0  0  0  0  0  0
  142.8947  134.6807  155.1268 H   0  0  0  0  0  0  0  0  0  0  0  0
  144.1809  135.8476  155.3068 H   0  0  0  0  0  0  0  0  0  0  0  0
  142.8655  137.5684  154.5552 H   0  0  0  0  0  0  0  0  0  0  0  0
  136.4529  136.5284  155.3023 H   0  0  0  0  0  0  0  0  0  0  0  0
  135.8767  138.9432  154.2522 H   0  0  0  0  0  0  0  0  0  0  0  0
  142.1677  135.3500  152.1723 H   0  0  0  0  0  0  0  0  0  0  0  0
  142.3960  133.7168  152.7295 H   0  0  0  0  0  0  0  0  0  0  0  0
  142.7085  134.1511  150.3456 H   0  0  0  0  0  0  0  0  0  0  0  0
  1  2  1  0  0  0  0
  1 21  1  0  0  0  0
  1 22  1  0  0  0  0
  1 23  1  0  0  0  0
  2  3  1  0  0  0  0
  2  4  1  0  0  0  0
  2 24  1  0  0  0  0
  3 25  1  0  0  0  0
  3 26  1  0  0  0  0
  3 27  1  0  0  0  0
  4  5  1  0  0  0  0
  4 28  1  0  0  0  0
  4 29  1  0  0  0  0
  5 20  1  0  0  0  0
  5  6  1  0  0  0  0
  5 42  1  0  0  0  0
  6  7  1  0  0  0  0
  6 30  1  0  0  0  0
  6 31  1  0  0  0  0
  7  8  1  0  0  0  0
  7 32  1  0  0  0  0
  7 33  1  0  0  0  0
  8  9  1  0  0  0  0
  9 10  1  0  0  0  0
  9 20  1  0  0  0  0
  9 34  1  0  0  0  0
 10 11  1  0  0  0  0
 10 35  1  0  0  0  0
 10 36  1  0  0  0  0
 11 12  1  0  0  0  0
 11 37  1  0  0  0  0
 12 13  2  0  0  0  0
 12 14  1  0  0  0  0
 14 15  1  0  0  0  0
 15 19  1  0  0  0  0
 15 16  2  0  0  0  0
 16 17  1  0  0  0  0
 17 18  2  0  0  0  0
 17 38  1  0  0  0  0
 18 19  1  0  0  0  0
 18 39  1  0  0  0  0
 20 40  1  0  0  0  0
 20 41  1  0  0  0  0
M  CHG  1   5   1
M  CHG  1  14  -1
M  END
> <s_m_source_file>
AV-unprocessed.smi

> <i_m_source_file_index>
2062

> <i_lp_mmshare_version>
43012

> <i_f3d_flags>
0

> <s_epik_input>
W0NIM11bQ0hdKFtDSDNdKVtDSDJdTjFbQ0gyXVtDSDJdT1tDQEhdKFtDSDJdMSlbQ0gyXVtOSF1DKD1PKVtOSF1jMm5bY0hdW2NIXXMy

> <s_epik_cmdline>
J2VwaWtfcHl0aG9uJywgJy1waCcsICc3LjAnLCAnLXRuJywgJzgnLCAnLW1hJywgJzIwMCcsICctbWV0YWxfYmluZGluZycsICctaW1hZScsICc8aW5maWxlLm1hZT4nLCAnLW9tYWUnLCAnPG91dGZpbGUubWFlPic=

> <r_lp_tautomer_probability>
0.999

> <r_epik_Ionization_Penalty>
6.35835

> <r_epik_Ionization_Penalty_Charging>
5.49938

> <r_epik_Ionization_Penalty_Neutral>
0.858963

> <r_epik_State_Penalty>
5.49328

> <r_epik_Charging_Adjusted_Penalty>
10.9927

> <i_epik_Tot_Q>
0

> <i_epik_Tot_abs_Q>
2

> <r_epik_Metal_State_Penalty>
1.51523

> <b_epik_Metal_Only>
1

> <s_lp_Force_Field>
OPLS_2005

> <r_lp_Energy>
10.4353

> <b_lp_Chiralities_Consistent>
1

> <s_lp_Variant>
AV-unprocessed.smi:2062-8

> <Gold.Version>
5.8.1

> <Gold.Id.Protein>
6NUR|6NUR_protein|mol2

> <Gold.PLP.Fitness>
43.7953

> <Gold.PLP.PLP>
-35.6647

> <Gold.PLP.part.hbond>
-2.0275

> <Gold.PLP.part.metal>
0.0000

> <Gold.PLP.part.buried>
-4.2810

> <Gold.PLP.part.nonpolar>
-29.0243

> <Gold.PLP.part.repulsive>
0.4548

> <Gold.PLP.ligand.clash>
0.0000

> <Gold.PLP.ligand.torsion>
0.5037

> <Gold.PLP.Chemscore.Hbond>
3.0000

> <Gold.PLP.Chemscore.CHOScore>
0.0000

> <Gold.PLP.Chemscore.Metal>
0.0000

> <Gold.Chemscore.Hbonds>
donor molecule, donor type, donor heavy atom, donor atom, acceptor molecule, acceptor atom, score
      L1  H     5    42       P1 10186  2.00
      P1  H 11000 11005       L1    13  1.00

> <Gold.PLP.Chemscore.Internal.Correction>
0.1380

> <Gold.Rescore>
     Score         DG    S(hbond)    S(metal)    S(lipo)     H(rot)  DE(clash)    DE(int)     intcor
     15.74     -17.97       1.89        0.00      90.37       1.72       0.17       2.05       ----

> <Gold.Chemscore.Fitness>
15.7417

> <Gold.Chemscore.DG>
-17.9676

> <Gold.Chemscore.ZeroCoef>
-5.4800

> <Gold.Chemscore.Hbond>
1.8910

> <Gold.Chemscore.Metal>
0.0000

> <Gold.Chemscore.Lipo>
90.3709

> <Gold.Chemscore.Internal_Hbond>
0.0000

> <Gold.Chemscore.DEClash>
0.1749

> <Gold.Chemscore.DEInternal>
2.0510

> <Gold.Chemscore.Rot>
1.7194

> <Gold.Chemscore.Internal.Correction>
   9.000000E+99

> <Gold.Chemscore.Hbonds>
donor molecule, donor type, donor heavy atom, donor atom, acceptor molecule, acceptor atom, score
      L1  H     5    42       P1 10186  0.88
      P1  H 11000 11005       L1    13  0.87

> <Gold.Chemscore.Hbond.Weighted>
-6.3159

> <Gold.Chemscore.Metal.Weighted>
-0.0000

> <Gold.Chemscore.Lipo.Weighted>
-10.5734

> <Gold.Chemscore.Internal_Hbond.Weighted>
0.0000

> <Gold.Chemscore.DEClash.Weighted>
0.1749

> <Gold.Chemscore.DEInternal.Weighted>
2.0510

> <Gold.Chemscore.Rot.Weighted>
4.4017

> <Gold.Chemscore.Internal.Correction.Weighted>
   9.000000E+99

> <Gold.Protein.RotatedTorsions>
[ 6907 6896 6895 6894 ] final -129.10 input  -60.11 | X-H torsion
[ 7974 7965 7964 7962 ] final -157.06 input  175.53 | X-H torsion
[ 8008 7997 7996 7995 ] final  -25.55 input   59.86 | X-H torsion
[ 10167 10162 10161 10158 ] final  147.11 input  -65.29 | X-H torsion
[ 10718 10713 10712 10709 ] final -159.89 input   66.30 | X-H torsion
[ 10763 10752 10751 10750 ] final   41.65 input  -60.55 | X-H torsion
[ 11005 11000 10999 10996 ] final   45.91 input  -57.11 | X-H torsion

> <Gold.Protein.ActiveResidues>
 VAL166  LYS551  ARG553  GLY616  TRP617  ASP618  TYR619  PRO620  LYS621  CYS622 
 ASP623  PHE694  ASN695  SER759  ASP760  ASP761  ALA762  ILE779  LEU786  VAL792 
 PHE793  MET794  SER795  GLU796  ALA797  LYS798  CYS799  TRP800  GLU811  SER814 

> <Gold.Protein.RotatedAtoms>
  150.9250  133.6834  159.2823 H   0  0  0  0  0  0  0  0  0  0  0  0  # atno 6907 bound_to 6896
  151.4276  135.1004  159.9642 H   0  0  0  0  0  0  0  0  0  0  0  0  # atno 6908 bound_to 6896
  152.4998  133.8688  159.7343 H   0  0  0  0  0  0  0  0  0  0  0  0  # atno 6909 bound_to 6896
  144.7565  140.4022  143.6008 H   0  0  0  0  0  0  0  0  0  0  0  0  # atno 7974 bound_to 7965
  154.4470  140.1923  156.0636 H   0  0  0  0  0  0  0  0  0  0  0  0  # atno 8008 bound_to 7997
  156.0564  140.3302  155.7383 H   0  0  0  0  0  0  0  0  0  0  0  0  # atno 8009 bound_to 7997
  155.5479  140.0592  157.2847 H   0  0  0  0  0  0  0  0  0  0  0  0  # atno 8010 bound_to 7997
  139.4895  144.5779  151.6929 H   0  0  0  0  0  0  0  0  0  0  0  0  # atno 10167 bound_to 10162
  156.5744  130.8702  151.2847 H   0  0  0  0  0  0  0  0  0  0  0  0  # atno 10718 bound_to 10713
  152.9903  135.6155  154.2821 H   0  0  0  0  0  0  0  0  0  0  0  0  # atno 10763 bound_to 10752
  154.2550  135.2784  155.2803 H   0  0  0  0  0  0  0  0  0  0  0  0  # atno 10764 bound_to 10752
  154.5255  135.5803  153.6773 H   0  0  0  0  0  0  0  0  0  0  0  0  # atno 10765 bound_to 10752
  140.1416  134.4575  155.8445 H   0  0  0  0  0  0  0  0  0  0  0  0  # atno 11005 bound_to 11000
  145.6763  139.1609  143.2726 LP  0  0  0  0  0  0  0  0  0  0  0  0  # atno 17320 bound_to 7965
  146.1580  140.6829  142.9290 LP  0  0  0  0  0  0  0  0  0  0  0  0  # atno 17321 bound_to 7965
  140.5379  144.0626  150.6077 LP  0  0  0  0  0  0  0  0  0  0  0  0  # atno 17342 bound_to 10162
  140.3638  143.2893  152.0354 LP  0  0  0  0  0  0  0  0  0  0  0  0  # atno 17343 bound_to 10162
  157.7341  130.9740  150.2010 LP  0  0  0  0  0  0  0  0  0  0  0  0  # atno 17370 bound_to 10713
  156.2686  130.3719  149.8055 LP  0  0  0  0  0  0  0  0  0  0  0  0  # atno 17371 bound_to 10713
  141.2187  133.6835  156.7258 LP  0  0  0  0  0  0  0  0  0  0  0  0  # atno 17394 bound_to 11000
  140.2715  134.8389  157.3851 LP  0  0  0  0  0  0  0  0  0  0  0  0  # atno 17395 bound_to 11000

$$$$
