AV-unprocessed.smi:2063|AV-procd|sdf|8411|dock6
  -GOLD-   2272011103D 1   1.00000     0.00000
 Structure written by MMmdl.
 39 40  0  0  0  0  0  0  0  0  1 V2000
  151.5794  137.5410  159.1292 C   0  0  0  0  0  0  0  0  0  0  0  0
  152.2090  137.1637  157.7804 C   0  0  0  0  0  0  0  0  0  0  0  0
  152.7082  138.3799  156.9869 C   0  0  0  0  0  0  0  0  0  0  0  0
  151.3109  136.2874  156.9641 C   0  0  0  0  0  0  0  0  0  0  0  0
  150.8594  135.1016  157.3952 N   0  0  0  0  0  0  0  0  0  0  0  0
  150.0463  134.4749  156.4619 N   0  0  0  0  0  0  0  0  0  0  0  0
  149.9071  135.2077  155.3489 C   0  0  0  0  0  0  0  0  0  0  0  0
  149.1344  134.8031  154.2286 N   0  0  0  0  0  0  0  0  0  0  0  0
  148.4792  133.6440  154.0426 C   0  0  0  0  0  0  0  0  0  0  0  0
  148.4189  132.7213  154.8557 O   0  0  0  0  0  0  0  0  0  0  0  0
  147.8843  133.6141  152.8414 N   0  0  0  0  0  0  0  0  0  0  0  0
  147.0962  132.5035  152.3113 C   0  0  1  0  0  0  0  0  0  0  0  0
  146.1631  131.9636  153.4066 C   0  0  0  0  0  0  0  0  0  0  0  0
  146.3160  132.9665  151.0663 C   0  0  1  0  0  0  0  0  0  0  0  0
  145.6215  131.8437  150.2933 C   0  0  0  0  0  0  0  0  0  0  0  0
  144.4859  132.5549  149.5752 C   0  0  0  0  0  0  0  0  0  0  0  0
  144.3645  133.8961  150.3046 C   0  0  0  0  0  0  0  0  0  0  0  0
  145.2200  133.7890  151.4341 O   0  0  0  0  0  0  0  0  0  0  0  0
  150.7663  136.7378  155.3517 S   0  0  0  0  0  0  0  0  0  0  0  0
  151.3126  136.6510  159.7000 H   0  0  0  0  0  0  0  0  0  0  0  0
  150.6744  138.1335  158.9924 H   0  0  0  0  0  0  0  0  0  0  0  0
  152.2707  138.1270  159.7353 H   0  0  0  0  0  0  0  0  0  0  0  0
  153.0922  136.5670  158.0118 H   0  0  0  0  0  0  0  0  0  0  0  0
  153.2213  138.0700  156.0759 H   0  0  0  0  0  0  0  0  0  0  0  0
  153.4089  138.9720  157.5758 H   0  0  0  0  0  0  0  0  0  0  0  0
  151.8830  139.0323  156.6994 H   0  0  0  0  0  0  0  0  0  0  0  0
  149.0814  135.4731  153.4759 H   0  0  0  0  0  0  0  0  0  0  0  0
  147.9868  134.4198  152.2420 H   0  0  0  0  0  0  0  0  0  0  0  0
  147.7671  131.6992  152.0037 H   0  0  0  0  0  0  0  0  0  0  0  0
  145.5791  131.1174  153.0441 H   0  0  0  0  0  0  0  0  0  0  0  0
  145.4640  132.7290  153.7458 H   0  0  0  0  0  0  0  0  0  0  0  0
  146.7296  131.6217  154.2733 H   0  0  0  0  0  0  0  0  0  0  0  0
  146.9681  133.5279  150.3940 H   0  0  0  0  0  0  0  0  0  0  0  0
  146.2933  131.3224  149.6109 H   0  0  0  0  0  0  0  0  0  0  0  0
  145.2101  131.1087  150.9866 H   0  0  0  0  0  0  0  0  0  0  0  0
  144.7194  132.7122  148.5218 H   0  0  0  0  0  0  0  0  0  0  0  0
  143.5634  131.9763  149.6325 H   0  0  0  0  0  0  0  0  0  0  0  0
  144.7108  134.7116  149.6680 H   0  0  0  0  0  0  0  0  0  0  0  0
  143.3410  134.1148  150.6104 H   0  0  0  0  0  0  0  0  0  0  0  0
  1  2  1  0  0  0  0
  1 20  1  0  0  0  0
  1 21  1  0  0  0  0
  1 22  1  0  0  0  0
  2  3  1  0  0  0  0
  2  4  1  0  0  0  0
  2 23  1  0  0  0  0
  3 24  1  0  0  0  0
  3 25  1  0  0  0  0
  3 26  1  0  0  0  0
  4 19  1  0  0  0  0
  4  5  2  0  0  0  0
  5  6  1  0  0  0  0
  6  7  2  0  0  0  0
  7  8  1  0  0  0  0
  7 19  1  0  0  0  0
  8  9  1  0  0  0  0
  8 27  1  0  0  0  0
  9 10  2  0  0  0  0
  9 11  1  0  0  0  0
 11 12  1  0  0  0  0
 11 28  1  0  0  0  0
 12 13  1  0  0  0  0
 12 14  1  0  0  0  0
 12 29  1  0  0  0  0
 13 30  1  0  0  0  0
 13 31  1  0  0  0  0
 13 32  1  0  0  0  0
 14 18  1  0  0  0  0
 14 15  1  0  0  0  0
 14 33  1  0  0  0  0
 15 16  1  0  0  0  0
 15 34  1  0  0  0  0
 15 35  1  0  0  0  0
 16 17  1  0  0  0  0
 16 36  1  0  0  0  0
 16 37  1  0  0  0  0
 17 18  1  0  0  0  0
 17 38  1  0  0  0  0
 17 39  1  0  0  0  0
M  END
> <s_m_source_file>
AV-unprocessed.smi

> <i_m_source_file_index>
2063

> <i_lp_mmshare_version>
43012

> <i_f3d_flags>
0

> <s_epik_input>
W0NIM11bQ0hdKFtDSDNdKWMxbm5jKHMxKVtOSF1DKD1PKVtOSF1bQ0BIXShbQ0gzXSlbQ0BASF0yW0NIMl1bQ0gyXVtDSDJdTzI=

> <s_epik_cmdline>
J2VwaWtfcHl0aG9uJywgJy1waCcsICc3LjAnLCAnLXRuJywgJzgnLCAnLW1hJywgJzIwMCcsICctbWV0YWxfYmluZGluZycsICctaW1hZScsICc8aW5maWxlLm1hZT4nLCAnLW9tYWUnLCAnPG91dGZpbGUubWFlPic=

> <r_lp_tautomer_probability>
1

> <r_epik_Ionization_Penalty>
0.00050567

> <r_epik_Ionization_Penalty_Charging>
0

> <r_epik_Ionization_Penalty_Neutral>
0.00050567

> <r_epik_State_Penalty>
-0

> <r_epik_Charging_Adjusted_Penalty>
0

> <i_epik_Tot_Q>
0

> <i_epik_Tot_abs_Q>
0

> <r_epik_Metal_State_Penalty>
0.219912

> <b_epik_Metal_Only>
0

> <s_lp_Force_Field>
OPLS_2005

> <r_lp_Energy>
10.6247

> <b_lp_Chiralities_Consistent>
1

> <s_lp_Variant>
AV-unprocessed.smi:2063-4

> <Gold.Version>
5.8.1

> <Gold.Id.Protein>
6NUR|6NUR_protein|mol2

> <Gold.PLP.Fitness>
34.7898

> <Gold.PLP.PLP>
-28.4601

> <Gold.PLP.part.hbond>
-3.0000

> <Gold.PLP.part.metal>
0.0000

> <Gold.PLP.part.buried>
-4.8537

> <Gold.PLP.part.nonpolar>
-21.0989

> <Gold.PLP.part.repulsive>
0.1401

> <Gold.PLP.ligand.clash>
0.0000

> <Gold.PLP.ligand.torsion>
0.3596

> <Gold.PLP.Chemscore.Hbond>
2.3170

> <Gold.PLP.Chemscore.CHOScore>
0.0000

> <Gold.PLP.Chemscore.Metal>
0.0000

> <Gold.Chemscore.Hbonds>
donor molecule, donor type, donor heavy atom, donor atom, acceptor molecule, acceptor atom, score
      L1  H     8    27       P1  7948  1.00
      L1  H    11    28       P1  7948  0.97
      P1  H  6896  6909       L1     5  0.22

> <Gold.PLP.Chemscore.Internal.Correction>
0.0980

> <Gold.Rescore>
     Score         DG    S(hbond)    S(metal)    S(lipo)     H(rot)  DE(clash)    DE(int)     intcor
     13.92     -16.85       2.21        0.00      65.11       1.42       0.01       2.91       ----

> <Gold.Chemscore.Fitness>
13.9205

> <Gold.Chemscore.DG>
-16.8496

> <Gold.Chemscore.ZeroCoef>
-5.4800

> <Gold.Chemscore.Hbond>
2.2078

> <Gold.Chemscore.Metal>
0.0000

> <Gold.Chemscore.Lipo>
65.1139

> <Gold.Chemscore.Internal_Hbond>
0.0000

> <Gold.Chemscore.DEClash>
0.0149

> <Gold.Chemscore.DEInternal>
2.9142

> <Gold.Chemscore.Rot>
1.4152

> <Gold.Chemscore.Internal.Correction>
   9.000000E+99

> <Gold.Chemscore.Hbonds>
donor molecule, donor type, donor heavy atom, donor atom, acceptor molecule, acceptor atom, score
      L1  H     8    27       P1  7948  0.60
      L1  H    11    28       P1  7948  0.22
      P1  H  6896  6909       L1     5  0.18

> <Gold.Chemscore.Hbond.Weighted>
-7.3742

> <Gold.Chemscore.Metal.Weighted>
-0.0000

> <Gold.Chemscore.Lipo.Weighted>
-7.6183

> <Gold.Chemscore.Internal_Hbond.Weighted>
0.0000

> <Gold.Chemscore.DEClash.Weighted>
0.0149

> <Gold.Chemscore.DEInternal.Weighted>
2.9142

> <Gold.Chemscore.Rot.Weighted>
3.6229

> <Gold.Chemscore.Internal.Correction.Weighted>
   9.000000E+99

> <Gold.Protein.RotatedTorsions>
[ 6907 6896 6895 6894 ] final   25.22 input  -60.11 | X-H torsion
[ 7974 7965 7964 7962 ] final    8.30 input  175.53 | X-H torsion
[ 8008 7997 7996 7995 ] final -177.93 input   59.86 | X-H torsion
[ 10167 10162 10161 10158 ] final -145.13 input  -65.29 | X-H torsion
[ 10718 10713 10712 10709 ] final  -46.13 input   66.30 | X-H torsion
[ 10763 10752 10751 10750 ] final  -47.82 input  -60.55 | X-H torsion
[ 11005 11000 10999 10996 ] final  168.92 input  -57.11 | X-H torsion

> <Gold.Protein.ActiveResidues>
 VAL166  LYS551  ARG553  GLY616  TRP617  ASP618  TYR619  PRO620  LYS621  CYS622 
 ASP623  PHE694  ASN695  SER759  ASP760  ASP761  ALA762  ILE779  LEU786  VAL792 
 PHE793  MET794  SER795  GLU796  ALA797  LYS798  CYS799  TRP800  GLU811  SER814 

> <Gold.Protein.RotatedAtoms>
  151.9692  135.0085  160.0551 H   0  0  0  0  0  0  0  0  0  0  0  0  # atno 6907 bound_to 6896
  152.1798  133.4695  159.4960 H   0  0  0  0  0  0  0  0  0  0  0  0  # atno 6908 bound_to 6896
  150.6915  134.1765  159.4275 H   0  0  0  0  0  0  0  0  0  0  0  0  # atno 6909 bound_to 6896
  146.2418  139.9954  142.8421 H   0  0  0  0  0  0  0  0  0  0  0  0  # atno 7974 bound_to 7965
  156.0128  140.1244  157.0437 H   0  0  0  0  0  0  0  0  0  0  0  0  # atno 8008 bound_to 7997
  154.4282  140.1084  156.5923 H   0  0  0  0  0  0  0  0  0  0  0  0  # atno 8009 bound_to 7997
  155.6056  140.3471  155.4609 H   0  0  0  0  0  0  0  0  0  0  0  0  # atno 8010 bound_to 7997
  139.7835  143.8067  152.2641 H   0  0  0  0  0  0  0  0  0  0  0  0  # atno 10167 bound_to 10162
  156.2213  130.4166  149.8989 H   0  0  0  0  0  0  0  0  0  0  0  0  # atno 10718 bound_to 10713
  154.0676  135.6609  153.4820 H   0  0  0  0  0  0  0  0  0  0  0  0  # atno 10763 bound_to 10752
  153.0403  135.5149  154.7598 H   0  0  0  0  0  0  0  0  0  0  0  0  # atno 10764 bound_to 10752
  154.6654  135.3021  154.9780 H   0  0  0  0  0  0  0  0  0  0  0  0  # atno 10765 bound_to 10752
  140.2923  134.7663  157.3849 H   0  0  0  0  0  0  0  0  0  0  0  0  # atno 11005 bound_to 11000
  145.1464  140.9599  143.4458 LP  0  0  0  0  0  0  0  0  0  0  0  0  # atno 17320 bound_to 7965
  145.0246  139.3394  143.6055 LP  0  0  0  0  0  0  0  0  0  0  0  0  # atno 17321 bound_to 7965
  139.8137  144.7325  150.9663 LP  0  0  0  0  0  0  0  0  0  0  0  0  # atno 17342 bound_to 10162
  140.7819  143.4225  151.0818 LP  0  0  0  0  0  0  0  0  0  0  0  0  # atno 17343 bound_to 10162
  156.6634  130.8791  151.3551 LP  0  0  0  0  0  0  0  0  0  0  0  0  # atno 17370 bound_to 10713
  157.7089  130.9417  150.1022 LP  0  0  0  0  0  0  0  0  0  0  0  0  # atno 17371 bound_to 10713
  140.1184  134.5252  155.8205 LP  0  0  0  0  0  0  0  0  0  0  0  0  # atno 17394 bound_to 11000
  141.2144  133.6748  156.6820 LP  0  0  0  0  0  0  0  0  0  0  0  0  # atno 17395 bound_to 11000

$$$$
