AV-unprocessed.smi:2955|AV-procd|sdf|11304|dock1
  -GOLD-   2272016203D 1   1.00000     0.00000
 Structure written by MMmdl.
 46 48  0  0  0  0  0  0  0  0  2 V2000
  154.4626  139.7094  160.5950 C   0  0  0  0  0  0  0  0  0  0  0  0
  153.6010  140.9175  160.2892 C   0  0  0  0  0  0  0  0  0  0  0  0
  153.7729  142.1115  161.0171 C   0  0  0  0  0  0  0  0  0  0  0  0
  152.9707  143.2309  160.7300 C   0  0  0  0  0  0  0  0  0  0  0  0
  151.9975  143.1584  159.7157 C   0  0  0  0  0  0  0  0  0  0  0  0
  151.8140  141.9726  158.9755 C   0  0  0  0  0  0  0  0  0  0  0  0
  150.8396  141.9898  158.0015 O   0  0  0  0  0  0  0  0  0  0  0  0
  150.5707  140.7871  157.2927 C   0  0  0  0  0  0  0  0  0  0  0  0
  150.9993  140.9590  155.8289 C   0  0  0  0  0  0  0  0  0  0  0  0
  150.2481  140.0769  154.9225 N   0  0  0  0  0  0  0  0  0  0  0  0
  150.5197  138.8117  154.4851 C   0  0  0  0  0  0  0  0  0  0  0  0
  151.7177  137.9720  154.8229 C   0  0  1  0  0  0  0  0  0  0  0  0
  153.0210  138.7250  154.5191 C   0  0  0  0  0  0  0  0  0  0  0  0
  151.7041  137.5535  156.2188 N   0  0  0  0  0  0  0  0  0  0  0  0
  151.5855  136.2819  156.6203 C   0  0  0  0  0  0  0  0  0  0  0  0
  151.4798  135.3389  155.8408 O   0  0  0  0  0  0  0  0  0  0  0  0
  149.5055  138.4524  153.6465 N   0  3  0  0  0  0  0  0  0  0  0  0
  148.5689  139.4822  153.5647 C   0  0  0  0  0  0  0  0  0  0  0  0
  147.3776  139.5756  152.8519 C   0  0  0  0  0  0  0  0  0  0  0  0
  146.6485  140.7745  152.9927 C   0  0  0  0  0  0  0  0  0  0  0  0
  147.1095  141.8214  153.8174 C   0  0  0  0  0  0  0  0  0  0  0  0
  148.3198  141.7152  154.5340 C   0  0  0  0  0  0  0  0  0  0  0  0
  149.0363  140.5276  154.3867 C   0  0  0  0  0  0  0  0  0  0  0  0
  152.6274  140.8492  159.2709 C   0  0  0  0  0  0  0  0  0  0  0  0
  154.8593  139.7567  161.6098 H   0  0  0  0  0  0  0  0  0  0  0  0
  155.3013  139.6595  159.9005 H   0  0  0  0  0  0  0  0  0  0  0  0
  153.8838  138.7900  160.5026 H   0  0  0  0  0  0  0  0  0  0  0  0
  154.5183  142.1728  161.7967 H   0  0  0  0  0  0  0  0  0  0  0  0
  153.1012  144.1459  161.2887 H   0  0  0  0  0  0  0  0  0  0  0  0
  151.3846  144.0223  159.5050 H   0  0  0  0  0  0  0  0  0  0  0  0
  151.1159  139.9551  157.7412 H   0  0  0  0  0  0  0  0  0  0  0  0
  149.5056  140.5543  157.3315 H   0  0  0  0  0  0  0  0  0  0  0  0
  150.8788  141.9928  155.5051 H   0  0  0  0  0  0  0  0  0  0  0  0
  152.0595  140.7323  155.7181 H   0  0  0  0  0  0  0  0  0  0  0  0
  151.7087  137.0767  154.2005 H   0  0  0  0  0  0  0  0  0  0  0  0
  153.0636  139.0237  153.4712 H   0  0  0  0  0  0  0  0  0  0  0  0
  153.8909  138.0979  154.7169 H   0  0  0  0  0  0  0  0  0  0  0  0
  153.1176  139.6262  155.1256 H   0  0  0  0  0  0  0  0  0  0  0  0
  151.7974  138.2719  156.9222 H   0  0  0  0  0  0  0  0  0  0  0  0
  151.5988  136.1935  157.7177 H   0  0  0  0  0  0  0  0  0  0  0  0
  147.0218  138.7740  152.2214 H   0  0  0  0  0  0  0  0  0  0  0  0
  145.7166  140.8931  152.4590 H   0  0  0  0  0  0  0  0  0  0  0  0
  146.5230  142.7248  153.9020 H   0  0  0  0  0  0  0  0  0  0  0  0
  148.6612  142.5223  155.1646 H   0  0  0  0  0  0  0  0  0  0  0  0
  152.5211  139.9220  158.7287 H   0  0  0  0  0  0  0  0  0  0  0  0
  149.4596  137.5615  153.1692 H   0  0  0  0  0  0  0  0  0  0  0  0
  1  2  1  0  0  0  0
  1 25  1  0  0  0  0
  1 26  1  0  0  0  0
  1 27  1  0  0  0  0
  2 24  1  0  0  0  0
  2  3  2  0  0  0  0
  3  4  1  0  0  0  0
  3 28  1  0  0  0  0
  4  5  2  0  0  0  0
  4 29  1  0  0  0  0
  5  6  1  0  0  0  0
  5 30  1  0  0  0  0
  6  7  1  0  0  0  0
  6 24  2  0  0  0  0
  7  8  1  0  0  0  0
  8  9  1  0  0  0  0
  8 31  1  0  0  0  0
  8 32  1  0  0  0  0
  9 10  1  0  0  0  0
  9 33  1  0  0  0  0
  9 34  1  0  0  0  0
 10 23  1  0  0  0  0
 10 11  1  0  0  0  0
 11 12  1  0  0  0  0
 11 17  2  0  0  0  0
 12 13  1  0  0  0  0
 12 14  1  0  0  0  0
 12 35  1  0  0  0  0
 13 36  1  0  0  0  0
 13 37  1  0  0  0  0
 13 38  1  0  0  0  0
 14 15  1  0  0  0  0
 14 39  1  0  0  0  0
 15 16  2  0  0  0  0
 15 40  1  0  0  0  0
 17 18  1  0  0  0  0
 17 46  1  0  0  0  0
 18 23  2  0  0  0  0
 18 19  1  0  0  0  0
 19 20  2  0  0  0  0
 19 41  1  0  0  0  0
 20 21  1  0  0  0  0
 20 42  1  0  0  0  0
 21 22  2  0  0  0  0
 21 43  1  0  0  0  0
 22 23  1  0  0  0  0
 22 44  1  0  0  0  0
 24 45  1  0  0  0  0
M  CHG  1  17   1
M  END
> <s_m_source_file>
AV-unprocessed.smi

> <i_m_source_file_index>
2955

> <i_lp_mmshare_version>
43012

> <i_f3d_flags>
0

> <s_epik_input>
W0NIM11jMVtjSF1bY0hdW2NIXWMoW2NIXTEpT1tDSDJdW0NIMl1uKGMobjIpW0NASF0oW0NIM10pW05IXVtDSF09TyljKGMyMylbY0hdW2NIXVtjSF1bY0hdMw==

> <s_epik_cmdline>
J2VwaWtfcHl0aG9uJywgJy1waCcsICc3LjAnLCAnLXRuJywgJzgnLCAnLW1hJywgJzIwMCcsICctbWV0YWxfYmluZGluZycsICctaW1hZScsICc8aW5maWxlLm1hZT4nLCAnLW9tYWUnLCAnPG91dGZpbGUubWFlPic=

> <r_lp_tautomer_probability>
1

> <r_epik_Ionization_Penalty>
1.15027

> <r_epik_Ionization_Penalty_Charging>
1.15027

> <r_epik_Ionization_Penalty_Neutral>
5.5802e-08

> <r_epik_State_Penalty>
1.21159

> <r_epik_Charging_Adjusted_Penalty>
2.36186

> <i_epik_Tot_Q>
1

> <i_epik_Tot_abs_Q>
1

> <r_epik_Metal_State_Penalty>
1.29223

> <b_epik_Metal_Only>
0

> <s_lp_Force_Field>
OPLS_2005

> <r_lp_Energy>
16.9999

> <b_lp_Chiralities_Consistent>
1

> <s_lp_Variant>
AV-unprocessed.smi:2955-4

> <Gold.Version>
5.8.1

> <Gold.Id.Protein>
6NUR|6NUR_protein|mol2

> <Gold.PLP.Fitness>
57.9827

> <Gold.PLP.PLP>
-50.8107

> <Gold.PLP.part.hbond>
-3.0000

> <Gold.PLP.part.metal>
0.0000

> <Gold.PLP.part.buried>
1.7128

> <Gold.PLP.part.nonpolar>
-49.6977

> <Gold.PLP.part.repulsive>
0.2256

> <Gold.PLP.ligand.clash>
0.0000

> <Gold.PLP.ligand.torsion>
1.0054

> <Gold.PLP.Chemscore.Hbond>
3.0000

> <Gold.PLP.Chemscore.CHOScore>
0.0000

> <Gold.PLP.Chemscore.Metal>
0.0000

> <Gold.Chemscore.Hbonds>
donor molecule, donor type, donor heavy atom, donor atom, acceptor molecule, acceptor atom, score
      L1  H    17    46       P1  7948  2.00
      P1  H 10752 10765       L1    16  1.00

> <Gold.PLP.Chemscore.Internal.Correction>
0.1827

> <Gold.Rescore>
     Score         DG    S(hbond)    S(metal)    S(lipo)     H(rot)  DE(clash)    DE(int)     intcor
     18.42     -21.46       1.71        0.00     138.55       2.32       2.06       0.99       ----

> <Gold.Chemscore.Fitness>
18.4169

> <Gold.Chemscore.DG>
-21.4633

> <Gold.Chemscore.ZeroCoef>
-5.4800

> <Gold.Chemscore.Hbond>
1.7118

> <Gold.Chemscore.Metal>
0.0000

> <Gold.Chemscore.Lipo>
138.5546

> <Gold.Chemscore.Internal_Hbond>
0.0000

> <Gold.Chemscore.DEClash>
2.0592

> <Gold.Chemscore.DEInternal>
0.9872

> <Gold.Chemscore.Rot>
2.3223

> <Gold.Chemscore.Internal.Correction>
   9.000000E+99

> <Gold.Chemscore.Hbonds>
donor molecule, donor type, donor heavy atom, donor atom, acceptor molecule, acceptor atom, score
      L1  H    17    46       P1  7948  0.90
      P1  H 10752 10765       L1    16  0.38

> <Gold.Chemscore.Hbond.Weighted>
-5.7174

> <Gold.Chemscore.Metal.Weighted>
-0.0000

> <Gold.Chemscore.Lipo.Weighted>
-16.2109

> <Gold.Chemscore.Internal_Hbond.Weighted>
0.0000

> <Gold.Chemscore.DEClash.Weighted>
2.0592

> <Gold.Chemscore.DEInternal.Weighted>
0.9872

> <Gold.Chemscore.Rot.Weighted>
5.9450

> <Gold.Chemscore.Internal.Correction.Weighted>
   9.000000E+99

> <Gold.Protein.RotatedTorsions>
[ 6907 6896 6895 6894 ] final -112.47 input  -60.11 | X-H torsion
[ 7974 7965 7964 7962 ] final   99.93 input  175.53 | X-H torsion
[ 8008 7997 7996 7995 ] final  119.78 input   59.86 | X-H torsion
[ 10167 10162 10161 10158 ] final -115.45 input  -65.29 | X-H torsion
[ 10718 10713 10712 10709 ] final -117.99 input   66.30 | X-H torsion
[ 10763 10752 10751 10750 ] final -170.75 input  -60.55 | X-H torsion
[ 11005 11000 10999 10996 ] final -122.07 input  -57.11 | X-H torsion

> <Gold.Protein.ActiveResidues>
 VAL166  LYS551  ARG553  GLY616  TRP617  ASP618  TYR619  PRO620  LYS621  CYS622 
 ASP623  PHE694  ASN695  SER759  ASP760  ASP761  ALA762  ILE779  LEU786  VAL792 
 PHE793  MET794  SER795  GLU796  ALA797  LYS798  CYS799  TRP800  GLU811  SER814 

> <Gold.Protein.RotatedAtoms>
  150.7761  133.9084  159.3361 H   0  0  0  0  0  0  0  0  0  0  0  0  # atno 6907 bound_to 6896
  151.6959  135.0936  160.0251 H   0  0  0  0  0  0  0  0  0  0  0  0  # atno 6908 bound_to 6896
  152.3797  133.6491  159.6187 H   0  0  0  0  0  0  0  0  0  0  0  0  # atno 6909 bound_to 6896
  145.3923  139.2361  143.3345 H   0  0  0  0  0  0  0  0  0  0  0  0  # atno 7974 bound_to 7965
  156.2612  140.2845  156.1046 H   0  0  0  0  0  0  0  0  0  0  0  0  # atno 8008 bound_to 7997
  155.1323  140.0394  157.2795 H   0  0  0  0  0  0  0  0  0  0  0  0  # atno 8009 bound_to 7997
  154.6591  140.2562  155.7135 H   0  0  0  0  0  0  0  0  0  0  0  0  # atno 8010 bound_to 7997
  140.0900  143.4709  152.1876 H   0  0  0  0  0  0  0  0  0  0  0  0  # atno 10167 bound_to 10162
  156.1074  130.6221  150.9234 H   0  0  0  0  0  0  0  0  0  0  0  0  # atno 10718 bound_to 10713
  154.6381  135.2895  155.0136 H   0  0  0  0  0  0  0  0  0  0  0  0  # atno 10763 bound_to 10752
  154.1273  135.6539  153.4919 H   0  0  0  0  0  0  0  0  0  0  0  0  # atno 10764 bound_to 10752
  153.0313  135.5302  154.7236 H   0  0  0  0  0  0  0  0  0  0  0  0  # atno 10765 bound_to 10752
  141.0023  134.0385  157.3522 H   0  0  0  0  0  0  0  0  0  0  0  0  # atno 11005 bound_to 11000
  146.2792  140.4607  142.8783 LP  0  0  0  0  0  0  0  0  0  0  0  0  # atno 17320 bound_to 7965
  144.8432  140.6889  143.6216 LP  0  0  0  0  0  0  0  0  0  0  0  0  # atno 17321 bound_to 7965
  139.5730  144.7473  151.3839 LP  0  0  0  0  0  0  0  0  0  0  0  0  # atno 17342 bound_to 10162
  140.7034  143.7576  150.7440 LP  0  0  0  0  0  0  0  0  0  0  0  0  # atno 17343 bound_to 10162
  157.6252  131.0926  150.8548 LP  0  0  0  0  0  0  0  0  0  0  0  0  # atno 17370 bound_to 10713
  156.8665  130.5131  149.5300 LP  0  0  0  0  0  0  0  0  0  0  0  0  # atno 17371 bound_to 10713
  139.9045  135.0175  156.7422 LP  0  0  0  0  0  0  0  0  0  0  0  0  # atno 17394 bound_to 11000
  140.6870  133.9424  155.7943 LP  0  0  0  0  0  0  0  0  0  0  0  0  # atno 17395 bound_to 11000

$$$$
