AV-unprocessed.smi:274|AV-procd|sdf|2058|dock9
  -GOLD-   2262021303D 1   1.00000     0.00000
 Structure written by MMmdl.
 50 53  0  0  0  0  0  0  0  0  1 V2000
  148.4275  140.6809  156.7545 C   0  0  0  0  0  0  0  0  0  0  0  0
  148.9173  139.2199  156.8129 C   0  0  0  0  0  0  0  0  0  0  0  0
  150.3753  139.2045  157.3130 C   0  0  0  0  0  0  0  0  0  0  0  0
  148.7362  138.4537  155.4633 C   0  0  2  0  0  0  0  0  0  0  0  0
  149.4496  139.1608  154.2859 C   0  0  0  0  0  0  0  0  0  0  0  0
  150.6600  139.0154  154.1279 O   0  0  0  0  0  0  0  0  0  0  0  0
  148.7236  139.9030  153.4304 N   0  0  0  0  0  0  0  0  0  0  0  0
  147.2744  140.1026  153.4698 C   0  0  0  0  0  0  0  0  0  0  0  0
  146.5943  139.4699  154.7006 C   0  0  0  0  0  0  0  0  0  0  0  0
  147.3079  138.2739  155.1534 N   0  0  0  0  0  0  0  0  0  0  0  0
  146.9487  137.0698  154.6266 C   0  0  0  0  0  0  0  0  0  0  0  0
  147.6632  135.9546  154.9378 N   0  0  0  0  0  0  0  0  0  0  0  0
  147.3175  134.7640  154.4410 C   0  0  0  0  0  0  0  0  0  0  0  0
  146.3095  134.4640  153.6213 N   0  0  0  0  0  0  0  0  0  0  0  0
  145.5932  135.5766  153.2928 C   0  0  0  0  0  0  0  0  0  0  0  0
  145.8407  136.9041  153.7458 C   0  0  0  0  0  0  0  0  0  0  0  0
  144.9064  137.7700  153.1898 N   0  0  0  0  0  0  0  0  0  0  0  0
  144.1458  136.9997  152.4618 C   0  0  0  0  0  0  0  0  0  0  0  0
  144.4904  135.6674  152.4614 N   0  0  0  0  0  0  0  0  0  0  0  0
  143.8209  134.5959  151.7402 C   0  0  0  0  0  0  0  0  0  0  0  0
  144.6574  134.0262  150.5713 C   0  0  1  0  0  0  0  0  0  0  0  0
  145.2674  135.1003  149.8758 O   0  0  0  0  0  0  0  0  0  0  0  0
  145.7449  133.0458  151.0012 C   0  0  0  0  0  0  0  0  0  0  0  0
  145.8280  132.0908  149.8191 C   0  0  0  0  0  0  0  0  0  0  0  0
  144.4687  131.9413  149.4468 O   0  0  0  0  0  0  0  0  0  0  0  0
  143.8238  133.2055  149.5668 C   0  0  0  0  0  0  0  0  0  0  0  0
  148.9256  141.2335  155.9571 H   0  0  0  0  0  0  0  0  0  0  0  0
  148.6306  141.1998  157.6916 H   0  0  0  0  0  0  0  0  0  0  0  0
  147.3527  140.7479  156.5899 H   0  0  0  0  0  0  0  0  0  0  0  0
  148.3165  138.7234  157.5756 H   0  0  0  0  0  0  0  0  0  0  0  0
  151.0381  139.7111  156.6121 H   0  0  0  0  0  0  0  0  0  0  0  0
  150.7507  138.1917  157.4585 H   0  0  0  0  0  0  0  0  0  0  0  0
  150.4639  139.7142  158.2727 H   0  0  0  0  0  0  0  0  0  0  0  0
  149.2248  137.4848  155.5686 H   0  0  0  0  0  0  0  0  0  0  0  0
  149.2172  140.3483  152.6705 H   0  0  0  0  0  0  0  0  0  0  0  0
  147.0473  141.1674  153.4143 H   0  0  0  0  0  0  0  0  0  0  0  0
  146.8691  139.6546  152.5623 H   0  0  0  0  0  0  0  0  0  0  0  0
  146.5923  140.1900  155.5182 H   0  0  0  0  0  0  0  0  0  0  0  0
  145.5406  139.2662  154.5032 H   0  0  0  0  0  0  0  0  0  0  0  0
  147.9367  133.9329  154.7445 H   0  0  0  0  0  0  0  0  0  0  0  0
  143.3106  137.3852  151.8955 H   0  0  0  0  0  0  0  0  0  0  0  0
  143.5834  133.8036  152.4513 H   0  0  0  0  0  0  0  0  0  0  0  0
  142.8650  134.9733  151.3743 H   0  0  0  0  0  0  0  0  0  0  0  0
  145.5052  134.8007  149.0115 H   0  0  0  0  0  0  0  0  0  0  0  0
  146.6975  133.5191  151.2431 H   0  0  0  0  0  0  0  0  0  0  0  0
  145.4217  132.4840  151.8781 H   0  0  0  0  0  0  0  0  0  0  0  0
  146.3914  132.5315  148.9953 H   0  0  0  0  0  0  0  0  0  0  0  0
  146.2821  131.1343  150.0792 H   0  0  0  0  0  0  0  0  0  0  0  0
  142.7996  133.0498  149.9073 H   0  0  0  0  0  0  0  0  0  0  0  0
  143.7714  133.6838  148.5874 H   0  0  0  0  0  0  0  0  0  0  0  0
  1  2  1  0  0  0  0
  1 27  1  0  0  0  0
  1 28  1  0  0  0  0
  1 29  1  0  0  0  0
  2  3  1  0  0  0  0
  2  4  1  0  0  0  0
  2 30  1  0  0  0  0
  3 31  1  0  0  0  0
  3 32  1  0  0  0  0
  3 33  1  0  0  0  0
  4 10  1  0  0  0  0
  4  5  1  0  0  0  0
  4 34  1  0  0  0  0
  5  6  2  0  0  0  0
  5  7  1  0  0  0  0
  7  8  1  0  0  0  0
  7 35  1  0  0  0  0
  8  9  1  0  0  0  0
  8 36  1  0  0  0  0
  8 37  1  0  0  0  0
  9 10  1  0  0  0  0
  9 38  1  0  0  0  0
  9 39  1  0  0  0  0
 10 11  1  0  0  0  0
 11 16  1  0  0  0  0
 11 12  2  0  0  0  0
 12 13  1  0  0  0  0
 13 14  2  0  0  0  0
 13 40  1  0  0  0  0
 14 15  1  0  0  0  0
 15 19  1  0  0  0  0
 15 16  2  0  0  0  0
 16 17  1  0  0  0  0
 17 18  2  0  0  0  0
 18 19  1  0  0  0  0
 18 41  1  0  0  0  0
 19 20  1  0  0  0  0
 20 21  1  0  0  0  0
 20 42  1  0  0  0  0
 20 43  1  0  0  0  0
 21 26  1  0  0  0  0
 21 22  1  0  0  0  0
 21 23  1  0  0  0  0
 22 44  1  0  0  0  0
 23 24  1  0  0  0  0
 23 45  1  0  0  0  0
 23 46  1  0  0  0  0
 24 25  1  0  0  0  0
 24 47  1  0  0  0  0
 24 48  1  0  0  0  0
 25 26  1  0  0  0  0
 26 49  1  0  0  0  0
 26 50  1  0  0  0  0
M  END
> <s_m_source_file>
AV-unprocessed.smi

> <i_m_source_file_index>
274

> <i_lp_mmshare_version>
43012

> <i_f3d_flags>
0

> <s_epik_input>
W0NIM11bQ0hdKFtDSDNdKVtDQEBIXTFDKD1PKVtOSF1bQ0gyXVtDSDJdTjFjKG5bY0hdbjIpYyhjMjMpbltjSF1uM1tDSDJdW0NAQF00KFtPSF0pW0NIMl1bQ0gyXU9bQ0gyXTQ=

> <s_epik_cmdline>
J2VwaWtfcHl0aG9uJywgJy1waCcsICc3LjAnLCAnLXRuJywgJzgnLCAnLW1hJywgJzIwMCcsICctbWV0YWxfYmluZGluZycsICctaW1hZScsICc8aW5maWxlLm1hZT4nLCAnLW9tYWUnLCAnPG91dGZpbGUubWFlPic=

> <r_lp_tautomer_probability>
1

> <r_epik_Ionization_Penalty>
0.000690079

> <r_epik_Ionization_Penalty_Charging>
0

> <r_epik_Ionization_Penalty_Neutral>
0.000690079

> <r_epik_State_Penalty>
0.000321372

> <r_epik_Charging_Adjusted_Penalty>
0.000321372

> <i_epik_Tot_Q>
0

> <i_epik_Tot_abs_Q>
0

> <r_epik_Metal_State_Penalty>
-0

> <b_epik_Metal_Only>
0

> <s_lp_Force_Field>
OPLS_2005

> <r_lp_Energy>
40.3696

> <b_lp_Chiralities_Consistent>
1

> <s_lp_Variant>
AV-unprocessed.smi:274-1

> <Gold.Version>
5.8.1

> <Gold.Id.Protein>
6NUR|6NUR_protein|mol2

> <Gold.PLP.Fitness>
38.7489

> <Gold.PLP.PLP>
-29.1539

> <Gold.PLP.part.hbond>
-3.2771

> <Gold.PLP.part.metal>
0.0000

> <Gold.PLP.part.buried>
-4.9978

> <Gold.PLP.part.nonpolar>
-22.1925

> <Gold.PLP.part.repulsive>
1.2777

> <Gold.PLP.ligand.clash>
0.0000

> <Gold.PLP.ligand.torsion>
0.5640

> <Gold.PLP.Chemscore.Hbond>
2.7766

> <Gold.PLP.Chemscore.CHOScore>
0.7019

> <Gold.PLP.Chemscore.Metal>
0.0000

> <Gold.Chemscore.Hbonds>
donor molecule, donor type, donor heavy atom, donor atom, acceptor molecule, acceptor atom, score
      L1  H     7    35       P1  7957  0.78
      L1  H    22    44       P1  7921  0.96
      P1  H  7989  7998       L1     6  0.63
      P1  H 10785 10796       L1    25  0.17
      L1  C    18    41       P1 10171  0.74

> <Gold.PLP.Chemscore.Internal.Correction>
0.2876

> <Gold.Rescore>
     Score         DG    S(hbond)    S(metal)    S(lipo)     H(rot)  DE(clash)    DE(int)     intcor
     14.34     -17.16       3.02        0.00      60.47       2.14       0.49       2.34       ----

> <Gold.Chemscore.Fitness>
14.3370

> <Gold.Chemscore.DG>
-17.1628

> <Gold.Chemscore.ZeroCoef>
-5.4800

> <Gold.Chemscore.Hbond>
3.0221

> <Gold.Chemscore.Metal>
0.0000

> <Gold.Chemscore.Lipo>
60.4714

> <Gold.Chemscore.Internal_Hbond>
0.0000

> <Gold.Chemscore.DEClash>
0.4858

> <Gold.Chemscore.DEInternal>
2.3400

> <Gold.Chemscore.Rot>
2.1431

> <Gold.Chemscore.Internal.Correction>
   9.000000E+99

> <Gold.Chemscore.Hbonds>
donor molecule, donor type, donor heavy atom, donor atom, acceptor molecule, acceptor atom, score
      L1  H     7    35       P1  7957  0.76
      L1  H    22    44       P1  7921  0.91
      P1  H  7989  7998       L1     6  0.53
      P1  H 10785 10796       L1    25  0.17

> <Gold.Chemscore.Hbond.Weighted>
-10.0939

> <Gold.Chemscore.Metal.Weighted>
-0.0000

> <Gold.Chemscore.Lipo.Weighted>
-7.0752

> <Gold.Chemscore.Internal_Hbond.Weighted>
0.0000

> <Gold.Chemscore.DEClash.Weighted>
0.4858

> <Gold.Chemscore.DEInternal.Weighted>
2.3400

> <Gold.Chemscore.Rot.Weighted>
5.4863

> <Gold.Chemscore.Internal.Correction.Weighted>
   9.000000E+99

> <Gold.Protein.RotatedTorsions>
[ 6907 6896 6895 6894 ] final  -22.19 input  -60.11 | X-H torsion
[ 7974 7965 7964 7962 ] final -146.45 input  175.53 | X-H torsion
[ 8008 7997 7996 7995 ] final  -36.18 input   59.86 | X-H torsion
[ 10167 10162 10161 10158 ] final  157.10 input  -65.29 | X-H torsion
[ 10718 10713 10712 10709 ] final  132.82 input   66.30 | X-H torsion
[ 10763 10752 10751 10750 ] final  110.72 input  -60.55 | X-H torsion
[ 11005 11000 10999 10996 ] final -147.38 input  -57.11 | X-H torsion

> <Gold.Protein.ActiveResidues>
 VAL166  LYS551  ARG553  GLY616  TRP617  ASP618  TYR619  PRO620  LYS621  CYS622 
 ASP623  PHE694  ASN695  SER759  ASP760  ASP761  ALA762  ILE779  LEU786  VAL792 
 PHE793  MET794  SER795  GLU796  ALA797  LYS798  CYS799  TRP800  GLU811  SER814 

> <Gold.Protein.RotatedAtoms>
  151.2222  135.0523  159.8954 H   0  0  0  0  0  0  0  0  0  0  0  0  # atno 6907 bound_to 6896
  152.5414  134.0628  159.8169 H   0  0  0  0  0  0  0  0  0  0  0  0  # atno 6908 bound_to 6896
  151.0796  133.5353  159.2653 H   0  0  0  0  0  0  0  0  0  0  0  0  # atno 6909 bound_to 6896
  144.8159  140.5454  143.5611 H   0  0  0  0  0  0  0  0  0  0  0  0  # atno 7974 bound_to 7965
  154.4079  140.1637  156.2331 H   0  0  0  0  0  0  0  0  0  0  0  0  # atno 8008 bound_to 7997
  155.9265  140.3417  155.6192 H   0  0  0  0  0  0  0  0  0  0  0  0  # atno 8009 bound_to 7997
  155.7158  140.0762  157.2342 H   0  0  0  0  0  0  0  0  0  0  0  0  # atno 8010 bound_to 7997
  139.4822  144.4949  151.8255 H   0  0  0  0  0  0  0  0  0  0  0  0  # atno 10167 bound_to 10162
  157.4833  131.1087  150.9653 H   0  0  0  0  0  0  0  0  0  0  0  0  # atno 10718 bound_to 10713
  153.4530  135.3739  155.2295 H   0  0  0  0  0  0  0  0  0  0  0  0  # atno 10763 bound_to 10752
  154.8756  135.3890  154.4015 H   0  0  0  0  0  0  0  0  0  0  0  0  # atno 10764 bound_to 10752
  153.4577  135.7086  153.6133 H   0  0  0  0  0  0  0  0  0  0  0  0  # atno 10765 bound_to 10752
  140.7723  134.3175  157.5071 H   0  0  0  0  0  0  0  0  0  0  0  0  # atno 11005 bound_to 11000
  145.5216  139.1476  143.3549 LP  0  0  0  0  0  0  0  0  0  0  0  0  # atno 17320 bound_to 7965
  146.2462  140.5357  142.8913 LP  0  0  0  0  0  0  0  0  0  0  0  0  # atno 17321 bound_to 7965
  140.4436  144.1952  150.5893 LP  0  0  0  0  0  0  0  0  0  0  0  0  # atno 17342 bound_to 10162
  140.4657  143.2431  151.9158 LP  0  0  0  0  0  0  0  0  0  0  0  0  # atno 17343 bound_to 10162
  157.0379  130.5737  149.5352 LP  0  0  0  0  0  0  0  0  0  0  0  0  # atno 17370 bound_to 10713
  156.0133  130.5226  150.8057 LP  0  0  0  0  0  0  0  0  0  0  0  0  # atno 17371 bound_to 10713
  139.8754  134.9268  156.3409 LP  0  0  0  0  0  0  0  0  0  0  0  0  # atno 17394 bound_to 11000
  140.9562  133.7418  156.0339 LP  0  0  0  0  0  0  0  0  0  0  0  0  # atno 17395 bound_to 11000

$$$$
