AV-unprocessed.smi:2131|AV-procd|sdf|8689|dock8
  -GOLD-   2272011443D 1   1.00000     0.00000
 Structure written by MMmdl.
 41 43  0  0  0  0  0  0  0  0  2 V2000
  148.3600  130.4303  153.2966 N   0  0  0  0  0  0  0  0  0  0  0  0
  149.2281  130.6687  154.0233 C   0  0  0  0  0  0  0  0  0  0  0  0
  150.3320  130.9714  154.9471 C   0  0  0  0  0  0  0  0  0  0  0  0
  150.4468  132.4554  155.2286 C   0  0  0  0  0  0  0  0  0  0  0  0
  149.7096  133.3810  154.4648 C   0  0  0  0  0  0  0  0  0  0  0  0
  149.8203  134.7601  154.7270 C   0  0  0  0  0  0  0  0  0  0  0  0
  150.6651  135.2356  155.7513 C   0  0  0  0  0  0  0  0  0  0  0  0
  150.7143  136.6005  155.9388 O   0  0  0  0  0  0  0  0  0  0  0  0
  151.5359  137.1071  156.9826 C   0  0  0  0  0  0  0  0  0  0  0  0
  151.8010  138.5996  156.7341 C   0  0  2  0  0  0  0  0  0  0  0  0
  153.1867  138.7744  156.5147 O   0  0  0  0  0  0  0  0  0  0  0  0
  151.3337  139.4857  157.9060 C   0  0  0  0  0  0  0  0  0  0  0  0
  151.0605  140.8708  157.4966 N   0  0  0  0  0  0  0  0  0  0  0  0
  150.2317  141.3393  156.5246 C   0  0  0  0  0  0  0  0  0  0  0  0
  150.3228  142.6980  156.5252 N   0  3  0  0  0  0  0  0  0  0  0  0
  151.2238  143.1046  157.5114 C   0  0  0  0  0  0  0  0  0  0  0  0
  151.6459  144.3752  157.8900 C   0  0  0  0  0  0  0  0  0  0  0  0
  152.5848  144.4434  158.9403 C   0  0  0  0  0  0  0  0  0  0  0  0
  153.0677  143.2779  159.5701 C   0  0  0  0  0  0  0  0  0  0  0  0
  152.6324  141.9948  159.1781 C   0  0  0  0  0  0  0  0  0  0  0  0
  151.7028  141.9355  158.1401 C   0  0  0  0  0  0  0  0  0  0  0  0
  151.4042  134.2977  156.5163 C   0  0  0  0  0  0  0  0  0  0  0  0
  151.2938  132.9182  156.2543 C   0  0  0  0  0  0  0  0  0  0  0  0
  150.1653  130.4248  155.8756 H   0  0  0  0  0  0  0  0  0  0  0  0
  151.2594  130.6001  154.5105 H   0  0  0  0  0  0  0  0  0  0  0  0
  149.0588  133.0355  153.6749 H   0  0  0  0  0  0  0  0  0  0  0  0
  149.2512  135.4612  154.1341 H   0  0  0  0  0  0  0  0  0  0  0  0
  151.0580  136.9678  157.9540 H   0  0  0  0  0  0  0  0  0  0  0  0
  152.4834  136.5653  156.9905 H   0  0  0  0  0  0  0  0  0  0  0  0
  151.2860  138.9048  155.8223 H   0  0  0  0  0  0  0  0  0  0  0  0
  153.4557  138.1925  155.8201 H   0  0  0  0  0  0  0  0  0  0  0  0
  150.4078  139.0901  158.3252 H   0  0  0  0  0  0  0  0  0  0  0  0
  152.0595  139.4845  158.7194 H   0  0  0  0  0  0  0  0  0  0  0  0
  149.6146  140.7408  155.8699 H   0  0  0  0  0  0  0  0  0  0  0  0
  151.2786  145.2695  157.4082 H   0  0  0  0  0  0  0  0  0  0  0  0
  152.9425  145.4085  159.2686 H   0  0  0  0  0  0  0  0  0  0  0  0
  153.7885  143.3692  160.3698 H   0  0  0  0  0  0  0  0  0  0  0  0
  153.0143  141.1091  159.6635 H   0  0  0  0  0  0  0  0  0  0  0  0
  152.0651  134.6107  157.3100 H   0  0  0  0  0  0  0  0  0  0  0  0
  151.8641  132.2148  156.8432 H   0  0  0  0  0  0  0  0  0  0  0  0
  149.8082  143.3010  155.8962 H   0  0  0  0  0  0  0  0  0  0  0  0
  1  2  3  0  0  0  0
  2  3  1  0  0  0  0
  3  4  1  0  0  0  0
  3 24  1  0  0  0  0
  3 25  1  0  0  0  0
  4 23  1  0  0  0  0
  4  5  2  0  0  0  0
  5  6  1  0  0  0  0
  5 26  1  0  0  0  0
  6  7  2  0  0  0  0
  6 27  1  0  0  0  0
  7  8  1  0  0  0  0
  7 22  1  0  0  0  0
  8  9  1  0  0  0  0
  9 10  1  0  0  0  0
  9 28  1  0  0  0  0
  9 29  1  0  0  0  0
 10 11  1  0  0  0  0
 10 12  1  0  0  0  0
 10 30  1  0  0  0  0
 11 31  1  0  0  0  0
 12 13  1  0  0  0  0
 12 32  1  0  0  0  0
 12 33  1  0  0  0  0
 13 21  1  0  0  0  0
 13 14  1  0  0  0  0
 14 15  2  0  0  0  0
 14 34  1  0  0  0  0
 15 16  1  0  0  0  0
 15 41  1  0  0  0  0
 16 21  2  0  0  0  0
 16 17  1  0  0  0  0
 17 18  2  0  0  0  0
 17 35  1  0  0  0  0
 18 19  1  0  0  0  0
 18 36  1  0  0  0  0
 19 20  2  0  0  0  0
 19 37  1  0  0  0  0
 20 21  1  0  0  0  0
 20 38  1  0  0  0  0
 22 23  2  0  0  0  0
 22 39  1  0  0  0  0
 23 40  1  0  0  0  0
M  CHG  1  15   1
M  END
> <s_m_source_file>
AV-unprocessed.smi

> <i_m_source_file_index>
2131

> <i_lp_mmshare_version>
43012

> <i_f3d_flags>
0

> <s_epik_input>
TiNDW0NIMl1jMVtjSF1bY0hdYyhbY0hdW2NIXTEpT1tDSDJdW0NASF0oW09IXSlbQ0gyXW4oW2NIXW4yKWMoYzIzKVtjSF1bY0hdW2NIXVtjSF0z

> <s_epik_cmdline>
J2VwaWtfcHl0aG9uJywgJy1waCcsICc3LjAnLCAnLXRuJywgJzgnLCAnLW1hJywgJzIwMCcsICctbWV0YWxfYmluZGluZycsICctaW1hZScsICc8aW5maWxlLm1hZT4nLCAnLW9tYWUnLCAnPG91dGZpbGUubWFlPic=

> <r_lp_tautomer_probability>
1

> <r_epik_Ionization_Penalty>
1.3774

> <r_epik_Ionization_Penalty_Charging>
1.37739

> <r_epik_Ionization_Penalty_Neutral>
2.3994e-06

> <r_epik_State_Penalty>
1.45762

> <r_epik_Charging_Adjusted_Penalty>
2.83501

> <i_epik_Tot_Q>
1

> <i_epik_Tot_abs_Q>
1

> <r_epik_Metal_State_Penalty>
5.49752

> <b_epik_Metal_Only>
0

> <s_lp_Force_Field>
OPLS_2005

> <r_lp_Energy>
20.896

> <b_lp_Chiralities_Consistent>
1

> <s_lp_Variant>
AV-unprocessed.smi:2131-3

> <Gold.Version>
5.8.1

> <Gold.Id.Protein>
6NUR|6NUR_protein|mol2

> <Gold.PLP.Fitness>
52.9712

> <Gold.PLP.PLP>
-46.2380

> <Gold.PLP.part.hbond>
-2.0000

> <Gold.PLP.part.metal>
0.0000

> <Gold.PLP.part.buried>
-6.1222

> <Gold.PLP.part.nonpolar>
-38.5285

> <Gold.PLP.part.repulsive>
0.5945

> <Gold.PLP.ligand.clash>
0.0000

> <Gold.PLP.ligand.torsion>
1.1931

> <Gold.PLP.Chemscore.Hbond>
3.0000

> <Gold.PLP.Chemscore.CHOScore>
0.0000

> <Gold.PLP.Chemscore.Metal>
0.0000

> <Gold.Chemscore.Hbonds>
donor molecule, donor type, donor heavy atom, donor atom, acceptor molecule, acceptor atom, score
      L1  H    15    41       P1  8028  1.95
      P1  H  7997  8010       L1    11  1.00

> <Gold.PLP.Chemscore.Internal.Correction>
0.1195

> <Gold.Rescore>
     Score         DG    S(hbond)    S(metal)    S(lipo)     H(rot)  DE(clash)    DE(int)     intcor
     17.40     -18.57       1.88        0.00     119.86       2.81       0.04       1.13       ----

> <Gold.Chemscore.Fitness>
17.4049

> <Gold.Chemscore.DG>
-18.5745

> <Gold.Chemscore.ZeroCoef>
-5.4800

> <Gold.Chemscore.Hbond>
1.8786

> <Gold.Chemscore.Metal>
0.0000

> <Gold.Chemscore.Lipo>
119.8622

> <Gold.Chemscore.Internal_Hbond>
0.0000

> <Gold.Chemscore.DEClash>
0.0366

> <Gold.Chemscore.DEInternal>
1.1330

> <Gold.Chemscore.Rot>
2.8140

> <Gold.Chemscore.Internal.Correction>
   9.000000E+99

> <Gold.Chemscore.Hbonds>
donor molecule, donor type, donor heavy atom, donor atom, acceptor molecule, acceptor atom, score
      L1  H    15    41       P1  8028  0.93
      P1  H  7997  8010       L1    11  0.63

> <Gold.Chemscore.Hbond.Weighted>
-6.2745

> <Gold.Chemscore.Metal.Weighted>
-0.0000

> <Gold.Chemscore.Lipo.Weighted>
-14.0239

> <Gold.Chemscore.Internal_Hbond.Weighted>
0.0000

> <Gold.Chemscore.DEClash.Weighted>
0.0366

> <Gold.Chemscore.DEInternal.Weighted>
1.1330

> <Gold.Chemscore.Rot.Weighted>
7.2039

> <Gold.Chemscore.Internal.Correction.Weighted>
   9.000000E+99

> <Gold.Protein.RotatedTorsions>
[ 6907 6896 6895 6894 ] final   97.67 input  -60.11 | X-H torsion
[ 7974 7965 7964 7962 ] final  -18.11 input  175.53 | X-H torsion
[ 8008 7997 7996 7995 ] final   58.76 input   59.86 | X-H torsion
[ 10167 10162 10161 10158 ] final -114.24 input  -65.29 | X-H torsion
[ 10718 10713 10712 10709 ] final   28.94 input   66.30 | X-H torsion
[ 10763 10752 10751 10750 ] final  -22.14 input  -60.55 | X-H torsion
[ 11005 11000 10999 10996 ] final  121.80 input  -57.11 | X-H torsion

> <Gold.Protein.ActiveResidues>
 VAL166  LYS551  ARG553  GLY616  TRP617  ASP618  TYR619  PRO620  LYS621  CYS622 
 ASP623  PHE694  ASN695  SER759  ASP760  ASP761  ALA762  ILE779  LEU786  VAL792 
 PHE793  MET794  SER795  GLU796  ALA797  LYS798  CYS799  TRP800  GLU811  SER814 

> <Gold.Protein.RotatedAtoms>
  152.5420  134.0698  159.8188 H   0  0  0  0  0  0  0  0  0  0  0  0  # atno 6907 bound_to 6896
  151.0814  133.5379  159.2627 H   0  0  0  0  0  0  0  0  0  0  0  0  # atno 6908 bound_to 6896
  151.2205  135.0525  159.9002 H   0  0  0  0  0  0  0  0  0  0  0  0  # atno 6909 bound_to 6896
  146.1908  140.3875  142.8459 H   0  0  0  0  0  0  0  0  0  0  0  0  # atno 7974 bound_to 7965
  155.5553  140.3487  155.4478 H   0  0  0  0  0  0  0  0  0  0  0  0  # atno 8008 bound_to 7997
  156.0554  140.1327  157.0028 H   0  0  0  0  0  0  0  0  0  0  0  0  # atno 8009 bound_to 7997
  154.4454  140.0996  156.6423 H   0  0  0  0  0  0  0  0  0  0  0  0  # atno 8010 bound_to 7997
  140.1031  143.4595  152.1800 H   0  0  0  0  0  0  0  0  0  0  0  0  # atno 10167 bound_to 10162
  157.2400  130.7064  149.6354 H   0  0  0  0  0  0  0  0  0  0  0  0  # atno 10718 bound_to 10713
  153.6472  135.6982  153.5221 H   0  0  0  0  0  0  0  0  0  0  0  0  # atno 10763 bound_to 10752
  153.2735  135.4207  155.1010 H   0  0  0  0  0  0  0  0  0  0  0  0  # atno 10764 bound_to 10752
  154.8485  135.3584  154.6016 H   0  0  0  0  0  0  0  0  0  0  0  0  # atno 10765 bound_to 10752
  139.9241  134.9640  156.8012 H   0  0  0  0  0  0  0  0  0  0  0  0  # atno 11005 bound_to 11000
  144.8483  140.6963  143.6184 LP  0  0  0  0  0  0  0  0  0  0  0  0  # atno 17320 bound_to 7965
  145.3798  139.1639  143.4287 LP  0  0  0  0  0  0  0  0  0  0  0  0  # atno 17321 bound_to 7965
  139.5660  144.7435  151.4021 LP  0  0  0  0  0  0  0  0  0  0  0  0  # atno 17342 bound_to 10162
  140.6967  143.7732  150.7337 LP  0  0  0  0  0  0  0  0  0  0  0  0  # atno 17343 bound_to 10162
  155.9670  130.4461  150.5528 LP  0  0  0  0  0  0  0  0  0  0  0  0  # atno 17370 bound_to 10713
  157.3389  131.0713  151.1803 LP  0  0  0  0  0  0  0  0  0  0  0  0  # atno 17371 bound_to 10713
  140.6388  133.9837  155.7697 LP  0  0  0  0  0  0  0  0  0  0  0  0  # atno 17394 bound_to 11000
  141.0785  134.0098  157.3422 LP  0  0  0  0  0  0  0  0  0  0  0  0  # atno 17395 bound_to 11000

$$$$
