AV-unprocessed.smi:2571|AV-procd|sdf|10109|dock9
  -GOLD-   2272014123D 1   1.00000     0.00000
 Structure written by MMmdl.
 38 40  0  0  0  0  0  0  0  0  1 V2000
  144.3126  143.5506  155.1866 C   0  0  0  0  0  0  0  0  0  0  0  0
  145.3625  143.0606  156.0074 O   0  0  0  0  0  0  0  0  0  0  0  0
  146.4612  142.5032  155.3899 C   0  0  0  0  0  0  0  0  0  0  0  0
  146.6086  142.3775  153.9859 C   0  0  0  0  0  0  0  0  0  0  0  0
  147.7741  141.8052  153.4416 C   0  0  0  0  0  0  0  0  0  0  0  0
  148.8058  141.3588  154.2875 C   0  0  0  0  0  0  0  0  0  0  0  0
  148.6745  141.4788  155.6873 C   0  0  0  0  0  0  0  0  0  0  0  0
  149.8028  141.0564  156.6198 C   0  0  1  0  0  0  0  0  0  0  0  0
  150.2081  139.7184  156.4097 O   0  0  0  0  0  0  0  0  0  0  0  0
  151.0411  141.9681  156.4890 C   0  0  0  0  0  0  0  0  0  0  0  0
  151.3887  142.6071  157.7503 N   0  0  0  0  0  0  0  0  0  0  0  0
  150.9796  143.8800  157.9882 N   0  0  0  0  0  0  0  0  0  0  0  0
  151.4809  144.2068  159.1775 C   0  0  0  0  0  0  0  0  0  0  0  0
  152.2396  143.1470  159.7451 C   0  0  0  0  0  0  0  0  0  0  0  0
  153.0080  142.9684  160.9731 C   0  0  0  0  0  0  0  0  0  0  0  0
  153.6147  141.8378  161.1583 N   0  0  0  0  0  0  0  0  0  0  0  0
  153.5358  140.8075  160.2147 N   0  0  0  0  0  0  0  0  0  0  0  0
  154.2854  139.6019  160.5599 C   0  0  0  0  0  0  0  0  0  0  0  0
  152.8235  140.8633  159.0497 C   0  0  0  0  0  0  0  0  0  0  0  0
  152.7440  139.9330  158.2481 O   0  0  0  0  0  0  0  0  0  0  0  0
  152.1424  142.1608  158.8193 C   0  0  0  0  0  0  0  0  0  0  0  0
  147.4978  142.0414  156.2256 C   0  0  0  0  0  0  0  0  0  0  0  0
  143.5314  143.9747  155.8172 H   0  0  0  0  0  0  0  0  0  0  0  0
  143.8620  142.7519  154.5958 H   0  0  0  0  0  0  0  0  0  0  0  0
  144.6635  144.3404  154.5208 H   0  0  0  0  0  0  0  0  0  0  0  0
  145.8428  142.7153  153.3043 H   0  0  0  0  0  0  0  0  0  0  0  0
  147.8816  141.7181  152.3704 H   0  0  0  0  0  0  0  0  0  0  0  0
  149.7041  140.9426  153.8555 H   0  0  0  0  0  0  0  0  0  0  0  0
  149.4356  141.1055  157.6460 H   0  0  0  0  0  0  0  0  0  0  0  0
  149.4455  139.2072  156.1860 H   0  0  0  0  0  0  0  0  0  0  0  0
  151.9015  141.3805  156.1639 H   0  0  0  0  0  0  0  0  0  0  0  0
  150.8893  142.7281  155.7232 H   0  0  0  0  0  0  0  0  0  0  0  0
  151.2887  145.1918  159.5763 H   0  0  0  0  0  0  0  0  0  0  0  0
  153.0688  143.7690  161.7102 H   0  0  0  0  0  0  0  0  0  0  0  0
  153.6132  138.7487  160.6629 H   0  0  0  0  0  0  0  0  0  0  0  0
  154.8269  139.7121  161.5009 H   0  0  0  0  0  0  0  0  0  0  0  0
  155.0171  139.3699  159.7845 H   0  0  0  0  0  0  0  0  0  0  0  0
  147.3977  142.1463  157.2964 H   0  0  0  0  0  0  0  0  0  0  0  0
  1  2  1  0  0  0  0
  1 23  1  0  0  0  0
  1 24  1  0  0  0  0
  1 25  1  0  0  0  0
  2  3  1  0  0  0  0
  3 22  1  0  0  0  0
  3  4  2  0  0  0  0
  4  5  1  0  0  0  0
  4 26  1  0  0  0  0
  5  6  2  0  0  0  0
  5 27  1  0  0  0  0
  6  7  1  0  0  0  0
  6 28  1  0  0  0  0
  7  8  1  0  0  0  0
  7 22  2  0  0  0  0
  8  9  1  0  0  0  0
  8 10  1  0  0  0  0
  8 29  1  0  0  0  0
  9 30  1  0  0  0  0
 10 11  1  0  0  0  0
 10 31  1  0  0  0  0
 10 32  1  0  0  0  0
 11 21  1  0  0  0  0
 11 12  1  0  0  0  0
 12 13  2  0  0  0  0
 13 14  1  0  0  0  0
 13 33  1  0  0  0  0
 14 21  2  0  0  0  0
 14 15  1  0  0  0  0
 15 16  2  0  0  0  0
 15 34  1  0  0  0  0
 16 17  1  0  0  0  0
 17 18  1  0  0  0  0
 17 19  1  0  0  0  0
 18 35  1  0  0  0  0
 18 36  1  0  0  0  0
 18 37  1  0  0  0  0
 19 20  2  0  0  0  0
 19 21  1  0  0  0  0
 22 38  1  0  0  0  0
M  END
> <s_m_source_file>
AV-unprocessed.smi

> <i_m_source_file_index>
2571

> <i_lp_mmshare_version>
43012

> <i_f3d_flags>
0

> <s_epik_input>
W0NIM11PYzFbY0hdW2NIXVtjSF1jKFtjSF0xKVtDQEhdKFtPSF0pW0NIMl1uKG5bY0hdMiljKGMyMyljKD1PKW4oW0NIM10pbltjSF0z

> <s_epik_cmdline>
J2VwaWtfcHl0aG9uJywgJy1waCcsICc3LjAnLCAnLXRuJywgJzgnLCAnLW1hJywgJzIwMCcsICctbWV0YWxfYmluZGluZycsICctaW1hZScsICc8aW5maWxlLm1hZT4nLCAnLW9tYWUnLCAnPG91dGZpbGUubWFlPic=

> <r_lp_tautomer_probability>
1

> <r_epik_Ionization_Penalty>
1.38887e-06

> <r_epik_Ionization_Penalty_Charging>
1.65421e-10

> <r_epik_Ionization_Penalty_Neutral>
1.38871e-06

> <r_epik_State_Penalty>
-0

> <r_epik_Charging_Adjusted_Penalty>
1.65421e-10

> <i_epik_Tot_Q>
0

> <i_epik_Tot_abs_Q>
0

> <r_epik_Metal_State_Penalty>
-0

> <b_epik_Metal_Only>
0

> <s_lp_Force_Field>
OPLS_2005

> <r_lp_Energy>
30.2232

> <b_lp_Chiralities_Consistent>
1

> <s_lp_Variant>
AV-unprocessed.smi:2571-2

> <Gold.Version>
5.8.1

> <Gold.Id.Protein>
6NUR|6NUR_protein|mol2

> <Gold.PLP.Fitness>
43.2692

> <Gold.PLP.PLP>
-42.6031

> <Gold.PLP.part.hbond>
-1.0000

> <Gold.PLP.part.metal>
0.0000

> <Gold.PLP.part.buried>
-6.6555

> <Gold.PLP.part.nonpolar>
-34.5168

> <Gold.PLP.part.repulsive>
0.2770

> <Gold.PLP.ligand.clash>
0.0000

> <Gold.PLP.ligand.torsion>
1.1790

> <Gold.PLP.Chemscore.Hbond>
1.0000

> <Gold.PLP.Chemscore.CHOScore>
0.0000

> <Gold.PLP.Chemscore.Metal>
0.0000

> <Gold.Chemscore.Hbonds>
donor molecule, donor type, donor heavy atom, donor atom, acceptor molecule, acceptor atom, score
      P1  H  7997  8009       L1    20  0.55

> <Gold.PLP.Chemscore.Internal.Correction>
0.0242

> <Gold.Rescore>
     Score         DG    S(hbond)    S(metal)    S(lipo)     H(rot)  DE(clash)    DE(int)     intcor
     12.80     -14.27       0.75        0.00     102.18       2.21       0.38       1.09       ----

> <Gold.Chemscore.Fitness>
12.7958

> <Gold.Chemscore.DG>
-14.2719

> <Gold.Chemscore.ZeroCoef>
-5.4800

> <Gold.Chemscore.Hbond>
0.7502

> <Gold.Chemscore.Metal>
0.0000

> <Gold.Chemscore.Lipo>
102.1831

> <Gold.Chemscore.Internal_Hbond>
0.0000

> <Gold.Chemscore.DEClash>
0.3844

> <Gold.Chemscore.DEInternal>
1.0916

> <Gold.Chemscore.Rot>
2.2146

> <Gold.Chemscore.Internal.Correction>
   9.000000E+99

> <Gold.Chemscore.Hbonds>
donor molecule, donor type, donor heavy atom, donor atom, acceptor molecule, acceptor atom, score
      P1  H  7997  8009       L1    20  0.33

> <Gold.Chemscore.Hbond.Weighted>
-2.5057

> <Gold.Chemscore.Metal.Weighted>
-0.0000

> <Gold.Chemscore.Lipo.Weighted>
-11.9554

> <Gold.Chemscore.Internal_Hbond.Weighted>
0.0000

> <Gold.Chemscore.DEClash.Weighted>
0.3844

> <Gold.Chemscore.DEInternal.Weighted>
1.0916

> <Gold.Chemscore.Rot.Weighted>
5.6693

> <Gold.Chemscore.Internal.Correction.Weighted>
   9.000000E+99

> <Gold.Protein.RotatedTorsions>
[ 6907 6896 6895 6894 ] final  -84.08 input  -60.11 | X-H torsion
[ 7974 7965 7964 7962 ] final -145.10 input  175.53 | X-H torsion
[ 8008 7997 7996 7995 ] final  164.40 input   59.86 | X-H torsion
[ 10167 10162 10161 10158 ] final  102.16 input  -65.29 | X-H torsion
[ 10718 10713 10712 10709 ] final -143.42 input   66.30 | X-H torsion
[ 10763 10752 10751 10750 ] final    2.31 input  -60.55 | X-H torsion
[ 11005 11000 10999 10996 ] final   79.96 input  -57.11 | X-H torsion

> <Gold.Protein.ActiveResidues>
 VAL166  LYS551  ARG553  GLY616  TRP617  ASP618  TYR619  PRO620  LYS621  CYS622 
 ASP623  PHE694  ASN695  SER759  ASP760  ASP761  ALA762  ILE779  LEU786  VAL792 
 PHE793  MET794  SER795  GLU796  ALA797  LYS798  CYS799  TRP800  GLU811  SER814 

> <Gold.Protein.RotatedAtoms>
  150.6879  134.3414  159.4869 H   0  0  0  0  0  0  0  0  0  0  0  0  # atno 6907 bound_to 6896
  152.1266  134.9163  160.0570 H   0  0  0  0  0  0  0  0  0  0  0  0  # atno 6908 bound_to 6896
  152.0349  133.3918  159.4349 H   0  0  0  0  0  0  0  0  0  0  0  0  # atno 6909 bound_to 6896
  144.8251  140.5627  143.5552 H   0  0  0  0  0  0  0  0  0  0  0  0  # atno 7974 bound_to 7965
  156.1883  140.1698  156.8143 H   0  0  0  0  0  0  0  0  0  0  0  0  # atno 8008 bound_to 7997
  154.5440  140.0731  156.8590 H   0  0  0  0  0  0  0  0  0  0  0  0  # atno 8009 bound_to 7997
  155.3158  140.3370  155.4245 H   0  0  0  0  0  0  0  0  0  0  0  0  # atno 8010 bound_to 7997
  139.7374  144.7020  151.0628 H   0  0  0  0  0  0  0  0  0  0  0  0  # atno 10167 bound_to 10162
  156.3577  130.7722  151.1884 H   0  0  0  0  0  0  0  0  0  0  0  0  # atno 10718 bound_to 10713
  153.2972  135.6953  153.7237 H   0  0  0  0  0  0  0  0  0  0  0  0  # atno 10763 bound_to 10752
  153.6165  135.3435  155.2997 H   0  0  0  0  0  0  0  0  0  0  0  0  # atno 10764 bound_to 10752
  154.8540  135.4376  154.2072 H   0  0  0  0  0  0  0  0  0  0  0  0  # atno 10765 bound_to 10752
  139.9153  134.7883  156.1846 H   0  0  0  0  0  0  0  0  0  0  0  0  # atno 11005 bound_to 11000
  145.5018  139.1483  143.3653 LP  0  0  0  0  0  0  0  0  0  0  0  0  # atno 17320 bound_to 7965
  146.2556  140.5158  142.8875 LP  0  0  0  0  0  0  0  0  0  0  0  0  # atno 17321 bound_to 7965
  140.7781  143.4967  150.9824 LP  0  0  0  0  0  0  0  0  0  0  0  0  # atno 17342 bound_to 10162
  139.8655  143.7259  152.3170 LP  0  0  0  0  0  0  0  0  0  0  0  0  # atno 17343 bound_to 10162
  157.7469  131.0409  150.4621 LP  0  0  0  0  0  0  0  0  0  0  0  0  # atno 17370 bound_to 10713
  156.4826  130.4077  149.6453 LP  0  0  0  0  0  0  0  0  0  0  0  0  # atno 17371 bound_to 10713
  141.0621  133.6837  156.1973 LP  0  0  0  0  0  0  0  0  0  0  0  0  # atno 17394 bound_to 11000
  140.6644  134.4934  157.5585 LP  0  0  0  0  0  0  0  0  0  0  0  0  # atno 17395 bound_to 11000

$$$$
