AV-unprocessed.smi:1976|AV-procd|sdf|7989|dock3
  -GOLD-   2272010173D 1   1.00000     0.00000
 Structure written by MMmdl.
 45 47  0  0  0  0  0  0  0  0  2 V2000
  147.3651  140.1179  156.6060 O   0  0  0  0  0  0  0  0  0  0  0  0
  147.9569  141.1522  156.2940 C   0  0  0  0  0  0  0  0  0  0  0  0
  149.3993  141.1176  155.7688 C   0  0  0  0  0  0  0  0  0  0  0  0
  150.4144  141.1047  156.8355 N   0  0  0  0  0  0  0  0  0  0  0  0
  150.7787  142.3509  157.3822 C   0  0  0  0  0  0  0  0  0  0  0  0
  151.6981  142.4831  158.3573 C   0  0  0  0  0  0  0  0  0  0  0  0
  152.0251  143.8363  158.9694 C   0  0  0  0  0  0  0  0  0  0  0  0
  152.8393  143.7053  160.0170 F   0  0  0  0  0  0  0  0  0  0  0  0
  152.6305  144.6071  158.0668 F   0  0  0  0  0  0  0  0  0  0  0  0
  150.9190  144.4621  159.3742 F   0  0  0  0  0  0  0  0  0  0  0  0
  152.2893  141.2571  158.8566 C   0  0  0  0  0  0  0  0  0  0  0  0
  151.9420  140.0559  158.3543 C   0  0  0  0  0  0  0  0  0  0  0  0
  150.9528  139.9303  157.2813 C   0  0  0  0  0  0  0  0  0  0  0  0
  150.6263  138.8386  156.8150 O   0  0  0  0  0  0  0  0  0  0  0  0
  147.4041  142.3704  156.3989 N   0  0  0  0  0  0  0  0  0  0  0  0
  146.0473  142.6437  156.8695 C   0  0  2  0  0  0  0  0  0  0  0  0
  145.2694  143.5957  155.9409 C   0  0  0  0  0  0  0  0  0  0  0  0
  144.4922  144.5135  156.8901 C   0  0  0  0  0  0  0  0  0  0  0  0
  145.3952  144.6341  158.0406 N   0  3  1  0  0  0  0  0  0  0  0  0
  144.8841  145.2547  159.2794 C   0  0  0  0  0  0  0  0  0  0  0  0
  146.0657  145.4348  160.2568 C   0  0  0  0  0  0  0  0  0  0  0  0
  146.8487  144.1205  160.4772 C   0  0  0  0  0  0  0  0  0  0  0  0
  147.2409  143.4547  159.1402 C   0  0  0  0  0  0  0  0  0  0  0  0
  145.9806  143.3016  158.2692 C   0  0  2  0  0  0  0  0  0  0  0  0
  149.5135  140.2505  155.1158 H   0  0  0  0  0  0  0  0  0  0  0  0
  149.5531  141.9821  155.1211 H   0  0  0  0  0  0  0  0  0  0  0  0
  150.2525  143.1957  156.9616 H   0  0  0  0  0  0  0  0  0  0  0  0
  153.0259  141.3017  159.6454 H   0  0  0  0  0  0  0  0  0  0  0  0
  152.4044  139.1632  158.7498 H   0  0  0  0  0  0  0  0  0  0  0  0
  147.9607  143.1657  156.1206 H   0  0  0  0  0  0  0  0  0  0  0  0
  145.4975  141.7011  156.9107 H   0  0  0  0  0  0  0  0  0  0  0  0
  145.9615  144.1967  155.3489 H   0  0  0  0  0  0  0  0  0  0  0  0
  144.6170  143.0658  155.2460 H   0  0  0  0  0  0  0  0  0  0  0  0
  144.2638  145.4829  156.4460 H   0  0  0  0  0  0  0  0  0  0  0  0
  143.5576  144.0436  157.2009 H   0  0  0  0  0  0  0  0  0  0  0  0
  144.4348  146.2216  159.0497 H   0  0  0  0  0  0  0  0  0  0  0  0
  144.1047  144.6308  159.7194 H   0  0  0  0  0  0  0  0  0  0  0  0
  146.7455  146.1894  159.8588 H   0  0  0  0  0  0  0  0  0  0  0  0
  145.7066  145.8209  161.2111 H   0  0  0  0  0  0  0  0  0  0  0  0
  147.7391  144.3100  161.0772 H   0  0  0  0  0  0  0  0  0  0  0  0
  146.2327  143.4297  161.0545 H   0  0  0  0  0  0  0  0  0  0  0  0
  147.9895  144.0586  158.6255 H   0  0  0  0  0  0  0  0  0  0  0  0
  147.6943  142.4826  159.3362 H   0  0  0  0  0  0  0  0  0  0  0  0
  145.2532  142.7203  158.8404 H   0  0  0  0  0  0  0  0  0  0  0  0
  146.1540  145.2198  157.7221 H   0  0  0  0  0  0  0  0  0  0  0  0
  1  2  2  0  0  0  0
  2  3  1  0  0  0  0
  2 15  1  0  0  0  0
  3  4  1  0  0  0  0
  3 25  1  0  0  0  0
  3 26  1  0  0  0  0
  4 13  1  0  0  0  0
  4  5  1  0  0  0  0
  5  6  2  0  0  0  0
  5 27  1  0  0  0  0
  6  7  1  0  0  0  0
  6 11  1  0  0  0  0
  7  8  1  0  0  0  0
  7  9  1  0  0  0  0
  7 10  1  0  0  0  0
 11 12  2  0  0  0  0
 11 28  1  0  0  0  0
 12 13  1  0  0  0  0
 12 29  1  0  0  0  0
 13 14  2  0  0  0  0
 15 16  1  0  0  0  0
 15 30  1  0  0  0  0
 16 24  1  0  0  0  0
 16 17  1  0  0  0  0
 16 31  1  0  0  0  0
 17 18  1  0  0  0  0
 17 32  1  0  0  0  0
 17 33  1  0  0  0  0
 18 19  1  0  0  0  0
 18 34  1  0  0  0  0
 18 35  1  0  0  0  0
 19 24  1  0  0  0  0
 19 20  1  0  0  0  0
 19 45  1  0  0  0  0
 20 21  1  0  0  0  0
 20 36  1  0  0  0  0
 20 37  1  0  0  0  0
 21 22  1  0  0  0  0
 21 38  1  0  0  0  0
 21 39  1  0  0  0  0
 22 23  1  0  0  0  0
 22 40  1  0  0  0  0
 22 41  1  0  0  0  0
 23 24  1  0  0  0  0
 23 42  1  0  0  0  0
 23 43  1  0  0  0  0
 24 44  1  0  0  0  0
M  CHG  1  19   1
M  END
> <s_m_source_file>
AV-unprocessed.smi

> <i_m_source_file_index>
1976

> <i_lp_mmshare_version>
43012

> <i_f3d_flags>
0

> <s_epik_input>
W0NIMl0xW0NIMl1bQ0gyXVtDSDJdW0NASF0oTjEyKVtDQEBIXShbQ0gyXVtDSDJdMilbTkhdQyg9TylbQ0gyXW4zW2NIXWMoQyhGKShGKUYpW2NIXVtjSF1jMz1P

> <s_epik_cmdline>
J2VwaWtfcHl0aG9uJywgJy1waCcsICc3LjAnLCAnLXRuJywgJzgnLCAnLW1hJywgJzIwMCcsICctbWV0YWxfYmluZGluZycsICctaW1hZScsICc8aW5maWxlLm1hZT4nLCAnLW9tYWUnLCAnPG91dGZpbGUubWFlPic=

> <r_lp_tautomer_probability>
1

> <r_epik_Ionization_Penalty>
0.00171506

> <r_epik_Ionization_Penalty_Charging>
0.00171498

> <r_epik_Ionization_Penalty_Neutral>
7.81737e-08

> <r_epik_State_Penalty>
0.00115937

> <r_epik_Charging_Adjusted_Penalty>
0.00287436

> <i_epik_Tot_Q>
1

> <i_epik_Tot_abs_Q>
1

> <r_epik_Metal_State_Penalty>
-0

> <b_epik_Metal_Only>
0

> <s_lp_Force_Field>
OPLS_2005

> <r_lp_Energy>
53.4145

> <b_lp_Chiralities_Consistent>
1

> <s_lp_Variant>
AV-unprocessed.smi:1976-7

> <Gold.Version>
5.8.1

> <Gold.Id.Protein>
6NUR|6NUR_protein|mol2

> <Gold.PLP.Fitness>
51.8988

> <Gold.PLP.PLP>
-41.7081

> <Gold.PLP.part.hbond>
-2.0000

> <Gold.PLP.part.metal>
0.0000

> <Gold.PLP.part.buried>
-6.3306

> <Gold.PLP.part.nonpolar>
-34.0285

> <Gold.PLP.part.repulsive>
0.0147

> <Gold.PLP.ligand.clash>
0.0000

> <Gold.PLP.ligand.torsion>
0.9222

> <Gold.PLP.Chemscore.Hbond>
3.0000

> <Gold.PLP.Chemscore.CHOScore>
1.0000

> <Gold.PLP.Chemscore.Metal>
0.0000

> <Gold.Chemscore.Hbonds>
donor molecule, donor type, donor heavy atom, donor atom, acceptor molecule, acceptor atom, score
      L1  H    15    30       P1  8028  1.00
      L1  H    19    45       P1  8029  2.00
      L1  C     5    27       P1  8028  1.00

> <Gold.PLP.Chemscore.Internal.Correction>
0.0351

> <Gold.Rescore>
     Score         DG    S(hbond)    S(metal)    S(lipo)     H(rot)  DE(clash)    DE(int)     intcor
     14.69     -15.53       1.60        0.00      74.97       1.58       0.09       0.75       ----

> <Gold.Chemscore.Fitness>
14.6936

> <Gold.Chemscore.DG>
-15.5309

> <Gold.Chemscore.ZeroCoef>
-5.4800

> <Gold.Chemscore.Hbond>
1.5963

> <Gold.Chemscore.Metal>
0.0000

> <Gold.Chemscore.Lipo>
74.9702

> <Gold.Chemscore.Internal_Hbond>
0.0000

> <Gold.Chemscore.DEClash>
0.0855

> <Gold.Chemscore.DEInternal>
0.7519

> <Gold.Chemscore.Rot>
1.5830

> <Gold.Chemscore.Internal.Correction>
   9.000000E+99

> <Gold.Chemscore.Hbonds>
donor molecule, donor type, donor heavy atom, donor atom, acceptor molecule, acceptor atom, score
      L1  H    15    30       P1  8028  0.35
      L1  H    19    45       P1  8029  0.55

> <Gold.Chemscore.Hbond.Weighted>
-5.3318

> <Gold.Chemscore.Metal.Weighted>
-0.0000

> <Gold.Chemscore.Lipo.Weighted>
-8.7715

> <Gold.Chemscore.Internal_Hbond.Weighted>
0.0000

> <Gold.Chemscore.DEClash.Weighted>
0.0855

> <Gold.Chemscore.DEInternal.Weighted>
0.7519

> <Gold.Chemscore.Rot.Weighted>
4.0524

> <Gold.Chemscore.Internal.Correction.Weighted>
   9.000000E+99

> <Gold.Protein.RotatedTorsions>
[ 6907 6896 6895 6894 ] final    0.25 input  -60.11 | X-H torsion
[ 7974 7965 7964 7962 ] final  -82.85 input  175.53 | X-H torsion
[ 8008 7997 7996 7995 ] final   49.75 input   59.86 | X-H torsion
[ 10167 10162 10161 10158 ] final   -0.20 input  -65.29 | X-H torsion
[ 10718 10713 10712 10709 ] final -101.06 input   66.30 | X-H torsion
[ 10763 10752 10751 10750 ] final -169.37 input  -60.55 | X-H torsion
[ 11005 11000 10999 10996 ] final -116.01 input  -57.11 | X-H torsion

> <Gold.Protein.ActiveResidues>
 VAL166  LYS551  ARG553  GLY616  TRP617  ASP618  TYR619  PRO620  LYS621  CYS622 
 ASP623  PHE694  ASN695  SER759  ASP760  ASP761  ALA762  ILE779  LEU786  VAL792 
 PHE793  MET794  SER795  GLU796  ALA797  LYS798  CYS799  TRP800  GLU811  SER814 

> <Gold.Protein.RotatedAtoms>
  151.5734  135.1061  160.0000 H   0  0  0  0  0  0  0  0  0  0  0  0  # atno 6907 bound_to 6896
  152.4389  133.7408  159.6650 H   0  0  0  0  0  0  0  0  0  0  0  0  # atno 6908 bound_to 6896
  150.8291  133.8051  159.3129 H   0  0  0  0  0  0  0  0  0  0  0  0  # atno 6909 bound_to 6896
  145.5278  140.9524  143.1619 H   0  0  0  0  0  0  0  0  0  0  0  0  # atno 7974 bound_to 7965
  155.4074  140.3440  155.4261 H   0  0  0  0  0  0  0  0  0  0  0  0  # atno 8008 bound_to 7997
  156.1468  140.1559  156.8865 H   0  0  0  0  0  0  0  0  0  0  0  0  # atno 8009 bound_to 7997
  154.5018  140.0813  156.7794 H   0  0  0  0  0  0  0  0  0  0  0  0  # atno 8010 bound_to 7997
  140.6757  143.6922  150.8018 H   0  0  0  0  0  0  0  0  0  0  0  0  # atno 10167 bound_to 10162
  156.0182  130.5356  150.6908 H   0  0  0  0  0  0  0  0  0  0  0  0  # atno 10718 bound_to 10713
  154.6530  135.2914  154.9963 H   0  0  0  0  0  0  0  0  0  0  0  0  # atno 10763 bound_to 10752
  154.1049  135.6571  153.4878 H   0  0  0  0  0  0  0  0  0  0  0  0  # atno 10764 bound_to 10752
  153.0387  135.5251  154.7447 H   0  0  0  0  0  0  0  0  0  0  0  0  # atno 10765 bound_to 10752
  141.0450  133.9776  157.2932 H   0  0  0  0  0  0  0  0  0  0  0  0  # atno 11005 bound_to 11000
  144.7641  139.6886  143.7222 LP  0  0  0  0  0  0  0  0  0  0  0  0  # atno 17320 bound_to 7965
  146.2064  139.5390  142.9710 LP  0  0  0  0  0  0  0  0  0  0  0  0  # atno 17321 bound_to 7965
  140.0615  143.5150  152.2625 LP  0  0  0  0  0  0  0  0  0  0  0  0  # atno 17342 bound_to 10162
  139.6048  144.7593  151.3087 LP  0  0  0  0  0  0  0  0  0  0  0  0  # atno 17343 bound_to 10162
  157.4590  131.0881  151.0766 LP  0  0  0  0  0  0  0  0  0  0  0  0  # atno 17370 bound_to 10713
  157.1259  130.6081  149.5517 LP  0  0  0  0  0  0  0  0  0  0  0  0  # atno 17371 bound_to 10713
  139.9305  135.0200  156.8384 LP  0  0  0  0  0  0  0  0  0  0  0  0  # atno 17394 bound_to 11000
  140.6163  134.0036  155.7598 LP  0  0  0  0  0  0  0  0  0  0  0  0  # atno 17395 bound_to 11000

$$$$
