AV-unprocessed.smi:528|AV-procd|sdf|2831|dock2
  -GOLD-   2262023313D 1   1.00000     0.00000
 Structure written by MMmdl.
 45 47  0  0  0  0  0  0  0  0  1 V2000
  150.8063  136.3842  155.9683 C   0  0  0  0  0  0  0  0  0  0  0  0
  150.3431  137.6095  156.7715 C   0  0  2  0  0  0  0  0  0  0  0  0
  149.0901  137.2835  157.4499 N   0  0  0  0  0  0  0  0  0  0  0  0
  148.9705  136.8027  158.6973 C   0  0  0  0  0  0  0  0  0  0  0  0
  149.9340  136.5252  159.4127 O   0  0  0  0  0  0  0  0  0  0  0  0
  147.5357  136.6037  159.2034 C   0  0  0  0  0  0  0  0  0  0  0  0
  147.4703  135.7450  160.3969 N   0  0  0  0  0  0  0  0  0  0  0  0
  147.5814  134.3574  160.1807 C   0  0  0  0  0  0  0  0  0  0  0  0
  147.5357  133.4533  161.1774 C   0  0  0  0  0  0  0  0  0  0  0  0
  147.5937  131.9590  160.9017 C   0  0  0  0  0  0  0  0  0  0  0  0
  146.4331  131.3703  161.1909 F   0  0  0  0  0  0  0  0  0  0  0  0
  147.8786  131.7178  159.6213 F   0  0  0  0  0  0  0  0  0  0  0  0
  148.5425  131.3974  161.6497 F   0  0  0  0  0  0  0  0  0  0  0  0
  147.3343  133.9774  162.5140 C   0  0  0  0  0  0  0  0  0  0  0  0
  147.2117  135.3008  162.7366 C   0  0  0  0  0  0  0  0  0  0  0  0
  147.2752  136.2726  161.6423 C   0  0  0  0  0  0  0  0  0  0  0  0
  147.1576  137.4828  161.8344 O   0  0  0  0  0  0  0  0  0  0  0  0
  150.1431  138.8546  155.8749 C   0  0  2  0  0  0  0  0  0  0  0  0
  151.4407  139.6056  155.4998 C   0  0  0  0  0  0  0  0  0  0  0  0
  151.0987  141.0727  155.8222 C   0  0  2  0  0  0  0  0  0  0  0  0
  151.1006  141.2657  157.3494 C   0  0  0  0  0  0  0  0  0  0  0  0
  149.8174  140.5349  157.7827 C   0  0  0  0  0  0  0  0  0  0  0  0
  149.2622  139.9944  156.4481 C   0  0  1  0  0  0  0  0  0  0  0  0
  149.6099  141.1377  155.5000 C   0  0  0  0  0  0  0  0  0  0  0  0
  151.7585  136.5710  155.4717 H   0  0  0  0  0  0  0  0  0  0  0  0
  150.0798  136.1125  155.2020 H   0  0  0  0  0  0  0  0  0  0  0  0
  150.9433  135.5193  156.6185 H   0  0  0  0  0  0  0  0  0  0  0  0
  151.1227  137.8279  157.5023 H   0  0  0  0  0  0  0  0  0  0  0  0
  148.2408  137.4695  156.9367 H   0  0  0  0  0  0  0  0  0  0  0  0
  147.0937  137.5751  159.4330 H   0  0  0  0  0  0  0  0  0  0  0  0
  146.9323  136.2034  158.3872 H   0  0  0  0  0  0  0  0  0  0  0  0
  147.6941  134.0743  159.1437 H   0  0  0  0  0  0  0  0  0  0  0  0
  147.2838  133.2983  163.3523 H   0  0  0  0  0  0  0  0  0  0  0  0
  147.0641  135.6560  163.7460 H   0  0  0  0  0  0  0  0  0  0  0  0
  149.6697  138.5198  154.9498 H   0  0  0  0  0  0  0  0  0  0  0  0
  152.3110  139.2636  156.0615 H   0  0  0  0  0  0  0  0  0  0  0  0
  151.6622  139.4783  154.4394 H   0  0  0  0  0  0  0  0  0  0  0  0
  151.7195  141.7941  155.2903 H   0  0  0  0  0  0  0  0  0  0  0  0
  151.9936  140.8519  157.8190 H   0  0  0  0  0  0  0  0  0  0  0  0
  151.0451  142.3236  157.6094 H   0  0  0  0  0  0  0  0  0  0  0  0
  150.0064  139.7581  158.5218 H   0  0  0  0  0  0  0  0  0  0  0  0
  149.1140  141.2394  158.2286 H   0  0  0  0  0  0  0  0  0  0  0  0
  148.2005  139.7489  156.4871 H   0  0  0  0  0  0  0  0  0  0  0  0
  149.1481  142.0873  155.7768 H   0  0  0  0  0  0  0  0  0  0  0  0
  149.3835  140.9217  154.4544 H   0  0  0  0  0  0  0  0  0  0  0  0
  1  2  1  0  0  0  0
  1 25  1  0  0  0  0
  1 26  1  0  0  0  0
  1 27  1  0  0  0  0
  2  3  1  0  0  0  0
  2 18  1  0  0  0  0
  2 28  1  0  0  0  0
  3  4  1  0  0  0  0
  3 29  1  0  0  0  0
  4  5  2  0  0  0  0
  4  6  1  0  0  0  0
  6  7  1  0  0  0  0
  6 30  1  0  0  0  0
  6 31  1  0  0  0  0
  7 16  1  0  0  0  0
  7  8  1  0  0  0  0
  8  9  2  0  0  0  0
  8 32  1  0  0  0  0
  9 10  1  0  0  0  0
  9 14  1  0  0  0  0
 10 11  1  0  0  0  0
 10 12  1  0  0  0  0
 10 13  1  0  0  0  0
 14 15  2  0  0  0  0
 14 33  1  0  0  0  0
 15 16  1  0  0  0  0
 15 34  1  0  0  0  0
 16 17  2  0  0  0  0
 18 23  1  0  0  0  0
 18 19  1  0  0  0  0
 18 35  1  0  0  0  0
 19 20  1  0  0  0  0
 19 36  1  0  0  0  0
 19 37  1  0  0  0  0
 20 24  1  0  0  0  0
 20 21  1  0  0  0  0
 20 38  1  0  0  0  0
 21 22  1  0  0  0  0
 21 39  1  0  0  0  0
 21 40  1  0  0  0  0
 22 23  1  0  0  0  0
 22 41  1  0  0  0  0
 22 42  1  0  0  0  0
 23 24  1  0  0  0  0
 23 43  1  0  0  0  0
 24 44  1  0  0  0  0
 24 45  1  0  0  0  0
M  END
> <s_m_source_file>
AV-unprocessed.smi

> <i_m_source_file_index>
528

> <i_lp_mmshare_version>
43012

> <i_f3d_flags>
0

> <s_epik_input>
W0NIMl0xW0NIMl1bQ0BASF0oW0NIMl0yKVtDQEBIXShbQ0gyXVtDQEhdMTIpW0NASF0oW0NIM10pW05IXUMoPU8pW0NIMl1uM1tjSF1jKEMoRikoRilGKVtjSF1bY0hdYzM9Tw==

> <s_epik_cmdline>
J2VwaWtfcHl0aG9uJywgJy1waCcsICc3LjAnLCAnLXRuJywgJzgnLCAnLW1hJywgJzIwMCcsICctbWV0YWxfYmluZGluZycsICctaW1hZScsICc8aW5maWxlLm1hZT4nLCAnLW9tYWUnLCAnPG91dGZpbGUubWFlPic=

> <r_lp_tautomer_probability>
1

> <r_epik_Ionization_Penalty>
4.09479e-08

> <r_epik_Ionization_Penalty_Charging>
1.9321e-08

> <r_epik_Ionization_Penalty_Neutral>
2.16269e-08

> <r_epik_State_Penalty>
-0

> <r_epik_Charging_Adjusted_Penalty>
1.9321e-08

> <i_epik_Tot_Q>
0

> <i_epik_Tot_abs_Q>
0

> <r_epik_Metal_State_Penalty>
-0

> <b_epik_Metal_Only>
0

> <s_lp_Force_Field>
OPLS_2005

> <r_lp_Energy>
62.8802

> <b_lp_Chiralities_Consistent>
1

> <s_lp_Variant>
AV-unprocessed.smi:528-1

> <Gold.Version>
5.8.1

> <Gold.Id.Protein>
6NUR|6NUR_protein|mol2

> <Gold.PLP.Fitness>
45.5864

> <Gold.PLP.PLP>
-41.8966

> <Gold.PLP.part.hbond>
-3.0000

> <Gold.PLP.part.metal>
0.0000

> <Gold.PLP.part.buried>
-3.8474

> <Gold.PLP.part.nonpolar>
-33.0272

> <Gold.PLP.part.repulsive>
0.0340

> <Gold.PLP.ligand.clash>
1.2796

> <Gold.PLP.ligand.torsion>
1.2870

> <Gold.PLP.Chemscore.Hbond>
2.4880

> <Gold.PLP.Chemscore.CHOScore>
0.0000

> <Gold.PLP.Chemscore.Metal>
0.0000

> <Gold.Chemscore.Hbonds>
donor molecule, donor type, donor heavy atom, donor atom, acceptor molecule, acceptor atom, score
      P1  H  6896  6909       L1     5  1.00
      P1  H  6931  6943       L1    17  0.70
      P1  H  6934  6947       L1    17  0.78

> <Gold.PLP.Chemscore.Internal.Correction>
0.0795

> <Gold.Rescore>
     Score         DG    S(hbond)    S(metal)    S(lipo)     H(rot)  DE(clash)    DE(int)     intcor
     18.05     -19.23       2.55        0.00      82.10       1.71       0.00       1.18       ----

> <Gold.Chemscore.Fitness>
18.0532

> <Gold.Chemscore.DG>
-19.2322

> <Gold.Chemscore.ZeroCoef>
-5.4800

> <Gold.Chemscore.Hbond>
2.5540

> <Gold.Chemscore.Metal>
0.0000

> <Gold.Chemscore.Lipo>
82.1019

> <Gold.Chemscore.Internal_Hbond>
0.0000

> <Gold.Chemscore.DEClash>
0.0000

> <Gold.Chemscore.DEInternal>
1.1790

> <Gold.Chemscore.Rot>
1.7125

> <Gold.Chemscore.Internal.Correction>
   9.000000E+99

> <Gold.Chemscore.Hbonds>
donor molecule, donor type, donor heavy atom, donor atom, acceptor molecule, acceptor atom, score
      P1  H  6896  6909       L1     5  1.00
      P1  H  6931  6943       L1    17  0.43
      P1  H  6934  6947       L1    17  0.78

> <Gold.Chemscore.Hbond.Weighted>
-8.5303

> <Gold.Chemscore.Metal.Weighted>
-0.0000

> <Gold.Chemscore.Lipo.Weighted>
-9.6059

> <Gold.Chemscore.Internal_Hbond.Weighted>
0.0000

> <Gold.Chemscore.DEClash.Weighted>
0.0000

> <Gold.Chemscore.DEInternal.Weighted>
1.1790

> <Gold.Chemscore.Rot.Weighted>
4.3840

> <Gold.Chemscore.Internal.Correction.Weighted>
   9.000000E+99

> <Gold.Protein.RotatedTorsions>
[ 6907 6896 6895 6894 ] final   92.12 input  -60.11 | X-H torsion
[ 7974 7965 7964 7962 ] final   26.42 input  175.53 | X-H torsion
[ 8008 7997 7996 7995 ] final  108.65 input   59.86 | X-H torsion
[ 10167 10162 10161 10158 ] final    3.25 input  -65.29 | X-H torsion
[ 10718 10713 10712 10709 ] final  102.03 input   66.30 | X-H torsion
[ 10763 10752 10751 10750 ] final -125.64 input  -60.55 | X-H torsion
[ 11005 11000 10999 10996 ] final -110.03 input  -57.11 | X-H torsion

> <Gold.Protein.ActiveResidues>
 VAL166  LYS551  ARG553  GLY616  TRP617  ASP618  TYR619  PRO620  LYS621  CYS622 
 ASP623  PHE694  ASN695  SER759  ASP760  ASP761  ALA762  ILE779  LEU786  VAL792 
 PHE793  MET794  SER795  GLU796  ALA797  LYS798  CYS799  TRP800  GLU811  SER814 

> <Gold.Protein.RotatedAtoms>
  152.5452  134.1551  159.8534 H   0  0  0  0  0  0  0  0  0  0  0  0  # atno 6907 bound_to 6896
  151.1575  133.4860  159.2602 H   0  0  0  0  0  0  0  0  0  0  0  0  # atno 6908 bound_to 6896
  151.1408  135.0189  159.8679 H   0  0  0  0  0  0  0  0  0  0  0  0  # atno 6909 bound_to 6896
  146.1838  139.7330  142.8881 H   0  0  0  0  0  0  0  0  0  0  0  0  # atno 7974 bound_to 7965
  156.1919  140.3072  155.9350 H   0  0  0  0  0  0  0  0  0  0  0  0  # atno 8008 bound_to 7997
  155.3153  140.0453  157.3054 H   0  0  0  0  0  0  0  0  0  0  0  0  # atno 8009 bound_to 7997
  154.5463  140.2277  155.8567 H   0  0  0  0  0  0  0  0  0  0  0  0  # atno 8010 bound_to 7997
  140.6595  143.7341  150.7713 H   0  0  0  0  0  0  0  0  0  0  0  0  # atno 10167 bound_to 10162
  157.6813  131.0742  150.5342 H   0  0  0  0  0  0  0  0  0  0  0  0  # atno 10718 bound_to 10713
  154.8738  135.4022  154.3301 H   0  0  0  0  0  0  0  0  0  0  0  0  # atno 10763 bound_to 10752
  153.4116  135.7021  153.6361 H   0  0  0  0  0  0  0  0  0  0  0  0  # atno 10764 bound_to 10752
  153.5061  135.3717  155.2534 H   0  0  0  0  0  0  0  0  0  0  0  0  # atno 10765 bound_to 10752
  141.0815  133.9212  157.2279 H   0  0  0  0  0  0  0  0  0  0  0  0  # atno 11005 bound_to 11000
  145.3999  141.0384  143.3076 LP  0  0  0  0  0  0  0  0  0  0  0  0  # atno 17320 bound_to 7965
  144.8361  139.5548  143.6921 LP  0  0  0  0  0  0  0  0  0  0  0  0  # atno 17321 bound_to 7965
  140.1007  143.4791  152.2427 LP  0  0  0  0  0  0  0  0  0  0  0  0  # atno 17342 bound_to 10162
  139.5825  144.7517  151.3603 LP  0  0  0  0  0  0  0  0  0  0  0  0  # atno 17343 bound_to 10162
  156.5651  130.4265  149.6045 LP  0  0  0  0  0  0  0  0  0  0  0  0  # atno 17370 bound_to 10713
  156.2788  130.7059  151.1877 LP  0  0  0  0  0  0  0  0  0  0  0  0  # atno 17371 bound_to 10713
  139.9629  135.0149  156.9309 LP  0  0  0  0  0  0  0  0  0  0  0  0  # atno 17394 bound_to 11000
  140.5459  134.0675  155.7355 LP  0  0  0  0  0  0  0  0  0  0  0  0  # atno 17395 bound_to 11000

$$$$
