AV-unprocessed.smi:1883|AV-procd|sdf|7642|dock4
  -GOLD-   22720 9373D 1   1.00000     0.00000
 Structure written by MMmdl.
 35 37  0  0  0  0  0  0  0  0  1 V2000
  151.7366  139.2859  155.3957 C   0  0  0  0  0  0  0  0  0  0  0  0
  151.8040  140.3261  156.4685 C   0  0  0  0  0  0  0  0  0  0  0  0
  152.5661  140.1797  157.5529 N   0  0  0  0  0  0  0  0  0  0  0  0
  152.3248  141.3466  158.2523 C   0  0  0  0  0  0  0  0  0  0  0  0
  152.8346  141.7978  159.4909 C   0  0  0  0  0  0  0  0  0  0  0  0
  152.4351  143.0444  160.0158 C   0  0  0  0  0  0  0  0  0  0  0  0
  151.5227  143.8568  159.3113 C   0  0  0  0  0  0  0  0  0  0  0  0
  151.0042  143.4271  158.0744 C   0  0  0  0  0  0  0  0  0  0  0  0
  151.4059  142.1816  157.5557 C   0  0  0  0  0  0  0  0  0  0  0  0
  151.0926  141.4784  156.3971 N   0  0  0  0  0  0  0  0  0  0  0  0
  150.1863  141.9197  155.3457 C   0  0  0  0  0  0  0  0  0  0  0  0
  149.1866  140.8240  154.9260 C   0  0  2  0  0  0  0  0  0  0  0  0
  149.5168  140.3373  153.6387 O   0  0  0  0  0  0  0  0  0  0  0  0
  147.7525  141.3292  155.0077 C   0  0  0  0  0  0  0  0  0  0  0  0
  147.2977  142.3360  154.1262 C   0  0  0  0  0  0  0  0  0  0  0  0
  145.9742  142.8099  154.2077 C   0  0  0  0  0  0  0  0  0  0  0  0
  145.5470  143.7739  153.3582 F   0  0  0  0  0  0  0  0  0  0  0  0
  145.0961  142.2832  155.1735 C   0  0  0  0  0  0  0  0  0  0  0  0
  145.5440  141.2861  156.0605 C   0  0  0  0  0  0  0  0  0  0  0  0
  146.8681  140.8113  155.9816 C   0  0  0  0  0  0  0  0  0  0  0  0
  147.2852  139.8591  156.8504 F   0  0  0  0  0  0  0  0  0  0  0  0
  152.3123  138.4048  155.6808 H   0  0  0  0  0  0  0  0  0  0  0  0
  152.1464  139.6784  154.4650 H   0  0  0  0  0  0  0  0  0  0  0  0
  150.7046  138.9790  155.2266 H   0  0  0  0  0  0  0  0  0  0  0  0
  153.5340  141.1831  160.0379 H   0  0  0  0  0  0  0  0  0  0  0  0
  152.8304  143.3790  160.9636 H   0  0  0  0  0  0  0  0  0  0  0  0
  151.2217  144.8099  159.7207 H   0  0  0  0  0  0  0  0  0  0  0  0
  150.3053  144.0461  157.5317 H   0  0  0  0  0  0  0  0  0  0  0  0
  149.6452  142.7905  155.7179 H   0  0  0  0  0  0  0  0  0  0  0  0
  150.7603  142.2662  154.4859 H   0  0  0  0  0  0  0  0  0  0  0  0
  149.2915  139.9755  155.6028 H   0  0  0  0  0  0  0  0  0  0  0  0
  148.7422  139.9568  153.2539 H   0  0  0  0  0  0  0  0  0  0  0  0
  147.9641  142.7524  153.3848 H   0  0  0  0  0  0  0  0  0  0  0  0
  144.0808  142.6464  155.2360 H   0  0  0  0  0  0  0  0  0  0  0  0
  144.8713  140.8861  156.8049 H   0  0  0  0  0  0  0  0  0  0  0  0
  1  2  1  0  0  0  0
  1 22  1  0  0  0  0
  1 23  1  0  0  0  0
  1 24  1  0  0  0  0
  2 10  1  0  0  0  0
  2  3  2  0  0  0  0
  3  4  1  0  0  0  0
  4  9  2  0  0  0  0
  4  5  1  0  0  0  0
  5  6  2  0  0  0  0
  5 25  1  0  0  0  0
  6  7  1  0  0  0  0
  6 26  1  0  0  0  0
  7  8  2  0  0  0  0
  7 27  1  0  0  0  0
  8  9  1  0  0  0  0
  8 28  1  0  0  0  0
  9 10  1  0  0  0  0
 10 11  1  0  0  0  0
 11 12  1  0  0  0  0
 11 29  1  0  0  0  0
 11 30  1  0  0  0  0
 12 13  1  0  0  0  0
 12 14  1  0  0  0  0
 12 31  1  0  0  0  0
 13 32  1  0  0  0  0
 14 20  1  0  0  0  0
 14 15  2  0  0  0  0
 15 16  1  0  0  0  0
 15 33  1  0  0  0  0
 16 17  1  0  0  0  0
 16 18  2  0  0  0  0
 18 19  1  0  0  0  0
 18 34  1  0  0  0  0
 19 20  2  0  0  0  0
 19 35  1  0  0  0  0
 20 21  1  0  0  0  0
M  END
> <s_m_source_file>
AV-unprocessed.smi

> <i_m_source_file_index>
1883

> <i_lp_mmshare_version>
43012

> <i_f3d_flags>
0

> <s_epik_input>
W2NIXTFbY0hdW2NIXVtjSF1jKGMxMiluKGMobjIpW0NIM10pW0NIMl1bQ0BIXShbT0hdKWMzW2NIXWMoRilbY0hdW2NIXWMzRg==

> <s_epik_cmdline>
J2VwaWtfcHl0aG9uJywgJy1waCcsICc3LjAnLCAnLXRuJywgJzgnLCAnLW1hJywgJzIwMCcsICctbWV0YWxfYmluZGluZycsICctaW1hZScsICc8aW5maWxlLm1hZT4nLCAnLW9tYWUnLCAnPG91dGZpbGUubWFlPic=

> <r_epik_Ionization_Penalty>
0.129664

> <r_epik_Ionization_Penalty_Charging>
0

> <r_epik_Ionization_Penalty_Neutral>
0.129664

> <r_epik_State_Penalty>
0.119073

> <r_epik_Charging_Adjusted_Penalty>
0.119073

> <i_epik_Tot_Q>
0

> <i_epik_Tot_abs_Q>
0

> <r_epik_Metal_State_Penalty>
0.000131867

> <b_epik_Metal_Only>
0

> <s_lp_Force_Field>
OPLS_2005

> <r_lp_Energy>
11.5832

> <b_lp_Chiralities_Consistent>
1

> <s_lp_Variant>
AV-unprocessed.smi:1883-1

> <Gold.Version>
5.8.1

> <Gold.Id.Protein>
6NUR|6NUR_protein|mol2

> <Gold.PLP.Fitness>
47.3521

> <Gold.PLP.PLP>
-44.9674

> <Gold.PLP.part.hbond>
-2.9561

> <Gold.PLP.part.metal>
0.0000

> <Gold.PLP.part.buried>
-4.0903

> <Gold.PLP.part.nonpolar>
-37.4451

> <Gold.PLP.part.repulsive>
0.0000

> <Gold.PLP.ligand.clash>
0.0000

> <Gold.PLP.ligand.torsion>
0.9233

> <Gold.PLP.Chemscore.Hbond>
1.4025

> <Gold.PLP.Chemscore.CHOScore>
0.0000

> <Gold.PLP.Chemscore.Metal>
0.0000

> <Gold.Chemscore.Hbonds>
donor molecule, donor type, donor heavy atom, donor atom, acceptor molecule, acceptor atom, score
      P1  H  7989  7998       L1    13  0.38
      P1  H  7997  8008       L1     3  1.00

> <Gold.PLP.Chemscore.Internal.Correction>
0.0238

> <Gold.Rescore>
     Score         DG    S(hbond)    S(metal)    S(lipo)     H(rot)  DE(clash)    DE(int)     intcor
     12.75     -15.02       0.56        0.00     106.59       1.88       0.54       1.72       ----

> <Gold.Chemscore.Fitness>
12.7472

> <Gold.Chemscore.DG>
-15.0153

> <Gold.Chemscore.ZeroCoef>
-5.4800

> <Gold.Chemscore.Hbond>
0.5649

> <Gold.Chemscore.Metal>
0.0000

> <Gold.Chemscore.Lipo>
106.5934

> <Gold.Chemscore.Internal_Hbond>
0.0000

> <Gold.Chemscore.DEClash>
0.5447

> <Gold.Chemscore.DEInternal>
1.7235

> <Gold.Chemscore.Rot>
1.8839

> <Gold.Chemscore.Internal.Correction>
   9.000000E+99

> <Gold.Chemscore.Hbonds>
donor molecule, donor type, donor heavy atom, donor atom, acceptor molecule, acceptor atom, score
      P1  H  7989  7998       L1    13  0.13
      P1  H  7997  8008       L1     3  0.34

> <Gold.Chemscore.Hbond.Weighted>
-1.8867

> <Gold.Chemscore.Metal.Weighted>
-0.0000

> <Gold.Chemscore.Lipo.Weighted>
-12.4714

> <Gold.Chemscore.Internal_Hbond.Weighted>
0.0000

> <Gold.Chemscore.DEClash.Weighted>
0.5447

> <Gold.Chemscore.DEInternal.Weighted>
1.7235

> <Gold.Chemscore.Rot.Weighted>
4.8227

> <Gold.Chemscore.Internal.Correction.Weighted>
   9.000000E+99

> <Gold.Protein.RotatedTorsions>
[ 6907 6896 6895 6894 ] final    7.16 input  -60.11 | X-H torsion
[ 7974 7965 7964 7962 ] final -173.54 input  175.53 | X-H torsion
[ 8008 7997 7996 7995 ] final  -70.82 input   59.86 | X-H torsion
[ 10167 10162 10161 10158 ] final  128.25 input  -65.29 | X-H torsion
[ 10718 10713 10712 10709 ] final -178.46 input   66.30 | X-H torsion
[ 10763 10752 10751 10750 ] final  -78.84 input  -60.55 | X-H torsion
[ 11005 11000 10999 10996 ] final   40.36 input  -57.11 | X-H torsion

> <Gold.Protein.ActiveResidues>
 VAL166  LYS551  ARG553  GLY616  TRP617  ASP618  TYR619  PRO620  LYS621  CYS622 
 ASP623  PHE694  ASN695  SER759  ASP760  ASP761  ALA762  ILE779  LEU786  VAL792 
 PHE793  MET794  SER795  GLU796  ALA797  LYS798  CYS799  TRP800  GLU811  SER814 

> <Gold.Protein.RotatedAtoms>
  151.6854  135.0955  160.0223 H   0  0  0  0  0  0  0  0  0  0  0  0  # atno 6907 bound_to 6896
  152.3810  133.6542  159.6170 H   0  0  0  0  0  0  0  0  0  0  0  0  # atno 6908 bound_to 6896
  150.7747  133.9030  159.3388 H   0  0  0  0  0  0  0  0  0  0  0  0  # atno 6909 bound_to 6896
  144.7137  140.1607  143.6376 H   0  0  0  0  0  0  0  0  0  0  0  0  # atno 7974 bound_to 7965
  154.5040  140.0827  156.7857 H   0  0  0  0  0  0  0  0  0  0  0  0  # atno 8008 bound_to 7997
  155.3936  140.3433  155.4234 H   0  0  0  0  0  0  0  0  0  0  0  0  # atno 8009 bound_to 7997
  156.1493  140.1553  156.8784 H   0  0  0  0  0  0  0  0  0  0  0  0  # atno 8010 bound_to 7997
  139.5536  144.6832  151.4248 H   0  0  0  0  0  0  0  0  0  0  0  0  # atno 10167 bound_to 10162
  156.8446  130.9698  151.3097 H   0  0  0  0  0  0  0  0  0  0  0  0  # atno 10718 bound_to 10713
  154.5310  135.5716  153.6759 H   0  0  0  0  0  0  0  0  0  0  0  0  # atno 10763 bound_to 10752
  152.9939  135.6205  154.2628 H   0  0  0  0  0  0  0  0  0  0  0  0  # atno 10764 bound_to 10752
  154.2555  135.2858  155.2779 H   0  0  0  0  0  0  0  0  0  0  0  0  # atno 10765 bound_to 10752
  140.1938  134.3954  155.8132 H   0  0  0  0  0  0  0  0  0  0  0  0  # atno 11005 bound_to 11000
  145.9033  139.2443  143.1480 LP  0  0  0  0  0  0  0  0  0  0  0  0  # atno 17320 bound_to 7965
  145.9789  140.8699  143.0124 LP  0  0  0  0  0  0  0  0  0  0  0  0  # atno 17321 bound_to 7965
  140.6805  143.8093  150.7115 LP  0  0  0  0  0  0  0  0  0  0  0  0  # atno 17342 bound_to 10162
  140.1545  143.4329  152.2109 LP  0  0  0  0  0  0  0  0  0  0  0  0  # atno 17343 bound_to 10162
  157.6337  130.8749  149.9320 LP  0  0  0  0  0  0  0  0  0  0  0  0  # atno 17370 bound_to 10713
  156.0862  130.3668  150.0484 LP  0  0  0  0  0  0  0  0  0  0  0  0  # atno 17371 bound_to 10713
  141.2227  133.7060  156.8141 LP  0  0  0  0  0  0  0  0  0  0  0  0  # atno 17394 bound_to 11000
  140.2129  134.8814  157.3294 LP  0  0  0  0  0  0  0  0  0  0  0  0  # atno 17395 bound_to 11000

$$$$
