AV-unprocessed.smi:312|AV-procd|sdf|2306|dock2
  -GOLD-   2262022203D 1   1.00000     0.00000
 Structure written by MMmdl.
 36 37  0  0  0  0  0  0  0  0  2 V2000
  149.7079  141.3901  155.5131 C   0  0  0  0  0  0  0  0  0  0  0  0
  150.8428  140.8803  156.4111 C   0  0  1  0  0  0  0  0  0  0  0  0
  151.8335  140.0016  155.6162 C   0  0  0  0  0  0  0  0  0  0  0  0
  151.2214  138.7794  155.0840 N   0  0  0  0  0  0  0  0  0  0  0  0
  151.4718  137.4874  155.4697 C   0  0  0  0  0  0  0  0  0  0  0  0
  150.6578  136.6881  154.7094 C   0  0  0  0  0  0  0  0  0  0  0  0
  149.9515  137.5245  153.8870 N   0  3  0  0  0  0  0  0  0  0  0  0
  150.2990  138.7955  154.1130 C   0  0  0  0  0  0  0  0  0  0  0  0
  151.5211  142.0281  157.0126 N   0  0  0  0  0  0  0  0  0  0  0  0
  151.7017  142.2317  158.3275 C   0  0  0  0  0  0  0  0  0  0  0  0
  151.3091  141.4467  159.1918 O   0  0  0  0  0  0  0  0  0  0  0  0
  152.4534  143.5121  158.7236 C   0  0  0  0  0  0  0  0  0  0  0  0
  152.6594  143.6094  160.2538 C   0  0  0  0  0  0  0  0  0  0  0  0
  151.9399  144.8810  160.7227 C   0  0  0  0  0  0  0  0  0  0  0  0
  150.9457  145.2153  159.6144 C   0  0  0  0  0  0  0  0  0  0  0  0
  151.6625  144.7769  158.3385 C   0  0  0  0  0  0  0  0  0  0  0  0
  149.1536  140.5606  155.0733 H   0  0  0  0  0  0  0  0  0  0  0  0
  150.0901  142.0040  154.6969 H   0  0  0  0  0  0  0  0  0  0  0  0
  148.9986  141.9938  156.0806 H   0  0  0  0  0  0  0  0  0  0  0  0
  150.3828  140.2747  157.1943 H   0  0  0  0  0  0  0  0  0  0  0  0
  152.2392  140.5565  154.7690 H   0  0  0  0  0  0  0  0  0  0  0  0
  152.6811  139.7130  156.2393 H   0  0  0  0  0  0  0  0  0  0  0  0
  152.1854  137.2399  156.2425 H   0  0  0  0  0  0  0  0  0  0  0  0
  150.5308  135.6155  154.6926 H   0  0  0  0  0  0  0  0  0  0  0  0
  149.9036  139.6641  153.6169 H   0  0  0  0  0  0  0  0  0  0  0  0
  151.8764  142.7280  156.3771 H   0  0  0  0  0  0  0  0  0  0  0  0
  153.4202  143.5264  158.2174 H   0  0  0  0  0  0  0  0  0  0  0  0
  152.2512  142.7420  160.7759 H   0  0  0  0  0  0  0  0  0  0  0  0
  153.7192  143.6522  160.5069 H   0  0  0  0  0  0  0  0  0  0  0  0
  151.4565  144.7563  161.6920 H   0  0  0  0  0  0  0  0  0  0  0  0
  152.6622  145.6931  160.8167 H   0  0  0  0  0  0  0  0  0  0  0  0
  150.0320  144.6345  159.7472 H   0  0  0  0  0  0  0  0  0  0  0  0
  150.6715  146.2706  159.6000 H   0  0  0  0  0  0  0  0  0  0  0  0
  152.3574  145.5568  158.0237 H   0  0  0  0  0  0  0  0  0  0  0  0
  150.9648  144.6206  157.5139 H   0  0  0  0  0  0  0  0  0  0  0  0
  149.2636  137.2270  153.2065 H   0  0  0  0  0  0  0  0  0  0  0  0
  1  2  1  0  0  0  0
  1 17  1  0  0  0  0
  1 18  1  0  0  0  0
  1 19  1  0  0  0  0
  2  3  1  0  0  0  0
  2  9  1  0  0  0  0
  2 20  1  0  0  0  0
  3  4  1  0  0  0  0
  3 21  1  0  0  0  0
  3 22  1  0  0  0  0
  4  8  1  0  0  0  0
  4  5  1  0  0  0  0
  5  6  2  0  0  0  0
  5 23  1  0  0  0  0
  6  7  1  0  0  0  0
  6 24  1  0  0  0  0
  7  8  2  0  0  0  0
  7 36  1  0  0  0  0
  8 25  1  0  0  0  0
  9 10  1  0  0  0  0
  9 26  1  0  0  0  0
 10 11  2  0  0  0  0
 10 12  1  0  0  0  0
 12 16  1  0  0  0  0
 12 13  1  0  0  0  0
 12 27  1  0  0  0  0
 13 14  1  0  0  0  0
 13 28  1  0  0  0  0
 13 29  1  0  0  0  0
 14 15  1  0  0  0  0
 14 30  1  0  0  0  0
 14 31  1  0  0  0  0
 15 16  1  0  0  0  0
 15 32  1  0  0  0  0
 15 33  1  0  0  0  0
 16 34  1  0  0  0  0
 16 35  1  0  0  0  0
M  CHG  1   7   1
M  END
> <s_m_source_file>
AV-unprocessed.smi

> <i_m_source_file_index>
312

> <i_lp_mmshare_version>
43012

> <i_f3d_flags>
0

> <s_epik_input>
W2NIXTFuW2NIXVtjSF1uMVtDSDJdW0NAQEhdKFtDSDNdKVtOSF1DKD1PKVtDSF0yW0NIMl1bQ0gyXVtDSDJdW0NIMl0y

> <s_epik_cmdline>
J2VwaWtfcHl0aG9uJywgJy1waCcsICc3LjAnLCAnLXRuJywgJzgnLCAnLW1hJywgJzIwMCcsICctbWV0YWxfYmluZGluZycsICctaW1hZScsICc8aW5maWxlLm1hZT4nLCAnLW9tYWUnLCAnPG91dGZpbGUubWFlPic=

> <r_lp_tautomer_probability>
1

> <r_epik_Ionization_Penalty>
0.244425

> <r_epik_Ionization_Penalty_Charging>
0

> <r_epik_Ionization_Penalty_Neutral>
0.244425

> <r_epik_State_Penalty>
0.23553

> <r_epik_Charging_Adjusted_Penalty>
0.23553

> <i_epik_Tot_Q>
1

> <i_epik_Tot_abs_Q>
1

> <r_epik_Metal_State_Penalty>
0.528799

> <b_epik_Metal_Only>
0

> <s_lp_Force_Field>
OPLS_2005

> <r_lp_Energy>
22.578

> <b_lp_Chiralities_Consistent>
1

> <s_lp_Variant>
AV-unprocessed.smi:312-2

> <Gold.Version>
5.8.1

> <Gold.Id.Protein>
6NUR|6NUR_protein|mol2

> <Gold.PLP.Fitness>
47.9174

> <Gold.PLP.PLP>
-39.1619

> <Gold.PLP.part.hbond>
-2.0000

> <Gold.PLP.part.metal>
0.0000

> <Gold.PLP.part.buried>
-1.3897

> <Gold.PLP.part.nonpolar>
-35.7052

> <Gold.PLP.part.repulsive>
0.1388

> <Gold.PLP.ligand.clash>
0.0000

> <Gold.PLP.ligand.torsion>
0.1352

> <Gold.PLP.Chemscore.Hbond>
2.0000

> <Gold.PLP.Chemscore.CHOScore>
1.0000

> <Gold.PLP.Chemscore.Metal>
0.0000

> <Gold.Chemscore.Hbonds>
donor molecule, donor type, donor heavy atom, donor atom, acceptor molecule, acceptor atom, score
      L1  H     7    36       P1  7948  1.76
      L1  C     8    25       P1  7957  0.95

> <Gold.PLP.Chemscore.Internal.Correction>
0.0259

> <Gold.Rescore>
     Score         DG    S(hbond)    S(metal)    S(lipo)     H(rot)  DE(clash)    DE(int)     intcor
     14.14     -14.82       0.92        0.00      93.54       1.82       0.40       0.28       ----

> <Gold.Chemscore.Fitness>
14.1413

> <Gold.Chemscore.DG>
-14.8224

> <Gold.Chemscore.ZeroCoef>
-5.4800

> <Gold.Chemscore.Hbond>
0.9181

> <Gold.Chemscore.Metal>
0.0000

> <Gold.Chemscore.Lipo>
93.5413

> <Gold.Chemscore.Internal_Hbond>
0.0000

> <Gold.Chemscore.DEClash>
0.4012

> <Gold.Chemscore.DEInternal>
0.2799

> <Gold.Chemscore.Rot>
1.8235

> <Gold.Chemscore.Internal.Correction>
   9.000000E+99

> <Gold.Chemscore.Hbonds>
donor molecule, donor type, donor heavy atom, donor atom, acceptor molecule, acceptor atom, score
      L1  H     7    36       P1  7948  0.84

> <Gold.Chemscore.Hbond.Weighted>
-3.0663

> <Gold.Chemscore.Metal.Weighted>
-0.0000

> <Gold.Chemscore.Lipo.Weighted>
-10.9443

> <Gold.Chemscore.Internal_Hbond.Weighted>
0.0000

> <Gold.Chemscore.DEClash.Weighted>
0.4012

> <Gold.Chemscore.DEInternal.Weighted>
0.2799

> <Gold.Chemscore.Rot.Weighted>
4.6683

> <Gold.Chemscore.Internal.Correction.Weighted>
   9.000000E+99

> <Gold.Protein.RotatedTorsions>
[ 6907 6896 6895 6894 ] final  174.59 input  -60.11 | X-H torsion
[ 7974 7965 7964 7962 ] final   13.52 input  175.53 | X-H torsion
[ 8008 7997 7996 7995 ] final   57.55 input   59.86 | X-H torsion
[ 10167 10162 10161 10158 ] final   67.21 input  -65.29 | X-H torsion
[ 10718 10713 10712 10709 ] final -143.88 input   66.30 | X-H torsion
[ 10763 10752 10751 10750 ] final  -79.42 input  -60.55 | X-H torsion
[ 11005 11000 10999 10996 ] final -146.74 input  -57.11 | X-H torsion

> <Gold.Protein.ActiveResidues>
 VAL166  LYS551  ARG553  GLY616  TRP617  ASP618  TYR619  PRO620  LYS621  CYS622 
 ASP623  PHE694  ASN695  SER759  ASP760  ASP761  ALA762  ILE779  LEU786  VAL792 
 PHE793  MET794  SER795  GLU796  ALA797  LYS798  CYS799  TRP800  GLU811  SER814 

> <Gold.Protein.RotatedAtoms>
  151.7498  133.3326  159.3388 H   0  0  0  0  0  0  0  0  0  0  0  0  # atno 6907 bound_to 6896
  150.7540  134.6203  159.6142 H   0  0  0  0  0  0  0  0  0  0  0  0  # atno 6908 bound_to 6896
  152.3476  134.7052  160.0297 H   0  0  0  0  0  0  0  0  0  0  0  0  # atno 6909 bound_to 6896
  146.2327  139.9177  142.8515 H   0  0  0  0  0  0  0  0  0  0  0  0  # atno 7974 bound_to 7965
  155.5356  140.3483  155.4436 H   0  0  0  0  0  0  0  0  0  0  0  0  # atno 8008 bound_to 7997
  156.0687  140.1358  156.9881 H   0  0  0  0  0  0  0  0  0  0  0  0  # atno 8009 bound_to 7997
  154.4517  140.0970  156.6611 H   0  0  0  0  0  0  0  0  0  0  0  0  # atno 8010 bound_to 7997
  140.0920  144.4979  150.7092 H   0  0  0  0  0  0  0  0  0  0  0  0  # atno 10167 bound_to 10162
  156.3633  130.7750  151.1920 H   0  0  0  0  0  0  0  0  0  0  0  0  # atno 10718 bound_to 10713
  154.5384  135.5696  153.6818 H   0  0  0  0  0  0  0  0  0  0  0  0  # atno 10763 bound_to 10752
  152.9957  135.6222  154.2535 H   0  0  0  0  0  0  0  0  0  0  0  0  # atno 10764 bound_to 10752
  154.2465  135.2860  155.2813 H   0  0  0  0  0  0  0  0  0  0  0  0  # atno 10765 bound_to 10752
  140.7789  134.3102  157.5052 H   0  0  0  0  0  0  0  0  0  0  0  0  # atno 11005 bound_to 11000
  145.2167  140.9918  143.4069 LP  0  0  0  0  0  0  0  0  0  0  0  0  # atno 17320 bound_to 7965
  144.9645  139.3945  143.6339 LP  0  0  0  0  0  0  0  0  0  0  0  0  # atno 17321 bound_to 7965
  140.7023  143.2443  151.4827 LP  0  0  0  0  0  0  0  0  0  0  0  0  # atno 17342 bound_to 10162
  139.5719  144.1908  152.1849 LP  0  0  0  0  0  0  0  0  0  0  0  0  # atno 17343 bound_to 10162
  157.7476  131.0393  150.4546 LP  0  0  0  0  0  0  0  0  0  0  0  0  # atno 17370 bound_to 10713
  156.4761  130.4063  149.6489 LP  0  0  0  0  0  0  0  0  0  0  0  0  # atno 17371 bound_to 10713
  139.8745  134.9306  156.3507 LP  0  0  0  0  0  0  0  0  0  0  0  0  # atno 17394 bound_to 11000
  140.9502  133.7456  156.0261 LP  0  0  0  0  0  0  0  0  0  0  0  0  # atno 17395 bound_to 11000

$$$$
