AV-unprocessed.smi:148|AV-procd|sdf|1232|dock7
  -GOLD-   2262018443D 1   1.00000     0.00000
 Structure written by MMmdl.
 63 67  0  0  0  0  0  0  0  0  1 V2000
  152.8979  139.5744  155.0337 O   0  0  0  0  0  0  0  0  0  0  0  0
  152.1931  138.4094  154.6607 C   0  0  0  0  0  0  0  0  0  0  0  0
  151.0092  138.1163  155.6177 C   0  0  2  0  0  0  0  0  0  0  0  0
  150.1620  136.9255  155.1013 C   0  0  0  0  0  0  0  0  0  0  0  0
  149.7678  135.9989  156.1482 N   0  0  0  0  0  0  0  0  0  0  0  0
  150.5917  135.1660  156.8726 C   0  0  0  0  0  0  0  0  0  0  0  0
  149.9887  134.4175  157.7562 N   0  0  0  0  0  0  0  0  0  0  0  0
  148.6480  134.7536  157.6206 C   0  0  0  0  0  0  0  0  0  0  0  0
  147.4533  134.3175  158.2498 C   0  0  0  0  0  0  0  0  0  0  0  0
  147.4595  133.3746  159.2202 N   0  0  0  0  0  0  0  0  0  0  0  0
  148.1849  132.1943  158.7493 C   0  0  0  0  0  0  0  0  0  0  0  0
  148.0391  131.0189  159.7229 C   0  0  0  0  0  0  0  0  0  0  0  0
  148.4913  131.4380  161.1240 C   0  0  0  0  0  0  0  0  0  0  0  0
  147.6880  132.6601  161.5879 C   0  0  0  0  0  0  0  0  0  0  0  0
  147.7858  133.8385  160.5826 C   0  0  2  0  0  0  0  0  0  0  0  0
  146.9374  135.0790  161.0101 C   0  0  1  0  0  0  0  0  0  0  0  0
  145.5383  134.7750  161.5847 C   0  0  0  0  0  0  0  0  0  0  0  0
  145.2435  135.8733  162.6192 C   0  0  0  0  0  0  0  0  0  0  0  0
  146.4029  136.8683  162.5249 C   0  0  0  0  0  0  0  0  0  0  0  0
  147.5793  136.0234  162.0387 C   0  0  2  0  0  0  0  0  0  0  0  0
  148.5913  136.8275  161.4685 O   0  0  0  0  0  0  0  0  0  0  0  0
  146.2815  134.8848  157.8571 N   0  0  0  0  0  0  0  0  0  0  0  0
  146.2801  135.8109  156.8933 C   0  0  0  0  0  0  0  0  0  0  0  0
  147.3145  136.3067  156.2099 N   0  0  0  0  0  0  0  0  0  0  0  0
  148.4903  135.7450  156.6134 C   0  0  0  0  0  0  0  0  0  0  0  0
  150.1100  139.3636  155.8437 C   0  0  1  0  0  0  0  0  0  0  0  0
  149.6088  140.0286  154.5715 C   0  0  0  0  0  0  0  0  0  0  0  0
  148.4447  140.8745  155.0753 C   0  0  0  0  0  0  0  0  0  0  0  0
  147.9064  140.1675  156.1857 O   0  0  0  0  0  0  0  0  0  0  0  0
  148.7731  139.0970  156.5457 C   0  0  0  0  0  0  0  0  0  0  0  0
  152.2838  140.1952  155.3952 H   0  0  0  0  0  0  0  0  0  0  0  0
  151.8440  138.5063  153.6323 H   0  0  0  0  0  0  0  0  0  0  0  0
  152.9229  137.6014  154.6689 H   0  0  0  0  0  0  0  0  0  0  0  0
  151.4251  137.8208  156.5822 H   0  0  0  0  0  0  0  0  0  0  0  0
  149.2439  137.2752  154.6302 H   0  0  0  0  0  0  0  0  0  0  0  0
  150.7125  136.3760  154.3364 H   0  0  0  0  0  0  0  0  0  0  0  0
  151.6617  135.1340  156.7271 H   0  0  0  0  0  0  0  0  0  0  0  0
  147.8139  131.8967  157.7671 H   0  0  0  0  0  0  0  0  0  0  0  0
  149.2404  132.4428  158.6278 H   0  0  0  0  0  0  0  0  0  0  0  0
  146.9996  130.6895  159.7513 H   0  0  0  0  0  0  0  0  0  0  0  0
  148.6281  130.1699  159.3753 H   0  0  0  0  0  0  0  0  0  0  0  0
  148.3599  130.6135  161.8252 H   0  0  0  0  0  0  0  0  0  0  0  0
  149.5557  131.6759  161.1147 H   0  0  0  0  0  0  0  0  0  0  0  0
  146.6500  132.3609  161.7289 H   0  0  0  0  0  0  0  0  0  0  0  0
  148.0602  132.9558  162.5673 H   0  0  0  0  0  0  0  0  0  0  0  0
  148.8312  134.1507  160.5668 H   0  0  0  0  0  0  0  0  0  0  0  0
  146.7675  135.6978  160.1275 H   0  0  0  0  0  0  0  0  0  0  0  0
  144.7920  134.7741  160.7898 H   0  0  0  0  0  0  0  0  0  0  0  0
  145.4883  133.7977  162.0624 H   0  0  0  0  0  0  0  0  0  0  0  0
  144.2806  136.3549  162.4476 H   0  0  0  0  0  0  0  0  0  0  0  0
  145.2155  135.4343  163.6175 H   0  0  0  0  0  0  0  0  0  0  0  0
  146.1606  137.6356  161.7875 H   0  0  0  0  0  0  0  0  0  0  0  0
  146.6060  137.3698  163.4717 H   0  0  0  0  0  0  0  0  0  0  0  0
  147.9857  135.4778  162.8889 H   0  0  0  0  0  0  0  0  0  0  0  0
  149.3552  136.2905  161.3226 H   0  0  0  0  0  0  0  0  0  0  0  0
  145.3116  136.2111  156.6318 H   0  0  0  0  0  0  0  0  0  0  0  0
  150.6618  140.1060  156.4228 H   0  0  0  0  0  0  0  0  0  0  0  0
  150.3650  140.6326  154.0696 H   0  0  0  0  0  0  0  0  0  0  0  0
  149.2481  139.2773  153.8670 H   0  0  0  0  0  0  0  0  0  0  0  0
  148.8021  141.8445  155.4232 H   0  0  0  0  0  0  0  0  0  0  0  0
  147.6910  141.0462  154.3065 H   0  0  0  0  0  0  0  0  0  0  0  0
  148.3285  138.1664  156.1901 H   0  0  0  0  0  0  0  0  0  0  0  0
  148.8749  139.0323  157.6293 H   0  0  0  0  0  0  0  0  0  0  0  0
  1  2  1  0  0  0  0
  1 31  1  0  0  0  0
  2  3  1  0  0  0  0
  2 32  1  0  0  0  0
  2 33  1  0  0  0  0
  3  4  1  0  0  0  0
  3 26  1  0  0  0  0
  3 34  1  0  0  0  0
  4  5  1  0  0  0  0
  4 35  1  0  0  0  0
  4 36  1  0  0  0  0
  5 25  1  0  0  0  0
  5  6  1  0  0  0  0
  6  7  2  0  0  0  0
  6 37  1  0  0  0  0
  7  8  1  0  0  0  0
  8 25  2  0  0  0  0
  8  9  1  0  0  0  0
  9 10  1  0  0  0  0
  9 22  2  0  0  0  0
 10 15  1  0  0  0  0
 10 11  1  0  0  0  0
 11 12  1  0  0  0  0
 11 38  1  0  0  0  0
 11 39  1  0  0  0  0
 12 13  1  0  0  0  0
 12 40  1  0  0  0  0
 12 41  1  0  0  0  0
 13 14  1  0  0  0  0
 13 42  1  0  0  0  0
 13 43  1  0  0  0  0
 14 15  1  0  0  0  0
 14 44  1  0  0  0  0
 14 45  1  0  0  0  0
 15 16  1  0  0  0  0
 15 46  1  0  0  0  0
 16 20  1  0  0  0  0
 16 17  1  0  0  0  0
 16 47  1  0  0  0  0
 17 18  1  0  0  0  0
 17 48  1  0  0  0  0
 17 49  1  0  0  0  0
 18 19  1  0  0  0  0
 18 50  1  0  0  0  0
 18 51  1  0  0  0  0
 19 20  1  0  0  0  0
 19 52  1  0  0  0  0
 19 53  1  0  0  0  0
 20 21  1  0  0  0  0
 20 54  1  0  0  0  0
 21 55  1  0  0  0  0
 22 23  1  0  0  0  0
 23 24  2  0  0  0  0
 23 56  1  0  0  0  0
 24 25  1  0  0  0  0
 26 30  1  0  0  0  0
 26 27  1  0  0  0  0
 26 57  1  0  0  0  0
 27 28  1  0  0  0  0
 27 58  1  0  0  0  0
 27 59  1  0  0  0  0
 28 29  1  0  0  0  0
 28 60  1  0  0  0  0
 28 61  1  0  0  0  0
 29 30  1  0  0  0  0
 30 62  1  0  0  0  0
 30 63  1  0  0  0  0
M  END
> <s_m_source_file>
AV-unprocessed.smi

> <i_m_source_file_index>
148

> <i_lp_mmshare_version>
43012

> <i_f3d_flags>
0

> <s_epik_input>
W0NIMl0xT1tDSDJdW0NIMl1bQ0BIXTFbQ0BIXShbQ0gyXVtPSF0pW0NIMl1uKFtjSF1uMiljKGMyMyluW2NIXW5jM040W0NIMl1bQ0gyXVtDSDJdW0NIMl1bQ0BIXTRbQ0BASF01W0NIMl1bQ0gyXVtDSDJdW0NASF01W09IXQ==

> <s_epik_cmdline>
J2VwaWtfcHl0aG9uJywgJy1waCcsICc3LjAnLCAnLXRuJywgJzgnLCAnLW1hJywgJzIwMCcsICctbWV0YWxfYmluZGluZycsICctaW1hZScsICc8aW5maWxlLm1hZT4nLCAnLW9tYWUnLCAnPG91dGZpbGUubWFlPic=

> <r_lp_tautomer_probability>
1

> <r_epik_Ionization_Penalty>
0.00556303

> <r_epik_Ionization_Penalty_Charging>
0

> <r_epik_Ionization_Penalty_Neutral>
0.00556303

> <r_epik_State_Penalty>
0.00401767

> <r_epik_Charging_Adjusted_Penalty>
0.00401767

> <i_epik_Tot_Q>
0

> <i_epik_Tot_abs_Q>
0

> <r_epik_Metal_State_Penalty>
-0

> <b_epik_Metal_Only>
0

> <s_lp_Force_Field>
OPLS_2005

> <r_lp_Energy>
68.3277

> <b_lp_Chiralities_Consistent>
1

> <s_lp_Variant>
AV-unprocessed.smi:148-31

> <Gold.Version>
5.8.1

> <Gold.Id.Protein>
6NUR|6NUR_protein|mol2

> <Gold.PLP.Fitness>
42.1335

> <Gold.PLP.PLP>
-36.3838

> <Gold.PLP.part.hbond>
-4.2002

> <Gold.PLP.part.metal>
0.0000

> <Gold.PLP.part.buried>
-6.5205

> <Gold.PLP.part.nonpolar>
-26.4679

> <Gold.PLP.part.repulsive>
0.0318

> <Gold.PLP.ligand.clash>
0.0000

> <Gold.PLP.ligand.torsion>
1.6432

> <Gold.PLP.Chemscore.Hbond>
2.8800

> <Gold.PLP.Chemscore.CHOScore>
0.0000

> <Gold.PLP.Chemscore.Metal>
0.0000

> <Gold.Chemscore.Hbonds>
donor molecule, donor type, donor heavy atom, donor atom, acceptor molecule, acceptor atom, score
      P1  H  6896  6909       L1     7  0.91
      P1  H  6931  6943       L1    21  1.00
      P1  H  7997  8010       L1     1  1.00

> <Gold.PLP.Chemscore.Internal.Correction>
0.3962

> <Gold.Rescore>
     Score         DG    S(hbond)    S(metal)    S(lipo)     H(rot)  DE(clash)    DE(int)     intcor
     16.03     -17.56       2.74        0.00      97.69       3.32       0.07       1.46       ----

> <Gold.Chemscore.Fitness>
16.0317

> <Gold.Chemscore.DG>
-17.5612

> <Gold.Chemscore.ZeroCoef>
-5.4800

> <Gold.Chemscore.Hbond>
2.7400

> <Gold.Chemscore.Metal>
0.0000

> <Gold.Chemscore.Lipo>
97.6892

> <Gold.Chemscore.Internal_Hbond>
0.0000

> <Gold.Chemscore.DEClash>
0.0650

> <Gold.Chemscore.DEInternal>
1.4644

> <Gold.Chemscore.Rot>
3.3203

> <Gold.Chemscore.Internal.Correction>
   9.000000E+99

> <Gold.Chemscore.Hbonds>
donor molecule, donor type, donor heavy atom, donor atom, acceptor molecule, acceptor atom, score
      P1  H  6896  6909       L1     7  0.88
      P1  H  6931  6943       L1    21  0.67
      P1  H  7997  8010       L1     1  0.26

> <Gold.Chemscore.Hbond.Weighted>
-9.1515

> <Gold.Chemscore.Metal.Weighted>
-0.0000

> <Gold.Chemscore.Lipo.Weighted>
-11.4296

> <Gold.Chemscore.Internal_Hbond.Weighted>
0.0000

> <Gold.Chemscore.DEClash.Weighted>
0.0650

> <Gold.Chemscore.DEInternal.Weighted>
1.4644

> <Gold.Chemscore.Rot.Weighted>
8.5000

> <Gold.Chemscore.Internal.Correction.Weighted>
   9.000000E+99

> <Gold.Protein.RotatedTorsions>
[ 6907 6896 6895 6894 ] final   13.21 input  -60.11 | X-H torsion
[ 7974 7965 7964 7962 ] final   79.82 input  175.53 | X-H torsion
[ 8008 7997 7996 7995 ] final  108.40 input   59.86 | X-H torsion
[ 10167 10162 10161 10158 ] final  102.79 input  -65.29 | X-H torsion
[ 10718 10713 10712 10709 ] final   20.91 input   66.30 | X-H torsion
[ 10763 10752 10751 10750 ] final -140.70 input  -60.55 | X-H torsion
[ 11005 11000 10999 10996 ] final  113.76 input  -57.11 | X-H torsion

> <Gold.Protein.ActiveResidues>
 VAL166  LYS551  ARG553  GLY616  TRP617  ASP618  TYR619  PRO620  LYS621  CYS622 
 ASP623  PHE694  ASN695  SER759  ASP760  ASP761  ALA762  ILE779  LEU786  VAL792 
 PHE793  MET794  SER795  GLU796  ALA797  LYS798  CYS799  TRP800  GLU811  SER814 

> <Gold.Protein.RotatedAtoms>
  151.7827  135.0757  160.0375 H   0  0  0  0  0  0  0  0  0  0  0  0  # atno 6907 bound_to 6896
  152.3212  133.5851  159.5754 H   0  0  0  0  0  0  0  0  0  0  0  0  # atno 6908 bound_to 6896
  150.7370  133.9925  159.3653 H   0  0  0  0  0  0  0  0  0  0  0  0  # atno 6909 bound_to 6896
  145.6593  139.2467  143.1932 H   0  0  0  0  0  0  0  0  0  0  0  0  # atno 7974 bound_to 7965
  156.1900  140.3077  155.9313 H   0  0  0  0  0  0  0  0  0  0  0  0  # atno 8008 bound_to 7997
  155.3195  140.0455  157.3055 H   0  0  0  0  0  0  0  0  0  0  0  0  # atno 8009 bound_to 7997
  154.5440  140.2270  155.8602 H   0  0  0  0  0  0  0  0  0  0  0  0  # atno 8010 bound_to 7997
  139.7319  144.7034  151.0709 H   0  0  0  0  0  0  0  0  0  0  0  0  # atno 10167 bound_to 10162
  157.1311  130.6591  149.5952 H   0  0  0  0  0  0  0  0  0  0  0  0  # atno 10718 bound_to 10713
  154.8570  135.3545  154.5750 H   0  0  0  0  0  0  0  0  0  0  0  0  # atno 10763 bound_to 10752
  153.6362  135.7000  153.5262 H   0  0  0  0  0  0  0  0  0  0  0  0  # atno 10764 bound_to 10752
  153.3009  135.4207  155.1210 H   0  0  0  0  0  0  0  0  0  0  0  0  # atno 10765 bound_to 10752
  139.8962  134.9556  156.6788 H   0  0  0  0  0  0  0  0  0  0  0  0  # atno 11005 bound_to 11000
  146.1139  140.7394  142.9490 LP  0  0  0  0  0  0  0  0  0  0  0  0  # atno 17320 bound_to 7965
  144.7095  140.3983  143.7092 LP  0  0  0  0  0  0  0  0  0  0  0  0  # atno 17321 bound_to 7965
  140.7772  143.5032  150.9744 LP  0  0  0  0  0  0  0  0  0  0  0  0  # atno 17342 bound_to 10162
  139.8721  143.7180  152.3165 LP  0  0  0  0  0  0  0  0  0  0  0  0  # atno 17343 bound_to 10162
  155.9808  130.4811  150.6791 LP  0  0  0  0  0  0  0  0  0  0  0  0  # atno 17370 bound_to 10713
  157.4392  131.0859  151.0961 LP  0  0  0  0  0  0  0  0  0  0  0  0  # atno 17371 bound_to 10713
  140.7315  133.9055  155.8215 LP  0  0  0  0  0  0  0  0  0  0  0  0  # atno 17394 bound_to 11000
  141.0149  134.0969  157.4182 LP  0  0  0  0  0  0  0  0  0  0  0  0  # atno 17395 bound_to 11000

$$$$
