AV-unprocessed.smi:1576|AV-procd|sdf|6344|dock3
  -GOLD-   22720 6563D 1   1.00000     0.00000
 Structure written by MMmdl.
 45 47  0  0  0  0  0  0  0  0  1 V2000
  153.7608  135.8762  160.2071 O   0  0  0  0  0  0  0  0  0  0  0  0
  154.7520  136.2009  160.8601 C   0  0  0  0  0  0  0  0  0  0  0  0
  155.1476  137.4623  161.1029 N   0  0  0  0  0  0  0  0  0  0  0  0
  154.5565  138.6799  160.6679 C   0  0  0  0  0  0  0  0  0  0  0  0
  154.4185  139.8360  161.4707 C   0  0  0  0  0  0  0  0  0  0  0  0
  153.7979  140.9758  160.9241 C   0  0  0  0  0  0  0  0  0  0  0  0
  153.3216  140.9348  159.5927 C   0  0  0  0  0  0  0  0  0  0  0  0
  152.6977  142.0680  159.0270 N   0  0  0  0  0  0  0  0  0  0  0  0
  152.9453  143.3327  159.7223 C   0  0  0  0  0  0  0  0  0  0  0  0
  152.5857  144.5354  158.8331 C   0  0  0  0  0  0  0  0  0  0  0  0
  151.1477  144.4232  158.3053 C   0  0  0  0  0  0  0  0  0  0  0  0
  150.9567  143.0815  157.5832 C   0  0  0  0  0  0  0  0  0  0  0  0
  151.3429  141.9036  158.4939 C   0  0  0  0  0  0  0  0  0  0  0  0
  153.4485  139.8219  158.8292 N   0  0  0  0  0  0  0  0  0  0  0  0
  154.0421  138.7317  159.3573 C   0  0  0  0  0  0  0  0  0  0  0  0
  155.5745  135.3158  161.4411 N   0  0  0  0  0  0  0  0  0  0  0  0
  155.4155  133.8653  161.3906 C   0  0  1  0  0  0  0  0  0  0  0  0
  154.3534  133.3581  162.3880 C   0  0  0  0  0  0  0  0  0  0  0  0
  153.9818  131.9166  162.0189 C   0  0  0  0  0  0  0  0  0  0  0  0
  154.1737  131.7913  160.2007 S   0  0  0  0  0  0  0  0  0  0  0  0
  155.1267  130.7137  159.8947 O   0  0  0  0  0  0  0  0  0  0  0  0
  152.8503  131.8359  159.5606 O   0  0  0  0  0  0  0  0  0  0  0  0
  154.9965  133.4145  159.9839 C   0  0  0  0  0  0  0  0  0  0  0  0
  155.9401  137.5659  161.7196 H   0  0  0  0  0  0  0  0  0  0  0  0
  154.7633  139.8726  162.4920 H   0  0  0  0  0  0  0  0  0  0  0  0
  153.7045  141.8680  161.5254 H   0  0  0  0  0  0  0  0  0  0  0  0
  152.3428  143.3515  160.6314 H   0  0  0  0  0  0  0  0  0  0  0  0
  153.9842  143.4244  160.0365 H   0  0  0  0  0  0  0  0  0  0  0  0
  152.7072  145.4626  159.3936 H   0  0  0  0  0  0  0  0  0  0  0  0
  153.2799  144.5880  157.9931 H   0  0  0  0  0  0  0  0  0  0  0  0
  150.4437  144.4990  159.1349 H   0  0  0  0  0  0  0  0  0  0  0  0
  150.9279  145.2503  157.6298 H   0  0  0  0  0  0  0  0  0  0  0  0
  149.9225  142.9757  157.2550 H   0  0  0  0  0  0  0  0  0  0  0  0
  151.5715  143.0617  156.6824 H   0  0  0  0  0  0  0  0  0  0  0  0
  151.2722  140.9762  157.9240 H   0  0  0  0  0  0  0  0  0  0  0  0
  150.6390  141.8272  159.3238 H   0  0  0  0  0  0  0  0  0  0  0  0
  154.1123  137.8724  158.7064 H   0  0  0  0  0  0  0  0  0  0  0  0
  156.3628  135.6704  161.9625 H   0  0  0  0  0  0  0  0  0  0  0  0
  156.3680  133.3866  161.6268 H   0  0  0  0  0  0  0  0  0  0  0  0
  154.6966  133.4272  163.4206 H   0  0  0  0  0  0  0  0  0  0  0  0
  153.4604  133.9795  162.3078 H   0  0  0  0  0  0  0  0  0  0  0  0
  154.6736  131.2104  162.4785 H   0  0  0  0  0  0  0  0  0  0  0  0
  152.9662  131.6497  162.3117 H   0  0  0  0  0  0  0  0  0  0  0  0
  154.2667  134.0978  159.5486 H   0  0  0  0  0  0  0  0  0  0  0  0
  155.8382  133.3204  159.2975 H   0  0  0  0  0  0  0  0  0  0  0  0
  1  2  2  0  0  0  0
  2  3  1  0  0  0  0
  2 16  1  0  0  0  0
  3  4  1  0  0  0  0
  3 24  1  0  0  0  0
  4 15  1  0  0  0  0
  4  5  2  0  0  0  0
  5  6  1  0  0  0  0
  5 25  1  0  0  0  0
  6  7  2  0  0  0  0
  6 26  1  0  0  0  0
  7  8  1  0  0  0  0
  7 14  1  0  0  0  0
  8 13  1  0  0  0  0
  8  9  1  0  0  0  0
  9 10  1  0  0  0  0
  9 27  1  0  0  0  0
  9 28  1  0  0  0  0
 10 11  1  0  0  0  0
 10 29  1  0  0  0  0
 10 30  1  0  0  0  0
 11 12  1  0  0  0  0
 11 31  1  0  0  0  0
 11 32  1  0  0  0  0
 12 13  1  0  0  0  0
 12 33  1  0  0  0  0
 12 34  1  0  0  0  0
 13 35  1  0  0  0  0
 13 36  1  0  0  0  0
 14 15  2  0  0  0  0
 15 37  1  0  0  0  0
 16 17  1  0  0  0  0
 16 38  1  0  0  0  0
 17 23  1  0  0  0  0
 17 18  1  0  0  0  0
 17 39  1  0  0  0  0
 18 19  1  0  0  0  0
 18 40  1  0  0  0  0
 18 41  1  0  0  0  0
 19 20  1  0  0  0  0
 19 42  1  0  0  0  0
 19 43  1  0  0  0  0
 20 21  2  0  0  0  0
 20 22  2  0  0  0  0
 20 23  1  0  0  0  0
 23 44  1  0  0  0  0
 23 45  1  0  0  0  0
M  END
> <s_m_source_file>
AV-unprocessed.smi

> <i_m_source_file_index>
1576

> <i_lp_mmshare_version>
43012

> <i_f3d_flags>
0

> <s_epik_input>
Tz1TMSg9TylbQ0gyXVtDSDJdW0NASF0oW0NIMl0xKVtOSF1DKD1PKVtOSF1jMltjSF1bY0hdYyhuW2NIXTIpTjNbQ0gyXVtDSDJdW0NIMl1bQ0gyXVtDSDJdMw==

> <s_epik_cmdline>
J2VwaWtfcHl0aG9uJywgJy1waCcsICc3LjAnLCAnLXRuJywgJzgnLCAnLW1hJywgJzIwMCcsICctbWV0YWxfYmluZGluZycsICctaW1hZScsICc8aW5maWxlLm1hZT4nLCAnLW9tYWUnLCAnPG91dGZpbGUubWFlPic=

> <r_lp_tautomer_probability>
1

> <r_epik_Ionization_Penalty>
0.0900267

> <r_epik_Ionization_Penalty_Charging>
0

> <r_epik_Ionization_Penalty_Neutral>
0.0900267

> <r_epik_State_Penalty>
0.0748882

> <r_epik_Charging_Adjusted_Penalty>
0.0748882

> <i_epik_Tot_Q>
0

> <i_epik_Tot_abs_Q>
0

> <r_epik_Metal_State_Penalty>
0.0662821

> <b_epik_Metal_Only>
0

> <s_lp_Force_Field>
OPLS_2005

> <r_lp_Energy>
22.1821

> <b_lp_Chiralities_Consistent>
1

> <s_lp_Variant>
AV-unprocessed.smi:1576-2

> <Gold.Version>
5.8.1

> <Gold.Id.Protein>
6NUR|6NUR_protein|mol2

> <Gold.PLP.Fitness>
42.6286

> <Gold.PLP.PLP>
-34.9024

> <Gold.PLP.part.hbond>
-3.0000

> <Gold.PLP.part.metal>
0.0000

> <Gold.PLP.part.buried>
-4.1749

> <Gold.PLP.part.nonpolar>
-28.9713

> <Gold.PLP.part.repulsive>
0.0204

> <Gold.PLP.ligand.clash>
0.0000

> <Gold.PLP.ligand.torsion>
0.8241

> <Gold.PLP.Chemscore.Hbond>
2.9840

> <Gold.PLP.Chemscore.CHOScore>
0.0000

> <Gold.PLP.Chemscore.Metal>
0.0000

> <Gold.Chemscore.Hbonds>
donor molecule, donor type, donor heavy atom, donor atom, acceptor molecule, acceptor atom, score
      P1  H  6896  6908       L1     1  1.00
      P1  H  6896  6909       L1    22  0.82
      P1  H  7997  8009       L1    14  0.71

> <Gold.PLP.Chemscore.Internal.Correction>
0.4224

> <Gold.Rescore>
     Score         DG    S(hbond)    S(metal)    S(lipo)     H(rot)  DE(clash)    DE(int)     intcor
     17.64     -21.12       2.13        0.00     100.00       1.24       0.15       3.34       ----

> <Gold.Chemscore.Fitness>
17.6372

> <Gold.Chemscore.DG>
-21.1192

> <Gold.Chemscore.ZeroCoef>
-5.4800

> <Gold.Chemscore.Hbond>
2.1272

> <Gold.Chemscore.Metal>
0.0000

> <Gold.Chemscore.Lipo>
100.0007

> <Gold.Chemscore.Internal_Hbond>
0.0000

> <Gold.Chemscore.DEClash>
0.1459

> <Gold.Chemscore.DEInternal>
3.3361

> <Gold.Chemscore.Rot>
1.2366

> <Gold.Chemscore.Internal.Correction>
   9.000000E+99

> <Gold.Chemscore.Hbonds>
donor molecule, donor type, donor heavy atom, donor atom, acceptor molecule, acceptor atom, score
      P1  H  6896  6908       L1     1  1.00
      P1  H  6896  6909       L1    22  0.80
      P1  H  7997  8009       L1    14  0.16

> <Gold.Chemscore.Hbond.Weighted>
-7.1048

> <Gold.Chemscore.Metal.Weighted>
-0.0000

> <Gold.Chemscore.Lipo.Weighted>
-11.7001

> <Gold.Chemscore.Internal_Hbond.Weighted>
0.0000

> <Gold.Chemscore.DEClash.Weighted>
0.1459

> <Gold.Chemscore.DEInternal.Weighted>
3.3361

> <Gold.Chemscore.Rot.Weighted>
3.1657

> <Gold.Chemscore.Internal.Correction.Weighted>
   9.000000E+99

> <Gold.Protein.RotatedTorsions>
[ 6907 6896 6895 6894 ] final  -77.45 input  -60.11 | X-H torsion
[ 7974 7965 7964 7962 ] final  -22.00 input  175.53 | X-H torsion
[ 8008 7997 7996 7995 ] final  155.68 input   59.86 | X-H torsion
[ 10167 10162 10161 10158 ] final   86.55 input  -65.29 | X-H torsion
[ 10718 10713 10712 10709 ] final   84.85 input   66.30 | X-H torsion
[ 10763 10752 10751 10750 ] final -144.00 input  -60.55 | X-H torsion
[ 11005 11000 10999 10996 ] final  115.42 input  -57.11 | X-H torsion

> <Gold.Protein.ActiveResidues>
 VAL166  LYS551  ARG553  GLY616  TRP617  ASP618  TYR619  PRO620  LYS621  CYS622 
 ASP623  PHE694  ASN695  SER759  ASP760  ASP761  ALA762  ILE779  LEU786  VAL792 
 PHE793  MET794  SER795  GLU796  ALA797  LYS798  CYS799  TRP800  GLU811  SER814 

> <Gold.Protein.RotatedAtoms>
  150.6998  134.4420  159.5296 H   0  0  0  0  0  0  0  0  0  0  0  0  # atno 6907 bound_to 6896
  152.2128  134.8483  160.0504 H   0  0  0  0  0  0  0  0  0  0  0  0  # atno 6908 bound_to 6896
  151.9362  133.3590  159.3985 H   0  0  0  0  0  0  0  0  0  0  0  0  # atno 6909 bound_to 6896
  146.1701  140.4418  142.8536 H   0  0  0  0  0  0  0  0  0  0  0  0  # atno 7974 bound_to 7965
  156.2465  140.1933  156.6838 H   0  0  0  0  0  0  0  0  0  0  0  0  # atno 8008 bound_to 7997
  154.6302  140.0597  156.9749 H   0  0  0  0  0  0  0  0  0  0  0  0  # atno 8009 bound_to 7997
  155.1723  140.3269  155.4393 H   0  0  0  0  0  0  0  0  0  0  0  0  # atno 8010 bound_to 7997
  139.8863  144.6411  150.8787 H   0  0  0  0  0  0  0  0  0  0  0  0  # atno 10167 bound_to 10162
  157.6905  131.0150  150.2734 H   0  0  0  0  0  0  0  0  0  0  0  0  # atno 10718 bound_to 10713
  154.8446  135.3452  154.6277 H   0  0  0  0  0  0  0  0  0  0  0  0  # atno 10763 bound_to 10752
  153.6886  135.6976  153.5101 H   0  0  0  0  0  0  0  0  0  0  0  0  # atno 10764 bound_to 10752
  153.2612  135.4322  155.0851 H   0  0  0  0  0  0  0  0  0  0  0  0  # atno 10765 bound_to 10752
  139.9009  134.9583  156.7042 H   0  0  0  0  0  0  0  0  0  0  0  0  # atno 11005 bound_to 11000
  144.8150  140.6452  143.6390 LP  0  0  0  0  0  0  0  0  0  0  0  0  # atno 17320 bound_to 7965
  145.4363  139.1542  143.3995 LP  0  0  0  0  0  0  0  0  0  0  0  0  # atno 17321 bound_to 7965
  140.7735  143.3545  151.1948 LP  0  0  0  0  0  0  0  0  0  0  0  0  # atno 17342 bound_to 10162
  139.7150  143.9316  152.2963 LP  0  0  0  0  0  0  0  0  0  0  0  0  # atno 17343 bound_to 10162
  156.3293  130.3798  149.7505 LP  0  0  0  0  0  0  0  0  0  0  0  0  # atno 17370 bound_to 10713
  156.5050  130.8146  151.3147 LP  0  0  0  0  0  0  0  0  0  0  0  0  # atno 17371 bound_to 10713
  140.7127  133.9209  155.8095 LP  0  0  0  0  0  0  0  0  0  0  0  0  # atno 17394 bound_to 11000
  141.0288  134.0785  157.4038 LP  0  0  0  0  0  0  0  0  0  0  0  0  # atno 17395 bound_to 11000

$$$$
