AV-unprocessed.smi:1844|AV-procd|sdf|7510|dock1
  -GOLD-   22720 9213D 1   1.00000     0.00000
 Structure written by MMmdl.
 45 46  0  0  0  0  0  0  0  0  1 V2000
  146.1425  132.4013  150.1466 C   0  0  0  0  0  0  0  0  0  0  0  0
  147.1368  132.4853  151.2056 N   0  0  0  0  0  0  0  0  0  0  0  0
  147.0749  133.3377  152.2420 C   0  0  0  0  0  0  0  0  0  0  0  0
  146.1420  134.1326  152.3706 O   0  0  0  0  0  0  0  0  0  0  0  0
  148.2001  133.2209  153.1731 C   0  0  0  0  0  0  0  0  0  0  0  0
  149.0220  132.0246  153.2828 C   0  0  0  0  0  0  0  0  0  0  0  0
  150.0491  131.9760  154.1536 C   0  0  0  0  0  0  0  0  0  0  0  0
  150.3801  133.1099  155.0214 C   0  0  0  0  0  0  0  0  0  0  0  0
  151.3190  133.0715  155.8174 O   0  0  0  0  0  0  0  0  0  0  0  0
  149.5800  134.2112  154.8912 N   0  0  0  0  0  0  0  0  0  0  0  0
  149.8139  135.4127  155.7101 C   0  0  0  0  0  0  0  0  0  0  0  0
  150.4679  136.5639  154.9329 C   0  0  0  0  0  0  0  0  0  0  0  0
  151.6060  136.4518  154.4755 O   0  0  0  0  0  0  0  0  0  0  0  0
  149.7125  137.6622  154.7772 N   0  0  0  0  0  0  0  0  0  0  0  0
  150.1012  138.8900  154.0798 C   0  0  2  0  0  0  0  0  0  0  0  0
  151.5472  139.2696  154.4579 C   0  0  0  0  0  0  0  0  0  0  0  0
  151.6608  139.7541  155.9139 C   0  0  0  0  0  0  0  0  0  0  0  0
  150.6938  140.9146  156.1910 C   0  0  0  0  0  0  0  0  0  0  0  0
  149.2466  140.5331  155.8403 C   0  0  0  0  0  0  0  0  0  0  0  0
  149.1236  140.0558  154.3781 C   0  0  2  0  0  0  0  0  0  0  0  0
  147.6658  139.7303  154.0104 C   0  0  0  0  0  0  0  0  0  0  0  0
  148.5101  134.2581  153.9756 C   0  0  0  0  0  0  0  0  0  0  0  0
  146.4192  131.6200  149.4389 H   0  0  0  0  0  0  0  0  0  0  0  0
  146.0737  133.3444  149.6033 H   0  0  0  0  0  0  0  0  0  0  0  0
  145.1597  132.1606  150.5536 H   0  0  0  0  0  0  0  0  0  0  0  0
  147.9246  131.8564  151.1499 H   0  0  0  0  0  0  0  0  0  0  0  0
  148.8316  131.1538  152.6730 H   0  0  0  0  0  0  0  0  0  0  0  0
  150.6457  131.0778  154.2161 H   0  0  0  0  0  0  0  0  0  0  0  0
  148.8763  135.7783  156.1309 H   0  0  0  0  0  0  0  0  0  0  0  0
  150.4334  135.1623  156.5734 H   0  0  0  0  0  0  0  0  0  0  0  0
  148.7866  137.6523  155.1801 H   0  0  0  0  0  0  0  0  0  0  0  0
  150.0895  138.7103  153.0034 H   0  0  0  0  0  0  0  0  0  0  0  0
  152.2155  138.4235  154.2924 H   0  0  0  0  0  0  0  0  0  0  0  0
  151.8936  140.0617  153.7928 H   0  0  0  0  0  0  0  0  0  0  0  0
  151.4488  138.9302  156.5963 H   0  0  0  0  0  0  0  0  0  0  0  0
  152.6846  140.0670  156.1208 H   0  0  0  0  0  0  0  0  0  0  0  0
  150.7572  141.2091  157.2388 H   0  0  0  0  0  0  0  0  0  0  0  0
  150.9931  141.7857  155.6070 H   0  0  0  0  0  0  0  0  0  0  0  0
  148.9000  139.7520  156.5180 H   0  0  0  0  0  0  0  0  0  0  0  0
  148.5962  141.3926  156.0071 H   0  0  0  0  0  0  0  0  0  0  0  0
  149.4242  140.8906  153.7432 H   0  0  0  0  0  0  0  0  0  0  0  0
  147.2540  138.9456  154.6455 H   0  0  0  0  0  0  0  0  0  0  0  0
  147.5882  139.3966  152.9753 H   0  0  0  0  0  0  0  0  0  0  0  0
  147.0301  140.6090  154.1216 H   0  0  0  0  0  0  0  0  0  0  0  0
  147.9699  135.1946  153.9704 H   0  0  0  0  0  0  0  0  0  0  0  0
  1  2  1  0  0  0  0
  1 23  1  0  0  0  0
  1 24  1  0  0  0  0
  1 25  1  0  0  0  0
  2  3  1  0  0  0  0
  2 26  1  0  0  0  0
  3  4  2  0  0  0  0
  3  5  1  0  0  0  0
  5 22  2  0  0  0  0
  5  6  1  0  0  0  0
  6  7  2  0  0  0  0
  6 27  1  0  0  0  0
  7  8  1  0  0  0  0
  7 28  1  0  0  0  0
  8  9  2  0  0  0  0
  8 10  1  0  0  0  0
 10 11  1  0  0  0  0
 10 22  1  0  0  0  0
 11 12  1  0  0  0  0
 11 29  1  0  0  0  0
 11 30  1  0  0  0  0
 12 13  2  0  0  0  0
 12 14  1  0  0  0  0
 14 15  1  0  0  0  0
 14 31  1  0  0  0  0
 15 20  1  0  0  0  0
 15 16  1  0  0  0  0
 15 32  1  0  0  0  0
 16 17  1  0  0  0  0
 16 33  1  0  0  0  0
 16 34  1  0  0  0  0
 17 18  1  0  0  0  0
 17 35  1  0  0  0  0
 17 36  1  0  0  0  0
 18 19  1  0  0  0  0
 18 37  1  0  0  0  0
 18 38  1  0  0  0  0
 19 20  1  0  0  0  0
 19 39  1  0  0  0  0
 19 40  1  0  0  0  0
 20 21  1  0  0  0  0
 20 41  1  0  0  0  0
 21 42  1  0  0  0  0
 21 43  1  0  0  0  0
 21 44  1  0  0  0  0
 22 45  1  0  0  0  0
M  END
> <s_m_source_file>
AV-unprocessed.smi

> <i_m_source_file_index>
1844

> <i_lp_mmshare_version>
43012

> <i_f3d_flags>
0

> <s_epik_input>
W0NIM11bTkhdQyg9TyljMVtjSF1bY0hdYyg9TyluKFtjSF0xKVtDSDJdQyg9TylbTkhdW0NAQEhdMltDSDJdW0NIMl1bQ0gyXVtDSDJdW0NASF0yW0NIM10=

> <s_epik_cmdline>
J2VwaWtfcHl0aG9uJywgJy1waCcsICc3LjAnLCAnLXRuJywgJzgnLCAnLW1hJywgJzIwMCcsICctbWV0YWxfYmluZGluZycsICctaW1hZScsICc8aW5maWxlLm1hZT4nLCAnLW9tYWUnLCAnPG91dGZpbGUubWFlPic=

> <r_lp_tautomer_probability>
1

> <r_epik_Ionization_Penalty>
3.66612e-07

> <r_epik_Ionization_Penalty_Charging>
5.18929e-08

> <r_epik_Ionization_Penalty_Neutral>
3.14719e-07

> <r_epik_State_Penalty>
-0

> <r_epik_Charging_Adjusted_Penalty>
5.18929e-08

> <i_epik_Tot_Q>
0

> <i_epik_Tot_abs_Q>
0

> <r_epik_Metal_State_Penalty>
-0

> <b_epik_Metal_Only>
0

> <s_lp_Force_Field>
OPLS_2005

> <r_lp_Energy>
22.5965

> <b_lp_Chiralities_Consistent>
1

> <s_lp_Variant>
AV-unprocessed.smi:1844-3

> <Gold.Version>
5.8.1

> <Gold.Id.Protein>
6NUR|6NUR_protein|mol2

> <Gold.PLP.Fitness>
45.2034

> <Gold.PLP.PLP>
-39.3764

> <Gold.PLP.part.hbond>
-1.9138

> <Gold.PLP.part.metal>
0.0000

> <Gold.PLP.part.buried>
-1.7733

> <Gold.PLP.part.nonpolar>
-35.8416

> <Gold.PLP.part.repulsive>
0.3103

> <Gold.PLP.ligand.clash>
0.0000

> <Gold.PLP.ligand.torsion>
0.6157

> <Gold.PLP.Chemscore.Hbond>
1.9120

> <Gold.PLP.Chemscore.CHOScore>
0.4075

> <Gold.PLP.Chemscore.Metal>
0.0000

> <Gold.Chemscore.Hbonds>
donor molecule, donor type, donor heavy atom, donor atom, acceptor molecule, acceptor atom, score
      L1  H     2    26       P1 10747  1.00
      P1  H 10752 10763       L1    13  1.00
      L1  C    22    45       P1  7948  0.37

> <Gold.PLP.Chemscore.Internal.Correction>
0.0999

> <Gold.Rescore>
     Score         DG    S(hbond)    S(metal)    S(lipo)     H(rot)  DE(clash)    DE(int)     intcor
     15.70     -17.61       1.98        0.00      79.84       1.49       0.07       1.83       ----

> <Gold.Chemscore.Fitness>
15.7007

> <Gold.Chemscore.DG>
-17.6051

> <Gold.Chemscore.ZeroCoef>
-5.4800

> <Gold.Chemscore.Hbond>
1.9772

> <Gold.Chemscore.Metal>
0.0000

> <Gold.Chemscore.Lipo>
79.8420

> <Gold.Chemscore.Internal_Hbond>
0.0000

> <Gold.Chemscore.DEClash>
0.0697

> <Gold.Chemscore.DEInternal>
1.8348

> <Gold.Chemscore.Rot>
1.4923

> <Gold.Chemscore.Internal.Correction>
   9.000000E+99

> <Gold.Chemscore.Hbonds>
donor molecule, donor type, donor heavy atom, donor atom, acceptor molecule, acceptor atom, score
      L1  H     2    26       P1 10747  0.96
      P1  H 10752 10763       L1    13  0.96

> <Gold.Chemscore.Hbond.Weighted>
-6.6040

> <Gold.Chemscore.Metal.Weighted>
-0.0000

> <Gold.Chemscore.Lipo.Weighted>
-9.3415

> <Gold.Chemscore.Internal_Hbond.Weighted>
0.0000

> <Gold.Chemscore.DEClash.Weighted>
0.0697

> <Gold.Chemscore.DEInternal.Weighted>
1.8348

> <Gold.Chemscore.Rot.Weighted>
3.8204

> <Gold.Chemscore.Internal.Correction.Weighted>
   9.000000E+99

> <Gold.Protein.RotatedTorsions>
[ 6907 6896 6895 6894 ] final   17.54 input  -60.11 | X-H torsion
[ 7974 7965 7964 7962 ] final -172.08 input  175.53 | X-H torsion
[ 8008 7997 7996 7995 ] final -146.03 input   59.86 | X-H torsion
[ 10167 10162 10161 10158 ] final   55.03 input  -65.29 | X-H torsion
[ 10718 10713 10712 10709 ] final  156.43 input   66.30 | X-H torsion
[ 10763 10752 10751 10750 ] final   42.60 input  -60.55 | X-H torsion
[ 11005 11000 10999 10996 ] final   -6.32 input  -57.11 | X-H torsion

> <Gold.Protein.ActiveResidues>
 VAL166  LYS551  ARG553  GLY616  TRP617  ASP618  TYR619  PRO620  LYS621  CYS622 
 ASP623  PHE694  ASN695  SER759  ASP760  ASP761  ALA762  ILE779  LEU786  VAL792 
 PHE793  MET794  SER795  GLU796  ALA797  LYS798  CYS799  TRP800  GLU811  SER814 

> <Gold.Protein.RotatedAtoms>
  151.8512  135.0557  160.0458 H   0  0  0  0  0  0  0  0  0  0  0  0  # atno 6907 bound_to 6896
  152.2735  133.5400  159.5462 H   0  0  0  0  0  0  0  0  0  0  0  0  # atno 6908 bound_to 6896
  150.7161  134.0580  159.3864 H   0  0  0  0  0  0  0  0  0  0  0  0  # atno 6909 bound_to 6896
  144.7150  140.1826  143.6357 H   0  0  0  0  0  0  0  0  0  0  0  0  # atno 7974 bound_to 7965
  155.5527  140.0618  157.2846 H   0  0  0  0  0  0  0  0  0  0  0  0  # atno 8008 bound_to 7997
  154.4415  140.1899  156.0748 H   0  0  0  0  0  0  0  0  0  0  0  0  # atno 8009 bound_to 7997
  156.0504  140.3285  155.7348 H   0  0  0  0  0  0  0  0  0  0  0  0  # atno 8010 bound_to 7997
  140.2238  144.3760  150.6440 H   0  0  0  0  0  0  0  0  0  0  0  0  # atno 10167 bound_to 10162
  157.2050  131.0685  151.2003 H   0  0  0  0  0  0  0  0  0  0  0  0  # atno 10718 bound_to 10713
  152.9879  135.6127  154.2975 H   0  0  0  0  0  0  0  0  0  0  0  0  # atno 10763 bound_to 10752
  154.2698  135.2780  155.2745 H   0  0  0  0  0  0  0  0  0  0  0  0  # atno 10764 bound_to 10752
  154.5133  135.5835  153.6679 H   0  0  0  0  0  0  0  0  0  0  0  0  # atno 10765 bound_to 10752
  140.7007  133.8992  155.8681 H   0  0  0  0  0  0  0  0  0  0  0  0  # atno 11005 bound_to 11000
  145.8842  139.2340  143.1587 LP  0  0  0  0  0  0  0  0  0  0  0  0  # atno 17320 bound_to 7965
  145.9965  140.8557  143.0040 LP  0  0  0  0  0  0  0  0  0  0  0  0  # atno 17321 bound_to 7965
  140.6235  143.2179  151.6645 LP  0  0  0  0  0  0  0  0  0  0  0  0  # atno 17342 bound_to 10162
  139.5134  144.3443  152.0711 LP  0  0  0  0  0  0  0  0  0  0  0  0  # atno 17343 bound_to 10162
  157.3729  130.7190  149.6577 LP  0  0  0  0  0  0  0  0  0  0  0  0  # atno 17370 bound_to 10713
  155.9696  130.4194  150.4372 LP  0  0  0  0  0  0  0  0  0  0  0  0  # atno 17371 bound_to 10713
  141.0166  134.0947  157.4165 LP  0  0  0  0  0  0  0  0  0  0  0  0  # atno 17394 bound_to 11000
  139.8897  135.0107  156.6697 LP  0  0  0  0  0  0  0  0  0  0  0  0  # atno 17395 bound_to 11000

$$$$
