AV-unprocessed.smi:2585|AV-procd|sdf|10144|dock1
  -GOLD-   2272014153D 1   1.00000     0.00000
 Structure written by MMmdl.
 34 35  0  0  0  0  0  0  0  0  1 V2000
  151.7606  131.6087  157.1382 C   0  0  0  0  0  0  0  0  0  0  0  0
  151.0856  132.8094  156.5455 C   0  0  0  0  0  0  0  0  0  0  0  0
  151.3487  134.0067  157.0262 N   0  0  0  0  0  0  0  0  0  0  0  0
  150.4615  135.1546  156.1803 S   0  0  0  0  0  0  0  0  0  0  0  0
  149.6805  134.0176  155.1150 C   0  0  0  0  0  0  0  0  0  0  0  0
  148.7865  134.2952  154.1306 N   0  0  0  0  0  0  0  0  0  0  0  0
  147.7596  133.5476  153.6912 C   0  0  0  0  0  0  0  0  0  0  0  0
  147.4508  132.4381  154.1249 O   0  0  0  0  0  0  0  0  0  0  0  0
  147.1032  134.1759  152.7012 N   0  0  0  0  0  0  0  0  0  0  0  0
  145.9325  133.7137  151.9400 C   0  0  0  0  0  0  0  0  0  0  0  0
  146.1112  132.2302  151.5505 C   0  0  0  0  0  0  0  0  0  0  0  0
  144.6923  133.8544  152.8494 C   0  0  0  0  0  0  0  0  0  0  0  0
  144.3275  135.3284  153.1098 C   0  0  0  0  0  0  0  0  0  0  0  0
  144.1203  136.0059  151.8762 O   0  0  0  0  0  0  0  0  0  0  0  0
  145.2803  136.0243  151.0528 C   0  0  0  0  0  0  0  0  0  0  0  0
  145.6828  134.5850  150.6846 C   0  0  0  0  0  0  0  0  0  0  0  0
  150.1460  132.7791  155.4640 C   0  0  0  0  0  0  0  0  0  0  0  0
  149.7077  131.3019  154.7392 Cl  0  0  0  0  0  0  0  0  0  0  0  0
  151.0289  130.8935  157.5143 H   0  0  0  0  0  0  0  0  0  0  0  0
  152.4130  131.8769  157.9704 H   0  0  0  0  0  0  0  0  0  0  0  0
  152.3726  131.0962  156.3954 H   0  0  0  0  0  0  0  0  0  0  0  0
  148.9148  135.1864  153.6742 H   0  0  0  0  0  0  0  0  0  0  0  0
  147.4556  135.0839  152.4355 H   0  0  0  0  0  0  0  0  0  0  0  0
  145.2154  131.8380  151.0678 H   0  0  0  0  0  0  0  0  0  0  0  0
  146.3070  131.6113  152.4268 H   0  0  0  0  0  0  0  0  0  0  0  0
  146.9362  132.0860  150.8529 H   0  0  0  0  0  0  0  0  0  0  0  0
  143.8366  133.3671  152.3796 H   0  0  0  0  0  0  0  0  0  0  0  0
  144.8517  133.3377  153.7970 H   0  0  0  0  0  0  0  0  0  0  0  0
  143.4115  135.3861  153.6977 H   0  0  0  0  0  0  0  0  0  0  0  0
  145.1036  135.8327  153.6874 H   0  0  0  0  0  0  0  0  0  0  0  0
  145.0574  136.5911  150.1488 H   0  0  0  0  0  0  0  0  0  0  0  0
  146.0941  136.5453  151.5592 H   0  0  0  0  0  0  0  0  0  0  0  0
  146.5524  134.5983  150.0279 H   0  0  0  0  0  0  0  0  0  0  0  0
  144.8776  134.1442  150.0954 H   0  0  0  0  0  0  0  0  0  0  0  0
  1  2  1  0  0  0  0
  1 19  1  0  0  0  0
  1 20  1  0  0  0  0
  1 21  1  0  0  0  0
  2 17  1  0  0  0  0
  2  3  2  0  0  0  0
  3  4  1  0  0  0  0
  4  5  1  0  0  0  0
  5  6  1  0  0  0  0
  5 17  2  0  0  0  0
  6  7  1  0  0  0  0
  6 22  1  0  0  0  0
  7  8  2  0  0  0  0
  7  9  1  0  0  0  0
  9 10  1  0  0  0  0
  9 23  1  0  0  0  0
 10 16  1  0  0  0  0
 10 11  1  0  0  0  0
 10 12  1  0  0  0  0
 11 24  1  0  0  0  0
 11 25  1  0  0  0  0
 11 26  1  0  0  0  0
 12 13  1  0  0  0  0
 12 27  1  0  0  0  0
 12 28  1  0  0  0  0
 13 14  1  0  0  0  0
 13 29  1  0  0  0  0
 13 30  1  0  0  0  0
 14 15  1  0  0  0  0
 15 16  1  0  0  0  0
 15 31  1  0  0  0  0
 15 32  1  0  0  0  0
 16 33  1  0  0  0  0
 16 34  1  0  0  0  0
 17 18  1  0  0  0  0
M  END
> <s_m_source_file>
AV-unprocessed.smi

> <i_m_source_file_index>
2585

> <i_lp_mmshare_version>
43012

> <i_f3d_flags>
0

> <s_epik_input>
W0NIM11jMW5zYyhjMUNsKVtOSF1DKD1PKVtOSF1DMihbQ0gzXSlbQ0gyXVtDSDJdT1tDSDJdW0NIMl0y

> <s_epik_cmdline>
J2VwaWtfcHl0aG9uJywgJy1waCcsICc3LjAnLCAnLXRuJywgJzgnLCAnLW1hJywgJzIwMCcsICctbWV0YWxfYmluZGluZycsICctaW1hZScsICc8aW5maWxlLm1hZT4nLCAnLW9tYWUnLCAnPG91dGZpbGUubWFlPic=

> <r_lp_tautomer_probability>
1

> <r_epik_Ionization_Penalty>
3.55893e-05

> <r_epik_Ionization_Penalty_Charging>
0

> <r_epik_Ionization_Penalty_Neutral>
3.55893e-05

> <r_epik_State_Penalty>
-0

> <r_epik_Charging_Adjusted_Penalty>
0

> <i_epik_Tot_Q>
0

> <i_epik_Tot_abs_Q>
0

> <r_epik_Metal_State_Penalty>
-0

> <b_epik_Metal_Only>
0

> <s_lp_Force_Field>
OPLS_2005

> <r_lp_Energy>
7.47922

> <b_lp_Chiralities_Consistent>
1

> <s_lp_Variant>
AV-unprocessed.smi:2585-1

> <Gold.Version>
5.8.1

> <Gold.Id.Protein>
6NUR|6NUR_protein|mol2

> <Gold.PLP.Fitness>
33.2139

> <Gold.PLP.PLP>
-28.2052

> <Gold.PLP.part.hbond>
-2.7459

> <Gold.PLP.part.metal>
0.0000

> <Gold.PLP.part.buried>
-3.8215

> <Gold.PLP.part.nonpolar>
-21.7320

> <Gold.PLP.part.repulsive>
0.2177

> <Gold.PLP.ligand.clash>
0.0000

> <Gold.PLP.ligand.torsion>
0.4882

> <Gold.PLP.Chemscore.Hbond>
1.9920

> <Gold.PLP.Chemscore.CHOScore>
0.0000

> <Gold.PLP.Chemscore.Metal>
0.0000

> <Gold.Chemscore.Hbonds>
donor molecule, donor type, donor heavy atom, donor atom, acceptor molecule, acceptor atom, score
      L1  H     6    22       P1  7948  0.84
      L1  H     9    23       P1  7948  0.98
      P1  H  6896  6909       L1     3  0.10

> <Gold.PLP.Chemscore.Internal.Correction>
0.0092

> <Gold.Rescore>
     Score         DG    S(hbond)    S(metal)    S(lipo)     H(rot)  DE(clash)    DE(int)     intcor
     11.76     -15.13       1.54        0.00      60.39       1.00       0.15       3.22       ----

> <Gold.Chemscore.Fitness>
11.7589

> <Gold.Chemscore.DG>
-15.1287

> <Gold.Chemscore.ZeroCoef>
-5.4800

> <Gold.Chemscore.Hbond>
1.5399

> <Gold.Chemscore.Metal>
0.0000

> <Gold.Chemscore.Lipo>
60.3884

> <Gold.Chemscore.Internal_Hbond>
0.0000

> <Gold.Chemscore.DEClash>
0.1461

> <Gold.Chemscore.DEInternal>
3.2237

> <Gold.Chemscore.Rot>
1.0000

> <Gold.Chemscore.Internal.Correction>
   9.000000E+99

> <Gold.Chemscore.Hbonds>
donor molecule, donor type, donor heavy atom, donor atom, acceptor molecule, acceptor atom, score
      L1  H     6    22       P1  7948  0.52
      L1  H     9    23       P1  7948  0.92
      P1  H  6896  6909       L1     3  0.01

> <Gold.Chemscore.Hbond.Weighted>
-5.1433

> <Gold.Chemscore.Metal.Weighted>
-0.0000

> <Gold.Chemscore.Lipo.Weighted>
-7.0654

> <Gold.Chemscore.Internal_Hbond.Weighted>
0.0000

> <Gold.Chemscore.DEClash.Weighted>
0.1461

> <Gold.Chemscore.DEInternal.Weighted>
3.2237

> <Gold.Chemscore.Rot.Weighted>
2.5600

> <Gold.Chemscore.Internal.Correction.Weighted>
   9.000000E+99

> <Gold.Protein.RotatedTorsions>
[ 6907 6896 6895 6894 ] final  -47.95 input  -60.11 | X-H torsion
[ 7974 7965 7964 7962 ] final   89.26 input  175.53 | X-H torsion
[ 8008 7997 7996 7995 ] final   95.72 input   59.86 | X-H torsion
[ 10167 10162 10161 10158 ] final   34.50 input  -65.29 | X-H torsion
[ 10718 10713 10712 10709 ] final  -63.72 input   66.30 | X-H torsion
[ 10763 10752 10751 10750 ] final   56.18 input  -60.55 | X-H torsion
[ 11005 11000 10999 10996 ] final   97.97 input  -57.11 | X-H torsion

> <Gold.Protein.ActiveResidues>
 VAL166  LYS551  ARG553  GLY616  TRP617  ASP618  TYR619  PRO620  LYS621  CYS622 
 ASP623  PHE694  ASN695  SER759  ASP760  ASP761  ALA762  ILE779  LEU786  VAL792 
 PHE793  MET794  SER795  GLU796  ALA797  LYS798  CYS799  TRP800  GLU811  SER814 

> <Gold.Protein.RotatedAtoms>
  150.8955  134.8363  159.7323 H   0  0  0  0  0  0  0  0  0  0  0  0  # atno 6907 bound_to 6896
  152.4862  134.4582  159.9606 H   0  0  0  0  0  0  0  0  0  0  0  0  # atno 6908 bound_to 6896
  151.4640  133.3546  159.2848 H   0  0  0  0  0  0  0  0  0  0  0  0  # atno 6909 bound_to 6896
  145.5348  139.2285  143.2599 H   0  0  0  0  0  0  0  0  0  0  0  0  # atno 7974 bound_to 7965
  156.0719  140.3282  155.7586 H   0  0  0  0  0  0  0  0  0  0  0  0  # atno 8008 bound_to 7997
  155.5292  140.0592  157.2909 H   0  0  0  0  0  0  0  0  0  0  0  0  # atno 8009 bound_to 7997
  154.4535  140.1930  156.0467 H   0  0  0  0  0  0  0  0  0  0  0  0  # atno 8010 bound_to 7997
  140.4309  144.1325  150.6159 H   0  0  0  0  0  0  0  0  0  0  0  0  # atno 10167 bound_to 10162
  156.0773  130.4224  150.1317 H   0  0  0  0  0  0  0  0  0  0  0  0  # atno 10718 bound_to 10713
  152.9828  135.5685  154.5188 H   0  0  0  0  0  0  0  0  0  0  0  0  # atno 10763 bound_to 10752
  154.4679  135.2784  155.1666 H   0  0  0  0  0  0  0  0  0  0  0  0  # atno 10764 bound_to 10752
  154.3227  135.6265  153.5568 H   0  0  0  0  0  0  0  0  0  0  0  0  # atno 10765 bound_to 10752
  139.8774  134.9027  156.4387 H   0  0  0  0  0  0  0  0  0  0  0  0  # atno 11005 bound_to 11000
  146.2020  140.6165  142.9098 LP  0  0  0  0  0  0  0  0  0  0  0  0  # atno 17320 bound_to 7965
  144.7607  140.5415  143.6737 LP  0  0  0  0  0  0  0  0  0  0  0  0  # atno 17321 bound_to 7965
  140.4428  143.2519  151.9451 LP  0  0  0  0  0  0  0  0  0  0  0  0  # atno 17342 bound_to 10162
  139.4785  144.5638  151.8197 LP  0  0  0  0  0  0  0  0  0  0  0  0  # atno 17343 bound_to 10162
  156.9356  130.9728  151.3525 LP  0  0  0  0  0  0  0  0  0  0  0  0  # atno 17370 bound_to 10713
  157.5875  130.8420  149.8610 LP  0  0  0  0  0  0  0  0  0  0  0  0  # atno 17371 bound_to 10713
  140.9015  133.7776  155.9685 LP  0  0  0  0  0  0  0  0  0  0  0  0  # atno 17394 bound_to 11000
  140.8646  134.2800  157.5219 LP  0  0  0  0  0  0  0  0  0  0  0  0  # atno 17395 bound_to 11000

$$$$
