AV-unprocessed.smi:2169|AV-procd|sdf|8823|dock6
  -GOLD-   2272012 13D 1   1.00000     0.00000
 Structure written by MMmdl.
 45 46  0  0  0  0  0  0  0  0  2 V2000
  152.2666  140.0560  159.2057 C   0  0  0  0  0  0  0  0  0  0  0  0
  151.8729  138.8688  157.8570 S   0  0  0  0  0  0  0  0  0  0  0  0
  153.0588  138.7430  156.9958 O   0  0  0  0  0  0  0  0  0  0  0  0
  151.2815  137.6662  158.4633 O   0  0  0  0  0  0  0  0  0  0  0  0
  150.6297  139.6673  156.9375 N   0  0  0  0  0  0  0  0  0  0  0  0
  150.8658  140.0120  155.5210 C   0  0  0  0  0  0  0  0  0  0  0  0
  150.1838  139.0123  154.5700 C   0  0  0  0  0  0  0  0  0  0  0  0
  148.6854  138.8685  154.8871 C   0  0  0  0  0  0  0  0  0  0  0  0
  148.0642  137.8611  154.0323 N   0  0  0  0  0  0  0  0  0  0  0  0
  146.7758  137.4956  154.0811 C   0  0  0  0  0  0  0  0  0  0  0  0
  145.9476  137.9814  154.8521 O   0  0  0  0  0  0  0  0  0  0  0  0
  146.4965  136.5327  153.1915 N   0  0  0  0  0  0  0  0  0  0  0  0
  145.1846  135.9232  153.0088 C   0  0  0  0  0  0  0  0  0  0  0  0
  144.8969  135.6303  151.5268 C   0  0  0  0  0  0  0  0  0  0  0  0
  145.1109  134.1700  151.1803 C   0  0  0  0  0  0  0  0  0  0  0  0
  144.0237  133.3506  150.8034 C   0  0  0  0  0  0  0  0  0  0  0  0
  144.2561  131.9953  150.4884 C   0  0  0  0  0  0  0  0  0  0  0  0
  145.5706  131.4899  150.5584 C   0  0  0  0  0  0  0  0  0  0  0  0
  146.5854  132.3039  150.9237 N   0  3  0  0  0  0  0  0  0  0  0  0
  146.4043  133.6069  151.2325 C   0  0  0  0  0  0  0  0  0  0  0  0
  148.5147  138.4745  156.3615 C   0  0  0  0  0  0  0  0  0  0  0  0
  149.2095  139.4796  157.2966 C   0  0  0  0  0  0  0  0  0  0  0  0
  153.0477  139.6318  159.8359 H   0  0  0  0  0  0  0  0  0  0  0  0
  151.3812  140.2334  159.8134 H   0  0  0  0  0  0  0  0  0  0  0  0
  152.6246  140.9932  158.7833 H   0  0  0  0  0  0  0  0  0  0  0  0
  150.4708  141.0123  155.3406 H   0  0  0  0  0  0  0  0  0  0  0  0
  151.9346  140.0625  155.3152 H   0  0  0  0  0  0  0  0  0  0  0  0
  150.3190  139.3468  153.5408 H   0  0  0  0  0  0  0  0  0  0  0  0
  150.6723  138.0408  154.6388 H   0  0  0  0  0  0  0  0  0  0  0  0
  148.1910  139.8289  154.7272 H   0  0  0  0  0  0  0  0  0  0  0  0
  148.6638  137.4025  153.3619 H   0  0  0  0  0  0  0  0  0  0  0  0
  147.2430  136.1981  152.5994 H   0  0  0  0  0  0  0  0  0  0  0  0
  145.1155  135.0096  153.6019 H   0  0  0  0  0  0  0  0  0  0  0  0
  144.4349  136.6086  153.4052 H   0  0  0  0  0  0  0  0  0  0  0  0
  143.8718  135.9116  151.2818 H   0  0  0  0  0  0  0  0  0  0  0  0
  145.5416  136.2357  150.8882 H   0  0  0  0  0  0  0  0  0  0  0  0
  143.0224  133.7537  150.7561 H   0  0  0  0  0  0  0  0  0  0  0  0
  143.4373  131.3534  150.1973 H   0  0  0  0  0  0  0  0  0  0  0  0
  145.8387  130.4673  150.3353 H   0  0  0  0  0  0  0  0  0  0  0  0
  147.2929  134.1549  151.5112 H   0  0  0  0  0  0  0  0  0  0  0  0
  147.4542  138.4215  156.6113 H   0  0  0  0  0  0  0  0  0  0  0  0
  148.9157  137.4753  156.5279 H   0  0  0  0  0  0  0  0  0  0  0  0
  149.1183  139.1584  158.3338 H   0  0  0  0  0  0  0  0  0  0  0  0
  148.7080  140.4458  157.2295 H   0  0  0  0  0  0  0  0  0  0  0  0
  147.5291  131.9182  150.9682 H   0  0  0  0  0  0  0  0  0  0  0  0
  1  2  1  0  0  0  0
  1 23  1  0  0  0  0
  1 24  1  0  0  0  0
  1 25  1  0  0  0  0
  2  3  2  0  0  0  0
  2  4  2  0  0  0  0
  2  5  1  0  0  0  0
  5 22  1  0  0  0  0
  5  6  1  0  0  0  0
  6  7  1  0  0  0  0
  6 26  1  0  0  0  0
  6 27  1  0  0  0  0
  7  8  1  0  0  0  0
  7 28  1  0  0  0  0
  7 29  1  0  0  0  0
  8  9  1  0  0  0  0
  8 21  1  0  0  0  0
  8 30  1  0  0  0  0
  9 10  1  0  0  0  0
  9 31  1  0  0  0  0
 10 11  2  0  0  0  0
 10 12  1  0  0  0  0
 12 13  1  0  0  0  0
 12 32  1  0  0  0  0
 13 14  1  0  0  0  0
 13 33  1  0  0  0  0
 13 34  1  0  0  0  0
 14 15  1  0  0  0  0
 14 35  1  0  0  0  0
 14 36  1  0  0  0  0
 15 20  1  0  0  0  0
 15 16  2  0  0  0  0
 16 17  1  0  0  0  0
 16 37  1  0  0  0  0
 17 18  2  0  0  0  0
 17 38  1  0  0  0  0
 18 19  1  0  0  0  0
 18 39  1  0  0  0  0
 19 20  2  0  0  0  0
 19 45  1  0  0  0  0
 20 40  1  0  0  0  0
 21 22  1  0  0  0  0
 21 41  1  0  0  0  0
 21 42  1  0  0  0  0
 22 43  1  0  0  0  0
 22 44  1  0  0  0  0
M  CHG  1  19   1
M  END
> <s_m_source_file>
AV-unprocessed.smi

> <i_m_source_file_index>
2169

> <i_lp_mmshare_version>
43012

> <i_f3d_flags>
0

> <s_epik_input>
W0NIM11TKD1PKSg9TylOMVtDSDJdW0NIMl1bQ0hdKFtDSDJdW0NIMl0xKVtOSF1DKD1PKVtOSF1bQ0gyXVtDSDJdYzJbY0hdW2NIXVtjSF1uW2NIXTI=

> <s_epik_cmdline>
J2VwaWtfcHl0aG9uJywgJy1waCcsICc3LjAnLCAnLXRuJywgJzgnLCAnLW1hJywgJzIwMCcsICctbWV0YWxfYmluZGluZycsICctaW1hZScsICc8aW5maWxlLm1hZT4nLCAnLW9tYWUnLCAnPG91dGZpbGUubWFlPic=

> <r_epik_Ionization_Penalty>
2.21124

> <r_epik_Ionization_Penalty_Charging>
2.21119

> <r_epik_Ionization_Penalty_Neutral>
4.90089e-05

> <r_epik_State_Penalty>
2.35542

> <r_epik_Charging_Adjusted_Penalty>
4.56661

> <i_epik_Tot_Q>
1

> <i_epik_Tot_abs_Q>
1

> <r_epik_Metal_State_Penalty>
2.36951

> <b_epik_Metal_Only>
0

> <s_lp_Force_Field>
OPLS_2005

> <r_lp_Energy>
3.64161

> <b_lp_Chiralities_Consistent>
1

> <s_lp_Variant>
AV-unprocessed.smi:2169-2

> <Gold.Version>
5.8.1

> <Gold.Id.Protein>
6NUR|6NUR_protein|mol2

> <Gold.PLP.Fitness>
45.5493

> <Gold.PLP.PLP>
-34.7060

> <Gold.PLP.part.hbond>
-4.0000

> <Gold.PLP.part.metal>
0.0000

> <Gold.PLP.part.buried>
-4.8911

> <Gold.PLP.part.nonpolar>
-26.9538

> <Gold.PLP.part.repulsive>
0.1856

> <Gold.PLP.ligand.clash>
0.0000

> <Gold.PLP.ligand.torsion>
1.5297

> <Gold.PLP.Chemscore.Hbond>
3.9440

> <Gold.PLP.Chemscore.CHOScore>
0.0000

> <Gold.PLP.Chemscore.Metal>
0.0000

> <Gold.Chemscore.Hbonds>
donor molecule, donor type, donor heavy atom, donor atom, acceptor molecule, acceptor atom, score
      L1  H     9    31       P1  7948  1.00
      L1  H    12    32       P1  7948  1.00
      L1  H    19    45       P1 10747  1.00
      P1  H  7997  8008       L1     3  1.00

> <Gold.PLP.Chemscore.Internal.Correction>
2.0708

> <Gold.Rescore>
     Score         DG    S(hbond)    S(metal)    S(lipo)     H(rot)  DE(clash)    DE(int)     intcor
     20.35     -23.18       3.91        0.00      77.60       1.73       0.05       2.78       ----

> <Gold.Chemscore.Fitness>
20.3472

> <Gold.Chemscore.DG>
-23.1768

> <Gold.Chemscore.ZeroCoef>
-5.4800

> <Gold.Chemscore.Hbond>
3.9060

> <Gold.Chemscore.Metal>
0.0000

> <Gold.Chemscore.Lipo>
77.5954

> <Gold.Chemscore.Internal_Hbond>
0.0000

> <Gold.Chemscore.DEClash>
0.0460

> <Gold.Chemscore.DEInternal>
2.7836

> <Gold.Chemscore.Rot>
1.7297

> <Gold.Chemscore.Internal.Correction>
   9.000000E+99

> <Gold.Chemscore.Hbonds>
donor molecule, donor type, donor heavy atom, donor atom, acceptor molecule, acceptor atom, score
      L1  H     9    31       P1  7948  0.97
      L1  H    12    32       P1  7948  0.98
      L1  H    19    45       P1 10747  0.96
      P1  H  7997  8008       L1     3  0.99

> <Gold.Chemscore.Hbond.Weighted>
-13.0461

> <Gold.Chemscore.Metal.Weighted>
-0.0000

> <Gold.Chemscore.Lipo.Weighted>
-9.0787

> <Gold.Chemscore.Internal_Hbond.Weighted>
0.0000

> <Gold.Chemscore.DEClash.Weighted>
0.0460

> <Gold.Chemscore.DEInternal.Weighted>
2.7836

> <Gold.Chemscore.Rot.Weighted>
4.4280

> <Gold.Chemscore.Internal.Correction.Weighted>
   9.000000E+99

> <Gold.Protein.RotatedTorsions>
[ 6907 6896 6895 6894 ] final -111.28 input  -60.11 | X-H torsion
[ 7974 7965 7964 7962 ] final   92.46 input  175.53 | X-H torsion
[ 8008 7997 7996 7995 ] final  -68.23 input   59.86 | X-H torsion
[ 10167 10162 10161 10158 ] final  163.56 input  -65.29 | X-H torsion
[ 10718 10713 10712 10709 ] final   20.45 input   66.30 | X-H torsion
[ 10763 10752 10751 10750 ] final -122.30 input  -60.55 | X-H torsion
[ 11005 11000 10999 10996 ] final  -91.41 input  -57.11 | X-H torsion

> <Gold.Protein.ActiveResidues>
 VAL166  LYS551  ARG553  GLY616  TRP617  ASP618  TYR619  PRO620  LYS621  CYS622 
 ASP623  PHE694  ASN695  SER759  ASP760  ASP761  ALA762  ILE779  LEU786  VAL792 
 PHE793  MET794  SER795  GLU796  ALA797  LYS798  CYS799  TRP800  GLU811  SER814 

> <Gold.Protein.RotatedAtoms>
  150.7680  133.9259  159.3411 H   0  0  0  0  0  0  0  0  0  0  0  0  # atno 6907 bound_to 6896
  151.7152  135.0903  160.0284 H   0  0  0  0  0  0  0  0  0  0  0  0  # atno 6908 bound_to 6896
  152.3684  133.6349  159.6104 H   0  0  0  0  0  0  0  0  0  0  0  0  # atno 6909 bound_to 6896
  145.4920  139.2276  143.2824 H   0  0  0  0  0  0  0  0  0  0  0  0  # atno 7974 bound_to 7965
  154.4853  140.0877  156.7473 H   0  0  0  0  0  0  0  0  0  0  0  0  # atno 8008 bound_to 7997
  155.4365  140.3452  155.4267 H   0  0  0  0  0  0  0  0  0  0  0  0  # atno 8009 bound_to 7997
  156.1253  140.1485  156.9134 H   0  0  0  0  0  0  0  0  0  0  0  0  # atno 8010 bound_to 7997
  139.4876  144.4324  151.9054 H   0  0  0  0  0  0  0  0  0  0  0  0  # atno 10167 bound_to 10162
  157.1246  130.6564  149.5934 H   0  0  0  0  0  0  0  0  0  0  0  0  # atno 10718 bound_to 10713
  154.8686  135.4138  154.2759 H   0  0  0  0  0  0  0  0  0  0  0  0  # atno 10763 bound_to 10752
  153.3661  135.7005  153.6680 H   0  0  0  0  0  0  0  0  0  0  0  0  # atno 10764 bound_to 10752
  153.5561  135.3619  155.2752 H   0  0  0  0  0  0  0  0  0  0  0  0  # atno 10765 bound_to 10752
  141.1545  133.7754  156.9875 H   0  0  0  0  0  0  0  0  0  0  0  0  # atno 11005 bound_to 11000
  146.2278  140.5715  142.8989 LP  0  0  0  0  0  0  0  0  0  0  0  0  # atno 17320 bound_to 7965
  144.7828  140.5876  143.6594 LP  0  0  0  0  0  0  0  0  0  0  0  0  # atno 17321 bound_to 7965
  140.3772  144.2781  150.5912 LP  0  0  0  0  0  0  0  0  0  0  0  0  # atno 17342 bound_to 10162
  140.5266  143.2253  151.8305 LP  0  0  0  0  0  0  0  0  0  0  0  0  # atno 17343 bound_to 10162
  155.9821  130.4832  150.6863 LP  0  0  0  0  0  0  0  0  0  0  0  0  # atno 17370 bound_to 10713
  157.4446  131.0865  151.0909 LP  0  0  0  0  0  0  0  0  0  0  0  0  # atno 17371 bound_to 10713
  140.1024  134.9527  157.1944 LP  0  0  0  0  0  0  0  0  0  0  0  0  # atno 17394 bound_to 11000
  140.3300  134.2820  155.7230 LP  0  0  0  0  0  0  0  0  0  0  0  0  # atno 17395 bound_to 11000

$$$$
