AV-unprocessed.smi:153|AV-procd|sdf|1265|dock8
  -GOLD-   2262018523D 1   1.00000     0.00000
 Structure written by MMmdl.
 59 62  0  0  0  0  0  0  0  0  1 V2000
  152.4750  140.0675  158.4357 C   0  0  0  0  0  0  0  0  0  0  0  0
  151.6844  141.1565  159.1790 C   0  0  1  0  0  0  0  0  0  0  0  0
  152.5286  141.5452  160.2649 O   0  0  0  0  0  0  0  0  0  0  0  0
  152.6311  142.9581  160.3423 C   0  0  0  0  0  0  0  0  0  0  0  0
  152.4496  143.4126  158.9015 C   0  0  0  0  0  0  0  0  0  0  0  0
  151.3806  142.4594  158.3870 C   0  0  2  0  0  0  0  0  0  0  0  0
  150.1283  142.9562  158.8286 O   0  0  0  0  0  0  0  0  0  0  0  0
  151.3453  142.3908  156.8348 C   0  0  0  0  0  0  0  0  0  0  0  0
  150.2228  141.6582  156.2562 N   0  0  0  0  0  0  0  0  0  0  0  0
  148.8909  142.0115  156.2511 C   0  0  0  0  0  0  0  0  0  0  0  0
  148.0952  141.1773  155.6418 N   0  0  0  0  0  0  0  0  0  0  0  0
  148.9358  140.1787  155.1650 C   0  0  0  0  0  0  0  0  0  0  0  0
  148.7408  138.9769  154.4194 C   0  0  0  0  0  0  0  0  0  0  0  0
  147.5226  138.5110  154.0248 N   0  0  0  0  0  0  0  0  0  0  0  0
  146.3583  139.3716  154.2223 C   0  0  0  0  0  0  0  0  0  0  0  0
  147.4768  137.5695  152.9055 C   0  0  0  0  0  0  0  0  0  0  0  0
  146.3280  137.8532  151.9106 C   0  0  1  0  0  0  0  0  0  0  0  0
  146.8243  138.0177  150.5967 O   0  0  0  0  0  0  0  0  0  0  0  0
  145.2388  136.7567  151.8975 C   0  0  0  0  0  0  0  0  0  0  0  0
  145.6229  135.4481  151.3582 N   0  0  0  0  0  0  0  0  0  0  0  0
  144.4847  134.6731  150.8680 C   0  0  0  0  0  0  0  0  0  0  0  0
  144.9141  133.2947  150.3358 C   0  0  0  0  0  0  0  0  0  0  0  0
  145.6127  132.5834  151.3519 O   0  0  0  0  0  0  0  0  0  0  0  0
  146.7581  133.2854  151.8222 C   0  0  0  0  0  0  0  0  0  0  0  0
  146.3310  134.6609  152.3624 C   0  0  0  0  0  0  0  0  0  0  0  0
  149.8546  138.2635  154.0996 N   0  0  0  0  0  0  0  0  0  0  0  0
  151.0635  138.6727  154.4912 C   0  0  0  0  0  0  0  0  0  0  0  0
  151.3869  139.7527  155.2019 N   0  0  0  0  0  0  0  0  0  0  0  0
  150.2815  140.4849  155.5205 C   0  0  0  0  0  0  0  0  0  0  0  0
  151.8683  139.5673  157.6842 H   0  0  0  0  0  0  0  0  0  0  0  0
  152.8063  139.2950  159.1297 H   0  0  0  0  0  0  0  0  0  0  0  0
  153.3613  140.4759  157.9495 H   0  0  0  0  0  0  0  0  0  0  0  0
  150.7685  140.7158  159.5764 H   0  0  0  0  0  0  0  0  0  0  0  0
  151.8328  143.3441  160.9776 H   0  0  0  0  0  0  0  0  0  0  0  0
  153.5863  143.2685  160.7662 H   0  0  0  0  0  0  0  0  0  0  0  0
  152.1793  144.4660  158.8154 H   0  0  0  0  0  0  0  0  0  0  0  0
  153.3836  143.2625  158.3583 H   0  0  0  0  0  0  0  0  0  0  0  0
  150.1583  143.9005  158.8141 H   0  0  0  0  0  0  0  0  0  0  0  0
  151.3347  143.3982  156.4172 H   0  0  0  0  0  0  0  0  0  0  0  0
  152.2687  141.9359  156.4755 H   0  0  0  0  0  0  0  0  0  0  0  0
  148.5119  142.9111  156.7115 H   0  0  0  0  0  0  0  0  0  0  0  0
  146.3122  139.7334  155.2503 H   0  0  0  0  0  0  0  0  0  0  0  0
  145.4360  138.8248  154.0257 H   0  0  0  0  0  0  0  0  0  0  0  0
  146.3910  140.2313  153.5521 H   0  0  0  0  0  0  0  0  0  0  0  0
  148.4337  137.4885  152.3948 H   0  0  0  0  0  0  0  0  0  0  0  0
  147.3157  136.5826  153.3408 H   0  0  0  0  0  0  0  0  0  0  0  0
  145.8376  138.7898  152.1779 H   0  0  0  0  0  0  0  0  0  0  0  0
  146.0913  138.0248  150.0003 H   0  0  0  0  0  0  0  0  0  0  0  0
  144.9440  136.6112  152.9377 H   0  0  0  0  0  0  0  0  0  0  0  0
  144.3425  137.1241  151.3951 H   0  0  0  0  0  0  0  0  0  0  0  0
  143.7538  134.5415  151.6672 H   0  0  0  0  0  0  0  0  0  0  0  0
  143.9797  135.2072  150.0644 H   0  0  0  0  0  0  0  0  0  0  0  0
  144.0415  132.7164  150.0319 H   0  0  0  0  0  0  0  0  0  0  0  0
  145.5495  133.4030  149.4552 H   0  0  0  0  0  0  0  0  0  0  0  0
  147.2370  132.7016  152.6081 H   0  0  0  0  0  0  0  0  0  0  0  0
  147.4844  133.3952  151.0152 H   0  0  0  0  0  0  0  0  0  0  0  0
  147.2151  135.2017  152.7018 H   0  0  0  0  0  0  0  0  0  0  0  0
  145.6960  134.5216  153.2388 H   0  0  0  0  0  0  0  0  0  0  0  0
  151.8888  138.0412  154.1971 H   0  0  0  0  0  0  0  0  0  0  0  0
  1  2  1  0  0  0  0
  1 30  1  0  0  0  0
  1 31  1  0  0  0  0
  1 32  1  0  0  0  0
  2  6  1  0  0  0  0
  2  3  1  0  0  0  0
  2 33  1  0  0  0  0
  3  4  1  0  0  0  0
  4  5  1  0  0  0  0
  4 34  1  0  0  0  0
  4 35  1  0  0  0  0
  5  6  1  0  0  0  0
  5 36  1  0  0  0  0
  5 37  1  0  0  0  0
  6  7  1  0  0  0  0
  6  8  1  0  0  0  0
  7 38  1  0  0  0  0
  8  9  1  0  0  0  0
  8 39  1  0  0  0  0
  8 40  1  0  0  0  0
  9 29  1  0  0  0  0
  9 10  1  0  0  0  0
 10 11  2  0  0  0  0
 10 41  1  0  0  0  0
 11 12  1  0  0  0  0
 12 29  2  0  0  0  0
 12 13  1  0  0  0  0
 13 14  1  0  0  0  0
 13 26  2  0  0  0  0
 14 15  1  0  0  0  0
 14 16  1  0  0  0  0
 15 42  1  0  0  0  0
 15 43  1  0  0  0  0
 15 44  1  0  0  0  0
 16 17  1  0  0  0  0
 16 45  1  0  0  0  0
 16 46  1  0  0  0  0
 17 18  1  0  0  0  0
 17 19  1  0  0  0  0
 17 47  1  0  0  0  0
 18 48  1  0  0  0  0
 19 20  1  0  0  0  0
 19 49  1  0  0  0  0
 19 50  1  0  0  0  0
 20 25  1  0  0  0  0
 20 21  1  0  0  0  0
 21 22  1  0  0  0  0
 21 51  1  0  0  0  0
 21 52  1  0  0  0  0
 22 23  1  0  0  0  0
 22 53  1  0  0  0  0
 22 54  1  0  0  0  0
 23 24  1  0  0  0  0
 24 25  1  0  0  0  0
 24 55  1  0  0  0  0
 24 56  1  0  0  0  0
 25 57  1  0  0  0  0
 25 58  1  0  0  0  0
 26 27  1  0  0  0  0
 27 28  2  0  0  0  0
 27 59  1  0  0  0  0
 28 29  1  0  0  0  0
M  END
> <s_m_source_file>
AV-unprocessed.smi

> <i_m_source_file_index>
153

> <i_lp_mmshare_version>
43012

> <i_f3d_flags>
0

> <s_epik_input>
W0NIMl0xW0NIMl1PW0NAQEhdKFtDSDNdKVtDQEBdMShbT0hdKVtDSDJdbihbY0hdbjIpYyhjMjMpbltjSF1uYzNOKFtDSDNdKVtDSDJdW0NASF0oW09IXSlbQ0gyXU40W0NIMl1bQ0gyXU9bQ0gyXVtDSDJdNA==

> <s_epik_cmdline>
J2VwaWtfcHl0aG9uJywgJy1waCcsICc3LjAnLCAnLXRuJywgJzgnLCAnLW1hJywgJzIwMCcsICctbWV0YWxfYmluZGluZycsICctaW1hZScsICc8aW5maWxlLm1hZT4nLCAnLW9tYWUnLCAnPG91dGZpbGUubWFlPic=

> <r_lp_tautomer_probability>
1

> <r_epik_Ionization_Penalty>
0.424123

> <r_epik_Ionization_Penalty_Charging>
0

> <r_epik_Ionization_Penalty_Neutral>
0.424123

> <r_epik_State_Penalty>
0.421495

> <r_epik_Charging_Adjusted_Penalty>
0.421495

> <i_epik_Tot_Q>
0

> <i_epik_Tot_abs_Q>
0

> <r_epik_Metal_State_Penalty>
0.421223

> <b_epik_Metal_Only>
0

> <s_lp_Force_Field>
OPLS_2005

> <r_lp_Energy>
59.9447

> <b_lp_Chiralities_Consistent>
1

> <s_lp_Variant>
AV-unprocessed.smi:153-16

> <Gold.Version>
5.8.1

> <Gold.Id.Protein>
6NUR|6NUR_protein|mol2

> <Gold.PLP.Fitness>
48.7623

> <Gold.PLP.PLP>
-41.7643

> <Gold.PLP.part.hbond>
-3.4723

> <Gold.PLP.part.metal>
0.0000

> <Gold.PLP.part.buried>
-0.8453

> <Gold.PLP.part.nonpolar>
-38.5549

> <Gold.PLP.part.repulsive>
0.6696

> <Gold.PLP.ligand.clash>
0.0000

> <Gold.PLP.ligand.torsion>
1.4050

> <Gold.PLP.Chemscore.Hbond>
2.4675

> <Gold.PLP.Chemscore.CHOScore>
0.6038

> <Gold.PLP.Chemscore.Metal>
0.0000

> <Gold.Chemscore.Hbonds>
donor molecule, donor type, donor heavy atom, donor atom, acceptor molecule, acceptor atom, score
      L1  H    18    48       P1 10171  0.34
      P1  H  7954  7966       L1    18  0.96
      P1  H  7989  7998       L1    28  0.29
      L1  C    10    41       P1  8028  0.73

> <Gold.PLP.Chemscore.Internal.Correction>
0.5943

> <Gold.Rescore>
     Score         DG    S(hbond)    S(metal)    S(lipo)     H(rot)  DE(clash)    DE(int)     intcor
      7.02     -14.28       1.71        0.00     103.46       3.52       4.71       2.56       ----

> <Gold.Chemscore.Fitness>
7.0216

> <Gold.Chemscore.DG>
-14.2824

> <Gold.Chemscore.ZeroCoef>
-5.4800

> <Gold.Chemscore.Hbond>
1.7069

> <Gold.Chemscore.Metal>
0.0000

> <Gold.Chemscore.Lipo>
103.4609

> <Gold.Chemscore.Internal_Hbond>
0.0000

> <Gold.Chemscore.DEClash>
4.7051

> <Gold.Chemscore.DEInternal>
2.5557

> <Gold.Chemscore.Rot>
3.5170

> <Gold.Chemscore.Internal.Correction>
   9.000000E+99

> <Gold.Chemscore.Hbonds>
donor molecule, donor type, donor heavy atom, donor atom, acceptor molecule, acceptor atom, score
      L1  H    18    48       P1 10171  0.34
      P1  H  7954  7966       L1    18  0.73

> <Gold.Chemscore.Hbond.Weighted>
-5.7011

> <Gold.Chemscore.Metal.Weighted>
-0.0000

> <Gold.Chemscore.Lipo.Weighted>
-12.1049

> <Gold.Chemscore.Internal_Hbond.Weighted>
0.0000

> <Gold.Chemscore.DEClash.Weighted>
4.7051

> <Gold.Chemscore.DEInternal.Weighted>
2.5557

> <Gold.Chemscore.Rot.Weighted>
9.0036

> <Gold.Chemscore.Internal.Correction.Weighted>
   9.000000E+99

> <Gold.Protein.RotatedTorsions>
[ 6907 6896 6895 6894 ] final  123.26 input  -60.11 | X-H torsion
[ 7974 7965 7964 7962 ] final  129.27 input  175.53 | X-H torsion
[ 8008 7997 7996 7995 ] final   70.09 input   59.86 | X-H torsion
[ 10167 10162 10161 10158 ] final -128.64 input  -65.29 | X-H torsion
[ 10718 10713 10712 10709 ] final  100.07 input   66.30 | X-H torsion
[ 10763 10752 10751 10750 ] final -174.74 input  -60.55 | X-H torsion
[ 11005 11000 10999 10996 ] final   -9.86 input  -57.11 | X-H torsion

> <Gold.Protein.ActiveResidues>
 VAL166  LYS551  ARG553  GLY616  TRP617  ASP618  TYR619  PRO620  LYS621  CYS622 
 ASP623  PHE694  ASN695  SER759  ASP760  ASP761  ALA762  ILE779  LEU786  VAL792 
 PHE793  MET794  SER795  GLU796  ALA797  LYS798  CYS799  TRP800  GLU811  SER814 

> <Gold.Protein.RotatedAtoms>
  152.4176  133.7064  159.6453 H   0  0  0  0  0  0  0  0  0  0  0  0  # atno 6907 bound_to 6896
  150.8053  133.8511  159.3214 H   0  0  0  0  0  0  0  0  0  0  0  0  # atno 6908 bound_to 6896
  151.6236  135.1031  160.0158 H   0  0  0  0  0  0  0  0  0  0  0  0  # atno 6909 bound_to 6896
  145.0305  139.4050  143.5152 H   0  0  0  0  0  0  0  0  0  0  0  0  # atno 7974 bound_to 7965
  155.7335  140.3491  155.5070 H   0  0  0  0  0  0  0  0  0  0  0  0  # atno 8008 bound_to 7997
  155.9161  140.1059  157.1264 H   0  0  0  0  0  0  0  0  0  0  0  0  # atno 8009 bound_to 7997
  154.4063  140.1258  156.4606 H   0  0  0  0  0  0  0  0  0  0  0  0  # atno 8010 bound_to 7997
  139.9482  143.6086  152.2483 H   0  0  0  0  0  0  0  0  0  0  0  0  # atno 10167 bound_to 10162
  157.6862  131.0688  150.5044 H   0  0  0  0  0  0  0  0  0  0  0  0  # atno 10718 bound_to 10713
  154.5926  135.2846  155.0619 H   0  0  0  0  0  0  0  0  0  0  0  0  # atno 10763 bound_to 10752
  154.1914  135.6440  153.5065 H   0  0  0  0  0  0  0  0  0  0  0  0  # atno 10764 bound_to 10752
  153.0127  135.5447  154.6617 H   0  0  0  0  0  0  0  0  0  0  0  0  # atno 10765 bound_to 10752
  140.7387  133.8689  155.8950 H   0  0  0  0  0  0  0  0  0  0  0  0  # atno 11005 bound_to 11000
  146.3498  139.9852  142.8691 LP  0  0  0  0  0  0  0  0  0  0  0  0  # atno 17320 bound_to 7965
  145.1777  140.9752  143.4284 LP  0  0  0  0  0  0  0  0  0  0  0  0  # atno 17321 bound_to 7965
  139.6650  144.7662  151.1891 LP  0  0  0  0  0  0  0  0  0  0  0  0  # atno 17342 bound_to 10162
  140.7591  143.5952  150.8755 LP  0  0  0  0  0  0  0  0  0  0  0  0  # atno 17343 bound_to 10162
  156.5364  130.4197  149.6175 LP  0  0  0  0  0  0  0  0  0  0  0  0  # atno 17370 bound_to 10713
  156.3023  130.7184  151.2058 LP  0  0  0  0  0  0  0  0  0  0  0  0  # atno 17371 bound_to 10713
  140.9856  134.1347  157.4455 LP  0  0  0  0  0  0  0  0  0  0  0  0  # atno 17394 bound_to 11000
  139.8811  135.0024  156.6127 LP  0  0  0  0  0  0  0  0  0  0  0  0  # atno 17395 bound_to 11000

$$$$
