AV-unprocessed.smi:915|AV-procd|sdf|4154|dock7
  -GOLD-   22720 2 63D 1   1.00000     0.00000
 Structure written by MMmdl.
 34 35  0  0  0  0  0  0  0  0  1 V2000
  151.4777  140.0452  155.5505 C   0  0  0  0  0  0  0  0  0  0  0  0
  150.4679  141.1976  155.5160 C   0  0  0  0  0  0  0  0  0  0  0  0
  149.2156  140.8350  154.7771 C   0  0  0  0  0  0  0  0  0  0  0  0
  148.1256  141.6413  154.5575 C   0  0  0  0  0  0  0  0  0  0  0  0
  146.8762  140.8220  153.6589 S   0  0  0  0  0  0  0  0  0  0  0  0
  147.8991  139.3948  153.6135 C   0  0  0  0  0  0  0  0  0  0  0  0
  147.4883  138.1962  152.9734 N   0  0  0  0  0  0  0  0  0  0  0  0
  146.2396  137.7209  152.8234 C   0  0  0  0  0  0  0  0  0  0  0  0
  145.2160  138.2681  153.2348 O   0  0  0  0  0  0  0  0  0  0  0  0
  146.2410  136.5569  152.1573 N   0  0  0  0  0  0  0  0  0  0  0  0
  145.0570  135.7684  151.8283 C   0  0  0  0  0  0  0  0  0  0  0  0
  145.4099  134.5004  151.0295 C   0  0  2  0  0  0  0  0  0  0  0  0
  144.2136  133.5836  150.7319 C   0  0  0  0  0  0  0  0  0  0  0  0
  144.7784  132.1909  150.4534 C   0  0  0  0  0  0  0  0  0  0  0  0
  145.8121  131.9219  151.5470 C   0  0  0  0  0  0  0  0  0  0  0  0
  146.6458  133.4914  151.8951 S   0  0  0  0  0  0  0  0  0  0  0  0
  149.0739  139.5547  154.2332 N   0  0  0  0  0  0  0  0  0  0  0  0
  152.3764  140.3322  156.0964 H   0  0  0  0  0  0  0  0  0  0  0  0
  151.7788  139.7546  154.5437 H   0  0  0  0  0  0  0  0  0  0  0  0
  151.0557  139.1676  156.0411 H   0  0  0  0  0  0  0  0  0  0  0  0
  150.2270  141.4930  156.5378 H   0  0  0  0  0  0  0  0  0  0  0  0
  150.9332  142.0698  155.0554 H   0  0  0  0  0  0  0  0  0  0  0  0
  147.9820  142.6646  154.8711 H   0  0  0  0  0  0  0  0  0  0  0  0
  148.2322  137.6344  152.5871 H   0  0  0  0  0  0  0  0  0  0  0  0
  147.1296  136.1840  151.8568 H   0  0  0  0  0  0  0  0  0  0  0  0
  144.5820  135.4851  152.7679 H   0  0  0  0  0  0  0  0  0  0  0  0
  144.3231  136.3688  151.2879 H   0  0  0  0  0  0  0  0  0  0  0  0
  145.8642  134.7894  150.0809 H   0  0  0  0  0  0  0  0  0  0  0  0
  143.5561  133.5341  151.6012 H   0  0  0  0  0  0  0  0  0  0  0  0
  143.6180  133.9524  149.8964 H   0  0  0  0  0  0  0  0  0  0  0  0
  143.9984  131.4293  150.4366 H   0  0  0  0  0  0  0  0  0  0  0  0
  145.2645  132.1825  149.4770 H   0  0  0  0  0  0  0  0  0  0  0  0
  145.3133  131.5924  152.4588 H   0  0  0  0  0  0  0  0  0  0  0  0
  146.5269  131.1505  151.2597 H   0  0  0  0  0  0  0  0  0  0  0  0
  1  2  1  0  0  0  0
  1 18  1  0  0  0  0
  1 19  1  0  0  0  0
  1 20  1  0  0  0  0
  2  3  1  0  0  0  0
  2 21  1  0  0  0  0
  2 22  1  0  0  0  0
  3 17  1  0  0  0  0
  3  4  2  0  0  0  0
  4  5  1  0  0  0  0
  4 23  1  0  0  0  0
  5  6  1  0  0  0  0
  6  7  1  0  0  0  0
  6 17  2  0  0  0  0
  7  8  1  0  0  0  0
  7 24  1  0  0  0  0
  8  9  2  0  0  0  0
  8 10  1  0  0  0  0
 10 11  1  0  0  0  0
 10 25  1  0  0  0  0
 11 12  1  0  0  0  0
 11 26  1  0  0  0  0
 11 27  1  0  0  0  0
 12 16  1  0  0  0  0
 12 13  1  0  0  0  0
 12 28  1  0  0  0  0
 13 14  1  0  0  0  0
 13 29  1  0  0  0  0
 13 30  1  0  0  0  0
 14 15  1  0  0  0  0
 14 31  1  0  0  0  0
 14 32  1  0  0  0  0
 15 16  1  0  0  0  0
 15 33  1  0  0  0  0
 15 34  1  0  0  0  0
M  END
> <s_m_source_file>
AV-unprocessed.smi

> <i_m_source_file_index>
915

> <i_lp_mmshare_version>
43012

> <i_f3d_flags>
0

> <s_epik_input>
W0NIM11bQ0gyXWMxW2NIXXNjKG4xKVtOSF1DKD1PKVtOSF1bQ0gyXVtDQEBIXTJbQ0gyXVtDSDJdW0NIMl1TMg==

> <s_epik_cmdline>
J2VwaWtfcHl0aG9uJywgJy1waCcsICc3LjAnLCAnLXRuJywgJzgnLCAnLW1hJywgJzIwMCcsICctbWV0YWxfYmluZGluZycsICctaW1hZScsICc8aW5maWxlLm1hZT4nLCAnLW9tYWUnLCAnPG91dGZpbGUubWFlPic=

> <r_lp_tautomer_probability>
0.999

> <r_epik_Ionization_Penalty>
0.000460048

> <r_epik_Ionization_Penalty_Charging>
0

> <r_epik_Ionization_Penalty_Neutral>
0.000460048

> <r_epik_State_Penalty>
0.000177984

> <r_epik_Charging_Adjusted_Penalty>
0.000177984

> <i_epik_Tot_Q>
0

> <i_epik_Tot_abs_Q>
0

> <r_epik_Metal_State_Penalty>
0.00612978

> <b_epik_Metal_Only>
0

> <s_lp_Force_Field>
OPLS_2005

> <r_lp_Energy>
7.49707

> <b_lp_Chiralities_Consistent>
1

> <s_lp_Variant>
AV-unprocessed.smi:915-1

> <Gold.Version>
5.8.1

> <Gold.Id.Protein>
6NUR|6NUR_protein|mol2

> <Gold.PLP.Fitness>
40.8486

> <Gold.PLP.PLP>
-32.2444

> <Gold.PLP.part.hbond>
-2.2899

> <Gold.PLP.part.metal>
0.0000

> <Gold.PLP.part.buried>
-3.2101

> <Gold.PLP.part.nonpolar>
-29.8292

> <Gold.PLP.part.repulsive>
2.8789

> <Gold.PLP.ligand.clash>
0.0000

> <Gold.PLP.ligand.torsion>
0.2013

> <Gold.PLP.Chemscore.Hbond>
2.0000

> <Gold.PLP.Chemscore.CHOScore>
1.0000

> <Gold.PLP.Chemscore.Metal>
0.0000

> <Gold.Chemscore.Hbonds>
donor molecule, donor type, donor heavy atom, donor atom, acceptor molecule, acceptor atom, score
      L1  H     7    24       P1  7948  1.00
      L1  H    10    25       P1  7948  1.00
      L1  C     4    23       P1  8028  1.00

> <Gold.PLP.Chemscore.Internal.Correction>
0.0068

> <Gold.Rescore>
     Score         DG    S(hbond)    S(metal)    S(lipo)     H(rot)  DE(clash)    DE(int)     intcor
     15.76     -17.48       1.94        0.00      76.83       1.36       1.49       0.23       ----

> <Gold.Chemscore.Fitness>
15.7602

> <Gold.Chemscore.DG>
-17.4818

> <Gold.Chemscore.ZeroCoef>
-5.4800

> <Gold.Chemscore.Hbond>
1.9447

> <Gold.Chemscore.Metal>
0.0000

> <Gold.Chemscore.Lipo>
76.8290

> <Gold.Chemscore.Internal_Hbond>
0.0000

> <Gold.Chemscore.DEClash>
1.4925

> <Gold.Chemscore.DEInternal>
0.2291

> <Gold.Chemscore.Rot>
1.3603

> <Gold.Chemscore.Internal.Correction>
   9.000000E+99

> <Gold.Chemscore.Hbonds>
donor molecule, donor type, donor heavy atom, donor atom, acceptor molecule, acceptor atom, score
      L1  H     7    24       P1  7948  0.99
      L1  H    10    25       P1  7948  0.96

> <Gold.Chemscore.Hbond.Weighted>
-6.4952

> <Gold.Chemscore.Metal.Weighted>
-0.0000

> <Gold.Chemscore.Lipo.Weighted>
-8.9890

> <Gold.Chemscore.Internal_Hbond.Weighted>
0.0000

> <Gold.Chemscore.DEClash.Weighted>
1.4925

> <Gold.Chemscore.DEInternal.Weighted>
0.2291

> <Gold.Chemscore.Rot.Weighted>
3.4824

> <Gold.Chemscore.Internal.Correction.Weighted>
   9.000000E+99

> <Gold.Protein.RotatedTorsions>
[ 6907 6896 6895 6894 ] final -141.53 input  -60.11 | X-H torsion
[ 7974 7965 7964 7962 ] final -146.93 input  175.53 | X-H torsion
[ 8008 7997 7996 7995 ] final -163.93 input   59.86 | X-H torsion
[ 10167 10162 10161 10158 ] final  118.06 input  -65.29 | X-H torsion
[ 10718 10713 10712 10709 ] final  152.48 input   66.30 | X-H torsion
[ 10763 10752 10751 10750 ] final  -14.18 input  -60.55 | X-H torsion
[ 11005 11000 10999 10996 ] final  -76.55 input  -57.11 | X-H torsion

> <Gold.Protein.ActiveResidues>
 VAL166  LYS551  ARG553  GLY616  TRP617  ASP618  TYR619  PRO620  LYS621  CYS622 
 ASP623  PHE694  ASN695  SER759  ASP760  ASP761  ALA762  ILE779  LEU786  VAL792 
 PHE793  MET794  SER795  GLU796  ALA797  LYS798  CYS799  TRP800  GLU811  SER814 

> <Gold.Protein.RotatedAtoms>
  151.0750  133.5435  159.2624 H   0  0  0  0  0  0  0  0  0  0  0  0  # atno 6907 bound_to 6896
  151.2360  135.0571  159.9016 H   0  0  0  0  0  0  0  0  0  0  0  0  # atno 6908 bound_to 6896
  152.5416  134.0532  159.8173 H   0  0  0  0  0  0  0  0  0  0  0  0  # atno 6909 bound_to 6896
  144.8126  140.5392  143.5632 H   0  0  0  0  0  0  0  0  0  0  0  0  # atno 7974 bound_to 7965
  155.8284  140.0930  157.1807 H   0  0  0  0  0  0  0  0  0  0  0  0  # atno 8008 bound_to 7997
  154.3979  140.1423  156.3644 H   0  0  0  0  0  0  0  0  0  0  0  0  # atno 8009 bound_to 7997
  155.8192  140.3447  155.5506 H   0  0  0  0  0  0  0  0  0  0  0  0  # atno 8010 bound_to 7997
  139.6137  144.7087  151.2787 H   0  0  0  0  0  0  0  0  0  0  0  0  # atno 10167 bound_to 10162
  157.2572  131.0791  151.1690 H   0  0  0  0  0  0  0  0  0  0  0  0  # atno 10718 bound_to 10713
  153.5244  135.7015  153.5715 H   0  0  0  0  0  0  0  0  0  0  0  0  # atno 10763 bound_to 10752
  153.3749  135.3935  155.1815 H   0  0  0  0  0  0  0  0  0  0  0  0  # atno 10764 bound_to 10752
  154.8691  135.3821  154.4736 H   0  0  0  0  0  0  0  0  0  0  0  0  # atno 10765 bound_to 10752
  141.1654  133.6988  156.7686 H   0  0  0  0  0  0  0  0  0  0  0  0  # atno 11005 bound_to 11000
  145.5287  139.1475  143.3511 LP  0  0  0  0  0  0  0  0  0  0  0  0  # atno 17320 bound_to 7965
  146.2427  140.5428  142.8927 LP  0  0  0  0  0  0  0  0  0  0  0  0  # atno 17321 bound_to 7965
  140.7336  143.6789  150.8018 LP  0  0  0  0  0  0  0  0  0  0  0  0  # atno 17342 bound_to 10162
  140.0388  143.5367  152.2727 LP  0  0  0  0  0  0  0  0  0  0  0  0  # atno 17343 bound_to 10162
  157.3214  130.6939  149.6271 LP  0  0  0  0  0  0  0  0  0  0  0  0  # atno 17370 bound_to 10713
  155.9664  130.4334  150.5005 LP  0  0  0  0  0  0  0  0  0  0  0  0  # atno 17371 bound_to 10713
  140.2481  134.8562  157.3640 LP  0  0  0  0  0  0  0  0  0  0  0  0  # atno 17394 bound_to 11000
  140.1730  134.4585  155.7820 LP  0  0  0  0  0  0  0  0  0  0  0  0  # atno 17395 bound_to 11000

$$$$
