AV-unprocessed.smi:2153|AV-procd|sdf|8769|dock8
  -GOLD-   2272011553D 1   1.00000     0.00000
 Structure written by MMmdl.
 48 49  0  0  0  0  0  0  0  0  1 V2000
  154.4516  141.2442  160.1419 C   0  0  0  0  0  0  0  0  0  0  0  0
  153.0716  141.9161  160.0604 C   0  0  1  0  0  0  0  0  0  0  0  0
  153.1070  143.3148  160.7090 C   0  0  0  0  0  0  0  0  0  0  0  0
  151.7391  144.0103  160.6423 C   0  0  0  0  0  0  0  0  0  0  0  0
  151.2436  144.1056  159.1939 C   0  0  0  0  0  0  0  0  0  0  0  0
  151.1962  142.7186  158.5401 C   0  0  0  0  0  0  0  0  0  0  0  0
  152.5596  141.9966  158.6040 C   0  0  2  0  0  0  0  0  0  0  0  0
  152.3959  140.6660  158.1310 O   0  0  0  0  0  0  0  0  0  0  0  0
  151.5775  139.8398  158.9479 C   0  0  0  0  0  0  0  0  0  0  0  0
  151.5148  138.4359  158.3243 C   0  0  0  0  0  0  0  0  0  0  0  0
  150.3239  137.7095  158.7543 N   0  0  0  0  0  0  0  0  0  0  0  0
  150.2427  136.3819  158.9311 C   0  0  0  0  0  0  0  0  0  0  0  0
  151.2056  135.6227  158.8274 O   0  0  0  0  0  0  0  0  0  0  0  0
  148.8556  135.8247  159.2661 C   0  0  0  0  0  0  0  0  0  0  0  0
  148.8617  135.1263  160.5577 N   0  0  0  0  0  0  0  0  0  0  0  0
  148.4618  133.8032  160.6154 C   0  0  0  0  0  0  0  0  0  0  0  0
  148.4680  133.0702  161.7503 C   0  0  0  0  0  0  0  0  0  0  0  0
  148.9177  133.6464  163.0116 C   0  0  0  0  0  0  0  0  0  0  0  0
  148.9388  133.0135  164.0676 O   0  0  0  0  0  0  0  0  0  0  0  0
  149.3282  134.9986  162.9239 N   0  0  0  0  0  0  0  0  0  0  0  0
  149.7967  135.6651  164.1211 C   0  0  0  0  0  0  0  0  0  0  0  0
  149.2962  135.7668  161.7386 C   0  0  0  0  0  0  0  0  0  0  0  0
  149.6372  136.9520  161.7238 O   0  0  0  0  0  0  0  0  0  0  0  0
  155.1974  141.8015  159.5741 H   0  0  0  0  0  0  0  0  0  0  0  0
  154.4233  140.2288  159.7459 H   0  0  0  0  0  0  0  0  0  0  0  0
  154.7970  141.1815  161.1739 H   0  0  0  0  0  0  0  0  0  0  0  0
  152.3712  141.3039  160.6311 H   0  0  0  0  0  0  0  0  0  0  0  0
  153.4225  143.2352  161.7498 H   0  0  0  0  0  0  0  0  0  0  0  0
  153.8523  143.9342  160.2081 H   0  0  0  0  0  0  0  0  0  0  0  0
  151.0153  143.4574  161.2423 H   0  0  0  0  0  0  0  0  0  0  0  0
  151.8056  145.0073  161.0786 H   0  0  0  0  0  0  0  0  0  0  0  0
  150.2532  144.5610  159.1695 H   0  0  0  0  0  0  0  0  0  0  0  0
  151.9014  144.7596  158.6202 H   0  0  0  0  0  0  0  0  0  0  0  0
  150.4549  142.1086  159.0517 H   0  0  0  0  0  0  0  0  0  0  0  0
  150.8498  142.8195  157.5124 H   0  0  0  0  0  0  0  0  0  0  0  0
  153.2950  142.5285  157.9969 H   0  0  0  0  0  0  0  0  0  0  0  0
  151.9575  139.7721  159.9668 H   0  0  0  0  0  0  0  0  0  0  0  0
  150.5798  140.2743  159.0152 H   0  0  0  0  0  0  0  0  0  0  0  0
  151.5396  138.5005  157.2357 H   0  0  0  0  0  0  0  0  0  0  0  0
  152.3897  137.8592  158.6251 H   0  0  0  0  0  0  0  0  0  0  0  0
  149.4802  138.2524  158.8671 H   0  0  0  0  0  0  0  0  0  0  0  0
  148.1291  136.6390  159.2723 H   0  0  0  0  0  0  0  0  0  0  0  0
  148.5307  135.1497  158.4725 H   0  0  0  0  0  0  0  0  0  0  0  0
  148.1295  133.3260  159.7048 H   0  0  0  0  0  0  0  0  0  0  0  0
  148.1422  132.0407  161.7234 H   0  0  0  0  0  0  0  0  0  0  0  0
  150.7023  136.2200  163.8687 H   0  0  0  0  0  0  0  0  0  0  0  0
  150.0429  134.9415  164.8980 H   0  0  0  0  0  0  0  0  0  0  0  0
  148.9964  136.3314  164.4466 H   0  0  0  0  0  0  0  0  0  0  0  0
  1  2  1  0  0  0  0
  1 24  1  0  0  0  0
  1 25  1  0  0  0  0
  1 26  1  0  0  0  0
  2  7  1  0  0  0  0
  2  3  1  0  0  0  0
  2 27  1  0  0  0  0
  3  4  1  0  0  0  0
  3 28  1  0  0  0  0
  3 29  1  0  0  0  0
  4  5  1  0  0  0  0
  4 30  1  0  0  0  0
  4 31  1  0  0  0  0
  5  6  1  0  0  0  0
  5 32  1  0  0  0  0
  5 33  1  0  0  0  0
  6  7  1  0  0  0  0
  6 34  1  0  0  0  0
  6 35  1  0  0  0  0
  7  8  1  0  0  0  0
  7 36  1  0  0  0  0
  8  9  1  0  0  0  0
  9 10  1  0  0  0  0
  9 37  1  0  0  0  0
  9 38  1  0  0  0  0
 10 11  1  0  0  0  0
 10 39  1  0  0  0  0
 10 40  1  0  0  0  0
 11 12  1  0  0  0  0
 11 41  1  0  0  0  0
 12 13  2  0  0  0  0
 12 14  1  0  0  0  0
 14 15  1  0  0  0  0
 14 42  1  0  0  0  0
 14 43  1  0  0  0  0
 15 22  1  0  0  0  0
 15 16  1  0  0  0  0
 16 17  2  0  0  0  0
 16 44  1  0  0  0  0
 17 18  1  0  0  0  0
 17 45  1  0  0  0  0
 18 19  2  0  0  0  0
 18 20  1  0  0  0  0
 20 21  1  0  0  0  0
 20 22  1  0  0  0  0
 21 46  1  0  0  0  0
 21 47  1  0  0  0  0
 21 48  1  0  0  0  0
 22 23  2  0  0  0  0
M  END
> <s_m_source_file>
AV-unprocessed.smi

> <i_m_source_file_index>
2153

> <i_lp_mmshare_version>
43012

> <i_f3d_flags>
0

> <s_epik_input>
W0NIM11bQ0BASF0xW0NIMl1bQ0gyXVtDSDJdW0NIMl1bQ0BIXTFPW0NIMl1bQ0gyXVtOSF1DKD1PKVtDSDJdbjJbY0hdW2NIXWMoPU8pbihbQ0gzXSljMj1P

> <s_epik_cmdline>
J2VwaWtfcHl0aG9uJywgJy1waCcsICc3LjAnLCAnLXRuJywgJzgnLCAnLW1hJywgJzIwMCcsICctbWV0YWxfYmluZGluZycsICctaW1hZScsICc8aW5maWxlLm1hZT4nLCAnLW9tYWUnLCAnPG91dGZpbGUubWFlPic=

> <r_lp_tautomer_probability>
1

> <r_epik_Ionization_Penalty>
4.02205e-08

> <r_epik_Ionization_Penalty_Charging>
1.23606e-08

> <r_epik_Ionization_Penalty_Neutral>
2.78599e-08

> <r_epik_State_Penalty>
-0

> <r_epik_Charging_Adjusted_Penalty>
1.23606e-08

> <i_epik_Tot_Q>
0

> <i_epik_Tot_abs_Q>
0

> <r_epik_Metal_State_Penalty>
-0

> <b_epik_Metal_Only>
0

> <s_lp_Force_Field>
OPLS_2005

> <r_lp_Energy>
17.7366

> <b_lp_Chiralities_Consistent>
1

> <s_lp_Variant>
AV-unprocessed.smi:2153-4

> <Gold.Version>
5.8.1

> <Gold.Id.Protein>
6NUR|6NUR_protein|mol2

> <Gold.PLP.Fitness>
49.5381

> <Gold.PLP.PLP>
-43.1936

> <Gold.PLP.part.hbond>
-3.2639

> <Gold.PLP.part.metal>
0.0000

> <Gold.PLP.part.buried>
-4.8943

> <Gold.PLP.part.nonpolar>
-35.6909

> <Gold.PLP.part.repulsive>
0.1544

> <Gold.PLP.ligand.clash>
0.0000

> <Gold.PLP.ligand.torsion>
0.3392

> <Gold.PLP.Chemscore.Hbond>
2.3200

> <Gold.PLP.Chemscore.CHOScore>
0.0000

> <Gold.PLP.Chemscore.Metal>
0.0000

> <Gold.Chemscore.Hbonds>
donor molecule, donor type, donor heavy atom, donor atom, acceptor molecule, acceptor atom, score
      P1  H  6896  6908       L1    13  0.06
      P1  H  6931  6943       L1    23  0.48

> <Gold.PLP.Chemscore.Internal.Correction>
0.0629

> <Gold.Rescore>
     Score         DG    S(hbond)    S(metal)    S(lipo)     H(rot)  DE(clash)    DE(int)     intcor
     19.81     -20.28       2.69        0.00      97.82       2.20       0.01       0.46       ----

> <Gold.Chemscore.Fitness>
19.8150

> <Gold.Chemscore.DG>
-20.2771

> <Gold.Chemscore.ZeroCoef>
-5.4800

> <Gold.Chemscore.Hbond>
2.6874

> <Gold.Chemscore.Metal>
0.0000

> <Gold.Chemscore.Lipo>
97.8193

> <Gold.Chemscore.Internal_Hbond>
0.0000

> <Gold.Chemscore.DEClash>
0.0060

> <Gold.Chemscore.DEInternal>
0.4561

> <Gold.Chemscore.Rot>
2.1968

> <Gold.Chemscore.Internal.Correction>
   9.000000E+99

> <Gold.Chemscore.Hbonds>
donor molecule, donor type, donor heavy atom, donor atom, acceptor molecule, acceptor atom, score
      P1  H  6896  6908       L1    13  0.01
      P1  H  6931  6943       L1    23  0.48

> <Gold.Chemscore.Hbond.Weighted>
-8.9760

> <Gold.Chemscore.Metal.Weighted>
-0.0000

> <Gold.Chemscore.Lipo.Weighted>
-11.4449

> <Gold.Chemscore.Internal_Hbond.Weighted>
0.0000

> <Gold.Chemscore.DEClash.Weighted>
0.0060

> <Gold.Chemscore.DEInternal.Weighted>
0.4561

> <Gold.Chemscore.Rot.Weighted>
5.6238

> <Gold.Chemscore.Internal.Correction.Weighted>
   9.000000E+99

> <Gold.Protein.RotatedTorsions>
[ 6907 6896 6895 6894 ] final  179.34 input  -60.11 | X-H torsion
[ 7974 7965 7964 7962 ] final  125.18 input  175.53 | X-H torsion
[ 8008 7997 7996 7995 ] final  -91.31 input   59.86 | X-H torsion
[ 10167 10162 10161 10158 ] final  -48.20 input  -65.29 | X-H torsion
[ 10718 10713 10712 10709 ] final  127.85 input   66.30 | X-H torsion
[ 10763 10752 10751 10750 ] final -174.54 input  -60.55 | X-H torsion
[ 11005 11000 10999 10996 ] final   77.19 input  -57.11 | X-H torsion

> <Gold.Protein.ActiveResidues>
 VAL166  LYS551  ARG553  GLY616  TRP617  ASP618  TYR619  PRO620  LYS621  CYS622 
 ASP623  PHE694  ASN695  SER759  ASP760  ASP761  ALA762  ILE779  LEU786  VAL792 
 PHE793  MET794  SER795  GLU796  ALA797  LYS798  CYS799  TRP800  GLU811  SER814 

> <Gold.Protein.RotatedAtoms>
  151.6732  133.3313  159.3201 H   0  0  0  0  0  0  0  0  0  0  0  0  # atno 6907 bound_to 6896
  150.7857  134.6844  159.6471 H   0  0  0  0  0  0  0  0  0  0  0  0  # atno 6908 bound_to 6896
  152.3927  134.6419  160.0153 H   0  0  0  0  0  0  0  0  0  0  0  0  # atno 6909 bound_to 6896
  145.0760  139.3693  143.4933 H   0  0  0  0  0  0  0  0  0  0  0  0  # atno 7974 bound_to 7965
  154.7092  140.0521  157.0533 H   0  0  0  0  0  0  0  0  0  0  0  0  # atno 8008 bound_to 7997
  155.0578  140.3186  155.4651 H   0  0  0  0  0  0  0  0  0  0  0  0  # atno 8009 bound_to 7997
  156.2784  140.2104  156.5705 H   0  0  0  0  0  0  0  0  0  0  0  0  # atno 8010 bound_to 7997
  140.6741  143.2750  151.4036 H   0  0  0  0  0  0  0  0  0  0  0  0  # atno 10167 bound_to 10162
  157.5296  131.1098  150.9029 H   0  0  0  0  0  0  0  0  0  0  0  0  # atno 10718 bound_to 10713
  154.5951  135.2849  155.0595 H   0  0  0  0  0  0  0  0  0  0  0  0  # atno 10763 bound_to 10752
  154.1881  135.6445  153.5056 H   0  0  0  0  0  0  0  0  0  0  0  0  # atno 10764 bound_to 10752
  153.0135  135.5439  154.6650 H   0  0  0  0  0  0  0  0  0  0  0  0  # atno 10765 bound_to 10752
  139.9265  134.7662  156.1490 H   0  0  0  0  0  0  0  0  0  0  0  0  # atno 11005 bound_to 11000
  146.3530  140.0527  142.8635 LP  0  0  0  0  0  0  0  0  0  0  0  0  # atno 17320 bound_to 7965
  145.1235  140.9476  143.4586 LP  0  0  0  0  0  0  0  0  0  0  0  0  # atno 17321 bound_to 7965
  139.6025  144.1266  152.2213 LP  0  0  0  0  0  0  0  0  0  0  0  0  # atno 17342 bound_to 10162
  140.0655  144.5822  150.7231 LP  0  0  0  0  0  0  0  0  0  0  0  0  # atno 17343 bound_to 10162
  156.9615  130.5457  149.5286 LP  0  0  0  0  0  0  0  0  0  0  0  0  # atno 17370 bound_to 10713
  156.0413  130.5495  150.8776 LP  0  0  0  0  0  0  0  0  0  0  0  0  # atno 17371 bound_to 10713
  141.0826  133.6747  156.2369 LP  0  0  0  0  0  0  0  0  0  0  0  0  # atno 17394 bound_to 11000
  140.6321  134.5253  157.5560 LP  0  0  0  0  0  0  0  0  0  0  0  0  # atno 17395 bound_to 11000

$$$$
