AV-unprocessed.smi:2222|AV-procd|sdf|8986|dock4
  -GOLD-   2272012203D 1   1.00000     0.00000
 Structure written by MMmdl.
 34 35  0  0  0  0  0  0  0  0  1 V2000
  151.8929  145.5313  159.2606 C   0  0  0  0  0  0  0  0  0  0  0  0
  151.6129  144.3959  158.4549 O   0  0  0  0  0  0  0  0  0  0  0  0
  152.1251  143.1742  158.8464 C   0  0  0  0  0  0  0  0  0  0  0  0
  153.1020  143.0223  159.8635 C   0  0  0  0  0  0  0  0  0  0  0  0
  153.5641  141.7360  160.1912 C   0  0  0  0  0  0  0  0  0  0  0  0
  153.0319  140.6401  159.4892 C   0  0  0  0  0  0  0  0  0  0  0  0
  153.4858  139.2267  159.7867 C   0  0  0  0  0  0  0  0  0  0  0  0
  152.1032  140.7717  158.5209 N   0  0  0  0  0  0  0  0  0  0  0  0
  151.6481  142.0070  158.1955 C   0  0  0  0  0  0  0  0  0  0  0  0
  150.6712  142.2285  157.1863 N   0  0  0  0  0  0  0  0  0  0  0  0
  150.4300  141.5082  156.0728 C   0  0  0  0  0  0  0  0  0  0  0  0
  151.0173  140.4716  155.7680 O   0  0  0  0  0  0  0  0  0  0  0  0
  149.4387  141.9943  155.3046 N   0  0  0  0  0  0  0  0  0  0  0  0
  148.9423  141.4663  154.0678 C   0  0  1  0  0  0  0  0  0  0  0  0
  148.2177  140.1392  154.1294 C   0  0  0  0  0  0  0  0  0  0  0  0
  147.4431  141.3980  153.8417 C   0  0  1  0  0  0  0  0  0  0  0  0
  146.4505  141.9433  154.8500 C   0  0  0  0  0  0  0  0  0  0  0  0
  151.4269  146.4103  158.8157 H   0  0  0  0  0  0  0  0  0  0  0  0
  152.9651  145.7223  159.3217 H   0  0  0  0  0  0  0  0  0  0  0  0
  151.4870  145.4172  160.2666 H   0  0  0  0  0  0  0  0  0  0  0  0
  153.5074  143.8667  160.3996 H   0  0  0  0  0  0  0  0  0  0  0  0
  154.3086  141.5989  160.9618 H   0  0  0  0  0  0  0  0  0  0  0  0
  154.1318  139.1952  160.6644 H   0  0  0  0  0  0  0  0  0  0  0  0
  154.0404  138.8224  158.9396 H   0  0  0  0  0  0  0  0  0  0  0  0
  152.6266  138.5822  159.9745 H   0  0  0  0  0  0  0  0  0  0  0  0
  150.0917  143.0437  157.3223 H   0  0  0  0  0  0  0  0  0  0  0  0
  148.9399  142.7928  155.6697 H   0  0  0  0  0  0  0  0  0  0  0  0
  149.5597  141.6034  153.1811 H   0  0  0  0  0  0  0  0  0  0  0  0
  148.3688  139.4457  153.3047 H   0  0  0  0  0  0  0  0  0  0  0  0
  148.0894  139.6759  155.1061 H   0  0  0  0  0  0  0  0  0  0  0  0
  147.1238  141.5354  152.8103 H   0  0  0  0  0  0  0  0  0  0  0  0
  146.7615  141.7190  155.8706 H   0  0  0  0  0  0  0  0  0  0  0  0
  145.4693  141.4979  154.6847 H   0  0  0  0  0  0  0  0  0  0  0  0
  146.3640  143.0245  154.7418 H   0  0  0  0  0  0  0  0  0  0  0  0
  1  2  1  0  0  0  0
  1 18  1  0  0  0  0
  1 19  1  0  0  0  0
  1 20  1  0  0  0  0
  2  3  1  0  0  0  0
  3  9  1  0  0  0  0
  3  4  2  0  0  0  0
  4  5  1  0  0  0  0
  4 21  1  0  0  0  0
  5  6  2  0  0  0  0
  5 22  1  0  0  0  0
  6  7  1  0  0  0  0
  6  8  1  0  0  0  0
  7 23  1  0  0  0  0
  7 24  1  0  0  0  0
  7 25  1  0  0  0  0
  8  9  2  0  0  0  0
  9 10  1  0  0  0  0
 10 11  1  0  0  0  0
 10 26  1  0  0  0  0
 11 12  2  0  0  0  0
 11 13  1  0  0  0  0
 13 14  1  0  0  0  0
 13 27  1  0  0  0  0
 14 16  1  0  0  0  0
 14 15  1  0  0  0  0
 14 28  1  0  0  0  0
 15 16  1  0  0  0  0
 15 29  1  0  0  0  0
 15 30  1  0  0  0  0
 16 17  1  0  0  0  0
 16 31  1  0  0  0  0
 17 32  1  0  0  0  0
 17 33  1  0  0  0  0
 17 34  1  0  0  0  0
M  END
> <s_m_source_file>
AV-unprocessed.smi

> <i_m_source_file_index>
2222

> <i_lp_mmshare_version>
43012

> <i_f3d_flags>
0

> <s_epik_input>
W0NIM11PYzFbY0hdW2NIXWMoW0NIM10pbmMxW05IXUMoPU8pW05IXVtDQEBIXTJbQ0gyXVtDQEhdMltDSDNd

> <s_epik_cmdline>
J2VwaWtfcHl0aG9uJywgJy1waCcsICc3LjAnLCAnLXRuJywgJzgnLCAnLW1hJywgJzIwMCcsICctbWV0YWxfYmluZGluZycsICctaW1hZScsICc8aW5maWxlLm1hZT4nLCAnLW9tYWUnLCAnPG91dGZpbGUubWFlPic=

> <r_lp_tautomer_probability>
1

> <r_epik_Ionization_Penalty>
6.59103e-05

> <r_epik_Ionization_Penalty_Charging>
0

> <r_epik_Ionization_Penalty_Neutral>
6.59103e-05

> <r_epik_State_Penalty>
-0

> <r_epik_Charging_Adjusted_Penalty>
0

> <i_epik_Tot_Q>
0

> <i_epik_Tot_abs_Q>
0

> <r_epik_Metal_State_Penalty>
-0

> <b_epik_Metal_Only>
0

> <s_lp_Force_Field>
OPLS_2005

> <r_lp_Energy>
34.1661

> <b_lp_Chiralities_Consistent>
1

> <s_lp_Variant>
AV-unprocessed.smi:2222-2

> <Gold.Version>
5.8.1

> <Gold.Id.Protein>
6NUR|6NUR_protein|mol2

> <Gold.PLP.Fitness>
40.2819

> <Gold.PLP.PLP>
-37.8449

> <Gold.PLP.part.hbond>
-1.2968

> <Gold.PLP.part.metal>
0.0000

> <Gold.PLP.part.buried>
-4.1249

> <Gold.PLP.part.nonpolar>
-31.9067

> <Gold.PLP.part.repulsive>
0.3410

> <Gold.PLP.ligand.clash>
0.0000

> <Gold.PLP.ligand.torsion>
0.4412

> <Gold.PLP.Chemscore.Hbond>
1.0939

> <Gold.PLP.Chemscore.CHOScore>
0.0000

> <Gold.PLP.Chemscore.Metal>
0.0000

> <Gold.Chemscore.Hbonds>
donor molecule, donor type, donor heavy atom, donor atom, acceptor molecule, acceptor atom, score
      L1  H    13    27       P1  8028  0.86
      P1  H  7989  7998       L1    12  0.12

> <Gold.PLP.Chemscore.Internal.Correction>
0.0376

> <Gold.Rescore>
     Score         DG    S(hbond)    S(metal)    S(lipo)     H(rot)  DE(clash)    DE(int)     intcor
     15.10     -18.38       1.65        0.00      89.88       1.22       1.90       1.38       ----

> <Gold.Chemscore.Fitness>
15.1035

> <Gold.Chemscore.DG>
-18.3846

> <Gold.Chemscore.ZeroCoef>
-5.4800

> <Gold.Chemscore.Hbond>
1.6479

> <Gold.Chemscore.Metal>
0.0000

> <Gold.Chemscore.Lipo>
89.8760

> <Gold.Chemscore.Internal_Hbond>
0.0000

> <Gold.Chemscore.DEClash>
1.8971

> <Gold.Chemscore.DEInternal>
1.3840

> <Gold.Chemscore.Rot>
1.2168

> <Gold.Chemscore.Internal.Correction>
   9.000000E+99

> <Gold.Chemscore.Hbonds>
donor molecule, donor type, donor heavy atom, donor atom, acceptor molecule, acceptor atom, score
      L1  H    13    27       P1  8028  0.86
      P1  H  7989  7998       L1    12  0.05

> <Gold.Chemscore.Hbond.Weighted>
-5.5041

> <Gold.Chemscore.Metal.Weighted>
-0.0000

> <Gold.Chemscore.Lipo.Weighted>
-10.5155

> <Gold.Chemscore.Internal_Hbond.Weighted>
0.0000

> <Gold.Chemscore.DEClash.Weighted>
1.8971

> <Gold.Chemscore.DEInternal.Weighted>
1.3840

> <Gold.Chemscore.Rot.Weighted>
3.1150

> <Gold.Chemscore.Internal.Correction.Weighted>
   9.000000E+99

> <Gold.Protein.RotatedTorsions>
[ 6907 6896 6895 6894 ] final -128.45 input  -60.11 | X-H torsion
[ 7974 7965 7964 7962 ] final  122.24 input  175.53 | X-H torsion
[ 8008 7997 7996 7995 ] final  -80.84 input   59.86 | X-H torsion
[ 10167 10162 10161 10158 ] final  141.62 input  -65.29 | X-H torsion
[ 10718 10713 10712 10709 ] final  166.46 input   66.30 | X-H torsion
[ 10763 10752 10751 10750 ] final -140.31 input  -60.55 | X-H torsion
[ 11005 11000 10999 10996 ] final  168.96 input  -57.11 | X-H torsion

> <Gold.Protein.ActiveResidues>
 VAL166  LYS551  ARG553  GLY616  TRP617  ASP618  TYR619  PRO620  LYS621  CYS622 
 ASP623  PHE694  ASN695  SER759  ASP760  ASP761  ALA762  ILE779  LEU786  VAL792 
 PHE793  MET794  SER795  GLU796  ALA797  LYS798  CYS799  TRP800  GLU811  SER814 

> <Gold.Protein.RotatedAtoms>
  150.9180  133.6915  159.2838 H   0  0  0  0  0  0  0  0  0  0  0  0  # atno 6907 bound_to 6896
  151.4379  135.1016  159.9671 H   0  0  0  0  0  0  0  0  0  0  0  0  # atno 6908 bound_to 6896
  152.4965  133.8595  159.7298 H   0  0  0  0  0  0  0  0  0  0  0  0  # atno 6909 bound_to 6896
  145.1098  139.3460  143.4769 H   0  0  0  0  0  0  0  0  0  0  0  0  # atno 7974 bound_to 7965
  154.5923  140.0657  156.9256 H   0  0  0  0  0  0  0  0  0  0  0  0  # atno 8008 bound_to 7997
  155.2273  140.3335  155.4289 H   0  0  0  0  0  0  0  0  0  0  0  0  # atno 8009 bound_to 7997
  156.2264  140.1821  156.7336 H   0  0  0  0  0  0  0  0  0  0  0  0  # atno 8010 bound_to 7997
  139.5015  144.6159  151.6164 H   0  0  0  0  0  0  0  0  0  0  0  0  # atno 10167 bound_to 10162
  157.0655  131.0352  151.2631 H   0  0  0  0  0  0  0  0  0  0  0  0  # atno 10718 bound_to 10713
  154.8582  135.3557  154.5687 H   0  0  0  0  0  0  0  0  0  0  0  0  # atno 10763 bound_to 10752
  153.6301  135.7002  153.5283 H   0  0  0  0  0  0  0  0  0  0  0  0  # atno 10764 bound_to 10752
  153.3057  135.4193  155.1251 H   0  0  0  0  0  0  0  0  0  0  0  0  # atno 10765 bound_to 10752
  140.2927  134.7660  157.3852 H   0  0  0  0  0  0  0  0  0  0  0  0  # atno 11005 bound_to 11000
  146.3526  140.1013  142.8608 LP  0  0  0  0  0  0  0  0  0  0  0  0  # atno 17320 bound_to 7965
  145.0859  140.9252  143.4797 LP  0  0  0  0  0  0  0  0  0  0  0  0  # atno 17321 bound_to 7965
  140.5847  143.9884  150.6289 LP  0  0  0  0  0  0  0  0  0  0  0  0  # atno 17342 bound_to 10162
  140.3045  143.3238  152.0939 LP  0  0  0  0  0  0  0  0  0  0  0  0  # atno 17343 bound_to 10162
  157.4920  130.7828  149.7517 LP  0  0  0  0  0  0  0  0  0  0  0  0  # atno 17370 bound_to 10713
  155.9966  130.3905  150.2774 LP  0  0  0  0  0  0  0  0  0  0  0  0  # atno 17371 bound_to 10713
  140.1180  134.5257  155.8208 LP  0  0  0  0  0  0  0  0  0  0  0  0  # atno 17394 bound_to 11000
  141.2143  133.6746  156.6813 LP  0  0  0  0  0  0  0  0  0  0  0  0  # atno 17395 bound_to 11000

$$$$
