AV-unprocessed.smi:1803|AV-procd|sdf|7285|dock1
  -GOLD-   22720 8543D 1   1.00000     0.00000
 Structure written by MMmdl.
 36 38  0  0  0  0  0  0  0  0  2 V2000
  145.4680  138.5109  153.2668 O   0  0  0  0  0  0  0  0  0  0  0  0
  146.3542  137.7174  152.9555 C   0  0  0  0  0  0  0  0  0  0  0  0
  147.6571  138.0094  153.1540 N   0  0  0  0  0  0  0  0  0  0  0  0
  148.2878  139.1636  153.7035 C   0  0  0  0  0  0  0  0  0  0  0  0
  149.5517  139.1928  154.1576 N   0  0  0  0  0  0  0  0  0  0  0  0
  149.9141  140.4520  154.6152 N   0  0  0  0  0  0  0  0  0  0  0  0
  148.9160  141.3290  154.4772 C   0  0  0  0  0  0  0  0  0  0  0  0
  147.4357  140.7000  153.7750 S   0  0  0  0  0  0  0  0  0  0  0  0
  146.0921  136.5201  152.4059 N   0  0  0  0  0  0  0  0  0  0  0  0
  144.7632  136.0253  152.0615 C   0  0  2  0  0  0  0  0  0  0  0  0
  144.0121  135.4400  153.2504 C   0  0  0  0  0  0  0  0  0  0  0  0
  142.9314  134.5808  152.5867 C   0  0  0  0  0  0  0  0  0  0  0  0
  143.4584  134.1756  151.2601 N   0  3  2  0  0  0  0  0  0  0  0  0
  143.4745  132.7044  151.0400 C   0  0  0  0  0  0  0  0  0  0  0  0
  144.3750  132.3353  149.8517 C   0  0  0  0  0  0  0  0  0  0  0  0
  145.8376  132.7496  150.1015 C   0  0  0  0  0  0  0  0  0  0  0  0
  145.9596  133.8944  151.1253 C   0  0  0  0  0  0  0  0  0  0  0  0
  144.7594  134.8700  151.0425 C   0  0  2  0  0  0  0  0  0  0  0  0
  148.2922  137.2553  152.9358 H   0  0  0  0  0  0  0  0  0  0  0  0
  149.0537  142.3541  154.7875 H   0  0  0  0  0  0  0  0  0  0  0  0
  146.8758  135.9226  152.1831 H   0  0  0  0  0  0  0  0  0  0  0  0
  144.1658  136.8490  151.6642 H   0  0  0  0  0  0  0  0  0  0  0  0
  144.6751  134.8074  153.8427 H   0  0  0  0  0  0  0  0  0  0  0  0
  143.5981  136.2035  153.9100 H   0  0  0  0  0  0  0  0  0  0  0  0
  142.6505  133.7347  153.2154 H   0  0  0  0  0  0  0  0  0  0  0  0
  142.0316  135.1744  152.4215 H   0  0  0  0  0  0  0  0  0  0  0  0
  143.8351  132.1928  151.9343 H   0  0  0  0  0  0  0  0  0  0  0  0
  142.4538  132.3604  150.8703 H   0  0  0  0  0  0  0  0  0  0  0  0
  144.3201  131.2656  149.6474 H   0  0  0  0  0  0  0  0  0  0  0  0
  144.0025  132.8356  148.9566 H   0  0  0  0  0  0  0  0  0  0  0  0
  146.4149  131.8951  150.4563 H   0  0  0  0  0  0  0  0  0  0  0  0
  146.2885  133.0462  149.1537 H   0  0  0  0  0  0  0  0  0  0  0  0
  146.0142  133.4752  152.1309 H   0  0  0  0  0  0  0  0  0  0  0  0
  146.9043  134.4139  150.9635 H   0  0  0  0  0  0  0  0  0  0  0  0
  144.7509  135.2916  150.0362 H   0  0  0  0  0  0  0  0  0  0  0  0
  142.8254  134.5624  150.5745 H   0  0  0  0  0  0  0  0  0  0  0  0
  1  2  2  0  0  0  0
  2  3  1  0  0  0  0
  2  9  1  0  0  0  0
  3  4  1  0  0  0  0
  3 19  1  0  0  0  0
  4  8  1  0  0  0  0
  4  5  2  0  0  0  0
  5  6  1  0  0  0  0
  6  7  2  0  0  0  0
  7  8  1  0  0  0  0
  7 20  1  0  0  0  0
  9 10  1  0  0  0  0
  9 21  1  0  0  0  0
 10 18  1  0  0  0  0
 10 11  1  0  0  0  0
 10 22  1  0  0  0  0
 11 12  1  0  0  0  0
 11 23  1  0  0  0  0
 11 24  1  0  0  0  0
 12 13  1  0  0  0  0
 12 25  1  0  0  0  0
 12 26  1  0  0  0  0
 13 18  1  0  0  0  0
 13 14  1  0  0  0  0
 13 36  1  0  0  0  0
 14 15  1  0  0  0  0
 14 27  1  0  0  0  0
 14 28  1  0  0  0  0
 15 16  1  0  0  0  0
 15 29  1  0  0  0  0
 15 30  1  0  0  0  0
 16 17  1  0  0  0  0
 16 31  1  0  0  0  0
 16 32  1  0  0  0  0
 17 18  1  0  0  0  0
 17 33  1  0  0  0  0
 17 34  1  0  0  0  0
 18 35  1  0  0  0  0
M  CHG  1  13   1
M  END
> <s_m_source_file>
AV-unprocessed.smi

> <i_m_source_file_index>
1803

> <i_lp_mmshare_version>
43012

> <i_f3d_flags>
0

> <s_epik_input>
czFbY0hdbm5jMVtOSF1DKD1PKVtOSF1bQ0BIXShbQ0gyXVtDSDJdMilbQ0BASF0oTjIzKVtDSDJdW0NIMl1bQ0gyXVtDSDJdMw==

> <s_epik_cmdline>
J2VwaWtfcHl0aG9uJywgJy1waCcsICc3LjAnLCAnLXRuJywgJzgnLCAnLW1hJywgJzIwMCcsICctbWV0YWxfYmluZGluZycsICctaW1hZScsICc8aW5maWxlLm1hZT4nLCAnLW9tYWUnLCAnPG91dGZpbGUubWFlPic=

> <r_lp_tautomer_probability>
1

> <r_epik_Ionization_Penalty>
0.00213286

> <r_epik_Ionization_Penalty_Charging>
0.00107044

> <r_epik_Ionization_Penalty_Neutral>
0.00106242

> <r_epik_State_Penalty>
-0

> <r_epik_Charging_Adjusted_Penalty>
0.00107044

> <i_epik_Tot_Q>
1

> <i_epik_Tot_abs_Q>
1

> <r_epik_Metal_State_Penalty>
0.292783

> <b_epik_Metal_Only>
0

> <s_lp_Force_Field>
OPLS_2005

> <r_lp_Energy>
41.7848

> <b_lp_Chiralities_Consistent>
1

> <s_lp_Variant>
AV-unprocessed.smi:1803-7

> <Gold.Version>
5.8.1

> <Gold.Id.Protein>
6NUR|6NUR_protein|mol2

> <Gold.PLP.Fitness>
45.3348

> <Gold.PLP.PLP>
-30.3828

> <Gold.PLP.part.hbond>
-3.9791

> <Gold.PLP.part.metal>
0.0000

> <Gold.PLP.part.buried>
-4.3682

> <Gold.PLP.part.nonpolar>
-25.5970

> <Gold.PLP.part.repulsive>
3.3640

> <Gold.PLP.ligand.clash>
0.0000

> <Gold.PLP.ligand.torsion>
0.3697

> <Gold.PLP.Chemscore.Hbond>
4.2294

> <Gold.PLP.Chemscore.CHOScore>
1.0000

> <Gold.PLP.Chemscore.Metal>
0.0000

> <Gold.Chemscore.Hbonds>
donor molecule, donor type, donor heavy atom, donor atom, acceptor molecule, acceptor atom, score
      L1  H     3    19       P1  7948  1.00
      L1  H     9    21       P1  7948  0.58
      L1  H    13    36       P1 10186  1.71
      P1  H  7989  7998       L1     6  0.79
      L1  C     7    20       P1  8028  1.00

> <Gold.PLP.Chemscore.Internal.Correction>
0.0032

> <Gold.Rescore>
     Score         DG    S(hbond)    S(metal)    S(lipo)     H(rot)  DE(clash)    DE(int)     intcor
     16.29     -18.00       2.25        0.00      64.61       1.00       0.37       1.34       ----

> <Gold.Chemscore.Fitness>
16.2943

> <Gold.Chemscore.DG>
-17.9996

> <Gold.Chemscore.ZeroCoef>
-5.4800

> <Gold.Chemscore.Hbond>
2.2515

> <Gold.Chemscore.Metal>
0.0000

> <Gold.Chemscore.Lipo>
64.6108

> <Gold.Chemscore.Internal_Hbond>
0.0000

> <Gold.Chemscore.DEClash>
0.3663

> <Gold.Chemscore.DEInternal>
1.3390

> <Gold.Chemscore.Rot>
1.0000

> <Gold.Chemscore.Internal.Correction>
   9.000000E+99

> <Gold.Chemscore.Hbonds>
donor molecule, donor type, donor heavy atom, donor atom, acceptor molecule, acceptor atom, score
      L1  H     3    19       P1  7948  0.94
      L1  H     9    21       P1  7948  0.58
      L1  H    13    36       P1 10186  0.28
      P1  H  7989  7998       L1     6  0.25

> <Gold.Chemscore.Hbond.Weighted>
-7.5202

> <Gold.Chemscore.Metal.Weighted>
-0.0000

> <Gold.Chemscore.Lipo.Weighted>
-7.5595

> <Gold.Chemscore.Internal_Hbond.Weighted>
0.0000

> <Gold.Chemscore.DEClash.Weighted>
0.3663

> <Gold.Chemscore.DEInternal.Weighted>
1.3390

> <Gold.Chemscore.Rot.Weighted>
2.5600

> <Gold.Chemscore.Internal.Correction.Weighted>
   9.000000E+99

> <Gold.Protein.RotatedTorsions>
[ 6907 6896 6895 6894 ] final -113.41 input  -60.11 | X-H torsion
[ 7974 7965 7964 7962 ] final  111.03 input  175.53 | X-H torsion
[ 8008 7997 7996 7995 ] final  -26.93 input   59.86 | X-H torsion
[ 10167 10162 10161 10158 ] final  -50.81 input  -65.29 | X-H torsion
[ 10718 10713 10712 10709 ] final   16.62 input   66.30 | X-H torsion
[ 10763 10752 10751 10750 ] final -172.70 input  -60.55 | X-H torsion
[ 11005 11000 10999 10996 ] final   91.70 input  -57.11 | X-H torsion

> <Gold.Protein.ActiveResidues>
 VAL166  LYS551  ARG553  GLY616  TRP617  ASP618  TYR619  PRO620  LYS621  CYS622 
 ASP623  PHE694  ASN695  SER759  ASP760  ASP761  ALA762  ILE779  LEU786  VAL792 
 PHE793  MET794  SER795  GLU796  ALA797  LYS798  CYS799  TRP800  GLU811  SER814 

> <Gold.Protein.RotatedAtoms>
  150.7827  133.8949  159.3323 H   0  0  0  0  0  0  0  0  0  0  0  0  # atno 6907 bound_to 6896
  151.6807  135.0960  160.0225 H   0  0  0  0  0  0  0  0  0  0  0  0  # atno 6908 bound_to 6896
  152.3883  133.6604  159.6252 H   0  0  0  0  0  0  0  0  0  0  0  0  # atno 6909 bound_to 6896
  145.2474  139.2754  143.4085 H   0  0  0  0  0  0  0  0  0  0  0  0  # atno 7974 bound_to 7965
  154.4401  140.1886  156.0853 H   0  0  0  0  0  0  0  0  0  0  0  0  # atno 8008 bound_to 7997
  156.0407  140.3320  155.7214 H   0  0  0  0  0  0  0  0  0  0  0  0  # atno 8009 bound_to 7997
  155.5703  140.0612  157.2799 H   0  0  0  0  0  0  0  0  0  0  0  0  # atno 8010 bound_to 7997
  140.6619  143.2643  151.4412 H   0  0  0  0  0  0  0  0  0  0  0  0  # atno 10167 bound_to 10162
  157.0704  130.6346  149.5804 H   0  0  0  0  0  0  0  0  0  0  0  0  # atno 10718 bound_to 10713
  154.6163  135.2870  155.0376 H   0  0  0  0  0  0  0  0  0  0  0  0  # atno 10763 bound_to 10752
  154.1587  135.6491  153.4984 H   0  0  0  0  0  0  0  0  0  0  0  0  # atno 10764 bound_to 10752
  153.0216  135.5373  154.6936 H   0  0  0  0  0  0  0  0  0  0  0  0  # atno 10765 bound_to 10752
  139.8834  134.8690  156.3466 H   0  0  0  0  0  0  0  0  0  0  0  0  # atno 11005 bound_to 11000
  146.3312  140.2855  142.8612 LP  0  0  0  0  0  0  0  0  0  0  0  0  # atno 17320 bound_to 7965
  144.9534  140.8202  143.5558 LP  0  0  0  0  0  0  0  0  0  0  0  0  # atno 17321 bound_to 7965
  139.5856  144.1612  152.2024 LP  0  0  0  0  0  0  0  0  0  0  0  0  # atno 17342 bound_to 10162
  140.0951  144.5588  150.7028 LP  0  0  0  0  0  0  0  0  0  0  0  0  # atno 17343 bound_to 10162
  155.9952  130.5018  150.7450 LP  0  0  0  0  0  0  0  0  0  0  0  0  # atno 17370 bound_to 10713
  157.4883  131.0908  151.0457 LP  0  0  0  0  0  0  0  0  0  0  0  0  # atno 17371 bound_to 10713
  140.9622  133.7381  156.0417 LP  0  0  0  0  0  0  0  0  0  0  0  0  # atno 17394 bound_to 11000
  140.7975  134.3547  157.5448 LP  0  0  0  0  0  0  0  0  0  0  0  0  # atno 17395 bound_to 11000

$$$$
