AV-unprocessed.smi:1995|AV-procd|sdf|8083|dock2
  -GOLD-   2272010293D 1   1.00000     0.00000
 Structure written by MMmdl.
 42 43  0  0  0  0  0  0  0  0  3 V2000
  144.3975  135.3880  150.4162 C   0  0  0  0  0  0  0  0  0  0  0  0
  145.7923  135.3705  151.0659 C   0  0  0  0  0  0  0  0  0  0  0  0
  145.8290  135.3577  152.6245 C   0  0  2  0  0  0  0  0  0  0  0  0
  144.5525  134.6569  153.1627 C   0  0  0  0  0  0  0  0  0  0  0  0
  145.8151  136.8144  153.1792 C   0  0  0  0  0  0  0  0  0  0  0  0
  147.1586  137.3923  153.2514 N   0  0  0  0  0  0  0  0  0  0  0  0
  147.5017  138.5575  153.8186 C   0  0  0  0  0  0  0  0  0  0  0  0
  146.6680  139.2078  154.4517 O   0  0  0  0  0  0  0  0  0  0  0  0
  148.7847  138.9120  153.5894 N   0  5  0  0  0  0  0  0  0  0  0  0
  149.3748  139.8281  154.3740 C   0  0  0  0  0  0  0  0  0  0  0  0
  150.5748  139.6408  154.9359 N   0  0  0  0  0  0  0  0  0  0  0  0
  150.9978  140.7207  155.7131 C   0  0  0  0  0  0  0  0  0  0  0  0
  150.0959  141.7508  155.7487 C   0  0  0  0  0  0  0  0  0  0  0  0
  148.6800  141.3936  154.8015 S   0  0  0  0  0  0  0  0  0  0  0  0
  147.0696  134.6580  153.1258 N   0  3  0  0  0  0  0  0  0  0  0  0
  147.3049  134.6526  154.5963 C   0  0  0  0  0  0  0  0  0  0  0  0
  148.7101  134.1029  154.9050 C   0  0  0  0  0  0  0  0  0  0  0  0
  148.8681  132.8053  154.3463 O   0  0  0  0  0  0  0  0  0  0  0  0
  148.7163  132.8169  152.9331 C   0  0  0  0  0  0  0  0  0  0  0  0
  147.2954  133.2869  152.5906 C   0  0  0  0  0  0  0  0  0  0  0  0
  144.4867  135.4313  149.3306 H   0  0  0  0  0  0  0  0  0  0  0  0
  143.8151  136.2554  150.7251 H   0  0  0  0  0  0  0  0  0  0  0  0
  143.8252  134.4914  150.6528 H   0  0  0  0  0  0  0  0  0  0  0  0
  146.3295  134.5023  150.6828 H   0  0  0  0  0  0  0  0  0  0  0  0
  146.3261  136.2426  150.6883 H   0  0  0  0  0  0  0  0  0  0  0  0
  143.6600  135.2600  152.9949 H   0  0  0  0  0  0  0  0  0  0  0  0
  144.6094  134.4809  154.2377 H   0  0  0  0  0  0  0  0  0  0  0  0
  144.3760  133.6977  152.6749 H   0  0  0  0  0  0  0  0  0  0  0  0
  145.1478  137.4536  152.6006 H   0  0  0  0  0  0  0  0  0  0  0  0
  145.4119  136.8320  154.1916 H   0  0  0  0  0  0  0  0  0  0  0  0
  147.8891  136.8913  152.7668 H   0  0  0  0  0  0  0  0  0  0  0  0
  151.9561  140.6696  156.2079 H   0  0  0  0  0  0  0  0  0  0  0  0
  150.1759  142.6918  156.2718 H   0  0  0  0  0  0  0  0  0  0  0  0
  147.2551  135.6528  155.0223 H   0  0  0  0  0  0  0  0  0  0  0  0
  146.5436  134.0501  155.0934 H   0  0  0  0  0  0  0  0  0  0  0  0
  149.4800  134.7712  154.5150 H   0  0  0  0  0  0  0  0  0  0  0  0
  148.8604  134.0421  155.9830 H   0  0  0  0  0  0  0  0  0  0  0  0
  149.4670  133.4612  152.4718 H   0  0  0  0  0  0  0  0  0  0  0  0
  148.8816  131.8090  152.5524 H   0  0  0  0  0  0  0  0  0  0  0  0
  146.5777  132.5894  153.0239 H   0  0  0  0  0  0  0  0  0  0  0  0
  147.1567  133.2512  151.5121 H   0  0  0  0  0  0  0  0  0  0  0  0
  147.8251  135.2156  152.7507 H   0  0  0  0  0  0  0  0  0  0  0  0
  1  2  1  0  0  0  0
  1 21  1  0  0  0  0
  1 22  1  0  0  0  0
  1 23  1  0  0  0  0
  2  3  1  0  0  0  0
  2 24  1  0  0  0  0
  2 25  1  0  0  0  0
  3  4  1  0  0  0  0
  3  5  1  0  0  0  0
  3 15  1  0  0  0  0
  4 26  1  0  0  0  0
  4 27  1  0  0  0  0
  4 28  1  0  0  0  0
  5  6  1  0  0  0  0
  5 29  1  0  0  0  0
  5 30  1  0  0  0  0
  6  7  1  0  0  0  0
  6 31  1  0  0  0  0
  7  8  2  0  0  0  0
  7  9  1  0  0  0  0
  9 10  1  0  0  0  0
 10 14  1  0  0  0  0
 10 11  2  0  0  0  0
 11 12  1  0  0  0  0
 12 13  2  0  0  0  0
 12 32  1  0  0  0  0
 13 14  1  0  0  0  0
 13 33  1  0  0  0  0
 15 20  1  0  0  0  0
 15 16  1  0  0  0  0
 15 42  1  0  0  0  0
 16 17  1  0  0  0  0
 16 34  1  0  0  0  0
 16 35  1  0  0  0  0
 17 18  1  0  0  0  0
 17 36  1  0  0  0  0
 17 37  1  0  0  0  0
 18 19  1  0  0  0  0
 19 20  1  0  0  0  0
 19 38  1  0  0  0  0
 19 39  1  0  0  0  0
 20 40  1  0  0  0  0
 20 41  1  0  0  0  0
M  CHG  1   9  -1
M  CHG  1  15   1
M  END
> <s_m_source_file>
AV-unprocessed.smi

> <i_m_source_file_index>
1995

> <i_lp_mmshare_version>
43012

> <i_f3d_flags>
0

> <s_epik_input>
W0NIMl0xW0NIMl1PW0NIMl1bQ0gyXU4xW0NAQF0oW0NIM10pKFtDSDJdW0NIM10pW0NIMl1bTkhdQyg9TylbTkhdYzJuW2NIXVtjSF1zMg==

> <s_epik_cmdline>
J2VwaWtfcHl0aG9uJywgJy1waCcsICc3LjAnLCAnLXRuJywgJzgnLCAnLW1hJywgJzIwMCcsICctbWV0YWxfYmluZGluZycsICctaW1hZScsICc8aW5maWxlLm1hZT4nLCAnLW9tYWUnLCAnPG91dGZpbGUubWFlPic=

> <r_lp_tautomer_probability>
0.999

> <r_epik_Ionization_Penalty>
8.09417

> <r_epik_Ionization_Penalty_Charging>
6.70334

> <r_epik_Ionization_Penalty_Neutral>
1.39083

> <r_epik_State_Penalty>
6.86521

> <r_epik_Charging_Adjusted_Penalty>
13.5685

> <i_epik_Tot_Q>
0

> <i_epik_Tot_abs_Q>
2

> <r_epik_Metal_State_Penalty>
2.79608

> <b_epik_Metal_Only>
1

> <s_lp_Force_Field>
OPLS_2005

> <r_lp_Energy>
20.9753

> <b_lp_Chiralities_Consistent>
1

> <s_lp_Variant>
AV-unprocessed.smi:1995-8

> <Gold.Version>
5.8.1

> <Gold.Id.Protein>
6NUR|6NUR_protein|mol2

> <Gold.PLP.Fitness>
37.9529

> <Gold.PLP.PLP>
-29.0420

> <Gold.PLP.part.hbond>
-2.4296

> <Gold.PLP.part.metal>
0.0000

> <Gold.PLP.part.buried>
-4.1234

> <Gold.PLP.part.nonpolar>
-25.0332

> <Gold.PLP.part.repulsive>
2.4368

> <Gold.PLP.ligand.clash>
0.0000

> <Gold.PLP.ligand.torsion>
1.5511

> <Gold.PLP.Chemscore.Hbond>
3.0000

> <Gold.PLP.Chemscore.CHOScore>
0.8660

> <Gold.PLP.Chemscore.Metal>
0.0000

> <Gold.Chemscore.Hbonds>
donor molecule, donor type, donor heavy atom, donor atom, acceptor molecule, acceptor atom, score
      L1  H     6    31       P1  7948  1.00
      L1  H    15    42       P1  7948  2.00
      L1  C    13    33       P1  8028  0.88

> <Gold.PLP.Chemscore.Internal.Correction>
0.4150

> <Gold.Rescore>
     Score         DG    S(hbond)    S(metal)    S(lipo)     H(rot)  DE(clash)    DE(int)     intcor
     11.99     -14.83       2.00        0.00      61.16       1.75       0.25       2.59       ----

> <Gold.Chemscore.Fitness>
11.9893

> <Gold.Chemscore.DG>
-14.8263

> <Gold.Chemscore.ZeroCoef>
-5.4800

> <Gold.Chemscore.Hbond>
1.9989

> <Gold.Chemscore.Metal>
0.0000

> <Gold.Chemscore.Lipo>
61.1617

> <Gold.Chemscore.Internal_Hbond>
0.0000

> <Gold.Chemscore.DEClash>
0.2489

> <Gold.Chemscore.DEInternal>
2.5880

> <Gold.Chemscore.Rot>
1.7523

> <Gold.Chemscore.Internal.Correction>
   9.000000E+99

> <Gold.Chemscore.Hbonds>
donor molecule, donor type, donor heavy atom, donor atom, acceptor molecule, acceptor atom, score
      L1  H     6    31       P1  7948  0.94
      L1  H    15    42       P1  7948  1.00

> <Gold.Chemscore.Hbond.Weighted>
-6.6762

> <Gold.Chemscore.Metal.Weighted>
-0.0000

> <Gold.Chemscore.Lipo.Weighted>
-7.1559

> <Gold.Chemscore.Internal_Hbond.Weighted>
0.0000

> <Gold.Chemscore.DEClash.Weighted>
0.2489

> <Gold.Chemscore.DEInternal.Weighted>
2.5880

> <Gold.Chemscore.Rot.Weighted>
4.4858

> <Gold.Chemscore.Internal.Correction.Weighted>
   9.000000E+99

> <Gold.Protein.RotatedTorsions>
[ 6907 6896 6895 6894 ] final  102.92 input  -60.11 | X-H torsion
[ 7974 7965 7964 7962 ] final   51.84 input  175.53 | X-H torsion
[ 8008 7997 7996 7995 ] final -136.79 input   59.86 | X-H torsion
[ 10167 10162 10161 10158 ] final   95.48 input  -65.29 | X-H torsion
[ 10718 10713 10712 10709 ] final -164.30 input   66.30 | X-H torsion
[ 10763 10752 10751 10750 ] final   77.51 input  -60.55 | X-H torsion
[ 11005 11000 10999 10996 ] final   60.37 input  -57.11 | X-H torsion

> <Gold.Protein.ActiveResidues>
 VAL166  LYS551  ARG553  GLY616  TRP617  ASP618  TYR619  PRO620  LYS621  CYS622 
 ASP623  PHE694  ASN695  SER759  ASP760  ASP761  ALA762  ILE779  LEU786  VAL792 
 PHE793  MET794  SER795  GLU796  ALA797  LYS798  CYS799  TRP800  GLU811  SER814 

> <Gold.Protein.RotatedAtoms>
  152.5310  133.9903  159.7847 H   0  0  0  0  0  0  0  0  0  0  0  0  # atno 6907 bound_to 6896
  151.0140  133.5931  159.2686 H   0  0  0  0  0  0  0  0  0  0  0  0  # atno 6908 bound_to 6896
  151.2995  135.0771  159.9286 H   0  0  0  0  0  0  0  0  0  0  0  0  # atno 6909 bound_to 6896
  145.9873  139.4303  143.0095 H   0  0  0  0  0  0  0  0  0  0  0  0  # atno 7974 bound_to 7965
  155.4011  140.0506  157.3036 H   0  0  0  0  0  0  0  0  0  0  0  0  # atno 8008 bound_to 7997
  154.4990  140.2149  155.9346 H   0  0  0  0  0  0  0  0  0  0  0  0  # atno 8009 bound_to 7997
  156.1443  140.3148  155.8550 H   0  0  0  0  0  0  0  0  0  0  0  0  # atno 8010 bound_to 7997
  139.7985  144.6823  150.9797 H   0  0  0  0  0  0  0  0  0  0  0  0  # atno 10167 bound_to 10162
  156.6370  130.8953  151.2989 H   0  0  0  0  0  0  0  0  0  0  0  0  # atno 10718 bound_to 10713
  153.0804  135.4911  154.8492 H   0  0  0  0  0  0  0  0  0  0  0  0  # atno 10763 bound_to 10752
  154.7143  135.3026  154.9150 H   0  0  0  0  0  0  0  0  0  0  0  0  # atno 10764 bound_to 10752
  153.9834  135.6787  153.4804 H   0  0  0  0  0  0  0  0  0  0  0  0  # atno 10765 bound_to 10752
  140.0236  134.6116  155.9604 H   0  0  0  0  0  0  0  0  0  0  0  0  # atno 11005 bound_to 11000
  145.7682  140.9907  143.1164 LP  0  0  0  0  0  0  0  0  0  0  0  0  # atno 17320 bound_to 7965
  144.6878  139.9414  143.7475 LP  0  0  0  0  0  0  0  0  0  0  0  0  # atno 17321 bound_to 7965
  140.7820  143.4306  151.0700 LP  0  0  0  0  0  0  0  0  0  0  0  0  # atno 17342 bound_to 10162
  139.7979  143.8125  152.3159 LP  0  0  0  0  0  0  0  0  0  0  0  0  # atno 17343 bound_to 10162
  157.7182  130.9525  150.1337 LP  0  0  0  0  0  0  0  0  0  0  0  0  # atno 17370 bound_to 10713
  156.2189  130.3672  149.8580 LP  0  0  0  0  0  0  0  0  0  0  0  0  # atno 17371 bound_to 10713
  141.1789  133.6543  156.4940 LP  0  0  0  0  0  0  0  0  0  0  0  0  # atno 17394 bound_to 11000
  140.4344  134.7072  157.4959 LP  0  0  0  0  0  0  0  0  0  0  0  0  # atno 17395 bound_to 11000

$$$$
