AV-unprocessed.smi:54|AV-procd|sdf|538|dock5
  -GOLD-   2262016423D 1   1.00000     0.00000
 Structure written by MMmdl.
 44 46  0  0  0  0  0  0  0  0  1 V2000
  146.2405  133.4056  151.7081 C   0  0  0  0  0  0  0  0  0  0  0  0
  147.1977  132.2861  152.1479 C   0  0  0  0  0  0  0  0  0  0  0  0
  146.4767  130.9296  152.2107 C   0  0  0  0  0  0  0  0  0  0  0  0
  147.8351  132.6235  153.5006 C   0  0  0  0  0  0  0  0  0  0  0  0
  147.7187  131.8850  154.4792 O   0  0  0  0  0  0  0  0  0  0  0  0
  148.5756  133.8724  153.5454 N   0  0  0  0  0  0  0  0  0  0  0  0
  149.2242  134.4054  154.6068 C   0  0  0  0  0  0  0  0  0  0  0  0
  149.8604  135.5670  154.5590 N   0  0  0  0  0  0  0  0  0  0  0  0
  150.4601  135.9378  155.7303 C   0  0  0  0  0  0  0  0  0  0  0  0
  150.4433  135.2383  156.9186 C   0  0  0  0  0  0  0  0  0  0  0  0
  151.1455  135.9366  157.8938 N   0  0  0  0  0  0  0  0  0  0  0  0
  151.5544  137.0125  157.2808 C   0  0  0  0  0  0  0  0  0  0  0  0
  151.2037  137.0782  155.9511 N   0  0  0  0  0  0  0  0  0  0  0  0
  151.4664  138.1576  154.9421 C   0  0  1  0  0  0  0  0  0  0  0  0
  150.2494  138.7031  154.5404 O   0  0  0  0  0  0  0  0  0  0  0  0
  149.9078  139.7746  155.4098 C   0  0  2  0  0  0  0  0  0  0  0  0
  148.8709  140.6847  154.7353 C   0  0  0  0  0  0  0  0  0  0  0  0
  149.3463  141.1073  153.4754 O   0  0  0  0  0  0  0  0  0  0  0  0
  151.2618  140.4552  155.6413 C   0  0  1  0  0  0  0  0  0  0  0  0
  151.2829  141.0683  156.9152 O   0  0  0  0  0  0  0  0  0  0  0  0
  152.2725  139.3088  155.5742 C   0  0  2  0  0  0  0  0  0  0  0  0
  153.3777  139.6652  154.7690 O   0  0  0  0  0  0  0  0  0  0  0  0
  149.7506  133.9839  156.9904 C   0  0  0  0  0  0  0  0  0  0  0  0
  149.6331  133.2321  157.9557 O   0  0  0  0  0  0  0  0  0  0  0  0
  149.1596  133.6360  155.7686 N   0  0  0  0  0  0  0  0  0  0  0  0
  151.9693  137.6395  154.1242 H   0  0  0  0  0  0  0  0  0  0  0  0
  149.5248  139.3786  156.3526 H   0  0  0  0  0  0  0  0  0  0  0  0
  151.4543  141.1952  154.8626 H   0  0  0  0  0  0  0  0  0  0  0  0
  152.6308  139.0227  156.5645 H   0  0  0  0  0  0  0  0  0  0  0  0
  146.7521  134.3674  151.6559 H   0  0  0  0  0  0  0  0  0  0  0  0
  145.4023  133.5111  152.3982 H   0  0  0  0  0  0  0  0  0  0  0  0
  145.8297  133.2002  150.7193 H   0  0  0  0  0  0  0  0  0  0  0  0
  147.9931  132.2101  151.4052 H   0  0  0  0  0  0  0  0  0  0  0  0
  147.1533  130.1347  152.5267 H   0  0  0  0  0  0  0  0  0  0  0  0
  146.0816  130.6527  151.2329 H   0  0  0  0  0  0  0  0  0  0  0  0
  145.6396  130.9522  152.9098 H   0  0  0  0  0  0  0  0  0  0  0  0
  148.5832  134.4116  152.6923 H   0  0  0  0  0  0  0  0  0  0  0  0
  152.1218  137.7800  157.7872 H   0  0  0  0  0  0  0  0  0  0  0  0
  147.9442  140.1355  154.5678 H   0  0  0  0  0  0  0  0  0  0  0  0
  148.6299  141.5451  155.3603 H   0  0  0  0  0  0  0  0  0  0  0  0
  149.4642  140.3461  152.9279 H   0  0  0  0  0  0  0  0  0  0  0  0
  151.5532  140.4260  157.5537 H   0  0  0  0  0  0  0  0  0  0  0  0
  153.5765  138.9420  154.1943 H   0  0  0  0  0  0  0  0  0  0  0  0
  148.6566  132.7613  155.7447 H   0  0  0  0  0  0  0  0  0  0  0  0
  1  2  1  0  0  0  0
  1 30  1  0  0  0  0
  1 31  1  0  0  0  0
  1 32  1  0  0  0  0
  2  3  1  0  0  0  0
  2  4  1  0  0  0  0
  2 33  1  0  0  0  0
  3 34  1  0  0  0  0
  3 35  1  0  0  0  0
  3 36  1  0  0  0  0
  4  5  2  0  0  0  0
  4  6  1  0  0  0  0
  6 37  1  0  0  0  0
  6  7  1  0  0  0  0
  7 25  1  0  0  0  0
  7  8  2  0  0  0  0
  8  9  1  0  0  0  0
  9 13  1  0  0  0  0
  9 10  2  0  0  0  0
 10 11  1  0  0  0  0
 10 23  1  0  0  0  0
 11 12  2  0  0  0  0
 12 13  1  0  0  0  0
 12 38  1  0  0  0  0
 13 14  1  0  0  0  0
 14 26  1  0  0  0  0
 14 21  1  0  0  0  0
 14 15  1  0  0  0  0
 15 16  1  0  0  0  0
 16 27  1  0  0  0  0
 16 17  1  0  0  0  0
 16 19  1  0  0  0  0
 17 18  1  0  0  0  0
 17 39  1  0  0  0  0
 17 40  1  0  0  0  0
 18 41  1  0  0  0  0
 19 28  1  0  0  0  0
 19 20  1  0  0  0  0
 19 21  1  0  0  0  0
 20 42  1  0  0  0  0
 21 29  1  0  0  0  0
 21 22  1  0  0  0  0
 22 43  1  0  0  0  0
 23 24  2  0  0  0  0
 23 25  1  0  0  0  0
 25 44  1  0  0  0  0
M  END
> <s_m_source_file>
AV-unprocessed.smi

> <i_m_source_file_index>
54

> <i_lp_mmshare_version>
43012

> <i_f3d_flags>
0

> <s_epik_input>
W0NIM11bQ0hdKFtDSDNdKUMoPU8pW05IXWMobjEpW25IXWMoPU8pYyhjMTIpbltjSF1uMltDQEBIXTNPW0NASF0oW0NIMl1bT0hdKVtDQEBIXShbT0hdKVtDQEhdM1tPSF0=

> <s_epik_cmdline>
J2VwaWtfcHl0aG9uJywgJy1waCcsICc3LjAnLCAnLXRuJywgJzgnLCAnLW1hJywgJzIwMCcsICctbWV0YWxfYmluZGluZycsICctaW1hZScsICc8aW5maWxlLm1hZT4nLCAnLW9tYWUnLCAnPG91dGZpbGUubWFlPic=

> <r_lp_tautomer_probability>
0.85571

> <r_epik_Ionization_Penalty>
0.0316551

> <r_epik_Ionization_Penalty_Charging>
0.0316043

> <r_epik_Ionization_Penalty_Neutral>
5.07097e-05

> <r_epik_State_Penalty>
3.15494e-07

> <r_epik_Charging_Adjusted_Penalty>
0.0316047

> <i_epik_Tot_Q>
0

> <i_epik_Tot_abs_Q>
0

> <r_epik_Metal_State_Penalty>
0.421206

> <b_epik_Metal_Only>
0

> <s_epik_Chemistry_Notes>
This compound contains an acetal/aminal-like group ( X-CH(R)-Y where X, Y are N, S, or O) that may be acid/base labile, releasing an aldehyde.

> <s_lp_Force_Field>
OPLS_2005

> <r_lp_Energy>
36.3126

> <b_lp_Chiralities_Consistent>
1

> <s_lp_Variant>
AV-unprocessed.smi:54-10

> <Gold.Version>
5.8.1

> <Gold.Id.Protein>
6NUR|6NUR_protein|mol2

> <Gold.PLP.Fitness>
49.2740

> <Gold.PLP.PLP>
-35.3643

> <Gold.PLP.part.hbond>
-8.0000

> <Gold.PLP.part.metal>
0.0000

> <Gold.PLP.part.buried>
-4.3107

> <Gold.PLP.part.nonpolar>
-25.1665

> <Gold.PLP.part.repulsive>
2.2084

> <Gold.PLP.ligand.clash>
0.0000

> <Gold.PLP.ligand.torsion>
0.0315

> <Gold.PLP.Chemscore.Hbond>
4.6385

> <Gold.PLP.Chemscore.CHOScore>
0.0000

> <Gold.PLP.Chemscore.Metal>
0.0000

> <Gold.Chemscore.Hbonds>
donor molecule, donor type, donor heavy atom, donor atom, acceptor molecule, acceptor atom, score
      L1  H     6    37       P1  7948  0.60
      L1  H    18    41       P1  7957  0.70
      P1  H  6896  6907       L1    24  1.00
      P1  H  6896  6908       L1    11  0.05
      P1  H  7997  8010       L1    22  1.00
      P1  H  8011  8017       L1    18  1.00

> <Gold.PLP.Chemscore.Internal.Correction>
0.0572

> <Gold.Rescore>
     Score         DG    S(hbond)    S(metal)    S(lipo)     H(rot)  DE(clash)    DE(int)     intcor
      9.22     -10.83       3.01        0.00      48.34       4.05       1.55       0.06       ----

> <Gold.Chemscore.Fitness>
9.2219

> <Gold.Chemscore.DG>
-10.8285

> <Gold.Chemscore.ZeroCoef>
-5.4800

> <Gold.Chemscore.Hbond>
3.0118

> <Gold.Chemscore.Metal>
0.0000

> <Gold.Chemscore.Lipo>
48.3374

> <Gold.Chemscore.Internal_Hbond>
0.0000

> <Gold.Chemscore.DEClash>
1.5498

> <Gold.Chemscore.DEInternal>
0.0569

> <Gold.Chemscore.Rot>
4.0493

> <Gold.Chemscore.Internal.Correction>
   9.000000E+99

> <Gold.Chemscore.Hbonds>
donor molecule, donor type, donor heavy atom, donor atom, acceptor molecule, acceptor atom, score
      L1  H     6    37       P1  7948  0.05
      L1  H    18    41       P1  7957  0.70
      P1  H  6896  6907       L1    24  0.60
      P1  H  6896  6908       L1    11  0.05
      P1  H  7997  8010       L1    22  0.66
      P1  H  8011  8017       L1    18  0.29

> <Gold.Chemscore.Hbond.Weighted>
-10.0593

> <Gold.Chemscore.Metal.Weighted>
-0.0000

> <Gold.Chemscore.Lipo.Weighted>
-5.6555

> <Gold.Chemscore.Internal_Hbond.Weighted>
0.0000

> <Gold.Chemscore.DEClash.Weighted>
1.5498

> <Gold.Chemscore.DEInternal.Weighted>
0.0569

> <Gold.Chemscore.Rot.Weighted>
10.3662

> <Gold.Chemscore.Internal.Correction.Weighted>
   9.000000E+99

> <Gold.Protein.RotatedTorsions>
[ 6907 6896 6895 6894 ] final -114.35 input  -60.11 | X-H torsion
[ 7974 7965 7964 7962 ] final -120.90 input  175.53 | X-H torsion
[ 8008 7997 7996 7995 ] final  115.40 input   59.86 | X-H torsion
[ 10167 10162 10161 10158 ] final   76.68 input  -65.29 | X-H torsion
[ 10718 10713 10712 10709 ] final  -64.49 input   66.30 | X-H torsion
[ 10763 10752 10751 10750 ] final   85.87 input  -60.55 | X-H torsion
[ 11005 11000 10999 10996 ] final -150.57 input  -57.11 | X-H torsion

> <Gold.Protein.ActiveResidues>
 VAL166  LYS551  ARG553  GLY616  TRP617  ASP618  TYR619  PRO620  LYS621  CYS622 
 ASP623  PHE694  ASN695  SER759  ASP760  ASP761  ALA762  ILE779  LEU786  VAL792 
 PHE793  MET794  SER795  GLU796  ALA797  LYS798  CYS799  TRP800  GLU811  SER814 

> <Gold.Protein.RotatedAtoms>
  150.7895  133.8814  159.3286 H   0  0  0  0  0  0  0  0  0  0  0  0  # atno 6907 bound_to 6896
  151.6656  135.0981  160.0197 H   0  0  0  0  0  0  0  0  0  0  0  0  # atno 6908 bound_to 6896
  152.3967  133.6718  159.6317 H   0  0  0  0  0  0  0  0  0  0  0  0  # atno 6909 bound_to 6896
  145.0463  140.8184  143.4236 H   0  0  0  0  0  0  0  0  0  0  0  0  # atno 7974 bound_to 7965
  156.2379  140.2939  156.0364 H   0  0  0  0  0  0  0  0  0  0  0  0  # atno 8008 bound_to 7997
  155.2037  140.0410  157.2939 H   0  0  0  0  0  0  0  0  0  0  0  0  # atno 8009 bound_to 7997
  154.6113  140.2452  155.7672 H   0  0  0  0  0  0  0  0  0  0  0  0  # atno 8010 bound_to 7997
  139.9896  144.5766  150.7829 H   0  0  0  0  0  0  0  0  0  0  0  0  # atno 10167 bound_to 10162
  156.0726  130.4234  150.1428 H   0  0  0  0  0  0  0  0  0  0  0  0  # atno 10718 bound_to 10713
  153.1516  135.4601  154.9645 H   0  0  0  0  0  0  0  0  0  0  0  0  # atno 10763 bound_to 10752
  154.7829  135.3194  154.7952 H   0  0  0  0  0  0  0  0  0  0  0  0  # atno 10764 bound_to 10752
  153.8457  135.6926  153.4852 H   0  0  0  0  0  0  0  0  0  0  0  0  # atno 10765 bound_to 10752
  140.7388  134.3538  157.5152 H   0  0  0  0  0  0  0  0  0  0  0  0  # atno 11005 bound_to 11000
  145.1584  139.2473  143.5404 LP  0  0  0  0  0  0  0  0  0  0  0  0  # atno 17320 bound_to 7965
  146.3514  140.1305  142.8597 LP  0  0  0  0  0  0  0  0  0  0  0  0  # atno 17321 bound_to 7965
  140.7459  143.2883  151.3401 LP  0  0  0  0  0  0  0  0  0  0  0  0  # atno 17342 bound_to 10162
  139.6349  144.0649  152.2508 LP  0  0  0  0  0  0  0  0  0  0  0  0  # atno 17343 bound_to 10162
  156.9476  130.9764  151.3504 LP  0  0  0  0  0  0  0  0  0  0  0  0  # atno 17370 bound_to 10713
  157.5804  130.8373  149.8515 LP  0  0  0  0  0  0  0  0  0  0  0  0  # atno 17371 bound_to 10713
  139.8810  134.9067  156.2928 LP  0  0  0  0  0  0  0  0  0  0  0  0  # atno 17394 bound_to 11000
  140.9855  133.7241  156.0736 LP  0  0  0  0  0  0  0  0  0  0  0  0  # atno 17395 bound_to 11000

$$$$
