AV-unprocessed.smi:2154|AV-procd|sdf|8773|dock1
  -GOLD-   2272011553D 1   1.00000     0.00000
 Structure written by MMmdl.
 32 33  0  0  0  0  0  0  0  0  1 V2000
  152.6284  142.9074  161.7051 C   0  0  0  0  0  0  0  0  0  0  0  0
  152.5013  143.7474  160.4527 C   0  0  1  0  0  0  0  0  0  0  0  0
  153.3826  143.4802  159.2542 C   0  0  0  0  0  0  0  0  0  0  0  0
  151.9070  143.1643  159.1902 C   0  0  2  0  0  0  0  0  0  0  0  0
  150.9864  143.9846  158.3063 C   0  0  0  0  0  0  0  0  0  0  0  0
  150.5757  143.3291  157.0715 N   0  0  0  0  0  0  0  0  0  0  0  0
  150.3599  142.0123  156.9329 C   0  0  0  0  0  0  0  0  0  0  0  0
  150.4811  141.2090  157.8590 O   0  0  0  0  0  0  0  0  0  0  0  0
  149.9186  141.5442  155.5387 C   0  0  0  0  0  0  0  0  0  0  0  0
  150.3783  140.1860  155.2139 N   0  0  0  0  0  0  0  0  0  0  0  0
  151.5776  139.7112  155.7259 C   0  0  0  0  0  0  0  0  0  0  0  0
  152.0649  138.4761  155.4603 C   0  0  0  0  0  0  0  0  0  0  0  0
  151.3272  137.5612  154.5960 C   0  0  0  0  0  0  0  0  0  0  0  0
  151.6845  136.4236  154.2983 O   0  0  0  0  0  0  0  0  0  0  0  0
  150.1274  138.0765  154.0981 N   0  0  0  0  0  0  0  0  0  0  0  0
  149.6206  139.3488  154.3661 C   0  0  0  0  0  0  0  0  0  0  0  0
  148.5523  139.7057  153.8706 O   0  0  0  0  0  0  0  0  0  0  0  0
  149.5833  137.4798  153.4919 H   0  0  0  0  0  0  0  0  0  0  0  0
  152.8583  141.8711  161.4556 H   0  0  0  0  0  0  0  0  0  0  0  0
  151.6946  142.9303  162.2667 H   0  0  0  0  0  0  0  0  0  0  0  0
  153.4253  143.2977  162.3383 H   0  0  0  0  0  0  0  0  0  0  0  0
  152.2749  144.7931  160.6522 H   0  0  0  0  0  0  0  0  0  0  0  0
  153.7425  144.3423  158.6961 H   0  0  0  0  0  0  0  0  0  0  0  0
  154.0722  142.6402  159.3077 H   0  0  0  0  0  0  0  0  0  0  0  0
  151.6602  142.1043  159.2145 H   0  0  0  0  0  0  0  0  0  0  0  0
  150.0871  144.2420  158.8669 H   0  0  0  0  0  0  0  0  0  0  0  0
  151.4788  144.9295  158.0712 H   0  0  0  0  0  0  0  0  0  0  0  0
  150.4485  143.9188  156.2619 H   0  0  0  0  0  0  0  0  0  0  0  0
  148.8297  141.5945  155.4938 H   0  0  0  0  0  0  0  0  0  0  0  0
  150.2707  142.2502  154.7836 H   0  0  0  0  0  0  0  0  0  0  0  0
  152.1603  140.3564  156.3679 H   0  0  0  0  0  0  0  0  0  0  0  0
  153.0062  138.1639  155.8889 H   0  0  0  0  0  0  0  0  0  0  0  0
  1  2  1  0  0  0  0
  1 19  1  0  0  0  0
  1 20  1  0  0  0  0
  1 21  1  0  0  0  0
  2  4  1  0  0  0  0
  2  3  1  0  0  0  0
  2 22  1  0  0  0  0
  3  4  1  0  0  0  0
  3 23  1  0  0  0  0
  3 24  1  0  0  0  0
  4  5  1  0  0  0  0
  4 25  1  0  0  0  0
  5  6  1  0  0  0  0
  5 26  1  0  0  0  0
  5 27  1  0  0  0  0
  6  7  1  0  0  0  0
  6 28  1  0  0  0  0
  7  8  2  0  0  0  0
  7  9  1  0  0  0  0
  9 10  1  0  0  0  0
  9 29  1  0  0  0  0
  9 30  1  0  0  0  0
 10 16  1  0  0  0  0
 10 11  1  0  0  0  0
 11 12  2  0  0  0  0
 11 31  1  0  0  0  0
 12 13  1  0  0  0  0
 12 32  1  0  0  0  0
 13 14  2  0  0  0  0
 13 15  1  0  0  0  0
 15 18  1  0  0  0  0
 15 16  1  0  0  0  0
 16 17  2  0  0  0  0
M  END
> <s_m_source_file>
AV-unprocessed.smi

> <i_m_source_file_index>
2154

> <i_lp_mmshare_version>
43012

> <i_f3d_flags>
0

> <s_epik_input>
W0NIM11bQ0BASF0xW0NIMl1bQ0BIXTFbQ0gyXVtOSF1DKD1PKVtDSDJdbjJbY0hdW2NIXWMoPU8pW25IXWMyPU8=

> <s_epik_cmdline>
J2VwaWtfcHl0aG9uJywgJy1waCcsICc3LjAnLCAnLXRuJywgJzgnLCAnLW1hJywgJzIwMCcsICctbWV0YWxfYmluZGluZycsICctaW1hZScsICc8aW5maWxlLm1hZT4nLCAnLW9tYWUnLCAnPG91dGZpbGUubWFlPic=

> <r_lp_tautomer_probability>
0.999537

> <r_epik_Ionization_Penalty>
0.00305319

> <r_epik_Ionization_Penalty_Charging>
0.00305317

> <r_epik_Ionization_Penalty_Neutral>
2.06703e-08

> <r_epik_State_Penalty>
0.00214626

> <r_epik_Charging_Adjusted_Penalty>
0.00519944

> <i_epik_Tot_Q>
0

> <i_epik_Tot_abs_Q>
0

> <r_epik_Metal_State_Penalty>
0.361976

> <b_epik_Metal_Only>
0

> <s_lp_Force_Field>
OPLS_2005

> <r_lp_Energy>
14.6752

> <b_lp_Chiralities_Consistent>
1

> <s_lp_Variant>
AV-unprocessed.smi:2154-4

> <Gold.Version>
5.8.1

> <Gold.Id.Protein>
6NUR|6NUR_protein|mol2

> <Gold.PLP.Fitness>
42.8173

> <Gold.PLP.PLP>
-37.7890

> <Gold.PLP.part.hbond>
-2.7953

> <Gold.PLP.part.metal>
0.0000

> <Gold.PLP.part.buried>
-6.4972

> <Gold.PLP.part.nonpolar>
-32.1232

> <Gold.PLP.part.repulsive>
2.3328

> <Gold.PLP.ligand.clash>
0.0000

> <Gold.PLP.ligand.torsion>
1.2443

> <Gold.PLP.Chemscore.Hbond>
2.3235

> <Gold.PLP.Chemscore.CHOScore>
0.0000

> <Gold.PLP.Chemscore.Metal>
0.0000

> <Gold.Chemscore.Hbonds>
donor molecule, donor type, donor heavy atom, donor atom, acceptor molecule, acceptor atom, score
      L1  H     6    28       P1  8028  0.58
      L1  H    15    18       P1  7948  0.78
      P1  H 10752 10765       L1    14  0.84

> <Gold.PLP.Chemscore.Internal.Correction>
0.5464

> <Gold.Rescore>
     Score         DG    S(hbond)    S(metal)    S(lipo)     H(rot)  DE(clash)    DE(int)     intcor
     14.02     -18.13       2.60        0.00      77.91       2.01       0.10       4.01       ----

> <Gold.Chemscore.Fitness>
14.0200

> <Gold.Chemscore.DG>
-18.1289

> <Gold.Chemscore.ZeroCoef>
-5.4800

> <Gold.Chemscore.Hbond>
2.5959

> <Gold.Chemscore.Metal>
0.0000

> <Gold.Chemscore.Lipo>
77.9085

> <Gold.Chemscore.Internal_Hbond>
0.0000

> <Gold.Chemscore.DEClash>
0.1019

> <Gold.Chemscore.DEInternal>
4.0070

> <Gold.Chemscore.Rot>
2.0065

> <Gold.Chemscore.Internal.Correction>
   9.000000E+99

> <Gold.Chemscore.Hbonds>
donor molecule, donor type, donor heavy atom, donor atom, acceptor molecule, acceptor atom, score
      L1  H     6    28       P1  8028  0.58
      L1  H    15    18       P1  7948  0.69
      P1  H 10752 10765       L1    14  0.82

> <Gold.Chemscore.Hbond.Weighted>
-8.6703

> <Gold.Chemscore.Metal.Weighted>
-0.0000

> <Gold.Chemscore.Lipo.Weighted>
-9.1153

> <Gold.Chemscore.Internal_Hbond.Weighted>
0.0000

> <Gold.Chemscore.DEClash.Weighted>
0.1019

> <Gold.Chemscore.DEInternal.Weighted>
4.0070

> <Gold.Chemscore.Rot.Weighted>
5.1366

> <Gold.Chemscore.Internal.Correction.Weighted>
   9.000000E+99

> <Gold.Protein.RotatedTorsions>
[ 6907 6896 6895 6894 ] final   59.72 input  -60.11 | X-H torsion
[ 7974 7965 7964 7962 ] final  -77.16 input  175.53 | X-H torsion
[ 8008 7997 7996 7995 ] final  168.42 input   59.86 | X-H torsion
[ 10167 10162 10161 10158 ] final  130.75 input  -65.29 | X-H torsion
[ 10718 10713 10712 10709 ] final  133.50 input   66.30 | X-H torsion
[ 10763 10752 10751 10750 ] final  167.92 input  -60.55 | X-H torsion
[ 11005 11000 10999 10996 ] final  128.81 input  -57.11 | X-H torsion

> <Gold.Protein.ActiveResidues>
 VAL166  LYS551  ARG553  GLY616  TRP617  ASP618  TYR619  PRO620  LYS621  CYS622 
 ASP623  PHE694  ASN695  SER759  ASP760  ASP761  ALA762  ILE779  LEU786  VAL792 
 PHE793  MET794  SER795  GLU796  ALA797  LYS798  CYS799  TRP800  GLU811  SER814 

> <Gold.Protein.RotatedAtoms>
  152.3940  134.6396  160.0096 H   0  0  0  0  0  0  0  0  0  0  0  0  # atno 6907 bound_to 6896
  151.6621  133.3311  159.3184 H   0  0  0  0  0  0  0  0  0  0  0  0  # atno 6908 bound_to 6896
  150.7850  134.6871  159.6521 H   0  0  0  0  0  0  0  0  0  0  0  0  # atno 6909 bound_to 6896
  145.6034  140.9403  143.1228 H   0  0  0  0  0  0  0  0  0  0  0  0  # atno 7974 bound_to 7965
  156.1548  140.1591  156.8710 H   0  0  0  0  0  0  0  0  0  0  0  0  # atno 8008 bound_to 7997
  154.5105  140.0802  156.8016 H   0  0  0  0  0  0  0  0  0  0  0  0  # atno 8009 bound_to 7997
  155.3824  140.3406  155.4249 H   0  0  0  0  0  0  0  0  0  0  0  0  # atno 8010 bound_to 7997
  139.5415  144.6735  151.4608 H   0  0  0  0  0  0  0  0  0  0  0  0  # atno 10167 bound_to 10162
  157.4767  131.1083  150.9734 H   0  0  0  0  0  0  0  0  0  0  0  0  # atno 10718 bound_to 10713
  154.3610  135.2753  155.2320 H   0  0  0  0  0  0  0  0  0  0  0  0  # atno 10763 bound_to 10752
  154.4508  135.5931  153.6194 H   0  0  0  0  0  0  0  0  0  0  0  0  # atno 10764 bound_to 10752
  152.9843  135.6041  154.3830 H   0  0  0  0  0  0  0  0  0  0  0  0  # atno 10765 bound_to 10752
  139.9581  134.9608  156.9056 H   0  0  0  0  0  0  0  0  0  0  0  0  # atno 11005 bound_to 11000
  144.7300  139.7755  143.7350 LP  0  0  0  0  0  0  0  0  0  0  0  0  # atno 17320 bound_to 7965
  146.1559  139.4657  143.0019 LP  0  0  0  0  0  0  0  0  0  0  0  0  # atno 17321 bound_to 7965
  140.6647  143.8423  150.6928 LP  0  0  0  0  0  0  0  0  0  0  0  0  # atno 17342 bound_to 10162
  140.1829  143.4100  152.1920 LP  0  0  0  0  0  0  0  0  0  0  0  0  # atno 17343 bound_to 10162
  157.0481  130.5776  149.5366 LP  0  0  0  0  0  0  0  0  0  0  0  0  # atno 17370 bound_to 10713
  156.0100  130.5191  150.7958 LP  0  0  0  0  0  0  0  0  0  0  0  0  # atno 17371 bound_to 10713
  140.5563  134.0578  155.7384 LP  0  0  0  0  0  0  0  0  0  0  0  0  # atno 17394 bound_to 11000
  141.1255  133.9390  157.2644 LP  0  0  0  0  0  0  0  0  0  0  0  0  # atno 17395 bound_to 11000

$$$$
