AV-unprocessed.smi:1893|AV-procd|sdf|7675|dock9
  -GOLD-   22720 9413D 1   1.00000     0.00000
 Structure written by MMmdl.
 43 44  0  0  0  0  0  0  0  0  2 V2000
  147.4083  134.1591  153.9097 C   0  0  0  0  0  0  0  0  0  0  0  0
  146.2243  134.6019  153.0237 C   0  0  2  0  0  0  0  0  0  0  0  0
  146.1143  133.6218  151.8337 C   0  0  0  0  0  0  0  0  0  0  0  0
  144.9637  133.9818  150.8915 C   0  0  0  0  0  0  0  0  0  0  0  0
  145.1332  135.4250  150.4190 C   0  0  0  0  0  0  0  0  0  0  0  0
  145.2203  136.3752  151.6208 C   0  0  0  0  0  0  0  0  0  0  0  0
  146.3403  136.0181  152.5398 N   0  3  1  0  0  0  0  0  0  0  0  0
  146.4925  137.0259  153.6286 C   0  0  0  0  0  0  0  0  0  0  0  0
  146.4339  138.4817  153.1181 C   0  0  0  0  0  0  0  0  0  0  0  0
  147.7338  139.1331  153.2217 N   0  0  0  0  0  0  0  0  0  0  0  0
  148.4041  139.3401  154.3666 C   0  0  0  0  0  0  0  0  0  0  0  0
  147.9638  139.0107  155.4686 O   0  0  0  0  0  0  0  0  0  0  0  0
  149.7816  140.0085  154.2336 C   0  0  1  0  0  0  0  0  0  0  0  0
  149.8617  141.3720  154.9450 C   0  0  0  0  0  0  0  0  0  0  0  0
  150.8237  139.1101  154.7116 N   0  0  0  0  0  0  0  0  0  0  0  0
  151.1018  137.8424  154.3941 C   0  0  0  0  0  0  0  0  0  0  0  0
  152.1510  137.3465  155.0346 N   0  0  0  0  0  0  0  0  0  0  0  0
  152.4931  138.4334  155.7881 C   0  0  0  0  0  0  0  0  0  0  0  0
  151.7329  139.5168  155.6296 N   0  0  0  0  0  0  0  0  0  0  0  0
  147.3810  133.0830  154.0847 H   0  0  0  0  0  0  0  0  0  0  0  0
  147.3886  134.6192  154.8968 H   0  0  0  0  0  0  0  0  0  0  0  0
  148.3657  134.3888  153.4412 H   0  0  0  0  0  0  0  0  0  0  0  0
  145.3105  134.5233  153.6153 H   0  0  0  0  0  0  0  0  0  0  0  0
  147.0506  133.6166  151.2733 H   0  0  0  0  0  0  0  0  0  0  0  0
  145.9709  132.6037  152.1984 H   0  0  0  0  0  0  0  0  0  0  0  0
  144.9464  133.3036  150.0379 H   0  0  0  0  0  0  0  0  0  0  0  0
  144.0086  133.8661  151.4058 H   0  0  0  0  0  0  0  0  0  0  0  0
  146.0340  135.5145  149.8101 H   0  0  0  0  0  0  0  0  0  0  0  0
  144.2962  135.7074  149.7793 H   0  0  0  0  0  0  0  0  0  0  0  0
  145.3397  137.3860  151.2361 H   0  0  0  0  0  0  0  0  0  0  0  0
  144.2796  136.3614  152.1738 H   0  0  0  0  0  0  0  0  0  0  0  0
  145.7345  136.8465  154.3924 H   0  0  0  0  0  0  0  0  0  0  0  0
  147.4530  136.9218  154.1267 H   0  0  0  0  0  0  0  0  0  0  0  0
  146.1316  138.4959  152.0705 H   0  0  0  0  0  0  0  0  0  0  0  0
  145.7043  139.0813  153.6614 H   0  0  0  0  0  0  0  0  0  0  0  0
  148.1653  139.4359  152.3600 H   0  0  0  0  0  0  0  0  0  0  0  0
  149.9493  140.1846  153.1694 H   0  0  0  0  0  0  0  0  0  0  0  0
  149.1083  142.0620  154.5634 H   0  0  0  0  0  0  0  0  0  0  0  0
  150.8364  141.8345  154.7876 H   0  0  0  0  0  0  0  0  0  0  0  0
  149.7131  141.2773  156.0213 H   0  0  0  0  0  0  0  0  0  0  0  0
  150.5279  137.2730  153.6776 H   0  0  0  0  0  0  0  0  0  0  0  0
  153.3298  138.4274  156.4713 H   0  0  0  0  0  0  0  0  0  0  0  0
  147.1899  136.0567  151.9951 H   0  0  0  0  0  0  0  0  0  0  0  0
  1  2  1  0  0  0  0
  1 20  1  0  0  0  0
  1 21  1  0  0  0  0
  1 22  1  0  0  0  0
  2  7  1  0  0  0  0
  2  3  1  0  0  0  0
  2 23  1  0  0  0  0
  3  4  1  0  0  0  0
  3 24  1  0  0  0  0
  3 25  1  0  0  0  0
  4  5  1  0  0  0  0
  4 26  1  0  0  0  0
  4 27  1  0  0  0  0
  5  6  1  0  0  0  0
  5 28  1  0  0  0  0
  5 29  1  0  0  0  0
  6  7  1  0  0  0  0
  6 30  1  0  0  0  0
  6 31  1  0  0  0  0
  7  8  1  0  0  0  0
  7 43  1  0  0  0  0
  8  9  1  0  0  0  0
  8 32  1  0  0  0  0
  8 33  1  0  0  0  0
  9 10  1  0  0  0  0
  9 34  1  0  0  0  0
  9 35  1  0  0  0  0
 10 11  1  0  0  0  0
 10 36  1  0  0  0  0
 11 12  2  0  0  0  0
 11 13  1  0  0  0  0
 13 14  1  0  0  0  0
 13 15  1  0  0  0  0
 13 37  1  0  0  0  0
 14 38  1  0  0  0  0
 14 39  1  0  0  0  0
 14 40  1  0  0  0  0
 15 19  1  0  0  0  0
 15 16  1  0  0  0  0
 16 17  2  0  0  0  0
 16 41  1  0  0  0  0
 17 18  1  0  0  0  0
 18 19  2  0  0  0  0
 18 42  1  0  0  0  0
M  CHG  1   7   1
M  END
> <s_m_source_file>
AV-unprocessed.smi

> <i_m_source_file_index>
1893

> <i_lp_mmshare_version>
43012

> <i_f3d_flags>
0

> <s_epik_input>
W0NIM11bQ0BASF0xW0NIMl1bQ0gyXVtDSDJdW0NIMl1OMVtDSDJdW0NIMl1bTkhdQyg9TylbQ0BIXShbQ0gzXSluMltjSF1uW2NIXW4y

> <s_epik_cmdline>
J2VwaWtfcHl0aG9uJywgJy1waCcsICc3LjAnLCAnLXRuJywgJzgnLCAnLW1hJywgJzIwMCcsICctbWV0YWxfYmluZGluZycsICctaW1hZScsICc8aW5maWxlLm1hZT4nLCAnLW9tYWUnLCAnPG91dGZpbGUubWFlPic=

> <r_lp_tautomer_probability>
1

> <r_epik_Ionization_Penalty>
0.00266409

> <r_epik_Ionization_Penalty_Charging>
0.00265606

> <r_epik_Ionization_Penalty_Neutral>
8.02794e-06

> <r_epik_State_Penalty>
0.00184955

> <r_epik_Charging_Adjusted_Penalty>
0.00450561

> <i_epik_Tot_Q>
1

> <i_epik_Tot_abs_Q>
1

> <r_epik_Metal_State_Penalty>
-0

> <b_epik_Metal_Only>
0

> <s_lp_Force_Field>
OPLS_2005

> <r_lp_Energy>
24.8268

> <b_lp_Chiralities_Consistent>
1

> <s_lp_Variant>
AV-unprocessed.smi:1893-5

> <Gold.Version>
5.8.1

> <Gold.Id.Protein>
6NUR|6NUR_protein|mol2

> <Gold.PLP.Fitness>
44.3897

> <Gold.PLP.PLP>
-30.9770

> <Gold.PLP.part.hbond>
-2.9481

> <Gold.PLP.part.metal>
0.0000

> <Gold.PLP.part.buried>
1.0242

> <Gold.PLP.part.nonpolar>
-27.5958

> <Gold.PLP.part.repulsive>
0.1486

> <Gold.PLP.ligand.clash>
0.0000

> <Gold.PLP.ligand.torsion>
0.4937

> <Gold.PLP.Chemscore.Hbond>
3.5808

> <Gold.PLP.Chemscore.CHOScore>
1.1918

> <Gold.PLP.Chemscore.Metal>
0.0000

> <Gold.Chemscore.Hbonds>
donor molecule, donor type, donor heavy atom, donor atom, acceptor molecule, acceptor atom, score
      L1  H     7    43       P1  7948  2.00
      L1  H    10    36       P1  7957  1.00
      P1  H 10752 10765       L1    17  0.78
      L1  C    16    41       P1  7948  0.62
      L1  C    16    41       P1  7949  0.45

> <Gold.PLP.Chemscore.Internal.Correction>
0.0824

> <Gold.Rescore>
     Score         DG    S(hbond)    S(metal)    S(lipo)     H(rot)  DE(clash)    DE(int)     intcor
     13.05     -13.84       2.52        0.00      55.04       2.54       0.32       0.48       ----

> <Gold.Chemscore.Fitness>
13.0461

> <Gold.Chemscore.DG>
-13.8426

> <Gold.Chemscore.ZeroCoef>
-5.4800

> <Gold.Chemscore.Hbond>
2.5210

> <Gold.Chemscore.Metal>
0.0000

> <Gold.Chemscore.Lipo>
55.0359

> <Gold.Chemscore.Internal_Hbond>
0.0000

> <Gold.Chemscore.DEClash>
0.3170

> <Gold.Chemscore.DEInternal>
0.4795

> <Gold.Chemscore.Rot>
2.5377

> <Gold.Chemscore.Internal.Correction>
   9.000000E+99

> <Gold.Chemscore.Hbonds>
donor molecule, donor type, donor heavy atom, donor atom, acceptor molecule, acceptor atom, score
      L1  H     7    43       P1  7948  0.97
      L1  H    10    36       P1  7957  0.98
      P1  H 10752 10765       L1    17  0.75

> <Gold.Chemscore.Hbond.Weighted>
-8.4200

> <Gold.Chemscore.Metal.Weighted>
-0.0000

> <Gold.Chemscore.Lipo.Weighted>
-6.4392

> <Gold.Chemscore.Internal_Hbond.Weighted>
0.0000

> <Gold.Chemscore.DEClash.Weighted>
0.3170

> <Gold.Chemscore.DEInternal.Weighted>
0.4795

> <Gold.Chemscore.Rot.Weighted>
6.4966

> <Gold.Chemscore.Internal.Correction.Weighted>
   9.000000E+99

> <Gold.Protein.RotatedTorsions>
[ 6907 6896 6895 6894 ] final -133.99 input  -60.11 | X-H torsion
[ 7974 7965 7964 7962 ] final -165.48 input  175.53 | X-H torsion
[ 8008 7997 7996 7995 ] final -138.84 input   59.86 | X-H torsion
[ 10167 10162 10161 10158 ] final   35.13 input  -65.29 | X-H torsion
[ 10718 10713 10712 10709 ] final  117.75 input   66.30 | X-H torsion
[ 10763 10752 10751 10750 ] final  169.58 input  -60.55 | X-H torsion
[ 11005 11000 10999 10996 ] final  -38.14 input  -57.11 | X-H torsion

> <Gold.Protein.ActiveResidues>
 VAL166  LYS551  ARG553  GLY616  TRP617  ASP618  TYR619  PRO620  LYS621  CYS622 
 ASP623  PHE694  ASN695  SER759  ASP760  ASP761  ALA762  ILE779  LEU786  VAL792 
 PHE793  MET794  SER795  GLU796  ALA797  LYS798  CYS799  TRP800  GLU811  SER814 

> <Gold.Protein.RotatedAtoms>
  150.9805  133.6250  159.2723 H   0  0  0  0  0  0  0  0  0  0  0  0  # atno 6907 bound_to 6896
  151.3507  135.0882  159.9411 H   0  0  0  0  0  0  0  0  0  0  0  0  # atno 6908 bound_to 6896
  152.5214  133.9398  159.7675 H   0  0  0  0  0  0  0  0  0  0  0  0  # atno 6909 bound_to 6896
  144.7269  140.2808  143.6236 H   0  0  0  0  0  0  0  0  0  0  0  0  # atno 7974 bound_to 7965
  155.4350  140.0528  157.3015 H   0  0  0  0  0  0  0  0  0  0  0  0  # atno 8008 bound_to 7997
  154.4843  140.2094  155.9649 H   0  0  0  0  0  0  0  0  0  0  0  0  # atno 8009 bound_to 7997
  156.1252  140.3181  155.8271 H   0  0  0  0  0  0  0  0  0  0  0  0  # atno 8010 bound_to 7997
  140.4251  144.1405  150.6152 H   0  0  0  0  0  0  0  0  0  0  0  0  # atno 10167 bound_to 10162
  157.6076  131.1040  150.7660 H   0  0  0  0  0  0  0  0  0  0  0  0  # atno 10718 bound_to 10713
  154.3852  135.2753  155.2188 H   0  0  0  0  0  0  0  0  0  0  0  0  # atno 10763 bound_to 10752
  154.4278  135.5985  153.6053 H   0  0  0  0  0  0  0  0  0  0  0  0  # atno 10764 bound_to 10752
  152.9833  135.5988  154.4099 H   0  0  0  0  0  0  0  0  0  0  0  0  # atno 10765 bound_to 10752
  141.0005  133.6958  156.2013 H   0  0  0  0  0  0  0  0  0  0  0  0  # atno 11005 bound_to 11000
  145.7951  139.1942  143.2080 LP  0  0  0  0  0  0  0  0  0  0  0  0  # atno 17320 bound_to 7965
  146.0723  140.7855  142.9682 LP  0  0  0  0  0  0  0  0  0  0  0  0  # atno 17321 bound_to 7965
  140.4490  143.2494  151.9373 LP  0  0  0  0  0  0  0  0  0  0  0  0  # atno 17342 bound_to 10162
  139.4783  144.5580  151.8283 LP  0  0  0  0  0  0  0  0  0  0  0  0  # atno 17343 bound_to 10162
  156.8044  130.4932  149.5365 LP  0  0  0  0  0  0  0  0  0  0  0  0  # atno 17370 bound_to 10713
  156.1167  130.6080  151.0131 LP  0  0  0  0  0  0  0  0  0  0  0  0  # atno 17371 bound_to 10713
  140.6897  134.4679  157.5589 LP  0  0  0  0  0  0  0  0  0  0  0  0  # atno 17394 bound_to 11000
  139.9036  134.8499  156.1794 LP  0  0  0  0  0  0  0  0  0  0  0  0  # atno 17395 bound_to 11000

$$$$
