AV-unprocessed.smi:1768|AV-procd|sdf|7147|dock9
  -GOLD-   22720 8383D 1   1.00000     0.00000
 Structure written by MMmdl.
 32 33  0  0  0  0  0  0  0  0  2 V2000
  154.3603  136.6616  162.8555 C   0  0  0  0  0  0  0  0  0  0  0  0
  154.0559  137.2012  161.5003 C   0  0  0  0  0  0  0  0  0  0  0  0
  153.6657  136.4254  160.4862 N   0  0  0  0  0  0  0  0  0  0  0  0
  153.4388  137.1545  159.3276 N   0  0  0  0  0  0  0  0  0  0  0  0
  153.6516  138.4688  159.4832 C   0  0  0  0  0  0  0  0  0  0  0  0
  153.4906  139.3476  158.4800 N   0  5  0  0  0  0  0  0  0  0  0  0
  152.2480  139.7382  158.1151 C   0  0  0  0  0  0  0  0  0  0  0  0
  151.2955  138.9963  157.8653 O   0  0  0  0  0  0  0  0  0  0  0  0
  152.1052  141.0698  158.0428 N   0  0  0  0  0  0  0  0  0  0  0  0
  150.8887  141.8060  157.6998 C   0  0  2  0  0  0  0  0  0  0  0  0
  150.8087  141.9610  156.1743 C   0  0  0  0  0  0  0  0  0  0  0  0
  150.8815  143.1684  158.4195 C   0  0  2  0  0  0  0  0  0  0  0  0
  152.0150  144.1110  158.0166 C   0  0  0  0  0  0  0  0  0  0  0  0
  152.0894  145.0667  159.1928 C   0  0  0  0  0  0  0  0  0  0  0  0
  151.4996  144.2626  160.3562 C   0  0  0  0  0  0  0  0  0  0  0  0
  151.1159  143.0054  159.8105 O   0  0  0  0  0  0  0  0  0  0  0  0
  154.1818  138.9076  161.1072 S   0  0  0  0  0  0  0  0  0  0  0  0
  153.4654  136.2147  163.2888 H   0  0  0  0  0  0  0  0  0  0  0  0
  154.7061  137.4593  163.5130 H   0  0  0  0  0  0  0  0  0  0  0  0
  155.1382  135.9005  162.7908 H   0  0  0  0  0  0  0  0  0  0  0  0
  152.9195  141.6257  158.2594 H   0  0  0  0  0  0  0  0  0  0  0  0
  150.0058  141.2524  158.0229 H   0  0  0  0  0  0  0  0  0  0  0  0
  149.9023  142.4902  155.8792 H   0  0  0  0  0  0  0  0  0  0  0  0
  150.7946  140.9876  155.6830 H   0  0  0  0  0  0  0  0  0  0  0  0
  151.6614  142.5185  155.7858 H   0  0  0  0  0  0  0  0  0  0  0  0
  149.9210  143.6688  158.2805 H   0  0  0  0  0  0  0  0  0  0  0  0
  152.9511  143.5577  157.9292 H   0  0  0  0  0  0  0  0  0  0  0  0
  151.8317  144.6174  157.0683 H   0  0  0  0  0  0  0  0  0  0  0  0
  153.1110  145.3944  159.3865 H   0  0  0  0  0  0  0  0  0  0  0  0
  151.4814  145.9524  159.0040 H   0  0  0  0  0  0  0  0  0  0  0  0
  152.2187  144.1167  161.1627 H   0  0  0  0  0  0  0  0  0  0  0  0
  150.6245  144.7660  160.7687 H   0  0  0  0  0  0  0  0  0  0  0  0
  1  2  1  0  0  0  0
  1 18  1  0  0  0  0
  1 19  1  0  0  0  0
  1 20  1  0  0  0  0
  2 17  1  0  0  0  0
  2  3  2  0  0  0  0
  3  4  1  0  0  0  0
  4  5  2  0  0  0  0
  5  6  1  0  0  0  0
  5 17  1  0  0  0  0
  6  7  1  0  0  0  0
  7  8  2  0  0  0  0
  7  9  1  0  0  0  0
  9 10  1  0  0  0  0
  9 21  1  0  0  0  0
 10 11  1  0  0  0  0
 10 12  1  0  0  0  0
 10 22  1  0  0  0  0
 11 23  1  0  0  0  0
 11 24  1  0  0  0  0
 11 25  1  0  0  0  0
 12 16  1  0  0  0  0
 12 13  1  0  0  0  0
 12 26  1  0  0  0  0
 13 14  1  0  0  0  0
 13 27  1  0  0  0  0
 13 28  1  0  0  0  0
 14 15  1  0  0  0  0
 14 29  1  0  0  0  0
 14 30  1  0  0  0  0
 15 16  1  0  0  0  0
 15 31  1  0  0  0  0
 15 32  1  0  0  0  0
M  CHG  1   6  -1
M  END
> <s_m_source_file>
AV-unprocessed.smi

> <i_m_source_file_index>
1768

> <i_lp_mmshare_version>
43012

> <i_f3d_flags>
0

> <s_epik_input>
W0NIM11jMW5uYyhzMSlbTkhdQyg9TylbTkhdW0NASF0oW0NIM10pW0NAQEhdMltDSDJdW0NIMl1bQ0gyXU8y

> <s_epik_cmdline>
J2VwaWtfcHl0aG9uJywgJy1waCcsICc3LjAnLCAnLXRuJywgJzgnLCAnLW1hJywgJzIwMCcsICctbWV0YWxfYmluZGluZycsICctaW1hZScsICc8aW5maWxlLm1hZT4nLCAnLW9tYWUnLCAnPG91dGZpbGUubWFlPic=

> <r_lp_tautomer_probability>
1

> <r_epik_Ionization_Penalty>
4.3376

> <r_epik_Ionization_Penalty_Charging>
4.19392

> <r_epik_Ionization_Penalty_Neutral>
0.143681

> <r_epik_State_Penalty>
4.19342

> <r_epik_Charging_Adjusted_Penalty>
8.38735

> <i_epik_Tot_Q>
-1

> <i_epik_Tot_abs_Q>
1

> <r_epik_Metal_State_Penalty>
0.686065

> <b_epik_Metal_Only>
1

> <s_lp_Force_Field>
OPLS_2005

> <r_lp_Energy>
15.5769

> <b_lp_Chiralities_Consistent>
1

> <s_lp_Variant>
AV-unprocessed.smi:1768-5

> <Gold.Version>
5.8.1

> <Gold.Id.Protein>
6NUR|6NUR_protein|mol2

> <Gold.PLP.Fitness>
39.2446

> <Gold.PLP.PLP>
-33.3246

> <Gold.PLP.part.hbond>
-2.6555

> <Gold.PLP.part.metal>
0.0000

> <Gold.PLP.part.buried>
-5.1462

> <Gold.PLP.part.nonpolar>
-25.7065

> <Gold.PLP.part.repulsive>
0.0961

> <Gold.PLP.ligand.clash>
0.0000

> <Gold.PLP.ligand.torsion>
1.5603

> <Gold.PLP.Chemscore.Hbond>
3.0000

> <Gold.PLP.Chemscore.CHOScore>
0.0000

> <Gold.PLP.Chemscore.Metal>
0.0000

> <Gold.Chemscore.Hbonds>
donor molecule, donor type, donor heavy atom, donor atom, acceptor molecule, acceptor atom, score
      P1  H  6896  6908       L1     3  0.62
      P1  H  7997  8009       L1     6  2.00

> <Gold.PLP.Chemscore.Internal.Correction>
0.0406

> <Gold.Rescore>
     Score         DG    S(hbond)    S(metal)    S(lipo)     H(rot)  DE(clash)    DE(int)     intcor
     16.53     -18.05       1.89        0.00      81.37       1.28       0.00       1.51       ----

> <Gold.Chemscore.Fitness>
16.5284

> <Gold.Chemscore.DG>
-18.0473

> <Gold.Chemscore.ZeroCoef>
-5.4800

> <Gold.Chemscore.Hbond>
1.8915

> <Gold.Chemscore.Metal>
0.0000

> <Gold.Chemscore.Lipo>
81.3690

> <Gold.Chemscore.Internal_Hbond>
0.0000

> <Gold.Chemscore.DEClash>
0.0048

> <Gold.Chemscore.DEInternal>
1.5141

> <Gold.Chemscore.Rot>
1.2776

> <Gold.Chemscore.Internal.Correction>
   9.000000E+99

> <Gold.Chemscore.Hbonds>
donor molecule, donor type, donor heavy atom, donor atom, acceptor molecule, acceptor atom, score
      P1  H  6896  6908       L1     3  0.09
      P1  H  7997  8009       L1     6  0.65

> <Gold.Chemscore.Hbond.Weighted>
-6.3177

> <Gold.Chemscore.Metal.Weighted>
-0.0000

> <Gold.Chemscore.Lipo.Weighted>
-9.5202

> <Gold.Chemscore.Internal_Hbond.Weighted>
0.0000

> <Gold.Chemscore.DEClash.Weighted>
0.0048

> <Gold.Chemscore.DEInternal.Weighted>
1.5141

> <Gold.Chemscore.Rot.Weighted>
3.2706

> <Gold.Chemscore.Internal.Correction.Weighted>
   9.000000E+99

> <Gold.Protein.RotatedTorsions>
[ 6907 6896 6895 6894 ] final  -75.77 input  -60.11 | X-H torsion
[ 7974 7965 7964 7962 ] final -165.18 input  175.53 | X-H torsion
[ 8008 7997 7996 7995 ] final  142.30 input   59.86 | X-H torsion
[ 10167 10162 10161 10158 ] final   92.43 input  -65.29 | X-H torsion
[ 10718 10713 10712 10709 ] final -164.49 input   66.30 | X-H torsion
[ 10763 10752 10751 10750 ] final  126.78 input  -60.55 | X-H torsion
[ 11005 11000 10999 10996 ] final  174.37 input  -57.11 | X-H torsion

> <Gold.Protein.ActiveResidues>
 VAL166  LYS551  ARG553  GLY616  TRP617  ASP618  TYR619  PRO620  LYS621  CYS622 
 ASP623  PHE694  ASN695  SER759  ASP760  ASP761  ALA762  ILE779  LEU786  VAL792 
 PHE793  MET794  SER795  GLU796  ALA797  LYS798  CYS799  TRP800  GLU811  SER814 

> <Gold.Protein.RotatedAtoms>
  150.7048  134.4672  159.5407 H   0  0  0  0  0  0  0  0  0  0  0  0  # atno 6907 bound_to 6896
  152.2335  134.8296  160.0479 H   0  0  0  0  0  0  0  0  0  0  0  0  # atno 6908 bound_to 6896
  151.9103  133.3524  159.3898 H   0  0  0  0  0  0  0  0  0  0  0  0  # atno 6909 bound_to 6896
  144.7277  140.2852  143.6229 H   0  0  0  0  0  0  0  0  0  0  0  0  # atno 7974 bound_to 7965
  156.2952  140.2292  156.4705 H   0  0  0  0  0  0  0  0  0  0  0  0  # atno 8008 bound_to 7997
  154.7939  140.0452  157.1243 H   0  0  0  0  0  0  0  0  0  0  0  0  # atno 8009 bound_to 7997
  154.9612  140.3054  155.5033 H   0  0  0  0  0  0  0  0  0  0  0  0  # atno 8010 bound_to 7997
  139.8277  144.6702  150.9438 H   0  0  0  0  0  0  0  0  0  0  0  0  # atno 10167 bound_to 10162
  156.6398  130.8964  151.2994 H   0  0  0  0  0  0  0  0  0  0  0  0  # atno 10718 bound_to 10713
  153.6988  135.3287  155.3220 H   0  0  0  0  0  0  0  0  0  0  0  0  # atno 10763 bound_to 10752
  154.8419  135.4449  154.1432 H   0  0  0  0  0  0  0  0  0  0  0  0  # atno 10764 bound_to 10752
  153.2494  135.6979  153.7774 H   0  0  0  0  0  0  0  0  0  0  0  0  # atno 10765 bound_to 10752
  140.3506  134.7198  157.4265 H   0  0  0  0  0  0  0  0  0  0  0  0  # atno 11005 bound_to 11000
  145.7910  139.1927  143.2103 LP  0  0  0  0  0  0  0  0  0  0  0  0  # atno 17320 bound_to 7965
  146.0756  140.7821  142.9667 LP  0  0  0  0  0  0  0  0  0  0  0  0  # atno 17321 bound_to 7965
  140.7809  143.4030  151.1117 LP  0  0  0  0  0  0  0  0  0  0  0  0  # atno 17342 bound_to 10162
  139.7686  143.8528  152.3116 LP  0  0  0  0  0  0  0  0  0  0  0  0  # atno 17343 bound_to 10162
  157.7174  130.9515  150.1308 LP  0  0  0  0  0  0  0  0  0  0  0  0  # atno 17370 bound_to 10713
  156.2168  130.3671  149.8604 LP  0  0  0  0  0  0  0  0  0  0  0  0  # atno 17371 bound_to 10713
  140.0706  134.5867  155.8646 LP  0  0  0  0  0  0  0  0  0  0  0  0  # atno 17394 bound_to 11000
  141.2013  133.6618  156.5944 LP  0  0  0  0  0  0  0  0  0  0  0  0  # atno 17395 bound_to 11000

$$$$
