AV-unprocessed.smi:2848|AV-procd|sdf|10956|dock6
  -GOLD-   2272015413D 1   1.00000     0.00000
 Structure written by MMmdl.
 26 27  0  0  0  0  0  0  0  0  1 V2000
  147.5536  133.3985  152.3378 Cl  0  0  0  0  0  0  0  0  0  0  0  0
  146.0084  132.9807  151.6835 C   0  0  0  0  0  0  0  0  0  0  0  0
  145.0333  133.9827  151.5010 C   0  0  0  0  0  0  0  0  0  0  0  0
  143.8047  133.7426  150.9969 N   0  0  0  0  0  0  0  0  0  0  0  0
  143.5044  132.4727  150.6538 C   0  0  0  0  0  0  0  0  0  0  0  0
  144.4038  131.3971  150.7947 C   0  0  0  0  0  0  0  0  0  0  0  0
  145.6921  131.6505  151.3224 C   0  0  0  0  0  0  0  0  0  0  0  0
  146.6494  130.6397  151.4981 N   0  0  0  0  0  0  0  0  0  0  0  0
  146.2469  129.2464  151.6202 C   0  0  0  0  0  0  0  0  0  0  0  0
  147.4170  128.3081  151.8426 C   0  0  0  0  0  0  0  0  0  0  0  0
  148.1788  128.2989  152.9559 C   0  0  0  0  0  0  0  0  0  0  0  0
  149.1818  127.3902  153.1799 O   0  0  0  0  0  0  0  0  0  0  0  0
  149.1687  126.2735  152.2973 C   0  0  0  0  0  0  0  0  0  0  0  0
  148.8728  126.7275  150.8586 C   0  0  0  0  0  0  0  0  0  0  0  0
  147.6449  127.4470  150.7946 O   0  0  0  0  0  0  0  0  0  0  0  0
  145.2459  135.0076  151.7673 H   0  0  0  0  0  0  0  0  0  0  0  0
  142.5146  132.3074  150.2548 H   0  0  0  0  0  0  0  0  0  0  0  0
  144.0917  130.4065  150.5003 H   0  0  0  0  0  0  0  0  0  0  0  0
  147.6073  130.8344  151.2427 H   0  0  0  0  0  0  0  0  0  0  0  0
  145.5624  129.1384  152.4619 H   0  0  0  0  0  0  0  0  0  0  0  0
  145.7119  128.9444  150.7190 H   0  0  0  0  0  0  0  0  0  0  0  0
  148.0373  128.9630  153.7959 H   0  0  0  0  0  0  0  0  0  0  0  0
  150.1324  125.7664  152.3472 H   0  0  0  0  0  0  0  0  0  0  0  0
  148.4138  125.5610  152.6329 H   0  0  0  0  0  0  0  0  0  0  0  0
  149.6772  127.3656  150.4904 H   0  0  0  0  0  0  0  0  0  0  0  0
  148.8168  125.8674  150.1915 H   0  0  0  0  0  0  0  0  0  0  0  0
  1  2  1  0  0  0  0
  2  7  1  0  0  0  0
  2  3  2  0  0  0  0
  3  4  1  0  0  0  0
  3 16  1  0  0  0  0
  4  5  2  0  0  0  0
  5  6  1  0  0  0  0
  5 17  1  0  0  0  0
  6  7  2  0  0  0  0
  6 18  1  0  0  0  0
  7  8  1  0  0  0  0
  8  9  1  0  0  0  0
  8 19  1  0  0  0  0
  9 10  1  0  0  0  0
  9 20  1  0  0  0  0
  9 21  1  0  0  0  0
 10 15  1  0  0  0  0
 10 11  2  0  0  0  0
 11 12  1  0  0  0  0
 11 22  1  0  0  0  0
 12 13  1  0  0  0  0
 13 14  1  0  0  0  0
 13 23  1  0  0  0  0
 13 24  1  0  0  0  0
 14 15  1  0  0  0  0
 14 25  1  0  0  0  0
 14 26  1  0  0  0  0
M  END
> <s_m_source_file>
AV-unprocessed.smi

> <i_m_source_file_index>
2848

> <i_lp_mmshare_version>
43012

> <i_f3d_flags>
0

> <s_epik_input>
Q2xjMVtjSF1uW2NIXVtjSF1jMVtOSF1bQ0gyXUMyPVtDSF1PW0NIMl1bQ0gyXU8y

> <s_epik_cmdline>
J2VwaWtfcHl0aG9uJywgJy1waCcsICc3LjAnLCAnLXRuJywgJzgnLCAnLW1hJywgJzIwMCcsICctbWV0YWxfYmluZGluZycsICctaW1hZScsICc8aW5maWxlLm1hZT4nLCAnLW9tYWUnLCAnPG91dGZpbGUubWFlPic=

> <r_lp_tautomer_probability>
0.999999

> <r_epik_Ionization_Penalty>
1.20444

> <r_epik_Ionization_Penalty_Charging>
0

> <r_epik_Ionization_Penalty_Neutral>
1.20444

> <r_epik_State_Penalty>
1.27033

> <r_epik_Charging_Adjusted_Penalty>
1.27033

> <i_epik_Tot_Q>
0

> <i_epik_Tot_abs_Q>
0

> <r_epik_Metal_State_Penalty>
0.00444713

> <b_epik_Metal_Only>
0

> <s_lp_Force_Field>
OPLS_2005

> <r_lp_Energy>
2.57385

> <b_lp_Chiralities_Consistent>
1

> <s_lp_Variant>
AV-unprocessed.smi:2848-2

> <Gold.Version>
5.8.1

> <Gold.Id.Protein>
6NUR|6NUR_protein|mol2

> <Gold.PLP.Fitness>
37.0139

> <Gold.PLP.PLP>
-30.9336

> <Gold.PLP.part.hbond>
-1.0000

> <Gold.PLP.part.metal>
0.0000

> <Gold.PLP.part.buried>
-4.9996

> <Gold.PLP.part.nonpolar>
-25.6680

> <Gold.PLP.part.repulsive>
0.4756

> <Gold.PLP.ligand.clash>
0.0000

> <Gold.PLP.ligand.torsion>
0.1582

> <Gold.PLP.Chemscore.Hbond>
1.0000

> <Gold.PLP.Chemscore.CHOScore>
1.1322

> <Gold.PLP.Chemscore.Metal>
0.0000

> <Gold.Chemscore.Hbonds>
donor molecule, donor type, donor heavy atom, donor atom, acceptor molecule, acceptor atom, score
      L1  H     8    19       P1 10747  1.00
      L1  C     5    17       P1 10186  0.50
      L1  C     5    17       P1 10952  0.65

> <Gold.PLP.Chemscore.Internal.Correction>
0.0000

> <Gold.Rescore>
     Score         DG    S(hbond)    S(metal)    S(lipo)     H(rot)  DE(clash)    DE(int)     intcor
     15.56     -15.88       0.98        0.00      86.89       1.19       0.15       0.17       ----

> <Gold.Chemscore.Fitness>
15.5591

> <Gold.Chemscore.DG>
-15.8767

> <Gold.Chemscore.ZeroCoef>
-5.4800

> <Gold.Chemscore.Hbond>
0.9839

> <Gold.Chemscore.Metal>
0.0000

> <Gold.Chemscore.Lipo>
86.8915

> <Gold.Chemscore.Internal_Hbond>
0.0000

> <Gold.Chemscore.DEClash>
0.1464

> <Gold.Chemscore.DEInternal>
0.1712

> <Gold.Chemscore.Rot>
1.1937

> <Gold.Chemscore.Internal.Correction>
   9.000000E+99

> <Gold.Chemscore.Hbonds>
donor molecule, donor type, donor heavy atom, donor atom, acceptor molecule, acceptor atom, score
      L1  H     8    19       P1 10747  0.99

> <Gold.Chemscore.Hbond.Weighted>
-3.2862

> <Gold.Chemscore.Metal.Weighted>
-0.0000

> <Gold.Chemscore.Lipo.Weighted>
-10.1663

> <Gold.Chemscore.Internal_Hbond.Weighted>
0.0000

> <Gold.Chemscore.DEClash.Weighted>
0.1464

> <Gold.Chemscore.DEInternal.Weighted>
0.1712

> <Gold.Chemscore.Rot.Weighted>
3.0558

> <Gold.Chemscore.Internal.Correction.Weighted>
   9.000000E+99

> <Gold.Protein.RotatedTorsions>
[ 6907 6896 6895 6894 ] final   14.37 input  -60.11 | X-H torsion
[ 7974 7965 7964 7962 ] final  -22.88 input  175.53 | X-H torsion
[ 8008 7997 7996 7995 ] final  -99.21 input   59.86 | X-H torsion
[ 10167 10162 10161 10158 ] final  177.75 input  -65.29 | X-H torsion
[ 10718 10713 10712 10709 ] final  -93.49 input   66.30 | X-H torsion
[ 10763 10752 10751 10750 ] final -116.62 input  -60.55 | X-H torsion
[ 11005 11000 10999 10996 ] final  -93.77 input  -57.11 | X-H torsion

> <Gold.Protein.ActiveResidues>
 VAL166  LYS551  ARG553  GLY616  TRP617  ASP618  TYR619  PRO620  LYS621  CYS622 
 ASP623  PHE694  ASN695  SER759  ASP760  ASP761  ALA762  ILE779  LEU786  VAL792 
 PHE793  MET794  SER795  GLU796  ALA797  LYS798  CYS799  TRP800  GLU811  SER814 

> <Gold.Protein.RotatedAtoms>
  151.8012  135.0708  160.0400 H   0  0  0  0  0  0  0  0  0  0  0  0  # atno 6907 bound_to 6896
  152.3088  133.5726  159.5675 H   0  0  0  0  0  0  0  0  0  0  0  0  # atno 6908 bound_to 6896
  150.7309  134.0099  159.3708 H   0  0  0  0  0  0  0  0  0  0  0  0  # atno 6909 bound_to 6896
  146.1650  140.4539  142.8556 H   0  0  0  0  0  0  0  0  0  0  0  0  # atno 7974 bound_to 7965
  154.8117  140.0449  157.1347 H   0  0  0  0  0  0  0  0  0  0  0  0  # atno 8008 bound_to 7997
  154.9361  140.3046  155.5123 H   0  0  0  0  0  0  0  0  0  0  0  0  # atno 8009 bound_to 7997
  156.2972  140.2314  156.4426 H   0  0  0  0  0  0  0  0  0  0  0  0  # atno 8010 bound_to 7997
  139.5266  144.2761  152.0586 H   0  0  0  0  0  0  0  0  0  0  0  0  # atno 10167 bound_to 10162
  156.0014  130.5029  150.5784 H   0  0  0  0  0  0  0  0  0  0  0  0  # atno 10718 bound_to 10713
  154.8526  135.4339  154.1850 H   0  0  0  0  0  0  0  0  0  0  0  0  # atno 10763 bound_to 10752
  153.2932  135.6963  153.7279 H   0  0  0  0  0  0  0  0  0  0  0  0  # atno 10764 bound_to 10752
  153.6438  135.3463  155.3054 H   0  0  0  0  0  0  0  0  0  0  0  0  # atno 10765 bound_to 10752
  141.1488  133.7910  157.0206 H   0  0  0  0  0  0  0  0  0  0  0  0  # atno 11005 bound_to 11000
  144.8079  140.6333  143.6435 LP  0  0  0  0  0  0  0  0  0  0  0  0  # atno 17320 bound_to 7965
  145.4492  139.1526  143.3928 LP  0  0  0  0  0  0  0  0  0  0  0  0  # atno 17321 bound_to 7965
  140.2218  144.4458  150.6338 LP  0  0  0  0  0  0  0  0  0  0  0  0  # atno 17342 bound_to 10162
  140.6413  143.2204  151.6284 LP  0  0  0  0  0  0  0  0  0  0  0  0  # atno 17343 bound_to 10162
  157.3668  131.0759  151.1591 LP  0  0  0  0  0  0  0  0  0  0  0  0  # atno 17370 bound_to 10713
  157.2357  130.6546  149.5868 LP  0  0  0  0  0  0  0  0  0  0  0  0  # atno 17371 bound_to 10713
  140.0818  134.9643  157.1637 LP  0  0  0  0  0  0  0  0  0  0  0  0  # atno 17394 bound_to 11000
  140.3566  134.2540  155.7192 LP  0  0  0  0  0  0  0  0  0  0  0  0  # atno 17395 bound_to 11000

$$$$
