AV-unprocessed.smi:1793|AV-procd|sdf|7226|dock10
  -GOLD-   22720 8473D 1   1.00000     0.00000
 Structure written by MMmdl.
 46 48  0  0  0  0  0  0  0  0  1 V2000
  144.3399  136.0417  151.1735 C   0  0  0  0  0  0  0  0  0  0  0  0
  145.2374  135.4661  152.2785 C   0  0  2  0  0  0  0  0  0  0  0  0
  146.4016  136.3360  152.4376 N   0  0  0  0  0  0  0  0  0  0  0  0
  146.3964  137.5669  152.9696 C   0  0  0  0  0  0  0  0  0  0  0  0
  145.3849  138.1240  153.3955 O   0  0  0  0  0  0  0  0  0  0  0  0
  147.6345  138.0870  152.9938 N   0  0  0  0  0  0  0  0  0  0  0  0
  148.0575  139.3116  153.5826 C   0  0  0  0  0  0  0  0  0  0  0  0
  147.2500  140.4741  153.5295 C   0  0  0  0  0  0  0  0  0  0  0  0
  147.7367  141.6779  154.0671 C   0  0  0  0  0  0  0  0  0  0  0  0
  149.0253  141.6822  154.6258 C   0  0  0  0  0  0  0  0  0  0  0  0
  149.8125  140.5889  154.6700 N   0  0  0  0  0  0  0  0  0  0  0  0
  149.3517  139.4159  154.1696 C   0  0  0  0  0  0  0  0  0  0  0  0
  150.2184  138.3015  154.2582 N   0  0  0  0  0  0  0  0  0  0  0  0
  151.6507  138.4923  154.4600 C   0  0  0  0  0  0  0  0  0  0  0  0
  152.1773  137.1217  154.8752 C   0  0  0  0  0  0  0  0  0  0  0  0
  151.0240  136.5692  155.7069 C   0  0  0  0  0  0  0  0  0  0  0  0
  149.7771  137.1371  155.0209 C   0  0  0  0  0  0  0  0  0  0  0  0
  145.6770  134.0214  151.9613 C   0  0  1  0  0  0  0  0  0  0  0  0
  144.5499  132.9889  151.9205 C   0  0  0  0  0  0  0  0  0  0  0  0
  145.1276  131.8767  151.0632 C   0  0  0  0  0  0  0  0  0  0  0  0
  146.2555  132.5583  150.2829 C   0  0  0  0  0  0  0  0  0  0  0  0
  146.1949  133.9327  150.6429 O   0  0  0  0  0  0  0  0  0  0  0  0
  143.4394  135.4408  151.0440 H   0  0  0  0  0  0  0  0  0  0  0  0
  144.8589  136.0725  150.2148 H   0  0  0  0  0  0  0  0  0  0  0  0
  144.0232  137.0571  151.4139 H   0  0  0  0  0  0  0  0  0  0  0  0
  144.6562  135.4583  153.2026 H   0  0  0  0  0  0  0  0  0  0  0  0
  147.2851  135.9643  152.1210 H   0  0  0  0  0  0  0  0  0  0  0  0
  148.3777  137.4793  152.6813 H   0  0  0  0  0  0  0  0  0  0  0  0
  146.2755  140.4677  153.0659 H   0  0  0  0  0  0  0  0  0  0  0  0
  147.1409  142.5782  154.0400 H   0  0  0  0  0  0  0  0  0  0  0  0
  149.4384  142.5887  155.0426 H   0  0  0  0  0  0  0  0  0  0  0  0
  152.1356  138.8559  153.5538 H   0  0  0  0  0  0  0  0  0  0  0  0
  151.8360  139.2094  155.2609 H   0  0  0  0  0  0  0  0  0  0  0  0
  152.3344  136.4983  153.9939 H   0  0  0  0  0  0  0  0  0  0  0  0
  153.1165  137.1759  155.4264 H   0  0  0  0  0  0  0  0  0  0  0  0
  151.0194  135.4801  155.7604 H   0  0  0  0  0  0  0  0  0  0  0  0
  151.0905  136.9552  156.7250 H   0  0  0  0  0  0  0  0  0  0  0  0
  149.0027  137.3898  155.7466 H   0  0  0  0  0  0  0  0  0  0  0  0
  149.3669  136.3996  154.3307 H   0  0  0  0  0  0  0  0  0  0  0  0
  146.4473  133.6964  152.6638 H   0  0  0  0  0  0  0  0  0  0  0  0
  144.2485  132.6476  152.9114 H   0  0  0  0  0  0  0  0  0  0  0  0
  143.6729  133.4101  151.4269 H   0  0  0  0  0  0  0  0  0  0  0  0
  145.5282  131.0743  151.6837 H   0  0  0  0  0  0  0  0  0  0  0  0
  144.3712  131.4478  150.4050 H   0  0  0  0  0  0  0  0  0  0  0  0
  147.2244  132.1502  150.5735 H   0  0  0  0  0  0  0  0  0  0  0  0
  146.1464  132.4391  149.2047 H   0  0  0  0  0  0  0  0  0  0  0  0
  1  2  1  0  0  0  0
  1 23  1  0  0  0  0
  1 24  1  0  0  0  0
  1 25  1  0  0  0  0
  2  3  1  0  0  0  0
  2 18  1  0  0  0  0
  2 26  1  0  0  0  0
  3  4  1  0  0  0  0
  3 27  1  0  0  0  0
  4  5  2  0  0  0  0
  4  6  1  0  0  0  0
  6  7  1  0  0  0  0
  6 28  1  0  0  0  0
  7 12  1  0  0  0  0
  7  8  2  0  0  0  0
  8  9  1  0  0  0  0
  8 29  1  0  0  0  0
  9 10  2  0  0  0  0
  9 30  1  0  0  0  0
 10 11  1  0  0  0  0
 10 31  1  0  0  0  0
 11 12  2  0  0  0  0
 12 13  1  0  0  0  0
 13 17  1  0  0  0  0
 13 14  1  0  0  0  0
 14 15  1  0  0  0  0
 14 32  1  0  0  0  0
 14 33  1  0  0  0  0
 15 16  1  0  0  0  0
 15 34  1  0  0  0  0
 15 35  1  0  0  0  0
 16 17  1  0  0  0  0
 16 36  1  0  0  0  0
 16 37  1  0  0  0  0
 17 38  1  0  0  0  0
 17 39  1  0  0  0  0
 18 22  1  0  0  0  0
 18 19  1  0  0  0  0
 18 40  1  0  0  0  0
 19 20  1  0  0  0  0
 19 41  1  0  0  0  0
 19 42  1  0  0  0  0
 20 21  1  0  0  0  0
 20 43  1  0  0  0  0
 20 44  1  0  0  0  0
 21 22  1  0  0  0  0
 21 45  1  0  0  0  0
 21 46  1  0  0  0  0
M  END
> <s_m_source_file>
AV-unprocessed.smi

> <i_m_source_file_index>
1793

> <i_lp_mmshare_version>
43012

> <i_f3d_flags>
0

> <s_epik_input>
TzFbQ0gyXVtDSDJdW0NIMl1bQ0BIXTFbQ0BIXShbQ0gzXSlbTkhdQyg9TylbTkhdYzJbY0hdW2NIXVtjSF1uYzJOM1tDSDJdW0NIMl1bQ0gyXVtDSDJdMw==

> <s_epik_cmdline>
J2VwaWtfcHl0aG9uJywgJy1waCcsICc3LjAnLCAnLXRuJywgJzgnLCAnLW1hJywgJzIwMCcsICctbWV0YWxfYmluZGluZycsICctaW1hZScsICc8aW5maWxlLm1hZT4nLCAnLW9tYWUnLCAnPG91dGZpbGUubWFlPic=

> <r_lp_tautomer_probability>
1

> <r_epik_Ionization_Penalty>
0.0992086

> <r_epik_Ionization_Penalty_Charging>
0

> <r_epik_Ionization_Penalty_Neutral>
0.0992086

> <r_epik_State_Penalty>
0.0887141

> <r_epik_Charging_Adjusted_Penalty>
0.0887141

> <i_epik_Tot_Q>
0

> <i_epik_Tot_abs_Q>
0

> <r_epik_Metal_State_Penalty>
0.075945

> <b_epik_Metal_Only>
0

> <s_lp_Force_Field>
OPLS_2005

> <r_lp_Energy>
46.1922

> <b_lp_Chiralities_Consistent>
1

> <s_lp_Variant>
AV-unprocessed.smi:1793-3

> <Gold.Version>
5.8.1

> <Gold.Id.Protein>
6NUR|6NUR_protein|mol2

> <Gold.PLP.Fitness>
39.5673

> <Gold.PLP.PLP>
-29.9112

> <Gold.PLP.part.hbond>
-3.0752

> <Gold.PLP.part.metal>
0.0000

> <Gold.PLP.part.buried>
4.3842

> <Gold.PLP.part.nonpolar>
-31.5657

> <Gold.PLP.part.repulsive>
1.4090

> <Gold.PLP.ligand.clash>
0.0000

> <Gold.PLP.ligand.torsion>
0.7557

> <Gold.PLP.Chemscore.Hbond>
2.6020

> <Gold.PLP.Chemscore.CHOScore>
1.0000

> <Gold.PLP.Chemscore.Metal>
0.0000

> <Gold.Chemscore.Hbonds>
donor molecule, donor type, donor heavy atom, donor atom, acceptor molecule, acceptor atom, score
      L1  H     3    27       P1  7948  0.98
      L1  H     6    28       P1  7948  1.00
      P1  H  7989  7998       L1    11  0.53
      L1  C    10    31       P1  8028  1.00

> <Gold.PLP.Chemscore.Internal.Correction>
0.3615

> <Gold.Rescore>
     Score         DG    S(hbond)    S(metal)    S(lipo)     H(rot)  DE(clash)    DE(int)     intcor
     15.25     -18.76       1.95        0.00      87.54       1.36       0.60       2.91       ----

> <Gold.Chemscore.Fitness>
15.2480

> <Gold.Chemscore.DG>
-18.7626

> <Gold.Chemscore.ZeroCoef>
-5.4800

> <Gold.Chemscore.Hbond>
1.9514

> <Gold.Chemscore.Metal>
0.0000

> <Gold.Chemscore.Lipo>
87.5398

> <Gold.Chemscore.Internal_Hbond>
0.0000

> <Gold.Chemscore.DEClash>
0.6004

> <Gold.Chemscore.DEInternal>
2.9143

> <Gold.Chemscore.Rot>
1.3582

> <Gold.Chemscore.Internal.Correction>
   9.000000E+99

> <Gold.Chemscore.Hbonds>
donor molecule, donor type, donor heavy atom, donor atom, acceptor molecule, acceptor atom, score
      L1  H     3    27       P1  7948  0.93
      L1  H     6    28       P1  7948  0.95
      P1  H  7989  7998       L1    11  0.14

> <Gold.Chemscore.Hbond.Weighted>
-6.5175

> <Gold.Chemscore.Metal.Weighted>
-0.0000

> <Gold.Chemscore.Lipo.Weighted>
-10.2422

> <Gold.Chemscore.Internal_Hbond.Weighted>
0.0000

> <Gold.Chemscore.DEClash.Weighted>
0.6004

> <Gold.Chemscore.DEInternal.Weighted>
2.9143

> <Gold.Chemscore.Rot.Weighted>
3.4771

> <Gold.Chemscore.Internal.Correction.Weighted>
   9.000000E+99

> <Gold.Protein.RotatedTorsions>
[ 6907 6896 6895 6894 ] final -159.37 input  -60.11 | X-H torsion
[ 7974 7965 7964 7962 ] final   68.90 input  175.53 | X-H torsion
[ 8008 7997 7996 7995 ] final  -86.92 input   59.86 | X-H torsion
[ 10167 10162 10161 10158 ] final  -41.76 input  -65.29 | X-H torsion
[ 10718 10713 10712 10709 ] final -111.10 input   66.30 | X-H torsion
[ 10763 10752 10751 10750 ] final -122.70 input  -60.55 | X-H torsion
[ 11005 11000 10999 10996 ] final  110.02 input  -57.11 | X-H torsion

> <Gold.Protein.ActiveResidues>
 VAL166  LYS551  ARG553  GLY616  TRP617  ASP618  TYR619  PRO620  LYS621  CYS622 
 ASP623  PHE694  ASN695  SER759  ASP760  ASP761  ALA762  ILE779  LEU786  VAL792 
 PHE793  MET794  SER795  GLU796  ALA797  LYS798  CYS799  TRP800  GLU811  SER814 

> <Gold.Protein.RotatedAtoms>
  151.3325  133.3995  159.2663 H   0  0  0  0  0  0  0  0  0  0  0  0  # atno 6907 bound_to 6896
  150.9944  134.9272  159.7928 H   0  0  0  0  0  0  0  0  0  0  0  0  # atno 6908 bound_to 6896
  152.5257  134.3290  159.9228 H   0  0  0  0  0  0  0  0  0  0  0  0  # atno 6909 bound_to 6896
  145.7969  139.2962  143.1177 H   0  0  0  0  0  0  0  0  0  0  0  0  # atno 7974 bound_to 7965
  154.6574  140.0572  157.0024 H   0  0  0  0  0  0  0  0  0  0  0  0  # atno 8008 bound_to 7997
  155.1280  140.3254  155.4462 H   0  0  0  0  0  0  0  0  0  0  0  0  # atno 8009 bound_to 7997
  156.2603  140.1986  156.6400 H   0  0  0  0  0  0  0  0  0  0  0  0  # atno 8010 bound_to 7997
  140.6992  143.3076  151.3112 H   0  0  0  0  0  0  0  0  0  0  0  0  # atno 10167 bound_to 10162
  156.0628  130.5849  150.8327 H   0  0  0  0  0  0  0  0  0  0  0  0  # atno 10718 bound_to 10713
  154.8694  135.4124  154.2824 H   0  0  0  0  0  0  0  0  0  0  0  0  # atno 10763 bound_to 10752
  153.3715  135.7008  153.6640 H   0  0  0  0  0  0  0  0  0  0  0  0  # atno 10764 bound_to 10752
  153.5500  135.3631  155.2727 H   0  0  0  0  0  0  0  0  0  0  0  0  # atno 10765 bound_to 10752
  139.8873  134.9473  156.6215 H   0  0  0  0  0  0  0  0  0  0  0  0  # atno 11005 bound_to 11000
  145.9918  140.8596  143.0062 LP  0  0  0  0  0  0  0  0  0  0  0  0  # atno 17320 bound_to 7965
  144.6774  140.2226  143.7364 LP  0  0  0  0  0  0  0  0  0  0  0  0  # atno 17321 bound_to 7965
  139.6487  144.0402  152.2610 LP  0  0  0  0  0  0  0  0  0  0  0  0  # atno 17342 bound_to 10162
  139.9932  144.6347  150.7796 LP  0  0  0  0  0  0  0  0  0  0  0  0  # atno 17343 bound_to 10162
  157.5648  131.0946  150.9506 LP  0  0  0  0  0  0  0  0  0  0  0  0  # atno 17370 bound_to 10713
  156.9735  130.5500  149.5292 LP  0  0  0  0  0  0  0  0  0  0  0  0  # atno 17371 bound_to 10713
  140.7735  133.8718  155.8511 LP  0  0  0  0  0  0  0  0  0  0  0  0  # atno 17394 bound_to 11000
  140.9821  134.1391  157.4485 LP  0  0  0  0  0  0  0  0  0  0  0  0  # atno 17395 bound_to 11000

$$$$
