AV-unprocessed.smi:1006|AV-procd|sdf|4394|dock7
  -GOLD-   22720 2323D 1   1.00000     0.00000
 Structure written by MMmdl.
 46 48  0  0  0  0  0  0  0  0  2 V2000
  145.3904  134.8546  154.1166 C   0  0  0  0  0  0  0  0  0  0  0  0
  145.9741  136.1990  153.7376 C   0  0  0  0  0  0  0  0  0  0  0  0
  145.6375  136.8348  152.5223 C   0  0  0  0  0  0  0  0  0  0  0  0
  146.2440  138.0860  152.2834 C   0  0  0  0  0  0  0  0  0  0  0  0
  145.9787  138.7948  151.1147 N   0  0  0  0  0  0  0  0  0  0  0  0
  147.0957  138.6453  153.1696 N   0  0  0  0  0  0  0  0  0  0  0  0
  147.3371  137.9445  154.2803 C   0  0  0  0  0  0  0  0  0  0  0  0
  148.4275  138.6962  155.4596 S   0  0  0  0  0  0  0  0  0  0  0  0
  149.1796  139.9423  154.3784 C   0  0  0  0  0  0  0  0  0  0  0  0
  149.3400  141.3110  155.0655 C   0  0  2  0  0  0  0  0  0  0  0  0
  148.8756  142.3290  154.2025 O   0  0  0  0  0  0  0  0  0  0  0  0
  150.7947  141.6467  155.4528 C   0  0  0  0  0  0  0  0  0  0  0  0
  151.1941  141.0639  156.7416 N   0  0  0  0  0  0  0  0  0  0  0  0
  151.3543  139.7575  157.0869 C   0  0  0  0  0  0  0  0  0  0  0  0
  151.7449  139.7219  158.3908 N   0  3  0  0  0  0  0  0  0  0  0  0
  151.8367  141.0243  158.8861 C   0  0  0  0  0  0  0  0  0  0  0  0
  152.1982  141.4962  160.1424 C   0  0  0  0  0  0  0  0  0  0  0  0
  152.2034  142.8970  160.3283 C   0  0  0  0  0  0  0  0  0  0  0  0
  152.6000  143.4468  161.6879 C   0  0  0  0  0  0  0  0  0  0  0  0
  151.8504  143.7748  159.2709 C   0  0  0  0  0  0  0  0  0  0  0  0
  151.8700  145.2798  159.4775 C   0  0  0  0  0  0  0  0  0  0  0  0
  151.4771  143.2745  158.0033 C   0  0  0  0  0  0  0  0  0  0  0  0
  151.4811  141.8915  157.8346 C   0  0  0  0  0  0  0  0  0  0  0  0
  146.8287  136.7592  154.6223 N   0  0  0  0  0  0  0  0  0  0  0  0
  144.7081  134.4909  153.3479 H   0  0  0  0  0  0  0  0  0  0  0  0
  144.8379  134.9318  155.0535 H   0  0  0  0  0  0  0  0  0  0  0  0
  146.1843  134.1184  154.2439 H   0  0  0  0  0  0  0  0  0  0  0  0
  144.9551  136.3870  151.8145 H   0  0  0  0  0  0  0  0  0  0  0  0
  145.3496  138.4353  150.4114 H   0  0  0  0  0  0  0  0  0  0  0  0
  146.4838  139.6394  150.8889 H   0  0  0  0  0  0  0  0  0  0  0  0
  150.1517  139.5552  154.0745 H   0  0  0  0  0  0  0  0  0  0  0  0
  148.5761  140.0350  153.4747 H   0  0  0  0  0  0  0  0  0  0  0  0
  148.7229  141.3312  155.9648 H   0  0  0  0  0  0  0  0  0  0  0  0
  148.5541  143.0471  154.7259 H   0  0  0  0  0  0  0  0  0  0  0  0
  151.4946  141.3266  154.6807 H   0  0  0  0  0  0  0  0  0  0  0  0
  150.9146  142.7274  155.5419 H   0  0  0  0  0  0  0  0  0  0  0  0
  151.2035  138.9042  156.4414 H   0  0  0  0  0  0  0  0  0  0  0  0
  152.4692  140.8216  160.9413 H   0  0  0  0  0  0  0  0  0  0  0  0
  151.8026  144.0662  162.0995 H   0  0  0  0  0  0  0  0  0  0  0  0
  153.5034  144.0523  161.6062 H   0  0  0  0  0  0  0  0  0  0  0  0
  152.7983  142.6450  162.4002 H   0  0  0  0  0  0  0  0  0  0  0  0
  151.6061  145.8117  158.5629 H   0  0  0  0  0  0  0  0  0  0  0  0
  152.8634  145.6126  159.7792 H   0  0  0  0  0  0  0  0  0  0  0  0
  151.1569  145.5695  160.2495 H   0  0  0  0  0  0  0  0  0  0  0  0
  151.2117  143.9459  157.2003 H   0  0  0  0  0  0  0  0  0  0  0  0
  151.9385  138.8698  158.9012 H   0  0  0  0  0  0  0  0  0  0  0  0
  1  2  1  0  0  0  0
  1 25  1  0  0  0  0
  1 26  1  0  0  0  0
  1 27  1  0  0  0  0
  2 24  1  0  0  0  0
  2  3  2  0  0  0  0
  3  4  1  0  0  0  0
  3 28  1  0  0  0  0
  4  5  1  0  0  0  0
  4  6  2  0  0  0  0
  5 29  1  0  0  0  0
  5 30  1  0  0  0  0
  6  7  1  0  0  0  0
  7  8  1  0  0  0  0
  7 24  2  0  0  0  0
  8  9  1  0  0  0  0
  9 10  1  0  0  0  0
  9 31  1  0  0  0  0
  9 32  1  0  0  0  0
 10 11  1  0  0  0  0
 10 12  1  0  0  0  0
 10 33  1  0  0  0  0
 11 34  1  0  0  0  0
 12 13  1  0  0  0  0
 12 35  1  0  0  0  0
 12 36  1  0  0  0  0
 13 23  1  0  0  0  0
 13 14  1  0  0  0  0
 14 15  2  0  0  0  0
 14 37  1  0  0  0  0
 15 16  1  0  0  0  0
 15 46  1  0  0  0  0
 16 23  2  0  0  0  0
 16 17  1  0  0  0  0
 17 18  2  0  0  0  0
 17 38  1  0  0  0  0
 18 19  1  0  0  0  0
 18 20  1  0  0  0  0
 19 39  1  0  0  0  0
 19 40  1  0  0  0  0
 19 41  1  0  0  0  0
 20 21  1  0  0  0  0
 20 22  2  0  0  0  0
 21 42  1  0  0  0  0
 21 43  1  0  0  0  0
 21 44  1  0  0  0  0
 22 23  1  0  0  0  0
 22 45  1  0  0  0  0
M  CHG  1  15   1
M  END
> <s_m_source_file>
AV-unprocessed.smi

> <i_m_source_file_index>
1006

> <i_lp_mmshare_version>
43012

> <i_f3d_flags>
0

> <s_epik_input>
W0NIM11jMVtjSF1jKFtOSDJdKW5jKG4xKVNbQ0gyXVtDQEhdKFtPSF0pW0NIMl1uKFtjSF1uMiljKGMyMylbY0hdYyhbQ0gzXSljKFtjSF0zKVtDSDNd

> <s_epik_cmdline>
J2VwaWtfcHl0aG9uJywgJy1waCcsICc3LjAnLCAnLXRuJywgJzgnLCAnLW1hJywgJzIwMCcsICctbWV0YWxfYmluZGluZycsICctaW1hZScsICc8aW5maWxlLm1hZT4nLCAnLW9tYWUnLCAnPG91dGZpbGUubWFlPic=

> <r_epik_Ionization_Penalty>
1.4378

> <r_epik_Ionization_Penalty_Charging>
1.06724

> <r_epik_Ionization_Penalty_Neutral>
0.370564

> <r_epik_State_Penalty>
1.48666

> <r_epik_Charging_Adjusted_Penalty>
2.5539

> <i_epik_Tot_Q>
1

> <i_epik_Tot_abs_Q>
1

> <r_epik_Metal_State_Penalty>
1.38026

> <b_epik_Metal_Only>
0

> <s_lp_Force_Field>
OPLS_2005

> <r_lp_Energy>
8.71661

> <b_lp_Chiralities_Consistent>
1

> <s_lp_Variant>
AV-unprocessed.smi:1006-5

> <Gold.Version>
5.8.1

> <Gold.Id.Protein>
6NUR|6NUR_protein|mol2

> <Gold.PLP.Fitness>
47.1172

> <Gold.PLP.PLP>
-43.6911

> <Gold.PLP.part.hbond>
-3.6059

> <Gold.PLP.part.metal>
0.0000

> <Gold.PLP.part.buried>
-5.5426

> <Gold.PLP.part.nonpolar>
-35.3299

> <Gold.PLP.part.repulsive>
0.5034

> <Gold.PLP.ligand.clash>
0.0000

> <Gold.PLP.ligand.torsion>
1.4824

> <Gold.PLP.Chemscore.Hbond>
2.1195

> <Gold.PLP.Chemscore.CHOScore>
0.0000

> <Gold.PLP.Chemscore.Metal>
0.0000

> <Gold.Chemscore.Hbonds>
donor molecule, donor type, donor heavy atom, donor atom, acceptor molecule, acceptor atom, score
      L1  H     5    29       P1 10171  0.86
      L1  H    11    34       P1  8028  1.00
      P1  H  8011  8017       L1    11  0.20

> <Gold.PLP.Chemscore.Internal.Correction>
0.0325

> <Gold.Rescore>
     Score         DG    S(hbond)    S(metal)    S(lipo)     H(rot)  DE(clash)    DE(int)     intcor
     16.36     -17.98       2.10        0.00     110.17       2.89       0.19       1.43       ----

> <Gold.Chemscore.Fitness>
16.3623

> <Gold.Chemscore.DG>
-17.9756

> <Gold.Chemscore.ZeroCoef>
-5.4800

> <Gold.Chemscore.Hbond>
2.0980

> <Gold.Chemscore.Metal>
0.0000

> <Gold.Chemscore.Lipo>
110.1652

> <Gold.Chemscore.Internal_Hbond>
0.0000

> <Gold.Chemscore.DEClash>
0.1874

> <Gold.Chemscore.DEInternal>
1.4259

> <Gold.Chemscore.Rot>
2.8910

> <Gold.Chemscore.Internal.Correction>
   9.000000E+99

> <Gold.Chemscore.Hbonds>
donor molecule, donor type, donor heavy atom, donor atom, acceptor molecule, acceptor atom, score
      L1  H     5    29       P1 10171  0.83
      L1  H    11    34       P1  8028  0.94
      P1  H  8011  8017       L1    11  0.18

> <Gold.Chemscore.Hbond.Weighted>
-7.0072

> <Gold.Chemscore.Metal.Weighted>
-0.0000

> <Gold.Chemscore.Lipo.Weighted>
-12.8893

> <Gold.Chemscore.Internal_Hbond.Weighted>
0.0000

> <Gold.Chemscore.DEClash.Weighted>
0.1874

> <Gold.Chemscore.DEInternal.Weighted>
1.4259

> <Gold.Chemscore.Rot.Weighted>
7.4009

> <Gold.Chemscore.Internal.Correction.Weighted>
   9.000000E+99

> <Gold.Protein.RotatedTorsions>
[ 6907 6896 6895 6894 ] final   -7.59 input  -60.11 | X-H torsion
[ 7974 7965 7964 7962 ] final  -43.97 input  175.53 | X-H torsion
[ 8008 7997 7996 7995 ] final  -61.72 input   59.86 | X-H torsion
[ 10167 10162 10161 10158 ] final  141.21 input  -65.29 | X-H torsion
[ 10718 10713 10712 10709 ] final  -65.07 input   66.30 | X-H torsion
[ 10763 10752 10751 10750 ] final  172.13 input  -60.55 | X-H torsion
[ 11005 11000 10999 10996 ] final  -92.80 input  -57.11 | X-H torsion

> <Gold.Protein.ActiveResidues>
 VAL166  LYS551  ARG553  GLY616  TRP617  ASP618  TYR619  PRO620  LYS621  CYS622 
 ASP623  PHE694  ASN695  SER759  ASP760  ASP761  ALA762  ILE779  LEU786  VAL792 
 PHE793  MET794  SER795  GLU796  ALA797  LYS798  CYS799  TRP800  GLU811  SER814 

> <Gold.Protein.RotatedAtoms>
  151.4471  135.1026  159.9686 H   0  0  0  0  0  0  0  0  0  0  0  0  # atno 6907 bound_to 6896
  152.4901  133.8474  159.7194 H   0  0  0  0  0  0  0  0  0  0  0  0  # atno 6908 bound_to 6896
  150.9047  133.7014  159.2897 H   0  0  0  0  0  0  0  0  0  0  0  0  # atno 6909 bound_to 6896
  145.9967  140.7121  142.9290 H   0  0  0  0  0  0  0  0  0  0  0  0  # atno 7974 bound_to 7965
  154.4462  140.1011  156.6474 H   0  0  0  0  0  0  0  0  0  0  0  0  # atno 8008 bound_to 7997
  155.5434  140.3484  155.4433 H   0  0  0  0  0  0  0  0  0  0  0  0  # atno 8009 bound_to 7997
  156.0580  140.1319  156.9963 H   0  0  0  0  0  0  0  0  0  0  0  0  # atno 8010 bound_to 7997
  139.5027  144.6186  151.6105 H   0  0  0  0  0  0  0  0  0  0  0  0  # atno 10167 bound_to 10162
  156.0691  130.4242  150.1511 H   0  0  0  0  0  0  0  0  0  0  0  0  # atno 10718 bound_to 10713
  154.4217  135.2758  155.1971 H   0  0  0  0  0  0  0  0  0  0  0  0  # atno 10763 bound_to 10752
  154.3913  135.6065  153.5848 H   0  0  0  0  0  0  0  0  0  0  0  0  # atno 10764 bound_to 10752
  152.9833  135.5904  154.4515 H   0  0  0  0  0  0  0  0  0  0  0  0  # atno 10765 bound_to 10752
  141.1513  133.7845  157.0071 H   0  0  0  0  0  0  0  0  0  0  0  0  # atno 11005 bound_to 11000
  144.6906  140.3162  143.7240 LP  0  0  0  0  0  0  0  0  0  0  0  0  # atno 17320 bound_to 7965
  145.7549  139.1806  143.2300 LP  0  0  0  0  0  0  0  0  0  0  0  0  # atno 17321 bound_to 7965
  140.5881  143.9828  150.6308 LP  0  0  0  0  0  0  0  0  0  0  0  0  # atno 17342 bound_to 10162
  140.2999  143.3267  152.0981 LP  0  0  0  0  0  0  0  0  0  0  0  0  # atno 17343 bound_to 10162
  156.9565  130.9791  151.3488 LP  0  0  0  0  0  0  0  0  0  0  0  0  # atno 17370 bound_to 10713
  157.5751  130.8338  149.8445 LP  0  0  0  0  0  0  0  0  0  0  0  0  # atno 17371 bound_to 10713
  140.0902  134.9597  157.1763 LP  0  0  0  0  0  0  0  0  0  0  0  0  # atno 17394 bound_to 11000
  140.3457  134.2655  155.7205 LP  0  0  0  0  0  0  0  0  0  0  0  0  # atno 17395 bound_to 11000

$$$$
