AV-unprocessed.smi:583|AV-procd|sdf|2997|dock4
  -GOLD-   2262023503D 1   1.00000     0.00000
 Structure written by MMmdl.
 35 36  0  0  0  0  0  0  0  0  1 V2000
  150.1019  135.8798  158.2032 O   0  0  0  0  0  0  0  0  0  0  0  0
  149.4594  136.8017  158.7041 C   0  0  0  0  0  0  0  0  0  0  0  0
  148.0521  136.5151  159.2562 C   0  0  0  0  0  0  0  0  0  0  0  0
  147.9973  135.5141  160.3373 N   0  0  0  0  0  0  0  0  0  0  0  0
  148.0460  134.1584  159.9569 C   0  0  0  0  0  0  0  0  0  0  0  0
  148.0176  133.1463  160.8453 C   0  0  0  0  0  0  0  0  0  0  0  0
  148.0211  131.6917  160.4017 C   0  0  0  0  0  0  0  0  0  0  0  0
  147.7345  130.9034  161.4368 F   0  0  0  0  0  0  0  0  0  0  0  0
  147.1113  131.4773  159.4509 F   0  0  0  0  0  0  0  0  0  0  0  0
  149.2159  131.3355  159.9272 F   0  0  0  0  0  0  0  0  0  0  0  0
  147.8958  133.5169  162.2416 C   0  0  0  0  0  0  0  0  0  0  0  0
  147.8438  134.8083  162.6221 C   0  0  0  0  0  0  0  0  0  0  0  0
  147.9052  135.8983  161.6460 C   0  0  0  0  0  0  0  0  0  0  0  0
  147.8805  137.0819  161.9831 O   0  0  0  0  0  0  0  0  0  0  0  0
  149.9372  138.0548  158.7925 N   0  0  0  0  0  0  0  0  0  0  0  0
  151.2436  138.4945  158.3156 C   0  0  2  0  0  0  0  0  0  0  0  0
  151.2691  138.6878  156.7855 C   0  0  0  0  0  0  0  0  0  0  0  0
  152.7292  138.7735  156.3251 C   0  0  0  0  0  0  0  0  0  0  0  0
  153.6933  137.7420  157.4938 S   0  0  0  0  0  0  0  0  0  0  0  0
  154.0371  136.4627  156.8549 O   0  0  0  0  0  0  0  0  0  0  0  0
  154.7280  138.5766  158.1235 O   0  0  0  0  0  0  0  0  0  0  0  0
  152.3244  137.4681  158.6806 C   0  0  0  0  0  0  0  0  0  0  0  0
  147.6147  137.4579  159.5894 H   0  0  0  0  0  0  0  0  0  0  0  0
  147.4238  136.1980  158.4227 H   0  0  0  0  0  0  0  0  0  0  0  0
  148.1128  133.9938  158.8910 H   0  0  0  0  0  0  0  0  0  0  0  0
  147.8499  132.7461  162.9970 H   0  0  0  0  0  0  0  0  0  0  0  0
  147.7557  135.0474  163.6718 H   0  0  0  0  0  0  0  0  0  0  0  0
  149.3483  138.7556  159.2187 H   0  0  0  0  0  0  0  0  0  0  0  0
  151.5061  139.4420  158.7898 H   0  0  0  0  0  0  0  0  0  0  0  0
  150.8029  137.8248  156.3076 H   0  0  0  0  0  0  0  0  0  0  0  0
  150.7028  139.5667  156.4753 H   0  0  0  0  0  0  0  0  0  0  0  0
  152.8750  138.4235  155.3032 H   0  0  0  0  0  0  0  0  0  0  0  0
  153.0973  139.7971  156.3987 H   0  0  0  0  0  0  0  0  0  0  0  0
  152.6861  137.5731  159.7036 H   0  0  0  0  0  0  0  0  0  0  0  0
  151.9661  136.4476  158.5408 H   0  0  0  0  0  0  0  0  0  0  0  0
  1  2  2  0  0  0  0
  2  3  1  0  0  0  0
  2 15  1  0  0  0  0
  3  4  1  0  0  0  0
  3 23  1  0  0  0  0
  3 24  1  0  0  0  0
  4 13  1  0  0  0  0
  4  5  1  0  0  0  0
  5  6  2  0  0  0  0
  5 25  1  0  0  0  0
  6  7  1  0  0  0  0
  6 11  1  0  0  0  0
  7  8  1  0  0  0  0
  7  9  1  0  0  0  0
  7 10  1  0  0  0  0
 11 12  2  0  0  0  0
 11 26  1  0  0  0  0
 12 13  1  0  0  0  0
 12 27  1  0  0  0  0
 13 14  2  0  0  0  0
 15 16  1  0  0  0  0
 15 28  1  0  0  0  0
 16 22  1  0  0  0  0
 16 17  1  0  0  0  0
 16 29  1  0  0  0  0
 17 18  1  0  0  0  0
 17 30  1  0  0  0  0
 17 31  1  0  0  0  0
 18 19  1  0  0  0  0
 18 32  1  0  0  0  0
 18 33  1  0  0  0  0
 19 20  2  0  0  0  0
 19 21  2  0  0  0  0
 19 22  1  0  0  0  0
 22 34  1  0  0  0  0
 22 35  1  0  0  0  0
M  END
> <s_m_source_file>
AV-unprocessed.smi

> <i_m_source_file_index>
583

> <i_lp_mmshare_version>
43012

> <i_f3d_flags>
0

> <s_epik_input>
Tz1TMSg9TylbQ0gyXVtDSDJdW0NASF0oW0NIMl0xKVtOSF1DKD1PKVtDSDJdbjJbY0hdYyhDKEYpKEYpRilbY0hdW2NIXWMyPU8=

> <s_epik_cmdline>
J2VwaWtfcHl0aG9uJywgJy1waCcsICc3LjAnLCAnLXRuJywgJzgnLCAnLW1hJywgJzIwMCcsICctbWV0YWxfYmluZGluZycsICctaW1hZScsICc8aW5maWxlLm1hZT4nLCAnLW9tYWUnLCAnPG91dGZpbGUubWFlPic=

> <r_lp_tautomer_probability>
1

> <r_epik_Ionization_Penalty>
1.22016e-07

> <r_epik_Ionization_Penalty_Charging>
1.48237e-08

> <r_epik_Ionization_Penalty_Neutral>
1.07193e-07

> <r_epik_State_Penalty>
-0

> <r_epik_Charging_Adjusted_Penalty>
1.48237e-08

> <i_epik_Tot_Q>
0

> <i_epik_Tot_abs_Q>
0

> <r_epik_Metal_State_Penalty>
-0

> <b_epik_Metal_Only>
0

> <s_lp_Force_Field>
OPLS_2005

> <r_lp_Energy>
16.6381

> <b_lp_Chiralities_Consistent>
1

> <s_lp_Variant>
AV-unprocessed.smi:583-1

> <Gold.Version>
5.8.1

> <Gold.Id.Protein>
6NUR|6NUR_protein|mol2

> <Gold.PLP.Fitness>
44.1998

> <Gold.PLP.PLP>
-33.0055

> <Gold.PLP.part.hbond>
-5.0000

> <Gold.PLP.part.metal>
0.0000

> <Gold.PLP.part.buried>
-4.5084

> <Gold.PLP.part.nonpolar>
-23.9038

> <Gold.PLP.part.repulsive>
0.1911

> <Gold.PLP.ligand.clash>
0.3882

> <Gold.PLP.ligand.torsion>
0.7880

> <Gold.PLP.Chemscore.Hbond>
4.3740

> <Gold.PLP.Chemscore.CHOScore>
0.0000

> <Gold.PLP.Chemscore.Metal>
0.0000

> <Gold.Chemscore.Hbonds>
donor molecule, donor type, donor heavy atom, donor atom, acceptor molecule, acceptor atom, score
      P1  H  6896  6909       L1     1  0.69
      P1  H  6931  6943       L1    14  1.00
      P1  H  6934  6947       L1    14  0.19
      P1  H  7997  8009       L1    21  1.00
      P1  H 10752 10764       L1    20  0.99

> <Gold.PLP.Chemscore.Internal.Correction>
0.0367

> <Gold.Rescore>
     Score         DG    S(hbond)    S(metal)    S(lipo)     H(rot)  DE(clash)    DE(int)     intcor
     20.46     -22.55       4.68        0.00      50.17       1.73       0.01       2.09       ----

> <Gold.Chemscore.Fitness>
20.4609

> <Gold.Chemscore.DG>
-22.5520

> <Gold.Chemscore.ZeroCoef>
-5.4800

> <Gold.Chemscore.Hbond>
4.6810

> <Gold.Chemscore.Metal>
0.0000

> <Gold.Chemscore.Lipo>
50.1713

> <Gold.Chemscore.Internal_Hbond>
0.0000

> <Gold.Chemscore.DEClash>
0.0055

> <Gold.Chemscore.DEInternal>
2.0856

> <Gold.Chemscore.Rot>
1.7314

> <Gold.Chemscore.Internal.Correction>
   9.000000E+99

> <Gold.Chemscore.Hbonds>
donor molecule, donor type, donor heavy atom, donor atom, acceptor molecule, acceptor atom, score
      P1  H  6896  6909       L1     1  0.60
      P1  H  6931  6943       L1    14  0.98
      P1  H  6934  6947       L1    14  0.20
      P1  H  7997  8009       L1    21  0.86
      P1  H 10752 10764       L1    20  0.94

> <Gold.Chemscore.Hbond.Weighted>
-15.6344

> <Gold.Chemscore.Metal.Weighted>
-0.0000

> <Gold.Chemscore.Lipo.Weighted>
-5.8700

> <Gold.Chemscore.Internal_Hbond.Weighted>
0.0000

> <Gold.Chemscore.DEClash.Weighted>
0.0055

> <Gold.Chemscore.DEInternal.Weighted>
2.0856

> <Gold.Chemscore.Rot.Weighted>
4.4324

> <Gold.Chemscore.Internal.Correction.Weighted>
   9.000000E+99

> <Gold.Protein.RotatedTorsions>
[ 6907 6896 6895 6894 ] final   35.09 input  -60.11 | X-H torsion
[ 7974 7965 7964 7962 ] final -110.97 input  175.53 | X-H torsion
[ 8008 7997 7996 7995 ] final  121.59 input   59.86 | X-H torsion
[ 10167 10162 10161 10158 ] final  148.07 input  -65.29 | X-H torsion
[ 10718 10713 10712 10709 ] final   -5.93 input   66.30 | X-H torsion
[ 10763 10752 10751 10750 ] final   17.02 input  -60.55 | X-H torsion
[ 11005 11000 10999 10996 ] final   89.91 input  -57.11 | X-H torsion

> <Gold.Protein.ActiveResidues>
 VAL166  LYS551  ARG553  GLY616  TRP617  ASP618  TYR619  PRO620  LYS621  CYS622 
 ASP623  PHE694  ASN695  SER759  ASP760  ASP761  ALA762  ILE779  LEU786  VAL792 
 PHE793  MET794  SER795  GLU796  ALA797  LYS798  CYS799  TRP800  GLU811  SER814 

> <Gold.Protein.RotatedAtoms>
  152.1114  134.9272  160.0566 H   0  0  0  0  0  0  0  0  0  0  0  0  # atno 6907 bound_to 6896
  152.0448  133.3988  159.4360 H   0  0  0  0  0  0  0  0  0  0  0  0  # atno 6908 bound_to 6896
  150.6843  134.3295  159.4864 H   0  0  0  0  0  0  0  0  0  0  0  0  # atno 6909 bound_to 6896
  145.1617  140.8882  143.3587 H   0  0  0  0  0  0  0  0  0  0  0  0  # atno 7974 bound_to 7965
  156.2693  140.2805  156.1332 H   0  0  0  0  0  0  0  0  0  0  0  0  # atno 8008 bound_to 7997
  155.1032  140.0390  157.2720 H   0  0  0  0  0  0  0  0  0  0  0  0  # atno 8009 bound_to 7997
  154.6799  140.2606  155.6925 H   0  0  0  0  0  0  0  0  0  0  0  0  # atno 8010 bound_to 7997
  139.4880  144.5707  151.7060 H   0  0  0  0  0  0  0  0  0  0  0  0  # atno 10167 bound_to 10162
  156.7393  130.5204  149.5828 H   0  0  0  0  0  0  0  0  0  0  0  0  # atno 10718 bound_to 10713
  153.1377  135.6753  153.9076 H   0  0  0  0  0  0  0  0  0  0  0  0  # atno 10763 bound_to 10752
  153.8543  135.3089  155.3435 H   0  0  0  0  0  0  0  0  0  0  0  0  # atno 10764 bound_to 10752
  154.7761  135.4913  153.9831 H   0  0  0  0  0  0  0  0  0  0  0  0  # atno 10765 bound_to 10752
  139.8866  134.8581  156.3209 H   0  0  0  0  0  0  0  0  0  0  0  0  # atno 11005 bound_to 11000
  145.0324  139.3329  143.6018 LP  0  0  0  0  0  0  0  0  0  0  0  0  # atno 17320 bound_to 7965
  146.3481  139.9666  142.8711 LP  0  0  0  0  0  0  0  0  0  0  0  0  # atno 17321 bound_to 7965
  140.5294  144.0754  150.6048 LP  0  0  0  0  0  0  0  0  0  0  0  0  # atno 17342 bound_to 10162
  140.3739  143.2839  152.0247 LP  0  0  0  0  0  0  0  0  0  0  0  0  # atno 17343 bound_to 10162
  156.1475  130.6287  151.0551 LP  0  0  0  0  0  0  0  0  0  0  0  0  # atno 17370 bound_to 10713
  157.6825  131.0834  150.7331 LP  0  0  0  0  0  0  0  0  0  0  0  0  # atno 17371 bound_to 10713
  140.9787  133.7281  156.0641 LP  0  0  0  0  0  0  0  0  0  0  0  0  # atno 17394 bound_to 11000
  140.7777  134.3761  157.5494 LP  0  0  0  0  0  0  0  0  0  0  0  0  # atno 17395 bound_to 11000

$$$$
