AV-unprocessed.smi:1735|AV-procd|sdf|6989|dock3
  -GOLD-   22720 8203D 1   1.00000     0.00000
 Structure written by MMmdl.
 32 33  0  0  0  0  0  0  0  0  1 V2000
  151.1034  140.7241  156.3622 O   0  0  0  0  0  0  0  0  0  0  0  0
  150.4210  141.7315  156.1737 C   0  0  0  0  0  0  0  0  0  0  0  0
  149.4218  141.8315  155.2816 N   0  0  0  0  0  0  0  0  0  0  0  0
  148.9446  140.8227  154.4072 C   0  0  0  0  0  0  0  0  0  0  0  0
  147.7642  140.9240  153.6220 C   0  0  0  0  0  0  0  0  0  0  0  0
  147.5660  139.8283  152.9031 N   0  0  0  0  0  0  0  0  0  0  0  0
  148.6089  139.0288  153.2217 N   0  0  0  0  0  0  0  0  0  0  0  0
  149.4738  139.5927  154.1334 C   0  0  0  0  0  0  0  0  0  0  0  0
  150.5873  142.8780  156.8485 N   0  0  0  0  0  0  0  0  0  0  0  0
  151.5761  143.1036  157.8985 C   0  0  2  0  0  0  0  0  0  0  0  0
  151.5490  141.9523  158.9245 C   0  0  0  0  0  0  0  0  0  0  0  0
  152.5304  142.2023  160.0828 C   0  0  0  0  0  0  0  0  0  0  0  0
  152.2956  143.5631  160.7650 C   0  0  2  0  0  0  0  0  0  0  0  0
  151.0791  143.5409  161.4856 O   0  0  0  0  0  0  0  0  0  0  0  0
  152.2809  144.7138  159.7412 C   0  0  0  0  0  0  0  0  0  0  0  0
  151.2988  144.4531  158.5855 C   0  0  0  0  0  0  0  0  0  0  0  0
  148.7153  138.1108  152.8138 H   0  0  0  0  0  0  0  0  0  0  0  0
  148.9455  142.7201  155.2291 H   0  0  0  0  0  0  0  0  0  0  0  0
  147.0590  141.7391  153.5521 H   0  0  0  0  0  0  0  0  0  0  0  0
  150.3550  139.0793  154.4889 H   0  0  0  0  0  0  0  0  0  0  0  0
  149.9790  143.6524  156.6259 H   0  0  0  0  0  0  0  0  0  0  0  0
  152.5694  143.1514  157.4475 H   0  0  0  0  0  0  0  0  0  0  0  0
  150.5394  141.8357  159.3214 H   0  0  0  0  0  0  0  0  0  0  0  0
  151.7972  141.0085  158.4379 H   0  0  0  0  0  0  0  0  0  0  0  0
  152.4620  141.3952  160.8133 H   0  0  0  0  0  0  0  0  0  0  0  0
  153.5487  142.1722  159.6930 H   0  0  0  0  0  0  0  0  0  0  0  0
  153.0908  143.7411  161.4897 H   0  0  0  0  0  0  0  0  0  0  0  0
  151.1709  144.0929  162.2471 H   0  0  0  0  0  0  0  0  0  0  0  0
  152.0383  145.6559  160.2344 H   0  0  0  0  0  0  0  0  0  0  0  0
  153.2839  144.8359  159.3302 H   0  0  0  0  0  0  0  0  0  0  0  0
  151.3694  145.2628  157.8583 H   0  0  0  0  0  0  0  0  0  0  0  0
  150.2768  144.4717  158.9667 H   0  0  0  0  0  0  0  0  0  0  0  0
  1  2  2  0  0  0  0
  2  3  1  0  0  0  0
  2  9  1  0  0  0  0
  3  4  1  0  0  0  0
  3 18  1  0  0  0  0
  4  8  2  0  0  0  0
  4  5  1  0  0  0  0
  5  6  2  0  0  0  0
  5 19  1  0  0  0  0
  6  7  1  0  0  0  0
  7 17  1  0  0  0  0
  7  8  1  0  0  0  0
  8 20  1  0  0  0  0
  9 10  1  0  0  0  0
  9 21  1  0  0  0  0
 10 16  1  0  0  0  0
 10 11  1  0  0  0  0
 10 22  1  0  0  0  0
 11 12  1  0  0  0  0
 11 23  1  0  0  0  0
 11 24  1  0  0  0  0
 12 13  1  0  0  0  0
 12 25  1  0  0  0  0
 12 26  1  0  0  0  0
 13 14  1  0  0  0  0
 13 15  1  0  0  0  0
 13 27  1  0  0  0  0
 14 28  1  0  0  0  0
 15 16  1  0  0  0  0
 15 29  1  0  0  0  0
 15 30  1  0  0  0  0
 16 31  1  0  0  0  0
 16 32  1  0  0  0  0
M  END
> <s_m_source_file>
AV-unprocessed.smi

> <i_m_source_file_index>
1735

> <i_lp_mmshare_version>
43012

> <i_f3d_flags>
0

> <s_epik_input>
W2NIXTFbbkhdbltjSF1jMVtOSF1DKD1PKVtOSF1bQ0BASF0yW0NIMl1bQ0gyXVtDQEBIXShbT0hdKVtDSDJdW0NIMl0y

> <s_epik_cmdline>
J2VwaWtfcHl0aG9uJywgJy1waCcsICc3LjAnLCAnLXRuJywgJzgnLCAnLW1hJywgJzIwMCcsICctbWV0YWxfYmluZGluZycsICctaW1hZScsICc8aW5maWxlLm1hZT4nLCAnLW9tYWUnLCAnPG91dGZpbGUubWFlPic=

> <r_lp_tautomer_probability>
1

> <r_epik_Ionization_Penalty>
5.59555e-05

> <r_epik_Ionization_Penalty_Charging>
0

> <r_epik_Ionization_Penalty_Neutral>
5.59555e-05

> <r_epik_State_Penalty>
-0

> <r_epik_Charging_Adjusted_Penalty>
0

> <i_epik_Tot_Q>
0

> <i_epik_Tot_abs_Q>
0

> <r_epik_Metal_State_Penalty>
-0

> <b_epik_Metal_Only>
0

> <s_lp_Force_Field>
OPLS_2005

> <r_lp_Energy>
12.246

> <b_lp_Chiralities_Consistent>
1

> <s_lp_Variant>
AV-unprocessed.smi:1735-2

> <Gold.Version>
5.8.1

> <Gold.Id.Protein>
6NUR|6NUR_protein|mol2

> <Gold.PLP.Fitness>
45.8767

> <Gold.PLP.PLP>
-37.1844

> <Gold.PLP.part.hbond>
-5.7021

> <Gold.PLP.part.metal>
0.0000

> <Gold.PLP.part.buried>
-6.2762

> <Gold.PLP.part.nonpolar>
-28.5319

> <Gold.PLP.part.repulsive>
2.8035

> <Gold.PLP.ligand.clash>
0.0000

> <Gold.PLP.ligand.torsion>
0.1252

> <Gold.PLP.Chemscore.Hbond>
2.9799

> <Gold.PLP.Chemscore.CHOScore>
0.0000

> <Gold.PLP.Chemscore.Metal>
0.0000

> <Gold.Chemscore.Hbonds>
donor molecule, donor type, donor heavy atom, donor atom, acceptor molecule, acceptor atom, score
      L1  H     3    18       P1  8028  0.99
      L1  H     7    17       P1  7948  0.84
      L1  H     9    21       P1  8028  1.00
      P1  H  6933  6945       L1    14  0.20

> <Gold.PLP.Chemscore.Internal.Correction>
0.0030

> <Gold.Rescore>
     Score         DG    S(hbond)    S(metal)    S(lipo)     H(rot)  DE(clash)    DE(int)     intcor
     17.98     -20.62       2.59        0.00      88.56       1.51       0.14       2.50       ----

> <Gold.Chemscore.Fitness>
17.9774

> <Gold.Chemscore.DG>
-20.6204

> <Gold.Chemscore.ZeroCoef>
-5.4800

> <Gold.Chemscore.Hbond>
2.5907

> <Gold.Chemscore.Metal>
0.0000

> <Gold.Chemscore.Lipo>
88.5641

> <Gold.Chemscore.Internal_Hbond>
0.0000

> <Gold.Chemscore.DEClash>
0.1417

> <Gold.Chemscore.DEInternal>
2.5013

> <Gold.Chemscore.Rot>
1.5135

> <Gold.Chemscore.Internal.Correction>
   9.000000E+99

> <Gold.Chemscore.Hbonds>
donor molecule, donor type, donor heavy atom, donor atom, acceptor molecule, acceptor atom, score
      L1  H     3    18       P1  8028  0.88
      L1  H     7    17       P1  7948  0.82
      L1  H     9    21       P1  8028  1.00
      P1  H  6933  6945       L1    14  0.09

> <Gold.Chemscore.Hbond.Weighted>
-8.6529

> <Gold.Chemscore.Metal.Weighted>
-0.0000

> <Gold.Chemscore.Lipo.Weighted>
-10.3620

> <Gold.Chemscore.Internal_Hbond.Weighted>
0.0000

> <Gold.Chemscore.DEClash.Weighted>
0.1417

> <Gold.Chemscore.DEInternal.Weighted>
2.5013

> <Gold.Chemscore.Rot.Weighted>
3.8745

> <Gold.Chemscore.Internal.Correction.Weighted>
   9.000000E+99

> <Gold.Protein.RotatedTorsions>
[ 6907 6896 6895 6894 ] final  -21.16 input  -60.11 | X-H torsion
[ 7974 7965 7964 7962 ] final -144.96 input  175.53 | X-H torsion
[ 8008 7997 7996 7995 ] final  167.45 input   59.86 | X-H torsion
[ 10167 10162 10161 10158 ] final   66.36 input  -65.29 | X-H torsion
[ 10718 10713 10712 10709 ] final -110.11 input   66.30 | X-H torsion
[ 10763 10752 10751 10750 ] final   60.63 input  -60.55 | X-H torsion
[ 11005 11000 10999 10996 ] final   80.99 input  -57.11 | X-H torsion

> <Gold.Protein.ActiveResidues>
 VAL166  LYS551  ARG553  GLY616  TRP617  ASP618  TYR619  PRO620  LYS621  CYS622 
 ASP623  PHE694  ASN695  SER759  ASP760  ASP761  ALA762  ILE779  LEU786  VAL792 
 PHE793  MET794  SER795  GLU796  ALA797  LYS798  CYS799  TRP800  GLU811  SER814 

> <Gold.Protein.RotatedAtoms>
  151.2375  135.0577  159.9011 H   0  0  0  0  0  0  0  0  0  0  0  0  # atno 6907 bound_to 6896
  152.5397  134.0470  159.8103 H   0  0  0  0  0  0  0  0  0  0  0  0  # atno 6908 bound_to 6896
  151.0659  133.5457  159.2662 H   0  0  0  0  0  0  0  0  0  0  0  0  # atno 6909 bound_to 6896
  144.8260  140.5644  143.5546 H   0  0  0  0  0  0  0  0  0  0  0  0  # atno 7974 bound_to 7965
  156.1633  140.1616  156.8575 H   0  0  0  0  0  0  0  0  0  0  0  0  # atno 8008 bound_to 7997
  154.5182  140.0784  156.8156 H   0  0  0  0  0  0  0  0  0  0  0  0  # atno 8009 bound_to 7997
  155.3664  140.3398  155.4244 H   0  0  0  0  0  0  0  0  0  0  0  0  # atno 8010 bound_to 7997
  140.1013  144.4901  150.7036 H   0  0  0  0  0  0  0  0  0  0  0  0  # atno 10167 bound_to 10162
  156.0573  130.5798  150.8192 H   0  0  0  0  0  0  0  0  0  0  0  0  # atno 10718 bound_to 10713
  152.9926  135.5529  154.5904 H   0  0  0  0  0  0  0  0  0  0  0  0  # atno 10763 bound_to 10752
  154.5267  135.2811  155.1218 H   0  0  0  0  0  0  0  0  0  0  0  0  # atno 10764 bound_to 10752
  154.2550  135.6392  153.5306 H   0  0  0  0  0  0  0  0  0  0  0  0  # atno 10765 bound_to 10752
  139.9114  134.7963  156.1982 H   0  0  0  0  0  0  0  0  0  0  0  0  # atno 11005 bound_to 11000
  145.4999  139.1484  143.3663 LP  0  0  0  0  0  0  0  0  0  0  0  0  # atno 17320 bound_to 7965
  146.2565  140.5138  142.8871 LP  0  0  0  0  0  0  0  0  0  0  0  0  # atno 17321 bound_to 7965
  140.6976  143.2414  151.4955 LP  0  0  0  0  0  0  0  0  0  0  0  0  # atno 17342 bound_to 10162
  139.5670  144.2019  152.1779 LP  0  0  0  0  0  0  0  0  0  0  0  0  # atno 17343 bound_to 10162
  157.5553  131.0945  150.9637 LP  0  0  0  0  0  0  0  0  0  0  0  0  # atno 17370 bound_to 10713
  156.9888  130.5555  149.5301 LP  0  0  0  0  0  0  0  0  0  0  0  0  # atno 17371 bound_to 10713
  141.0541  133.6874  156.1827 LP  0  0  0  0  0  0  0  0  0  0  0  0  # atno 17394 bound_to 11000
  140.6764  134.4813  157.5588 LP  0  0  0  0  0  0  0  0  0  0  0  0  # atno 17395 bound_to 11000

$$$$
