AV-unprocessed.smi:1485|AV-procd|sdf|6004|dock10
  -GOLD-   22720 6103D 1   1.00000     0.00000
 Structure written by MMmdl.
 44 45  0  0  0  0  0  0  0  0  1 V2000
  148.0717  135.9116  162.9512 C   0  0  0  0  0  0  0  0  0  0  0  0
  148.7720  136.6692  161.9805 O   0  0  0  0  0  0  0  0  0  0  0  0
  148.3993  136.3300  160.6544 C   0  0  0  0  0  0  0  0  0  0  0  0
  149.6049  136.5252  159.7120 C   0  0  0  0  0  0  0  0  0  0  0  0
  149.5560  137.7740  158.9299 N   0  0  0  0  0  0  0  0  0  0  0  0
  150.6823  138.5729  159.0457 N   0  0  0  0  0  0  0  0  0  0  0  0
  150.7797  139.6738  158.3746 C   0  0  0  0  0  0  0  0  0  0  0  0
  152.0060  140.5148  158.4327 C   0  0  0  0  0  0  0  0  0  0  0  0
  153.1349  140.0329  158.3271 O   0  0  0  0  0  0  0  0  0  0  0  0
  151.7826  141.8255  158.6344 N   0  0  0  0  0  0  0  0  0  0  0  0
  152.7996  142.8505  158.8515 C   0  0  1  0  0  0  0  0  0  0  0  0
  152.1440  144.2430  158.9198 C   0  0  0  0  0  0  0  0  0  0  0  0
  151.2971  144.4238  160.1918 C   0  0  0  0  0  0  0  0  0  0  0  0
  152.1180  144.1312  161.4576 C   0  0  0  0  0  0  0  0  0  0  0  0
  152.7453  142.7249  161.4139 C   0  0  2  0  0  0  0  0  0  0  0  0
  153.5622  142.4349  162.6807 C   0  0  0  0  0  0  0  0  0  0  0  0
  153.5990  142.5550  160.1386 C   0  0  0  0  0  0  0  0  0  0  0  0
  149.6948  140.1208  157.5197 C   0  0  0  0  0  0  0  0  0  0  0  0
  148.5865  139.3524  157.4405 C   0  0  0  0  0  0  0  0  0  0  0  0
  148.4571  138.0947  158.1799 C   0  0  0  0  0  0  0  0  0  0  0  0
  147.4463  137.3943  158.1318 O   0  0  0  0  0  0  0  0  0  0  0  0
  148.3977  136.2036  163.9494 H   0  0  0  0  0  0  0  0  0  0  0  0
  148.2626  134.8444  162.8328 H   0  0  0  0  0  0  0  0  0  0  0  0
  146.9968  136.0852  162.8853 H   0  0  0  0  0  0  0  0  0  0  0  0
  148.0793  135.2874  160.6238 H   0  0  0  0  0  0  0  0  0  0  0  0
  147.5462  136.9280  160.3287 H   0  0  0  0  0  0  0  0  0  0  0  0
  150.5091  136.4683  160.3199 H   0  0  0  0  0  0  0  0  0  0  0  0
  149.6583  135.6893  159.0137 H   0  0  0  0  0  0  0  0  0  0  0  0
  150.8210  142.1266  158.7019 H   0  0  0  0  0  0  0  0  0  0  0  0
  153.4870  142.8469  158.0039 H   0  0  0  0  0  0  0  0  0  0  0  0
  152.9241  145.0052  158.9010 H   0  0  0  0  0  0  0  0  0  0  0  0
  151.5309  144.4155  158.0343 H   0  0  0  0  0  0  0  0  0  0  0  0
  150.9049  145.4403  160.2321 H   0  0  0  0  0  0  0  0  0  0  0  0
  150.4304  143.7625  160.1575 H   0  0  0  0  0  0  0  0  0  0  0  0
  152.9026  144.8817  161.5624 H   0  0  0  0  0  0  0  0  0  0  0  0
  151.4792  144.2283  162.3359 H   0  0  0  0  0  0  0  0  0  0  0  0
  151.9333  141.9970  161.3813 H   0  0  0  0  0  0  0  0  0  0  0  0
  154.4066  143.1186  162.7740 H   0  0  0  0  0  0  0  0  0  0  0  0
  153.9556  141.4182  162.6688 H   0  0  0  0  0  0  0  0  0  0  0  0
  152.9482  142.5392  163.5758 H   0  0  0  0  0  0  0  0  0  0  0  0
  154.0132  141.5467  160.0962 H   0  0  0  0  0  0  0  0  0  0  0  0
  154.4548  143.2295  160.1857 H   0  0  0  0  0  0  0  0  0  0  0  0
  149.7635  141.0441  156.9627 H   0  0  0  0  0  0  0  0  0  0  0  0
  147.7696  139.6731  156.8107 H   0  0  0  0  0  0  0  0  0  0  0  0
  1  2  1  0  0  0  0
  1 22  1  0  0  0  0
  1 23  1  0  0  0  0
  1 24  1  0  0  0  0
  2  3  1  0  0  0  0
  3  4  1  0  0  0  0
  3 25  1  0  0  0  0
  3 26  1  0  0  0  0
  4  5  1  0  0  0  0
  4 27  1  0  0  0  0
  4 28  1  0  0  0  0
  5 20  1  0  0  0  0
  5  6  1  0  0  0  0
  6  7  2  0  0  0  0
  7  8  1  0  0  0  0
  7 18  1  0  0  0  0
  8  9  2  0  0  0  0
  8 10  1  0  0  0  0
 10 11  1  0  0  0  0
 10 29  1  0  0  0  0
 11 17  1  0  0  0  0
 11 12  1  0  0  0  0
 11 30  1  0  0  0  0
 12 13  1  0  0  0  0
 12 31  1  0  0  0  0
 12 32  1  0  0  0  0
 13 14  1  0  0  0  0
 13 33  1  0  0  0  0
 13 34  1  0  0  0  0
 14 15  1  0  0  0  0
 14 35  1  0  0  0  0
 14 36  1  0  0  0  0
 15 16  1  0  0  0  0
 15 17  1  0  0  0  0
 15 37  1  0  0  0  0
 16 38  1  0  0  0  0
 16 39  1  0  0  0  0
 16 40  1  0  0  0  0
 17 41  1  0  0  0  0
 17 42  1  0  0  0  0
 18 19  2  0  0  0  0
 18 43  1  0  0  0  0
 19 20  1  0  0  0  0
 19 44  1  0  0  0  0
 20 21  2  0  0  0  0
M  END
> <s_m_source_file>
AV-unprocessed.smi

> <i_m_source_file_index>
1485

> <i_lp_mmshare_version>
43012

> <i_f3d_flags>
0

> <s_epik_input>
W0NIM11PW0NIMl1bQ0gyXW4xbmMoW2NIXVtjSF1jMT1PKUMoPU8pW05IXVtDQEBIXTJbQ0gyXVtDSDJdW0NIMl1bQ0BASF0oW0NIM10pW0NIMl0y

> <s_epik_cmdline>
J2VwaWtfcHl0aG9uJywgJy1waCcsICc3LjAnLCAnLXRuJywgJzgnLCAnLW1hJywgJzIwMCcsICctbWV0YWxfYmluZGluZycsICctaW1hZScsICc8aW5maWxlLm1hZT4nLCAnLW9tYWUnLCAnPG91dGZpbGUubWFlPic=

> <r_lp_tautomer_probability>
1

> <r_epik_Ionization_Penalty>
6.4688e-07

> <r_epik_Ionization_Penalty_Charging>
6.63567e-09

> <r_epik_Ionization_Penalty_Neutral>
6.40245e-07

> <r_epik_State_Penalty>
-0

> <r_epik_Charging_Adjusted_Penalty>
6.63567e-09

> <i_epik_Tot_Q>
0

> <i_epik_Tot_abs_Q>
0

> <r_epik_Metal_State_Penalty>
-0

> <b_epik_Metal_Only>
0

> <s_lp_Force_Field>
OPLS_2005

> <r_lp_Energy>
30.8996

> <b_lp_Chiralities_Consistent>
1

> <s_lp_Variant>
AV-unprocessed.smi:1485-4

> <Gold.Version>
5.8.1

> <Gold.Id.Protein>
6NUR|6NUR_protein|mol2

> <Gold.PLP.Fitness>
49.3362

> <Gold.PLP.PLP>
-46.0602

> <Gold.PLP.part.hbond>
-2.5113

> <Gold.PLP.part.metal>
0.0000

> <Gold.PLP.part.buried>
-6.9404

> <Gold.PLP.part.nonpolar>
-37.5665

> <Gold.PLP.part.repulsive>
0.0790

> <Gold.PLP.ligand.clash>
0.0000

> <Gold.PLP.ligand.torsion>
1.3659

> <Gold.PLP.Chemscore.Hbond>
1.9920

> <Gold.PLP.Chemscore.CHOScore>
0.0000

> <Gold.PLP.Chemscore.Metal>
0.0000

> <Gold.Chemscore.Hbonds>
donor molecule, donor type, donor heavy atom, donor atom, acceptor molecule, acceptor atom, score
      P1  H  6931  6943       L1     2  1.00
      P1  H  7997  8010       L1     9  1.00

> <Gold.PLP.Chemscore.Internal.Correction>
0.0318

> <Gold.Rescore>
     Score         DG    S(hbond)    S(metal)    S(lipo)     H(rot)  DE(clash)    DE(int)     intcor
     18.45     -21.03       1.94        0.00     111.51       1.55       0.00       2.58       ----

> <Gold.Chemscore.Fitness>
18.4504

> <Gold.Chemscore.DG>
-21.0324

> <Gold.Chemscore.ZeroCoef>
-5.4800

> <Gold.Chemscore.Hbond>
1.9366

> <Gold.Chemscore.Metal>
0.0000

> <Gold.Chemscore.Lipo>
111.5080

> <Gold.Chemscore.Internal_Hbond>
0.0000

> <Gold.Chemscore.DEClash>
0.0000

> <Gold.Chemscore.DEInternal>
2.5820

> <Gold.Chemscore.Rot>
1.5478

> <Gold.Chemscore.Internal.Correction>
   9.000000E+99

> <Gold.Chemscore.Hbonds>
donor molecule, donor type, donor heavy atom, donor atom, acceptor molecule, acceptor atom, score
      P1  H  6931  6943       L1     2  0.49
      P1  H  7997  8010       L1     9  0.93

> <Gold.Chemscore.Hbond.Weighted>
-6.4682

> <Gold.Chemscore.Metal.Weighted>
-0.0000

> <Gold.Chemscore.Lipo.Weighted>
-13.0464

> <Gold.Chemscore.Internal_Hbond.Weighted>
0.0000

> <Gold.Chemscore.DEClash.Weighted>
0.0000

> <Gold.Chemscore.DEInternal.Weighted>
2.5820

> <Gold.Chemscore.Rot.Weighted>
3.9623

> <Gold.Chemscore.Internal.Correction.Weighted>
   9.000000E+99

> <Gold.Protein.RotatedTorsions>
[ 6907 6896 6895 6894 ] final    6.54 input  -60.11 | X-H torsion
[ 7974 7965 7964 7962 ] final -126.26 input  175.53 | X-H torsion
[ 8008 7997 7996 7995 ] final   26.47 input   59.86 | X-H torsion
[ 10167 10162 10161 10158 ] final  -52.21 input  -65.29 | X-H torsion
[ 10718 10713 10712 10709 ] final  -20.36 input   66.30 | X-H torsion
[ 10763 10752 10751 10750 ] final   93.75 input  -60.55 | X-H torsion
[ 11005 11000 10999 10996 ] final -178.70 input  -57.11 | X-H torsion

> <Gold.Protein.ActiveResidues>
 VAL166  LYS551  ARG553  GLY616  TRP617  ASP618  TYR619  PRO620  LYS621  CYS622 
 ASP623  PHE694  ASN695  SER759  ASP760  ASP761  ALA762  ILE779  LEU786  VAL792 
 PHE793  MET794  SER795  GLU796  ALA797  LYS798  CYS799  TRP800  GLU811  SER814 

> <Gold.Protein.RotatedAtoms>
  151.6754  135.0970  160.0205 H   0  0  0  0  0  0  0  0  0  0  0  0  # atno 6907 bound_to 6896
  152.3867  133.6617  159.6213 H   0  0  0  0  0  0  0  0  0  0  0  0  # atno 6908 bound_to 6896
  150.7791  133.8940  159.3363 H   0  0  0  0  0  0  0  0  0  0  0  0  # atno 6909 bound_to 6896
  144.9891  140.7714  143.4565 H   0  0  0  0  0  0  0  0  0  0  0  0  # atno 7974 bound_to 7965
  155.0277  140.3155  155.4770 H   0  0  0  0  0  0  0  0  0  0  0  0  # atno 8008 bound_to 7997
  156.2880  140.2186  156.5340 H   0  0  0  0  0  0  0  0  0  0  0  0  # atno 8009 bound_to 7997
  154.7397  140.0474  157.0788 H   0  0  0  0  0  0  0  0  0  0  0  0  # atno 8010 bound_to 7997
  140.6549  143.2592  151.4616 H   0  0  0  0  0  0  0  0  0  0  0  0  # atno 10167 bound_to 10162
  156.5329  130.4659  149.6538 H   0  0  0  0  0  0  0  0  0  0  0  0  # atno 10718 bound_to 10713
  153.2338  135.4314  155.0624 H   0  0  0  0  0  0  0  0  0  0  0  0  # atno 10763 bound_to 10752
  154.8309  135.3386  154.6748 H   0  0  0  0  0  0  0  0  0  0  0  0  # atno 10764 bound_to 10752
  153.7174  135.7019  153.5078 H   0  0  0  0  0  0  0  0  0  0  0  0  # atno 10765 bound_to 10752
  140.4269  134.6555  157.4692 H   0  0  0  0  0  0  0  0  0  0  0  0  # atno 11005 bound_to 11000
  145.2312  139.2114  143.5042 LP  0  0  0  0  0  0  0  0  0  0  0  0  # atno 17320 bound_to 7965
  146.3427  140.2189  142.8591 LP  0  0  0  0  0  0  0  0  0  0  0  0  # atno 17321 bound_to 7965
  139.5769  144.1797  152.1916 LP  0  0  0  0  0  0  0  0  0  0  0  0  # atno 17342 bound_to 10162
  140.1111  144.5456  150.6924 LP  0  0  0  0  0  0  0  0  0  0  0  0  # atno 17343 bound_to 10162
  156.3043  130.7194  151.2073 LP  0  0  0  0  0  0  0  0  0  0  0  0  # atno 17370 bound_to 10713
  157.7418  131.0498  150.5066 LP  0  0  0  0  0  0  0  0  0  0  0  0  # atno 17371 bound_to 10713
  140.0161  134.6617  155.9307 LP  0  0  0  0  0  0  0  0  0  0  0  0  # atno 17394 bound_to 11000
  141.1761  133.6540  156.4836 LP  0  0  0  0  0  0  0  0  0  0  0  0  # atno 17395 bound_to 11000

$$$$
