AV-unprocessed.smi:1093|AV-procd|sdf|4745|dock6
  -GOLD-   22720 3283D 1   1.00000     0.00000
 Structure written by MMmdl.
 47 48  0  0  0  0  0  0  0  0  2 V2000
  143.7334  136.8549  153.6303 C   0  0  0  0  0  0  0  0  0  0  0  0
  144.7595  137.4987  154.5742 C   0  0  0  0  0  0  0  0  0  0  0  0
  145.5662  138.5524  153.9081 N   0  3  2  0  0  0  0  0  0  0  0  0
  146.3301  138.0218  152.7488 C   0  0  0  0  0  0  0  0  0  0  0  0
  147.0498  139.1500  151.9914 C   0  0  0  0  0  0  0  0  0  0  0  0
  147.9671  139.9452  152.9289 C   0  0  0  0  0  0  0  0  0  0  0  0
  147.1636  140.4641  154.1310 C   0  0  2  0  0  0  0  0  0  0  0  0
  148.0474  141.1752  155.0500 N   0  0  0  0  0  0  0  0  0  0  0  0
  148.9344  140.5934  155.8698 C   0  0  0  0  0  0  0  0  0  0  0  0
  149.1162  139.3769  155.9164 O   0  0  0  0  0  0  0  0  0  0  0  0
  149.5995  141.5068  156.5969 N   0  0  0  0  0  0  0  0  0  0  0  0
  150.5693  141.2857  157.6111 C   0  0  0  0  0  0  0  0  0  0  0  0
  151.3126  140.0916  157.7517 C   0  0  0  0  0  0  0  0  0  0  0  0
  152.2277  139.9774  158.8157 C   0  0  0  0  0  0  0  0  0  0  0  0
  152.3787  141.0565  159.7222 C   0  0  0  0  0  0  0  0  0  0  0  0
  153.2839  140.9892  160.8060 N   0  0  0  0  0  0  0  0  0  0  0  0
  154.4831  140.1663  160.7099 C   0  0  0  0  0  0  0  0  0  0  0  0
  153.0505  141.7977  161.9982 C   0  0  0  0  0  0  0  0  0  0  0  0
  151.6543  142.1943  159.5867 N   0  0  0  0  0  0  0  0  0  0  0  0
  150.7759  142.2983  158.5680 C   0  0  0  0  0  0  0  0  0  0  0  0
  146.4473  139.2989  154.8460 C   0  0  0  0  0  0  0  0  0  0  0  0
  143.2326  136.0210  154.1227 H   0  0  0  0  0  0  0  0  0  0  0  0
  144.2137  136.4663  152.7319 H   0  0  0  0  0  0  0  0  0  0  0  0
  142.9594  137.5572  153.3226 H   0  0  0  0  0  0  0  0  0  0  0  0
  144.2679  137.9052  155.4591 H   0  0  0  0  0  0  0  0  0  0  0  0
  145.4243  136.7087  154.9262 H   0  0  0  0  0  0  0  0  0  0  0  0
  147.0522  137.2808  153.0959 H   0  0  0  0  0  0  0  0  0  0  0  0
  145.6540  137.5086  152.0640 H   0  0  0  0  0  0  0  0  0  0  0  0
  147.6300  138.7344  151.1669 H   0  0  0  0  0  0  0  0  0  0  0  0
  146.3134  139.8193  151.5442 H   0  0  0  0  0  0  0  0  0  0  0  0
  148.7838  139.3072  153.2702 H   0  0  0  0  0  0  0  0  0  0  0  0
  148.4227  140.7762  152.3887 H   0  0  0  0  0  0  0  0  0  0  0  0
  146.4123  141.1633  153.7579 H   0  0  0  0  0  0  0  0  0  0  0  0
  147.9682  142.1815  155.0734 H   0  0  0  0  0  0  0  0  0  0  0  0
  149.4192  142.4750  156.3743 H   0  0  0  0  0  0  0  0  0  0  0  0
  151.1880  139.2582  157.0778 H   0  0  0  0  0  0  0  0  0  0  0  0
  152.7906  139.0620  158.9167 H   0  0  0  0  0  0  0  0  0  0  0  0
  155.1162  140.5053  159.8895 H   0  0  0  0  0  0  0  0  0  0  0  0
  154.2184  139.1223  160.5400 H   0  0  0  0  0  0  0  0  0  0  0  0
  155.0721  140.2134  161.6261 H   0  0  0  0  0  0  0  0  0  0  0  0
  153.0359  142.8577  161.7430 H   0  0  0  0  0  0  0  0  0  0  0  0
  153.8322  141.6447  162.7422 H   0  0  0  0  0  0  0  0  0  0  0  0
  152.0967  141.5383  162.4590 H   0  0  0  0  0  0  0  0  0  0  0  0
  150.2233  143.2250  158.5148 H   0  0  0  0  0  0  0  0  0  0  0  0
  145.8572  139.6952  155.6717 H   0  0  0  0  0  0  0  0  0  0  0  0
  147.1774  138.6142  155.2814 H   0  0  0  0  0  0  0  0  0  0  0  0
  144.9082  139.2191  153.5298 H   0  0  0  0  0  0  0  0  0  0  0  0
  1  2  1  0  0  0  0
  1 22  1  0  0  0  0
  1 23  1  0  0  0  0
  1 24  1  0  0  0  0
  2  3  1  0  0  0  0
  2 25  1  0  0  0  0
  2 26  1  0  0  0  0
  3 21  1  0  0  0  0
  3  4  1  0  0  0  0
  3 47  1  0  0  0  0
  4  5  1  0  0  0  0
  4 27  1  0  0  0  0
  4 28  1  0  0  0  0
  5  6  1  0  0  0  0
  5 29  1  0  0  0  0
  5 30  1  0  0  0  0
  6  7  1  0  0  0  0
  6 31  1  0  0  0  0
  6 32  1  0  0  0  0
  7  8  1  0  0  0  0
  7 21  1  0  0  0  0
  7 33  1  0  0  0  0
  8  9  1  0  0  0  0
  8 34  1  0  0  0  0
  9 10  2  0  0  0  0
  9 11  1  0  0  0  0
 11 12  1  0  0  0  0
 11 35  1  0  0  0  0
 12 20  1  0  0  0  0
 12 13  2  0  0  0  0
 13 14  1  0  0  0  0
 13 36  1  0  0  0  0
 14 15  2  0  0  0  0
 14 37  1  0  0  0  0
 15 16  1  0  0  0  0
 15 19  1  0  0  0  0
 16 17  1  0  0  0  0
 16 18  1  0  0  0  0
 17 38  1  0  0  0  0
 17 39  1  0  0  0  0
 17 40  1  0  0  0  0
 18 41  1  0  0  0  0
 18 42  1  0  0  0  0
 18 43  1  0  0  0  0
 19 20  2  0  0  0  0
 20 44  1  0  0  0  0
 21 45  1  0  0  0  0
 21 46  1  0  0  0  0
M  CHG  1   3   1
M  END
> <s_m_source_file>
AV-unprocessed.smi

> <i_m_source_file_index>
1093

> <i_lp_mmshare_version>
43012

> <i_f3d_flags>
0

> <s_epik_input>
W0NIM11bQ0gyXU4xW0NIMl1bQ0gyXVtDSDJdW0NASF0oW0NIMl0xKVtOSF1DKD1PKVtOSF1jMltjSF1bY0hdYyhOKFtDSDNdKVtDSDNdKW5bY0hdMg==

> <s_epik_cmdline>
J2VwaWtfcHl0aG9uJywgJy1waCcsICc3LjAnLCAnLXRuJywgJzgnLCAnLW1hJywgJzIwMCcsICctbWV0YWxfYmluZGluZycsICctaW1hZScsICc8aW5maWxlLm1hZT4nLCAnLW9tYWUnLCAnPG91dGZpbGUubWFlPic=

> <r_lp_tautomer_probability>
1

> <r_epik_Ionization_Penalty>
0.489418

> <r_epik_Ionization_Penalty_Charging>
0.00268196

> <r_epik_Ionization_Penalty_Neutral>
0.486736

> <r_epik_State_Penalty>
0.491157

> <r_epik_Charging_Adjusted_Penalty>
0.493839

> <i_epik_Tot_Q>
1

> <i_epik_Tot_abs_Q>
1

> <r_epik_Metal_State_Penalty>
0.266953

> <b_epik_Metal_Only>
0

> <s_lp_Force_Field>
OPLS_2005

> <r_lp_Energy>
20.183

> <b_lp_Chiralities_Consistent>
1

> <s_lp_Variant>
AV-unprocessed.smi:1093-8

> <Gold.Version>
5.8.1

> <Gold.Id.Protein>
6NUR|6NUR_protein|mol2

> <Gold.PLP.Fitness>
45.6597

> <Gold.PLP.PLP>
-34.6554

> <Gold.PLP.part.hbond>
-2.0000

> <Gold.PLP.part.metal>
0.0000

> <Gold.PLP.part.buried>
1.1510

> <Gold.PLP.part.nonpolar>
-34.7435

> <Gold.PLP.part.repulsive>
0.2570

> <Gold.PLP.ligand.clash>
0.0000

> <Gold.PLP.ligand.torsion>
0.5703

> <Gold.PLP.Chemscore.Hbond>
3.0000

> <Gold.PLP.Chemscore.CHOScore>
1.0398

> <Gold.PLP.Chemscore.Metal>
0.0000

> <Gold.Chemscore.Hbonds>
donor molecule, donor type, donor heavy atom, donor atom, acceptor molecule, acceptor atom, score
      L1  H     3    47       P1 10175  1.92
      L1  H    11    35       P1  8028  0.03

> <Gold.PLP.Chemscore.Internal.Correction>
0.0255

> <Gold.Rescore>
     Score         DG    S(hbond)    S(metal)    S(lipo)     H(rot)  DE(clash)    DE(int)     intcor
     14.59     -19.02       1.97        0.00      85.34       1.18       1.67       2.76       ----

> <Gold.Chemscore.Fitness>
14.5903

> <Gold.Chemscore.DG>
-19.0179

> <Gold.Chemscore.ZeroCoef>
-5.4800

> <Gold.Chemscore.Hbond>
1.9716

> <Gold.Chemscore.Metal>
0.0000

> <Gold.Chemscore.Lipo>
85.3364

> <Gold.Chemscore.Internal_Hbond>
0.0000

> <Gold.Chemscore.DEClash>
1.6654

> <Gold.Chemscore.DEInternal>
2.7622

> <Gold.Chemscore.Rot>
1.1842

> <Gold.Chemscore.Internal.Correction>
   9.000000E+99

> <Gold.Chemscore.Hbonds>
donor molecule, donor type, donor heavy atom, donor atom, acceptor molecule, acceptor atom, score
      L1  H     3    47       P1 10175  0.91
      L1  H    11    35       P1  8028  0.09

> <Gold.Chemscore.Hbond.Weighted>
-6.5851

> <Gold.Chemscore.Metal.Weighted>
-0.0000

> <Gold.Chemscore.Lipo.Weighted>
-9.9844

> <Gold.Chemscore.Internal_Hbond.Weighted>
0.0000

> <Gold.Chemscore.DEClash.Weighted>
1.6654

> <Gold.Chemscore.DEInternal.Weighted>
2.7622

> <Gold.Chemscore.Rot.Weighted>
3.0317

> <Gold.Chemscore.Internal.Correction.Weighted>
   9.000000E+99

> <Gold.Protein.RotatedTorsions>
[ 6907 6896 6895 6894 ] final -173.47 input  -60.11 | X-H torsion
[ 7974 7965 7964 7962 ] final  -33.89 input  175.53 | X-H torsion
[ 8008 7997 7996 7995 ] final -100.13 input   59.86 | X-H torsion
[ 10167 10162 10161 10158 ] final   14.76 input  -65.29 | X-H torsion
[ 10718 10713 10712 10709 ] final -131.73 input   66.30 | X-H torsion
[ 10763 10752 10751 10750 ] final  -43.36 input  -60.55 | X-H torsion
[ 11005 11000 10999 10996 ] final  -38.87 input  -57.11 | X-H torsion

> <Gold.Protein.ActiveResidues>
 VAL166  LYS551  ARG553  GLY616  TRP617  ASP618  TYR619  PRO620  LYS621  CYS622 
 ASP623  PHE694  ASN695  SER759  ASP760  ASP761  ALA762  ILE779  LEU786  VAL792 
 PHE793  MET794  SER795  GLU796  ALA797  LYS798  CYS799  TRP800  GLU811  SER814 

> <Gold.Protein.RotatedAtoms>
  151.5567  133.3409  159.2963 H   0  0  0  0  0  0  0  0  0  0  0  0  # atno 6907 bound_to 6896
  150.8447  134.7754  159.6971 H   0  0  0  0  0  0  0  0  0  0  0  0  # atno 6908 bound_to 6896
  152.4507  134.5407  159.9890 H   0  0  0  0  0  0  0  0  0  0  0  0  # atno 6909 bound_to 6896
  146.0874  140.5971  142.8880 H   0  0  0  0  0  0  0  0  0  0  0  0  # atno 7974 bound_to 7965
  154.8244  140.0443  157.1433 H   0  0  0  0  0  0  0  0  0  0  0  0  # atno 8008 bound_to 7997
  154.9223  140.3028  155.5189 H   0  0  0  0  0  0  0  0  0  0  0  0  # atno 8009 bound_to 7997
  156.2982  140.2338  156.4275 H   0  0  0  0  0  0  0  0  0  0  0  0  # atno 8010 bound_to 7997
  140.5913  143.8789  150.6877 H   0  0  0  0  0  0  0  0  0  0  0  0  # atno 10167 bound_to 10162
  156.2274  130.7016  151.0821 H   0  0  0  0  0  0  0  0  0  0  0  0  # atno 10718 bound_to 10713
  153.9943  135.6701  153.4755 H   0  0  0  0  0  0  0  0  0  0  0  0  # atno 10763 bound_to 10752
  153.0691  135.4984  154.8261 H   0  0  0  0  0  0  0  0  0  0  0  0  # atno 10764 bound_to 10752
  154.7090  135.3093  154.9188 H   0  0  0  0  0  0  0  0  0  0  0  0  # atno 10765 bound_to 10752
  141.0060  133.6931  156.2110 H   0  0  0  0  0  0  0  0  0  0  0  0  # atno 11005 bound_to 11000
  144.7335  140.4742  143.6920 LP  0  0  0  0  0  0  0  0  0  0  0  0  # atno 17320 bound_to 7965
  145.6103  139.1512  143.3079 LP  0  0  0  0  0  0  0  0  0  0  0  0  # atno 17321 bound_to 7965
  140.2312  143.3734  152.1564 LP  0  0  0  0  0  0  0  0  0  0  0  0  # atno 17342 bound_to 10162
  139.5229  144.7065  151.5337 LP  0  0  0  0  0  0  0  0  0  0  0  0  # atno 17343 bound_to 10162
  157.7117  131.0731  150.6477 LP  0  0  0  0  0  0  0  0  0  0  0  0  # atno 17370 bound_to 10713
  156.6543  130.4494  149.5709 LP  0  0  0  0  0  0  0  0  0  0  0  0  # atno 17371 bound_to 10713
  140.6812  134.4765  157.5589 LP  0  0  0  0  0  0  0  0  0  0  0  0  # atno 17394 bound_to 11000
  139.9063  134.8441  156.1693 LP  0  0  0  0  0  0  0  0  0  0  0  0  # atno 17395 bound_to 11000

$$$$
