AV-unprocessed.smi:2299|AV-procd|sdf|9228|dock4
  -GOLD-   2272012443D 1   1.00000     0.00000
 Structure written by MMmdl.
 43 44  0  0  0  0  0  0  0  0  2 V2000
  146.6503  138.6271  151.7515 C   0  0  0  0  0  0  0  0  0  0  0  0
  146.8389  138.6301  153.2759 C   0  0  0  0  0  0  0  0  0  0  0  0
  145.6436  137.9921  153.9980 C   0  0  0  0  0  0  0  0  0  0  0  0
  147.1131  140.0154  153.7930 C   0  0  0  0  0  0  0  0  0  0  0  0
  146.2886  141.0616  153.6538 N   0  3  0  0  0  0  0  0  0  0  0  0
  146.8247  142.1778  154.2337 C   0  0  0  0  0  0  0  0  0  0  0  0
  148.0304  141.7977  154.7598 C   0  0  0  0  0  0  0  0  0  0  0  0
  148.1821  140.4626  154.4804 N   0  0  0  0  0  0  0  0  0  0  0  0
  149.3361  139.6326  154.8627 C   0  0  0  0  0  0  0  0  0  0  0  0
  150.3846  140.3968  155.6811 C   0  0  0  0  0  0  0  0  0  0  0  0
  151.4524  140.7489  155.1778 O   0  0  0  0  0  0  0  0  0  0  0  0
  150.0565  140.6468  156.9585 N   0  0  0  0  0  0  0  0  0  0  0  0
  150.8846  141.3734  157.9244 C   0  0  2  0  0  0  0  0  0  0  0  0
  151.0453  142.8200  157.4026 C   0  0  0  0  0  0  0  0  0  0  0  0
  151.4060  143.8393  158.4970 C   0  0  0  0  0  0  0  0  0  0  0  0
  152.7803  143.6303  159.1509 C   0  0  0  0  0  0  0  0  0  0  0  0
  152.9135  142.2915  159.8964 C   0  0  0  0  0  0  0  0  0  0  0  0
  153.1301  141.1752  158.9852 N   0  0  0  0  0  0  0  0  0  0  0  0
  152.2809  140.7195  158.0516 C   0  0  0  0  0  0  0  0  0  0  0  0
  152.6125  139.7967  157.3070 O   0  0  0  0  0  0  0  0  0  0  0  0
  147.5275  139.0368  151.2490 H   0  0  0  0  0  0  0  0  0  0  0  0
  145.7862  139.2216  151.4526 H   0  0  0  0  0  0  0  0  0  0  0  0
  146.5010  137.6141  151.3770 H   0  0  0  0  0  0  0  0  0  0  0  0
  147.7194  138.0271  153.4919 H   0  0  0  0  0  0  0  0  0  0  0  0
  145.8126  137.9507  155.0745 H   0  0  0  0  0  0  0  0  0  0  0  0
  145.4757  136.9717  153.6524 H   0  0  0  0  0  0  0  0  0  0  0  0
  144.7263  138.5560  153.8257 H   0  0  0  0  0  0  0  0  0  0  0  0
  146.3205  143.1332  154.2289 H   0  0  0  0  0  0  0  0  0  0  0  0
  148.7747  142.3649  155.3001 H   0  0  0  0  0  0  0  0  0  0  0  0
  148.9648  138.7936  155.4524 H   0  0  0  0  0  0  0  0  0  0  0  0
  149.7824  139.2131  153.9605 H   0  0  0  0  0  0  0  0  0  0  0  0
  149.1563  140.3286  157.2871 H   0  0  0  0  0  0  0  0  0  0  0  0
  150.3823  141.3766  158.8935 H   0  0  0  0  0  0  0  0  0  0  0  0
  151.7736  142.8646  156.5905 H   0  0  0  0  0  0  0  0  0  0  0  0
  150.1009  143.1462  156.9639 H   0  0  0  0  0  0  0  0  0  0  0  0
  151.3801  144.8386  158.0613 H   0  0  0  0  0  0  0  0  0  0  0  0
  150.6332  143.8326  159.2668 H   0  0  0  0  0  0  0  0  0  0  0  0
  153.5713  143.7274  158.4059 H   0  0  0  0  0  0  0  0  0  0  0  0
  152.9413  144.4394  159.8640 H   0  0  0  0  0  0  0  0  0  0  0  0
  153.7778  142.3357  160.5592 H   0  0  0  0  0  0  0  0  0  0  0  0
  152.0479  142.1047  160.5335 H   0  0  0  0  0  0  0  0  0  0  0  0
  154.0285  140.7182  159.0486 H   0  0  0  0  0  0  0  0  0  0  0  0
  145.3953  141.0280  153.1790 H   0  0  0  0  0  0  0  0  0  0  0  0
  1  2  1  0  0  0  0
  1 21  1  0  0  0  0
  1 22  1  0  0  0  0
  1 23  1  0  0  0  0
  2  3  1  0  0  0  0
  2  4  1  0  0  0  0
  2 24  1  0  0  0  0
  3 25  1  0  0  0  0
  3 26  1  0  0  0  0
  3 27  1  0  0  0  0
  4  8  1  0  0  0  0
  4  5  2  0  0  0  0
  5  6  1  0  0  0  0
  5 43  1  0  0  0  0
  6  7  2  0  0  0  0
  6 28  1  0  0  0  0
  7  8  1  0  0  0  0
  7 29  1  0  0  0  0
  8  9  1  0  0  0  0
  9 10  1  0  0  0  0
  9 30  1  0  0  0  0
  9 31  1  0  0  0  0
 10 11  2  0  0  0  0
 10 12  1  0  0  0  0
 12 13  1  0  0  0  0
 12 32  1  0  0  0  0
 13 19  1  0  0  0  0
 13 14  1  0  0  0  0
 13 33  1  0  0  0  0
 14 15  1  0  0  0  0
 14 34  1  0  0  0  0
 14 35  1  0  0  0  0
 15 16  1  0  0  0  0
 15 36  1  0  0  0  0
 15 37  1  0  0  0  0
 16 17  1  0  0  0  0
 16 38  1  0  0  0  0
 16 39  1  0  0  0  0
 17 18  1  0  0  0  0
 17 40  1  0  0  0  0
 17 41  1  0  0  0  0
 18 19  1  0  0  0  0
 18 42  1  0  0  0  0
 19 20  2  0  0  0  0
M  CHG  1   5   1
M  END
> <s_m_source_file>
AV-unprocessed.smi

> <i_m_source_file_index>
2299

> <i_lp_mmshare_version>
43012

> <i_f3d_flags>
0

> <s_epik_input>
W0NIM11bQ0hdKFtDSDNdKWMxbltjSF1bY0hdbjFbQ0gyXUMoPU8pW05IXVtDQEBIXTJbQ0gyXVtDSDJdW0NIMl1bQ0gyXVtOSF1DMj1P

> <s_epik_cmdline>
J2VwaWtfcHl0aG9uJywgJy1waCcsICc3LjAnLCAnLXRuJywgJzgnLCAnLW1hJywgJzIwMCcsICctbWV0YWxfYmluZGluZycsICctaW1hZScsICc8aW5maWxlLm1hZT4nLCAnLW9tYWUnLCAnPG91dGZpbGUubWFlPic=

> <r_lp_tautomer_probability>
1

> <r_epik_Ionization_Penalty>
0.292878

> <r_epik_Ionization_Penalty_Charging>
0

> <r_epik_Ionization_Penalty_Neutral>
0.292878

> <r_epik_State_Penalty>
0.286008

> <r_epik_Charging_Adjusted_Penalty>
0.286008

> <i_epik_Tot_Q>
1

> <i_epik_Tot_abs_Q>
1

> <r_epik_Metal_State_Penalty>
0.563502

> <b_epik_Metal_Only>
0

> <s_lp_Force_Field>
OPLS_2005

> <r_lp_Energy>
16.2332

> <b_lp_Chiralities_Consistent>
1

> <s_lp_Variant>
AV-unprocessed.smi:2299-1

> <Gold.Version>
5.8.1

> <Gold.Id.Protein>
6NUR|6NUR_protein|mol2

> <Gold.PLP.Fitness>
53.6987

> <Gold.PLP.PLP>
-40.0990

> <Gold.PLP.part.hbond>
-2.9055

> <Gold.PLP.part.metal>
0.0000

> <Gold.PLP.part.buried>
-1.2251

> <Gold.PLP.part.nonpolar>
-36.8029

> <Gold.PLP.part.repulsive>
0.1853

> <Gold.PLP.ligand.clash>
0.0000

> <Gold.PLP.ligand.torsion>
0.2380

> <Gold.PLP.Chemscore.Hbond>
3.7200

> <Gold.PLP.Chemscore.CHOScore>
0.9560

> <Gold.PLP.Chemscore.Metal>
0.0000

> <Gold.Chemscore.Hbonds>
donor molecule, donor type, donor heavy atom, donor atom, acceptor molecule, acceptor atom, score
      L1  H     5    43       P1 10175  2.00
      P1  H  7989  7998       L1    11  0.74
      P1  H  7997  8008       L1    20  1.00
      L1  C     7    29       P1  8028  0.96

> <Gold.PLP.Chemscore.Internal.Correction>
0.0476

> <Gold.Rescore>
     Score         DG    S(hbond)    S(metal)    S(lipo)     H(rot)  DE(clash)    DE(int)     intcor
     14.30     -19.16       2.62        0.00      80.28       1.75       0.42       4.44       ----

> <Gold.Chemscore.Fitness>
14.2985

> <Gold.Chemscore.DG>
-19.1560

> <Gold.Chemscore.ZeroCoef>
-5.4800

> <Gold.Chemscore.Hbond>
2.6245

> <Gold.Chemscore.Metal>
0.0000

> <Gold.Chemscore.Lipo>
80.2753

> <Gold.Chemscore.Internal_Hbond>
0.0000

> <Gold.Chemscore.DEClash>
0.4190

> <Gold.Chemscore.DEInternal>
4.4385

> <Gold.Chemscore.Rot>
1.7508

> <Gold.Chemscore.Internal.Correction>
   9.000000E+99

> <Gold.Chemscore.Hbonds>
donor molecule, donor type, donor heavy atom, donor atom, acceptor molecule, acceptor atom, score
      L1  H     5    43       P1 10175  0.40
      P1  H  7989  7998       L1    11  0.73
      P1  H  7997  8008       L1    20  0.52

> <Gold.Chemscore.Hbond.Weighted>
-8.7659

> <Gold.Chemscore.Metal.Weighted>
-0.0000

> <Gold.Chemscore.Lipo.Weighted>
-9.3922

> <Gold.Chemscore.Internal_Hbond.Weighted>
0.0000

> <Gold.Chemscore.DEClash.Weighted>
0.4190

> <Gold.Chemscore.DEInternal.Weighted>
4.4385

> <Gold.Chemscore.Rot.Weighted>
4.4821

> <Gold.Chemscore.Internal.Correction.Weighted>
   9.000000E+99

> <Gold.Protein.RotatedTorsions>
[ 6907 6896 6895 6894 ] final  -16.73 input  -60.11 | X-H torsion
[ 7974 7965 7964 7962 ] final   23.91 input  175.53 | X-H torsion
[ 8008 7997 7996 7995 ] final  -80.23 input   59.86 | X-H torsion
[ 10167 10162 10161 10158 ] final  109.21 input  -65.29 | X-H torsion
[ 10718 10713 10712 10709 ] final   58.53 input   66.30 | X-H torsion
[ 10763 10752 10751 10750 ] final  173.19 input  -60.55 | X-H torsion
[ 11005 11000 10999 10996 ] final -160.20 input  -57.11 | X-H torsion

> <Gold.Protein.ActiveResidues>
 VAL166  LYS551  ARG553  GLY616  TRP617  ASP618  TYR619  PRO620  LYS621  CYS622 
 ASP623  PHE694  ASN695  SER759  ASP760  ASP761  ALA762  ILE779  LEU786  VAL792 
 PHE793  MET794  SER795  GLU796  ALA797  LYS798  CYS799  TRP800  GLU811  SER814 

> <Gold.Protein.RotatedAtoms>
  151.3042  135.0777  159.9249 H   0  0  0  0  0  0  0  0  0  0  0  0  # atno 6907 bound_to 6896
  152.5291  133.9802  159.7813 H   0  0  0  0  0  0  0  0  0  0  0  0  # atno 6908 bound_to 6896
  151.0094  133.5928  159.2715 H   0  0  0  0  0  0  0  0  0  0  0  0  # atno 6909 bound_to 6896
  146.1962  139.7678  142.8795 H   0  0  0  0  0  0  0  0  0  0  0  0  # atno 7974 bound_to 7965
  154.5863  140.0666  156.9175 H   0  0  0  0  0  0  0  0  0  0  0  0  # atno 8008 bound_to 7997
  155.2374  140.3342  155.4278 H   0  0  0  0  0  0  0  0  0  0  0  0  # atno 8009 bound_to 7997
  156.2225  140.1805  156.7428 H   0  0  0  0  0  0  0  0  0  0  0  0  # atno 8010 bound_to 7997
  139.6784  144.7120  151.1559 H   0  0  0  0  0  0  0  0  0  0  0  0  # atno 10167 bound_to 10162
  157.5603  130.8831  149.9101 H   0  0  0  0  0  0  0  0  0  0  0  0  # atno 10718 bound_to 10713
  154.4366  135.2761  155.1876 H   0  0  0  0  0  0  0  0  0  0  0  0  # atno 10763 bound_to 10752
  154.3760  135.6098  153.5769 H   0  0  0  0  0  0  0  0  0  0  0  0  # atno 10764 bound_to 10752
  152.9838  135.5869  154.4686 H   0  0  0  0  0  0  0  0  0  0  0  0  # atno 10765 bound_to 10752
  140.6341  134.4620  157.5231 H   0  0  0  0  0  0  0  0  0  0  0  0  # atno 11005 bound_to 11000
  145.3635  141.0330  143.3271 LP  0  0  0  0  0  0  0  0  0  0  0  0  # atno 17320 bound_to 7965
  144.8586  139.5212  143.6823 LP  0  0  0  0  0  0  0  0  0  0  0  0  # atno 17321 bound_to 7965
  140.7644  143.5736  150.8969 LP  0  0  0  0  0  0  0  0  0  0  0  0  # atno 17342 bound_to 10162
  139.9406  143.6386  152.3054 LP  0  0  0  0  0  0  0  0  0  0  0  0  # atno 17343 bound_to 10162
  156.0657  130.3692  150.0884 LP  0  0  0  0  0  0  0  0  0  0  0  0  # atno 17370 bound_to 10713
  156.9049  130.9632  151.3571 LP  0  0  0  0  0  0  0  0  0  0  0  0  # atno 17371 bound_to 10713
  139.9105  134.8356  156.1547 LP  0  0  0  0  0  0  0  0  0  0  0  0  # atno 17394 bound_to 11000
  141.0654  133.6822  156.2034 LP  0  0  0  0  0  0  0  0  0  0  0  0  # atno 17395 bound_to 11000

$$$$
