AV-unprocessed.smi:679|AV-procd|sdf|3320|dock7
  -GOLD-   22720 0283D 1   1.00000     0.00000
 Structure written by MMmdl.
 41 43  0  0  0  0  0  0  0  0  1 V2000
  153.0433  142.6015  162.3753 C   0  0  0  0  0  0  0  0  0  0  0  0
  152.3041  143.2433  161.1994 C   0  0  0  0  0  0  0  0  0  0  0  0
  151.6436  142.2243  160.4691 O   0  0  0  0  0  0  0  0  0  0  0  0
  152.0687  142.1434  159.1179 C   0  0  1  0  0  0  0  0  0  0  0  0
  151.2723  141.1617  158.2533 C   0  0  0  0  0  0  0  0  0  0  0  0
  151.4102  142.1987  157.1365 C   0  0  1  0  0  0  0  0  0  0  0  0
  150.2169  142.2763  156.3007 N   0  0  0  0  0  0  0  0  0  0  0  0
  149.9000  141.3927  155.3429 C   0  0  0  0  0  0  0  0  0  0  0  0
  150.6003  140.4187  155.0650 O   0  0  0  0  0  0  0  0  0  0  0  0
  148.6006  141.6563  154.5772 C   0  0  0  0  0  0  0  0  0  0  0  0
  147.9294  140.4197  154.2207 N   0  0  0  0  0  0  0  0  0  0  0  0
  146.7506  140.1979  153.6355 C   0  0  0  0  0  0  0  0  0  0  0  0
  146.5164  138.9033  153.4827 N   0  0  0  0  0  0  0  0  0  0  0  0
  147.6481  138.3134  154.0208 N   0  0  0  0  0  0  0  0  0  0  0  0
  148.4905  139.2081  154.4597 N   0  0  0  0  0  0  0  0  0  0  0  0
  151.5218  143.2911  158.2327 C   0  0  0  0  0  0  0  0  0  0  0  0
  150.2547  144.0078  158.7189 C   0  0  0  0  0  0  0  0  0  0  0  0
  150.7217  145.2037  159.5520 C   0  0  0  0  0  0  0  0  0  0  0  0
  152.1282  145.5350  159.0419 C   0  0  0  0  0  0  0  0  0  0  0  0
  152.4566  144.4711  157.9888 C   0  0  0  0  0  0  0  0  0  0  0  0
  153.5678  143.3538  162.9645 H   0  0  0  0  0  0  0  0  0  0  0  0
  153.7789  141.8767  162.0257 H   0  0  0  0  0  0  0  0  0  0  0  0
  152.3491  142.0820  163.0363 H   0  0  0  0  0  0  0  0  0  0  0  0
  151.5805  143.9724  161.5669 H   0  0  0  0  0  0  0  0  0  0  0  0
  153.0115  143.7726  160.5595 H   0  0  0  0  0  0  0  0  0  0  0  0
  153.1493  142.0180  159.0134 H   0  0  0  0  0  0  0  0  0  0  0  0
  151.7734  140.2127  158.0612 H   0  0  0  0  0  0  0  0  0  0  0  0
  150.2472  141.0188  158.5999 H   0  0  0  0  0  0  0  0  0  0  0  0
  152.3398  142.0689  156.5769 H   0  0  0  0  0  0  0  0  0  0  0  0
  149.5903  143.0508  156.4653 H   0  0  0  0  0  0  0  0  0  0  0  0
  147.9202  142.2733  155.1667 H   0  0  0  0  0  0  0  0  0  0  0  0
  148.8271  142.2079  153.6641 H   0  0  0  0  0  0  0  0  0  0  0  0
  146.0728  140.9778  153.3212 H   0  0  0  0  0  0  0  0  0  0  0  0
  149.6781  144.3823  157.8727 H   0  0  0  0  0  0  0  0  0  0  0  0
  149.5892  143.3589  159.2893 H   0  0  0  0  0  0  0  0  0  0  0  0
  150.0393  146.0496  159.4627 H   0  0  0  0  0  0  0  0  0  0  0  0
  150.7682  144.9293  160.6066 H   0  0  0  0  0  0  0  0  0  0  0  0
  152.1811  146.5384  158.6182 H   0  0  0  0  0  0  0  0  0  0  0  0
  152.8420  145.4884  159.8652 H   0  0  0  0  0  0  0  0  0  0  0  0
  153.5081  144.1855  158.0284 H   0  0  0  0  0  0  0  0  0  0  0  0
  152.2831  144.8829  156.9941 H   0  0  0  0  0  0  0  0  0  0  0  0
  1  2  1  0  0  0  0
  1 21  1  0  0  0  0
  1 22  1  0  0  0  0
  1 23  1  0  0  0  0
  2  3  1  0  0  0  0
  2 24  1  0  0  0  0
  2 25  1  0  0  0  0
  3  4  1  0  0  0  0
  4 16  1  0  0  0  0
  4  5  1  0  0  0  0
  4 26  1  0  0  0  0
  5  6  1  0  0  0  0
  5 27  1  0  0  0  0
  5 28  1  0  0  0  0
  6  7  1  0  0  0  0
  6 16  1  0  0  0  0
  6 29  1  0  0  0  0
  7  8  1  0  0  0  0
  7 30  1  0  0  0  0
  8  9  2  0  0  0  0
  8 10  1  0  0  0  0
 10 11  1  0  0  0  0
 10 31  1  0  0  0  0
 10 32  1  0  0  0  0
 11 15  1  0  0  0  0
 11 12  1  0  0  0  0
 12 13  2  0  0  0  0
 12 33  1  0  0  0  0
 13 14  1  0  0  0  0
 14 15  2  0  0  0  0
 16 20  1  0  0  0  0
 16 17  1  0  0  0  0
 17 18  1  0  0  0  0
 17 34  1  0  0  0  0
 17 35  1  0  0  0  0
 18 19  1  0  0  0  0
 18 36  1  0  0  0  0
 18 37  1  0  0  0  0
 19 20  1  0  0  0  0
 19 38  1  0  0  0  0
 19 39  1  0  0  0  0
 20 40  1  0  0  0  0
 20 41  1  0  0  0  0
M  END
> <s_m_source_file>
AV-unprocessed.smi

> <i_m_source_file_index>
679

> <i_lp_mmshare_version>
43012

> <i_f3d_flags>
0

> <s_epik_input>
W0NIMl0xW0NIMl1bQ0gyXVtDSDJdQzEyW0NASF0oT1tDSDJdW0NIM10pW0NIMl1bQ0BIXTJbTkhdQyg9TylbQ0gyXW4zW2NIXW5ubjM=

> <s_epik_cmdline>
J2VwaWtfcHl0aG9uJywgJy1waCcsICc3LjAnLCAnLXRuJywgJzgnLCAnLW1hJywgJzIwMCcsICctbWV0YWxfYmluZGluZycsICctaW1hZScsICc8aW5maWxlLm1hZT4nLCAnLW9tYWUnLCAnPG91dGZpbGUubWFlPic=

> <r_lp_tautomer_probability>
1

> <r_epik_Ionization_Penalty>
7.96741e-07

> <r_epik_Ionization_Penalty_Charging>
0

> <r_epik_Ionization_Penalty_Neutral>
7.96741e-07

> <r_epik_State_Penalty>
-0

> <r_epik_Charging_Adjusted_Penalty>
0

> <i_epik_Tot_Q>
0

> <i_epik_Tot_abs_Q>
0

> <r_epik_Metal_State_Penalty>
-0

> <b_epik_Metal_Only>
0

> <s_lp_Force_Field>
OPLS_2005

> <r_lp_Energy>
38.413

> <b_lp_Chiralities_Consistent>
1

> <s_lp_Variant>
AV-unprocessed.smi:679-2

> <Gold.Version>
5.8.1

> <Gold.Id.Protein>
6NUR|6NUR_protein|mol2

> <Gold.PLP.Fitness>
50.9500

> <Gold.PLP.PLP>
-44.7493

> <Gold.PLP.part.hbond>
-3.0000

> <Gold.PLP.part.metal>
0.0000

> <Gold.PLP.part.buried>
-6.2021

> <Gold.PLP.part.nonpolar>
-36.1594

> <Gold.PLP.part.repulsive>
0.7191

> <Gold.PLP.ligand.clash>
0.0000

> <Gold.PLP.ligand.torsion>
0.9349

> <Gold.PLP.Chemscore.Hbond>
1.8815

> <Gold.PLP.Chemscore.CHOScore>
0.6982

> <Gold.PLP.Chemscore.Metal>
0.0000

> <Gold.Chemscore.Hbonds>
donor molecule, donor type, donor heavy atom, donor atom, acceptor molecule, acceptor atom, score
      L1  H     7    30       P1  8028  0.86
      P1  H  6933  6945       L1     3  0.01
      P1  H  7989  7998       L1     9  1.00
      L1  C    12    33       P1 10175  0.77

> <Gold.PLP.Chemscore.Internal.Correction>
0.3317

> <Gold.Rescore>
     Score         DG    S(hbond)    S(metal)    S(lipo)     H(rot)  DE(clash)    DE(int)     intcor
     15.17     -17.90       1.61        0.00     112.91       2.41       0.29       2.44       ----

> <Gold.Chemscore.Fitness>
15.1719

> <Gold.Chemscore.DG>
-17.8967

> <Gold.Chemscore.ZeroCoef>
-5.4800

> <Gold.Chemscore.Hbond>
1.6089

> <Gold.Chemscore.Metal>
0.0000

> <Gold.Chemscore.Lipo>
112.9054

> <Gold.Chemscore.Internal_Hbond>
0.0000

> <Gold.Chemscore.DEClash>
0.2871

> <Gold.Chemscore.DEInternal>
2.4378

> <Gold.Chemscore.Rot>
2.4089

> <Gold.Chemscore.Internal.Correction>
   9.000000E+99

> <Gold.Chemscore.Hbonds>
donor molecule, donor type, donor heavy atom, donor atom, acceptor molecule, acceptor atom, score
      L1  H     7    30       P1  8028  0.83
      P1  H  7989  7998       L1     9  0.58

> <Gold.Chemscore.Hbond.Weighted>
-5.3736

> <Gold.Chemscore.Metal.Weighted>
-0.0000

> <Gold.Chemscore.Lipo.Weighted>
-13.2099

> <Gold.Chemscore.Internal_Hbond.Weighted>
0.0000

> <Gold.Chemscore.DEClash.Weighted>
0.2871

> <Gold.Chemscore.DEInternal.Weighted>
2.4378

> <Gold.Chemscore.Rot.Weighted>
6.1668

> <Gold.Chemscore.Internal.Correction.Weighted>
   9.000000E+99

> <Gold.Protein.RotatedTorsions>
[ 6907 6896 6895 6894 ] final  163.38 input  -60.11 | X-H torsion
[ 7974 7965 7964 7962 ] final  172.80 input  175.53 | X-H torsion
[ 8008 7997 7996 7995 ] final  -53.03 input   59.86 | X-H torsion
[ 10167 10162 10161 10158 ] final  -41.60 input  -65.29 | X-H torsion
[ 10718 10713 10712 10709 ] final  -55.36 input   66.30 | X-H torsion
[ 10763 10752 10751 10750 ] final   29.65 input  -60.55 | X-H torsion
[ 11005 11000 10999 10996 ] final  125.08 input  -57.11 | X-H torsion

> <Gold.Protein.ActiveResidues>
 VAL166  LYS551  ARG553  GLY616  TRP617  ASP618  TYR619  PRO620  LYS621  CYS622 
 ASP623  PHE694  ASN695  SER759  ASP760  ASP761  ALA762  ILE779  LEU786  VAL792 
 PHE793  MET794  SER795  GLU796  ALA797  LYS798  CYS799  TRP800  GLU811  SER814 

> <Gold.Protein.RotatedAtoms>
  151.9261  133.3598  159.3913 H   0  0  0  0  0  0  0  0  0  0  0  0  # atno 6907 bound_to 6896
  150.7027  134.4585  159.5379 H   0  0  0  0  0  0  0  0  0  0  0  0  # atno 6908 bound_to 6896
  152.2217  134.8406  160.0536 H   0  0  0  0  0  0  0  0  0  0  0  0  # atno 6909 bound_to 6896
  144.7259  139.9552  143.6433 H   0  0  0  0  0  0  0  0  0  0  0  0  # atno 7974 bound_to 7965
  154.4122  140.1209  156.5088 H   0  0  0  0  0  0  0  0  0  0  0  0  # atno 8008 bound_to 7997
  155.6820  140.3496  155.4839 H   0  0  0  0  0  0  0  0  0  0  0  0  # atno 8009 bound_to 7997
  155.9543  140.1111  157.0940 H   0  0  0  0  0  0  0  0  0  0  0  0  # atno 8010 bound_to 7997
  140.6997  143.3085  151.3090 H   0  0  0  0  0  0  0  0  0  0  0  0  # atno 10167 bound_to 10162
  156.1375  130.4156  150.0160 H   0  0  0  0  0  0  0  0  0  0  0  0  # atno 10718 bound_to 10713
  153.0418  135.6484  154.0923 H   0  0  0  0  0  0  0  0  0  0  0  0  # atno 10763 bound_to 10752
  154.0628  135.2886  155.3323 H   0  0  0  0  0  0  0  0  0  0  0  0  # atno 10764 bound_to 10752
  154.6646  135.5379  153.8126 H   0  0  0  0  0  0  0  0  0  0  0  0  # atno 10765 bound_to 10752
  139.9389  134.9637  156.8505 H   0  0  0  0  0  0  0  0  0  0  0  0  # atno 11005 bound_to 11000
  146.0680  139.3670  143.0540 LP  0  0  0  0  0  0  0  0  0  0  0  0  # atno 17320 bound_to 7965
  145.8005  140.9773  143.1001 LP  0  0  0  0  0  0  0  0  0  0  0  0  # atno 17321 bound_to 7965
  139.6499  144.0381  152.2619 LP  0  0  0  0  0  0  0  0  0  0  0  0  # atno 17342 bound_to 10162
  139.9914  144.6359  150.7811 LP  0  0  0  0  0  0  0  0  0  0  0  0  # atno 17343 bound_to 10162
  156.8055  130.9306  151.3645 LP  0  0  0  0  0  0  0  0  0  0  0  0  # atno 17370 bound_to 10713
  157.6546  130.8913  149.9702 LP  0  0  0  0  0  0  0  0  0  0  0  0  # atno 17371 bound_to 10713
  140.6002  134.0179  155.7534 LP  0  0  0  0  0  0  0  0  0  0  0  0  # atno 17394 bound_to 11000
  141.1015  133.9760  157.3070 LP  0  0  0  0  0  0  0  0  0  0  0  0  # atno 17395 bound_to 11000

$$$$
