AV-unprocessed.smi:2061|AV-procd|sdf|8369|dock1
  -GOLD-   2272011 43D 1   1.00000     0.00000
 Structure written by MMmdl.
 46 47  0  0  0  0  0  0  0  0  2 V2000
  137.3702  141.5987  153.6867 C   0  0  0  0  0  0  0  0  0  0  0  0
  138.3929  140.5205  153.5770 C   0  0  0  0  0  0  0  0  0  0  0  0
  139.7280  140.5303  153.2857 C   0  0  0  0  0  0  0  0  0  0  0  0
  140.0787  139.1555  153.3476 C   0  0  0  0  0  0  0  0  0  0  0  0
  141.4078  138.7303  153.0943 N   0  0  0  0  0  0  0  0  0  0  0  0
  141.8816  137.4726  153.1153 C   0  0  0  0  0  0  0  0  0  0  0  0
  141.2218  136.4685  153.3851 O   0  0  0  0  0  0  0  0  0  0  0  0
  143.1834  137.4336  152.7967 N   0  0  0  0  0  0  0  0  0  0  0  0
  143.9831  136.2144  152.7198 C   0  0  0  0  0  0  0  0  0  0  0  0
  145.4326  136.4671  152.2268 C   0  0  1  0  0  0  0  0  0  0  0  0
  146.1734  137.4084  153.2075 C   0  0  0  0  0  0  0  0  0  0  0  0
  146.1308  135.1599  151.9991 N   0  3  1  0  0  0  0  0  0  0  0  0
  146.1530  134.3131  153.2223 C   0  0  0  0  0  0  0  0  0  0  0  0
  146.9795  133.0303  153.0137 C   0  0  2  0  0  0  0  0  0  0  0  0
  148.4980  133.2759  152.9634 C   0  0  0  0  0  0  0  0  0  0  0  0
  146.5026  132.3237  151.8712 O   0  0  0  0  0  0  0  0  0  0  0  0
  146.4978  133.0816  150.6665 C   0  0  1  0  0  0  0  0  0  0  0  0
  145.9571  132.1825  149.5488 C   0  0  0  0  0  0  0  0  0  0  0  0
  145.6440  134.3503  150.8494 C   0  0  0  0  0  0  0  0  0  0  0  0
  139.0515  138.3771  153.6515 N   0  0  0  0  0  0  0  0  0  0  0  0
  137.9658  139.2481  153.8003 O   0  0  0  0  0  0  0  0  0  0  0  0
  137.8160  142.5782  153.5120 H   0  0  0  0  0  0  0  0  0  0  0  0
  136.9189  141.6044  154.6789 H   0  0  0  0  0  0  0  0  0  0  0  0
  136.5763  141.4536  152.9539 H   0  0  0  0  0  0  0  0  0  0  0  0
  140.3489  141.3850  153.0625 H   0  0  0  0  0  0  0  0  0  0  0  0
  142.0636  139.4609  152.8608 H   0  0  0  0  0  0  0  0  0  0  0  0
  143.6522  138.3037  152.5903 H   0  0  0  0  0  0  0  0  0  0  0  0
  144.0069  135.7684  153.7145 H   0  0  0  0  0  0  0  0  0  0  0  0
  143.4552  135.5022  152.0864 H   0  0  0  0  0  0  0  0  0  0  0  0
  145.3945  136.9875  151.2683 H   0  0  0  0  0  0  0  0  0  0  0  0
  145.6265  138.3378  153.3645 H   0  0  0  0  0  0  0  0  0  0  0  0
  147.1521  137.7040  152.8291 H   0  0  0  0  0  0  0  0  0  0  0  0
  146.3090  136.9418  154.1836 H   0  0  0  0  0  0  0  0  0  0  0  0
  146.5501  134.8571  154.0776 H   0  0  0  0  0  0  0  0  0  0  0  0
  145.1281  134.0418  153.4808 H   0  0  0  0  0  0  0  0  0  0  0  0
  146.7960  132.3766  153.8671 H   0  0  0  0  0  0  0  0  0  0  0  0
  148.8534  133.6897  153.9073 H   0  0  0  0  0  0  0  0  0  0  0  0
  148.7802  133.9767  152.1782 H   0  0  0  0  0  0  0  0  0  0  0  0
  149.0366  132.3438  152.7902 H   0  0  0  0  0  0  0  0  0  0  0  0
  147.5182  133.3632  150.4054 H   0  0  0  0  0  0  0  0  0  0  0  0
  145.9391  132.7087  148.5942 H   0  0  0  0  0  0  0  0  0  0  0  0
  144.9420  131.8484  149.7659 H   0  0  0  0  0  0  0  0  0  0  0  0
  146.5795  131.2958  149.4263 H   0  0  0  0  0  0  0  0  0  0  0  0
  144.5964  134.0874  151.0055 H   0  0  0  0  0  0  0  0  0  0  0  0
  145.7059  134.9176  149.9213 H   0  0  0  0  0  0  0  0  0  0  0  0
  147.0900  135.3906  151.7829 H   0  0  0  0  0  0  0  0  0  0  0  0
  1  2  1  0  0  0  0
  1 22  1  0  0  0  0
  1 23  1  0  0  0  0
  1 24  1  0  0  0  0
  2 21  1  0  0  0  0
  2  3  2  0  0  0  0
  3  4  1  0  0  0  0
  3 25  1  0  0  0  0
  4  5  1  0  0  0  0
  4 20  2  0  0  0  0
  5  6  1  0  0  0  0
  5 26  1  0  0  0  0
  6  7  2  0  0  0  0
  6  8  1  0  0  0  0
  8  9  1  0  0  0  0
  8 27  1  0  0  0  0
  9 10  1  0  0  0  0
  9 28  1  0  0  0  0
  9 29  1  0  0  0  0
 10 11  1  0  0  0  0
 10 12  1  0  0  0  0
 10 30  1  0  0  0  0
 11 31  1  0  0  0  0
 11 32  1  0  0  0  0
 11 33  1  0  0  0  0
 12 19  1  0  0  0  0
 12 13  1  0  0  0  0
 12 46  1  0  0  0  0
 13 14  1  0  0  0  0
 13 34  1  0  0  0  0
 13 35  1  0  0  0  0
 14 15  1  0  0  0  0
 14 16  1  0  0  0  0
 14 36  1  0  0  0  0
 15 37  1  0  0  0  0
 15 38  1  0  0  0  0
 15 39  1  0  0  0  0
 16 17  1  0  0  0  0
 17 18  1  0  0  0  0
 17 19  1  0  0  0  0
 17 40  1  0  0  0  0
 18 41  1  0  0  0  0
 18 42  1  0  0  0  0
 18 43  1  0  0  0  0
 19 44  1  0  0  0  0
 19 45  1  0  0  0  0
 20 21  1  0  0  0  0
M  CHG  1  12   1
M  END
> <s_m_source_file>
AV-unprocessed.smi

> <i_m_source_file_index>
2061

> <i_lp_mmshare_version>
43012

> <i_f3d_flags>
0

> <s_epik_input>
W0NIM11jMVtjSF1jKG5vMSlbTkhdQyg9TylbTkhdW0NIMl1bQ0BIXShbQ0gzXSlOMltDSDJdW0NAQEhdKFtDSDNdKU9bQ0BASF0oW0NIM10pW0NIMl0y

> <s_epik_cmdline>
J2VwaWtfcHl0aG9uJywgJy1waCcsICc3LjAnLCAnLXRuJywgJzgnLCAnLW1hJywgJzIwMCcsICctbWV0YWxfYmluZGluZycsICctaW1hZScsICc8aW5maWxlLm1hZT4nLCAnLW9tYWUnLCAnPG91dGZpbGUubWFlPic=

> <r_epik_Ionization_Penalty>
0.707076

> <r_epik_Ionization_Penalty_Charging>
0.707039

> <r_epik_Ionization_Penalty_Neutral>
3.6548e-05

> <r_epik_State_Penalty>
0.730276

> <r_epik_Charging_Adjusted_Penalty>
1.43732

> <i_epik_Tot_Q>
1

> <i_epik_Tot_abs_Q>
1

> <r_epik_Metal_State_Penalty>
0.743132

> <b_epik_Metal_Only>
0

> <s_lp_Force_Field>
OPLS_2005

> <r_lp_Energy>
19.7872

> <b_lp_Chiralities_Consistent>
1

> <s_lp_Variant>
AV-unprocessed.smi:2061-10

> <Gold.Version>
5.8.1

> <Gold.Id.Protein>
6NUR|6NUR_protein|mol2

> <Gold.PLP.Fitness>
42.4222

> <Gold.PLP.PLP>
-31.3283

> <Gold.PLP.part.hbond>
-3.9271

> <Gold.PLP.part.metal>
0.0000

> <Gold.PLP.part.buried>
-0.1061

> <Gold.PLP.part.nonpolar>
-27.3459

> <Gold.PLP.part.repulsive>
0.4491

> <Gold.PLP.ligand.clash>
0.0000

> <Gold.PLP.ligand.torsion>
0.1032

> <Gold.PLP.Chemscore.Hbond>
3.7475

> <Gold.PLP.Chemscore.CHOScore>
0.0000

> <Gold.PLP.Chemscore.Metal>
0.0000

> <Gold.Chemscore.Hbonds>
donor molecule, donor type, donor heavy atom, donor atom, acceptor molecule, acceptor atom, score
      L1  H     5    26       P1 10175  1.00
      L1  H     8    27       P1 10175  0.75
      L1  H    12    46       P1  7948  2.00

> <Gold.PLP.Chemscore.Internal.Correction>
0.0577

> <Gold.Rescore>
     Score         DG    S(hbond)    S(metal)    S(lipo)     H(rot)  DE(clash)    DE(int)     intcor
     16.91     -18.31       2.76        0.00      65.57       1.58       0.02       1.39       ----

> <Gold.Chemscore.Fitness>
16.9060

> <Gold.Chemscore.DG>
-18.3134

> <Gold.Chemscore.ZeroCoef>
-5.4800

> <Gold.Chemscore.Hbond>
2.7589

> <Gold.Chemscore.Metal>
0.0000

> <Gold.Chemscore.Lipo>
65.5742

> <Gold.Chemscore.Internal_Hbond>
0.0000

> <Gold.Chemscore.DEClash>
0.0178

> <Gold.Chemscore.DEInternal>
1.3896

> <Gold.Chemscore.Rot>
1.5834

> <Gold.Chemscore.Internal.Correction>
   9.000000E+99

> <Gold.Chemscore.Hbonds>
donor molecule, donor type, donor heavy atom, donor atom, acceptor molecule, acceptor atom, score
      L1  H     5    26       P1 10175  0.78
      L1  H     8    27       P1 10175  0.71
      L1  H    12    46       P1  7948  0.95

> <Gold.Chemscore.Hbond.Weighted>
-9.2147

> <Gold.Chemscore.Metal.Weighted>
-0.0000

> <Gold.Chemscore.Lipo.Weighted>
-7.6722

> <Gold.Chemscore.Internal_Hbond.Weighted>
0.0000

> <Gold.Chemscore.DEClash.Weighted>
0.0178

> <Gold.Chemscore.DEInternal.Weighted>
1.3896

> <Gold.Chemscore.Rot.Weighted>
4.0535

> <Gold.Chemscore.Internal.Correction.Weighted>
   9.000000E+99

> <Gold.Protein.RotatedTorsions>
[ 6907 6896 6895 6894 ] final  101.08 input  -60.11 | X-H torsion
[ 7974 7965 7964 7962 ] final -158.81 input  175.53 | X-H torsion
[ 8008 7997 7996 7995 ] final  175.45 input   59.86 | X-H torsion
[ 10167 10162 10161 10158 ] final  -91.94 input  -65.29 | X-H torsion
[ 10718 10713 10712 10709 ] final  127.94 input   66.30 | X-H torsion
[ 10763 10752 10751 10750 ] final  -27.85 input  -60.55 | X-H torsion
[ 11005 11000 10999 10996 ] final  140.06 input  -57.11 | X-H torsion

> <Gold.Protein.ActiveResidues>
 VAL166  LYS551  ARG553  GLY616  TRP617  ASP618  TYR619  PRO620  LYS621  CYS622 
 ASP623  PHE694  ASN695  SER759  ASP760  ASP761  ALA762  ILE779  LEU786  VAL792 
 PHE793  MET794  SER795  GLU796  ALA797  LYS798  CYS799  TRP800  GLU811  SER814 

> <Gold.Protein.RotatedAtoms>
  152.5357  134.0180  159.7968 H   0  0  0  0  0  0  0  0  0  0  0  0  # atno 6907 bound_to 6896
  151.0371  133.5731  159.2662 H   0  0  0  0  0  0  0  0  0  0  0  0  # atno 6908 bound_to 6896
  151.2714  135.0693  159.9189 H   0  0  0  0  0  0  0  0  0  0  0  0  # atno 6909 bound_to 6896
  144.7490  140.3774  143.6062 H   0  0  0  0  0  0  0  0  0  0  0  0  # atno 7974 bound_to 7965
  156.0869  140.1408  156.9642 H   0  0  0  0  0  0  0  0  0  0  0  0  # atno 8008 bound_to 7997
  154.4618  140.0940  156.6962 H   0  0  0  0  0  0  0  0  0  0  0  0  # atno 8009 bound_to 7997
  155.4984  140.3450  155.4369 H   0  0  0  0  0  0  0  0  0  0  0  0  # atno 8010 bound_to 7997
  140.3399  143.2948  151.9847 H   0  0  0  0  0  0  0  0  0  0  0  0  # atno 10167 bound_to 10162
  157.5289  131.1098  150.9040 H   0  0  0  0  0  0  0  0  0  0  0  0  # atno 10718 bound_to 10713
  153.7387  135.6934  153.4972 H   0  0  0  0  0  0  0  0  0  0  0  0  # atno 10763 bound_to 10752
  153.2084  135.4411  155.0349 H   0  0  0  0  0  0  0  0  0  0  0  0  # atno 10764 bound_to 10752
  154.8228  135.3430  154.6914 H   0  0  0  0  0  0  0  0  0  0  0  0  # atno 10765 bound_to 10752
  140.0299  134.9357  157.0642 H   0  0  0  0  0  0  0  0  0  0  0  0  # atno 11005 bound_to 11000
  145.7013  139.1662  143.2591 LP  0  0  0  0  0  0  0  0  0  0  0  0  # atno 17320 bound_to 7965
  146.1413  140.7053  142.9365 LP  0  0  0  0  0  0  0  0  0  0  0  0  # atno 17321 bound_to 7965
  139.4842  144.6166  151.7335 LP  0  0  0  0  0  0  0  0  0  0  0  0  # atno 17342 bound_to 10162
  140.5319  144.0717  150.6056 LP  0  0  0  0  0  0  0  0  0  0  0  0  # atno 17343 bound_to 10162
  156.9628  130.5461  149.5286 LP  0  0  0  0  0  0  0  0  0  0  0  0  # atno 17370 bound_to 10713
  156.0407  130.5490  150.8764 LP  0  0  0  0  0  0  0  0  0  0  0  0  # atno 17371 bound_to 10713
  140.4243  134.1848  155.7165 LP  0  0  0  0  0  0  0  0  0  0  0  0  # atno 17394 bound_to 11000
  141.1825  133.8384  157.1207 LP  0  0  0  0  0  0  0  0  0  0  0  0  # atno 17395 bound_to 11000

$$$$
