AV-unprocessed.smi:100|AV-procd|sdf|907|dock3
  -GOLD-   2262017403D 1   1.00000     0.00000
 Structure written by MMmdl.
 31 33  0  0  0  0  0  0  0  0  1 V2000
  142.5322  138.2753  154.6535 N   0  0  0  0  0  0  0  0  0  0  0  0
  142.7384  137.1367  153.9770 C   0  0  0  0  0  0  0  0  0  0  0  0
  141.8565  136.1229  154.1405 N   0  0  0  0  0  0  0  0  0  0  0  0
  142.0398  134.9782  153.4746 C   0  0  0  0  0  0  0  0  0  0  0  0
  143.0146  134.6553  152.6209 N   0  0  0  0  0  0  0  0  0  0  0  0
  143.9057  135.6772  152.4594 C   0  0  0  0  0  0  0  0  0  0  0  0
  143.8355  136.9460  153.0993 C   0  0  0  0  0  0  0  0  0  0  0  0
  144.9027  137.7386  152.6993 N   0  0  0  0  0  0  0  0  0  0  0  0
  145.5644  136.9770  151.8700 C   0  0  0  0  0  0  0  0  0  0  0  0
  145.0388  135.7186  151.6707 N   0  0  0  0  0  0  0  0  0  0  0  0
  145.5825  134.6352  150.7897 C   0  0  2  0  0  0  0  0  0  0  0  0
  144.6472  134.3549  149.7938 O   0  0  0  0  0  0  0  0  0  0  0  0
  144.6648  132.9560  149.5314 C   0  0  2  0  0  0  0  0  0  0  0  0
  143.3787  132.5132  148.8162 C   0  0  0  0  0  0  0  0  0  0  0  0
  142.8554  133.5820  148.0562 O   0  0  0  0  0  0  0  0  0  0  0  0
  144.8502  132.3596  150.9292 C   0  0  2  0  0  0  0  0  0  0  0  0
  143.6882  132.3949  151.5860 F   0  0  0  0  0  0  0  0  0  0  0  0
  145.8609  133.3176  151.5445 C   0  0  2  0  0  0  0  0  0  0  0  0
  145.7661  133.3765  152.9571 O   0  0  0  0  0  0  0  0  0  0  0  0
  143.1762  139.0459  154.5476 H   0  0  0  0  0  0  0  0  0  0  0  0
  141.7331  138.3610  155.2643 H   0  0  0  0  0  0  0  0  0  0  0  0
  141.3007  134.2105  153.6502 H   0  0  0  0  0  0  0  0  0  0  0  0
  146.4659  137.3143  151.3796 H   0  0  0  0  0  0  0  0  0  0  0  0
  146.4833  135.0648  150.3486 H   0  0  0  0  0  0  0  0  0  0  0  0
  145.5425  132.7141  148.9284 H   0  0  0  0  0  0  0  0  0  0  0  0
  143.5948  131.6973  148.1260 H   0  0  0  0  0  0  0  0  0  0  0  0
  142.6342  132.1502  149.5257 H   0  0  0  0  0  0  0  0  0  0  0  0
  142.1543  133.9844  148.5458 H   0  0  0  0  0  0  0  0  0  0  0  0
  145.1900  131.3238  150.9166 H   0  0  0  0  0  0  0  0  0  0  0  0
  146.8686  132.9972  151.2770 H   0  0  0  0  0  0  0  0  0  0  0  0
  146.4851  132.8884  153.3277 H   0  0  0  0  0  0  0  0  0  0  0  0
  1  2  1  0  0  0  0
  1 20  1  0  0  0  0
  1 21  1  0  0  0  0
  2  7  1  0  0  0  0
  2  3  2  0  0  0  0
  3  4  1  0  0  0  0
  4  5  2  0  0  0  0
  4 22  1  0  0  0  0
  5  6  1  0  0  0  0
  6 10  1  0  0  0  0
  6  7  2  0  0  0  0
  7  8  1  0  0  0  0
  8  9  2  0  0  0  0
  9 10  1  0  0  0  0
  9 23  1  0  0  0  0
 10 11  1  0  0  0  0
 11 18  1  0  0  0  0
 11 12  1  0  0  0  0
 11 24  1  0  0  0  0
 12 13  1  0  0  0  0
 13 14  1  0  0  0  0
 13 16  1  0  0  0  0
 13 25  1  0  0  0  0
 14 15  1  0  0  0  0
 14 26  1  0  0  0  0
 14 27  1  0  0  0  0
 15 28  1  0  0  0  0
 16 17  1  0  0  0  0
 16 18  1  0  0  0  0
 16 29  1  0  0  0  0
 18 19  1  0  0  0  0
 18 30  1  0  0  0  0
 19 31  1  0  0  0  0
M  END
> <s_m_source_file>
AV-unprocessed.smi

> <i_m_source_file_index>
100

> <i_lp_mmshare_version>
43012

> <i_f3d_flags>
0

> <s_epik_input>
bjFbY0hdbmMoW05IMl0pYyhjMTIpbltjSF1uMltDQEBIXTNPW0NAQEhdKFtDSDJdW09IXSlbQ0BIXShGKVtDQEhdM1tPSF0=

> <s_epik_cmdline>
J2VwaWtfcHl0aG9uJywgJy1waCcsICc3LjAnLCAnLXRuJywgJzgnLCAnLW1hJywgJzIwMCcsICctbWV0YWxfYmluZGluZycsICctaW1hZScsICc8aW5maWxlLm1hZT4nLCAnLW9tYWUnLCAnPG91dGZpbGUubWFlPic=

> <r_lp_tautomer_probability>
1

> <r_epik_Ionization_Penalty>
0.000750324

> <r_epik_Ionization_Penalty_Charging>
0

> <r_epik_Ionization_Penalty_Neutral>
0.000750324

> <r_epik_State_Penalty>
-0

> <r_epik_Charging_Adjusted_Penalty>
0

> <i_epik_Tot_Q>
0

> <i_epik_Tot_abs_Q>
0

> <r_epik_Metal_State_Penalty>
-0

> <b_epik_Metal_Only>
0

> <s_epik_Chemistry_Notes>
This compound contains an acetal/aminal-like group ( X-CH(R)-Y where X, Y are N, S, or O) that may be acid/base labile, releasing an aldehyde.

> <s_lp_Force_Field>
OPLS_2005

> <r_lp_Energy>
39.5

> <b_lp_Chiralities_Consistent>
1

> <s_lp_Variant>
AV-unprocessed.smi:100-11

> <Gold.Version>
5.8.1

> <Gold.Id.Protein>
6NUR|6NUR_protein|mol2

> <Gold.PLP.Fitness>
36.5041

> <Gold.PLP.PLP>
-30.4848

> <Gold.PLP.part.hbond>
-4.7466

> <Gold.PLP.part.metal>
0.0000

> <Gold.PLP.part.buried>
-3.9674

> <Gold.PLP.part.nonpolar>
-26.5597

> <Gold.PLP.part.repulsive>
5.4147

> <Gold.PLP.ligand.clash>
0.0000

> <Gold.PLP.ligand.torsion>
0.4701

> <Gold.PLP.Chemscore.Hbond>
1.3177

> <Gold.PLP.Chemscore.CHOScore>
1.0000

> <Gold.PLP.Chemscore.Metal>
0.0000

> <Gold.Chemscore.Hbonds>
donor molecule, donor type, donor heavy atom, donor atom, acceptor molecule, acceptor atom, score
      L1  H    15    28       P1 10186  1.00
      L1  C     9    23       P1  7948  0.46

> <Gold.PLP.Chemscore.Internal.Correction>
0.0062

> <Gold.Rescore>
     Score         DG    S(hbond)    S(metal)    S(lipo)     H(rot)  DE(clash)    DE(int)     intcor
      2.29      -7.05       1.53        0.00      39.51       3.19       1.80       2.97       ----

> <Gold.Chemscore.Fitness>
2.2855

> <Gold.Chemscore.DG>
-7.0549

> <Gold.Chemscore.ZeroCoef>
-5.4800

> <Gold.Chemscore.Hbond>
1.5325

> <Gold.Chemscore.Metal>
0.0000

> <Gold.Chemscore.Lipo>
39.5137

> <Gold.Chemscore.Internal_Hbond>
0.0000

> <Gold.Chemscore.DEClash>
1.8034

> <Gold.Chemscore.DEInternal>
2.9660

> <Gold.Chemscore.Rot>
3.1901

> <Gold.Chemscore.Internal.Correction>
   9.000000E+99

> <Gold.Chemscore.Hbonds>
donor molecule, donor type, donor heavy atom, donor atom, acceptor molecule, acceptor atom, score
      L1  H    15    28       P1 10186  0.96

> <Gold.Chemscore.Hbond.Weighted>
-5.1185

> <Gold.Chemscore.Metal.Weighted>
-0.0000

> <Gold.Chemscore.Lipo.Weighted>
-4.6231

> <Gold.Chemscore.Internal_Hbond.Weighted>
0.0000

> <Gold.Chemscore.DEClash.Weighted>
1.8034

> <Gold.Chemscore.DEInternal.Weighted>
2.9660

> <Gold.Chemscore.Rot.Weighted>
8.1667

> <Gold.Chemscore.Internal.Correction.Weighted>
   9.000000E+99

> <Gold.Protein.RotatedTorsions>
[ 6907 6896 6895 6894 ] final  139.26 input  -60.11 | X-H torsion
[ 7974 7965 7964 7962 ] final   59.27 input  175.53 | X-H torsion
[ 8008 7997 7996 7995 ] final  164.83 input   59.86 | X-H torsion
[ 10167 10162 10161 10158 ] final  125.50 input  -65.29 | X-H torsion
[ 10718 10713 10712 10709 ] final  -87.99 input   66.30 | X-H torsion
[ 10763 10752 10751 10750 ] final  112.14 input  -60.55 | X-H torsion
[ 11005 11000 10999 10996 ] final  -22.61 input  -57.11 | X-H torsion

> <Gold.Protein.ActiveResidues>
 VAL166  LYS551  ARG553  GLY616  TRP617  ASP618  TYR619  PRO620  LYS621  CYS622 
 ASP623  PHE694  ASN695  SER759  ASP760  ASP761  ALA762  ILE779  LEU786  VAL792 
 PHE793  MET794  SER795  GLU796  ALA797  LYS798  CYS799  TRP800  GLU811  SER814 

> <Gold.Protein.RotatedAtoms>
  152.2570  133.5264  159.5358 H   0  0  0  0  0  0  0  0  0  0  0  0  # atno 6907 bound_to 6896
  150.7112  134.0882  159.3931 H   0  0  0  0  0  0  0  0  0  0  0  0  # atno 6908 bound_to 6896
  151.8801  135.0457  160.0538 H   0  0  0  0  0  0  0  0  0  0  0  0  # atno 6909 bound_to 6896
  145.9090  139.3639  143.0547 H   0  0  0  0  0  0  0  0  0  0  0  0  # atno 7974 bound_to 7965
  156.1849  140.1686  156.8204 H   0  0  0  0  0  0  0  0  0  0  0  0  # atno 8008 bound_to 7997
  154.5402  140.0738  156.8530 H   0  0  0  0  0  0  0  0  0  0  0  0  # atno 8009 bound_to 7997
  155.3230  140.3374  155.4243 H   0  0  0  0  0  0  0  0  0  0  0  0  # atno 8010 bound_to 7997
  139.5682  144.6923  151.3852 H   0  0  0  0  0  0  0  0  0  0  0  0  # atno 10167 bound_to 10162
  155.9984  130.4820  150.4951 H   0  0  0  0  0  0  0  0  0  0  0  0  # atno 10718 bound_to 10713
  153.4735  135.3695  155.2404 H   0  0  0  0  0  0  0  0  0  0  0  0  # atno 10763 bound_to 10752
  154.8756  135.3937  154.3784 H   0  0  0  0  0  0  0  0  0  0  0  0  # atno 10764 bound_to 10752
  153.4376  135.7083  153.6254 H   0  0  0  0  0  0  0  0  0  0  0  0  # atno 10765 bound_to 10752
  140.8673  133.7745  156.0145 H   0  0  0  0  0  0  0  0  0  0  0  0  # atno 11005 bound_to 11000
  145.8695  140.9428  143.0658 LP  0  0  0  0  0  0  0  0  0  0  0  0  # atno 17320 bound_to 7965
  144.6741  140.0636  143.7475 LP  0  0  0  0  0  0  0  0  0  0  0  0  # atno 17321 bound_to 7965
  140.6966  143.7734  150.7336 LP  0  0  0  0  0  0  0  0  0  0  0  0  # atno 17342 bound_to 10162
  140.1232  143.4593  152.2300 LP  0  0  0  0  0  0  0  0  0  0  0  0  # atno 17343 bound_to 10162
  157.2942  131.0632  151.2113 LP  0  0  0  0  0  0  0  0  0  0  0  0  # atno 17370 bound_to 10713
  157.3115  130.6892  149.6218 LP  0  0  0  0  0  0  0  0  0  0  0  0  # atno 17371 bound_to 10713
  140.8614  134.2836  157.5233 LP  0  0  0  0  0  0  0  0  0  0  0  0  # atno 17394 bound_to 11000
  139.8710  134.9520  156.4102 LP  0  0  0  0  0  0  0  0  0  0  0  0  # atno 17395 bound_to 11000

$$$$
