AV-unprocessed.smi:2143|AV-procd|sdf|8722|dock9
  -GOLD-   2272011493D 1   1.00000     0.00000
 Structure written by MMmdl.
 44 45  0  0  0  0  0  0  0  0  1 V2000
  151.9218  143.1408  158.2871 C   0  0  0  0  0  0  0  0  0  0  0  0
  151.7650  141.6201  158.4660 C   0  0  2  0  0  0  0  0  0  0  0  0
  152.9089  141.0786  159.3487 C   0  0  0  0  0  0  0  0  0  0  0  0
  152.7979  139.5652  159.5770 C   0  0  0  0  0  0  0  0  0  0  0  0
  152.7487  138.8094  158.2411 C   0  0  0  0  0  0  0  0  0  0  0  0
  151.6133  139.3187  157.3344 C   0  0  1  0  0  0  0  0  0  0  0  0
  150.3175  138.9276  157.8947 N   0  0  0  0  0  0  0  0  0  0  0  0
  149.9402  137.6853  158.2338 C   0  0  0  0  0  0  0  0  0  0  0  0
  150.6603  136.6953  158.0976 O   0  0  0  0  0  0  0  0  0  0  0  0
  148.5147  137.5510  158.7861 C   0  0  0  0  0  0  0  0  0  0  0  0
  148.1809  136.1832  159.2031 N   0  0  0  0  0  0  0  0  0  0  0  0
  148.2594  135.1497  158.2878 C   0  0  0  0  0  0  0  0  0  0  0  0
  147.9838  133.8627  158.5920 C   0  0  0  0  0  0  0  0  0  0  0  0
  147.5755  133.4817  159.9387 C   0  0  0  0  0  0  0  0  0  0  0  0
  147.3266  132.3188  160.2584 O   0  0  0  0  0  0  0  0  0  0  0  0
  147.4955  134.5597  160.8532 N   0  0  0  0  0  0  0  0  0  0  0  0
  147.1111  134.2930  162.2238 C   0  0  0  0  0  0  0  0  0  0  0  0
  147.7956  135.9018  160.5313 C   0  0  0  0  0  0  0  0  0  0  0  0
  147.7306  136.8019  161.3725 O   0  0  0  0  0  0  0  0  0  0  0  0
  151.7046  140.8528  157.1153 C   0  0  1  0  0  0  0  0  0  0  0  0
  150.5857  141.3575  156.1815 C   0  0  0  0  0  0  0  0  0  0  0  0
  152.8067  143.3822  157.6975 H   0  0  0  0  0  0  0  0  0  0  0  0
  152.0207  143.6393  159.2516 H   0  0  0  0  0  0  0  0  0  0  0  0
  151.0568  143.5815  157.7923 H   0  0  0  0  0  0  0  0  0  0  0  0
  150.8273  141.4524  158.9977 H   0  0  0  0  0  0  0  0  0  0  0  0
  153.8696  141.3034  158.8831 H   0  0  0  0  0  0  0  0  0  0  0  0
  152.9098  141.5880  160.3129 H   0  0  0  0  0  0  0  0  0  0  0  0
  153.6455  139.2166  160.1677 H   0  0  0  0  0  0  0  0  0  0  0  0
  151.9048  139.3463  160.1633 H   0  0  0  0  0  0  0  0  0  0  0  0
  153.7021  138.9340  157.7257 H   0  0  0  0  0  0  0  0  0  0  0  0
  152.6393  137.7389  158.4197 H   0  0  0  0  0  0  0  0  0  0  0  0
  151.7448  138.8353  156.3647 H   0  0  0  0  0  0  0  0  0  0  0  0
  149.6503  139.6720  158.0371 H   0  0  0  0  0  0  0  0  0  0  0  0
  148.3780  138.2417  159.6203 H   0  0  0  0  0  0  0  0  0  0  0  0
  147.8192  137.8821  158.0137 H   0  0  0  0  0  0  0  0  0  0  0  0
  148.5619  135.3800  157.2765 H   0  0  0  0  0  0  0  0  0  0  0  0
  148.0695  133.1034  157.8286 H   0  0  0  0  0  0  0  0  0  0  0  0
  146.3175  134.9940  162.4900 H   0  0  0  0  0  0  0  0  0  0  0  0
  148.0000  134.4445  162.8382 H   0  0  0  0  0  0  0  0  0  0  0  0
  146.7358  133.2765  162.3371 H   0  0  0  0  0  0  0  0  0  0  0  0
  152.6468  141.0379  156.5967 H   0  0  0  0  0  0  0  0  0  0  0  0
  149.6121  141.3387  156.6719 H   0  0  0  0  0  0  0  0  0  0  0  0
  150.5179  140.7397  155.2855 H   0  0  0  0  0  0  0  0  0  0  0  0
  150.7700  142.3783  155.8481 H   0  0  0  0  0  0  0  0  0  0  0  0
  1  2  1  0  0  0  0
  1 22  1  0  0  0  0
  1 23  1  0  0  0  0
  1 24  1  0  0  0  0
  2 20  1  0  0  0  0
  2  3  1  0  0  0  0
  2 25  1  0  0  0  0
  3  4  1  0  0  0  0
  3 26  1  0  0  0  0
  3 27  1  0  0  0  0
  4  5  1  0  0  0  0
  4 28  1  0  0  0  0
  4 29  1  0  0  0  0
  5  6  1  0  0  0  0
  5 30  1  0  0  0  0
  5 31  1  0  0  0  0
  6  7  1  0  0  0  0
  6 20  1  0  0  0  0
  6 32  1  0  0  0  0
  7  8  1  0  0  0  0
  7 33  1  0  0  0  0
  8  9  2  0  0  0  0
  8 10  1  0  0  0  0
 10 11  1  0  0  0  0
 10 34  1  0  0  0  0
 10 35  1  0  0  0  0
 11 18  1  0  0  0  0
 11 12  1  0  0  0  0
 12 13  2  0  0  0  0
 12 36  1  0  0  0  0
 13 14  1  0  0  0  0
 13 37  1  0  0  0  0
 14 15  2  0  0  0  0
 14 16  1  0  0  0  0
 16 17  1  0  0  0  0
 16 18  1  0  0  0  0
 17 38  1  0  0  0  0
 17 39  1  0  0  0  0
 17 40  1  0  0  0  0
 18 19  2  0  0  0  0
 20 21  1  0  0  0  0
 20 41  1  0  0  0  0
 21 42  1  0  0  0  0
 21 43  1  0  0  0  0
 21 44  1  0  0  0  0
M  END
> <s_m_source_file>
AV-unprocessed.smi

> <i_m_source_file_index>
2143

> <i_lp_mmshare_version>
43012

> <i_f3d_flags>
0

> <s_epik_input>
W0NIM11bQ0BASF0xW0NIMl1bQ0gyXVtDSDJdW0NASF0oW0NASF0xW0NIM10pW05IXUMoPU8pW0NIMl1uMltjSF1bY0hdYyg9TyluKFtDSDNdKWMyPU8=

> <s_epik_cmdline>
J2VwaWtfcHl0aG9uJywgJy1waCcsICc3LjAnLCAnLXRuJywgJzgnLCAnLW1hJywgJzIwMCcsICctbWV0YWxfYmluZGluZycsICctaW1hZScsICc8aW5maWxlLm1hZT4nLCAnLW9tYWUnLCAnPG91dGZpbGUubWFlPic=

> <r_lp_tautomer_probability>
1

> <r_epik_Ionization_Penalty>
3.18445e-08

> <r_epik_Ionization_Penalty_Charging>
1.27977e-08

> <r_epik_Ionization_Penalty_Neutral>
1.90469e-08

> <r_epik_State_Penalty>
-0

> <r_epik_Charging_Adjusted_Penalty>
1.27977e-08

> <i_epik_Tot_Q>
0

> <i_epik_Tot_abs_Q>
0

> <r_epik_Metal_State_Penalty>
-0

> <b_epik_Metal_Only>
0

> <s_lp_Force_Field>
OPLS_2005

> <r_lp_Energy>
19.1403

> <b_lp_Chiralities_Consistent>
1

> <s_lp_Variant>
AV-unprocessed.smi:2143-1

> <Gold.Version>
5.8.1

> <Gold.Id.Protein>
6NUR|6NUR_protein|mol2

> <Gold.PLP.Fitness>
42.8667

> <Gold.PLP.PLP>
-36.5128

> <Gold.PLP.part.hbond>
-2.7746

> <Gold.PLP.part.metal>
0.0000

> <Gold.PLP.part.buried>
-4.4380

> <Gold.PLP.part.nonpolar>
-28.7694

> <Gold.PLP.part.repulsive>
0.0869

> <Gold.PLP.ligand.clash>
0.0000

> <Gold.PLP.ligand.torsion>
0.0373

> <Gold.PLP.Chemscore.Hbond>
2.1393

> <Gold.PLP.Chemscore.CHOScore>
0.0000

> <Gold.PLP.Chemscore.Metal>
0.0000

> <Gold.Chemscore.Hbonds>
donor molecule, donor type, donor heavy atom, donor atom, acceptor molecule, acceptor atom, score
      P1  H  6931  6943       L1    19  1.00
      P1  H  6934  6947       L1    19  0.22

> <Gold.PLP.Chemscore.Internal.Correction>
0.0107

> <Gold.Rescore>
     Score         DG    S(hbond)    S(metal)    S(lipo)     H(rot)  DE(clash)    DE(int)     intcor
     13.93     -16.56       1.76        0.00      77.56       1.51       0.04       2.60       ----

> <Gold.Chemscore.Fitness>
13.9253

> <Gold.Chemscore.DG>
-16.5642

> <Gold.Chemscore.ZeroCoef>
-5.4800

> <Gold.Chemscore.Hbond>
1.7614

> <Gold.Chemscore.Metal>
0.0000

> <Gold.Chemscore.Lipo>
77.5593

> <Gold.Chemscore.Internal_Hbond>
0.0000

> <Gold.Chemscore.DEClash>
0.0402

> <Gold.Chemscore.DEInternal>
2.5988

> <Gold.Chemscore.Rot>
1.5131

> <Gold.Chemscore.Internal.Correction>
   9.000000E+99

> <Gold.Chemscore.Hbonds>
donor molecule, donor type, donor heavy atom, donor atom, acceptor molecule, acceptor atom, score
      P1  H  6896  6907       L1     9  0.02
      P1  H  6931  6943       L1    19  0.94
      P1  H  6934  6947       L1    19  0.23

> <Gold.Chemscore.Hbond.Weighted>
-5.8832

> <Gold.Chemscore.Metal.Weighted>
-0.0000

> <Gold.Chemscore.Lipo.Weighted>
-9.0744

> <Gold.Chemscore.Internal_Hbond.Weighted>
0.0000

> <Gold.Chemscore.DEClash.Weighted>
0.0402

> <Gold.Chemscore.DEInternal.Weighted>
2.5988

> <Gold.Chemscore.Rot.Weighted>
3.8734

> <Gold.Chemscore.Internal.Correction.Weighted>
   9.000000E+99

> <Gold.Protein.RotatedTorsions>
[ 6907 6896 6895 6894 ] final  -12.35 input  -60.11 | X-H torsion
[ 7974 7965 7964 7962 ] final -118.02 input  175.53 | X-H torsion
[ 8008 7997 7996 7995 ] final  162.83 input   59.86 | X-H torsion
[ 10167 10162 10161 10158 ] final  140.20 input  -65.29 | X-H torsion
[ 10718 10713 10712 10709 ] final   66.15 input   66.30 | X-H torsion
[ 10763 10752 10751 10750 ] final  -31.82 input  -60.55 | X-H torsion
[ 11005 11000 10999 10996 ] final  -66.37 input  -57.11 | X-H torsion

> <Gold.Protein.ActiveResidues>
 VAL166  LYS551  ARG553  GLY616  TRP617  ASP618  TYR619  PRO620  LYS621  CYS622 
 ASP623  PHE694  ASN695  SER759  ASP760  ASP761  ALA762  ILE779  LEU786  VAL792 
 PHE793  MET794  SER795  GLU796  ALA797  LYS798  CYS799  TRP800  GLU811  SER814 

> <Gold.Protein.RotatedAtoms>
  151.3719  135.0924  159.9467 H   0  0  0  0  0  0  0  0  0  0  0  0  # atno 6907 bound_to 6896
  152.5133  133.9156  159.7520 H   0  0  0  0  0  0  0  0  0  0  0  0  # atno 6908 bound_to 6896
  150.9572  133.6430  159.2790 H   0  0  0  0  0  0  0  0  0  0  0  0  # atno 6909 bound_to 6896
  145.0785  140.8409  143.4053 H   0  0  0  0  0  0  0  0  0  0  0  0  # atno 7974 bound_to 7965
  156.2002  140.1740  156.7915 H   0  0  0  0  0  0  0  0  0  0  0  0  # atno 8008 bound_to 7997
  154.5582  140.0704  156.8807 H   0  0  0  0  0  0  0  0  0  0  0  0  # atno 8009 bound_to 7997
  155.2899  140.3354  155.4255 H   0  0  0  0  0  0  0  0  0  0  0  0  # atno 8010 bound_to 7997
  139.5056  144.6248  151.5963 H   0  0  0  0  0  0  0  0  0  0  0  0  # atno 10167 bound_to 10162
  157.6151  130.9252  150.0071 H   0  0  0  0  0  0  0  0  0  0  0  0  # atno 10718 bound_to 10713
  153.8036  135.6888  153.4852 H   0  0  0  0  0  0  0  0  0  0  0  0  # atno 10763 bound_to 10752
  153.1673  135.4556  154.9853 H   0  0  0  0  0  0  0  0  0  0  0  0  # atno 10764 bound_to 10752
  154.7996  135.3332  154.7522 H   0  0  0  0  0  0  0  0  0  0  0  0  # atno 10765 bound_to 10752
  141.1480  133.6698  156.6129 H   0  0  0  0  0  0  0  0  0  0  0  0  # atno 11005 bound_to 11000
  145.1206  139.2696  143.5590 LP  0  0  0  0  0  0  0  0  0  0  0  0  # atno 17320 bound_to 7965
  146.3530  140.0829  142.8616 LP  0  0  0  0  0  0  0  0  0  0  0  0  # atno 17321 bound_to 7965
  140.5962  143.9692  150.6356 LP  0  0  0  0  0  0  0  0  0  0  0  0  # atno 17342 bound_to 10162
  140.2889  143.3338  152.1081 LP  0  0  0  0  0  0  0  0  0  0  0  0  # atno 17343 bound_to 10162
  156.1270  130.3644  149.9794 LP  0  0  0  0  0  0  0  0  0  0  0  0  # atno 17370 bound_to 10713
  156.7863  130.9239  151.3646 LP  0  0  0  0  0  0  0  0  0  0  0  0  # atno 17371 bound_to 10713
  140.3600  134.7696  157.4527 LP  0  0  0  0  0  0  0  0  0  0  0  0  # atno 17394 bound_to 11000
  140.0792  134.5754  155.8558 LP  0  0  0  0  0  0  0  0  0  0  0  0  # atno 17395 bound_to 11000

$$$$
