AV-unprocessed.smi:290|AV-procd|sdf|2237|dock8
  -GOLD-   2262022103D 1   1.00000     0.00000
 Structure written by MMmdl.
 59 62  0  0  0  0  0  0  0  0  2 V2000
  147.4180  136.5465  163.1435 C   0  0  0  0  0  0  0  0  0  0  0  0
  146.7847  136.7479  161.7570 C   0  0  2  0  0  0  0  0  0  0  0  0
  145.4785  137.3100  161.8781 O   0  0  0  0  0  0  0  0  0  0  0  0
  144.5210  136.4523  161.2745 C   0  0  0  0  0  0  0  0  0  0  0  0
  145.3051  135.7190  160.1945 C   0  0  0  0  0  0  0  0  0  0  0  0
  146.6525  135.4897  160.8653 C   0  0  2  0  0  0  0  0  0  0  0  0
  146.5594  134.3163  161.6574 O   0  0  0  0  0  0  0  0  0  0  0  0
  147.8281  135.3219  159.8731 C   0  0  0  0  0  0  0  0  0  0  0  0
  148.0963  136.5169  159.0874 N   0  0  0  0  0  0  0  0  0  0  0  0
  147.2064  137.1903  158.2810 C   0  0  0  0  0  0  0  0  0  0  0  0
  147.6903  138.2377  157.6705 N   0  0  0  0  0  0  0  0  0  0  0  0
  149.0126  138.2950  158.0935 C   0  0  0  0  0  0  0  0  0  0  0  0
  150.1079  139.1640  157.8256 C   0  0  0  0  0  0  0  0  0  0  0  0
  150.0648  140.2335  157.0024 N   0  0  0  0  0  0  0  0  0  0  0  0
  150.0988  139.9385  155.5734 C   0  0  0  0  0  0  0  0  0  0  0  0
  149.1369  140.9260  154.9107 C   0  0  0  0  0  0  0  0  0  0  0  0
  148.1177  141.1991  156.0216 C   0  0  2  0  0  0  0  0  0  0  0  0
  147.2618  142.4083  155.8358 N   0  3  1  0  0  0  0  0  0  0  0  0
  146.4070  142.3250  154.6239 C   0  0  0  0  0  0  0  0  0  0  0  0
  146.4700  142.7315  157.0555 C   0  0  0  0  0  0  0  0  0  0  0  0
  145.8171  141.4966  157.7037 C   0  0  0  0  0  0  0  0  0  0  0  0
  145.6252  141.7093  159.0857 O   0  0  0  0  0  0  0  0  0  0  0  0
  149.0188  141.2148  157.2784 C   0  0  2  0  0  0  0  0  0  0  0  0
  149.6685  142.5787  157.5809 C   0  0  0  0  0  0  0  0  0  0  0  0
  151.2879  138.9102  158.4408 N   0  0  0  0  0  0  0  0  0  0  0  0
  151.3989  137.8656  159.2675 C   0  0  0  0  0  0  0  0  0  0  0  0
  150.4707  136.9687  159.6088 N   0  0  0  0  0  0  0  0  0  0  0  0
  149.2818  137.2243  158.9915 C   0  0  0  0  0  0  0  0  0  0  0  0
  147.4549  140.3343  156.0750 H   0  0  0  0  0  0  0  0  0  0  0  0
  148.4371  140.9134  158.1513 H   0  0  0  0  0  0  0  0  0  0  0  0
  148.4129  136.1082  163.0596 H   0  0  0  0  0  0  0  0  0  0  0  0
  146.8120  135.8936  163.7724 H   0  0  0  0  0  0  0  0  0  0  0  0
  147.5177  137.4989  163.6642 H   0  0  0  0  0  0  0  0  0  0  0  0
  147.3724  137.4969  161.2250 H   0  0  0  0  0  0  0  0  0  0  0  0
  144.1464  135.7520  162.0225 H   0  0  0  0  0  0  0  0  0  0  0  0
  143.6748  137.0124  160.8764 H   0  0  0  0  0  0  0  0  0  0  0  0
  144.8178  134.8027  159.8585 H   0  0  0  0  0  0  0  0  0  0  0  0
  145.4206  136.3737  159.3296 H   0  0  0  0  0  0  0  0  0  0  0  0
  146.8412  133.5791  161.1377 H   0  0  0  0  0  0  0  0  0  0  0  0
  148.7411  135.0662  160.4123 H   0  0  0  0  0  0  0  0  0  0  0  0
  147.6345  134.4923  159.1917 H   0  0  0  0  0  0  0  0  0  0  0  0
  146.1809  136.8744  158.1547 H   0  0  0  0  0  0  0  0  0  0  0  0
  151.1106  140.0485  155.1822 H   0  0  0  0  0  0  0  0  0  0  0  0
  149.7804  138.9139  155.3768 H   0  0  0  0  0  0  0  0  0  0  0  0
  149.6688  141.8403  154.6439 H   0  0  0  0  0  0  0  0  0  0  0  0
  148.6904  140.5144  154.0050 H   0  0  0  0  0  0  0  0  0  0  0  0
  145.7399  141.4638  154.6773 H   0  0  0  0  0  0  0  0  0  0  0  0
  147.0059  142.2377  153.7180 H   0  0  0  0  0  0  0  0  0  0  0  0
  145.7961  143.2166  154.4950 H   0  0  0  0  0  0  0  0  0  0  0  0
  147.1143  143.2352  157.7777 H   0  0  0  0  0  0  0  0  0  0  0  0
  145.6774  143.4408  156.8189 H   0  0  0  0  0  0  0  0  0  0  0  0
  144.8694  141.2299  157.2382 H   0  0  0  0  0  0  0  0  0  0  0  0
  146.4730  140.6339  157.5839 H   0  0  0  0  0  0  0  0  0  0  0  0
  144.6979  141.7875  159.2533 H   0  0  0  0  0  0  0  0  0  0  0  0
  148.9254  143.3292  157.8451 H   0  0  0  0  0  0  0  0  0  0  0  0
  150.2374  142.9558  156.7306 H   0  0  0  0  0  0  0  0  0  0  0  0
  150.3546  142.4993  158.4247 H   0  0  0  0  0  0  0  0  0  0  0  0
  152.3705  137.7269  159.7186 H   0  0  0  0  0  0  0  0  0  0  0  0
  147.8957  143.1820  155.6926 H   0  0  0  0  0  0  0  0  0  0  0  0
  1  2  1  0  0  0  0
  1 31  1  0  0  0  0
  1 32  1  0  0  0  0
  1 33  1  0  0  0  0
  2  6  1  0  0  0  0
  2  3  1  0  0  0  0
  2 34  1  0  0  0  0
  3  4  1  0  0  0  0
  4  5  1  0  0  0  0
  4 35  1  0  0  0  0
  4 36  1  0  0  0  0
  5  6  1  0  0  0  0
  5 37  1  0  0  0  0
  5 38  1  0  0  0  0
  6  7  1  0  0  0  0
  6  8  1  0  0  0  0
  7 39  1  0  0  0  0
  8  9  1  0  0  0  0
  8 40  1  0  0  0  0
  8 41  1  0  0  0  0
  9 28  1  0  0  0  0
  9 10  1  0  0  0  0
 10 11  2  0  0  0  0
 10 42  1  0  0  0  0
 11 12  1  0  0  0  0
 12 28  2  0  0  0  0
 12 13  1  0  0  0  0
 13 14  1  0  0  0  0
 13 25  2  0  0  0  0
 14 23  1  0  0  0  0
 14 15  1  0  0  0  0
 15 16  1  0  0  0  0
 15 43  1  0  0  0  0
 15 44  1  0  0  0  0
 16 17  1  0  0  0  0
 16 45  1  0  0  0  0
 16 46  1  0  0  0  0
 17 29  1  0  0  0  0
 17 18  1  0  0  0  0
 17 23  1  0  0  0  0
 18 19  1  0  0  0  0
 18 20  1  0  0  0  0
 18 59  1  0  0  0  0
 19 47  1  0  0  0  0
 19 48  1  0  0  0  0
 19 49  1  0  0  0  0
 20 21  1  0  0  0  0
 20 50  1  0  0  0  0
 20 51  1  0  0  0  0
 21 22  1  0  0  0  0
 21 52  1  0  0  0  0
 21 53  1  0  0  0  0
 22 54  1  0  0  0  0
 23 30  1  0  0  0  0
 23 24  1  0  0  0  0
 24 55  1  0  0  0  0
 24 56  1  0  0  0  0
 24 57  1  0  0  0  0
 25 26  1  0  0  0  0
 26 27  2  0  0  0  0
 26 58  1  0  0  0  0
 27 28  1  0  0  0  0
M  CHG  1  18   1
M  END
> <s_m_source_file>
AV-unprocessed.smi

> <i_m_source_file_index>
290

> <i_lp_mmshare_version>
43012

> <i_f3d_flags>
0

> <s_epik_input>
W0NIMl0xW0NIMl1PW0NAQEhdKFtDSDNdKVtDQEBdMShbT0hdKVtDSDJdbihbY0hdbjIpYyhjMjMpbltjSF1uYzNONFtDSDJdW0NIMl1bQ0BIXShbQ0BIXTRbQ0gzXSlOKFtDSDNdKVtDSDJdW0NIMl1bT0hd

> <s_epik_cmdline>
J2VwaWtfcHl0aG9uJywgJy1waCcsICc3LjAnLCAnLXRuJywgJzgnLCAnLW1hJywgJzIwMCcsICctbWV0YWxfYmluZGluZycsICctaW1hZScsICc8aW5maWxlLm1hZT4nLCAnLW9tYWUnLCAnPG91dGZpbGUubWFlPic=

> <r_lp_tautomer_probability>
1

> <r_epik_Ionization_Penalty>
0.0036983

> <r_epik_Ionization_Penalty_Charging>
0.0032725

> <r_epik_Ionization_Penalty_Neutral>
0.000425798

> <r_epik_State_Penalty>
-0

> <r_epik_Charging_Adjusted_Penalty>
0.0032725

> <i_epik_Tot_Q>
1

> <i_epik_Tot_abs_Q>
1

> <r_epik_Metal_State_Penalty>
-0

> <b_epik_Metal_Only>
0

> <s_lp_Force_Field>
OPLS_2005

> <r_lp_Energy>
65.7953

> <b_lp_Chiralities_Consistent>
1

> <s_lp_Variant>
AV-unprocessed.smi:290-23

> <Gold.Version>
5.8.1

> <Gold.Id.Protein>
6NUR|6NUR_protein|mol2

> <Gold.PLP.Fitness>
46.3724

> <Gold.PLP.PLP>
-35.8614

> <Gold.PLP.part.hbond>
-3.0000

> <Gold.PLP.part.metal>
0.0000

> <Gold.PLP.part.buried>
-6.2063

> <Gold.PLP.part.nonpolar>
-27.8720

> <Gold.PLP.part.repulsive>
0.0538

> <Gold.PLP.ligand.clash>
0.0000

> <Gold.PLP.ligand.torsion>
0.6773

> <Gold.PLP.Chemscore.Hbond>
3.8640

> <Gold.PLP.Chemscore.CHOScore>
0.0000

> <Gold.PLP.Chemscore.Metal>
0.0000

> <Gold.Chemscore.Hbonds>
donor molecule, donor type, donor heavy atom, donor atom, acceptor molecule, acceptor atom, score
      L1  H    18    59       P1  8028  2.00
      P1  H  6896  6909       L1    27  1.00
      P1  H  6934  6946       L1    22  0.49

> <Gold.PLP.Chemscore.Internal.Correction>
0.2736

> <Gold.Rescore>
     Score         DG    S(hbond)    S(metal)    S(lipo)     H(rot)  DE(clash)    DE(int)     intcor
     13.22     -13.65       2.74        0.00      71.73       3.67       0.03       0.40       ----

> <Gold.Chemscore.Fitness>
13.2224

> <Gold.Chemscore.DG>
-13.6489

> <Gold.Chemscore.ZeroCoef>
-5.4800

> <Gold.Chemscore.Hbond>
2.7427

> <Gold.Chemscore.Metal>
0.0000

> <Gold.Chemscore.Lipo>
71.7330

> <Gold.Chemscore.Internal_Hbond>
0.0000

> <Gold.Chemscore.DEClash>
0.0275

> <Gold.Chemscore.DEInternal>
0.3990

> <Gold.Chemscore.Rot>
3.6658

> <Gold.Chemscore.Internal.Correction>
   9.000000E+99

> <Gold.Chemscore.Hbonds>
donor molecule, donor type, donor heavy atom, donor atom, acceptor molecule, acceptor atom, score
      L1  H    18    59       P1  8028  0.50
      P1  H  6896  6909       L1    27  0.73
      P1  H  6934  6946       L1    22  0.44

> <Gold.Chemscore.Hbond.Weighted>
-9.1605

> <Gold.Chemscore.Metal.Weighted>
-0.0000

> <Gold.Chemscore.Lipo.Weighted>
-8.3928

> <Gold.Chemscore.Internal_Hbond.Weighted>
0.0000

> <Gold.Chemscore.DEClash.Weighted>
0.0275

> <Gold.Chemscore.DEInternal.Weighted>
0.3990

> <Gold.Chemscore.Rot.Weighted>
9.3844

> <Gold.Chemscore.Internal.Correction.Weighted>
   9.000000E+99

> <Gold.Protein.RotatedTorsions>
[ 6907 6896 6895 6894 ] final  104.50 input  -60.11 | X-H torsion
[ 7974 7965 7964 7962 ] final  -29.47 input  175.53 | X-H torsion
[ 8008 7997 7996 7995 ] final  -39.06 input   59.86 | X-H torsion
[ 10167 10162 10161 10158 ] final   83.55 input  -65.29 | X-H torsion
[ 10718 10713 10712 10709 ] final -101.96 input   66.30 | X-H torsion
[ 10763 10752 10751 10750 ] final   80.25 input  -60.55 | X-H torsion
[ 11005 11000 10999 10996 ] final  155.37 input  -57.11 | X-H torsion

> <Gold.Protein.ActiveResidues>
 VAL166  LYS551  ARG553  GLY616  TRP617  ASP618  TYR619  PRO620  LYS621  CYS622 
 ASP623  PHE694  ASN695  SER759  ASP760  ASP761  ALA762  ILE779  LEU786  VAL792 
 PHE793  MET794  SER795  GLU796  ALA797  LYS798  CYS799  TRP800  GLU811  SER814 

> <Gold.Protein.RotatedAtoms>
  152.5262  133.9668  159.7742 H   0  0  0  0  0  0  0  0  0  0  0  0  # atno 6907 bound_to 6896
  150.9948  133.6106  159.2710 H   0  0  0  0  0  0  0  0  0  0  0  0  # atno 6908 bound_to 6896
  151.3236  135.0831  159.9367 H   0  0  0  0  0  0  0  0  0  0  0  0  # atno 6909 bound_to 6896
  146.1214  140.5416  142.8734 H   0  0  0  0  0  0  0  0  0  0  0  0  # atno 7974 bound_to 7965
  154.4028  140.1561  156.2802 H   0  0  0  0  0  0  0  0  0  0  0  0  # atno 8008 bound_to 7997
  155.8876  140.3440  155.5911 H   0  0  0  0  0  0  0  0  0  0  0  0  # atno 8009 bound_to 7997
  155.7595  140.0815  157.2152 H   0  0  0  0  0  0  0  0  0  0  0  0  # atno 8010 bound_to 7997
  139.9173  144.6235  150.8476 H   0  0  0  0  0  0  0  0  0  0  0  0  # atno 10167 bound_to 10162
  156.0212  130.5397  150.7038 H   0  0  0  0  0  0  0  0  0  0  0  0  # atno 10718 bound_to 10713
  153.1018  135.4809  154.8880 H   0  0  0  0  0  0  0  0  0  0  0  0  # atno 10763 bound_to 10752
  154.7387  135.3077  154.8769 H   0  0  0  0  0  0  0  0  0  0  0  0  # atno 10764 bound_to 10752
  153.9383  135.6837  153.4798 H   0  0  0  0  0  0  0  0  0  0  0  0  # atno 10765 bound_to 10752
  140.1575  134.8632  157.2533 H   0  0  0  0  0  0  0  0  0  0  0  0  # atno 11005 bound_to 11000
  144.7601  140.5400  143.6742 LP  0  0  0  0  0  0  0  0  0  0  0  0  # atno 17320 bound_to 7965
  145.5458  139.1476  143.3421 LP  0  0  0  0  0  0  0  0  0  0  0  0  # atno 17321 bound_to 7965
  140.7671  143.3322  151.2385 LP  0  0  0  0  0  0  0  0  0  0  0  0  # atno 17342 bound_to 10162
  139.6892  143.9722  152.2850 LP  0  0  0  0  0  0  0  0  0  0  0  0  # atno 17343 bound_to 10162
  157.4692  131.0891  151.0661 LP  0  0  0  0  0  0  0  0  0  0  0  0  # atno 17370 bound_to 10713
  157.1126  130.6028  149.5485 LP  0  0  0  0  0  0  0  0  0  0  0  0  # atno 17371 bound_to 10713
  140.2530  134.3661  155.7435 LP  0  0  0  0  0  0  0  0  0  0  0  0  # atno 17394 bound_to 11000
  141.2206  133.7327  156.8964 LP  0  0  0  0  0  0  0  0  0  0  0  0  # atno 17395 bound_to 11000

$$$$
