AV-unprocessed.smi:332|AV-procd|sdf|2356|dock8
  -GOLD-   2262022263D 1   1.00000     0.00000
 Structure written by MMmdl.
 42 44  0  0  0  0  0  0  0  0  1 V2000
  146.4664  141.9873  157.6782 C   0  0  0  0  0  0  0  0  0  0  0  0
  147.4602  141.3390  156.6995 C   0  0  2  0  0  0  0  0  0  0  0  0
  148.7240  142.0670  156.7142 N   0  0  0  0  0  0  0  0  0  0  0  0
  149.9232  141.5666  157.0551 C   0  0  0  0  0  0  0  0  0  0  0  0
  150.0727  140.4268  157.4932 O   0  0  0  0  0  0  0  0  0  0  0  0
  151.1566  142.4648  156.8571 C   0  0  0  0  0  0  0  0  0  0  0  0
  151.6142  143.1547  158.0779 N   0  0  0  0  0  0  0  0  0  0  0  0
  151.4186  144.5488  158.1387 C   0  0  0  0  0  0  0  0  0  0  0  0
  151.8134  145.2755  159.1961 C   0  0  0  0  0  0  0  0  0  0  0  0
  152.4545  144.5913  160.2940 C   0  0  0  0  0  0  0  0  0  0  0  0
  152.6507  143.2587  160.2444 C   0  0  0  0  0  0  0  0  0  0  0  0
  152.2250  142.4609  159.0888 C   0  0  0  0  0  0  0  0  0  0  0  0
  152.4151  141.2460  159.0279 O   0  0  0  0  0  0  0  0  0  0  0  0
  146.9121  141.3036  155.2537 C   0  0  2  0  0  0  0  0  0  0  0  0
  146.1406  140.0168  154.8854 C   0  0  0  0  0  0  0  0  0  0  0  0
  146.7985  139.5871  153.5607 C   0  0  2  0  0  0  0  0  0  0  0  0
  148.1985  139.0166  153.8548 C   0  0  0  0  0  0  0  0  0  0  0  0
  149.0102  140.2762  154.2078 C   0  0  0  0  0  0  0  0  0  0  0  0
  147.9563  141.3979  154.1111 C   0  0  1  0  0  0  0  0  0  0  0  0
  147.1327  140.9281  152.9170 C   0  0  0  0  0  0  0  0  0  0  0  0
  145.5204  141.4459  157.6966 H   0  0  0  0  0  0  0  0  0  0  0  0
  146.2524  143.0203  157.4020 H   0  0  0  0  0  0  0  0  0  0  0  0
  146.8579  141.9891  158.6957 H   0  0  0  0  0  0  0  0  0  0  0  0
  147.6417  140.3154  157.0312 H   0  0  0  0  0  0  0  0  0  0  0  0
  148.6967  143.0166  156.3718 H   0  0  0  0  0  0  0  0  0  0  0  0
  151.9579  141.8493  156.4465 H   0  0  0  0  0  0  0  0  0  0  0  0
  150.9341  143.1945  156.0765 H   0  0  0  0  0  0  0  0  0  0  0  0
  150.9391  144.9844  157.2739 H   0  0  0  0  0  0  0  0  0  0  0  0
  151.6594  146.3442  159.2227 H   0  0  0  0  0  0  0  0  0  0  0  0
  152.7787  145.1505  161.1592 H   0  0  0  0  0  0  0  0  0  0  0  0
  153.1338  142.7639  161.0743 H   0  0  0  0  0  0  0  0  0  0  0  0
  146.2339  142.1511  155.1358 H   0  0  0  0  0  0  0  0  0  0  0  0
  146.2180  139.2383  155.6454 H   0  0  0  0  0  0  0  0  0  0  0  0
  145.0813  140.2350  154.7435 H   0  0  0  0  0  0  0  0  0  0  0  0
  146.1756  138.9267  152.9569 H   0  0  0  0  0  0  0  0  0  0  0  0
  148.1870  138.2887  154.6669 H   0  0  0  0  0  0  0  0  0  0  0  0
  148.6143  138.5272  152.9734 H   0  0  0  0  0  0  0  0  0  0  0  0
  149.4881  140.2131  155.1849 H   0  0  0  0  0  0  0  0  0  0  0  0
  149.8002  140.4350  153.4727 H   0  0  0  0  0  0  0  0  0  0  0  0
  148.3892  142.3918  153.9937 H   0  0  0  0  0  0  0  0  0  0  0  0
  147.7143  140.8354  151.9981 H   0  0  0  0  0  0  0  0  0  0  0  0
  146.2548  141.5470  152.7233 H   0  0  0  0  0  0  0  0  0  0  0  0
  1  2  1  0  0  0  0
  1 21  1  0  0  0  0
  1 22  1  0  0  0  0
  1 23  1  0  0  0  0
  2  3  1  0  0  0  0
  2 14  1  0  0  0  0
  2 24  1  0  0  0  0
  3  4  1  0  0  0  0
  3 25  1  0  0  0  0
  4  5  2  0  0  0  0
  4  6  1  0  0  0  0
  6  7  1  0  0  0  0
  6 26  1  0  0  0  0
  6 27  1  0  0  0  0
  7 12  1  0  0  0  0
  7  8  1  0  0  0  0
  8  9  2  0  0  0  0
  8 28  1  0  0  0  0
  9 10  1  0  0  0  0
  9 29  1  0  0  0  0
 10 11  2  0  0  0  0
 10 30  1  0  0  0  0
 11 12  1  0  0  0  0
 11 31  1  0  0  0  0
 12 13  2  0  0  0  0
 14 19  1  0  0  0  0
 14 15  1  0  0  0  0
 14 32  1  0  0  0  0
 15 16  1  0  0  0  0
 15 33  1  0  0  0  0
 15 34  1  0  0  0  0
 16 20  1  0  0  0  0
 16 17  1  0  0  0  0
 16 35  1  0  0  0  0
 17 18  1  0  0  0  0
 17 36  1  0  0  0  0
 17 37  1  0  0  0  0
 18 19  1  0  0  0  0
 18 38  1  0  0  0  0
 18 39  1  0  0  0  0
 19 20  1  0  0  0  0
 19 40  1  0  0  0  0
 20 41  1  0  0  0  0
 20 42  1  0  0  0  0
M  END
> <s_m_source_file>
AV-unprocessed.smi

> <i_m_source_file_index>
332

> <i_lp_mmshare_version>
43012

> <i_f3d_flags>
0

> <s_epik_input>
W0NIMl0xW0NIMl1bQ0BIXShbQ0gyXTIpW0NAQEhdKFtDSDJdW0NAQEhdMTIpW0NASF0oW0NIM10pW05IXUMoPU8pW0NIMl1uM1tjSF1bY0hdW2NIXVtjSF1jMz1P

> <s_epik_cmdline>
J2VwaWtfcHl0aG9uJywgJy1waCcsICc3LjAnLCAnLXRuJywgJzgnLCAnLW1hJywgJzIwMCcsICctbWV0YWxfYmluZGluZycsICctaW1hZScsICc8aW5maWxlLm1hZT4nLCAnLW9tYWUnLCAnPG91dGZpbGUubWFlPic=

> <r_lp_tautomer_probability>
1

> <r_epik_Ionization_Penalty>
4.05802e-07

> <r_epik_Ionization_Penalty_Charging>
3.84175e-07

> <r_epik_Ionization_Penalty_Neutral>
2.16269e-08

> <r_epik_State_Penalty>
-0

> <r_epik_Charging_Adjusted_Penalty>
3.84175e-07

> <i_epik_Tot_Q>
0

> <i_epik_Tot_abs_Q>
0

> <r_epik_Metal_State_Penalty>
-0

> <b_epik_Metal_Only>
0

> <s_lp_Force_Field>
OPLS_2005

> <r_lp_Energy>
59.3935

> <b_lp_Chiralities_Consistent>
1

> <s_lp_Variant>
AV-unprocessed.smi:332-5

> <Gold.Version>
5.8.1

> <Gold.Id.Protein>
6NUR|6NUR_protein|mol2

> <Gold.PLP.Fitness>
43.1372

> <Gold.PLP.PLP>
-39.6985

> <Gold.PLP.part.hbond>
-1.0000

> <Gold.PLP.part.metal>
0.0000

> <Gold.PLP.part.buried>
-4.3644

> <Gold.PLP.part.nonpolar>
-33.8985

> <Gold.PLP.part.repulsive>
0.0095

> <Gold.PLP.ligand.clash>
0.0000

> <Gold.PLP.ligand.torsion>
1.2752

> <Gold.PLP.Chemscore.Hbond>
1.0000

> <Gold.PLP.Chemscore.CHOScore>
0.9903

> <Gold.PLP.Chemscore.Metal>
0.0000

> <Gold.Chemscore.Hbonds>
donor molecule, donor type, donor heavy atom, donor atom, acceptor molecule, acceptor atom, score
      L1  H     3    25       P1  8028  1.00
      L1  C     8    28       P1  8028  0.88

> <Gold.PLP.Chemscore.Internal.Correction>
0.0182

> <Gold.Rescore>
     Score         DG    S(hbond)    S(metal)    S(lipo)     H(rot)  DE(clash)    DE(int)     intcor
     14.73     -16.29       0.94        0.00      99.25       1.54       0.19       1.37       ----

> <Gold.Chemscore.Fitness>
14.7289

> <Gold.Chemscore.DG>
-16.2873

> <Gold.Chemscore.ZeroCoef>
-5.4800

> <Gold.Chemscore.Hbond>
0.9393

> <Gold.Chemscore.Metal>
0.0000

> <Gold.Chemscore.Lipo>
99.2465

> <Gold.Chemscore.Internal_Hbond>
0.0000

> <Gold.Chemscore.DEClash>
0.1906

> <Gold.Chemscore.DEInternal>
1.3677

> <Gold.Chemscore.Rot>
1.5398

> <Gold.Chemscore.Internal.Correction>
   9.000000E+99

> <Gold.Chemscore.Hbonds>
donor molecule, donor type, donor heavy atom, donor atom, acceptor molecule, acceptor atom, score
      L1  H     3    25       P1  8028  0.96

> <Gold.Chemscore.Hbond.Weighted>
-3.1373

> <Gold.Chemscore.Metal.Weighted>
-0.0000

> <Gold.Chemscore.Lipo.Weighted>
-11.6118

> <Gold.Chemscore.Internal_Hbond.Weighted>
0.0000

> <Gold.Chemscore.DEClash.Weighted>
0.1906

> <Gold.Chemscore.DEInternal.Weighted>
1.3677

> <Gold.Chemscore.Rot.Weighted>
3.9419

> <Gold.Chemscore.Internal.Correction.Weighted>
   9.000000E+99

> <Gold.Protein.RotatedTorsions>
[ 6907 6896 6895 6894 ] final  178.46 input  -60.11 | X-H torsion
[ 7974 7965 7964 7962 ] final   73.67 input  175.53 | X-H torsion
[ 8008 7997 7996 7995 ] final -155.40 input   59.86 | X-H torsion
[ 10167 10162 10161 10158 ] final  -63.54 input  -65.29 | X-H torsion
[ 10718 10713 10712 10709 ] final  115.79 input   66.30 | X-H torsion
[ 10763 10752 10751 10750 ] final -125.93 input  -60.55 | X-H torsion
[ 11005 11000 10999 10996 ] final    2.99 input  -57.11 | X-H torsion

> <Gold.Protein.ActiveResidues>
 VAL166  LYS551  ARG553  GLY616  TRP617  ASP618  TYR619  PRO620  LYS621  CYS622 
 ASP623  PHE694  ASN695  SER759  ASP760  ASP761  ALA762  ILE779  LEU786  VAL792 
 PHE793  MET794  SER795  GLU796  ALA797  LYS798  CYS799  TRP800  GLU811  SER814 

> <Gold.Protein.RotatedAtoms>
  151.6875  133.3311  159.3234 H   0  0  0  0  0  0  0  0  0  0  0  0  # atno 6907 bound_to 6896
  150.7794  134.6727  159.6410 H   0  0  0  0  0  0  0  0  0  0  0  0  # atno 6908 bound_to 6896
  152.3847  134.6540  160.0182 H   0  0  0  0  0  0  0  0  0  0  0  0  # atno 6909 bound_to 6896
  145.7379  139.2709  143.1503 H   0  0  0  0  0  0  0  0  0  0  0  0  # atno 7974 bound_to 7965
  155.7012  140.0767  157.2409 H   0  0  0  0  0  0  0  0  0  0  0  0  # atno 8008 bound_to 7997
  154.4073  140.1647  156.2246 H   0  0  0  0  0  0  0  0  0  0  0  0  # atno 8009 bound_to 7997
  155.9366  140.3387  155.6296 H   0  0  0  0  0  0  0  0  0  0  0  0  # atno 8010 bound_to 7997
  140.5863  143.2334  151.6235 H   0  0  0  0  0  0  0  0  0  0  0  0  # atno 10167 bound_to 10162
  157.6200  131.1017  150.7380 H   0  0  0  0  0  0  0  0  0  0  0  0  # atno 10718 bound_to 10713
  154.8741  135.4013  154.3349 H   0  0  0  0  0  0  0  0  0  0  0  0  # atno 10763 bound_to 10752
  153.4157  135.7022  153.6334 H   0  0  0  0  0  0  0  0  0  0  0  0  # atno 10764 bound_to 10752
  153.5018  135.3726  155.2514 H   0  0  0  0  0  0  0  0  0  0  0  0  # atno 10765 bound_to 10752
  140.5981  133.9862  155.8119 H   0  0  0  0  0  0  0  0  0  0  0  0  # atno 11005 bound_to 11000
  146.0476  140.8102  142.9798 LP  0  0  0  0  0  0  0  0  0  0  0  0  # atno 17320 bound_to 7965
  144.6877  140.3004  143.7264 LP  0  0  0  0  0  0  0  0  0  0  0  0  # atno 17321 bound_to 7965
  139.5200  144.3236  152.0888 LP  0  0  0  0  0  0  0  0  0  0  0  0  # atno 17342 bound_to 10162
  140.2394  144.4285  150.6266 LP  0  0  0  0  0  0  0  0  0  0  0  0  # atno 17343 bound_to 10162
  156.7740  130.4838  149.5413 LP  0  0  0  0  0  0  0  0  0  0  0  0  # atno 17370 bound_to 10713
  156.1341  130.6199  151.0375 LP  0  0  0  0  0  0  0  0  0  0  0  0  # atno 17371 bound_to 10713
  141.0891  133.9945  157.3267 LP  0  0  0  0  0  0  0  0  0  0  0  0  # atno 17394 bound_to 11000
  139.9244  135.0201  156.8183 LP  0  0  0  0  0  0  0  0  0  0  0  0  # atno 17395 bound_to 11000

$$$$
