AV-unprocessed.smi:2178|AV-procd|sdf|8854|dock3
  -GOLD-   2272012 43D 1   1.00000     0.00000
 Structure written by MMmdl.
 47 49  0  0  0  0  0  0  0  0  2 V2000
  153.7459  139.8646  160.5891 C   0  0  0  0  0  0  0  0  0  0  0  0
  153.2123  141.2776  160.7377 C   0  0  0  0  0  0  0  0  0  0  0  0
  153.6924  142.0896  161.7859 C   0  0  0  0  0  0  0  0  0  0  0  0
  153.1973  143.3955  161.9562 C   0  0  0  0  0  0  0  0  0  0  0  0
  152.2147  143.8947  161.0814 C   0  0  0  0  0  0  0  0  0  0  0  0
  151.7293  143.0934  160.0275 C   0  0  0  0  0  0  0  0  0  0  0  0
  150.6645  143.6412  159.0959 C   0  0  0  0  0  0  0  0  0  0  0  0
  152.2385  141.7863  159.8446 C   0  0  0  0  0  0  0  0  0  0  0  0
  151.7629  141.0118  158.8177 O   0  0  0  0  0  0  0  0  0  0  0  0
  152.5950  141.0156  157.6670 C   0  0  0  0  0  0  0  0  0  0  0  0
  151.9754  140.0990  156.6013 C   0  0  2  0  0  0  0  0  0  0  0  0
  152.5183  140.4418  155.3414 O   0  0  0  0  0  0  0  0  0  0  0  0
  150.4407  140.2352  156.5468 C   0  0  0  0  0  0  0  0  0  0  0  0
  149.8567  139.6256  155.3407 N   0  0  0  0  0  0  0  0  0  0  0  0
  150.1706  138.4543  154.7154 C   0  0  0  0  0  0  0  0  0  0  0  0
  151.2189  137.4732  155.1249 C   0  0  0  0  0  0  0  0  0  0  0  0
  151.2557  136.3441  154.2805 O   0  0  0  0  0  0  0  0  0  0  0  0
  149.3394  138.3335  153.6424 N   0  3  0  0  0  0  0  0  0  0  0  0
  148.4890  139.4374  153.5768 C   0  0  0  0  0  0  0  0  0  0  0  0
  147.4851  139.7594  152.6687 C   0  0  0  0  0  0  0  0  0  0  0  0
  146.8003  140.9730  152.8864 C   0  0  0  0  0  0  0  0  0  0  0  0
  147.1218  141.8122  153.9729 C   0  0  0  0  0  0  0  0  0  0  0  0
  148.1404  141.4740  154.8879 C   0  0  0  0  0  0  0  0  0  0  0  0
  148.8141  140.2727  154.6657 C   0  0  0  0  0  0  0  0  0  0  0  0
  154.0841  139.4743  161.5494 H   0  0  0  0  0  0  0  0  0  0  0  0
  154.5899  139.8501  159.8999 H   0  0  0  0  0  0  0  0  0  0  0  0
  152.9773  139.1906  160.2095 H   0  0  0  0  0  0  0  0  0  0  0  0
  154.4405  141.7111  162.4672 H   0  0  0  0  0  0  0  0  0  0  0  0
  153.5666  144.0123  162.7620 H   0  0  0  0  0  0  0  0  0  0  0  0
  151.8344  144.8956  161.2244 H   0  0  0  0  0  0  0  0  0  0  0  0
  149.8652  142.9129  158.9562 H   0  0  0  0  0  0  0  0  0  0  0  0
  151.0956  143.8704  158.1215 H   0  0  0  0  0  0  0  0  0  0  0  0
  150.2204  144.5538  159.4946 H   0  0  0  0  0  0  0  0  0  0  0  0
  152.6446  142.0370  157.2864 H   0  0  0  0  0  0  0  0  0  0  0  0
  153.6178  140.7155  157.8997 H   0  0  0  0  0  0  0  0  0  0  0  0
  152.2310  139.0622  156.8229 H   0  0  0  0  0  0  0  0  0  0  0  0
  152.0837  141.2205  155.0293 H   0  0  0  0  0  0  0  0  0  0  0  0
  149.9935  139.7316  157.4047 H   0  0  0  0  0  0  0  0  0  0  0  0
  150.1297  141.2779  156.6163 H   0  0  0  0  0  0  0  0  0  0  0  0
  152.1954  137.9579  155.1128 H   0  0  0  0  0  0  0  0  0  0  0  0
  151.0354  137.1483  156.1490 H   0  0  0  0  0  0  0  0  0  0  0  0
  151.2769  136.6399  153.3830 H   0  0  0  0  0  0  0  0  0  0  0  0
  147.2377  139.1180  151.8355 H   0  0  0  0  0  0  0  0  0  0  0  0
  146.0136  141.2661  152.2063 H   0  0  0  0  0  0  0  0  0  0  0  0
  146.5763  142.7350  154.1071 H   0  0  0  0  0  0  0  0  0  0  0  0
  148.3788  142.1276  155.7134 H   0  0  0  0  0  0  0  0  0  0  0  0
  149.3544  137.5490  153.0036 H   0  0  0  0  0  0  0  0  0  0  0  0
  1  2  1  0  0  0  0
  1 25  1  0  0  0  0
  1 26  1  0  0  0  0
  1 27  1  0  0  0  0
  2  8  1  0  0  0  0
  2  3  2  0  0  0  0
  3  4  1  0  0  0  0
  3 28  1  0  0  0  0
  4  5  2  0  0  0  0
  4 29  1  0  0  0  0
  5  6  1  0  0  0  0
  5 30  1  0  0  0  0
  6  7  1  0  0  0  0
  6  8  2  0  0  0  0
  7 31  1  0  0  0  0
  7 32  1  0  0  0  0
  7 33  1  0  0  0  0
  8  9  1  0  0  0  0
  9 10  1  0  0  0  0
 10 11  1  0  0  0  0
 10 34  1  0  0  0  0
 10 35  1  0  0  0  0
 11 12  1  0  0  0  0
 11 13  1  0  0  0  0
 11 36  1  0  0  0  0
 12 37  1  0  0  0  0
 13 14  1  0  0  0  0
 13 38  1  0  0  0  0
 13 39  1  0  0  0  0
 14 24  1  0  0  0  0
 14 15  1  0  0  0  0
 15 16  1  0  0  0  0
 15 18  2  0  0  0  0
 16 17  1  0  0  0  0
 16 40  1  0  0  0  0
 16 41  1  0  0  0  0
 17 42  1  0  0  0  0
 18 19  1  0  0  0  0
 18 47  1  0  0  0  0
 19 24  2  0  0  0  0
 19 20  1  0  0  0  0
 20 21  2  0  0  0  0
 20 43  1  0  0  0  0
 21 22  1  0  0  0  0
 21 44  1  0  0  0  0
 22 23  2  0  0  0  0
 22 45  1  0  0  0  0
 23 24  1  0  0  0  0
 23 46  1  0  0  0  0
M  CHG  1  18   1
M  END
> <s_m_source_file>
AV-unprocessed.smi

> <i_m_source_file_index>
2178

> <i_lp_mmshare_version>
43012

> <i_f3d_flags>
0

> <s_epik_input>
W0NIM11jMVtjSF1bY0hdW2NIXWMoW0NIM10pYzFPW0NIMl1bQ0BIXShbT0hdKVtDSDJdbihjKG4yKVtDSDJdW09IXSljKGMyMylbY0hdW2NIXVtjSF1bY0hdMw==

> <s_epik_cmdline>
J2VwaWtfcHl0aG9uJywgJy1waCcsICc3LjAnLCAnLXRuJywgJzgnLCAnLW1hJywgJzIwMCcsICctbWV0YWxfYmluZGluZycsICctaW1hZScsICc8aW5maWxlLm1hZT4nLCAnLW9tYWUnLCAnPG91dGZpbGUubWFlPic=

> <r_lp_tautomer_probability>
1

> <r_epik_Ionization_Penalty>
1.43125

> <r_epik_Ionization_Penalty_Charging>
1.43039

> <r_epik_Ionization_Penalty_Neutral>
0.000858184

> <r_epik_State_Penalty>
1.51493

> <r_epik_Charging_Adjusted_Penalty>
2.94531

> <i_epik_Tot_Q>
1

> <i_epik_Tot_abs_Q>
1

> <r_epik_Metal_State_Penalty>
5.5599

> <b_epik_Metal_Only>
0

> <s_lp_Force_Field>
OPLS_2005

> <r_lp_Energy>
23.8242

> <b_lp_Chiralities_Consistent>
1

> <s_lp_Variant>
AV-unprocessed.smi:2178-3

> <Gold.Version>
5.8.1

> <Gold.Id.Protein>
6NUR|6NUR_protein|mol2

> <Gold.PLP.Fitness>
52.2805

> <Gold.PLP.PLP>
-39.3979

> <Gold.PLP.part.hbond>
-6.1377

> <Gold.PLP.part.metal>
0.0000

> <Gold.PLP.part.buried>
2.5806

> <Gold.PLP.part.nonpolar>
-35.4511

> <Gold.PLP.part.repulsive>
0.0428

> <Gold.PLP.ligand.clash>
0.0000

> <Gold.PLP.ligand.torsion>
0.8718

> <Gold.PLP.Chemscore.Hbond>
4.8260

> <Gold.PLP.Chemscore.CHOScore>
0.0000

> <Gold.PLP.Chemscore.Metal>
0.0000

> <Gold.Chemscore.Hbonds>
donor molecule, donor type, donor heavy atom, donor atom, acceptor molecule, acceptor atom, score
      L1  H    17    42       P1  7949  0.85
      L1  H    18    47       P1  7948  2.00
      P1  H  7997  8010       L1    12  0.80
      P1  H 10752 10763       L1    17  1.00

> <Gold.PLP.Chemscore.Internal.Correction>
0.1483

> <Gold.Rescore>
     Score         DG    S(hbond)    S(metal)    S(lipo)     H(rot)  DE(clash)    DE(int)     intcor
     16.67     -19.77       1.75        0.00     138.89       3.05       2.22       0.89       ----

> <Gold.Chemscore.Fitness>
16.6693

> <Gold.Chemscore.DG>
-19.7731

> <Gold.Chemscore.ZeroCoef>
-5.4800

> <Gold.Chemscore.Hbond>
1.7500

> <Gold.Chemscore.Metal>
0.0000

> <Gold.Chemscore.Lipo>
138.8882

> <Gold.Chemscore.Internal_Hbond>
0.0000

> <Gold.Chemscore.DEClash>
2.2170

> <Gold.Chemscore.DEInternal>
0.8869

> <Gold.Chemscore.Rot>
3.0476

> <Gold.Chemscore.Internal.Correction>
   9.000000E+99

> <Gold.Chemscore.Hbonds>
donor molecule, donor type, donor heavy atom, donor atom, acceptor molecule, acceptor atom, score
      L1  H    17    42       P1  7949  0.52
      L1  H    18    47       P1  7948  0.94
      P1  H  7997  8010       L1    12  0.11
      P1  H 10752 10763       L1    17  0.24

> <Gold.Chemscore.Hbond.Weighted>
-5.8450

> <Gold.Chemscore.Metal.Weighted>
-0.0000

> <Gold.Chemscore.Lipo.Weighted>
-16.2499

> <Gold.Chemscore.Internal_Hbond.Weighted>
0.0000

> <Gold.Chemscore.DEClash.Weighted>
2.2170

> <Gold.Chemscore.DEInternal.Weighted>
0.8869

> <Gold.Chemscore.Rot.Weighted>
7.8018

> <Gold.Chemscore.Internal.Correction.Weighted>
   9.000000E+99

> <Gold.Protein.RotatedTorsions>
[ 6907 6896 6895 6894 ] final -171.72 input  -60.11 | X-H torsion
[ 7974 7965 7964 7962 ] final  142.62 input  175.53 | X-H torsion
[ 8008 7997 7996 7995 ] final  104.56 input   59.86 | X-H torsion
[ 10167 10162 10161 10158 ] final  -46.73 input  -65.29 | X-H torsion
[ 10718 10713 10712 10709 ] final  -84.22 input   66.30 | X-H torsion
[ 10763 10752 10751 10750 ] final   61.74 input  -60.55 | X-H torsion
[ 11005 11000 10999 10996 ] final   38.70 input  -57.11 | X-H torsion

> <Gold.Protein.ActiveResidues>
 VAL166  LYS551  ARG553  GLY616  TRP617  ASP618  TYR619  PRO620  LYS621  CYS622 
 ASP623  PHE694  ASN695  SER759  ASP760  ASP761  ALA762  ILE779  LEU786  VAL792 
 PHE793  MET794  SER795  GLU796  ALA797  LYS798  CYS799  TRP800  GLU811  SER814 

> <Gold.Protein.RotatedAtoms>
  151.5284  133.3453  159.2913 H   0  0  0  0  0  0  0  0  0  0  0  0  # atno 6907 bound_to 6896
  150.8609  134.7962  159.7093 H   0  0  0  0  0  0  0  0  0  0  0  0  # atno 6908 bound_to 6896
  152.4628  134.5153  159.9818 H   0  0  0  0  0  0  0  0  0  0  0  0  # atno 6909 bound_to 6896
  144.8992  139.5447  143.5762 H   0  0  0  0  0  0  0  0  0  0  0  0  # atno 7974 bound_to 7965
  156.1583  140.3146  155.8764 H   0  0  0  0  0  0  0  0  0  0  0  0  # atno 8008 bound_to 7997
  155.3833  140.0489  157.3060 H   0  0  0  0  0  0  0  0  0  0  0  0  # atno 8009 bound_to 7997
  154.5122  140.2168  155.9145 H   0  0  0  0  0  0  0  0  0  0  0  0  # atno 8010 bound_to 7997
  140.6805  143.2817  151.3824 H   0  0  0  0  0  0  0  0  0  0  0  0  # atno 10167 bound_to 10162
  156.0009  130.4691  150.4376 H   0  0  0  0  0  0  0  0  0  0  0  0  # atno 10718 bound_to 10713
  152.9960  135.5490  154.6082 H   0  0  0  0  0  0  0  0  0  0  0  0  # atno 10763 bound_to 10752
  154.5409  135.2820  155.1099 H   0  0  0  0  0  0  0  0  0  0  0  0  # atno 10764 bound_to 10752
  154.2377  135.6422  153.5249 H   0  0  0  0  0  0  0  0  0  0  0  0  # atno 10765 bound_to 10752
  140.2100  134.3767  155.8054 H   0  0  0  0  0  0  0  0  0  0  0  0  # atno 11005 bound_to 11000
  146.3099  139.7708  142.9028 LP  0  0  0  0  0  0  0  0  0  0  0  0  # atno 17320 bound_to 7965
  145.3646  141.0332  143.3265 LP  0  0  0  0  0  0  0  0  0  0  0  0  # atno 17321 bound_to 7965
  139.6125  144.1070  152.2313 LP  0  0  0  0  0  0  0  0  0  0  0  0  # atno 17342 bound_to 10162
  140.0488  144.5949  150.7352 LP  0  0  0  0  0  0  0  0  0  0  0  0  # atno 17343 bound_to 10162
  157.2420  131.0527  151.2431 LP  0  0  0  0  0  0  0  0  0  0  0  0  # atno 17370 bound_to 10713
  157.3611  130.7132  149.6502 LP  0  0  0  0  0  0  0  0  0  0  0  0  # atno 17371 bound_to 10713
  141.2226  133.7138  156.8402 LP  0  0  0  0  0  0  0  0  0  0  0  0  # atno 17394 bound_to 11000
  140.1961  134.8930  157.3116 LP  0  0  0  0  0  0  0  0  0  0  0  0  # atno 17395 bound_to 11000

$$$$
