AV-unprocessed.smi:532|AV-procd|sdf|2851|dock4
  -GOLD-   2262023343D 1   1.00000     0.00000
 Structure written by MMmdl.
 48 50  0  0  0  0  0  0  0  0  2 V2000
  148.7833  140.2650  154.7015 C   0  0  0  0  0  0  0  0  0  0  0  0
  150.0592  140.1453  155.3030 O   0  0  0  0  0  0  0  0  0  0  0  0
  150.7541  138.9821  154.8868 C   0  0  0  0  0  0  0  0  0  0  0  0
  151.9198  138.6951  155.8460 C   0  0  0  0  0  0  0  0  0  0  0  0
  151.4745  138.1504  157.1267 N   0  0  0  0  0  0  0  0  0  0  0  0
  151.5276  138.7405  158.3483 C   0  0  0  0  0  0  0  0  0  0  0  0
  152.0529  140.0182  158.5096 N   0  0  0  0  0  0  0  0  0  0  0  0
  151.7377  141.1497  157.6434 C   0  0  0  0  0  0  0  0  0  0  0  0
  151.3838  142.4088  158.4578 C   0  0  2  0  0  0  0  0  0  0  0  0
  151.0116  143.5819  157.5420 C   0  0  0  0  0  0  0  0  0  0  0  0
  152.5488  142.7647  159.3975 C   0  0  0  0  0  0  0  0  0  0  0  0
  152.9397  141.5486  160.2562 C   0  0  2  0  0  0  0  0  0  0  0  0
  154.1473  141.8546  161.1520 C   0  0  0  0  0  0  0  0  0  0  0  0
  153.2029  140.3265  159.3539 C   0  0  0  0  0  0  0  0  0  0  0  0
  151.0319  138.0122  159.3493 N   0  0  0  0  0  0  0  0  0  0  0  0
  150.6277  136.8498  158.7076 C   0  0  0  0  0  0  0  0  0  0  0  0
  150.8766  136.9113  157.3713 C   0  0  0  0  0  0  0  0  0  0  0  0
  150.5412  135.8307  156.4193 C   0  0  0  0  0  0  0  0  0  0  0  0
  150.7840  135.9447  155.2194 O   0  0  0  0  0  0  0  0  0  0  0  0
  149.9543  134.7592  157.0408 N   0  5  0  0  0  0  0  0  0  0  0  0
  149.6840  134.6525  158.3886 C   0  0  0  0  0  0  0  0  0  0  0  0
  149.1470  133.6523  158.8665 O   0  0  0  0  0  0  0  0  0  0  0  0
  150.0145  135.6798  159.2333 N   0  0  0  0  0  0  0  0  0  0  0  0
  149.7403  135.5933  160.6704 C   0  0  0  0  0  0  0  0  0  0  0  0
  148.3006  141.1776  155.0510 H   0  0  0  0  0  0  0  0  0  0  0  0
  148.1432  139.4224  154.9659 H   0  0  0  0  0  0  0  0  0  0  0  0
  148.8621  140.3191  153.6150 H   0  0  0  0  0  0  0  0  0  0  0  0
  150.0758  138.1280  154.8733 H   0  0  0  0  0  0  0  0  0  0  0  0
  151.1217  139.1194  153.8694 H   0  0  0  0  0  0  0  0  0  0  0  0
  152.6181  138.0028  155.3780 H   0  0  0  0  0  0  0  0  0  0  0  0
  152.4928  139.6033  156.0310 H   0  0  0  0  0  0  0  0  0  0  0  0
  152.5908  141.3463  156.9927 H   0  0  0  0  0  0  0  0  0  0  0  0
  150.9089  140.8799  156.9885 H   0  0  0  0  0  0  0  0  0  0  0  0
  150.5116  142.1835  159.0729 H   0  0  0  0  0  0  0  0  0  0  0  0
  151.8413  143.8550  156.8893 H   0  0  0  0  0  0  0  0  0  0  0  0
  150.7398  144.4633  158.1236 H   0  0  0  0  0  0  0  0  0  0  0  0
  150.1600  143.3284  156.9103 H   0  0  0  0  0  0  0  0  0  0  0  0
  153.4081  143.0909  158.8096 H   0  0  0  0  0  0  0  0  0  0  0  0
  152.2717  143.6030  160.0378 H   0  0  0  0  0  0  0  0  0  0  0  0
  152.0988  141.3113  160.9096 H   0  0  0  0  0  0  0  0  0  0  0  0
  155.0298  142.0960  160.5589 H   0  0  0  0  0  0  0  0  0  0  0  0
  154.3935  141.0000  161.7827 H   0  0  0  0  0  0  0  0  0  0  0  0
  153.9440  142.7011  161.8083 H   0  0  0  0  0  0  0  0  0  0  0  0
  153.4341  139.4557  159.9688 H   0  0  0  0  0  0  0  0  0  0  0  0
  154.0734  140.5005  158.7201 H   0  0  0  0  0  0  0  0  0  0  0  0
  150.2215  134.7141  161.1017 H   0  0  0  0  0  0  0  0  0  0  0  0
  148.6668  135.5167  160.8483 H   0  0  0  0  0  0  0  0  0  0  0  0
  150.1019  136.4618  161.2204 H   0  0  0  0  0  0  0  0  0  0  0  0
  1  2  1  0  0  0  0
  1 25  1  0  0  0  0
  1 26  1  0  0  0  0
  1 27  1  0  0  0  0
  2  3  1  0  0  0  0
  3  4  1  0  0  0  0
  3 28  1  0  0  0  0
  3 29  1  0  0  0  0
  4  5  1  0  0  0  0
  4 30  1  0  0  0  0
  4 31  1  0  0  0  0
  5 17  1  0  0  0  0
  5  6  1  0  0  0  0
  6  7  1  0  0  0  0
  6 15  2  0  0  0  0
  7 14  1  0  0  0  0
  7  8  1  0  0  0  0
  8  9  1  0  0  0  0
  8 32  1  0  0  0  0
  8 33  1  0  0  0  0
  9 10  1  0  0  0  0
  9 11  1  0  0  0  0
  9 34  1  0  0  0  0
 10 35  1  0  0  0  0
 10 36  1  0  0  0  0
 10 37  1  0  0  0  0
 11 12  1  0  0  0  0
 11 38  1  0  0  0  0
 11 39  1  0  0  0  0
 12 13  1  0  0  0  0
 12 14  1  0  0  0  0
 12 40  1  0  0  0  0
 13 41  1  0  0  0  0
 13 42  1  0  0  0  0
 13 43  1  0  0  0  0
 14 44  1  0  0  0  0
 14 45  1  0  0  0  0
 15 16  1  0  0  0  0
 16 23  1  0  0  0  0
 16 17  2  0  0  0  0
 17 18  1  0  0  0  0
 18 19  2  0  0  0  0
 18 20  1  0  0  0  0
 20 21  1  0  0  0  0
 21 22  2  0  0  0  0
 21 23  1  0  0  0  0
 23 24  1  0  0  0  0
 24 46  1  0  0  0  0
 24 47  1  0  0  0  0
 24 48  1  0  0  0  0
M  CHG  1  20  -1
M  END
> <s_m_source_file>
AV-unprocessed.smi

> <i_m_source_file_index>
532

> <i_lp_mmshare_version>
43012

> <i_f3d_flags>
0

> <s_epik_input>
W0NIM11uMWMoPU8pW25IXWMoPU8pYyhjMTIpbihbQ0gyXVtDSDJdT1tDSDNdKWMobjIpTjNbQ0gyXVtDQEBIXShbQ0gzXSlbQ0gyXVtDQEBIXShbQ0gzXSlbQ0gyXTM=

> <s_epik_cmdline>
J2VwaWtfcHl0aG9uJywgJy1waCcsICc3LjAnLCAnLXRuJywgJzgnLCAnLW1hJywgJzIwMCcsICctbWV0YWxfYmluZGluZycsICctaW1hZScsICc8aW5maWxlLm1hZT4nLCAnLW9tYWUnLCAnPG91dGZpbGUubWFlPic=

> <r_lp_tautomer_probability>
1

> <r_epik_Ionization_Penalty>
5.12128

> <r_epik_Ionization_Penalty_Charging>
0.0789629

> <r_epik_Ionization_Penalty_Neutral>
5.04232

> <r_epik_State_Penalty>
5.03111

> <r_epik_Charging_Adjusted_Penalty>
5.11007

> <i_epik_Tot_Q>
-1

> <i_epik_Tot_abs_Q>
1

> <r_epik_Metal_State_Penalty>
1.14201

> <b_epik_Metal_Only>
1

> <s_lp_Force_Field>
OPLS_2005

> <r_lp_Energy>
42.9177

> <b_lp_Chiralities_Consistent>
1

> <s_lp_Variant>
AV-unprocessed.smi:532-4

> <Gold.Version>
5.8.1

> <Gold.Id.Protein>
6NUR|6NUR_protein|mol2

> <Gold.PLP.Fitness>
40.0423

> <Gold.PLP.PLP>
-41.3176

> <Gold.PLP.part.hbond>
-2.0000

> <Gold.PLP.part.metal>
0.0000

> <Gold.PLP.part.buried>
-3.3829

> <Gold.PLP.part.nonpolar>
-35.6799

> <Gold.PLP.part.repulsive>
0.2428

> <Gold.PLP.ligand.clash>
0.0000

> <Gold.PLP.ligand.torsion>
1.1196

> <Gold.PLP.Chemscore.Hbond>
0.0000

> <Gold.PLP.Chemscore.CHOScore>
0.0000

> <Gold.PLP.Chemscore.Metal>
0.0000

> <Gold.Chemscore.Hbonds>
donor molecule, donor type, donor heavy atom, donor atom, acceptor molecule, acceptor atom, score
      P1  H 10752 10764       L1    19  0.08

> <Gold.PLP.Chemscore.Internal.Correction>
0.9639

> <Gold.Rescore>
     Score         DG    S(hbond)    S(metal)    S(lipo)     H(rot)  DE(clash)    DE(int)     intcor
     10.60     -13.28       0.00        0.00      97.60       1.41       0.09       2.58       ----

> <Gold.Chemscore.Fitness>
10.6032

> <Gold.Chemscore.DG>
-13.2782

> <Gold.Chemscore.ZeroCoef>
-5.4800

> <Gold.Chemscore.Hbond>
0.0000

> <Gold.Chemscore.Metal>
0.0000

> <Gold.Chemscore.Lipo>
97.6050

> <Gold.Chemscore.Internal_Hbond>
0.0000

> <Gold.Chemscore.DEClash>
0.0943

> <Gold.Chemscore.DEInternal>
2.5808

> <Gold.Chemscore.Rot>
1.4147

> <Gold.Chemscore.Internal.Correction>
   9.000000E+99

> <Gold.Chemscore.Hbonds>
donor molecule, donor type, donor heavy atom, donor atom, acceptor molecule, acceptor atom, score
      P1  H 10752 10764       L1    19  0.05

> <Gold.Chemscore.Hbond.Weighted>
-0.0000

> <Gold.Chemscore.Metal.Weighted>
-0.0000

> <Gold.Chemscore.Lipo.Weighted>
-11.4198

> <Gold.Chemscore.Internal_Hbond.Weighted>
0.0000

> <Gold.Chemscore.DEClash.Weighted>
0.0943

> <Gold.Chemscore.DEInternal.Weighted>
2.5808

> <Gold.Chemscore.Rot.Weighted>
3.6216

> <Gold.Chemscore.Internal.Correction.Weighted>
   9.000000E+99

> <Gold.Protein.RotatedTorsions>
[ 6907 6896 6895 6894 ] final  -50.85 input  -60.11 | X-H torsion
[ 7974 7965 7964 7962 ] final   32.20 input  175.53 | X-H torsion
[ 8008 7997 7996 7995 ] final -141.00 input   59.86 | X-H torsion
[ 10167 10162 10161 10158 ] final   14.77 input  -65.29 | X-H torsion
[ 10718 10713 10712 10709 ] final -130.19 input   66.30 | X-H torsion
[ 10763 10752 10751 10750 ] final  -29.75 input  -60.55 | X-H torsion
[ 11005 11000 10999 10996 ] final  176.71 input  -57.11 | X-H torsion

> <Gold.Protein.ActiveResidues>
 VAL166  LYS551  ARG553  GLY616  TRP617  ASP618  TYR619  PRO620  LYS621  CYS622 
 ASP623  PHE694  ASN695  SER759  ASP760  ASP761  ALA762  ILE779  LEU786  VAL792 
 PHE793  MET794  SER795  GLU796  ALA797  LYS798  CYS799  TRP800  GLU811  SER814 

> <Gold.Protein.RotatedAtoms>
  150.8668  134.8033  159.7124 H   0  0  0  0  0  0  0  0  0  0  0  0  # atno 6907 bound_to 6896
  152.4686  134.5011  159.9735 H   0  0  0  0  0  0  0  0  0  0  0  0  # atno 6908 bound_to 6896
  151.5106  133.3447  159.2920 H   0  0  0  0  0  0  0  0  0  0  0  0  # atno 6909 bound_to 6896
  146.1501  139.6556  142.9104 H   0  0  0  0  0  0  0  0  0  0  0  0  # atno 7974 bound_to 7965
  155.4706  140.0552  157.2980 H   0  0  0  0  0  0  0  0  0  0  0  0  # atno 8008 bound_to 7997
  154.4700  140.2036  155.9974 H   0  0  0  0  0  0  0  0  0  0  0  0  # atno 8009 bound_to 7997
  156.1039  140.3215  155.7984 H   0  0  0  0  0  0  0  0  0  0  0  0  # atno 8010 bound_to 7997
  140.5913  143.8790  150.6876 H   0  0  0  0  0  0  0  0  0  0  0  0  # atno 10167 bound_to 10162
  156.2120  130.6924  151.0660 H   0  0  0  0  0  0  0  0  0  0  0  0  # atno 10718 bound_to 10713
  153.7697  135.6913  153.4909 H   0  0  0  0  0  0  0  0  0  0  0  0  # atno 10763 bound_to 10752
  153.1883  135.4480  155.0115 H   0  0  0  0  0  0  0  0  0  0  0  0  # atno 10764 bound_to 10752
  154.8122  135.3383  154.7207 H   0  0  0  0  0  0  0  0  0  0  0  0  # atno 10765 bound_to 10752
  140.3761  134.6988  157.4422 H   0  0  0  0  0  0  0  0  0  0  0  0  # atno 11005 bound_to 11000
  145.4843  141.0438  143.2628 LP  0  0  0  0  0  0  0  0  0  0  0  0  # atno 17320 bound_to 7965
  144.7894  139.6360  143.7120 LP  0  0  0  0  0  0  0  0  0  0  0  0  # atno 17321 bound_to 7965
  140.2313  143.3733  152.1563 LP  0  0  0  0  0  0  0  0  0  0  0  0  # atno 17342 bound_to 10162
  139.5229  144.7065  151.5338 LP  0  0  0  0  0  0  0  0  0  0  0  0  # atno 17343 bound_to 10162
  157.7043  131.0763  150.6717 LP  0  0  0  0  0  0  0  0  0  0  0  0  # atno 17370 bound_to 10713
  156.6777  130.4558  149.5637 LP  0  0  0  0  0  0  0  0  0  0  0  0  # atno 17371 bound_to 10713
  140.0514  134.6125  155.8857 LP  0  0  0  0  0  0  0  0  0  0  0  0  # atno 17394 bound_to 11000
  141.1939  133.6580  156.5569 LP  0  0  0  0  0  0  0  0  0  0  0  0  # atno 17395 bound_to 11000

$$$$
