AV-unprocessed.smi:295|AV-procd|sdf|2256|dock4
  -GOLD-   2262022143D 1   1.00000     0.00000
 Structure written by MMmdl.
 35 36  0  0  0  0  0  0  0  0  1 V2000
  153.4694  140.3452  160.6362 C   0  0  0  0  0  0  0  0  0  0  0  0
  153.4925  141.8832  160.6938 C   0  0  2  0  0  0  0  0  0  0  0  0
  152.5802  142.4136  161.8197 C   0  0  0  0  0  0  0  0  0  0  0  0
  152.6380  143.9459  161.9204 C   0  0  0  0  0  0  0  0  0  0  0  0
  152.2856  144.6079  160.5802 C   0  0  0  0  0  0  0  0  0  0  0  0
  153.1891  144.0883  159.4479 C   0  0  0  0  0  0  0  0  0  0  0  0
  153.1586  142.5509  159.3341 C   0  0  2  0  0  0  0  0  0  0  0  0
  151.8540  142.1147  158.8387 N   0  0  0  0  0  0  0  0  0  0  0  0
  151.2192  142.5718  157.7480 C   0  0  0  0  0  0  0  0  0  0  0  0
  151.6196  143.5126  157.0636 O   0  0  0  0  0  0  0  0  0  0  0  0
  149.9492  141.8198  157.3504 C   0  0  0  0  0  0  0  0  0  0  0  0
  150.2122  140.9422  156.2235 N   0  0  0  0  0  0  0  0  0  0  0  0
  150.0503  141.1428  154.9115 C   0  0  0  0  0  0  0  0  0  0  0  0
  150.4464  140.1250  154.1572 N   0  0  0  0  0  0  0  0  0  0  0  0
  150.8671  139.2811  155.1440 C   0  0  0  0  0  0  0  0  0  0  0  0
  151.4329  137.9782  154.8392 C   0  0  0  0  0  0  0  0  0  0  0  0
  151.8839  136.9405  154.5971 N   0  0  0  0  0  0  0  0  0  0  0  0
  150.7481  139.7088  156.3989 N   0  0  0  0  0  0  0  0  0  0  0  0
  152.4626  139.9608  160.4702 H   0  0  0  0  0  0  0  0  0  0  0  0
  153.8322  139.9157  161.5702 H   0  0  0  0  0  0  0  0  0  0  0  0
  154.1056  139.9725  159.8332 H   0  0  0  0  0  0  0  0  0  0  0  0
  154.5146  142.1709  160.9448 H   0  0  0  0  0  0  0  0  0  0  0  0
  151.5505  142.0974  161.6465 H   0  0  0  0  0  0  0  0  0  0  0  0
  152.8764  141.9768  162.7739 H   0  0  0  0  0  0  0  0  0  0  0  0
  151.9557  144.2927  162.6968 H   0  0  0  0  0  0  0  0  0  0  0  0
  153.6382  144.2535  162.2279 H   0  0  0  0  0  0  0  0  0  0  0  0
  151.2397  144.4133  160.3399 H   0  0  0  0  0  0  0  0  0  0  0  0
  152.3840  145.6905  160.6646 H   0  0  0  0  0  0  0  0  0  0  0  0
  152.8981  144.5424  158.4997 H   0  0  0  0  0  0  0  0  0  0  0  0
  154.2138  144.4112  159.6352 H   0  0  0  0  0  0  0  0  0  0  0  0
  153.9299  142.2639  158.6173 H   0  0  0  0  0  0  0  0  0  0  0  0
  151.4302  141.3397  159.3287 H   0  0  0  0  0  0  0  0  0  0  0  0
  149.5801  141.2338  158.1933 H   0  0  0  0  0  0  0  0  0  0  0  0
  149.1637  142.5243  157.0735 H   0  0  0  0  0  0  0  0  0  0  0  0
  149.6487  142.0577  154.5007 H   0  0  0  0  0  0  0  0  0  0  0  0
  1  2  1  0  0  0  0
  1 19  1  0  0  0  0
  1 20  1  0  0  0  0
  1 21  1  0  0  0  0
  2  7  1  0  0  0  0
  2  3  1  0  0  0  0
  2 22  1  0  0  0  0
  3  4  1  0  0  0  0
  3 23  1  0  0  0  0
  3 24  1  0  0  0  0
  4  5  1  0  0  0  0
  4 25  1  0  0  0  0
  4 26  1  0  0  0  0
  5  6  1  0  0  0  0
  5 27  1  0  0  0  0
  5 28  1  0  0  0  0
  6  7  1  0  0  0  0
  6 29  1  0  0  0  0
  6 30  1  0  0  0  0
  7  8  1  0  0  0  0
  7 31  1  0  0  0  0
  8  9  1  0  0  0  0
  8 32  1  0  0  0  0
  9 10  2  0  0  0  0
  9 11  1  0  0  0  0
 11 12  1  0  0  0  0
 11 33  1  0  0  0  0
 11 34  1  0  0  0  0
 12 18  1  0  0  0  0
 12 13  1  0  0  0  0
 13 14  2  0  0  0  0
 13 35  1  0  0  0  0
 14 15  1  0  0  0  0
 15 16  1  0  0  0  0
 15 18  2  0  0  0  0
 16 17  3  0  0  0  0
M  END
> <s_m_source_file>
AV-unprocessed.smi

> <i_m_source_file_index>
295

> <i_lp_mmshare_version>
43012

> <i_f3d_flags>
0

> <s_epik_input>
W0NIM11bQ0BASF0xW0NIMl1bQ0gyXVtDSDJdW0NIMl1bQ0BIXTFbTkhdQyg9TylbQ0gyXW4yW2NIXW5jKG4yKUMjTg==

> <s_epik_cmdline>
J2VwaWtfcHl0aG9uJywgJy1waCcsICc3LjAnLCAnLXRuJywgJzgnLCAnLW1hJywgJzIwMCcsICctbWV0YWxfYmluZGluZycsICctaW1hZScsICc8aW5maWxlLm1hZT4nLCAnLW9tYWUnLCAnPG91dGZpbGUubWFlPic=

> <r_lp_tautomer_probability>
1

> <r_epik_Ionization_Penalty>
5.31112e-08

> <r_epik_Ionization_Penalty_Charging>
0

> <r_epik_Ionization_Penalty_Neutral>
5.31112e-08

> <r_epik_State_Penalty>
-0

> <r_epik_Charging_Adjusted_Penalty>
0

> <i_epik_Tot_Q>
0

> <i_epik_Tot_abs_Q>
0

> <r_epik_Metal_State_Penalty>
-0

> <b_epik_Metal_Only>
0

> <s_lp_Force_Field>
OPLS_2005

> <r_lp_Energy>
12.1326

> <b_lp_Chiralities_Consistent>
1

> <s_lp_Variant>
AV-unprocessed.smi:295-3

> <Gold.Version>
5.8.1

> <Gold.Id.Protein>
6NUR|6NUR_protein|mol2

> <Gold.PLP.Fitness>
46.8517

> <Gold.PLP.PLP>
-42.5998

> <Gold.PLP.part.hbond>
-2.0000

> <Gold.PLP.part.metal>
0.0000

> <Gold.PLP.part.buried>
-6.5054

> <Gold.PLP.part.nonpolar>
-35.5670

> <Gold.PLP.part.repulsive>
2.3356

> <Gold.PLP.ligand.clash>
0.0000

> <Gold.PLP.ligand.torsion>
0.6048

> <Gold.PLP.Chemscore.Hbond>
1.8160

> <Gold.PLP.Chemscore.CHOScore>
0.0000

> <Gold.PLP.Chemscore.Metal>
0.0000

> <Gold.Chemscore.Hbonds>
donor molecule, donor type, donor heavy atom, donor atom, acceptor molecule, acceptor atom, score
      P1  H  7989  7998       L1    14  0.80
      P1  H 10752 10765       L1    17  0.77

> <Gold.PLP.Chemscore.Internal.Correction>
0.0134

> <Gold.Rescore>
     Score         DG    S(hbond)    S(metal)    S(lipo)     H(rot)  DE(clash)    DE(int)     intcor
     12.49     -14.31       1.24        0.00      82.75       1.95       0.03       1.79       ----

> <Gold.Chemscore.Fitness>
12.4864

> <Gold.Chemscore.DG>
-14.3101

> <Gold.Chemscore.ZeroCoef>
-5.4800

> <Gold.Chemscore.Hbond>
1.2377

> <Gold.Chemscore.Metal>
0.0000

> <Gold.Chemscore.Lipo>
82.7463

> <Gold.Chemscore.Internal_Hbond>
0.0000

> <Gold.Chemscore.DEClash>
0.0327

> <Gold.Chemscore.DEInternal>
1.7909

> <Gold.Chemscore.Rot>
1.9474

> <Gold.Chemscore.Internal.Correction>
   9.000000E+99

> <Gold.Chemscore.Hbonds>
donor molecule, donor type, donor heavy atom, donor atom, acceptor molecule, acceptor atom, score
      P1  H  7989  7998       L1    14  0.09
      P1  H 10752 10765       L1    17  0.78

> <Gold.Chemscore.Hbond.Weighted>
-4.1340

> <Gold.Chemscore.Metal.Weighted>
-0.0000

> <Gold.Chemscore.Lipo.Weighted>
-9.6813

> <Gold.Chemscore.Internal_Hbond.Weighted>
0.0000

> <Gold.Chemscore.DEClash.Weighted>
0.0327

> <Gold.Chemscore.DEInternal.Weighted>
1.7909

> <Gold.Chemscore.Rot.Weighted>
4.9852

> <Gold.Chemscore.Internal.Correction.Weighted>
   9.000000E+99

> <Gold.Protein.RotatedTorsions>
[ 6907 6896 6895 6894 ] final   26.18 input  -60.11 | X-H torsion
[ 7974 7965 7964 7962 ] final  149.12 input  175.53 | X-H torsion
[ 8008 7997 7996 7995 ] final -133.58 input   59.86 | X-H torsion
[ 10167 10162 10161 10158 ] final  -74.07 input  -65.29 | X-H torsion
[ 10718 10713 10712 10709 ] final -145.00 input   66.30 | X-H torsion
[ 10763 10752 10751 10750 ] final  143.23 input  -60.55 | X-H torsion
[ 11005 11000 10999 10996 ] final    0.15 input  -57.11 | X-H torsion

> <Gold.Protein.ActiveResidues>
 VAL166  LYS551  ARG553  GLY616  TRP617  ASP618  TYR619  PRO620  LYS621  CYS622 
 ASP623  PHE694  ASN695  SER759  ASP760  ASP761  ALA762  ILE779  LEU786  VAL792 
 PHE793  MET794  SER795  GLU796  ALA797  LYS798  CYS799  TRP800  GLU811  SER814 

> <Gold.Protein.RotatedAtoms>
  151.9836  135.0016  160.0558 H   0  0  0  0  0  0  0  0  0  0  0  0  # atno 6907 bound_to 6896
  152.1673  133.4616  159.4899 H   0  0  0  0  0  0  0  0  0  0  0  0  # atno 6908 bound_to 6896
  150.6896  134.1914  159.4330 H   0  0  0  0  0  0  0  0  0  0  0  0  # atno 6909 bound_to 6896
  144.8462  139.6239  143.5994 H   0  0  0  0  0  0  0  0  0  0  0  0  # atno 7974 bound_to 7965
  155.3479  140.0475  157.3046 H   0  0  0  0  0  0  0  0  0  0  0  0  # atno 8008 bound_to 7997
  154.5242  140.2235  155.8884 H   0  0  0  0  0  0  0  0  0  0  0  0  # atno 8009 bound_to 7997
  156.1722  140.3093  155.9000 H   0  0  0  0  0  0  0  0  0  0  0  0  # atno 8010 bound_to 7997
  140.5058  143.2353  151.7676 H   0  0  0  0  0  0  0  0  0  0  0  0  # atno 10167 bound_to 10162
  156.3771  130.7818  151.2005 H   0  0  0  0  0  0  0  0  0  0  0  0  # atno 10718 bound_to 10713
  153.9690  135.2952  155.3428 H   0  0  0  0  0  0  0  0  0  0  0  0  # atno 10763 bound_to 10752
  154.7333  135.5058  153.9002 H   0  0  0  0  0  0  0  0  0  0  0  0  # atno 10764 bound_to 10752
  153.0909  135.6707  153.9967 H   0  0  0  0  0  0  0  0  0  0  0  0  # atno 10765 bound_to 10752
  140.6297  133.9586  155.8268 H   0  0  0  0  0  0  0  0  0  0  0  0  # atno 11005 bound_to 11000
  146.2746  139.6721  142.9272 LP  0  0  0  0  0  0  0  0  0  0  0  0  # atno 17320 bound_to 7965
  145.4592  141.0432  143.2761 LP  0  0  0  0  0  0  0  0  0  0  0  0  # atno 17321 bound_to 7965
  139.4883  144.4459  151.9710 LP  0  0  0  0  0  0  0  0  0  0  0  0  # atno 17342 bound_to 10162
  140.3550  144.3043  150.5943 LP  0  0  0  0  0  0  0  0  0  0  0  0  # atno 17343 bound_to 10162
  157.7489  131.0355  150.4367 LP  0  0  0  0  0  0  0  0  0  0  0  0  # atno 17370 bound_to 10713
  156.4604  130.4030  149.6580 LP  0  0  0  0  0  0  0  0  0  0  0  0  # atno 17371 bound_to 10713
  141.0684  134.0243  157.3561 LP  0  0  0  0  0  0  0  0  0  0  0  0  # atno 17394 bound_to 11000
  139.9121  135.0191  156.7733 LP  0  0  0  0  0  0  0  0  0  0  0  0  # atno 17395 bound_to 11000

$$$$
