AV-unprocessed.smi:464|AV-procd|sdf|2637|dock5
  -GOLD-   2262023 43D 1   1.00000     0.00000
 Structure written by MMmdl.
 24 25  0  0  0  0  0  0  0  0  2 V2000
  152.8696  136.7009  159.3683 O   0  0  0  0  0  0  0  0  0  0  0  0
  152.8877  137.9272  159.4463 C   0  0  0  0  0  0  0  0  0  0  0  0
  152.1348  138.7475  158.6560 N   0  5  0  0  0  0  0  0  0  0  0  0
  152.2701  140.0737  158.8641 C   0  0  0  0  0  0  0  0  0  0  0  0
  153.0853  140.6952  159.7888 C   0  0  0  0  0  0  0  0  0  0  0  0
  153.1763  142.0692  159.9469 N   0  0  0  0  0  0  0  0  0  0  0  0
  153.4028  142.7088  161.2350 C   0  0  0  0  0  0  0  0  0  0  0  0
  152.1932  143.5833  161.6110 C   0  0  0  0  0  0  0  0  0  0  0  0
  151.9394  144.5225  160.5694 O   0  0  0  0  0  0  0  0  0  0  0  0
  151.6395  143.8823  159.3316 C   0  0  0  0  0  0  0  0  0  0  0  0
  152.8344  143.0157  158.8950 C   0  0  0  0  0  0  0  0  0  0  0  0
  153.8891  139.8068  160.6357 C   0  0  0  0  0  0  0  0  0  0  0  0
  154.6663  140.1867  161.5109 O   0  0  0  0  0  0  0  0  0  0  0  0
  153.7118  138.4817  160.3801 N   0  0  0  0  0  0  0  0  0  0  0  0
  154.2491  137.8387  160.9427 H   0  0  0  0  0  0  0  0  0  0  0  0
  151.6527  140.7256  158.2090 H   0  0  0  0  0  0  0  0  0  0  0  0
  153.5775  141.9568  162.0057 H   0  0  0  0  0  0  0  0  0  0  0  0
  154.3062  143.3167  161.1755 H   0  0  0  0  0  0  0  0  0  0  0  0
  151.3076  142.9700  161.7842 H   0  0  0  0  0  0  0  0  0  0  0  0
  152.3921  144.1231  162.5366 H   0  0  0  0  0  0  0  0  0  0  0  0
  150.7362  143.2789  159.4331 H   0  0  0  0  0  0  0  0  0  0  0  0
  151.4312  144.6428  158.5790 H   0  0  0  0  0  0  0  0  0  0  0  0
  153.7014  143.6434  158.6864 H   0  0  0  0  0  0  0  0  0  0  0  0
  152.5976  142.4860  157.9712 H   0  0  0  0  0  0  0  0  0  0  0  0
  1  2  2  0  0  0  0
  2 14  1  0  0  0  0
  2  3  1  0  0  0  0
  3  4  1  0  0  0  0
  4  5  2  0  0  0  0
  4 16  1  0  0  0  0
  5  6  1  0  0  0  0
  5 12  1  0  0  0  0
  6 11  1  0  0  0  0
  6  7  1  0  0  0  0
  7  8  1  0  0  0  0
  7 17  1  0  0  0  0
  7 18  1  0  0  0  0
  8  9  1  0  0  0  0
  8 19  1  0  0  0  0
  8 20  1  0  0  0  0
  9 10  1  0  0  0  0
 10 11  1  0  0  0  0
 10 21  1  0  0  0  0
 10 22  1  0  0  0  0
 11 23  1  0  0  0  0
 11 24  1  0  0  0  0
 12 13  2  0  0  0  0
 12 14  1  0  0  0  0
 14 15  1  0  0  0  0
M  CHG  1   3  -1
M  END
> <s_m_source_file>
AV-unprocessed.smi

> <i_m_source_file_index>
464

> <i_lp_mmshare_version>
43012

> <i_f3d_flags>
0

> <s_epik_input>
Tz1jMVtuSF1bY0hdYyhjKD1PKVtuSF0xKU4yW0NIMl1bQ0gyXU9bQ0gyXVtDSDJdMg==

> <s_epik_cmdline>
J2VwaWtfcHl0aG9uJywgJy1waCcsICc3LjAnLCAnLXRuJywgJzgnLCAnLW1hJywgJzIwMCcsICctbWV0YWxfYmluZGluZycsICctaW1hZScsICc8aW5maWxlLm1hZT4nLCAnLW9tYWUnLCAnPG91dGZpbGUubWFlPic=

> <r_lp_tautomer_probability>
0.999801

> <r_epik_Ionization_Penalty>
2.66523

> <r_epik_Ionization_Penalty_Charging>
1.22855e-06

> <r_epik_Ionization_Penalty_Neutral>
2.66523

> <r_epik_State_Penalty>
2.66349

> <r_epik_Charging_Adjusted_Penalty>
2.66349

> <i_epik_Tot_Q>
-1

> <i_epik_Tot_abs_Q>
1

> <r_epik_Metal_State_Penalty>
0.434838

> <b_epik_Metal_Only>
1

> <s_lp_Force_Field>
OPLS_2005

> <r_lp_Energy>
24.7156

> <b_lp_Chiralities_Consistent>
1

> <s_lp_Variant>
AV-unprocessed.smi:464-2

> <Gold.Version>
5.8.1

> <Gold.Id.Protein>
6NUR|6NUR_protein|mol2

> <Gold.PLP.Fitness>
31.5630

> <Gold.PLP.PLP>
-28.9228

> <Gold.PLP.part.hbond>
-1.0000

> <Gold.PLP.part.metal>
0.0000

> <Gold.PLP.part.buried>
-5.1876

> <Gold.PLP.part.nonpolar>
-21.9534

> <Gold.PLP.part.repulsive>
0.1561

> <Gold.PLP.ligand.clash>
0.0000

> <Gold.PLP.ligand.torsion>
0.3489

> <Gold.PLP.Chemscore.Hbond>
1.0000

> <Gold.PLP.Chemscore.CHOScore>
0.0000

> <Gold.PLP.Chemscore.Metal>
0.0000

> <Gold.Chemscore.Hbonds>
donor molecule, donor type, donor heavy atom, donor atom, acceptor molecule, acceptor atom, score
      P1  H  6896  6908       L1     1  1.00

> <Gold.PLP.Chemscore.Internal.Correction>
0.3380

> <Gold.Rescore>
     Score         DG    S(hbond)    S(metal)    S(lipo)     H(rot)  DE(clash)    DE(int)     intcor
     14.19     -15.91       1.00        0.00      60.61       0.00       0.00       1.72       ----

> <Gold.Chemscore.Fitness>
14.1930

> <Gold.Chemscore.DG>
-15.9103

> <Gold.Chemscore.ZeroCoef>
-5.4800

> <Gold.Chemscore.Hbond>
0.9995

> <Gold.Chemscore.Metal>
0.0000

> <Gold.Chemscore.Lipo>
60.6147

> <Gold.Chemscore.Internal_Hbond>
0.0000

> <Gold.Chemscore.DEClash>
0.0021

> <Gold.Chemscore.DEInternal>
1.7151

> <Gold.Chemscore.Rot>
0.0000

> <Gold.Chemscore.Internal.Correction>
   9.000000E+99

> <Gold.Chemscore.Hbonds>
donor molecule, donor type, donor heavy atom, donor atom, acceptor molecule, acceptor atom, score
      P1  H  6896  6908       L1     1  0.96

> <Gold.Chemscore.Hbond.Weighted>
-3.3384

> <Gold.Chemscore.Metal.Weighted>
-0.0000

> <Gold.Chemscore.Lipo.Weighted>
-7.0919

> <Gold.Chemscore.Internal_Hbond.Weighted>
0.0000

> <Gold.Chemscore.DEClash.Weighted>
0.0021

> <Gold.Chemscore.DEInternal.Weighted>
1.7151

> <Gold.Chemscore.Rot.Weighted>
0.0000

> <Gold.Chemscore.Internal.Correction.Weighted>
   9.000000E+99

> <Gold.Protein.RotatedTorsions>
[ 6907 6896 6895 6894 ] final  -94.99 input  -60.11 | X-H torsion
[ 7974 7965 7964 7962 ] final  -90.59 input  175.53 | X-H torsion
[ 8008 7997 7996 7995 ] final -152.36 input   59.86 | X-H torsion
[ 10167 10162 10161 10158 ] final  -96.53 input  -65.29 | X-H torsion
[ 10718 10713 10712 10709 ] final  -46.38 input   66.30 | X-H torsion
[ 10763 10752 10751 10750 ] final  -42.47 input  -60.55 | X-H torsion
[ 11005 11000 10999 10996 ] final  168.80 input  -57.11 | X-H torsion

> <Gold.Protein.ActiveResidues>
 VAL166  LYS551  ARG553  GLY616  TRP617  ASP618  TYR619  PRO620  LYS621  CYS622 
 ASP623  PHE694  ASN695  SER759  ASP760  ASP761  ALA762  ILE779  LEU786  VAL792 
 PHE793  MET794  SER795  GLU796  ALA797  LYS798  CYS799  TRP800  GLU811  SER814 

> <Gold.Protein.RotatedAtoms>
  150.6954  134.1726  159.4217 H   0  0  0  0  0  0  0  0  0  0  0  0  # atno 6907 bound_to 6896
  151.9703  135.0077  160.0561 H   0  0  0  0  0  0  0  0  0  0  0  0  # atno 6908 bound_to 6896
  152.1847  133.4696  159.5013 H   0  0  0  0  0  0  0  0  0  0  0  0  # atno 6909 bound_to 6896
  145.4245  140.9553  143.2162 H   0  0  0  0  0  0  0  0  0  0  0  0  # atno 7974 bound_to 7965
  155.6540  140.0715  157.2577 H   0  0  0  0  0  0  0  0  0  0  0  0  # atno 8008 bound_to 7997
  154.4156  140.1728  156.1755 H   0  0  0  0  0  0  0  0  0  0  0  0  # atno 8009 bound_to 7997
  155.9753  140.3358  155.6616 H   0  0  0  0  0  0  0  0  0  0  0  0  # atno 8010 bound_to 7997
  140.2928  143.3210  152.0328 H   0  0  0  0  0  0  0  0  0  0  0  0  # atno 10167 bound_to 10162
  156.2189  130.4165  149.9018 H   0  0  0  0  0  0  0  0  0  0  0  0  # atno 10718 bound_to 10713
  153.9795  135.6718  153.4749 H   0  0  0  0  0  0  0  0  0  0  0  0  # atno 10763 bound_to 10752
  153.0755  135.4951  154.8392 H   0  0  0  0  0  0  0  0  0  0  0  0  # atno 10764 bound_to 10752
  154.7173  135.3109  154.9065 H   0  0  0  0  0  0  0  0  0  0  0  0  # atno 10765 bound_to 10752
  140.2911  134.7672  157.3839 H   0  0  0  0  0  0  0  0  0  0  0  0  # atno 11005 bound_to 11000
  144.8223  139.5770  143.6981 LP  0  0  0  0  0  0  0  0  0  0  0  0  # atno 17320 bound_to 7965
  146.2639  139.6475  142.9343 LP  0  0  0  0  0  0  0  0  0  0  0  0  # atno 17321 bound_to 7965
  139.4934  144.6512  151.6671 LP  0  0  0  0  0  0  0  0  0  0  0  0  # atno 17342 bound_to 10162
  140.5717  144.0097  150.6220 LP  0  0  0  0  0  0  0  0  0  0  0  0  # atno 17343 bound_to 10162
  156.6671  130.8805  151.3556 LP  0  0  0  0  0  0  0  0  0  0  0  0  # atno 17370 bound_to 10713
  157.7077  130.9404  150.0986 LP  0  0  0  0  0  0  0  0  0  0  0  0  # atno 17371 bound_to 10713
  140.1195  134.5239  155.8196 LP  0  0  0  0  0  0  0  0  0  0  0  0  # atno 17394 bound_to 11000
  141.2146  133.6751  156.6838 LP  0  0  0  0  0  0  0  0  0  0  0  0  # atno 17395 bound_to 11000

$$$$
