AV-unprocessed.smi:447|AV-procd|sdf|2599|dock3
  -GOLD-   2262022593D 1   1.00000     0.00000
 Structure written by MMmdl.
 45 47  0  0  0  0  0  0  0  0  1 V2000
  155.4237  137.8054  160.7936 C   0  0  0  0  0  0  0  0  0  0  0  0
  154.5630  138.4249  159.6973 C   0  0  0  0  0  0  0  0  0  0  0  0
  155.0821  139.1498  158.8495 O   0  0  0  0  0  0  0  0  0  0  0  0
  153.2534  138.1310  159.7219 N   0  0  0  0  0  0  0  0  0  0  0  0
  152.2614  138.6016  158.7553 C   0  0  2  0  0  0  0  0  0  0  0  0
  152.6333  138.1260  157.3450 C   0  0  0  0  0  0  0  0  0  0  0  0
  152.1679  140.1064  158.8353 C   0  0  0  0  0  0  0  0  0  0  0  0
  152.9794  140.8331  159.6094 N   0  0  0  0  0  0  0  0  0  0  0  0
  152.5557  142.1251  159.3739 C   0  0  0  0  0  0  0  0  0  0  0  0
  153.0119  143.3518  159.9069 C   0  0  0  0  0  0  0  0  0  0  0  0
  152.4172  144.5675  159.5105 C   0  0  0  0  0  0  0  0  0  0  0  0
  151.3600  144.5733  158.5776 C   0  0  0  0  0  0  0  0  0  0  0  0
  150.8916  143.3617  158.0338 C   0  0  0  0  0  0  0  0  0  0  0  0
  151.4888  142.1508  158.4330 C   0  0  0  0  0  0  0  0  0  0  0  0
  151.2741  140.8167  158.0994 N   0  0  0  0  0  0  0  0  0  0  0  0
  150.2877  140.3187  157.1495 C   0  0  0  0  0  0  0  0  0  0  0  0
  150.5344  140.8214  155.7128 C   0  0  1  0  0  0  0  0  0  0  0  0
  151.7023  140.2233  155.1850 O   0  0  0  0  0  0  0  0  0  0  0  0
  149.3183  140.5901  154.8305 C   0  0  0  0  0  0  0  0  0  0  0  0
  148.5326  141.6764  154.3862 C   0  0  0  0  0  0  0  0  0  0  0  0
  147.4119  141.4517  153.5628 C   0  0  0  0  0  0  0  0  0  0  0  0
  147.0726  140.1406  153.1770 C   0  0  0  0  0  0  0  0  0  0  0  0
  147.8552  139.0545  153.6134 C   0  0  0  0  0  0  0  0  0  0  0  0
  148.9757  139.2786  154.4367 C   0  0  0  0  0  0  0  0  0  0  0  0
  154.8482  137.1211  161.4180 H   0  0  0  0  0  0  0  0  0  0  0  0
  155.8377  138.5860  161.4321 H   0  0  0  0  0  0  0  0  0  0  0  0
  156.2513  137.2493  160.3528 H   0  0  0  0  0  0  0  0  0  0  0  0
  152.9196  137.5180  160.4514 H   0  0  0  0  0  0  0  0  0  0  0  0
  151.3031  138.1531  159.0159 H   0  0  0  0  0  0  0  0  0  0  0  0
  151.8859  138.4448  156.6178 H   0  0  0  0  0  0  0  0  0  0  0  0
  152.6939  137.0383  157.3005 H   0  0  0  0  0  0  0  0  0  0  0  0
  153.5965  138.5283  157.0298 H   0  0  0  0  0  0  0  0  0  0  0  0
  153.8206  143.3569  160.6226 H   0  0  0  0  0  0  0  0  0  0  0  0
  152.7731  145.4992  159.9252 H   0  0  0  0  0  0  0  0  0  0  0  0
  150.9077  145.5081  158.2805 H   0  0  0  0  0  0  0  0  0  0  0  0
  150.0793  143.3620  157.3223 H   0  0  0  0  0  0  0  0  0  0  0  0
  150.2992  139.2285  157.1748 H   0  0  0  0  0  0  0  0  0  0  0  0
  149.2949  140.6109  157.4926 H   0  0  0  0  0  0  0  0  0  0  0  0
  150.7284  141.8930  155.7390 H   0  0  0  0  0  0  0  0  0  0  0  0
  151.8401  139.3986  155.6253 H   0  0  0  0  0  0  0  0  0  0  0  0
  148.7879  142.6858  154.6741 H   0  0  0  0  0  0  0  0  0  0  0  0
  146.8133  142.2852  153.2263 H   0  0  0  0  0  0  0  0  0  0  0  0
  146.2135  139.9684  152.5455 H   0  0  0  0  0  0  0  0  0  0  0  0
  147.5966  138.0489  153.3159 H   0  0  0  0  0  0  0  0  0  0  0  0
  149.5720  138.4394  154.7647 H   0  0  0  0  0  0  0  0  0  0  0  0
  1  2  1  0  0  0  0
  1 25  1  0  0  0  0
  1 26  1  0  0  0  0
  1 27  1  0  0  0  0
  2  3  2  0  0  0  0
  2  4  1  0  0  0  0
  4  5  1  0  0  0  0
  4 28  1  0  0  0  0
  5  6  1  0  0  0  0
  5  7  1  0  0  0  0
  5 29  1  0  0  0  0
  6 30  1  0  0  0  0
  6 31  1  0  0  0  0
  6 32  1  0  0  0  0
  7 15  1  0  0  0  0
  7  8  2  0  0  0  0
  8  9  1  0  0  0  0
  9 14  2  0  0  0  0
  9 10  1  0  0  0  0
 10 11  2  0  0  0  0
 10 33  1  0  0  0  0
 11 12  1  0  0  0  0
 11 34  1  0  0  0  0
 12 13  2  0  0  0  0
 12 35  1  0  0  0  0
 13 14  1  0  0  0  0
 13 36  1  0  0  0  0
 14 15  1  0  0  0  0
 15 16  1  0  0  0  0
 16 17  1  0  0  0  0
 16 37  1  0  0  0  0
 16 38  1  0  0  0  0
 17 18  1  0  0  0  0
 17 19  1  0  0  0  0
 17 39  1  0  0  0  0
 18 40  1  0  0  0  0
 19 24  1  0  0  0  0
 19 20  2  0  0  0  0
 20 21  1  0  0  0  0
 20 41  1  0  0  0  0
 21 22  2  0  0  0  0
 21 42  1  0  0  0  0
 22 23  1  0  0  0  0
 22 43  1  0  0  0  0
 23 24  2  0  0  0  0
 23 44  1  0  0  0  0
 24 45  1  0  0  0  0
M  END
> <s_m_source_file>
AV-unprocessed.smi

> <i_m_source_file_index>
447

> <i_lp_mmshare_version>
43012

> <i_f3d_flags>
0

> <s_epik_input>
W0NIM11DKD1PKVtOSF1bQ0BIXShbQ0gzXSljKG4xKW4oYyhjMTIpW2NIXVtjSF1bY0hdW2NIXTIpW0NIMl1bQ0BIXShbT0hdKWMzW2NIXVtjSF1bY0hdW2NIXVtjSF0z

> <s_epik_cmdline>
J2VwaWtfcHl0aG9uJywgJy1waCcsICc3LjAnLCAnLXRuJywgJzgnLCAnLW1hJywgJzIwMCcsICctbWV0YWxfYmluZGluZycsICctaW1hZScsICc8aW5maWxlLm1hZT4nLCAnLW9tYWUnLCAnPG91dGZpbGUubWFlPic=

> <r_epik_Ionization_Penalty>
0.13301

> <r_epik_Ionization_Penalty_Charging>
0

> <r_epik_Ionization_Penalty_Neutral>
0.13301

> <r_epik_State_Penalty>
0.122384

> <r_epik_Charging_Adjusted_Penalty>
0.122384

> <i_epik_Tot_Q>
0

> <i_epik_Tot_abs_Q>
0

> <r_epik_Metal_State_Penalty>
0.0997374

> <b_epik_Metal_Only>
0

> <s_lp_Force_Field>
OPLS_2005

> <r_lp_Energy>
6.23771

> <b_lp_Chiralities_Consistent>
1

> <s_lp_Variant>
AV-unprocessed.smi:447-3

> <Gold.Version>
5.8.1

> <Gold.Id.Protein>
6NUR|6NUR_protein|mol2

> <Gold.PLP.Fitness>
52.6845

> <Gold.PLP.PLP>
-47.4369

> <Gold.PLP.part.hbond>
-2.0000

> <Gold.PLP.part.metal>
0.0000

> <Gold.PLP.part.buried>
-5.7148

> <Gold.PLP.part.nonpolar>
-39.7965

> <Gold.PLP.part.repulsive>
0.0824

> <Gold.PLP.ligand.clash>
0.0000

> <Gold.PLP.ligand.torsion>
0.2683

> <Gold.PLP.Chemscore.Hbond>
1.9120

> <Gold.PLP.Chemscore.CHOScore>
0.0000

> <Gold.PLP.Chemscore.Metal>
0.0000

> <Gold.Chemscore.Hbonds>
donor molecule, donor type, donor heavy atom, donor atom, acceptor molecule, acceptor atom, score
      P1  H  7989  7998       L1    18  0.90
      P1  H  7997  8008       L1     3  1.00

> <Gold.PLP.Chemscore.Internal.Correction>
0.0482

> <Gold.Rescore>
     Score         DG    S(hbond)    S(metal)    S(lipo)     H(rot)  DE(clash)    DE(int)     intcor
     18.64     -20.38       1.80        0.00     127.53       2.35       0.05       1.69       ----

> <Gold.Chemscore.Fitness>
18.6407

> <Gold.Chemscore.DG>
-20.3766

> <Gold.Chemscore.ZeroCoef>
-5.4800

> <Gold.Chemscore.Hbond>
1.7960

> <Gold.Chemscore.Metal>
0.0000

> <Gold.Chemscore.Lipo>
127.5299

> <Gold.Chemscore.Internal_Hbond>
0.0000

> <Gold.Chemscore.DEClash>
0.0484

> <Gold.Chemscore.DEInternal>
1.6875

> <Gold.Chemscore.Rot>
2.3528

> <Gold.Chemscore.Internal.Correction>
   9.000000E+99

> <Gold.Chemscore.Hbonds>
donor molecule, donor type, donor heavy atom, donor atom, acceptor molecule, acceptor atom, score
      P1  H  7989  7998       L1    18  0.23
      P1  H  7997  8008       L1     3  0.99

> <Gold.Chemscore.Hbond.Weighted>
-5.9988

> <Gold.Chemscore.Metal.Weighted>
-0.0000

> <Gold.Chemscore.Lipo.Weighted>
-14.9210

> <Gold.Chemscore.Internal_Hbond.Weighted>
0.0000

> <Gold.Chemscore.DEClash.Weighted>
0.0484

> <Gold.Chemscore.DEInternal.Weighted>
1.6875

> <Gold.Chemscore.Rot.Weighted>
6.0231

> <Gold.Chemscore.Internal.Correction.Weighted>
   9.000000E+99

> <Gold.Protein.RotatedTorsions>
[ 6907 6896 6895 6894 ] final  -10.91 input  -60.11 | X-H torsion
[ 7974 7965 7964 7962 ] final -145.45 input  175.53 | X-H torsion
[ 8008 7997 7996 7995 ] final -143.06 input   59.86 | X-H torsion
[ 10167 10162 10161 10158 ] final   34.93 input  -65.29 | X-H torsion
[ 10718 10713 10712 10709 ] final -115.64 input   66.30 | X-H torsion
[ 10763 10752 10751 10750 ] final  -51.41 input  -60.55 | X-H torsion
[ 11005 11000 10999 10996 ] final   73.02 input  -57.11 | X-H torsion

> <Gold.Protein.ActiveResidues>
 VAL166  LYS551  ARG553  GLY616  TRP617  ASP618  TYR619  PRO620  LYS621  CYS622 
 ASP623  PHE694  ASN695  SER759  ASP760  ASP761  ALA762  ILE779  LEU786  VAL792 
 PHE793  MET794  SER795  GLU796  ALA797  LYS798  CYS799  TRP800  GLU811  SER814 

> <Gold.Protein.RotatedAtoms>
  151.3945  135.0961  159.9536 H   0  0  0  0  0  0  0  0  0  0  0  0  # atno 6907 bound_to 6896
  152.5069  133.8948  159.7422 H   0  0  0  0  0  0  0  0  0  0  0  0  # atno 6908 bound_to 6896
  150.9408  133.6602  159.2819 H   0  0  0  0  0  0  0  0  0  0  0  0  # atno 6909 bound_to 6896
  144.8227  140.5582  143.5568 H   0  0  0  0  0  0  0  0  0  0  0  0  # atno 7974 bound_to 7965
  155.5045  140.0578  157.2934 H   0  0  0  0  0  0  0  0  0  0  0  0  # atno 8008 bound_to 7997
  154.4575  140.1980  156.0288 H   0  0  0  0  0  0  0  0  0  0  0  0  # atno 8009 bound_to 7997
  156.0826  140.3245  155.7718 H   0  0  0  0  0  0  0  0  0  0  0  0  # atno 8010 bound_to 7997
  140.4269  144.1380  150.6154 H   0  0  0  0  0  0  0  0  0  0  0  0  # atno 10167 bound_to 10162
  156.0909  130.6092  150.8932 H   0  0  0  0  0  0  0  0  0  0  0  0  # atno 10718 bound_to 10713
  154.1262  135.6527  153.4913 H   0  0  0  0  0  0  0  0  0  0  0  0  # atno 10763 bound_to 10752
  153.0209  135.5282  154.7047 H   0  0  0  0  0  0  0  0  0  0  0  0  # atno 10764 bound_to 10752
  154.6269  135.2971  155.0232 H   0  0  0  0  0  0  0  0  0  0  0  0  # atno 10765 bound_to 10752
  139.9461  134.7311  156.0976 H   0  0  0  0  0  0  0  0  0  0  0  0  # atno 11005 bound_to 11000
  145.5069  139.1481  143.3626 LP  0  0  0  0  0  0  0  0  0  0  0  0  # atno 17320 bound_to 7965
  146.2532  140.5210  142.8884 LP  0  0  0  0  0  0  0  0  0  0  0  0  # atno 17321 bound_to 7965
  140.4471  143.2502  151.9397 LP  0  0  0  0  0  0  0  0  0  0  0  0  # atno 17342 bound_to 10162
  139.4784  144.5599  151.8256 LP  0  0  0  0  0  0  0  0  0  0  0  0  # atno 17343 bound_to 10162
  157.6058  131.0939  150.8882 LP  0  0  0  0  0  0  0  0  0  0  0  0  # atno 17370 bound_to 10713
  156.9031  130.5253  149.5282 LP  0  0  0  0  0  0  0  0  0  0  0  0  # atno 17371 bound_to 10713
  141.1111  133.6643  156.2982 LP  0  0  0  0  0  0  0  0  0  0  0  0  # atno 17394 bound_to 11000
  140.5832  134.5725  157.5484 LP  0  0  0  0  0  0  0  0  0  0  0  0  # atno 17395 bound_to 11000

$$$$
