AV-unprocessed.smi:1572|AV-procd|sdf|6331|dock8
  -GOLD-   22720 6543D 1   1.00000     0.00000
 Structure written by MMmdl.
 42 43  0  0  0  0  0  0  0  0  3 V2000
  144.0646  133.1521  151.1435 C   0  0  0  0  0  0  0  0  0  0  0  0
  145.2112  132.6045  150.4265 N   0  0  0  0  0  0  0  0  0  0  0  0
  146.4071  133.4403  150.5288 C   0  0  0  0  0  0  0  0  0  0  0  0
  147.0339  133.3977  151.9384 C   0  0  0  0  0  0  0  0  0  0  0  0
  147.3739  131.9975  152.3223 N   0  3  0  0  0  0  0  0  0  0  0  0
  148.1900  131.8397  153.5797 C   0  0  0  0  0  0  0  0  0  0  0  0
  147.3468  132.2613  154.8096 C   0  0  0  0  0  0  0  0  0  0  0  0
  148.5293  130.3420  153.7891 C   0  0  0  0  0  0  0  0  0  0  0  0
  149.4918  132.6946  153.5195 C   0  0  0  0  0  0  0  0  0  0  0  0
  149.2791  134.0984  153.8691 N   0  0  0  0  0  0  0  0  0  0  0  0
  149.7109  134.7182  154.9768 C   0  0  0  0  0  0  0  0  0  0  0  0
  150.3600  134.0951  155.8199 O   0  0  0  0  0  0  0  0  0  0  0  0
  149.3534  136.0200  155.0419 N   0  5  0  0  0  0  0  0  0  0  0  0
  150.2908  136.9780  154.9528 C   0  0  0  0  0  0  0  0  0  0  0  0
  151.6037  136.7070  155.0249 N   0  0  0  0  0  0  0  0  0  0  0  0
  152.4015  137.8373  154.9103 N   0  0  0  0  0  0  0  0  0  0  0  0
  151.6660  138.9360  154.7427 C   0  0  0  0  0  0  0  0  0  0  0  0
  149.9328  138.6900  154.7100 S   0  0  0  0  0  0  0  0  0  0  0  0
  146.1466  131.1562  152.2323 C   0  0  0  0  0  0  0  0  0  0  0  0
  145.5350  131.2333  150.8180 C   0  0  0  0  0  0  0  0  0  0  0  0
  143.8276  134.1483  150.7690 H   0  0  0  0  0  0  0  0  0  0  0  0
  144.2362  133.2285  152.2166 H   0  0  0  0  0  0  0  0  0  0  0  0
  143.1874  132.5237  150.9868 H   0  0  0  0  0  0  0  0  0  0  0  0
  147.1365  133.0931  149.7959 H   0  0  0  0  0  0  0  0  0  0  0  0
  146.1597  134.4665  150.2540 H   0  0  0  0  0  0  0  0  0  0  0  0
  147.9221  134.0252  151.9109 H   0  0  0  0  0  0  0  0  0  0  0  0
  146.3605  133.8461  152.6681 H   0  0  0  0  0  0  0  0  0  0  0  0
  147.8274  131.9732  155.7454 H   0  0  0  0  0  0  0  0  0  0  0  0
  146.3629  131.7910  154.7987 H   0  0  0  0  0  0  0  0  0  0  0  0
  147.2049  133.3403  154.8665 H   0  0  0  0  0  0  0  0  0  0  0  0
  148.9281  130.1523  154.7861 H   0  0  0  0  0  0  0  0  0  0  0  0
  149.2862  129.9863  153.0905 H   0  0  0  0  0  0  0  0  0  0  0  0
  147.6450  129.7137  153.6773 H   0  0  0  0  0  0  0  0  0  0  0  0
  150.2719  132.2719  154.1527 H   0  0  0  0  0  0  0  0  0  0  0  0
  149.9000  132.6943  152.5095 H   0  0  0  0  0  0  0  0  0  0  0  0
  148.7529  134.6548  153.2113 H   0  0  0  0  0  0  0  0  0  0  0  0
  152.1466  139.8970  154.6371 H   0  0  0  0  0  0  0  0  0  0  0  0
  146.3726  130.1095  152.4234 H   0  0  0  0  0  0  0  0  0  0  0  0
  145.4147  131.4580  152.9812 H   0  0  0  0  0  0  0  0  0  0  0  0
  144.6388  130.6148  150.7571 H   0  0  0  0  0  0  0  0  0  0  0  0
  146.2412  130.8235  150.0944 H   0  0  0  0  0  0  0  0  0  0  0  0
  147.9770  131.6627  151.5850 H   0  0  0  0  0  0  0  0  0  0  0  0
  1  2  1  0  0  0  0
  1 21  1  0  0  0  0
  1 22  1  0  0  0  0
  1 23  1  0  0  0  0
  2 20  1  0  0  0  0
  2  3  1  0  0  0  0
  3  4  1  0  0  0  0
  3 24  1  0  0  0  0
  3 25  1  0  0  0  0
  4  5  1  0  0  0  0
  4 26  1  0  0  0  0
  4 27  1  0  0  0  0
  5  6  1  0  0  0  0
  5 19  1  0  0  0  0
  5 42  1  0  0  0  0
  6  7  1  0  0  0  0
  6  8  1  0  0  0  0
  6  9  1  0  0  0  0
  7 28  1  0  0  0  0
  7 29  1  0  0  0  0
  7 30  1  0  0  0  0
  8 31  1  0  0  0  0
  8 32  1  0  0  0  0
  8 33  1  0  0  0  0
  9 10  1  0  0  0  0
  9 34  1  0  0  0  0
  9 35  1  0  0  0  0
 10 11  1  0  0  0  0
 10 36  1  0  0  0  0
 11 12  2  0  0  0  0
 11 13  1  0  0  0  0
 13 14  1  0  0  0  0
 14 18  1  0  0  0  0
 14 15  2  0  0  0  0
 15 16  1  0  0  0  0
 16 17  2  0  0  0  0
 17 18  1  0  0  0  0
 17 37  1  0  0  0  0
 19 20  1  0  0  0  0
 19 38  1  0  0  0  0
 19 39  1  0  0  0  0
 20 40  1  0  0  0  0
 20 41  1  0  0  0  0
M  CHG  1   5   1
M  CHG  1  13  -1
M  END
> <s_m_source_file>
AV-unprocessed.smi

> <i_m_source_file_index>
1572

> <i_lp_mmshare_version>
43012

> <i_f3d_flags>
0

> <s_epik_input>
W0NIM11OMVtDSDJdW0NIMl1OKFtDSDJdW0NIMl0xKUMoW0NIM10pKFtDSDNdKVtDSDJdW05IXUMoPU8pW05IXWMybm5bY0hdczI=

> <s_epik_cmdline>
J2VwaWtfcHl0aG9uJywgJy1waCcsICc3LjAnLCAnLXRuJywgJzgnLCAnLW1hJywgJzIwMCcsICctbWV0YWxfYmluZGluZycsICctaW1hZScsICc8aW5maWxlLm1hZT4nLCAnLW9tYWUnLCAnPG91dGZpbGUubWFlPic=

> <r_epik_Ionization_Penalty>
3.12043

> <r_epik_Ionization_Penalty_Charging>
3.08547

> <r_epik_Ionization_Penalty_Neutral>
0.0349584

> <r_epik_State_Penalty>
4.04075

> <r_epik_Charging_Adjusted_Penalty>
7.12622

> <i_epik_Tot_Q>
0

> <i_epik_Tot_abs_Q>
2

> <r_epik_Metal_State_Penalty>
1.47091

> <b_epik_Metal_Only>
1

> <s_lp_Force_Field>
OPLS_2005

> <r_lp_Energy>
19.1563

> <b_lp_Chiralities_Consistent>
1

> <s_lp_Variant>
AV-unprocessed.smi:1572-5

> <Gold.Version>
5.8.1

> <Gold.Id.Protein>
6NUR|6NUR_protein|mol2

> <Gold.PLP.Fitness>
39.0406

> <Gold.PLP.PLP>
-33.6014

> <Gold.PLP.part.hbond>
-4.0000

> <Gold.PLP.part.metal>
0.0000

> <Gold.PLP.part.buried>
-5.4914

> <Gold.PLP.part.nonpolar>
-22.5763

> <Gold.PLP.part.repulsive>
0.4961

> <Gold.PLP.ligand.clash>
0.0000

> <Gold.PLP.ligand.torsion>
1.0914

> <Gold.PLP.Chemscore.Hbond>
2.4986

> <Gold.PLP.Chemscore.CHOScore>
0.0000

> <Gold.PLP.Chemscore.Metal>
0.0000

> <Gold.Chemscore.Hbonds>
donor molecule, donor type, donor heavy atom, donor atom, acceptor molecule, acceptor atom, score
      L1  H     5    42       P1 10747  1.00
      L1  H    10    36       P1  7948  0.77
      P1  H 10752 10764       L1    15  0.70

> <Gold.PLP.Chemscore.Internal.Correction>
0.1264

> <Gold.Rescore>
     Score         DG    S(hbond)    S(metal)    S(lipo)     H(rot)  DE(clash)    DE(int)     intcor
     12.71     -14.03       1.25        0.00      74.01       1.67       0.08       1.24       ----

> <Gold.Chemscore.Fitness>
12.7092

> <Gold.Chemscore.DG>
-14.0295

> <Gold.Chemscore.ZeroCoef>
-5.4800

> <Gold.Chemscore.Hbond>
1.2468

> <Gold.Chemscore.Metal>
0.0000

> <Gold.Chemscore.Lipo>
74.0078

> <Gold.Chemscore.Internal_Hbond>
0.0000

> <Gold.Chemscore.DEClash>
0.0794

> <Gold.Chemscore.DEInternal>
1.2409

> <Gold.Chemscore.Rot>
1.6694

> <Gold.Chemscore.Internal.Correction>
   9.000000E+99

> <Gold.Chemscore.Hbonds>
donor molecule, donor type, donor heavy atom, donor atom, acceptor molecule, acceptor atom, score
      L1  H     5    42       P1 10747  1.00
      L1  H    10    36       P1  7948  0.16
      P1  H 10752 10764       L1    15  0.07

> <Gold.Chemscore.Hbond.Weighted>
-4.1644

> <Gold.Chemscore.Metal.Weighted>
-0.0000

> <Gold.Chemscore.Lipo.Weighted>
-8.6589

> <Gold.Chemscore.Internal_Hbond.Weighted>
0.0000

> <Gold.Chemscore.DEClash.Weighted>
0.0794

> <Gold.Chemscore.DEInternal.Weighted>
1.2409

> <Gold.Chemscore.Rot.Weighted>
4.2738

> <Gold.Chemscore.Internal.Correction.Weighted>
   9.000000E+99

> <Gold.Protein.RotatedTorsions>
[ 6907 6896 6895 6894 ] final -175.40 input  -60.11 | X-H torsion
[ 7974 7965 7964 7962 ] final  -21.46 input  175.53 | X-H torsion
[ 8008 7997 7996 7995 ] final   24.14 input   59.86 | X-H torsion
[ 10167 10162 10161 10158 ] final  133.05 input  -65.29 | X-H torsion
[ 10718 10713 10712 10709 ] final -131.35 input   66.30 | X-H torsion
[ 10763 10752 10751 10750 ] final  -52.05 input  -60.55 | X-H torsion
[ 11005 11000 10999 10996 ] final  -28.77 input  -57.11 | X-H torsion

> <Gold.Protein.ActiveResidues>
 VAL166  LYS551  ARG553  GLY616  TRP617  ASP618  TYR619  PRO620  LYS621  CYS622 
 ASP623  PHE694  ASN695  SER759  ASP760  ASP761  ALA762  ILE779  LEU786  VAL792 
 PHE793  MET794  SER795  GLU796  ALA797  LYS798  CYS799  TRP800  GLU811  SER814 

> <Gold.Protein.RotatedAtoms>
  151.5879  133.3370  159.3021 H   0  0  0  0  0  0  0  0  0  0  0  0  # atno 6907 bound_to 6896
  150.8276  134.7518  159.6838 H   0  0  0  0  0  0  0  0  0  0  0  0  # atno 6908 bound_to 6896
  152.4364  134.5685  159.9966 H   0  0  0  0  0  0  0  0  0  0  0  0  # atno 6909 bound_to 6896
  146.1732  140.4344  142.8524 H   0  0  0  0  0  0  0  0  0  0  0  0  # atno 7974 bound_to 7965
  154.9917  140.3114  155.4903 H   0  0  0  0  0  0  0  0  0  0  0  0  # atno 8008 bound_to 7997
  156.2939  140.2248  156.4962 H   0  0  0  0  0  0  0  0  0  0  0  0  # atno 8009 bound_to 7997
  154.7698  140.0453  157.1030 H   0  0  0  0  0  0  0  0  0  0  0  0  # atno 8010 bound_to 7997
  139.5313  144.6634  151.4940 H   0  0  0  0  0  0  0  0  0  0  0  0  # atno 10167 bound_to 10162
  156.2236  130.6993  151.0782 H   0  0  0  0  0  0  0  0  0  0  0  0  # atno 10718 bound_to 10713
  154.1365  135.6512  153.4933 H   0  0  0  0  0  0  0  0  0  0  0  0  # atno 10763 bound_to 10752
  153.0179  135.5305  154.6948 H   0  0  0  0  0  0  0  0  0  0  0  0  # atno 10764 bound_to 10752
  154.6198  135.2963  155.0310 H   0  0  0  0  0  0  0  0  0  0  0  0  # atno 10765 bound_to 10752
  140.9237  133.7382  156.0838 H   0  0  0  0  0  0  0  0  0  0  0  0  # atno 11005 bound_to 11000
  144.8195  140.6525  143.6362 LP  0  0  0  0  0  0  0  0  0  0  0  0  # atno 17320 bound_to 7965
  145.4284  139.1553  143.4036 LP  0  0  0  0  0  0  0  0  0  0  0  0  # atno 17321 bound_to 7965
  140.6493  143.8729  150.6769 LP  0  0  0  0  0  0  0  0  0  0  0  0  # atno 17342 bound_to 10162
  140.2089  143.3899  152.1734 LP  0  0  0  0  0  0  0  0  0  0  0  0  # atno 17343 bound_to 10162
  157.7099  131.0739  150.6536 LP  0  0  0  0  0  0  0  0  0  0  0  0  # atno 17370 bound_to 10713
  156.6600  130.4509  149.5690 LP  0  0  0  0  0  0  0  0  0  0  0  0  # atno 17371 bound_to 10713
  140.7954  134.3570  157.5454 LP  0  0  0  0  0  0  0  0  0  0  0  0  # atno 17394 bound_to 11000
  139.8781  134.9165  156.3157 LP  0  0  0  0  0  0  0  0  0  0  0  0  # atno 17395 bound_to 11000

$$$$
