AV-unprocessed.smi:2124|AV-procd|sdf|8654|dock5
  -GOLD-   2272011403D 1   1.00000     0.00000
 Structure written by MMmdl.
 47 49  0  0  0  0  0  0  0  0  1 V2000
  151.2885  142.7909  157.3573 C   0  0  0  0  0  0  0  0  0  0  0  0
  150.7950  141.7455  156.3799 C   0  0  0  0  0  0  0  0  0  0  0  0
  151.2397  140.5327  156.3362 N   0  0  0  0  0  0  0  0  0  0  0  0
  150.7013  139.6509  155.3887 C   0  0  0  0  0  0  0  0  0  0  0  0
  151.2704  138.2428  155.4065 C   0  0  0  0  0  0  0  0  0  0  0  0
  149.7309  140.0469  154.5136 C   0  0  0  0  0  0  0  0  0  0  0  0
  149.1132  139.1151  153.4725 C   0  0  0  0  0  0  0  0  0  0  0  0
  147.5897  138.9708  153.5228 C   0  0  0  0  0  0  0  0  0  0  0  0
  146.8951  139.8385  154.0525 O   0  0  0  0  0  0  0  0  0  0  0  0
  147.0847  137.8638  152.9576 N   0  0  0  0  0  0  0  0  0  0  0  0
  145.6649  137.5312  152.8536 C   0  0  2  0  0  0  0  0  0  0  0  0
  145.1183  137.2374  154.2622 C   0  0  0  0  0  0  0  0  0  0  0  0
  145.4863  136.3432  151.8759 C   0  0  2  0  0  0  0  0  0  0  0  0
  144.0037  135.9900  151.5919 C   0  0  0  0  0  0  0  0  0  0  0  0
  143.9292  134.4858  151.9058 C   0  0  1  0  0  0  0  0  0  0  0  0
  144.7145  133.6964  150.8432 C   0  0  0  0  0  0  0  0  0  0  0  0
  146.1780  134.0221  151.1947 C   0  0  0  0  0  0  0  0  0  0  0  0
  146.0355  134.9871  152.3879 C   0  0  2  0  0  0  0  0  0  0  0  0
  144.8412  134.3840  153.1205 C   0  0  0  0  0  0  0  0  0  0  0  0
  149.2303  141.4336  154.5725 C   0  0  0  0  0  0  0  0  0  0  0  0
  148.3543  141.8892  153.8389 O   0  0  0  0  0  0  0  0  0  0  0  0
  149.8027  142.2111  155.5186 N   0  0  0  0  0  0  0  0  0  0  0  0
  149.4919  143.1679  155.6014 H   0  0  0  0  0  0  0  0  0  0  0  0
  151.1392  142.4466  158.3809 H   0  0  0  0  0  0  0  0  0  0  0  0
  150.7608  143.7380  157.2359 H   0  0  0  0  0  0  0  0  0  0  0  0
  152.3532  142.9713  157.2075 H   0  0  0  0  0  0  0  0  0  0  0  0
  151.8470  138.0552  154.5008 H   0  0  0  0  0  0  0  0  0  0  0  0
  150.4725  137.5027  155.4699 H   0  0  0  0  0  0  0  0  0  0  0  0
  151.9300  138.0933  156.2620 H   0  0  0  0  0  0  0  0  0  0  0  0
  149.4118  139.4359  152.4731 H   0  0  0  0  0  0  0  0  0  0  0  0
  149.5397  138.1184  153.5817 H   0  0  0  0  0  0  0  0  0  0  0  0
  147.7334  137.2078  152.5473 H   0  0  0  0  0  0  0  0  0  0  0  0
  145.1268  138.3908  152.4504 H   0  0  0  0  0  0  0  0  0  0  0  0
  144.0425  137.0671  154.2534 H   0  0  0  0  0  0  0  0  0  0  0  0
  145.2999  138.0757  154.9356 H   0  0  0  0  0  0  0  0  0  0  0  0
  145.5921  136.3565  154.6962 H   0  0  0  0  0  0  0  0  0  0  0  0
  145.9818  136.6042  150.9391 H   0  0  0  0  0  0  0  0  0  0  0  0
  143.3274  136.5349  152.2525 H   0  0  0  0  0  0  0  0  0  0  0  0
  143.7124  136.2164  150.5657 H   0  0  0  0  0  0  0  0  0  0  0  0
  142.9129  134.1220  152.0602 H   0  0  0  0  0  0  0  0  0  0  0  0
  144.5271  132.6259  150.9348 H   0  0  0  0  0  0  0  0  0  0  0  0
  144.4525  133.9975  149.8281 H   0  0  0  0  0  0  0  0  0  0  0  0
  146.7092  133.1170  151.4921 H   0  0  0  0  0  0  0  0  0  0  0  0
  146.7204  134.4657  150.3590 H   0  0  0  0  0  0  0  0  0  0  0  0
  146.9453  135.0559  152.9828 H   0  0  0  0  0  0  0  0  0  0  0  0
  144.5017  134.9798  153.9693 H   0  0  0  0  0  0  0  0  0  0  0  0
  145.0093  133.3572  153.4504 H   0  0  0  0  0  0  0  0  0  0  0  0
  1  2  1  0  0  0  0
  1 24  1  0  0  0  0
  1 25  1  0  0  0  0
  1 26  1  0  0  0  0
  2 22  1  0  0  0  0
  2  3  2  0  0  0  0
  3  4  1  0  0  0  0
  4  5  1  0  0  0  0
  4  6  2  0  0  0  0
  5 27  1  0  0  0  0
  5 28  1  0  0  0  0
  5 29  1  0  0  0  0
  6  7  1  0  0  0  0
  6 20  1  0  0  0  0
  7  8  1  0  0  0  0
  7 30  1  0  0  0  0
  7 31  1  0  0  0  0
  8  9  2  0  0  0  0
  8 10  1  0  0  0  0
 10 11  1  0  0  0  0
 10 32  1  0  0  0  0
 11 12  1  0  0  0  0
 11 13  1  0  0  0  0
 11 33  1  0  0  0  0
 12 34  1  0  0  0  0
 12 35  1  0  0  0  0
 12 36  1  0  0  0  0
 13 18  1  0  0  0  0
 13 14  1  0  0  0  0
 13 37  1  0  0  0  0
 14 15  1  0  0  0  0
 14 38  1  0  0  0  0
 14 39  1  0  0  0  0
 15 19  1  0  0  0  0
 15 16  1  0  0  0  0
 15 40  1  0  0  0  0
 16 17  1  0  0  0  0
 16 41  1  0  0  0  0
 16 42  1  0  0  0  0
 17 18  1  0  0  0  0
 17 43  1  0  0  0  0
 17 44  1  0  0  0  0
 18 19  1  0  0  0  0
 18 45  1  0  0  0  0
 19 46  1  0  0  0  0
 19 47  1  0  0  0  0
 20 21  2  0  0  0  0
 20 22  1  0  0  0  0
 22 23  1  0  0  0  0
M  END
> <s_m_source_file>
AV-unprocessed.smi

> <i_m_source_file_index>
2124

> <i_lp_mmshare_version>
43012

> <i_f3d_flags>
0

> <s_epik_input>
W0NIM11jMW5jKFtDSDNdKWMoYyg9TylbbkhdMSlbQ0gyXUMoPU8pW05IXVtDQEhdKFtDSDNdKVtDQEhdKFtDSDJdW0NASF0yMylbQ0BIXShbQ0gyXTMpW0NIMl1bQ0gyXTI=

> <s_epik_cmdline>
J2VwaWtfcHl0aG9uJywgJy1waCcsICc3LjAnLCAnLXRuJywgJzgnLCAnLW1hJywgJzIwMCcsICctbWV0YWxfYmluZGluZycsICctaW1hZScsICc8aW5maWxlLm1hZT4nLCAnLW9tYWUnLCAnPG91dGZpbGUubWFlPic=

> <r_lp_tautomer_probability>
0.839158

> <r_epik_Ionization_Penalty>
0.000383628

> <r_epik_Ionization_Penalty_Charging>
0.00035045

> <r_epik_Ionization_Penalty_Neutral>
3.31781e-05

> <r_epik_State_Penalty>
0.09125

> <r_epik_Charging_Adjusted_Penalty>
0.0916005

> <i_epik_Tot_Q>
0

> <i_epik_Tot_abs_Q>
0

> <r_epik_Metal_State_Penalty>
0.255229

> <b_epik_Metal_Only>
0

> <s_lp_Force_Field>
OPLS_2005

> <r_lp_Energy>
52.554

> <b_lp_Chiralities_Consistent>
1

> <s_lp_Variant>
AV-unprocessed.smi:2124-5

> <Gold.Version>
5.8.1

> <Gold.Id.Protein>
6NUR|6NUR_protein|mol2

> <Gold.PLP.Fitness>
39.3367

> <Gold.PLP.PLP>
-33.5327

> <Gold.PLP.part.hbond>
-3.0000

> <Gold.PLP.part.metal>
0.0000

> <Gold.PLP.part.buried>
1.3349

> <Gold.PLP.part.nonpolar>
-30.8258

> <Gold.PLP.part.repulsive>
0.5481

> <Gold.PLP.ligand.clash>
0.0000

> <Gold.PLP.ligand.torsion>
0.4756

> <Gold.PLP.Chemscore.Hbond>
2.2434

> <Gold.PLP.Chemscore.CHOScore>
0.0000

> <Gold.PLP.Chemscore.Metal>
0.0000

> <Gold.Chemscore.Hbonds>
donor molecule, donor type, donor heavy atom, donor atom, acceptor molecule, acceptor atom, score
      L1  H    10    32       P1  7948  1.00
      L1  H    22    23       P1  8028  1.00
      P1  H  8011  8017       L1    21  0.22

> <Gold.PLP.Chemscore.Internal.Correction>
0.0253

> <Gold.Rescore>
     Score         DG    S(hbond)    S(metal)    S(lipo)     H(rot)  DE(clash)    DE(int)     intcor
     16.32     -17.57       2.62        0.00      64.72       1.65       0.06       1.19       ----

> <Gold.Chemscore.Fitness>
16.3153

> <Gold.Chemscore.DG>
-17.5717

> <Gold.Chemscore.ZeroCoef>
-5.4800

> <Gold.Chemscore.Hbond>
2.6204

> <Gold.Chemscore.Metal>
0.0000

> <Gold.Chemscore.Lipo>
64.7201

> <Gold.Chemscore.Internal_Hbond>
0.0000

> <Gold.Chemscore.DEClash>
0.0645

> <Gold.Chemscore.DEInternal>
1.1920

> <Gold.Chemscore.Rot>
1.6534

> <Gold.Chemscore.Internal.Correction>
   9.000000E+99

> <Gold.Chemscore.Hbonds>
donor molecule, donor type, donor heavy atom, donor atom, acceptor molecule, acceptor atom, score
      L1  H    10    32       P1  7948  1.00
      L1  H    22    23       P1  8028  1.00
      P1  H  8011  8017       L1    21  0.02

> <Gold.Chemscore.Hbond.Weighted>
-8.7521

> <Gold.Chemscore.Metal.Weighted>
-0.0000

> <Gold.Chemscore.Lipo.Weighted>
-7.5722

> <Gold.Chemscore.Internal_Hbond.Weighted>
0.0000

> <Gold.Chemscore.DEClash.Weighted>
0.0645

> <Gold.Chemscore.DEInternal.Weighted>
1.1920

> <Gold.Chemscore.Rot.Weighted>
4.2326

> <Gold.Chemscore.Internal.Correction.Weighted>
   9.000000E+99

> <Gold.Protein.RotatedTorsions>
[ 6907 6896 6895 6894 ] final    7.77 input  -60.11 | X-H torsion
[ 7974 7965 7964 7962 ] final  134.09 input  175.53 | X-H torsion
[ 8008 7997 7996 7995 ] final  155.87 input   59.86 | X-H torsion
[ 10167 10162 10161 10158 ] final  149.15 input  -65.29 | X-H torsion
[ 10718 10713 10712 10709 ] final  122.11 input   66.30 | X-H torsion
[ 10763 10752 10751 10750 ] final -142.61 input  -60.55 | X-H torsion
[ 11005 11000 10999 10996 ] final   62.94 input  -57.11 | X-H torsion

> <Gold.Protein.ActiveResidues>
 VAL166  LYS551  ARG553  GLY616  TRP617  ASP618  TYR619  PRO620  LYS621  CYS622 
 ASP623  PHE694  ASN695  SER759  ASP760  ASP761  ALA762  ILE779  LEU786  VAL792 
 PHE793  MET794  SER795  GLU796  ALA797  LYS798  CYS799  TRP800  GLU811  SER814 

> <Gold.Protein.RotatedAtoms>
  151.6953  135.0939  160.0240 H   0  0  0  0  0  0  0  0  0  0  0  0  # atno 6907 bound_to 6896
  152.3753  133.6469  159.6127 H   0  0  0  0  0  0  0  0  0  0  0  0  # atno 6908 bound_to 6896
  150.7705  133.9119  159.3413 H   0  0  0  0  0  0  0  0  0  0  0  0  # atno 6909 bound_to 6896
  144.9799  139.4515  143.5391 H   0  0  0  0  0  0  0  0  0  0  0  0  # atno 7974 bound_to 7965
  156.2454  140.1928  156.6867 H   0  0  0  0  0  0  0  0  0  0  0  0  # atno 8008 bound_to 7997
  154.6282  140.0599  156.9725 H   0  0  0  0  0  0  0  0  0  0  0  0  # atno 8009 bound_to 7997
  155.1753  140.3272  155.4387 H   0  0  0  0  0  0  0  0  0  0  0  0  # atno 8010 bound_to 7997
  139.4865  144.5624  151.7207 H   0  0  0  0  0  0  0  0  0  0  0  0  # atno 10167 bound_to 10162
  157.5767  131.1078  150.8265 H   0  0  0  0  0  0  0  0  0  0  0  0  # atno 10718 bound_to 10713
  154.8502  135.3491  154.6055 H   0  0  0  0  0  0  0  0  0  0  0  0  # atno 10763 bound_to 10752
  153.6664  135.6987  153.5165 H   0  0  0  0  0  0  0  0  0  0  0  0  # atno 10764 bound_to 10752
  153.2777  135.4273  155.1006 H   0  0  0  0  0  0  0  0  0  0  0  0  # atno 10765 bound_to 10752
  140.0058  134.6371  155.9857 H   0  0  0  0  0  0  0  0  0  0  0  0  # atno 11005 bound_to 11000
  146.3405  139.9065  142.8786 LP  0  0  0  0  0  0  0  0  0  0  0  0  # atno 17320 bound_to 7965
  145.2436  141.0018  143.3922 LP  0  0  0  0  0  0  0  0  0  0  0  0  # atno 17321 bound_to 7965
  140.5196  144.0900  150.6018 LP  0  0  0  0  0  0  0  0  0  0  0  0  # atno 17342 bound_to 10162
  140.3853  143.2781  152.0123 LP  0  0  0  0  0  0  0  0  0  0  0  0  # atno 17343 bound_to 10162
  156.8722  130.5150  149.5296 LP  0  0  0  0  0  0  0  0  0  0  0  0  # atno 17370 bound_to 10713
  156.0812  130.5822  150.9566 LP  0  0  0  0  0  0  0  0  0  0  0  0  # atno 17371 bound_to 10713
  141.1676  133.6537  156.4534 LP  0  0  0  0  0  0  0  0  0  0  0  0  # atno 17394 bound_to 11000
  140.4644  134.6812  157.5100 LP  0  0  0  0  0  0  0  0  0  0  0  0  # atno 17395 bound_to 11000

$$$$
