AV-unprocessed.smi:290|AV-procd|sdf|2216|dock5
  -GOLD-   2262022 53D 1   1.00000     0.00000
 Structure written by MMmdl.
 59 62  0  0  0  0  0  0  0  0  2 V2000
  150.7833  138.4237  153.8192 C   0  0  0  0  0  0  0  0  0  0  0  0
  150.8708  139.0871  155.2033 C   0  0  1  0  0  0  0  0  0  0  0  0
  151.8200  140.1435  155.1934 O   0  0  0  0  0  0  0  0  0  0  0  0
  151.5681  140.9368  156.3390 C   0  0  0  0  0  0  0  0  0  0  0  0
  150.0491  141.0587  156.3351 C   0  0  0  0  0  0  0  0  0  0  0  0
  149.5706  139.7180  155.7691 C   0  0  1  0  0  0  0  0  0  0  0  0
  148.6258  139.9849  154.7453 O   0  0  0  0  0  0  0  0  0  0  0  0
  148.8849  138.8418  156.8466 C   0  0  0  0  0  0  0  0  0  0  0  0
  148.2836  137.6287  156.3126 N   0  0  0  0  0  0  0  0  0  0  0  0
  146.9410  137.3244  156.2705 C   0  0  0  0  0  0  0  0  0  0  0  0
  146.6462  136.1725  155.7326 N   0  0  0  0  0  0  0  0  0  0  0  0
  147.8806  135.6374  155.3853 C   0  0  0  0  0  0  0  0  0  0  0  0
  148.3005  134.4274  154.7654 C   0  0  0  0  0  0  0  0  0  0  0  0
  147.4704  133.4491  154.3458 N   0  0  0  0  0  0  0  0  0  0  0  0
  147.8454  132.8226  153.0794 C   0  0  0  0  0  0  0  0  0  0  0  0
  146.5355  132.4290  152.3928 C   0  0  0  0  0  0  0  0  0  0  0  0
  145.6003  133.5346  152.8878 C   0  0  1  0  0  0  0  0  0  0  0  0
  144.1317  133.3693  152.6537 N   0  3  1  0  0  0  0  0  0  0  0  0
  143.3923  134.6266  152.9281 C   0  0  0  0  0  0  0  0  0  0  0  0
  143.7525  132.7620  151.3467 C   0  0  0  0  0  0  0  0  0  0  0  0
  144.4280  133.4487  150.1458 C   0  0  0  0  0  0  0  0  0  0  0  0
  143.6808  133.2212  148.9700 O   0  0  0  0  0  0  0  0  0  0  0  0
  146.0431  133.7686  154.3462 C   0  0  1  0  0  0  0  0  0  0  0  0
  145.3341  132.9308  155.4229 C   0  0  0  0  0  0  0  0  0  0  0  0
  149.6278  134.2347  154.5751 N   0  0  0  0  0  0  0  0  0  0  0  0
  150.5001  135.1662  154.9730 C   0  0  0  0  0  0  0  0  0  0  0  0
  150.2584  136.3378  155.5658 N   0  0  0  0  0  0  0  0  0  0  0  0
  148.9215  136.5363  155.7503 C   0  0  0  0  0  0  0  0  0  0  0  0
  145.9060  134.4396  152.3598 H   0  0  0  0  0  0  0  0  0  0  0  0
  145.8784  134.8185  154.5945 H   0  0  0  0  0  0  0  0  0  0  0  0
  150.0419  137.6243  153.8118 H   0  0  0  0  0  0  0  0  0  0  0  0
  151.7422  137.9867  153.5407 H   0  0  0  0  0  0  0  0  0  0  0  0
  150.5141  139.1430  153.0453 H   0  0  0  0  0  0  0  0  0  0  0  0
  151.2529  138.3531  155.9133 H   0  0  0  0  0  0  0  0  0  0  0  0
  151.9183  140.4183  157.2330 H   0  0  0  0  0  0  0  0  0  0  0  0
  152.0694  141.9030  156.2801 H   0  0  0  0  0  0  0  0  0  0  0  0
  149.6507  141.2808  157.3258 H   0  0  0  0  0  0  0  0  0  0  0  0
  149.7668  141.8846  155.6797 H   0  0  0  0  0  0  0  0  0  0  0  0
  148.0485  139.2409  154.6682 H   0  0  0  0  0  0  0  0  0  0  0  0
  149.6075  138.5573  157.6126 H   0  0  0  0  0  0  0  0  0  0  0  0
  148.1072  139.4093  157.3594 H   0  0  0  0  0  0  0  0  0  0  0  0
  146.1807  137.9930  156.6472 H   0  0  0  0  0  0  0  0  0  0  0  0
  148.4016  133.5218  152.4530 H   0  0  0  0  0  0  0  0  0  0  0  0
  148.4815  131.9537  153.2503 H   0  0  0  0  0  0  0  0  0  0  0  0
  146.6225  132.3943  151.3065 H   0  0  0  0  0  0  0  0  0  0  0  0
  146.2356  131.4423  152.7440 H   0  0  0  0  0  0  0  0  0  0  0  0
  143.6783  135.4064  152.2213 H   0  0  0  0  0  0  0  0  0  0  0  0
  143.6006  134.9883  153.9358 H   0  0  0  0  0  0  0  0  0  0  0  0
  142.3143  134.4886  152.8652 H   0  0  0  0  0  0  0  0  0  0  0  0
  144.0010  131.6997  151.3563 H   0  0  0  0  0  0  0  0  0  0  0  0
  142.6771  132.8191  151.1913 H   0  0  0  0  0  0  0  0  0  0  0  0
  144.5602  134.5189  150.2961 H   0  0  0  0  0  0  0  0  0  0  0  0
  145.4244  133.0315  149.9994 H   0  0  0  0  0  0  0  0  0  0  0  0
  142.8853  133.7304  149.0136 H   0  0  0  0  0  0  0  0  0  0  0  0
  144.2637  133.1308  155.4458 H   0  0  0  0  0  0  0  0  0  0  0  0
  145.7249  133.1708  156.4121 H   0  0  0  0  0  0  0  0  0  0  0  0
  145.4837  131.8620  155.2693 H   0  0  0  0  0  0  0  0  0  0  0  0
  151.5402  134.9408  154.7901 H   0  0  0  0  0  0  0  0  0  0  0  0
  143.8250  132.7150  153.3601 H   0  0  0  0  0  0  0  0  0  0  0  0
  1  2  1  0  0  0  0
  1 31  1  0  0  0  0
  1 32  1  0  0  0  0
  1 33  1  0  0  0  0
  2  6  1  0  0  0  0
  2  3  1  0  0  0  0
  2 34  1  0  0  0  0
  3  4  1  0  0  0  0
  4  5  1  0  0  0  0
  4 35  1  0  0  0  0
  4 36  1  0  0  0  0
  5  6  1  0  0  0  0
  5 37  1  0  0  0  0
  5 38  1  0  0  0  0
  6  7  1  0  0  0  0
  6  8  1  0  0  0  0
  7 39  1  0  0  0  0
  8  9  1  0  0  0  0
  8 40  1  0  0  0  0
  8 41  1  0  0  0  0
  9 28  1  0  0  0  0
  9 10  1  0  0  0  0
 10 11  2  0  0  0  0
 10 42  1  0  0  0  0
 11 12  1  0  0  0  0
 12 28  2  0  0  0  0
 12 13  1  0  0  0  0
 13 14  1  0  0  0  0
 13 25  2  0  0  0  0
 14 23  1  0  0  0  0
 14 15  1  0  0  0  0
 15 16  1  0  0  0  0
 15 43  1  0  0  0  0
 15 44  1  0  0  0  0
 16 17  1  0  0  0  0
 16 45  1  0  0  0  0
 16 46  1  0  0  0  0
 17 29  1  0  0  0  0
 17 18  1  0  0  0  0
 17 23  1  0  0  0  0
 18 19  1  0  0  0  0
 18 20  1  0  0  0  0
 18 59  1  0  0  0  0
 19 47  1  0  0  0  0
 19 48  1  0  0  0  0
 19 49  1  0  0  0  0
 20 21  1  0  0  0  0
 20 50  1  0  0  0  0
 20 51  1  0  0  0  0
 21 22  1  0  0  0  0
 21 52  1  0  0  0  0
 21 53  1  0  0  0  0
 22 54  1  0  0  0  0
 23 30  1  0  0  0  0
 23 24  1  0  0  0  0
 24 55  1  0  0  0  0
 24 56  1  0  0  0  0
 24 57  1  0  0  0  0
 25 26  1  0  0  0  0
 26 27  2  0  0  0  0
 26 58  1  0  0  0  0
 27 28  1  0  0  0  0
M  CHG  1  18   1
M  END
> <s_m_source_file>
AV-unprocessed.smi

> <i_m_source_file_index>
290

> <i_lp_mmshare_version>
43012

> <i_f3d_flags>
0

> <s_epik_input>
W0NIMl0xW0NIMl1PW0NAQEhdKFtDSDNdKVtDQEBdMShbT0hdKVtDSDJdbihbY0hdbjIpYyhjMjMpbltjSF1uYzNONFtDSDJdW0NIMl1bQ0BIXShbQ0BIXTRbQ0gzXSlOKFtDSDNdKVtDSDJdW0NIMl1bT0hd

> <s_epik_cmdline>
J2VwaWtfcHl0aG9uJywgJy1waCcsICc3LjAnLCAnLXRuJywgJzgnLCAnLW1hJywgJzIwMCcsICctbWV0YWxfYmluZGluZycsICctaW1hZScsICc8aW5maWxlLm1hZT4nLCAnLW9tYWUnLCAnPG91dGZpbGUubWFlPic=

> <r_lp_tautomer_probability>
1

> <r_epik_Ionization_Penalty>
0.0036983

> <r_epik_Ionization_Penalty_Charging>
0.0032725

> <r_epik_Ionization_Penalty_Neutral>
0.000425798

> <r_epik_State_Penalty>
-0

> <r_epik_Charging_Adjusted_Penalty>
0.0032725

> <i_epik_Tot_Q>
1

> <i_epik_Tot_abs_Q>
1

> <r_epik_Metal_State_Penalty>
-0

> <b_epik_Metal_Only>
0

> <s_lp_Force_Field>
OPLS_2005

> <r_lp_Energy>
65.8888

> <b_lp_Chiralities_Consistent>
1

> <s_lp_Variant>
AV-unprocessed.smi:290-2

> <Gold.Version>
5.8.1

> <Gold.Id.Protein>
6NUR|6NUR_protein|mol2

> <Gold.PLP.Fitness>
39.5075

> <Gold.PLP.PLP>
-29.4461

> <Gold.PLP.part.hbond>
-3.2791

> <Gold.PLP.part.metal>
0.0000

> <Gold.PLP.part.buried>
-6.3376

> <Gold.PLP.part.nonpolar>
-21.7806

> <Gold.PLP.part.repulsive>
0.3490

> <Gold.PLP.ligand.clash>
0.0000

> <Gold.PLP.ligand.torsion>
0.9297

> <Gold.PLP.Chemscore.Hbond>
3.8800

> <Gold.PLP.Chemscore.CHOScore>
0.0000

> <Gold.PLP.Chemscore.Metal>
0.0000

> <Gold.Chemscore.Hbonds>
donor molecule, donor type, donor heavy atom, donor atom, acceptor molecule, acceptor atom, score
      L1  H    18    59       P1 10957  1.89
      L1  H    22    54       P1 10186  0.91
      P1  H  7989  7998       L1     3  0.88

> <Gold.PLP.Chemscore.Internal.Correction>
0.2809

> <Gold.Rescore>
     Score         DG    S(hbond)    S(metal)    S(lipo)     H(rot)  DE(clash)    DE(int)     intcor
      7.15     -12.52       2.46        0.00      70.09       3.67       0.35       5.02       ----

> <Gold.Chemscore.Fitness>
7.1490

> <Gold.Chemscore.DG>
-12.5189

> <Gold.Chemscore.ZeroCoef>
-5.4800

> <Gold.Chemscore.Hbond>
2.4618

> <Gold.Chemscore.Metal>
0.0000

> <Gold.Chemscore.Lipo>
70.0942

> <Gold.Chemscore.Internal_Hbond>
0.0000

> <Gold.Chemscore.DEClash>
0.3538

> <Gold.Chemscore.DEInternal>
5.0161

> <Gold.Chemscore.Rot>
3.6658

> <Gold.Chemscore.Internal.Correction>
   9.000000E+99

> <Gold.Chemscore.Hbonds>
donor molecule, donor type, donor heavy atom, donor atom, acceptor molecule, acceptor atom, score
      L1  H    18    59       P1 10957  0.40
      L1  H    22    54       P1 10186  0.88
      P1  H  7989  7998       L1     3  0.38

> <Gold.Chemscore.Hbond.Weighted>
-8.2223

> <Gold.Chemscore.Metal.Weighted>
-0.0000

> <Gold.Chemscore.Lipo.Weighted>
-8.2010

> <Gold.Chemscore.Internal_Hbond.Weighted>
0.0000

> <Gold.Chemscore.DEClash.Weighted>
0.3538

> <Gold.Chemscore.DEInternal.Weighted>
5.0161

> <Gold.Chemscore.Rot.Weighted>
9.3844

> <Gold.Chemscore.Internal.Correction.Weighted>
   9.000000E+99

> <Gold.Protein.RotatedTorsions>
[ 6907 6896 6895 6894 ] final  -74.67 input  -60.11 | X-H torsion
[ 7974 7965 7964 7962 ] final -100.66 input  175.53 | X-H torsion
[ 8008 7997 7996 7995 ] final  171.49 input   59.86 | X-H torsion
[ 10167 10162 10161 10158 ] final  159.58 input  -65.29 | X-H torsion
[ 10718 10713 10712 10709 ] final  129.44 input   66.30 | X-H torsion
[ 10763 10752 10751 10750 ] final -169.67 input  -60.55 | X-H torsion
[ 11005 11000 10999 10996 ] final  123.27 input  -57.11 | X-H torsion

> <Gold.Protein.ActiveResidues>
 VAL166  LYS551  ARG553  GLY616  TRP617  ASP618  TYR619  PRO620  LYS621  CYS622 
 ASP623  PHE694  ASN695  SER759  ASP760  ASP761  ALA762  ILE779  LEU786  VAL792 
 PHE793  MET794  SER795  GLU796  ALA797  LYS798  CYS799  TRP800  GLU811  SER814 

> <Gold.Protein.RotatedAtoms>
  150.7085  134.4835  159.5481 H   0  0  0  0  0  0  0  0  0  0  0  0  # atno 6907 bound_to 6896
  152.2467  134.8171  160.0461 H   0  0  0  0  0  0  0  0  0  0  0  0  # atno 6908 bound_to 6896
  151.8933  133.3486  159.3842 H   0  0  0  0  0  0  0  0  0  0  0  0  # atno 6909 bound_to 6896
  145.2917  140.9354  143.2874 H   0  0  0  0  0  0  0  0  0  0  0  0  # atno 7974 bound_to 7965
  156.1266  140.1510  156.9128 H   0  0  0  0  0  0  0  0  0  0  0  0  # atno 8008 bound_to 7997
  154.4876  140.0860  156.7562 H   0  0  0  0  0  0  0  0  0  0  0  0  # atno 8009 bound_to 7997
  155.4333  140.3428  155.4284 H   0  0  0  0  0  0  0  0  0  0  0  0  # atno 8010 bound_to 7997
  139.4833  144.4716  151.8568 H   0  0  0  0  0  0  0  0  0  0  0  0  # atno 10167 bound_to 10162
  157.5154  131.1097  150.9232 H   0  0  0  0  0  0  0  0  0  0  0  0  # atno 10718 bound_to 10713
  154.6498  135.2910  155.0001 H   0  0  0  0  0  0  0  0  0  0  0  0  # atno 10763 bound_to 10752
  154.1098  135.6564  153.4887 H   0  0  0  0  0  0  0  0  0  0  0  0  # atno 10764 bound_to 10752
  153.0370  135.5262  154.7401 H   0  0  0  0  0  0  0  0  0  0  0  0  # atno 10765 bound_to 10752
  139.9305  134.9641  156.8234 H   0  0  0  0  0  0  0  0  0  0  0  0  # atno 11005 bound_to 11000
  144.9167  139.4461  143.6561 LP  0  0  0  0  0  0  0  0  0  0  0  0  # atno 17320 bound_to 7965
  146.3182  139.8005  142.8966 LP  0  0  0  0  0  0  0  0  0  0  0  0  # atno 17321 bound_to 7965
  140.4185  144.2274  150.5887 LP  0  0  0  0  0  0  0  0  0  0  0  0  # atno 17342 bound_to 10162
  140.4897  143.2351  151.8837 LP  0  0  0  0  0  0  0  0  0  0  0  0  # atno 17343 bound_to 10162
  156.9859  130.5544  149.5299 LP  0  0  0  0  0  0  0  0  0  0  0  0  # atno 17370 bound_to 10713
  156.0317  130.5408  150.8551 LP  0  0  0  0  0  0  0  0  0  0  0  0  # atno 17371 bound_to 10713
  140.6215  133.9989  155.7620 LP  0  0  0  0  0  0  0  0  0  0  0  0  # atno 17394 bound_to 11000
  141.0891  133.9945  157.3267 LP  0  0  0  0  0  0  0  0  0  0  0  0  # atno 17395 bound_to 11000

$$$$
