AV-unprocessed.smi:1368|AV-procd|sdf|5578|dock6
  -GOLD-   22720 5173D 1   1.00000     0.00000
 Structure written by MMmdl.
 47 49  0  0  0  0  0  0  0  0  2 V2000
  146.1217  130.8920  152.3913 C   0  0  0  0  0  0  0  0  0  0  0  0
  146.5221  132.2507  152.9570 C   0  0  0  0  0  0  0  0  0  0  0  0
  145.7595  133.2079  152.8299 O   0  0  0  0  0  0  0  0  0  0  0  0
  147.7273  132.2993  153.5536 N   0  0  0  0  0  0  0  0  0  0  0  0
  148.3672  133.4106  154.1665 C   0  0  0  0  0  0  0  0  0  0  0  0
  147.5565  134.5008  154.5406 C   0  0  0  0  0  0  0  0  0  0  0  0
  148.1251  135.6408  155.1395 C   0  0  0  0  0  0  0  0  0  0  0  0
  149.5136  135.7215  155.3656 C   0  0  0  0  0  0  0  0  0  0  0  0
  149.9863  136.8729  155.9583 O   0  0  0  0  0  0  0  0  0  0  0  0
  151.3847  137.1251  155.9173 C   0  0  0  0  0  0  0  0  0  0  0  0
  151.6184  138.6422  155.9872 C   0  0  1  0  0  0  0  0  0  0  0  0
  151.2747  139.2047  154.7362 O   0  0  0  0  0  0  0  0  0  0  0  0
  150.7695  139.3011  157.0929 C   0  0  0  0  0  0  0  0  0  0  0  0
  150.8126  140.7721  157.0523 N   0  0  0  0  0  0  0  0  0  0  0  0
  150.1434  141.6442  156.2454 C   0  0  0  0  0  0  0  0  0  0  0  0
  149.1674  141.2958  155.1724 C   0  0  0  0  0  0  0  0  0  0  0  0
  150.5333  142.9018  156.5967 N   0  3  0  0  0  0  0  0  0  0  0  0
  151.4585  142.8352  157.6392 C   0  0  0  0  0  0  0  0  0  0  0  0
  152.1314  143.8423  158.3243 C   0  0  0  0  0  0  0  0  0  0  0  0
  153.0112  143.4328  159.3476 C   0  0  0  0  0  0  0  0  0  0  0  0
  153.1942  142.0692  159.6558 C   0  0  0  0  0  0  0  0  0  0  0  0
  152.5082  141.0571  158.9526 C   0  0  0  0  0  0  0  0  0  0  0  0
  151.6413  141.4696  157.9404 C   0  0  0  0  0  0  0  0  0  0  0  0
  150.3315  134.6334  154.9713 C   0  0  0  0  0  0  0  0  0  0  0  0
  149.7644  133.4911  154.3737 C   0  0  0  0  0  0  0  0  0  0  0  0
  146.9409  130.4553  151.8191 H   0  0  0  0  0  0  0  0  0  0  0  0
  145.2589  130.9861  151.7307 H   0  0  0  0  0  0  0  0  0  0  0  0
  145.8607  130.2082  153.1994 H   0  0  0  0  0  0  0  0  0  0  0  0
  148.2803  131.4563  153.5006 H   0  0  0  0  0  0  0  0  0  0  0  0
  146.4893  134.4645  154.3767 H   0  0  0  0  0  0  0  0  0  0  0  0
  147.4874  136.4636  155.4280 H   0  0  0  0  0  0  0  0  0  0  0  0
  151.9126  136.6151  156.7254 H   0  0  0  0  0  0  0  0  0  0  0  0
  151.7731  136.7436  154.9714 H   0  0  0  0  0  0  0  0  0  0  0  0
  152.6725  138.8409  156.1846 H   0  0  0  0  0  0  0  0  0  0  0  0
  151.2220  138.5069  154.1004 H   0  0  0  0  0  0  0  0  0  0  0  0
  149.7326  138.9677  157.0480 H   0  0  0  0  0  0  0  0  0  0  0  0
  151.1394  138.9981  158.0731 H   0  0  0  0  0  0  0  0  0  0  0  0
  148.7461  142.1986  154.7295 H   0  0  0  0  0  0  0  0  0  0  0  0
  148.3527  140.6991  155.5826 H   0  0  0  0  0  0  0  0  0  0  0  0
  149.6601  140.7219  154.3875 H   0  0  0  0  0  0  0  0  0  0  0  0
  151.9912  144.8875  158.0908 H   0  0  0  0  0  0  0  0  0  0  0  0
  153.5549  144.1794  159.9081 H   0  0  0  0  0  0  0  0  0  0  0  0
  153.8741  141.7929  160.4489 H   0  0  0  0  0  0  0  0  0  0  0  0
  152.6521  140.0166  159.2028 H   0  0  0  0  0  0  0  0  0  0  0  0
  151.4015  134.6501  155.1115 H   0  0  0  0  0  0  0  0  0  0  0  0
  150.4243  132.6935  154.0692 H   0  0  0  0  0  0  0  0  0  0  0  0
  150.1893  143.7440  156.1538 H   0  0  0  0  0  0  0  0  0  0  0  0
  1  2  1  0  0  0  0
  1 26  1  0  0  0  0
  1 27  1  0  0  0  0
  1 28  1  0  0  0  0
  2  3  2  0  0  0  0
  2  4  1  0  0  0  0
  4  5  1  0  0  0  0
  4 29  1  0  0  0  0
  5 25  1  0  0  0  0
  5  6  2  0  0  0  0
  6  7  1  0  0  0  0
  6 30  1  0  0  0  0
  7  8  2  0  0  0  0
  7 31  1  0  0  0  0
  8  9  1  0  0  0  0
  8 24  1  0  0  0  0
  9 10  1  0  0  0  0
 10 11  1  0  0  0  0
 10 32  1  0  0  0  0
 10 33  1  0  0  0  0
 11 12  1  0  0  0  0
 11 13  1  0  0  0  0
 11 34  1  0  0  0  0
 12 35  1  0  0  0  0
 13 14  1  0  0  0  0
 13 36  1  0  0  0  0
 13 37  1  0  0  0  0
 14 23  1  0  0  0  0
 14 15  1  0  0  0  0
 15 16  1  0  0  0  0
 15 17  2  0  0  0  0
 16 38  1  0  0  0  0
 16 39  1  0  0  0  0
 16 40  1  0  0  0  0
 17 18  1  0  0  0  0
 17 47  1  0  0  0  0
 18 23  2  0  0  0  0
 18 19  1  0  0  0  0
 19 20  2  0  0  0  0
 19 41  1  0  0  0  0
 20 21  1  0  0  0  0
 20 42  1  0  0  0  0
 21 22  2  0  0  0  0
 21 43  1  0  0  0  0
 22 23  1  0  0  0  0
 22 44  1  0  0  0  0
 24 25  2  0  0  0  0
 24 45  1  0  0  0  0
 25 46  1  0  0  0  0
M  CHG  1  17   1
M  END
> <s_m_source_file>
AV-unprocessed.smi

> <i_m_source_file_index>
1368

> <i_lp_mmshare_version>
43012

> <i_f3d_flags>
0

> <s_epik_input>
W0NIM11DKD1PKVtOSF1jMVtjSF1bY0hdYyhbY0hdW2NIXTEpT1tDSDJdW0NASF0oW09IXSlbQ0gyXW4oYyhuMilbQ0gzXSljKGMyMylbY0hdW2NIXVtjSF1bY0hdMw==

> <s_epik_cmdline>
J2VwaWtfcHl0aG9uJywgJy1waCcsICc3LjAnLCAnLXRuJywgJzgnLCAnLW1hJywgJzIwMCcsICctbWV0YWxfYmluZGluZycsICctaW1hZScsICc8aW5maWxlLm1hZT4nLCAnLW9tYWUnLCAnPG91dGZpbGUubWFlPic=

> <r_lp_tautomer_probability>
1

> <r_epik_Ionization_Penalty>
1.00673

> <r_epik_Ionization_Penalty_Charging>
1.00673

> <r_epik_Ionization_Penalty_Neutral>
2.60899e-06

> <r_epik_State_Penalty>
1.05579

> <r_epik_Charging_Adjusted_Penalty>
2.06252

> <i_epik_Tot_Q>
1

> <i_epik_Tot_abs_Q>
1

> <r_epik_Metal_State_Penalty>
1.15682

> <b_epik_Metal_Only>
0

> <s_lp_Force_Field>
OPLS_2005

> <r_lp_Energy>
24.3516

> <b_lp_Chiralities_Consistent>
1

> <s_lp_Variant>
AV-unprocessed.smi:1368-4

> <Gold.Version>
5.8.1

> <Gold.Id.Protein>
6NUR|6NUR_protein|mol2

> <Gold.PLP.Fitness>
52.0552

> <Gold.PLP.PLP>
-44.5182

> <Gold.PLP.part.hbond>
-1.7776

> <Gold.PLP.part.metal>
0.0000

> <Gold.PLP.part.buried>
-7.4022

> <Gold.PLP.part.nonpolar>
-37.0635

> <Gold.PLP.part.repulsive>
0.2415

> <Gold.PLP.ligand.clash>
0.0000

> <Gold.PLP.ligand.torsion>
0.8234

> <Gold.PLP.Chemscore.Hbond>
3.0000

> <Gold.PLP.Chemscore.CHOScore>
0.0000

> <Gold.PLP.Chemscore.Metal>
0.0000

> <Gold.Chemscore.Hbonds>
donor molecule, donor type, donor heavy atom, donor atom, acceptor molecule, acceptor atom, score
      L1  H    17    47       P1  8028  2.00
      P1  H  7989  7998       L1    12  0.83

> <Gold.PLP.Chemscore.Internal.Correction>
0.1838

> <Gold.Rescore>
     Score         DG    S(hbond)    S(metal)    S(lipo)     H(rot)  DE(clash)    DE(int)     intcor
     16.54     -18.88       1.67        0.00     121.01       2.47       0.09       2.25       ----

> <Gold.Chemscore.Fitness>
16.5365

> <Gold.Chemscore.DG>
-18.8792

> <Gold.Chemscore.ZeroCoef>
-5.4800

> <Gold.Chemscore.Hbond>
1.6670

> <Gold.Chemscore.Metal>
0.0000

> <Gold.Chemscore.Lipo>
121.0129

> <Gold.Chemscore.Internal_Hbond>
0.0000

> <Gold.Chemscore.DEClash>
0.0941

> <Gold.Chemscore.DEInternal>
2.2486

> <Gold.Chemscore.Rot>
2.4715

> <Gold.Chemscore.Internal.Correction>
   9.000000E+99

> <Gold.Chemscore.Hbonds>
donor molecule, donor type, donor heavy atom, donor atom, acceptor molecule, acceptor atom, score
      L1  H    17    47       P1  8028  0.95
      P1  H  7989  7998       L1    12  0.25

> <Gold.Chemscore.Hbond.Weighted>
-5.5678

> <Gold.Chemscore.Metal.Weighted>
-0.0000

> <Gold.Chemscore.Lipo.Weighted>
-14.1585

> <Gold.Chemscore.Internal_Hbond.Weighted>
0.0000

> <Gold.Chemscore.DEClash.Weighted>
0.0941

> <Gold.Chemscore.DEInternal.Weighted>
2.2486

> <Gold.Chemscore.Rot.Weighted>
6.3271

> <Gold.Chemscore.Internal.Correction.Weighted>
   9.000000E+99

> <Gold.Protein.RotatedTorsions>
[ 6907 6896 6895 6894 ] final  -20.75 input  -60.11 | X-H torsion
[ 7974 7965 7964 7962 ] final  113.48 input  175.53 | X-H torsion
[ 8008 7997 7996 7995 ] final  -21.17 input   59.86 | X-H torsion
[ 10167 10162 10161 10158 ] final  103.83 input  -65.29 | X-H torsion
[ 10718 10713 10712 10709 ] final  -72.08 input   66.30 | X-H torsion
[ 10763 10752 10751 10750 ] final -125.81 input  -60.55 | X-H torsion
[ 11005 11000 10999 10996 ] final -150.06 input  -57.11 | X-H torsion

> <Gold.Protein.ActiveResidues>
 VAL166  LYS551  ARG553  GLY616  TRP617  ASP618  TYR619  PRO620  LYS621  CYS622 
 ASP623  PHE694  ASN695  SER759  ASP760  ASP761  ALA762  ILE779  LEU786  VAL792 
 PHE793  MET794  SER795  GLU796  ALA797  LYS798  CYS799  TRP800  GLU811  SER814 

> <Gold.Protein.RotatedAtoms>
  151.2436  135.0597  159.9034 H   0  0  0  0  0  0  0  0  0  0  0  0  # atno 6907 bound_to 6896
  152.5390  134.0408  159.8077 H   0  0  0  0  0  0  0  0  0  0  0  0  # atno 6908 bound_to 6896
  151.0605  133.5499  159.2666 H   0  0  0  0  0  0  0  0  0  0  0  0  # atno 6909 bound_to 6896
  145.2164  139.2882  143.4241 H   0  0  0  0  0  0  0  0  0  0  0  0  # atno 7974 bound_to 7965
  154.4723  140.2042  155.9965 H   0  0  0  0  0  0  0  0  0  0  0  0  # atno 8008 bound_to 7997
  156.1031  140.3241  155.7939 H   0  0  0  0  0  0  0  0  0  0  0  0  # atno 8009 bound_to 7997
  155.4764  140.0535  157.2963 H   0  0  0  0  0  0  0  0  0  0  0  0  # atno 8010 bound_to 7997
  139.7229  144.7054  151.0844 H   0  0  0  0  0  0  0  0  0  0  0  0  # atno 10167 bound_to 10162
  156.0335  130.4364  150.2539 H   0  0  0  0  0  0  0  0  0  0  0  0  # atno 10718 bound_to 10713
  154.8739  135.4017  154.3328 H   0  0  0  0  0  0  0  0  0  0  0  0  # atno 10763 bound_to 10752
  153.4139  135.7021  153.6345 H   0  0  0  0  0  0  0  0  0  0  0  0  # atno 10764 bound_to 10752
  153.5036  135.3722  155.2522 H   0  0  0  0  0  0  0  0  0  0  0  0  # atno 10765 bound_to 10752
  140.7442  134.3480  157.5141 H   0  0  0  0  0  0  0  0  0  0  0  0  # atno 11005 bound_to 11000
  146.3386  140.2456  142.8597 LP  0  0  0  0  0  0  0  0  0  0  0  0  # atno 17320 bound_to 7965
  144.9807  140.8456  143.5399 LP  0  0  0  0  0  0  0  0  0  0  0  0  # atno 17321 bound_to 7965
  140.7757  143.5143  150.9614 LP  0  0  0  0  0  0  0  0  0  0  0  0  # atno 17342 bound_to 10162
  139.8830  143.7048  152.3154 LP  0  0  0  0  0  0  0  0  0  0  0  0  # atno 17343 bound_to 10162
  157.0640  131.0098  151.3213 LP  0  0  0  0  0  0  0  0  0  0  0  0  # atno 17370 bound_to 10713
  157.5049  130.7903  149.7643 LP  0  0  0  0  0  0  0  0  0  0  0  0  # atno 17371 bound_to 10713
  139.8800  134.9100  156.3005 LP  0  0  0  0  0  0  0  0  0  0  0  0  # atno 17394 bound_to 11000
  140.9809  133.7268  156.0671 LP  0  0  0  0  0  0  0  0  0  0  0  0  # atno 17395 bound_to 11000

$$$$
