AV-unprocessed.smi:153|AV-procd|sdf|1250|dock6
  -GOLD-   2262018483D 1   1.00000     0.00000
 Structure written by MMmdl.
 60 63  0  0  0  0  0  0  0  0  2 V2000
  150.1229  137.0167  156.9078 C   0  0  0  0  0  0  0  0  0  0  0  0
  150.8709  137.5514  155.6739 C   0  0  2  0  0  0  0  0  0  0  0  0
  152.2217  137.1253  155.8624 O   0  0  0  0  0  0  0  0  0  0  0  0
  153.0835  138.2317  156.1097 C   0  0  0  0  0  0  0  0  0  0  0  0
  152.1655  139.4196  156.3788 C   0  0  0  0  0  0  0  0  0  0  0  0
  150.9396  139.0910  155.5440 C   0  0  1  0  0  0  0  0  0  0  0  0
  151.2322  139.3907  154.1890 O   0  0  0  0  0  0  0  0  0  0  0  0
  149.6815  139.9026  155.9629 C   0  0  0  0  0  0  0  0  0  0  0  0
  148.4277  139.4265  155.3877 N   0  0  0  0  0  0  0  0  0  0  0  0
  148.0036  139.5529  154.0850 C   0  0  0  0  0  0  0  0  0  0  0  0
  146.8404  139.0240  153.8254 N   0  0  0  0  0  0  0  0  0  0  0  0
  146.4247  138.4739  155.0332 C   0  0  0  0  0  0  0  0  0  0  0  0
  145.2734  137.7426  155.4647 C   0  0  0  0  0  0  0  0  0  0  0  0
  144.2138  137.4047  154.6735 N   0  0  0  0  0  0  0  0  0  0  0  0
  144.2107  137.7672  153.2615 C   0  0  0  0  0  0  0  0  0  0  0  0
  143.2169  136.4327  155.1330 C   0  0  0  0  0  0  0  0  0  0  0  0
  143.1493  135.1771  154.2399 C   0  0  2  0  0  0  0  0  0  0  0  0
  142.2473  134.2787  154.8548 O   0  0  0  0  0  0  0  0  0  0  0  0
  144.5137  134.4694  154.0842 C   0  0  0  0  0  0  0  0  0  0  0  0
  144.5013  133.4103  153.0446 N   0  3  0  0  0  0  0  0  0  0  0  0
  144.1257  133.9085  151.6975 C   0  0  0  0  0  0  0  0  0  0  0  0
  144.1067  132.7532  150.6820 C   0  0  0  0  0  0  0  0  0  0  0  0
  145.3762  132.1129  150.6621 O   0  0  0  0  0  0  0  0  0  0  0  0
  145.7094  131.5529  151.9260 C   0  0  0  0  0  0  0  0  0  0  0  0
  145.7834  132.6692  152.9812 C   0  0  0  0  0  0  0  0  0  0  0  0
  145.2564  137.3436  156.7647 N   0  0  0  0  0  0  0  0  0  0  0  0
  146.2708  137.6263  157.5848 C   0  0  0  0  0  0  0  0  0  0  0  0
  147.3946  138.2898  157.3186 N   0  0  0  0  0  0  0  0  0  0  0  0
  147.4275  138.7055  156.0207 C   0  0  0  0  0  0  0  0  0  0  0  0
  149.0575  137.2231  156.8635 H   0  0  0  0  0  0  0  0  0  0  0  0
  150.5098  137.4482  157.8311 H   0  0  0  0  0  0  0  0  0  0  0  0
  150.2331  135.9346  156.9816 H   0  0  0  0  0  0  0  0  0  0  0  0
  150.4523  137.0908  154.7777 H   0  0  0  0  0  0  0  0  0  0  0  0
  153.7599  138.0324  156.9410 H   0  0  0  0  0  0  0  0  0  0  0  0
  153.6870  138.4085  155.2186 H   0  0  0  0  0  0  0  0  0  0  0  0
  151.9032  139.4466  157.4374 H   0  0  0  0  0  0  0  0  0  0  0  0
  152.6237  140.3767  156.1265 H   0  0  0  0  0  0  0  0  0  0  0  0
  150.9259  138.6775  153.6500 H   0  0  0  0  0  0  0  0  0  0  0  0
  149.5787  139.9384  157.0477 H   0  0  0  0  0  0  0  0  0  0  0  0
  149.8063  140.9402  155.6508 H   0  0  0  0  0  0  0  0  0  0  0  0
  148.5838  140.0378  153.3159 H   0  0  0  0  0  0  0  0  0  0  0  0
  144.4285  138.8278  153.1320 H   0  0  0  0  0  0  0  0  0  0  0  0
  143.2351  137.5773  152.8133 H   0  0  0  0  0  0  0  0  0  0  0  0
  144.9486  137.1831  152.7114 H   0  0  0  0  0  0  0  0  0  0  0  0
  143.3590  136.1529  156.1770 H   0  0  0  0  0  0  0  0  0  0  0  0
  142.2489  136.9350  155.1097 H   0  0  0  0  0  0  0  0  0  0  0  0
  142.7345  135.4543  153.2714 H   0  0  0  0  0  0  0  0  0  0  0  0
  142.5303  133.3938  154.6836 H   0  0  0  0  0  0  0  0  0  0  0  0
  145.2987  135.1805  153.8293 H   0  0  0  0  0  0  0  0  0  0  0  0
  144.7959  134.0428  155.0484 H   0  0  0  0  0  0  0  0  0  0  0  0
  143.1449  134.3818  151.7230 H   0  0  0  0  0  0  0  0  0  0  0  0
  144.8380  134.6705  151.3765 H   0  0  0  0  0  0  0  0  0  0  0  0
  143.3249  132.0322  150.9254 H   0  0  0  0  0  0  0  0  0  0  0  0
  143.8887  133.1341  149.6841 H   0  0  0  0  0  0  0  0  0  0  0  0
  144.9747  130.7973  152.2086 H   0  0  0  0  0  0  0  0  0  0  0  0
  146.6719  131.0471  151.8462 H   0  0  0  0  0  0  0  0  0  0  0  0
  146.5938  133.3592  152.7407 H   0  0  0  0  0  0  0  0  0  0  0  0
  146.0092  132.2354  153.9561 H   0  0  0  0  0  0  0  0  0  0  0  0
  146.1669  137.2689  158.5987 H   0  0  0  0  0  0  0  0  0  0  0  0
  143.8009  132.7381  153.3227 H   0  0  0  0  0  0  0  0  0  0  0  0
  1  2  1  0  0  0  0
  1 30  1  0  0  0  0
  1 31  1  0  0  0  0
  1 32  1  0  0  0  0
  2  6  1  0  0  0  0
  2  3  1  0  0  0  0
  2 33  1  0  0  0  0
  3  4  1  0  0  0  0
  4  5  1  0  0  0  0
  4 34  1  0  0  0  0
  4 35  1  0  0  0  0
  5  6  1  0  0  0  0
  5 36  1  0  0  0  0
  5 37  1  0  0  0  0
  6  7  1  0  0  0  0
  6  8  1  0  0  0  0
  7 38  1  0  0  0  0
  8  9  1  0  0  0  0
  8 39  1  0  0  0  0
  8 40  1  0  0  0  0
  9 29  1  0  0  0  0
  9 10  1  0  0  0  0
 10 11  2  0  0  0  0
 10 41  1  0  0  0  0
 11 12  1  0  0  0  0
 12 29  2  0  0  0  0
 12 13  1  0  0  0  0
 13 14  1  0  0  0  0
 13 26  2  0  0  0  0
 14 15  1  0  0  0  0
 14 16  1  0  0  0  0
 15 42  1  0  0  0  0
 15 43  1  0  0  0  0
 15 44  1  0  0  0  0
 16 17  1  0  0  0  0
 16 45  1  0  0  0  0
 16 46  1  0  0  0  0
 17 18  1  0  0  0  0
 17 19  1  0  0  0  0
 17 47  1  0  0  0  0
 18 48  1  0  0  0  0
 19 20  1  0  0  0  0
 19 49  1  0  0  0  0
 19 50  1  0  0  0  0
 20 25  1  0  0  0  0
 20 21  1  0  0  0  0
 20 60  1  0  0  0  0
 21 22  1  0  0  0  0
 21 51  1  0  0  0  0
 21 52  1  0  0  0  0
 22 23  1  0  0  0  0
 22 53  1  0  0  0  0
 22 54  1  0  0  0  0
 23 24  1  0  0  0  0
 24 25  1  0  0  0  0
 24 55  1  0  0  0  0
 24 56  1  0  0  0  0
 25 57  1  0  0  0  0
 25 58  1  0  0  0  0
 26 27  1  0  0  0  0
 27 28  2  0  0  0  0
 27 59  1  0  0  0  0
 28 29  1  0  0  0  0
M  CHG  1  20   1
M  END
> <s_m_source_file>
AV-unprocessed.smi

> <i_m_source_file_index>
153

> <i_lp_mmshare_version>
43012

> <i_f3d_flags>
0

> <s_epik_input>
W0NIMl0xW0NIMl1PW0NAQEhdKFtDSDNdKVtDQEBdMShbT0hdKVtDSDJdbihbY0hdbjIpYyhjMjMpbltjSF1uYzNOKFtDSDNdKVtDSDJdW0NASF0oW09IXSlbQ0gyXU40W0NIMl1bQ0gyXU9bQ0gyXVtDSDJdNA==

> <s_epik_cmdline>
J2VwaWtfcHl0aG9uJywgJy1waCcsICc3LjAnLCAnLXRuJywgJzgnLCAnLW1hJywgJzIwMCcsICctbWV0YWxfYmluZGluZycsICctaW1hZScsICc8aW5maWxlLm1hZT4nLCAnLW9tYWUnLCAnPG91dGZpbGUubWFlPic=

> <r_lp_tautomer_probability>
1

> <r_epik_Ionization_Penalty>
0.403509

> <r_epik_Ionization_Penalty_Charging>
0.40072

> <r_epik_Ionization_Penalty_Neutral>
0.00278876

> <r_epik_State_Penalty>
0.400058

> <r_epik_Charging_Adjusted_Penalty>
0.800778

> <i_epik_Tot_Q>
1

> <i_epik_Tot_abs_Q>
1

> <r_epik_Metal_State_Penalty>
0.400321

> <b_epik_Metal_Only>
0

> <s_lp_Force_Field>
OPLS_2005

> <r_lp_Energy>
46.9593

> <b_lp_Chiralities_Consistent>
1

> <s_lp_Variant>
AV-unprocessed.smi:153-1

> <Gold.Version>
5.8.1

> <Gold.Id.Protein>
6NUR|6NUR_protein|mol2

> <Gold.PLP.Fitness>
42.2148

> <Gold.PLP.PLP>
-22.5291

> <Gold.PLP.part.hbond>
-4.7103

> <Gold.PLP.part.metal>
0.0000

> <Gold.PLP.part.buried>
-0.8525

> <Gold.PLP.part.nonpolar>
-18.4946

> <Gold.PLP.part.repulsive>
0.2991

> <Gold.PLP.ligand.clash>
0.0000

> <Gold.PLP.ligand.torsion>
0.4437

> <Gold.PLP.Chemscore.Hbond>
5.7600

> <Gold.PLP.Chemscore.CHOScore>
1.0000

> <Gold.PLP.Chemscore.Metal>
0.0000

> <Gold.Chemscore.Hbonds>
donor molecule, donor type, donor heavy atom, donor atom, acceptor molecule, acceptor atom, score
      L1  H    18    48       P1 10957  1.00
      L1  H    20    60       P1 10957  1.76
      P1  H  7989  7998       L1     7  1.00
      P1  H 10752 10763       L1     3  0.89
      P1  H 11000 11005       L1    18  0.68
      L1  C    10    41       P1  7957  1.00

> <Gold.PLP.Chemscore.Internal.Correction>
0.2932

> <Gold.Rescore>
     Score         DG    S(hbond)    S(metal)    S(lipo)     H(rot)  DE(clash)    DE(int)     intcor
     13.44     -15.73       3.68        0.00      61.76       3.62       0.85       1.44       ----

> <Gold.Chemscore.Fitness>
13.4361

> <Gold.Chemscore.DG>
-15.7309

> <Gold.Chemscore.ZeroCoef>
-5.4800

> <Gold.Chemscore.Hbond>
3.6787

> <Gold.Chemscore.Metal>
0.0000

> <Gold.Chemscore.Lipo>
61.7644

> <Gold.Chemscore.Internal_Hbond>
0.0000

> <Gold.Chemscore.DEClash>
0.8533

> <Gold.Chemscore.DEInternal>
1.4416

> <Gold.Chemscore.Rot>
3.6182

> <Gold.Chemscore.Internal.Correction>
   9.000000E+99

> <Gold.Chemscore.Hbonds>
donor molecule, donor type, donor heavy atom, donor atom, acceptor molecule, acceptor atom, score
      L1  H    18    48       P1 10957  0.99
      L1  H    20    60       P1 10957  0.37
      P1  H  7989  7998       L1     7  0.97
      P1  H 10752 10763       L1     3  0.75
      P1  H 11000 11005       L1    18  0.10

> <Gold.Chemscore.Hbond.Weighted>
-12.2870

> <Gold.Chemscore.Metal.Weighted>
-0.0000

> <Gold.Chemscore.Lipo.Weighted>
-7.2264

> <Gold.Chemscore.Internal_Hbond.Weighted>
0.0000

> <Gold.Chemscore.DEClash.Weighted>
0.8533

> <Gold.Chemscore.DEInternal.Weighted>
1.4416

> <Gold.Chemscore.Rot.Weighted>
9.2625

> <Gold.Chemscore.Internal.Correction.Weighted>
   9.000000E+99

> <Gold.Protein.RotatedTorsions>
[ 6907 6896 6895 6894 ] final   26.08 input  -60.11 | X-H torsion
[ 7974 7965 7964 7962 ] final    2.37 input  175.53 | X-H torsion
[ 8008 7997 7996 7995 ] final    8.99 input   59.86 | X-H torsion
[ 10167 10162 10161 10158 ] final   56.90 input  -65.29 | X-H torsion
[ 10718 10713 10712 10709 ] final   35.98 input   66.30 | X-H torsion
[ 10763 10752 10751 10750 ] final   78.59 input  -60.55 | X-H torsion
[ 11005 11000 10999 10996 ] final  -17.43 input  -57.11 | X-H torsion

> <Gold.Protein.ActiveResidues>
 VAL166  LYS551  ARG553  GLY616  TRP617  ASP618  TYR619  PRO620  LYS621  CYS622 
 ASP623  PHE694  ASN695  SER759  ASP760  ASP761  ALA762  ILE779  LEU786  VAL792 
 PHE793  MET794  SER795  GLU796  ALA797  LYS798  CYS799  TRP800  GLU811  SER814 

> <Gold.Protein.RotatedAtoms>
  151.9821  135.0023  160.0557 H   0  0  0  0  0  0  0  0  0  0  0  0  # atno 6907 bound_to 6896
  152.1686  133.4624  159.4906 H   0  0  0  0  0  0  0  0  0  0  0  0  # atno 6908 bound_to 6896
  150.6898  134.1899  159.4324 H   0  0  0  0  0  0  0  0  0  0  0  0  # atno 6909 bound_to 6896
  146.2443  140.0847  142.8355 H   0  0  0  0  0  0  0  0  0  0  0  0  # atno 7974 bound_to 7965
  154.7741  140.2807  155.6115 H   0  0  0  0  0  0  0  0  0  0  0  0  # atno 8008 bound_to 7997
  156.2939  140.2636  156.2479 H   0  0  0  0  0  0  0  0  0  0  0  0  # atno 8009 bound_to 7997
  154.9864  140.0374  157.2290 H   0  0  0  0  0  0  0  0  0  0  0  0  # atno 8010 bound_to 7997
  140.2037  144.3961  150.6518 H   0  0  0  0  0  0  0  0  0  0  0  0  # atno 10167 bound_to 10162
  157.3293  130.7489  149.6837 H   0  0  0  0  0  0  0  0  0  0  0  0  # atno 10718 bound_to 10713
  153.0886  135.4871  154.8645 H   0  0  0  0  0  0  0  0  0  0  0  0  # atno 10763 bound_to 10752
  154.7241  135.3046  154.9001 H   0  0  0  0  0  0  0  0  0  0  0  0  # atno 10764 bound_to 10752
  153.9657  135.6807  153.4799 H   0  0  0  0  0  0  0  0  0  0  0  0  # atno 10765 bound_to 10752
  140.8167  133.8099  155.9618 H   0  0  0  0  0  0  0  0  0  0  0  0  # atno 11005 bound_to 11000
  145.0702  140.9150  143.4886 LP  0  0  0  0  0  0  0  0  0  0  0  0  # atno 17320 bound_to 7965
  145.0979  139.2843  143.5701 LP  0  0  0  0  0  0  0  0  0  0  0  0  # atno 17321 bound_to 7965
  140.6372  143.2197  151.6369 LP  0  0  0  0  0  0  0  0  0  0  0  0  # atno 17342 bound_to 10162
  139.5207  144.3216  152.0906 LP  0  0  0  0  0  0  0  0  0  0  0  0  # atno 17343 bound_to 10162
  155.9694  130.4200  150.4401 LP  0  0  0  0  0  0  0  0  0  0  0  0  # atno 17370 bound_to 10713
  157.2430  131.0529  151.2425 LP  0  0  0  0  0  0  0  0  0  0  0  0  # atno 17371 bound_to 10713
  140.9141  134.2223  157.4967 LP  0  0  0  0  0  0  0  0  0  0  0  0  # atno 17394 bound_to 11000
  139.8710  134.9763  156.4917 LP  0  0  0  0  0  0  0  0  0  0  0  0  # atno 17395 bound_to 11000

$$$$
