AV-unprocessed.smi:2809|AV-procd|sdf|10826|dock3
  -GOLD-   2272015263D 1   1.00000     0.00000
 Structure written by MMmdl.
 44 45  0  0  0  0  0  0  0  0  1 V2000
  153.0159  142.3351  162.4730 C   0  0  0  0  0  0  0  0  0  0  0  0
  153.2248  143.1657  161.2023 C   0  0  0  0  0  0  0  0  0  0  0  0
  152.5985  142.5184  159.9817 C   0  0  0  0  0  0  0  0  0  0  0  0
  151.6428  143.2178  159.2186 C   0  0  0  0  0  0  0  0  0  0  0  0
  151.0610  142.6127  158.0881 C   0  0  0  0  0  0  0  0  0  0  0  0
  151.4214  141.3054  157.7024 C   0  0  0  0  0  0  0  0  0  0  0  0
  150.7967  140.7896  156.5876 O   0  0  0  0  0  0  0  0  0  0  0  0
  150.2961  141.6963  155.6125 C   0  0  0  0  0  0  0  0  0  0  0  0
  149.3347  140.9593  154.6653 C   0  0  1  0  0  0  0  0  0  0  0  0
  150.0975  140.0289  153.9232 O   0  0  0  0  0  0  0  0  0  0  0  0
  148.1816  140.2443  155.4044 C   0  0  0  0  0  0  0  0  0  0  0  0
  147.1496  141.1886  155.8638 N   0  0  0  0  0  0  0  0  0  0  0  0
  146.8893  141.2016  157.2438 C   0  0  0  0  0  0  0  0  0  0  0  0
  145.9990  141.9843  157.7599 N   0  0  0  0  0  0  0  0  0  0  0  0
  145.2645  142.8428  156.9367 C   0  0  0  0  0  0  0  0  0  0  0  0
  144.2415  143.7141  157.6439 C   0  0  0  0  0  0  0  0  0  0  0  0
  145.4660  142.8762  155.5910 C   0  0  0  0  0  0  0  0  0  0  0  0
  144.6917  143.7851  154.6446 C   0  0  0  0  0  0  0  0  0  0  0  0
  146.4748  141.9893  154.9892 C   0  0  0  0  0  0  0  0  0  0  0  0
  146.7012  141.9593  153.7779 O   0  0  0  0  0  0  0  0  0  0  0  0
  152.3881  140.6086  158.4703 C   0  0  0  0  0  0  0  0  0  0  0  0
  152.9703  141.2132  159.6015 C   0  0  0  0  0  0  0  0  0  0  0  0
  153.4743  142.8218  163.3341 H   0  0  0  0  0  0  0  0  0  0  0  0
  153.4615  141.3449  162.3744 H   0  0  0  0  0  0  0  0  0  0  0  0
  151.9551  142.2058  162.6895 H   0  0  0  0  0  0  0  0  0  0  0  0
  152.8003  144.1613  161.3370 H   0  0  0  0  0  0  0  0  0  0  0  0
  154.2916  143.3091  161.0260 H   0  0  0  0  0  0  0  0  0  0  0  0
  151.3521  144.2202  159.4974 H   0  0  0  0  0  0  0  0  0  0  0  0
  150.3282  143.1577  157.5113 H   0  0  0  0  0  0  0  0  0  0  0  0
  149.7507  142.4947  156.1185 H   0  0  0  0  0  0  0  0  0  0  0  0
  151.1063  142.1569  155.0442 H   0  0  0  0  0  0  0  0  0  0  0  0
  148.9362  141.6898  153.9604 H   0  0  0  0  0  0  0  0  0  0  0  0
  149.6713  139.8900  153.0911 H   0  0  0  0  0  0  0  0  0  0  0  0
  147.7625  139.4499  154.7831 H   0  0  0  0  0  0  0  0  0  0  0  0
  148.5823  139.7200  156.2741 H   0  0  0  0  0  0  0  0  0  0  0  0
  147.4836  140.5076  157.8408 H   0  0  0  0  0  0  0  0  0  0  0  0
  144.4742  144.7693  157.5001 H   0  0  0  0  0  0  0  0  0  0  0  0
  144.2267  143.5191  158.7171 H   0  0  0  0  0  0  0  0  0  0  0  0
  143.2412  143.5205  157.2558 H   0  0  0  0  0  0  0  0  0  0  0  0
  144.1099  143.1864  153.9433 H   0  0  0  0  0  0  0  0  0  0  0  0
  145.3799  144.4066  154.0707 H   0  0  0  0  0  0  0  0  0  0  0  0
  144.0024  144.4528  155.1590 H   0  0  0  0  0  0  0  0  0  0  0  0
  152.7012  139.6084  158.2129 H   0  0  0  0  0  0  0  0  0  0  0  0
  153.7052  140.6700  160.1775 H   0  0  0  0  0  0  0  0  0  0  0  0
  1  2  1  0  0  0  0
  1 23  1  0  0  0  0
  1 24  1  0  0  0  0
  1 25  1  0  0  0  0
  2  3  1  0  0  0  0
  2 26  1  0  0  0  0
  2 27  1  0  0  0  0
  3 22  1  0  0  0  0
  3  4  2  0  0  0  0
  4  5  1  0  0  0  0
  4 28  1  0  0  0  0
  5  6  2  0  0  0  0
  5 29  1  0  0  0  0
  6  7  1  0  0  0  0
  6 21  1  0  0  0  0
  7  8  1  0  0  0  0
  8  9  1  0  0  0  0
  8 30  1  0  0  0  0
  8 31  1  0  0  0  0
  9 10  1  0  0  0  0
  9 11  1  0  0  0  0
  9 32  1  0  0  0  0
 10 33  1  0  0  0  0
 11 12  1  0  0  0  0
 11 34  1  0  0  0  0
 11 35  1  0  0  0  0
 12 19  1  0  0  0  0
 12 13  1  0  0  0  0
 13 14  2  0  0  0  0
 13 36  1  0  0  0  0
 14 15  1  0  0  0  0
 15 16  1  0  0  0  0
 15 17  2  0  0  0  0
 16 37  1  0  0  0  0
 16 38  1  0  0  0  0
 16 39  1  0  0  0  0
 17 18  1  0  0  0  0
 17 19  1  0  0  0  0
 18 40  1  0  0  0  0
 18 41  1  0  0  0  0
 18 42  1  0  0  0  0
 19 20  2  0  0  0  0
 21 22  2  0  0  0  0
 21 43  1  0  0  0  0
 22 44  1  0  0  0  0
M  END
> <s_m_source_file>
AV-unprocessed.smi

> <i_m_source_file_index>
2809

> <i_lp_mmshare_version>
43012

> <i_f3d_flags>
0

> <s_epik_input>
W0NIM11bQ0gyXWMxW2NIXVtjSF1jKFtjSF1bY0hdMSlPW0NIMl1bQ0BIXShbT0hdKVtDSDJdbjJbY0hdbmMoW0NIM10pYyhbQ0gzXSljMj1P

> <s_epik_cmdline>
J2VwaWtfcHl0aG9uJywgJy1waCcsICc3LjAnLCAnLXRuJywgJzgnLCAnLW1hJywgJzIwMCcsICctbWV0YWxfYmluZGluZycsICctaW1hZScsICc8aW5maWxlLm1hZT4nLCAnLW9tYWUnLCAnPG91dGZpbGUubWFlPic=

> <r_lp_tautomer_probability>
1

> <r_epik_Ionization_Penalty>
3.74127e-05

> <r_epik_Ionization_Penalty_Charging>
8.43242e-08

> <r_epik_Ionization_Penalty_Neutral>
3.73284e-05

> <r_epik_State_Penalty>
-0

> <r_epik_Charging_Adjusted_Penalty>
8.43242e-08

> <i_epik_Tot_Q>
0

> <i_epik_Tot_abs_Q>
0

> <r_epik_Metal_State_Penalty>
-0

> <b_epik_Metal_Only>
0

> <s_lp_Force_Field>
OPLS_2005

> <r_lp_Energy>
23.3526

> <b_lp_Chiralities_Consistent>
1

> <s_lp_Variant>
AV-unprocessed.smi:2809-2

> <Gold.Version>
5.8.1

> <Gold.Id.Protein>
6NUR|6NUR_protein|mol2

> <Gold.PLP.Fitness>
45.6180

> <Gold.PLP.PLP>
-40.9146

> <Gold.PLP.part.hbond>
-2.0000

> <Gold.PLP.part.metal>
0.0000

> <Gold.PLP.part.buried>
-6.5667

> <Gold.PLP.part.nonpolar>
-32.5398

> <Gold.PLP.part.repulsive>
0.3021

> <Gold.PLP.ligand.clash>
0.0612

> <Gold.PLP.ligand.torsion>
0.5618

> <Gold.PLP.Chemscore.Hbond>
1.9440

> <Gold.PLP.Chemscore.CHOScore>
0.0000

> <Gold.PLP.Chemscore.Metal>
0.0000

> <Gold.Chemscore.Hbonds>
donor molecule, donor type, donor heavy atom, donor atom, acceptor molecule, acceptor atom, score
      L1  H    10    33       P1  7957  1.00
      P1  H  7989  7998       L1    10  0.90

> <Gold.PLP.Chemscore.Internal.Correction>
0.0562

> <Gold.Rescore>
     Score         DG    S(hbond)    S(metal)    S(lipo)     H(rot)  DE(clash)    DE(int)     intcor
     14.33     -15.93       1.32        0.00     105.67       2.47       0.12       1.49       ----

> <Gold.Chemscore.Fitness>
14.3301

> <Gold.Chemscore.DG>
-15.9346

> <Gold.Chemscore.ZeroCoef>
-5.4800

> <Gold.Chemscore.Hbond>
1.3183

> <Gold.Chemscore.Metal>
0.0000

> <Gold.Chemscore.Lipo>
105.6697

> <Gold.Chemscore.Internal_Hbond>
0.0000

> <Gold.Chemscore.DEClash>
0.1179

> <Gold.Chemscore.DEInternal>
1.4866

> <Gold.Chemscore.Rot>
2.4657

> <Gold.Chemscore.Internal.Correction>
   9.000000E+99

> <Gold.Chemscore.Hbonds>
donor molecule, donor type, donor heavy atom, donor atom, acceptor molecule, acceptor atom, score
      L1  H    10    33       P1  7957  0.95
      P1  H  7989  7998       L1    10  0.19

> <Gold.Chemscore.Hbond.Weighted>
-4.4033

> <Gold.Chemscore.Metal.Weighted>
-0.0000

> <Gold.Chemscore.Lipo.Weighted>
-12.3634

> <Gold.Chemscore.Internal_Hbond.Weighted>
0.0000

> <Gold.Chemscore.DEClash.Weighted>
0.1179

> <Gold.Chemscore.DEInternal.Weighted>
1.4866

> <Gold.Chemscore.Rot.Weighted>
6.3121

> <Gold.Chemscore.Internal.Correction.Weighted>
   9.000000E+99

> <Gold.Protein.RotatedTorsions>
[ 6907 6896 6895 6894 ] final   57.34 input  -60.11 | X-H torsion
[ 7974 7965 7964 7962 ] final -159.76 input  175.53 | X-H torsion
[ 8008 7997 7996 7995 ] final  116.00 input   59.86 | X-H torsion
[ 10167 10162 10161 10158 ] final  146.39 input  -65.29 | X-H torsion
[ 10718 10713 10712 10709 ] final   10.05 input   66.30 | X-H torsion
[ 10763 10752 10751 10750 ] final   63.99 input  -60.55 | X-H torsion
[ 11005 11000 10999 10996 ] final  159.77 input  -57.11 | X-H torsion

> <Gold.Protein.ActiveResidues>
 VAL166  LYS551  ARG553  GLY616  TRP617  ASP618  TYR619  PRO620  LYS621  CYS622 
 ASP623  PHE694  ASN695  SER759  ASP760  ASP761  ALA762  ILE779  LEU786  VAL792 
 PHE793  MET794  SER795  GLU796  ALA797  LYS798  CYS799  TRP800  GLU811  SER814 

> <Gold.Protein.RotatedAtoms>
  152.3722  134.6717  160.0171 H   0  0  0  0  0  0  0  0  0  0  0  0  # atno 6907 bound_to 6896
  151.7007  133.3305  159.3274 H   0  0  0  0  0  0  0  0  0  0  0  0  # atno 6908 bound_to 6896
  150.7682  134.6554  159.6355 H   0  0  0  0  0  0  0  0  0  0  0  0  # atno 6909 bound_to 6896
  144.7453  140.3639  143.6090 H   0  0  0  0  0  0  0  0  0  0  0  0  # atno 7974 bound_to 7965
  156.2414  140.2927  156.0455 H   0  0  0  0  0  0  0  0  0  0  0  0  # atno 8008 bound_to 7997
  155.1940  140.0407  157.2922 H   0  0  0  0  0  0  0  0  0  0  0  0  # atno 8009 bound_to 7997
  154.6175  140.2467  155.7597 H   0  0  0  0  0  0  0  0  0  0  0  0  # atno 8010 bound_to 7997
  139.4908  144.5833  151.6829 H   0  0  0  0  0  0  0  0  0  0  0  0  # atno 10167 bound_to 10162
  156.9753  130.5985  149.5672 H   0  0  0  0  0  0  0  0  0  0  0  0  # atno 10718 bound_to 10713
  153.0038  135.5409  154.6440 H   0  0  0  0  0  0  0  0  0  0  0  0  # atno 10763 bound_to 10752
  154.5688  135.2840  155.0850 H   0  0  0  0  0  0  0  0  0  0  0  0  # atno 10764 bound_to 10752
  154.2024  135.6481  153.5143 H   0  0  0  0  0  0  0  0  0  0  0  0  # atno 10765 bound_to 10752
  140.1994  134.8349  157.3001 H   0  0  0  0  0  0  0  0  0  0  0  0  # atno 11005 bound_to 11000
  145.7148  139.1694  143.2518 LP  0  0  0  0  0  0  0  0  0  0  0  0  # atno 17320 bound_to 7965
  146.1320  140.7172  142.9407 LP  0  0  0  0  0  0  0  0  0  0  0  0  # atno 17321 bound_to 7965
  140.5443  144.0528  150.6101 LP  0  0  0  0  0  0  0  0  0  0  0  0  # atno 17342 bound_to 10162
  140.3561  143.2935  152.0435 LP  0  0  0  0  0  0  0  0  0  0  0  0  # atno 17343 bound_to 10162
  156.0266  130.5360  150.8423 LP  0  0  0  0  0  0  0  0  0  0  0  0  # atno 17370 bound_to 10713
  157.5564  131.0945  150.9622 LP  0  0  0  0  0  0  0  0  0  0  0  0  # atno 17371 bound_to 10713
  140.2071  134.4184  155.7632 LP  0  0  0  0  0  0  0  0  0  0  0  0  # atno 17394 bound_to 11000
  141.2227  133.7100  156.8278 LP  0  0  0  0  0  0  0  0  0  0  0  0  # atno 17395 bound_to 11000

$$$$
