AV-unprocessed.smi:1793|AV-procd|sdf|7224|dock7
  -GOLD-   22720 8463D 1   1.00000     0.00000
 Structure written by MMmdl.
 46 48  0  0  0  0  0  0  0  0  1 V2000
  146.5953  142.0593  153.8038 C   0  0  0  0  0  0  0  0  0  0  0  0
  147.1015  140.8668  152.9716 C   0  0  2  0  0  0  0  0  0  0  0  0
  146.1540  139.7594  153.0677 N   0  0  0  0  0  0  0  0  0  0  0  0
  146.1981  138.6328  152.3432 C   0  0  0  0  0  0  0  0  0  0  0  0
  147.0528  138.4057  151.4868 O   0  0  0  0  0  0  0  0  0  0  0  0
  145.1849  137.8119  152.6649 N   0  0  0  0  0  0  0  0  0  0  0  0
  144.8273  136.5774  152.0533 C   0  0  0  0  0  0  0  0  0  0  0  0
  145.7175  135.8945  151.1890 C   0  0  0  0  0  0  0  0  0  0  0  0
  145.3452  134.6460  150.6616 C   0  0  0  0  0  0  0  0  0  0  0  0
  144.0992  134.1137  151.0314 C   0  0  0  0  0  0  0  0  0  0  0  0
  143.2470  134.7436  151.8642 N   0  0  0  0  0  0  0  0  0  0  0  0
  143.5849  135.9558  152.3695 C   0  0  0  0  0  0  0  0  0  0  0  0
  142.6439  136.5750  153.2243 N   0  0  0  0  0  0  0  0  0  0  0  0
  141.5271  135.8129  153.7724 C   0  0  0  0  0  0  0  0  0  0  0  0
  140.5560  136.8633  154.3037 C   0  0  0  0  0  0  0  0  0  0  0  0
  140.7099  137.9902  153.2867 C   0  0  0  0  0  0  0  0  0  0  0  0
  142.1887  137.9215  152.8900 C   0  0  0  0  0  0  0  0  0  0  0  0
  148.4895  140.3822  153.4336 C   0  0  2  0  0  0  0  0  0  0  0  0
  148.4629  139.3172  154.5304 C   0  0  0  0  0  0  0  0  0  0  0  0
  149.8385  139.4704  155.1376 C   0  0  0  0  0  0  0  0  0  0  0  0
  150.0469  140.9813  155.0788 C   0  0  0  0  0  0  0  0  0  0  0  0
  149.2280  141.4561  154.0125 O   0  0  0  0  0  0  0  0  0  0  0  0
  147.2625  142.9167  153.7166 H   0  0  0  0  0  0  0  0  0  0  0  0
  146.5208  141.8017  154.8608 H   0  0  0  0  0  0  0  0  0  0  0  0
  145.6095  142.3859  153.4714 H   0  0  0  0  0  0  0  0  0  0  0  0
  147.1771  141.1753  151.9270 H   0  0  0  0  0  0  0  0  0  0  0  0
  145.4164  139.8557  153.7501 H   0  0  0  0  0  0  0  0  0  0  0  0
  144.5178  138.1717  153.3318 H   0  0  0  0  0  0  0  0  0  0  0  0
  146.6879  136.2963  150.9404 H   0  0  0  0  0  0  0  0  0  0  0  0
  146.0050  134.1041  150.0003 H   0  0  0  0  0  0  0  0  0  0  0  0
  143.7798  133.1536  150.6537 H   0  0  0  0  0  0  0  0  0  0  0  0
  141.0374  135.2292  152.9919 H   0  0  0  0  0  0  0  0  0  0  0  0
  141.8572  135.1310  154.5565 H   0  0  0  0  0  0  0  0  0  0  0  0
  139.5331  136.4948  154.3848 H   0  0  0  0  0  0  0  0  0  0  0  0
  140.8755  137.2039  155.2896 H   0  0  0  0  0  0  0  0  0  0  0  0
  140.0864  137.7833  152.4156 H   0  0  0  0  0  0  0  0  0  0  0  0
  140.4225  138.9649  153.6819 H   0  0  0  0  0  0  0  0  0  0  0  0
  142.7618  138.6417  153.4743 H   0  0  0  0  0  0  0  0  0  0  0  0
  142.3295  138.1538  151.8333 H   0  0  0  0  0  0  0  0  0  0  0  0
  149.0611  140.0052  152.5834 H   0  0  0  0  0  0  0  0  0  0  0  0
  147.6980  139.5479  155.2738 H   0  0  0  0  0  0  0  0  0  0  0  0
  148.2786  138.3131  154.1474 H   0  0  0  0  0  0  0  0  0  0  0  0
  149.9100  139.0686  156.1487 H   0  0  0  0  0  0  0  0  0  0  0  0
  150.5783  138.9650  154.5152 H   0  0  0  0  0  0  0  0  0  0  0  0
  149.7149  141.4514  156.0052 H   0  0  0  0  0  0  0  0  0  0  0  0
  151.0931  141.2450  154.9223 H   0  0  0  0  0  0  0  0  0  0  0  0
  1  2  1  0  0  0  0
  1 23  1  0  0  0  0
  1 24  1  0  0  0  0
  1 25  1  0  0  0  0
  2  3  1  0  0  0  0
  2 18  1  0  0  0  0
  2 26  1  0  0  0  0
  3  4  1  0  0  0  0
  3 27  1  0  0  0  0
  4  5  2  0  0  0  0
  4  6  1  0  0  0  0
  6  7  1  0  0  0  0
  6 28  1  0  0  0  0
  7 12  1  0  0  0  0
  7  8  2  0  0  0  0
  8  9  1  0  0  0  0
  8 29  1  0  0  0  0
  9 10  2  0  0  0  0
  9 30  1  0  0  0  0
 10 11  1  0  0  0  0
 10 31  1  0  0  0  0
 11 12  2  0  0  0  0
 12 13  1  0  0  0  0
 13 17  1  0  0  0  0
 13 14  1  0  0  0  0
 14 15  1  0  0  0  0
 14 32  1  0  0  0  0
 14 33  1  0  0  0  0
 15 16  1  0  0  0  0
 15 34  1  0  0  0  0
 15 35  1  0  0  0  0
 16 17  1  0  0  0  0
 16 36  1  0  0  0  0
 16 37  1  0  0  0  0
 17 38  1  0  0  0  0
 17 39  1  0  0  0  0
 18 22  1  0  0  0  0
 18 19  1  0  0  0  0
 18 40  1  0  0  0  0
 19 20  1  0  0  0  0
 19 41  1  0  0  0  0
 19 42  1  0  0  0  0
 20 21  1  0  0  0  0
 20 43  1  0  0  0  0
 20 44  1  0  0  0  0
 21 22  1  0  0  0  0
 21 45  1  0  0  0  0
 21 46  1  0  0  0  0
M  END
> <s_m_source_file>
AV-unprocessed.smi

> <i_m_source_file_index>
1793

> <i_lp_mmshare_version>
43012

> <i_f3d_flags>
0

> <s_epik_input>
TzFbQ0gyXVtDSDJdW0NIMl1bQ0BIXTFbQ0BIXShbQ0gzXSlbTkhdQyg9TylbTkhdYzJbY0hdW2NIXVtjSF1uYzJOM1tDSDJdW0NIMl1bQ0gyXVtDSDJdMw==

> <s_epik_cmdline>
J2VwaWtfcHl0aG9uJywgJy1waCcsICc3LjAnLCAnLXRuJywgJzgnLCAnLW1hJywgJzIwMCcsICctbWV0YWxfYmluZGluZycsICctaW1hZScsICc8aW5maWxlLm1hZT4nLCAnLW9tYWUnLCAnPG91dGZpbGUubWFlPic=

> <r_lp_tautomer_probability>
1

> <r_epik_Ionization_Penalty>
0.0992086

> <r_epik_Ionization_Penalty_Charging>
0

> <r_epik_Ionization_Penalty_Neutral>
0.0992086

> <r_epik_State_Penalty>
0.0887141

> <r_epik_Charging_Adjusted_Penalty>
0.0887141

> <i_epik_Tot_Q>
0

> <i_epik_Tot_abs_Q>
0

> <r_epik_Metal_State_Penalty>
0.075945

> <b_epik_Metal_Only>
0

> <s_lp_Force_Field>
OPLS_2005

> <r_lp_Energy>
46.4352

> <b_lp_Chiralities_Consistent>
1

> <s_lp_Variant>
AV-unprocessed.smi:1793-1

> <Gold.Version>
5.8.1

> <Gold.Id.Protein>
6NUR|6NUR_protein|mol2

> <Gold.PLP.Fitness>
39.1498

> <Gold.PLP.PLP>
-35.6160

> <Gold.PLP.part.hbond>
-5.1747

> <Gold.PLP.part.metal>
0.0000

> <Gold.PLP.part.buried>
2.1494

> <Gold.PLP.part.nonpolar>
-34.9514

> <Gold.PLP.part.repulsive>
3.2209

> <Gold.PLP.ligand.clash>
0.0000

> <Gold.PLP.ligand.torsion>
1.0100

> <Gold.PLP.Chemscore.Hbond>
1.7335

> <Gold.PLP.Chemscore.CHOScore>
0.0000

> <Gold.PLP.Chemscore.Metal>
0.0000

> <Gold.Chemscore.Hbonds>
donor molecule, donor type, donor heavy atom, donor atom, acceptor molecule, acceptor atom, score
      L1  H     3    27       P1 10175  0.02
      P1  H  7954  7966       L1     5  1.00
      P1  H  8011  8017       L1    22  0.70

> <Gold.PLP.Chemscore.Internal.Correction>
0.3533

> <Gold.Rescore>
     Score         DG    S(hbond)    S(metal)    S(lipo)     H(rot)  DE(clash)    DE(int)     intcor
     10.89     -16.88       1.32        0.00      89.53       1.36       3.61       2.39       ----

> <Gold.Chemscore.Fitness>
10.8880

> <Gold.Chemscore.DG>
-16.8827

> <Gold.Chemscore.ZeroCoef>
-5.4800

> <Gold.Chemscore.Hbond>
1.3188

> <Gold.Chemscore.Metal>
0.0000

> <Gold.Chemscore.Lipo>
89.5303

> <Gold.Chemscore.Internal_Hbond>
0.0000

> <Gold.Chemscore.DEClash>
3.6077

> <Gold.Chemscore.DEInternal>
2.3870

> <Gold.Chemscore.Rot>
1.3582

> <Gold.Chemscore.Internal.Correction>
   9.000000E+99

> <Gold.Chemscore.Hbonds>
donor molecule, donor type, donor heavy atom, donor atom, acceptor molecule, acceptor atom, score
      L1  H     3    27       P1 10175  0.04
      P1  H  7954  7966       L1     5  0.95
      P1  H  8011  8017       L1    22  0.17

> <Gold.Chemscore.Hbond.Weighted>
-4.4047

> <Gold.Chemscore.Metal.Weighted>
-0.0000

> <Gold.Chemscore.Lipo.Weighted>
-10.4750

> <Gold.Chemscore.Internal_Hbond.Weighted>
0.0000

> <Gold.Chemscore.DEClash.Weighted>
3.6077

> <Gold.Chemscore.DEInternal.Weighted>
2.3870

> <Gold.Chemscore.Rot.Weighted>
3.4771

> <Gold.Chemscore.Internal.Correction.Weighted>
   9.000000E+99

> <Gold.Protein.RotatedTorsions>
[ 6907 6896 6895 6894 ] final -159.65 input  -60.11 | X-H torsion
[ 7974 7965 7964 7962 ] final -139.05 input  175.53 | X-H torsion
[ 8008 7997 7996 7995 ] final -144.22 input   59.86 | X-H torsion
[ 10167 10162 10161 10158 ] final  -81.33 input  -65.29 | X-H torsion
[ 10718 10713 10712 10709 ] final   21.90 input   66.30 | X-H torsion
[ 10763 10752 10751 10750 ] final -130.64 input  -60.55 | X-H torsion
[ 11005 11000 10999 10996 ] final   45.49 input  -57.11 | X-H torsion

> <Gold.Protein.ActiveResidues>
 VAL166  LYS551  ARG553  GLY616  TRP617  ASP618  TYR619  PRO620  LYS621  CYS622 
 ASP623  PHE694  ASN695  SER759  ASP760  ASP761  ALA762  ILE779  LEU786  VAL792 
 PHE793  MET794  SER795  GLU796  ALA797  LYS798  CYS799  TRP800  GLU811  SER814 

> <Gold.Protein.RotatedAtoms>
  151.3369  133.3978  159.2667 H   0  0  0  0  0  0  0  0  0  0  0  0  # atno 6907 bound_to 6896
  150.9910  134.9245  159.7909 H   0  0  0  0  0  0  0  0  0  0  0  0  # atno 6908 bound_to 6896
  152.5247  134.3334  159.9243 H   0  0  0  0  0  0  0  0  0  0  0  0  # atno 6909 bound_to 6896
  144.8708  140.6363  143.5268 H   0  0  0  0  0  0  0  0  0  0  0  0  # atno 7974 bound_to 7965
  155.5234  140.0593  157.2902 H   0  0  0  0  0  0  0  0  0  0  0  0  # atno 8008 bound_to 7997
  154.4510  140.1948  156.0466 H   0  0  0  0  0  0  0  0  0  0  0  0  # atno 8009 bound_to 7997
  156.0703  140.3261  155.7572 H   0  0  0  0  0  0  0  0  0  0  0  0  # atno 8010 bound_to 7997
  140.4422  143.2511  151.8609 H   0  0  0  0  0  0  0  0  0  0  0  0  # atno 10167 bound_to 10162
  157.1449  130.6649  149.5993 H   0  0  0  0  0  0  0  0  0  0  0  0  # atno 10718 bound_to 10713
  154.8754  135.3856  154.4117 H   0  0  0  0  0  0  0  0  0  0  0  0  # atno 10763 bound_to 10752
  153.4830  135.7030  153.5932 H   0  0  0  0  0  0  0  0  0  0  0  0  # atno 10764 bound_to 10752
  153.4339  135.3872  155.2155 H   0  0  0  0  0  0  0  0  0  0  0  0  # atno 10765 bound_to 10752
  140.1455  134.4528  155.8419 H   0  0  0  0  0  0  0  0  0  0  0  0  # atno 11005 bound_to 11000
  145.4134  139.1576  143.4113 LP  0  0  0  0  0  0  0  0  0  0  0  0  # atno 17320 bound_to 7965
  146.2929  140.4240  142.8733 LP  0  0  0  0  0  0  0  0  0  0  0  0  # atno 17321 bound_to 7965
  139.4790  144.5216  151.8793 LP  0  0  0  0  0  0  0  0  0  0  0  0  # atno 17342 bound_to 10162
  140.4305  144.2122  150.5888 LP  0  0  0  0  0  0  0  0  0  0  0  0  # atno 17343 bound_to 10162
  155.9781  130.4765  150.6637 LP  0  0  0  0  0  0  0  0  0  0  0  0  # atno 17370 bound_to 10713
  157.4273  131.0845  151.1072 LP  0  0  0  0  0  0  0  0  0  0  0  0  # atno 17371 bound_to 10713
  141.2192  133.6850  156.7326 LP  0  0  0  0  0  0  0  0  0  0  0  0  # atno 17394 bound_to 11000
  140.2669  134.8423  157.3811 LP  0  0  0  0  0  0  0  0  0  0  0  0  # atno 17395 bound_to 11000

$$$$
