AV-unprocessed.smi:269|AV-procd|sdf|2044|dock2
  -GOLD-   2262021263D 1   1.00000     0.00000
 Structure written by MMmdl.
 61 64  0  0  0  0  0  0  0  0  3 V2000
  141.4438  128.8328  157.6111 C   0  0  0  0  0  0  0  0  0  0  0  0
  140.8840  129.0724  159.0170 C   0  0  0  0  0  0  0  0  0  0  0  0
  141.4212  130.3182  159.5555 N   0  5  0  0  0  0  0  0  0  0  0  0
  142.7079  130.4639  159.9714 C   0  0  0  0  0  0  0  0  0  0  0  0
  143.5464  129.6212  160.3080 O   0  0  0  0  0  0  0  0  0  0  0  0
  143.1251  131.9388  159.9720 C   0  0  0  0  0  0  0  0  0  0  0  0
  144.5843  132.0567  160.2142 N   0  3  0  0  0  0  0  0  0  0  0  0
  144.8917  132.8117  161.4557 C   0  0  0  0  0  0  0  0  0  0  0  0
  146.4060  132.8406  161.7304 C   0  0  0  0  0  0  0  0  0  0  0  0
  147.1346  133.3529  160.5728 N   0  0  0  0  0  0  0  0  0  0  0  0
  147.3420  134.6968  160.5328 C   0  0  0  0  0  0  0  0  0  0  0  0
  146.7475  135.4993  161.4558 N   0  0  0  0  0  0  0  0  0  0  0  0
  146.9479  136.8195  161.4377 C   0  0  0  0  0  0  0  0  0  0  0  0
  147.6885  137.5373  160.5931 N   0  0  0  0  0  0  0  0  0  0  0  0
  148.2756  136.7456  159.6515 C   0  0  0  0  0  0  0  0  0  0  0  0
  148.1606  135.3294  159.5526 C   0  0  0  0  0  0  0  0  0  0  0  0
  148.8991  134.8744  158.4668 N   0  0  0  0  0  0  0  0  0  0  0  0
  149.4293  135.9550  157.9633 C   0  0  0  0  0  0  0  0  0  0  0  0
  149.0919  137.1287  158.6002 N   0  0  0  0  0  0  0  0  0  0  0  0
  149.5368  138.4723  158.2515 C   0  0  0  0  0  0  0  0  0  0  0  0
  151.0604  138.6057  157.9308 C   0  0  0  0  0  0  0  0  0  0  0  0
  151.9244  138.0263  159.0827 C   0  0  0  0  0  0  0  0  0  0  0  0
  153.2962  138.3337  158.9305 O   0  0  0  0  0  0  0  0  0  0  0  0
  151.4439  137.8531  156.6314 C   0  0  0  0  0  0  0  0  0  0  0  0
  150.8959  138.5324  155.3628 C   0  0  0  0  0  0  0  0  0  0  0  0
  151.3531  139.8765  155.2990 O   0  0  0  0  0  0  0  0  0  0  0  0
  150.8952  140.6640  156.3900 C   0  0  0  0  0  0  0  0  0  0  0  0
  151.4349  140.0941  157.7147 C   0  0  0  0  0  0  0  0  0  0  0  0
  146.8490  132.6367  159.3294 C   0  0  0  0  0  0  0  0  0  0  0  0
  145.3356  132.5835  159.0427 C   0  0  0  0  0  0  0  0  0  0  0  0
  141.0560  127.9025  157.1958 H   0  0  0  0  0  0  0  0  0  0  0  0
  142.5318  128.7607  157.6236 H   0  0  0  0  0  0  0  0  0  0  0  0
  141.1667  129.6390  156.9311 H   0  0  0  0  0  0  0  0  0  0  0  0
  139.7951  129.0895  158.9620 H   0  0  0  0  0  0  0  0  0  0  0  0
  141.1394  128.2203  159.6478 H   0  0  0  0  0  0  0  0  0  0  0  0
  142.8479  132.4612  159.0536 H   0  0  0  0  0  0  0  0  0  0  0  0
  142.5741  132.4222  160.7798 H   0  0  0  0  0  0  0  0  0  0  0  0
  144.5081  133.8292  161.3646 H   0  0  0  0  0  0  0  0  0  0  0  0
  144.3808  132.3530  162.3030 H   0  0  0  0  0  0  0  0  0  0  0  0
  146.6014  133.4222  162.6299 H   0  0  0  0  0  0  0  0  0  0  0  0
  146.7620  131.8309  161.9381 H   0  0  0  0  0  0  0  0  0  0  0  0
  146.4421  137.3809  162.2096 H   0  0  0  0  0  0  0  0  0  0  0  0
  150.0789  135.9235  157.1009 H   0  0  0  0  0  0  0  0  0  0  0  0
  148.9293  138.8124  157.4139 H   0  0  0  0  0  0  0  0  0  0  0  0
  149.2714  139.1312  159.0791 H   0  0  0  0  0  0  0  0  0  0  0  0
  151.5862  138.3921  160.0521 H   0  0  0  0  0  0  0  0  0  0  0  0
  151.8316  136.9405  159.1225 H   0  0  0  0  0  0  0  0  0  0  0  0
  153.5877  138.0053  158.0941 H   0  0  0  0  0  0  0  0  0  0  0  0
  152.5305  137.8176  156.5418 H   0  0  0  0  0  0  0  0  0  0  0  0
  151.1226  136.8126  156.6708 H   0  0  0  0  0  0  0  0  0  0  0  0
  151.2484  138.0023  154.4780 H   0  0  0  0  0  0  0  0  0  0  0  0
  149.8070  138.5073  155.3265 H   0  0  0  0  0  0  0  0  0  0  0  0
  151.2534  141.6845  156.2537 H   0  0  0  0  0  0  0  0  0  0  0  0
  149.8061  140.7153  156.3883 H   0  0  0  0  0  0  0  0  0  0  0  0
  151.0797  140.7037  158.5462 H   0  0  0  0  0  0  0  0  0  0  0  0
  152.5208  140.1993  157.7078 H   0  0  0  0  0  0  0  0  0  0  0  0
  147.3864  133.0770  158.4884 H   0  0  0  0  0  0  0  0  0  0  0  0
  147.2345  131.6219  159.4317 H   0  0  0  0  0  0  0  0  0  0  0  0
  145.1611  131.9591  158.1663 H   0  0  0  0  0  0  0  0  0  0  0  0
  144.9610  133.5776  158.7963 H   0  0  0  0  0  0  0  0  0  0  0  0
  144.9140  131.1146  160.3692 H   0  0  0  0  0  0  0  0  0  0  0  0
  1  2  1  0  0  0  0
  1 31  1  0  0  0  0
  1 32  1  0  0  0  0
  1 33  1  0  0  0  0
  2  3  1  0  0  0  0
  2 34  1  0  0  0  0
  2 35  1  0  0  0  0
  3  4  1  0  0  0  0
  4  5  2  0  0  0  0
  4  6  1  0  0  0  0
  6  7  1  0  0  0  0
  6 36  1  0  0  0  0
  6 37  1  0  0  0  0
  7 30  1  0  0  0  0
  7  8  1  0  0  0  0
  7 61  1  0  0  0  0
  8  9  1  0  0  0  0
  8 38  1  0  0  0  0
  8 39  1  0  0  0  0
  9 10  1  0  0  0  0
  9 40  1  0  0  0  0
  9 41  1  0  0  0  0
 10 11  1  0  0  0  0
 10 29  1  0  0  0  0
 11 16  1  0  0  0  0
 11 12  2  0  0  0  0
 12 13  1  0  0  0  0
 13 14  2  0  0  0  0
 13 42  1  0  0  0  0
 14 15  1  0  0  0  0
 15 19  1  0  0  0  0
 15 16  2  0  0  0  0
 16 17  1  0  0  0  0
 17 18  2  0  0  0  0
 18 19  1  0  0  0  0
 18 43  1  0  0  0  0
 19 20  1  0  0  0  0
 20 21  1  0  0  0  0
 20 44  1  0  0  0  0
 20 45  1  0  0  0  0
 21 28  1  0  0  0  0
 21 22  1  0  0  0  0
 21 24  1  0  0  0  0
 22 23  1  0  0  0  0
 22 46  1  0  0  0  0
 22 47  1  0  0  0  0
 23 48  1  0  0  0  0
 24 25  1  0  0  0  0
 24 49  1  0  0  0  0
 24 50  1  0  0  0  0
 25 26  1  0  0  0  0
 25 51  1  0  0  0  0
 25 52  1  0  0  0  0
 26 27  1  0  0  0  0
 27 28  1  0  0  0  0
 27 53  1  0  0  0  0
 27 54  1  0  0  0  0
 28 55  1  0  0  0  0
 28 56  1  0  0  0  0
 29 30  1  0  0  0  0
 29 57  1  0  0  0  0
 29 58  1  0  0  0  0
 30 59  1  0  0  0  0
 30 60  1  0  0  0  0
M  CHG  1   3  -1
M  CHG  1   7   1
M  END
> <s_m_source_file>
AV-unprocessed.smi

> <i_m_source_file_index>
269

> <i_lp_mmshare_version>
43012

> <i_f3d_flags>
0

> <s_epik_input>
W0NIM11bQ0gyXVtOSF1DKD1PKVtDSDJdTjFbQ0gyXVtDSDJdTihbQ0gyXVtDSDJdMSljKG5bY0hdbjIpYyhjMjMpbltjSF1uM1tDSDJdQzQoW0NIMl1bT0hdKVtDSDJdW0NIMl1PW0NIMl1bQ0gyXTQ=

> <s_epik_cmdline>
J2VwaWtfcHl0aG9uJywgJy1waCcsICc3LjAnLCAnLXRuJywgJzgnLCAnLW1hJywgJzIwMCcsICctbWV0YWxfYmluZGluZycsICctaW1hZScsICc8aW5maWxlLm1hZT4nLCAnLW9tYWUnLCAnPG91dGZpbGUubWFlPic=

> <r_lp_tautomer_probability>
1

> <r_epik_Ionization_Penalty>
6.2463

> <r_epik_Ionization_Penalty_Charging>
6.24626

> <r_epik_Ionization_Penalty_Neutral>
4.36947e-05

> <r_epik_State_Penalty>
6.38251

> <r_epik_Charging_Adjusted_Penalty>
12.6288

> <i_epik_Tot_Q>
0

> <i_epik_Tot_abs_Q>
2

> <r_epik_Metal_State_Penalty>
2.3175

> <b_epik_Metal_Only>
1

> <s_lp_Force_Field>
OPLS_2005

> <r_lp_Energy>
38.3131

> <b_lp_Chiralities_Consistent>
1

> <s_lp_Variant>
AV-unprocessed.smi:269-3

> <Gold.Version>
5.8.1

> <Gold.Id.Protein>
6NUR|6NUR_protein|mol2

> <Gold.PLP.Fitness>
43.7484

> <Gold.PLP.PLP>
-35.8005

> <Gold.PLP.part.hbond>
-4.0000

> <Gold.PLP.part.metal>
0.0000

> <Gold.PLP.part.buried>
-6.2800

> <Gold.PLP.part.nonpolar>
-26.1738

> <Gold.PLP.part.repulsive>
0.2003

> <Gold.PLP.ligand.clash>
0.0000

> <Gold.PLP.ligand.torsion>
1.5070

> <Gold.PLP.Chemscore.Hbond>
3.4375

> <Gold.PLP.Chemscore.CHOScore>
0.0000

> <Gold.PLP.Chemscore.Metal>
0.0000

> <Gold.Chemscore.Hbonds>
donor molecule, donor type, donor heavy atom, donor atom, acceptor molecule, acceptor atom, score
      P1  H  6896  6908       L1    17  0.69
      P1  H  6931  6943       L1    14  0.58
      P1  H  6934  6947       L1    14  0.86
      P1  H  7989  7998       L1    26  0.89

> <Gold.PLP.Chemscore.Internal.Correction>
0.6494

> <Gold.Rescore>
     Score         DG    S(hbond)    S(metal)    S(lipo)     H(rot)  DE(clash)    DE(int)     intcor
      8.77     -11.36       1.85        0.00      69.38       3.28       0.04       2.55       ----

> <Gold.Chemscore.Fitness>
8.7717

> <Gold.Chemscore.DG>
-11.3600

> <Gold.Chemscore.ZeroCoef>
-5.4800

> <Gold.Chemscore.Hbond>
1.8454

> <Gold.Chemscore.Metal>
0.0000

> <Gold.Chemscore.Lipo>
69.3772

> <Gold.Chemscore.Internal_Hbond>
0.0000

> <Gold.Chemscore.DEClash>
0.0402

> <Gold.Chemscore.DEInternal>
2.5481

> <Gold.Chemscore.Rot>
3.2816

> <Gold.Chemscore.Internal.Correction>
   9.000000E+99

> <Gold.Chemscore.Hbonds>
donor molecule, donor type, donor heavy atom, donor atom, acceptor molecule, acceptor atom, score
      P1  H  6896  6908       L1    17  0.06
      P1  H  6931  6943       L1    14  0.11
      P1  H  6934  6947       L1    14  0.29
      P1  H  7989  7998       L1    26  0.79

> <Gold.Chemscore.Hbond.Weighted>
-6.1638

> <Gold.Chemscore.Metal.Weighted>
-0.0000

> <Gold.Chemscore.Lipo.Weighted>
-8.1171

> <Gold.Chemscore.Internal_Hbond.Weighted>
0.0000

> <Gold.Chemscore.DEClash.Weighted>
0.0402

> <Gold.Chemscore.DEInternal.Weighted>
2.5481

> <Gold.Chemscore.Rot.Weighted>
8.4009

> <Gold.Chemscore.Internal.Correction.Weighted>
   9.000000E+99

> <Gold.Protein.RotatedTorsions>
[ 6907 6896 6895 6894 ] final  137.46 input  -60.11 | X-H torsion
[ 7974 7965 7964 7962 ] final  -17.04 input  175.53 | X-H torsion
[ 8008 7997 7996 7995 ] final   -6.77 input   59.86 | X-H torsion
[ 10167 10162 10161 10158 ] final   24.80 input  -65.29 | X-H torsion
[ 10718 10713 10712 10709 ] final -165.82 input   66.30 | X-H torsion
[ 10763 10752 10751 10750 ] final -117.90 input  -60.55 | X-H torsion
[ 11005 11000 10999 10996 ] final -154.44 input  -57.11 | X-H torsion

> <Gold.Protein.ActiveResidues>
 VAL166  LYS551  ARG553  GLY616  TRP617  ASP618  TYR619  PRO620  LYS621  CYS622 
 ASP623  PHE694  ASN695  SER759  ASP760  ASP761  ALA762  ILE779  LEU786  VAL792 
 PHE793  MET794  SER795  GLU796  ALA797  LYS798  CYS799  TRP800  GLU811  SER814 

> <Gold.Protein.RotatedAtoms>
  152.2778  133.5441  159.5478 H   0  0  0  0  0  0  0  0  0  0  0  0  # atno 6907 bound_to 6896
  150.7184  134.0607  159.3839 H   0  0  0  0  0  0  0  0  0  0  0  0  # atno 6908 bound_to 6896
  151.8519  135.0555  160.0511 H   0  0  0  0  0  0  0  0  0  0  0  0  # atno 6909 bound_to 6896
  146.1960  140.3722  142.8440 H   0  0  0  0  0  0  0  0  0  0  0  0  # atno 7974 bound_to 7965
  154.5904  140.2424  155.7929 H   0  0  0  0  0  0  0  0  0  0  0  0  # atno 8008 bound_to 7997
  156.2243  140.2987  155.9982 H   0  0  0  0  0  0  0  0  0  0  0  0  # atno 8009 bound_to 7997
  155.2384  140.0406  157.2962 H   0  0  0  0  0  0  0  0  0  0  0  0  # atno 8010 bound_to 7997
  140.5158  144.0084  150.6393 H   0  0  0  0  0  0  0  0  0  0  0  0  # atno 10167 bound_to 10162
  156.6590  130.9038  151.3026 H   0  0  0  0  0  0  0  0  0  0  0  0  # atno 10718 bound_to 10713
  154.8570  135.4293  154.2053 H   0  0  0  0  0  0  0  0  0  0  0  0  # atno 10763 bound_to 10752
  153.3091  135.6974  153.7138 H   0  0  0  0  0  0  0  0  0  0  0  0  # atno 10764 bound_to 10752
  153.6238  135.3497  155.2993 H   0  0  0  0  0  0  0  0  0  0  0  0  # atno 10765 bound_to 10752
  140.6973  134.3975  157.5213 H   0  0  0  0  0  0  0  0  0  0  0  0  # atno 11005 bound_to 11000
  144.8581  140.7099  143.6125 LP  0  0  0  0  0  0  0  0  0  0  0  0  # atno 17320 bound_to 7965
  145.3643  139.1674  143.4366 LP  0  0  0  0  0  0  0  0  0  0  0  0  # atno 17321 bound_to 7965
  140.3419  143.3014  152.0579 LP  0  0  0  0  0  0  0  0  0  0  0  0  # atno 17342 bound_to 10162
  139.4909  144.6436  151.6825 LP  0  0  0  0  0  0  0  0  0  0  0  0  # atno 17343 bound_to 10162
  157.7116  130.9447  150.1109 LP  0  0  0  0  0  0  0  0  0  0  0  0  # atno 17370 bound_to 10713
  156.2026  130.3661  149.8769 LP  0  0  0  0  0  0  0  0  0  0  0  0  # atno 17371 bound_to 10713
  139.8906  134.8800  156.2360 LP  0  0  0  0  0  0  0  0  0  0  0  0  # atno 17394 bound_to 11000
  141.0192  133.7051  156.1240 LP  0  0  0  0  0  0  0  0  0  0  0  0  # atno 17395 bound_to 11000

$$$$
