AV-unprocessed.smi:1417|AV-procd|sdf|5769|dock2
  -GOLD-   22720 5413D 1   1.00000     0.00000
 Structure written by MMmdl.
 39 40  0  0  0  0  0  0  0  0  3 V2000
  155.3548  129.5919  157.3240 C   0  0  0  0  0  0  0  0  0  0  0  0
  154.2540  130.5968  157.3304 C   0  0  0  0  0  0  0  0  0  0  0  0
  153.7267  131.3999  156.3593 C   0  0  0  0  0  0  0  0  0  0  0  0
  152.7099  132.1168  157.0471 C   0  0  0  0  0  0  0  0  0  0  0  0
  151.8922  133.0343  156.5082 N   0  5  0  0  0  0  0  0  0  0  0  0
  150.6761  132.6707  156.0413 C   0  0  0  0  0  0  0  0  0  0  0  0
  150.0305  131.6749  156.3767 O   0  0  0  0  0  0  0  0  0  0  0  0
  150.1767  133.5153  155.1276 N   0  0  0  0  0  0  0  0  0  0  0  0
  148.8915  133.3796  154.4494 C   0  0  2  0  0  0  0  0  0  0  0  0
  149.0941  133.0239  152.9658 C   0  0  0  0  0  0  0  0  0  0  0  0
  147.7519  132.9788  152.2191 C   0  0  0  0  0  0  0  0  0  0  0  0
  147.0181  134.2652  152.3569 N   0  3  1  0  0  0  0  0  0  0  0  0
  145.7753  134.3150  151.5454 C   0  0  0  0  0  0  0  0  0  0  0  0
  145.2793  135.7440  151.3025 C   0  0  0  0  0  0  0  0  0  0  0  0
  145.1816  136.1406  150.0318 N   0  0  0  0  0  0  0  0  0  0  0  0
  144.9734  136.4748  152.2430 O   0  0  0  0  0  0  0  0  0  0  0  0
  146.7787  134.6084  153.7818 C   0  0  0  0  0  0  0  0  0  0  0  0
  148.1011  134.6925  154.5609 C   0  0  0  0  0  0  0  0  0  0  0  0
  152.6162  131.7666  158.3190 N   0  0  0  0  0  0  0  0  0  0  0  0
  153.6078  130.7968  158.5104 O   0  0  0  0  0  0  0  0  0  0  0  0
  155.1756  128.8286  156.5669 H   0  0  0  0  0  0  0  0  0  0  0  0
  155.4405  129.0953  158.2907 H   0  0  0  0  0  0  0  0  0  0  0  0
  156.3096  130.0694  157.1038 H   0  0  0  0  0  0  0  0  0  0  0  0
  154.0231  131.4677  155.3232 H   0  0  0  0  0  0  0  0  0  0  0  0
  150.7410  134.3165  154.8849 H   0  0  0  0  0  0  0  0  0  0  0  0
  148.3110  132.5908  154.9323 H   0  0  0  0  0  0  0  0  0  0  0  0
  149.7476  133.7589  152.4933 H   0  0  0  0  0  0  0  0  0  0  0  0
  149.5964  132.0601  152.8739 H   0  0  0  0  0  0  0  0  0  0  0  0
  147.9377  132.7623  151.1668 H   0  0  0  0  0  0  0  0  0  0  0  0
  147.1372  132.1637  152.6044 H   0  0  0  0  0  0  0  0  0  0  0  0
  145.9249  133.7925  150.5990 H   0  0  0  0  0  0  0  0  0  0  0  0
  144.9734  133.7921  152.0683 H   0  0  0  0  0  0  0  0  0  0  0  0
  144.8616  137.0732  149.8133 H   0  0  0  0  0  0  0  0  0  0  0  0
  145.4309  135.5039  149.2880 H   0  0  0  0  0  0  0  0  0  0  0  0
  146.2646  135.5680  153.8487 H   0  0  0  0  0  0  0  0  0  0  0  0
  146.1218  133.8627  154.2325 H   0  0  0  0  0  0  0  0  0  0  0  0
  147.8985  134.9197  155.6083 H   0  0  0  0  0  0  0  0  0  0  0  0
  148.6975  135.5206  154.1744 H   0  0  0  0  0  0  0  0  0  0  0  0
  147.6216  134.9875  151.9896 H   0  0  0  0  0  0  0  0  0  0  0  0
  1  2  1  0  0  0  0
  1 21  1  0  0  0  0
  1 22  1  0  0  0  0
  1 23  1  0  0  0  0
  2 20  1  0  0  0  0
  2  3  2  0  0  0  0
  3  4  1  0  0  0  0
  3 24  1  0  0  0  0
  4  5  1  0  0  0  0
  4 19  2  0  0  0  0
  5  6  1  0  0  0  0
  6  7  2  0  0  0  0
  6  8  1  0  0  0  0
  8  9  1  0  0  0  0
  8 25  1  0  0  0  0
  9 18  1  0  0  0  0
  9 10  1  0  0  0  0
  9 26  1  0  0  0  0
 10 11  1  0  0  0  0
 10 27  1  0  0  0  0
 10 28  1  0  0  0  0
 11 12  1  0  0  0  0
 11 29  1  0  0  0  0
 11 30  1  0  0  0  0
 12 13  1  0  0  0  0
 12 17  1  0  0  0  0
 12 39  1  0  0  0  0
 13 14  1  0  0  0  0
 13 31  1  0  0  0  0
 13 32  1  0  0  0  0
 14 15  1  0  0  0  0
 14 16  2  0  0  0  0
 15 33  1  0  0  0  0
 15 34  1  0  0  0  0
 17 18  1  0  0  0  0
 17 35  1  0  0  0  0
 17 36  1  0  0  0  0
 18 37  1  0  0  0  0
 18 38  1  0  0  0  0
 19 20  1  0  0  0  0
M  CHG  1   5  -1
M  CHG  1  12   1
M  END
> <s_m_source_file>
AV-unprocessed.smi

> <i_m_source_file_index>
1417

> <i_lp_mmshare_version>
43012

> <i_f3d_flags>
0

> <s_epik_input>
W0NIM11jMVtjSF1jKG5vMSlbTkhdQyg9TylbTkhdW0NIXTJbQ0gyXVtDSDJdTihbQ0gyXVtDSDJdMilbQ0gyXUMoPU8pW05IMl0=

> <s_epik_cmdline>
J2VwaWtfcHl0aG9uJywgJy1waCcsICc3LjAnLCAnLXRuJywgJzgnLCAnLW1hJywgJzIwMCcsICctbWV0YWxfYmluZGluZycsICctaW1hZScsICc8aW5maWxlLm1hZT4nLCAnLW9tYWUnLCAnPG91dGZpbGUubWFlPic=

> <r_epik_Ionization_Penalty>
7.07562

> <r_epik_Ionization_Penalty_Charging>
7.07548

> <r_epik_Ionization_Penalty_Neutral>
0.00013758

> <r_epik_State_Penalty>
7.16607

> <r_epik_Charging_Adjusted_Penalty>
14.2416

> <i_epik_Tot_Q>
0

> <i_epik_Tot_abs_Q>
2

> <r_epik_Metal_State_Penalty>
3.11438

> <b_epik_Metal_Only>
1

> <s_lp_Force_Field>
OPLS_2005

> <r_lp_Energy>
-1.46184

> <b_lp_Chiralities_Consistent>
1

> <s_lp_Variant>
AV-unprocessed.smi:1417-5

> <Gold.Version>
5.8.1

> <Gold.Id.Protein>
6NUR|6NUR_protein|mol2

> <Gold.PLP.Fitness>
37.8143

> <Gold.PLP.PLP>
-24.8690

> <Gold.PLP.part.hbond>
-4.0000

> <Gold.PLP.part.metal>
0.0000

> <Gold.PLP.part.buried>
-3.5911

> <Gold.PLP.part.nonpolar>
-17.5530

> <Gold.PLP.part.repulsive>
0.3898

> <Gold.PLP.ligand.clash>
0.0000

> <Gold.PLP.ligand.torsion>
1.0739

> <Gold.PLP.Chemscore.Hbond>
5.0000

> <Gold.PLP.Chemscore.CHOScore>
0.0000

> <Gold.PLP.Chemscore.Metal>
0.0000

> <Gold.Chemscore.Hbonds>
donor molecule, donor type, donor heavy atom, donor atom, acceptor molecule, acceptor atom, score
      L1  H    12    39       P1  7948  2.00
      L1  H    15    33       P1 10171  1.00
      L1  H    15    34       P1  7921  1.00
      P1  H  6896  6908       L1    19  1.00

> <Gold.PLP.Chemscore.Internal.Correction>
0.0931

> <Gold.Rescore>
     Score         DG    S(hbond)    S(metal)    S(lipo)     H(rot)  DE(clash)    DE(int)     intcor
     16.09     -17.43       3.84        0.00      36.91       2.02       0.22       1.12       ----

> <Gold.Chemscore.Fitness>
16.0914

> <Gold.Chemscore.DG>
-17.4306

> <Gold.Chemscore.ZeroCoef>
-5.4800

> <Gold.Chemscore.Hbond>
3.8352

> <Gold.Chemscore.Metal>
0.0000

> <Gold.Chemscore.Lipo>
36.9053

> <Gold.Chemscore.Internal_Hbond>
0.0000

> <Gold.Chemscore.DEClash>
0.2201

> <Gold.Chemscore.DEInternal>
1.1191

> <Gold.Chemscore.Rot>
2.0222

> <Gold.Chemscore.Internal.Correction>
   9.000000E+99

> <Gold.Chemscore.Hbonds>
donor molecule, donor type, donor heavy atom, donor atom, acceptor molecule, acceptor atom, score
      L1  H    12    39       P1  7948  0.85
      L1  H    15    33       P1 10171  1.00
      L1  H    15    34       P1  7921  0.99
      P1  H  6896  6908       L1    19  0.69

> <Gold.Chemscore.Hbond.Weighted>
-12.8096

> <Gold.Chemscore.Metal.Weighted>
-0.0000

> <Gold.Chemscore.Lipo.Weighted>
-4.3179

> <Gold.Chemscore.Internal_Hbond.Weighted>
0.0000

> <Gold.Chemscore.DEClash.Weighted>
0.2201

> <Gold.Chemscore.DEInternal.Weighted>
1.1191

> <Gold.Chemscore.Rot.Weighted>
5.1769

> <Gold.Chemscore.Internal.Correction.Weighted>
   9.000000E+99

> <Gold.Protein.RotatedTorsions>
[ 6907 6896 6895 6894 ] final   43.79 input  -60.11 | X-H torsion
[ 7974 7965 7964 7962 ] final  -92.45 input  175.53 | X-H torsion
[ 8008 7997 7996 7995 ] final  -18.38 input   59.86 | X-H torsion
[ 10167 10162 10161 10158 ] final  -81.74 input  -65.29 | X-H torsion
[ 10718 10713 10712 10709 ] final -130.45 input   66.30 | X-H torsion
[ 10763 10752 10751 10750 ] final   11.26 input  -60.55 | X-H torsion
[ 11005 11000 10999 10996 ] final  -67.56 input  -57.11 | X-H torsion

> <Gold.Protein.ActiveResidues>
 VAL166  LYS551  ARG553  GLY616  TRP617  ASP618  TYR619  PRO620  LYS621  CYS622 
 ASP623  PHE694  ASN695  SER759  ASP760  ASP761  ALA762  ILE779  LEU786  VAL792 
 PHE793  MET794  SER795  GLU796  ALA797  LYS798  CYS799  TRP800  GLU811  SER814 

> <Gold.Protein.RotatedAtoms>
  152.2246  134.8380  160.0481 H   0  0  0  0  0  0  0  0  0  0  0  0  # atno 6907 bound_to 6896
  151.9151  133.3566  159.3885 H   0  0  0  0  0  0  0  0  0  0  0  0  # atno 6908 bound_to 6896
  150.7009  134.4617  159.5428 H   0  0  0  0  0  0  0  0  0  0  0  0  # atno 6909 bound_to 6896
  145.3996  140.9536  143.2295 H   0  0  0  0  0  0  0  0  0  0  0  0  # atno 7974 bound_to 7965
  154.4910  140.2117  155.9549 H   0  0  0  0  0  0  0  0  0  0  0  0  # atno 8008 bound_to 7997
  156.1305  140.3198  155.8310 H   0  0  0  0  0  0  0  0  0  0  0  0  # atno 8009 bound_to 7997
  155.4305  140.0503  157.3009 H   0  0  0  0  0  0  0  0  0  0  0  0  # atno 8010 bound_to 7997
  140.4384  143.2523  151.8661 H   0  0  0  0  0  0  0  0  0  0  0  0  # atno 10167 bound_to 10162
  156.2146  130.6940  151.0688 H   0  0  0  0  0  0  0  0  0  0  0  0  # atno 10718 bound_to 10713
  153.1945  135.6847  153.8309 H   0  0  0  0  0  0  0  0  0  0  0  0  # atno 10763 bound_to 10752
  153.7597  135.3211  155.3336 H   0  0  0  0  0  0  0  0  0  0  0  0  # atno 10764 bound_to 10752
  154.8136  135.4700  154.0683 H   0  0  0  0  0  0  0  0  0  0  0  0  # atno 10765 bound_to 10752
  141.1511  133.6722  156.6311 H   0  0  0  0  0  0  0  0  0  0  0  0  # atno 11005 bound_to 11000
  144.8383  139.5513  143.6912 LP  0  0  0  0  0  0  0  0  0  0  0  0  # atno 17320 bound_to 7965
  146.2758  139.6750  142.9264 LP  0  0  0  0  0  0  0  0  0  0  0  0  # atno 17321 bound_to 7965
  139.4788  144.5257  151.8739 LP  0  0  0  0  0  0  0  0  0  0  0  0  # atno 17342 bound_to 10162
  140.4347  144.2068  150.5889 LP  0  0  0  0  0  0  0  0  0  0  0  0  # atno 17343 bound_to 10162
  157.7056  131.0757  150.6677 LP  0  0  0  0  0  0  0  0  0  0  0  0  # atno 17370 bound_to 10713
  156.6737  130.4547  149.5649 LP  0  0  0  0  0  0  0  0  0  0  0  0  # atno 17371 bound_to 10713
  140.3466  134.7804  157.4436 LP  0  0  0  0  0  0  0  0  0  0  0  0  # atno 17394 bound_to 11000
  140.0895  134.5621  155.8459 LP  0  0  0  0  0  0  0  0  0  0  0  0  # atno 17395 bound_to 11000

$$$$
