AV-unprocessed.smi:3232|AV-procd|sdf|12344|dock5
  -GOLD-   2272018203D 1   1.00000     0.00000
 Structure written by MMmdl.
 40 41  0  0  0  0  0  0  0  0  2 V2000
  149.2536  129.4619  153.7895 C   0  0  0  0  0  0  0  0  0  0  0  0
  149.3809  130.9886  153.8705 C   0  0  0  0  0  0  0  0  0  0  0  0
  148.4366  131.6721  152.9526 N   0  3  1  0  0  0  0  0  0  0  0  0
  147.0224  131.2399  153.0518 C   0  0  0  0  0  0  0  0  0  0  0  0
  146.1652  132.4503  152.6557 C   0  0  0  0  0  0  0  0  0  0  0  0
  147.1678  133.5033  152.1870 C   0  0  0  0  0  0  0  0  0  0  0  0
  148.4503  133.1559  152.9533 C   0  0  1  0  0  0  0  0  0  0  0  0
  148.5045  133.7626  154.3802 C   0  0  0  0  0  0  0  0  0  0  0  0
  148.3359  135.2127  154.3748 N   0  0  0  0  0  0  0  0  0  0  0  0
  147.7883  135.9366  155.3654 C   0  0  0  0  0  0  0  0  0  0  0  0
  147.3270  135.4288  156.3884 O   0  0  0  0  0  0  0  0  0  0  0  0
  147.7466  137.4600  155.1540 C   0  0  1  0  0  0  0  0  0  0  0  0
  146.8966  138.1935  156.2115 C   0  0  0  0  0  0  0  0  0  0  0  0
  149.0965  138.0056  155.0718 N   0  0  0  0  0  0  0  0  0  0  0  0
  149.6416  138.8153  154.1615 C   0  0  0  0  0  0  0  0  0  0  0  0
  150.9216  139.0833  154.3762 N   0  0  0  0  0  0  0  0  0  0  0  0
  151.1200  138.3526  155.5132 C   0  0  0  0  0  0  0  0  0  0  0  0
  150.0622  137.6804  155.9671 N   0  0  0  0  0  0  0  0  0  0  0  0
  149.9882  128.9791  154.4343 H   0  0  0  0  0  0  0  0  0  0  0  0
  149.4205  129.1051  152.7727 H   0  0  0  0  0  0  0  0  0  0  0  0
  148.2670  129.1233  154.1074 H   0  0  0  0  0  0  0  0  0  0  0  0
  149.2229  131.3214  154.8972 H   0  0  0  0  0  0  0  0  0  0  0  0
  150.3997  131.2667  153.5975 H   0  0  0  0  0  0  0  0  0  0  0  0
  146.8494  130.3898  152.3912 H   0  0  0  0  0  0  0  0  0  0  0  0
  146.7777  130.9283  154.0685 H   0  0  0  0  0  0  0  0  0  0  0  0
  145.4323  132.2089  151.8851 H   0  0  0  0  0  0  0  0  0  0  0  0
  145.6206  132.8190  153.5260 H   0  0  0  0  0  0  0  0  0  0  0  0
  147.3436  133.3794  151.1174 H   0  0  0  0  0  0  0  0  0  0  0  0
  146.8129  134.5225  152.3343 H   0  0  0  0  0  0  0  0  0  0  0  0
  149.3223  133.5013  152.3960 H   0  0  0  0  0  0  0  0  0  0  0  0
  147.7726  133.2836  155.0327 H   0  0  0  0  0  0  0  0  0  0  0  0
  149.4779  133.5751  154.8330 H   0  0  0  0  0  0  0  0  0  0  0  0
  148.6864  135.7085  153.5679 H   0  0  0  0  0  0  0  0  0  0  0  0
  147.2729  137.6297  154.1857 H   0  0  0  0  0  0  0  0  0  0  0  0
  145.8732  137.8170  156.2263 H   0  0  0  0  0  0  0  0  0  0  0  0
  146.8466  139.2613  155.9965 H   0  0  0  0  0  0  0  0  0  0  0  0
  147.3057  138.0789  157.2163 H   0  0  0  0  0  0  0  0  0  0  0  0
  149.0921  139.2135  153.3212 H   0  0  0  0  0  0  0  0  0  0  0  0
  152.0740  138.3097  156.0179 H   0  0  0  0  0  0  0  0  0  0  0  0
  148.7246  131.4200  152.0179 H   0  0  0  0  0  0  0  0  0  0  0  0
  1  2  1  0  0  0  0
  1 19  1  0  0  0  0
  1 20  1  0  0  0  0
  1 21  1  0  0  0  0
  2  3  1  0  0  0  0
  2 22  1  0  0  0  0
  2 23  1  0  0  0  0
  3  7  1  0  0  0  0
  3  4  1  0  0  0  0
  3 40  1  0  0  0  0
  4  5  1  0  0  0  0
  4 24  1  0  0  0  0
  4 25  1  0  0  0  0
  5  6  1  0  0  0  0
  5 26  1  0  0  0  0
  5 27  1  0  0  0  0
  6  7  1  0  0  0  0
  6 28  1  0  0  0  0
  6 29  1  0  0  0  0
  7  8  1  0  0  0  0
  7 30  1  0  0  0  0
  8  9  1  0  0  0  0
  8 31  1  0  0  0  0
  8 32  1  0  0  0  0
  9 10  1  0  0  0  0
  9 33  1  0  0  0  0
 10 11  2  0  0  0  0
 10 12  1  0  0  0  0
 12 13  1  0  0  0  0
 12 14  1  0  0  0  0
 12 34  1  0  0  0  0
 13 35  1  0  0  0  0
 13 36  1  0  0  0  0
 13 37  1  0  0  0  0
 14 18  1  0  0  0  0
 14 15  1  0  0  0  0
 15 16  2  0  0  0  0
 15 38  1  0  0  0  0
 16 17  1  0  0  0  0
 17 18  2  0  0  0  0
 17 39  1  0  0  0  0
M  CHG  1   3   1
M  END
> <s_m_source_file>
AV-unprocessed.smi

> <i_m_source_file_index>
3232

> <i_lp_mmshare_version>
43012

> <i_f3d_flags>
0

> <s_epik_input>
W0NIM11bQ0gyXU4xW0NIMl1bQ0gyXVtDSDJdW0NASF0xW0NIMl1bTkhdQyg9TylbQ0BIXShbQ0gzXSluMltjSF1uW2NIXW4y

> <s_epik_cmdline>
J2VwaWtfcHl0aG9uJywgJy1waCcsICc3LjAnLCAnLXRuJywgJzgnLCAnLW1hJywgJzIwMCcsICctbWV0YWxfYmluZGluZycsICctaW1hZScsICc8aW5maWxlLm1hZT4nLCAnLW9tYWUnLCAnPG91dGZpbGUubWFlPic=

> <r_lp_tautomer_probability>
1

> <r_epik_Ionization_Penalty>
0.00177695

> <r_epik_Ionization_Penalty_Charging>
0.00176881

> <r_epik_Ionization_Penalty_Neutral>
8.13528e-06

> <r_epik_State_Penalty>
0.00119827

> <r_epik_Charging_Adjusted_Penalty>
0.00296709

> <i_epik_Tot_Q>
1

> <i_epik_Tot_abs_Q>
1

> <r_epik_Metal_State_Penalty>
-0

> <b_epik_Metal_Only>
0

> <s_lp_Force_Field>
OPLS_2005

> <r_lp_Energy>
36.9304

> <b_lp_Chiralities_Consistent>
1

> <s_lp_Variant>
AV-unprocessed.smi:3232-6

> <Gold.Version>
5.8.1

> <Gold.Id.Protein>
6NUR|6NUR_protein|mol2

> <Gold.PLP.Fitness>
33.4590

> <Gold.PLP.PLP>
-22.6971

> <Gold.PLP.part.hbond>
-3.0000

> <Gold.PLP.part.metal>
0.0000

> <Gold.PLP.part.buried>
-2.6279

> <Gold.PLP.part.nonpolar>
-16.8197

> <Gold.PLP.part.repulsive>
0.2086

> <Gold.PLP.ligand.clash>
0.0000

> <Gold.PLP.ligand.torsion>
0.6792

> <Gold.PLP.Chemscore.Hbond>
2.9913

> <Gold.PLP.Chemscore.CHOScore>
1.0000

> <Gold.PLP.Chemscore.Metal>
0.0000

> <Gold.Chemscore.Hbonds>
donor molecule, donor type, donor heavy atom, donor atom, acceptor molecule, acceptor atom, score
      L1  H     3    40       P1 10747  1.00
      L1  H     9    33       P1  7948  1.00
      P1  H  7989  7998       L1    16  0.81
      L1  C    15    38       P1  7957  1.00

> <Gold.PLP.Chemscore.Internal.Correction>
0.1465

> <Gold.Rescore>
     Score         DG    S(hbond)    S(metal)    S(lipo)     H(rot)  DE(clash)    DE(int)     intcor
     12.69     -13.38       2.94        0.00      37.90       2.49       0.05       0.64       ----

> <Gold.Chemscore.Fitness>
12.6933

> <Gold.Chemscore.DG>
-13.3764

> <Gold.Chemscore.ZeroCoef>
-5.4800

> <Gold.Chemscore.Hbond>
2.9438

> <Gold.Chemscore.Metal>
0.0000

> <Gold.Chemscore.Lipo>
37.8961

> <Gold.Chemscore.Internal_Hbond>
0.0000

> <Gold.Chemscore.DEClash>
0.0466

> <Gold.Chemscore.DEInternal>
0.6365

> <Gold.Chemscore.Rot>
2.4882

> <Gold.Chemscore.Internal.Correction>
   9.000000E+99

> <Gold.Chemscore.Hbonds>
donor molecule, donor type, donor heavy atom, donor atom, acceptor molecule, acceptor atom, score
      L1  H     3    40       P1 10747  0.94
      L1  H     9    33       P1  7948  0.98
      P1  H  7989  7998       L1    16  0.73

> <Gold.Chemscore.Hbond.Weighted>
-9.8323

> <Gold.Chemscore.Metal.Weighted>
-0.0000

> <Gold.Chemscore.Lipo.Weighted>
-4.4338

> <Gold.Chemscore.Internal_Hbond.Weighted>
0.0000

> <Gold.Chemscore.DEClash.Weighted>
0.0466

> <Gold.Chemscore.DEInternal.Weighted>
0.6365

> <Gold.Chemscore.Rot.Weighted>
6.3697

> <Gold.Chemscore.Internal.Correction.Weighted>
   9.000000E+99

> <Gold.Protein.RotatedTorsions>
[ 6907 6896 6895 6894 ] final  -88.46 input  -60.11 | X-H torsion
[ 7974 7965 7964 7962 ] final  140.02 input  175.53 | X-H torsion
[ 8008 7997 7996 7995 ] final   92.69 input   59.86 | X-H torsion
[ 10167 10162 10161 10158 ] final   -4.54 input  -65.29 | X-H torsion
[ 10718 10713 10712 10709 ] final -126.81 input   66.30 | X-H torsion
[ 10763 10752 10751 10750 ] final  175.10 input  -60.55 | X-H torsion
[ 11005 11000 10999 10996 ] final -100.04 input  -57.11 | X-H torsion

> <Gold.Protein.ActiveResidues>
 VAL166  LYS551  ARG553  GLY616  TRP617  ASP618  TYR619  PRO620  LYS621  CYS622 
 ASP623  PHE694  ASN695  SER759  ASP760  ASP761  ALA762  ILE779  LEU786  VAL792 
 PHE793  MET794  SER795  GLU796  ALA797  LYS798  CYS799  TRP800  GLU811  SER814 

> <Gold.Protein.RotatedAtoms>
  150.6869  134.2738  159.4598 H   0  0  0  0  0  0  0  0  0  0  0  0  # atno 6907 bound_to 6896
  152.0658  134.9562  160.0584 H   0  0  0  0  0  0  0  0  0  0  0  0  # atno 6908 bound_to 6896
  152.0971  133.4196  159.4607 H   0  0  0  0  0  0  0  0  0  0  0  0  # atno 6909 bound_to 6896
  144.9225  139.5149  143.5656 H   0  0  0  0  0  0  0  0  0  0  0  0  # atno 7974 bound_to 7965
  156.0382  140.3322  155.7215 H   0  0  0  0  0  0  0  0  0  0  0  0  # atno 8008 bound_to 7997
  155.5783  140.0634  157.2807 H   0  0  0  0  0  0  0  0  0  0  0  0  # atno 8009 bound_to 7997
  154.4382  140.1848  156.0939 H   0  0  0  0  0  0  0  0  0  0  0  0  # atno 8010 bound_to 7997
  140.6931  143.6412  150.8434 H   0  0  0  0  0  0  0  0  0  0  0  0  # atno 10167 bound_to 10162
  156.1799  130.6725  151.0291 H   0  0  0  0  0  0  0  0  0  0  0  0  # atno 10718 bound_to 10713
  154.4630  135.2768  155.1699 H   0  0  0  0  0  0  0  0  0  0  0  0  # atno 10763 bound_to 10752
  154.3479  135.6156  153.5632 H   0  0  0  0  0  0  0  0  0  0  0  0  # atno 10764 bound_to 10752
  152.9856  135.5804  154.4996 H   0  0  0  0  0  0  0  0  0  0  0  0  # atno 10765 bound_to 10752
  141.1286  133.8368  157.1050 H   0  0  0  0  0  0  0  0  0  0  0  0  # atno 11005 bound_to 11000
  146.3211  139.8115  142.8945 LP  0  0  0  0  0  0  0  0  0  0  0  0  # atno 17320 bound_to 7965
  145.3273  141.0258  143.3466 LP  0  0  0  0  0  0  0  0  0  0  0  0  # atno 17321 bound_to 7965
  140.0127  143.5626  152.2832 LP  0  0  0  0  0  0  0  0  0  0  0  0  # atno 17342 bound_to 10162
  139.6355  144.7649  151.2446 LP  0  0  0  0  0  0  0  0  0  0  0  0  # atno 17343 bound_to 10162
  157.6861  131.0824  150.7239 LP  0  0  0  0  0  0  0  0  0  0  0  0  # atno 17370 bound_to 10713
  156.7296  130.4705  149.5503 LP  0  0  0  0  0  0  0  0  0  0  0  0  # atno 17371 bound_to 10713
  140.0310  134.9901  157.0780 LP  0  0  0  0  0  0  0  0  0  0  0  0  # atno 17394 bound_to 11000
  140.4285  134.1805  155.7167 LP  0  0  0  0  0  0  0  0  0  0  0  0  # atno 17395 bound_to 11000

$$$$
