AV-unprocessed.smi:2|AV-procd|sdf|26|dock7
  -GOLD-   2262015143D 1   1.00000     0.00000
 Structure written by MMmdl.
 52 54  0  0  0  0  0  0  0  0  3 V2000
  142.7182  147.6848  155.3509 C   0  0  0  0  0  0  0  0  0  0  0  0
  142.4810  146.3009  154.7257 C   0  0  0  0  0  0  0  0  0  0  0  0
  143.6333  145.8131  153.8333 C   0  0  0  0  0  0  0  0  0  0  0  0
  143.8296  146.3481  152.7410 O   0  0  0  0  0  0  0  0  0  0  0  0
  144.4712  144.6912  154.3474 C   0  0  0  0  0  0  0  0  0  0  0  0
  144.2964  144.2461  155.6769 C   0  0  0  0  0  0  0  0  0  0  0  0
  145.0786  143.1940  156.1901 C   0  0  0  0  0  0  0  0  0  0  0  0
  146.0549  142.5629  155.3950 C   0  0  0  0  0  0  0  0  0  0  0  0
  146.7841  141.5520  155.9876 O   0  0  0  0  0  0  0  0  0  0  0  0
  148.1183  141.2976  155.5547 C   0  0  0  0  0  0  0  0  0  0  0  0
  149.1416  141.5769  156.6771 C   0  0  1  0  0  0  0  0  0  0  0  0
  149.0405  140.5409  157.6342 O   0  0  0  0  0  0  0  0  0  0  0  0
  150.5851  141.6616  156.1284 C   0  0  0  0  0  0  0  0  0  0  0  0
  151.5875  141.1038  157.0446 N   0  0  0  0  0  0  0  0  0  0  0  0
  152.2825  139.9356  156.8908 C   0  0  0  0  0  0  0  0  0  0  0  0
  152.1984  139.0004  155.7759 N   0  3  0  0  0  0  0  0  0  0  0  0
  152.7195  137.8963  155.8715 O   0  0  0  0  0  0  0  0  0  0  0  0
  151.6250  139.3876  154.7621 O   0  5  0  0  0  0  0  0  0  0  0  0
  153.0861  139.6423  157.9140 N   0  0  0  0  0  0  0  0  0  0  0  0
  152.8970  140.6893  158.7929 C   0  0  0  0  0  0  0  0  0  0  0  0
  153.4640  140.8919  160.1410 C   0  0  0  0  0  0  0  0  0  0  0  0
  154.2941  140.1093  160.6058 O   0  0  0  0  0  0  0  0  0  0  0  0
  152.9606  141.9822  160.7997 N   0  0  0  0  0  0  0  0  0  0  0  0
  153.3960  142.2171  162.1899 C   0  0  0  0  0  0  0  0  0  0  0  0
  152.0872  142.9077  160.2576 C   0  0  0  0  0  0  0  0  0  0  0  0
  151.6733  143.8519  160.9368 O   0  0  0  0  0  0  0  0  0  0  0  0
  151.7117  142.7650  158.9411 N   0  0  0  0  0  0  0  0  0  0  0  0
  151.0699  143.8963  158.2601 C   0  0  0  0  0  0  0  0  0  0  0  0
  152.0440  141.6136  158.2810 C   0  0  0  0  0  0  0  0  0  0  0  0
  146.2221  142.9989  154.0578 C   0  0  0  0  0  0  0  0  0  0  0  0
  145.4425  144.0520  153.5425 C   0  0  0  0  0  0  0  0  0  0  0  0
  141.8638  147.9810  155.9596 H   0  0  0  0  0  0  0  0  0  0  0  0
  142.8581  148.4505  154.5867 H   0  0  0  0  0  0  0  0  0  0  0  0
  143.5974  147.6846  155.9964 H   0  0  0  0  0  0  0  0  0  0  0  0
  142.3225  145.5710  155.5200 H   0  0  0  0  0  0  0  0  0  0  0  0
  141.5683  146.3282  154.1297 H   0  0  0  0  0  0  0  0  0  0  0  0
  143.5619  144.7083  156.3209 H   0  0  0  0  0  0  0  0  0  0  0  0
  144.9316  142.8727  157.2108 H   0  0  0  0  0  0  0  0  0  0  0  0
  148.1848  140.2552  155.2402 H   0  0  0  0  0  0  0  0  0  0  0  0
  148.3397  141.8678  154.6528 H   0  0  0  0  0  0  0  0  0  0  0  0
  148.8991  142.5071  157.1880 H   0  0  0  0  0  0  0  0  0  0  0  0
  148.9526  139.7171  157.1799 H   0  0  0  0  0  0  0  0  0  0  0  0
  150.6526  141.1671  155.1628 H   0  0  0  0  0  0  0  0  0  0  0  0
  150.8364  142.6851  155.8753 H   0  0  0  0  0  0  0  0  0  0  0  0
  152.5352  142.3176  162.8532 H   0  0  0  0  0  0  0  0  0  0  0  0
  153.9759  143.1392  162.2524 H   0  0  0  0  0  0  0  0  0  0  0  0
  154.0133  141.4260  162.6167 H   0  0  0  0  0  0  0  0  0  0  0  0
  151.6033  144.1347  157.3407 H   0  0  0  0  0  0  0  0  0  0  0  0
  151.0711  144.8259  158.8302 H   0  0  0  0  0  0  0  0  0  0  0  0
  150.0300  143.6759  158.0395 H   0  0  0  0  0  0  0  0  0  0  0  0
  146.9475  142.5468  153.4005 H   0  0  0  0  0  0  0  0  0  0  0  0
  145.6114  144.3532  152.5196 H   0  0  0  0  0  0  0  0  0  0  0  0
  1  2  1  0  0  0  0
  1 32  1  0  0  0  0
  1 33  1  0  0  0  0
  1 34  1  0  0  0  0
  2  3  1  0  0  0  0
  2 35  1  0  0  0  0
  2 36  1  0  0  0  0
  3  4  2  0  0  0  0
  3  5  1  0  0  0  0
  5 31  1  0  0  0  0
  5  6  2  0  0  0  0
  6  7  1  0  0  0  0
  6 37  1  0  0  0  0
  7  8  2  0  0  0  0
  7 38  1  0  0  0  0
  8  9  1  0  0  0  0
  8 30  1  0  0  0  0
  9 10  1  0  0  0  0
 10 11  1  0  0  0  0
 10 39  1  0  0  0  0
 10 40  1  0  0  0  0
 11 12  1  0  0  0  0
 11 13  1  0  0  0  0
 11 41  1  0  0  0  0
 12 42  1  0  0  0  0
 13 14  1  0  0  0  0
 13 43  1  0  0  0  0
 13 44  1  0  0  0  0
 14 29  1  0  0  0  0
 14 15  1  0  0  0  0
 15 16  1  0  0  0  0
 15 19  2  0  0  0  0
 16 17  2  0  0  0  0
 16 18  1  0  0  0  0
 19 20  1  0  0  0  0
 20 29  2  0  0  0  0
 20 21  1  0  0  0  0
 21 22  2  0  0  0  0
 21 23  1  0  0  0  0
 23 24  1  0  0  0  0
 23 25  1  0  0  0  0
 24 45  1  0  0  0  0
 24 46  1  0  0  0  0
 24 47  1  0  0  0  0
 25 26  2  0  0  0  0
 25 27  1  0  0  0  0
 27 28  1  0  0  0  0
 27 29  1  0  0  0  0
 28 48  1  0  0  0  0
 28 49  1  0  0  0  0
 28 50  1  0  0  0  0
 30 31  2  0  0  0  0
 30 51  1  0  0  0  0
 31 52  1  0  0  0  0
M  CHG  1  16   1
M  CHG  1  18  -1
M  END
> <s_m_source_file>
AV-unprocessed.smi

> <i_m_source_file_index>
2

> <i_lp_mmshare_version>
43012

> <i_f3d_flags>
0

> <s_epik_input>
W0NIM11bQ0gyXUMoPU8pYzFbY0hdW2NIXWMoW2NIXVtjSF0xKU9bQ0gyXVtDQEhdKFtPSF0pW0NIMl1uKGMobjIpW04rXSg9TylbTy1dKWMoYzIzKW4oW0NIM10pYyg9TyluKGMzPU8pW0NIM10=

> <s_epik_cmdline>
J2VwaWtfcHl0aG9uJywgJy1waCcsICc3LjAnLCAnLXRuJywgJzgnLCAnLW1hJywgJzIwMCcsICctbWV0YWxfYmluZGluZycsICctaW1hZScsICc8aW5maWxlLm1hZT4nLCAnLW9tYWUnLCAnPG91dGZpbGUubWFlPic=

> <r_lp_tautomer_probability>
1

> <r_epik_Ionization_Penalty>
1.02275e-06

> <r_epik_Ionization_Penalty_Charging>
4.46226e-11

> <r_epik_Ionization_Penalty_Neutral>
1.02271e-06

> <r_epik_State_Penalty>
-0

> <r_epik_Charging_Adjusted_Penalty>
4.46226e-11

> <i_epik_Tot_Q>
0

> <i_epik_Tot_abs_Q>
2

> <r_epik_Metal_State_Penalty>
-0

> <b_epik_Metal_Only>
0

> <s_lp_Force_Field>
OPLS_2005

> <r_lp_Energy>
60.3612

> <b_lp_Chiralities_Consistent>
1

> <s_lp_Variant>
AV-unprocessed.smi:2-2

> <Gold.Version>
5.8.1

> <Gold.Id.Protein>
6NUR|6NUR_protein|mol2

> <Gold.PLP.Fitness>
63.6821

> <Gold.PLP.PLP>
-60.8127

> <Gold.PLP.part.hbond>
-3.5404

> <Gold.PLP.part.metal>
0.0000

> <Gold.PLP.part.buried>
-8.3843

> <Gold.PLP.part.nonpolar>
-49.5197

> <Gold.PLP.part.repulsive>
0.4001

> <Gold.PLP.ligand.clash>
0.0000

> <Gold.PLP.ligand.torsion>
1.6487

> <Gold.PLP.Chemscore.Hbond>
2.0000

> <Gold.PLP.Chemscore.CHOScore>
0.0000

> <Gold.PLP.Chemscore.Metal>
0.0000

> <Gold.Chemscore.Hbonds>
donor molecule, donor type, donor heavy atom, donor atom, acceptor molecule, acceptor atom, score
      P1  H  7989  7998       L1    18  1.00
      P1  H  7997  8010       L1    19  0.95

> <Gold.PLP.Chemscore.Internal.Correction>
0.1668

> <Gold.Rescore>
     Score         DG    S(hbond)    S(metal)    S(lipo)     H(rot)  DE(clash)    DE(int)     intcor
      7.03     -12.14       1.17        0.00      92.55       3.16       2.13       2.98       ----

> <Gold.Chemscore.Fitness>
7.0284

> <Gold.Chemscore.DG>
-12.1386

> <Gold.Chemscore.ZeroCoef>
-5.4800

> <Gold.Chemscore.Hbond>
1.1734

> <Gold.Chemscore.Metal>
0.0000

> <Gold.Chemscore.Lipo>
92.5502

> <Gold.Chemscore.Internal_Hbond>
0.0000

> <Gold.Chemscore.DEClash>
2.1345

> <Gold.Chemscore.DEInternal>
2.9758

> <Gold.Chemscore.Rot>
3.1597

> <Gold.Chemscore.Internal.Correction>
   9.000000E+99

> <Gold.Chemscore.Hbonds>
donor molecule, donor type, donor heavy atom, donor atom, acceptor molecule, acceptor atom, score
      P1  H  7989  7998       L1    18  0.98
      P1  H  7997  8010       L1    19  0.08

> <Gold.Chemscore.Hbond.Weighted>
-3.9191

> <Gold.Chemscore.Metal.Weighted>
-0.0000

> <Gold.Chemscore.Lipo.Weighted>
-10.8284

> <Gold.Chemscore.Internal_Hbond.Weighted>
0.0000

> <Gold.Chemscore.DEClash.Weighted>
2.1345

> <Gold.Chemscore.DEInternal.Weighted>
2.9758

> <Gold.Chemscore.Rot.Weighted>
8.0888

> <Gold.Chemscore.Internal.Correction.Weighted>
   9.000000E+99

> <Gold.Protein.RotatedTorsions>
[ 6907 6896 6895 6894 ] final   -9.49 input  -60.11 | X-H torsion
[ 7974 7965 7964 7962 ] final   16.62 input  175.53 | X-H torsion
[ 8008 7997 7996 7995 ] final   23.62 input   59.86 | X-H torsion
[ 10167 10162 10161 10158 ] final   55.85 input  -65.29 | X-H torsion
[ 10718 10713 10712 10709 ] final  152.04 input   66.30 | X-H torsion
[ 10763 10752 10751 10750 ] final    5.92 input  -60.55 | X-H torsion
[ 11005 11000 10999 10996 ] final  -66.44 input  -57.11 | X-H torsion

> <Gold.Protein.ActiveResidues>
 VAL166  LYS551  ARG553  GLY616  TRP617  ASP618  TYR619  PRO620  LYS621  CYS622 
 ASP623  PHE694  ASN695  SER759  ASP760  ASP761  ALA762  ILE779  LEU786  VAL792 
 PHE793  MET794  SER795  GLU796  ALA797  LYS798  CYS799  TRP800  GLU811  SER814 

> <Gold.Protein.RotatedAtoms>
  151.4170  135.0993  159.9602 H   0  0  0  0  0  0  0  0  0  0  0  0  # atno 6907 bound_to 6896
  152.5001  133.8743  159.7324 H   0  0  0  0  0  0  0  0  0  0  0  0  # atno 6908 bound_to 6896
  150.9250  133.6777  159.2851 H   0  0  0  0  0  0  0  0  0  0  0  0  # atno 6909 bound_to 6896
  146.2244  139.8721  142.8585 H   0  0  0  0  0  0  0  0  0  0  0  0  # atno 7974 bound_to 7965
  154.9838  140.3105  155.4935 H   0  0  0  0  0  0  0  0  0  0  0  0  # atno 8008 bound_to 7997
  156.2950  140.2262  156.4878 H   0  0  0  0  0  0  0  0  0  0  0  0  # atno 8009 bound_to 7997
  154.7766  140.0449  157.1082 H   0  0  0  0  0  0  0  0  0  0  0  0  # atno 8010 bound_to 7997
  140.2151  144.3848  150.6473 H   0  0  0  0  0  0  0  0  0  0  0  0  # atno 10167 bound_to 10162
  157.2629  131.0802  151.1653 H   0  0  0  0  0  0  0  0  0  0  0  0  # atno 10718 bound_to 10713
  153.2538  135.6916  153.7651 H   0  0  0  0  0  0  0  0  0  0  0  0  # atno 10763 bound_to 10752
  153.6736  135.3340  155.3160 H   0  0  0  0  0  0  0  0  0  0  0  0  # atno 10764 bound_to 10752
  154.8404  135.4505  154.1504 H   0  0  0  0  0  0  0  0  0  0  0  0  # atno 10765 bound_to 10752
  141.1482  133.6699  156.6140 H   0  0  0  0  0  0  0  0  0  0  0  0  # atno 11005 bound_to 11000
  145.2598  141.0073  143.3833 LP  0  0  0  0  0  0  0  0  0  0  0  0  # atno 17320 bound_to 7965
  144.9308  139.4301  143.6496 LP  0  0  0  0  0  0  0  0  0  0  0  0  # atno 17321 bound_to 7965
  140.6296  143.2185  151.6524 LP  0  0  0  0  0  0  0  0  0  0  0  0  # atno 17342 bound_to 10162
  139.5165  144.3344  152.0797 LP  0  0  0  0  0  0  0  0  0  0  0  0  # atno 17343 bound_to 10162
  157.3155  130.6911  149.6240 LP  0  0  0  0  0  0  0  0  0  0  0  0  # atno 17370 bound_to 10713
  155.9664  130.4351  150.5076 LP  0  0  0  0  0  0  0  0  0  0  0  0  # atno 17371 bound_to 10713
  140.3592  134.7702  157.4522 LP  0  0  0  0  0  0  0  0  0  0  0  0  # atno 17394 bound_to 11000
  140.0798  134.5746  155.8552 LP  0  0  0  0  0  0  0  0  0  0  0  0  # atno 17395 bound_to 11000

$$$$
