AV-unprocessed.smi:2871|AV-procd|sdf|11033|dock2
  -GOLD-   2272015493D 1   1.00000     0.00000
 Structure written by MMmdl.
 38 40  0  0  0  0  0  0  0  0  1 V2000
  153.1351  143.2245  162.8167 C   0  0  0  0  0  0  0  0  0  0  0  0
  152.6672  143.2255  161.4365 N   0  0  0  0  0  0  0  0  0  0  0  0
  151.9006  144.3554  160.9222 C   0  0  0  0  0  0  0  0  0  0  0  0
  152.9900  142.1507  160.5788 C   0  0  0  0  0  0  0  0  0  0  0  0
  154.0600  141.2644  160.8536 C   0  0  0  0  0  0  0  0  0  0  0  0
  154.2898  140.2273  159.9214 C   0  0  0  0  0  0  0  0  0  0  0  0
  155.4076  139.2113  160.1016 C   0  0  0  0  0  0  0  0  0  0  0  0
  155.2691  138.5234  161.2357 F   0  0  0  0  0  0  0  0  0  0  0  0
  155.4017  138.3513  159.0830 F   0  0  0  0  0  0  0  0  0  0  0  0
  156.5840  139.8378  160.1290 F   0  0  0  0  0  0  0  0  0  0  0  0
  153.5240  140.0882  158.8161 N   0  0  0  0  0  0  0  0  0  0  0  0
  152.5414  140.9715  158.6445 C   0  0  0  0  0  0  0  0  0  0  0  0
  151.7815  140.8032  157.5016 N   0  0  0  0  0  0  0  0  0  0  0  0
  151.6940  139.5617  156.7428 C   0  0  1  0  0  0  0  0  0  0  0  0
  150.2539  139.0635  156.5673 C   0  0  0  0  0  0  0  0  0  0  0  0
  150.1449  138.9436  155.0423 C   0  0  2  0  0  0  0  0  0  0  0  0
  151.0110  137.8061  154.4836 C   0  0  0  0  0  0  0  0  0  0  0  0
  152.4177  138.3884  154.6201 C   0  0  0  0  0  0  0  0  0  0  0  0
  152.1358  139.7443  155.2812 C   0  0  1  0  0  0  0  0  0  0  0  0
  150.9075  140.0714  154.6509 O   0  0  0  0  0  0  0  0  0  0  0  0
  152.2387  141.9832  159.4637 N   0  0  0  0  0  0  0  0  0  0  0  0
  152.7517  142.3547  163.3512 H   0  0  0  0  0  0  0  0  0  0  0  0
  152.8015  144.1149  163.3494 H   0  0  0  0  0  0  0  0  0  0  0  0
  154.2248  143.2037  162.8518 H   0  0  0  0  0  0  0  0  0  0  0  0
  150.9194  144.0268  160.5783 H   0  0  0  0  0  0  0  0  0  0  0  0
  152.4213  144.8236  160.0862 H   0  0  0  0  0  0  0  0  0  0  0  0
  151.7491  145.1157  161.6885 H   0  0  0  0  0  0  0  0  0  0  0  0
  154.6810  141.3642  161.7305 H   0  0  0  0  0  0  0  0  0  0  0  0
  151.1945  141.5748  157.2195 H   0  0  0  0  0  0  0  0  0  0  0  0
  152.3175  138.8100  157.2288 H   0  0  0  0  0  0  0  0  0  0  0  0
  150.0734  138.1157  157.0755 H   0  0  0  0  0  0  0  0  0  0  0  0
  149.5284  139.7887  156.9391 H   0  0  0  0  0  0  0  0  0  0  0  0
  149.1197  138.9439  154.6714 H   0  0  0  0  0  0  0  0  0  0  0  0
  150.8807  136.8767  155.0390 H   0  0  0  0  0  0  0  0  0  0  0  0
  150.7763  137.6155  153.4359 H   0  0  0  0  0  0  0  0  0  0  0  0
  153.0808  137.7616  155.2172 H   0  0  0  0  0  0  0  0  0  0  0  0
  152.8710  138.5253  153.6377 H   0  0  0  0  0  0  0  0  0  0  0  0
  152.9326  140.4746  155.1347 H   0  0  0  0  0  0  0  0  0  0  0  0
  1  2  1  0  0  0  0
  1 22  1  0  0  0  0
  1 23  1  0  0  0  0
  1 24  1  0  0  0  0
  2  3  1  0  0  0  0
  2  4  1  0  0  0  0
  3 25  1  0  0  0  0
  3 26  1  0  0  0  0
  3 27  1  0  0  0  0
  4 21  1  0  0  0  0
  4  5  2  0  0  0  0
  5  6  1  0  0  0  0
  5 28  1  0  0  0  0
  6  7  1  0  0  0  0
  6 11  2  0  0  0  0
  7  8  1  0  0  0  0
  7  9  1  0  0  0  0
  7 10  1  0  0  0  0
 11 12  1  0  0  0  0
 12 13  1  0  0  0  0
 12 21  2  0  0  0  0
 13 14  1  0  0  0  0
 13 29  1  0  0  0  0
 14 19  1  0  0  0  0
 14 15  1  0  0  0  0
 14 30  1  0  0  0  0
 15 16  1  0  0  0  0
 15 31  1  0  0  0  0
 15 32  1  0  0  0  0
 16 20  1  0  0  0  0
 16 17  1  0  0  0  0
 16 33  1  0  0  0  0
 17 18  1  0  0  0  0
 17 34  1  0  0  0  0
 17 35  1  0  0  0  0
 18 19  1  0  0  0  0
 18 36  1  0  0  0  0
 18 37  1  0  0  0  0
 19 20  1  0  0  0  0
 19 38  1  0  0  0  0
M  END
> <s_m_source_file>
AV-unprocessed.smi

> <i_m_source_file_index>
2871

> <i_lp_mmshare_version>
43012

> <i_f3d_flags>
0

> <s_epik_input>
W0NIM11OKFtDSDNdKWMxW2NIXWMoQyhGKShGKUYpbmMobjEpW05IXVtDQEhdKFtDSDJdW0NAQEhdMjMpW0NAQEhdKE8zKVtDSDJdW0NIMl0y

> <s_epik_cmdline>
J2VwaWtfcHl0aG9uJywgJy1waCcsICc3LjAnLCAnLXRuJywgJzgnLCAnLW1hJywgJzIwMCcsICctbWV0YWxfYmluZGluZycsICctaW1hZScsICc8aW5maWxlLm1hZT4nLCAnLW9tYWUnLCAnPG91dGZpbGUubWFlPic=

> <r_lp_tautomer_probability>
1

> <r_epik_Ionization_Penalty>
0.00695968

> <r_epik_Ionization_Penalty_Charging>
0

> <r_epik_Ionization_Penalty_Neutral>
0.00695968

> <r_epik_State_Penalty>
0.0050343

> <r_epik_Charging_Adjusted_Penalty>
0.0050343

> <i_epik_Tot_Q>
0

> <i_epik_Tot_abs_Q>
0

> <r_epik_Metal_State_Penalty>
-0

> <b_epik_Metal_Only>
0

> <s_lp_Force_Field>
OPLS_2005

> <r_lp_Energy>
32.5699

> <b_lp_Chiralities_Consistent>
1

> <s_lp_Variant>
AV-unprocessed.smi:2871-4

> <Gold.Version>
5.8.1

> <Gold.Id.Protein>
6NUR|6NUR_protein|mol2

> <Gold.PLP.Fitness>
48.1471

> <Gold.PLP.PLP>
-43.1370

> <Gold.PLP.part.hbond>
-2.0000

> <Gold.PLP.part.metal>
0.0000

> <Gold.PLP.part.buried>
-4.7624

> <Gold.PLP.part.nonpolar>
-36.6517

> <Gold.PLP.part.repulsive>
0.1704

> <Gold.PLP.ligand.clash>
0.0000

> <Gold.PLP.ligand.torsion>
0.2740

> <Gold.PLP.Chemscore.Hbond>
1.8413

> <Gold.PLP.Chemscore.CHOScore>
0.0000

> <Gold.PLP.Chemscore.Metal>
0.0000

> <Gold.Chemscore.Hbonds>
donor molecule, donor type, donor heavy atom, donor atom, acceptor molecule, acceptor atom, score
      P1  H  7989  7998       L1    20  0.60
      P1  H  7997  8008       L1    11  0.96

> <Gold.PLP.Chemscore.Internal.Correction>
0.0342

> <Gold.Rescore>
     Score         DG    S(hbond)    S(metal)    S(lipo)     H(rot)  DE(clash)    DE(int)     intcor
     17.10     -17.60       1.32        0.00      87.78       1.00       0.12       0.37       ----

> <Gold.Chemscore.Fitness>
17.0984

> <Gold.Chemscore.DG>
-17.5952

> <Gold.Chemscore.ZeroCoef>
-5.4800

> <Gold.Chemscore.Hbond>
1.3189

> <Gold.Chemscore.Metal>
0.0000

> <Gold.Chemscore.Lipo>
87.7792

> <Gold.Chemscore.Internal_Hbond>
0.0000

> <Gold.Chemscore.DEClash>
0.1229

> <Gold.Chemscore.DEInternal>
0.3739

> <Gold.Chemscore.Rot>
1.0000

> <Gold.Chemscore.Internal.Correction>
   9.000000E+99

> <Gold.Chemscore.Hbonds>
donor molecule, donor type, donor heavy atom, donor atom, acceptor molecule, acceptor atom, score
      P1  H  7989  7998       L1    20  0.04
      P1  H  7997  8008       L1    11  0.44

> <Gold.Chemscore.Hbond.Weighted>
-4.4050

> <Gold.Chemscore.Metal.Weighted>
-0.0000

> <Gold.Chemscore.Lipo.Weighted>
-10.2702

> <Gold.Chemscore.Internal_Hbond.Weighted>
0.0000

> <Gold.Chemscore.DEClash.Weighted>
0.1229

> <Gold.Chemscore.DEInternal.Weighted>
0.3739

> <Gold.Chemscore.Rot.Weighted>
2.5600

> <Gold.Chemscore.Internal.Correction.Weighted>
   9.000000E+99

> <Gold.Protein.RotatedTorsions>
[ 6907 6896 6895 6894 ] final  -86.24 input  -60.11 | X-H torsion
[ 7974 7965 7964 7962 ] final  -84.55 input  175.53 | X-H torsion
[ 8008 7997 7996 7995 ] final -100.02 input   59.86 | X-H torsion
[ 10167 10162 10161 10158 ] final  116.54 input  -65.29 | X-H torsion
[ 10718 10713 10712 10709 ] final  102.12 input   66.30 | X-H torsion
[ 10763 10752 10751 10750 ] final  -80.36 input  -60.55 | X-H torsion
[ 11005 11000 10999 10996 ] final  -55.68 input  -57.11 | X-H torsion

> <Gold.Protein.ActiveResidues>
 VAL166  LYS551  ARG553  GLY616  TRP617  ASP618  TYR619  PRO620  LYS621  CYS622 
 ASP623  PHE694  ASN695  SER759  ASP760  ASP761  ALA762  ILE779  LEU786  VAL792 
 PHE793  MET794  SER795  GLU796  ALA797  LYS798  CYS799  TRP800  GLU811  SER814 

> <Gold.Protein.RotatedAtoms>
  150.6867  134.3081  159.4734 H   0  0  0  0  0  0  0  0  0  0  0  0  # atno 6907 bound_to 6896
  152.0970  134.9365  160.0580 H   0  0  0  0  0  0  0  0  0  0  0  0  # atno 6908 bound_to 6896
  152.0659  133.4049  159.4475 H   0  0  0  0  0  0  0  0  0  0  0  0  # atno 6909 bound_to 6896
  145.5052  140.9544  143.1738 H   0  0  0  0  0  0  0  0  0  0  0  0  # atno 7974 bound_to 7965
  154.8229  140.0444  157.1423 H   0  0  0  0  0  0  0  0  0  0  0  0  # atno 8008 bound_to 7997
  154.9239  140.3030  155.5182 H   0  0  0  0  0  0  0  0  0  0  0  0  # atno 8009 bound_to 7997
  156.2981  140.2335  156.4292 H   0  0  0  0  0  0  0  0  0  0  0  0  # atno 8010 bound_to 7997
  139.6240  144.7105  151.2574 H   0  0  0  0  0  0  0  0  0  0  0  0  # atno 10167 bound_to 10162
  157.6811  131.0744  150.5355 H   0  0  0  0  0  0  0  0  0  0  0  0  # atno 10718 bound_to 10713
  154.5503  135.5663  153.6916 H   0  0  0  0  0  0  0  0  0  0  0  0  # atno 10763 bound_to 10752
  152.9987  135.6249  154.2383 H   0  0  0  0  0  0  0  0  0  0  0  0  # atno 10764 bound_to 10752
  154.2318  135.2865  155.2867 H   0  0  0  0  0  0  0  0  0  0  0  0  # atno 10765 bound_to 10752
  141.1085  133.6612  156.4506 H   0  0  0  0  0  0  0  0  0  0  0  0  # atno 11005 bound_to 11000
  144.7758  139.6633  143.7175 LP  0  0  0  0  0  0  0  0  0  0  0  0  # atno 17320 bound_to 7965
  146.2201  139.5620  142.9624 LP  0  0  0  0  0  0  0  0  0  0  0  0  # atno 17321 bound_to 7965
  140.7399  143.6603  150.8170 LP  0  0  0  0  0  0  0  0  0  0  0  0  # atno 17342 bound_to 10162
  140.0218  143.5535  152.2797 LP  0  0  0  0  0  0  0  0  0  0  0  0  # atno 17343 bound_to 10162
  156.5664  130.4268  149.6039 LP  0  0  0  0  0  0  0  0  0  0  0  0  # atno 17370 bound_to 10713
  156.2778  130.7053  151.1869 LP  0  0  0  0  0  0  0  0  0  0  0  0  # atno 17371 bound_to 10713
  140.4838  134.6640  157.5182 LP  0  0  0  0  0  0  0  0  0  0  0  0  # atno 17394 bound_to 11000
  139.9967  134.6900  155.9598 LP  0  0  0  0  0  0  0  0  0  0  0  0  # atno 17395 bound_to 11000

$$$$
