AV-unprocessed.smi:3275|AV-procd|sdf|12530|dock3
  -GOLD-   2272018443D 1   1.00000     0.00000
 Structure written by MMmdl.
 35 36  0  0  0  0  0  0  0  0  2 V2000
  148.5461  138.5452  153.4200 O   0  0  0  0  0  0  0  0  0  0  0  0
  149.5176  139.3893  153.9994 C   0  0  0  0  0  0  0  0  0  0  0  0
  150.6099  138.5441  154.6622 C   0  0  0  0  0  0  0  0  0  0  0  0
  151.7048  139.3957  154.9777 O   0  0  0  0  0  0  0  0  0  0  0  0
  152.0206  139.5781  156.3576 C   0  0  2  0  0  0  0  0  0  0  0  0
  151.5679  138.4020  157.2473 C   0  0  0  0  0  0  0  0  0  0  0  0
  152.0205  138.6410  158.6973 C   0  0  0  0  0  0  0  0  0  0  0  0
  151.5297  140.0064  159.2114 C   0  0  0  0  0  0  0  0  0  0  0  0
  151.9459  141.0804  158.3130 N   0  0  0  0  0  0  0  0  0  0  0  0
  151.7199  142.3615  158.8380 C   0  0  0  0  0  0  0  0  0  0  0  0
  150.8890  143.2921  158.1683 C   0  0  0  0  0  0  0  0  0  0  0  0
  150.6880  144.5701  158.7277 C   0  0  0  0  0  0  0  0  0  0  0  0
  151.2848  144.8947  159.8946 N   0  3  0  0  0  0  0  0  0  0  0  0
  152.0820  144.0392  160.5701 C   0  0  0  0  0  0  0  0  0  0  0  0
  152.3220  142.7464  160.0607 C   0  0  0  0  0  0  0  0  0  0  0  0
  153.3478  141.6658  160.9372 Cl  0  0  0  0  0  0  0  0  0  0  0  0
  151.5187  140.9227  156.9251 C   0  0  0  0  0  0  0  0  0  0  0  0
  148.9853  137.9152  152.8691 H   0  0  0  0  0  0  0  0  0  0  0  0
  149.9434  140.0294  153.2262 H   0  0  0  0  0  0  0  0  0  0  0  0
  149.0358  140.0363  154.7329 H   0  0  0  0  0  0  0  0  0  0  0  0
  150.2088  138.0796  155.5627 H   0  0  0  0  0  0  0  0  0  0  0  0
  150.9152  137.7491  153.9826 H   0  0  0  0  0  0  0  0  0  0  0  0
  153.1111  139.6028  156.3879 H   0  0  0  0  0  0  0  0  0  0  0  0
  150.4831  138.2993  157.2326 H   0  0  0  0  0  0  0  0  0  0  0  0
  151.9800  137.4641  156.8742 H   0  0  0  0  0  0  0  0  0  0  0  0
  151.6495  137.8438  159.3418 H   0  0  0  0  0  0  0  0  0  0  0  0
  153.1092  138.6012  158.7508 H   0  0  0  0  0  0  0  0  0  0  0  0
  150.4418  140.0022  159.2930 H   0  0  0  0  0  0  0  0  0  0  0  0
  151.9246  140.1869  160.2122 H   0  0  0  0  0  0  0  0  0  0  0  0
  150.4071  143.0327  157.2368 H   0  0  0  0  0  0  0  0  0  0  0  0
  150.0716  145.3362  158.2805 H   0  0  0  0  0  0  0  0  0  0  0  0
  152.5028  144.4121  161.4924 H   0  0  0  0  0  0  0  0  0  0  0  0
  151.9061  141.7477  156.3255 H   0  0  0  0  0  0  0  0  0  0  0  0
  150.4309  140.9736  156.8839 H   0  0  0  0  0  0  0  0  0  0  0  0
  151.1265  145.8252  160.2826 H   0  0  0  0  0  0  0  0  0  0  0  0
  1  2  1  0  0  0  0
  1 18  1  0  0  0  0
  2  3  1  0  0  0  0
  2 19  1  0  0  0  0
  2 20  1  0  0  0  0
  3  4  1  0  0  0  0
  3 21  1  0  0  0  0
  3 22  1  0  0  0  0
  4  5  1  0  0  0  0
  5 17  1  0  0  0  0
  5  6  1  0  0  0  0
  5 23  1  0  0  0  0
  6  7  1  0  0  0  0
  6 24  1  0  0  0  0
  6 25  1  0  0  0  0
  7  8  1  0  0  0  0
  7 26  1  0  0  0  0
  7 27  1  0  0  0  0
  8  9  1  0  0  0  0
  8 28  1  0  0  0  0
  8 29  1  0  0  0  0
  9 10  1  0  0  0  0
  9 17  1  0  0  0  0
 10 15  1  0  0  0  0
 10 11  2  0  0  0  0
 11 12  1  0  0  0  0
 11 30  1  0  0  0  0
 12 13  2  0  0  0  0
 12 31  1  0  0  0  0
 13 14  1  0  0  0  0
 13 35  1  0  0  0  0
 14 15  2  0  0  0  0
 14 32  1  0  0  0  0
 15 16  1  0  0  0  0
 17 33  1  0  0  0  0
 17 34  1  0  0  0  0
M  CHG  1  13   1
M  END
> <s_m_source_file>
AV-unprocessed.smi

> <i_m_source_file_index>
3275

> <i_lp_mmshare_version>
43012

> <i_f3d_flags>
0

> <s_epik_input>
W09IXVtDSDJdW0NIMl1PW0NAQEhdMVtDSDJdW0NIMl1bQ0gyXU4oW0NIMl0xKWMyW2NIXVtjSF1uW2NIXWMyQ2w=

> <s_epik_cmdline>
J2VwaWtfcHl0aG9uJywgJy1waCcsICc3LjAnLCAnLXRuJywgJzgnLCAnLW1hJywgJzIwMCcsICctbWV0YWxfYmluZGluZycsICctaW1hZScsICc8aW5maWxlLm1hZT4nLCAnLW9tYWUnLCAnPG91dGZpbGUubWFlPic=

> <r_lp_tautomer_probability>
1

> <r_epik_Ionization_Penalty>
0.0778579

> <r_epik_Ionization_Penalty_Charging>
0.0778578

> <r_epik_Ionization_Penalty_Neutral>
8.80348e-08

> <r_epik_State_Penalty>
0.0687871

> <r_epik_Charging_Adjusted_Penalty>
0.146645

> <i_epik_Tot_Q>
1

> <i_epik_Tot_abs_Q>
1

> <r_epik_Metal_State_Penalty>
2.85646

> <b_epik_Metal_Only>
0

> <s_lp_Force_Field>
OPLS_2005

> <r_lp_Energy>
28.015

> <b_lp_Chiralities_Consistent>
1

> <s_lp_Variant>
AV-unprocessed.smi:3275-1

> <Gold.Version>
5.8.1

> <Gold.Id.Protein>
6NUR|6NUR_protein|mol2

> <Gold.PLP.Fitness>
38.9331

> <Gold.PLP.PLP>
-34.9576

> <Gold.PLP.part.hbond>
-3.0000

> <Gold.PLP.part.metal>
0.0000

> <Gold.PLP.part.buried>
-3.8804

> <Gold.PLP.part.nonpolar>
-28.2618

> <Gold.PLP.part.repulsive>
0.1967

> <Gold.PLP.ligand.clash>
0.0428

> <Gold.PLP.ligand.torsion>
1.0888

> <Gold.PLP.Chemscore.Hbond>
1.9920

> <Gold.PLP.Chemscore.CHOScore>
0.0000

> <Gold.PLP.Chemscore.Metal>
0.0000

> <Gold.Chemscore.Hbonds>
donor molecule, donor type, donor heavy atom, donor atom, acceptor molecule, acceptor atom, score
      L1  H     1    18       P1  7948  1.00
      P1  H  7989  7998       L1     4  0.88

> <Gold.PLP.Chemscore.Internal.Correction>
0.2199

> <Gold.Rescore>
     Score         DG    S(hbond)    S(metal)    S(lipo)     H(rot)  DE(clash)    DE(int)     intcor
     17.68     -19.01       1.95        0.00     106.86       2.14       0.06       1.27       ----

> <Gold.Chemscore.Fitness>
17.6769

> <Gold.Chemscore.DG>
-19.0100

> <Gold.Chemscore.ZeroCoef>
-5.4800

> <Gold.Chemscore.Hbond>
1.9479

> <Gold.Chemscore.Metal>
0.0000

> <Gold.Chemscore.Lipo>
106.8564

> <Gold.Chemscore.Internal_Hbond>
0.0000

> <Gold.Chemscore.DEClash>
0.0595

> <Gold.Chemscore.DEInternal>
1.2735

> <Gold.Chemscore.Rot>
2.1400

> <Gold.Chemscore.Internal.Correction>
   9.000000E+99

> <Gold.Chemscore.Hbonds>
donor molecule, donor type, donor heavy atom, donor atom, acceptor molecule, acceptor atom, score
      L1  H     1    18       P1  7948  0.95
      P1  H  7989  7998       L1     4  0.38

> <Gold.Chemscore.Hbond.Weighted>
-6.5060

> <Gold.Chemscore.Metal.Weighted>
-0.0000

> <Gold.Chemscore.Lipo.Weighted>
-12.5022

> <Gold.Chemscore.Internal_Hbond.Weighted>
0.0000

> <Gold.Chemscore.DEClash.Weighted>
0.0595

> <Gold.Chemscore.DEInternal.Weighted>
1.2735

> <Gold.Chemscore.Rot.Weighted>
5.4783

> <Gold.Chemscore.Internal.Correction.Weighted>
   9.000000E+99

> <Gold.Protein.RotatedTorsions>
[ 6907 6896 6895 6894 ] final   30.36 input  -60.11 | X-H torsion
[ 7974 7965 7964 7962 ] final -157.88 input  175.53 | X-H torsion
[ 8008 7997 7996 7995 ] final   62.05 input   59.86 | X-H torsion
[ 10167 10162 10161 10158 ] final  131.30 input  -65.29 | X-H torsion
[ 10718 10713 10712 10709 ] final  116.99 input   66.30 | X-H torsion
[ 10763 10752 10751 10750 ] final -120.23 input  -60.55 | X-H torsion
[ 11005 11000 10999 10996 ] final   32.68 input  -57.11 | X-H torsion

> <Gold.Protein.ActiveResidues>
 VAL166  LYS551  ARG553  GLY616  TRP617  ASP618  TYR619  PRO620  LYS621  CYS622 
 ASP623  PHE694  ASN695  SER759  ASP760  ASP761  ALA762  ILE779  LEU786  VAL792 
 PHE793  MET794  SER795  GLU796  ALA797  LYS798  CYS799  TRP800  GLU811  SER814 

> <Gold.Protein.RotatedAtoms>
  152.0448  134.9689  160.0574 H   0  0  0  0  0  0  0  0  0  0  0  0  # atno 6907 bound_to 6896
  152.1113  133.4298  159.4641 H   0  0  0  0  0  0  0  0  0  0  0  0  # atno 6908 bound_to 6896
  150.6843  134.2563  159.4574 H   0  0  0  0  0  0  0  0  0  0  0  0  # atno 6909 bound_to 6896
  144.7529  140.3906  143.6034 H   0  0  0  0  0  0  0  0  0  0  0  0  # atno 7974 bound_to 7965
  155.6081  140.3494  155.4614 H   0  0  0  0  0  0  0  0  0  0  0  0  # atno 8008 bound_to 7997
  156.0175  140.1246  157.0415 H   0  0  0  0  0  0  0  0  0  0  0  0  # atno 8009 bound_to 7997
  154.4303  140.1069  156.5903 H   0  0  0  0  0  0  0  0  0  0  0  0  # atno 8010 bound_to 7997
  139.5390  144.6712  151.4687 H   0  0  0  0  0  0  0  0  0  0  0  0  # atno 10167 bound_to 10162
  157.6125  131.1032  150.7551 H   0  0  0  0  0  0  0  0  0  0  0  0  # atno 10718 bound_to 10713
  154.8639  135.4210  154.2426 H   0  0  0  0  0  0  0  0  0  0  0  0  # atno 10763 bound_to 10752
  153.3388  135.6992  153.6890 H   0  0  0  0  0  0  0  0  0  0  0  0  # atno 10764 bound_to 10752
  153.5877  135.3561  155.2872 H   0  0  0  0  0  0  0  0  0  0  0  0  # atno 10765 bound_to 10752
  140.2709  134.3083  155.7828 H   0  0  0  0  0  0  0  0  0  0  0  0  # atno 11005 bound_to 11000
  145.6880  139.1633  143.2663 LP  0  0  0  0  0  0  0  0  0  0  0  0  # atno 17320 bound_to 7965
  146.1503  140.6935  142.9325 LP  0  0  0  0  0  0  0  0  0  0  0  0  # atno 17321 bound_to 7965
  140.6611  143.8496  150.6889 LP  0  0  0  0  0  0  0  0  0  0  0  0  # atno 17342 bound_to 10162
  140.1891  143.4051  152.1877 LP  0  0  0  0  0  0  0  0  0  0  0  0  # atno 17343 bound_to 10162
  156.7925  130.4895  149.5382 LP  0  0  0  0  0  0  0  0  0  0  0  0  # atno 17370 bound_to 10713
  156.1234  130.6126  151.0227 LP  0  0  0  0  0  0  0  0  0  0  0  0  # atno 17371 bound_to 10713
  141.2177  133.7466  156.9333 LP  0  0  0  0  0  0  0  0  0  0  0  0  # atno 17394 bound_to 11000
  140.1374  134.9316  157.2420 LP  0  0  0  0  0  0  0  0  0  0  0  0  # atno 17395 bound_to 11000

$$$$
