AV-unprocessed.smi:1818|AV-procd|sdf|7381|dock3
  -GOLD-   22720 9 53D 1   1.00000     0.00000
 Structure written by MMmdl.
 37 38  0  0  0  0  0  0  0  0  2 V2000
  146.4123  136.9627  156.4303 N   0  0  0  0  0  0  0  0  0  0  0  0
  146.7748  137.5036  155.4739 C   0  0  0  0  0  0  0  0  0  0  0  0
  147.2364  138.1942  154.2533 C   0  0  0  0  0  0  0  0  0  0  0  0
  146.9127  137.3999  153.0639 N   0  0  0  0  0  0  0  0  0  0  0  0
  145.6901  137.0621  152.6203 C   0  0  0  0  0  0  0  0  0  0  0  0
  144.6436  137.4058  153.1673 O   0  0  0  0  0  0  0  0  0  0  0  0
  145.6409  136.1784  151.3744 C   0  0  0  0  0  0  0  0  0  0  0  0
  144.8915  134.9458  151.6352 N   0  0  0  0  0  0  0  0  0  0  0  0
  144.6538  133.9148  150.7620 C   0  0  0  0  0  0  0  0  0  0  0  0
  143.9236  132.9802  151.4503 C   0  0  0  0  0  0  0  0  0  0  0  0
  143.7477  133.4788  152.7135 N   0  3  0  0  0  0  0  0  0  0  0  0
  144.3366  134.6739  152.8241 C   0  0  0  0  0  0  0  0  0  0  0  0
  146.4448  139.5212  154.1521 C   0  0  0  0  0  0  0  0  0  0  0  0
  147.0648  140.6119  153.2604 C   0  0  0  0  0  0  0  0  0  0  0  0
  148.0299  141.5272  154.0353 C   0  0  0  0  0  0  0  0  0  0  0  0
  149.3704  140.8809  154.4192 C   0  0  0  0  0  0  0  0  0  0  0  0
  149.2550  139.5613  155.2031 C   0  0  0  0  0  0  0  0  0  0  0  0
  148.7734  138.3975  154.3207 C   0  0  0  0  0  0  0  0  0  0  0  0
  147.7033  137.0667  152.5318 H   0  0  0  0  0  0  0  0  0  0  0  0
  145.1622  136.7092  150.5498 H   0  0  0  0  0  0  0  0  0  0  0  0
  146.6479  135.9105  151.0509 H   0  0  0  0  0  0  0  0  0  0  0  0
  145.0130  133.9214  149.7430 H   0  0  0  0  0  0  0  0  0  0  0  0
  143.5275  132.0227  151.1445 H   0  0  0  0  0  0  0  0  0  0  0  0
  144.3633  135.2953  153.7019 H   0  0  0  0  0  0  0  0  0  0  0  0
  145.4380  139.3028  153.7920 H   0  0  0  0  0  0  0  0  0  0  0  0
  146.2896  139.9337  155.1503 H   0  0  0  0  0  0  0  0  0  0  0  0
  147.5454  140.1813  152.3814 H   0  0  0  0  0  0  0  0  0  0  0  0
  146.2551  141.2359  152.8805 H   0  0  0  0  0  0  0  0  0  0  0  0
  148.2393  142.4082  153.4277 H   0  0  0  0  0  0  0  0  0  0  0  0
  147.5367  141.9030  154.9326 H   0  0  0  0  0  0  0  0  0  0  0  0
  149.9677  140.7208  153.5208 H   0  0  0  0  0  0  0  0  0  0  0  0
  149.9331  141.5957  155.0206 H   0  0  0  0  0  0  0  0  0  0  0  0
  150.2490  139.3129  155.5772 H   0  0  0  0  0  0  0  0  0  0  0  0
  148.6253  139.6768  156.0858 H   0  0  0  0  0  0  0  0  0  0  0  0
  149.2237  137.4791  154.7001 H   0  0  0  0  0  0  0  0  0  0  0  0
  149.1870  138.5164  153.3180 H   0  0  0  0  0  0  0  0  0  0  0  0
  143.2453  133.0122  153.4584 H   0  0  0  0  0  0  0  0  0  0  0  0
  1  2  3  0  0  0  0
  2  3  1  0  0  0  0
  3 18  1  0  0  0  0
  3  4  1  0  0  0  0
  3 13  1  0  0  0  0
  4  5  1  0  0  0  0
  4 19  1  0  0  0  0
  5  6  2  0  0  0  0
  5  7  1  0  0  0  0
  7  8  1  0  0  0  0
  7 20  1  0  0  0  0
  7 21  1  0  0  0  0
  8 12  1  0  0  0  0
  8  9  1  0  0  0  0
  9 10  2  0  0  0  0
  9 22  1  0  0  0  0
 10 11  1  0  0  0  0
 10 23  1  0  0  0  0
 11 12  2  0  0  0  0
 11 37  1  0  0  0  0
 12 24  1  0  0  0  0
 13 14  1  0  0  0  0
 13 25  1  0  0  0  0
 13 26  1  0  0  0  0
 14 15  1  0  0  0  0
 14 27  1  0  0  0  0
 14 28  1  0  0  0  0
 15 16  1  0  0  0  0
 15 29  1  0  0  0  0
 15 30  1  0  0  0  0
 16 17  1  0  0  0  0
 16 31  1  0  0  0  0
 16 32  1  0  0  0  0
 17 18  1  0  0  0  0
 17 33  1  0  0  0  0
 17 34  1  0  0  0  0
 18 35  1  0  0  0  0
 18 36  1  0  0  0  0
M  CHG  1  11   1
M  END
> <s_m_source_file>
AV-unprocessed.smi

> <i_m_source_file_index>
1818

> <i_lp_mmshare_version>
43012

> <i_f3d_flags>
0

> <s_epik_input>
W0NIMl0xW0NIMl1bQ0gyXVtDSDJdW0NIMl1bQ0gyXUMxKEMjTilbTkhdQyg9TylbQ0gyXW4yW2NIXVtjSF1uW2NIXTI=

> <s_epik_cmdline>
J2VwaWtfcHl0aG9uJywgJy1waCcsICc3LjAnLCAnLXRuJywgJzgnLCAnLW1hJywgJzIwMCcsICctbWV0YWxfYmluZGluZycsICctaW1hZScsICc8aW5maWxlLm1hZT4nLCAnLW9tYWUnLCAnPG91dGZpbGUubWFlPic=

> <r_lp_tautomer_probability>
1

> <r_epik_Ionization_Penalty>
0.70502

> <r_epik_Ionization_Penalty_Charging>
0

> <r_epik_Ionization_Penalty_Neutral>
0.70502

> <r_epik_State_Penalty>
0.72808

> <r_epik_Charging_Adjusted_Penalty>
0.72808

> <i_epik_Tot_Q>
1

> <i_epik_Tot_abs_Q>
1

> <r_epik_Metal_State_Penalty>
0.891186

> <b_epik_Metal_Only>
0

> <s_lp_Force_Field>
OPLS_2005

> <r_lp_Energy>
19.4839

> <b_lp_Chiralities_Consistent>
1

> <s_lp_Variant>
AV-unprocessed.smi:1818-2

> <Gold.Version>
5.8.1

> <Gold.Id.Protein>
6NUR|6NUR_protein|mol2

> <Gold.PLP.Fitness>
39.6924

> <Gold.PLP.PLP>
-27.7655

> <Gold.PLP.part.hbond>
-2.0000

> <Gold.PLP.part.metal>
0.0000

> <Gold.PLP.part.buried>
-3.7275

> <Gold.PLP.part.nonpolar>
-23.1704

> <Gold.PLP.part.repulsive>
0.2222

> <Gold.PLP.ligand.clash>
0.0000

> <Gold.PLP.ligand.torsion>
0.0439

> <Gold.PLP.Chemscore.Hbond>
3.0000

> <Gold.PLP.Chemscore.CHOScore>
1.0000

> <Gold.PLP.Chemscore.Metal>
0.0000

> <Gold.Chemscore.Hbonds>
donor molecule, donor type, donor heavy atom, donor atom, acceptor molecule, acceptor atom, score
      L1  H     4    19       P1  7948  1.00
      L1  H    11    37       P1 10957  2.00
      L1  C     9    22       P1  7921  0.96

> <Gold.PLP.Chemscore.Internal.Correction>
0.0147

> <Gold.Rescore>
     Score         DG    S(hbond)    S(metal)    S(lipo)     H(rot)  DE(clash)    DE(int)     intcor
     12.23     -14.86       1.97        0.00      61.13       1.69       0.12       2.52       ----

> <Gold.Chemscore.Fitness>
12.2267

> <Gold.Chemscore.DG>
-14.8577

> <Gold.Chemscore.ZeroCoef>
-5.4800

> <Gold.Chemscore.Hbond>
1.9654

> <Gold.Chemscore.Metal>
0.0000

> <Gold.Chemscore.Lipo>
61.1263

> <Gold.Chemscore.Internal_Hbond>
0.0000

> <Gold.Chemscore.DEClash>
0.1155

> <Gold.Chemscore.DEInternal>
2.5155

> <Gold.Chemscore.Rot>
1.6947

> <Gold.Chemscore.Internal.Correction>
   9.000000E+99

> <Gold.Chemscore.Hbonds>
donor molecule, donor type, donor heavy atom, donor atom, acceptor molecule, acceptor atom, score
      L1  H     4    19       P1  7948  1.00
      L1  H    11    37       P1 10957  0.88

> <Gold.Chemscore.Hbond.Weighted>
-6.5645

> <Gold.Chemscore.Metal.Weighted>
-0.0000

> <Gold.Chemscore.Lipo.Weighted>
-7.1518

> <Gold.Chemscore.Internal_Hbond.Weighted>
0.0000

> <Gold.Chemscore.DEClash.Weighted>
0.1155

> <Gold.Chemscore.DEInternal.Weighted>
2.5155

> <Gold.Chemscore.Rot.Weighted>
4.3386

> <Gold.Chemscore.Internal.Correction.Weighted>
   9.000000E+99

> <Gold.Protein.RotatedTorsions>
[ 6907 6896 6895 6894 ] final  -14.43 input  -60.11 | X-H torsion
[ 7974 7965 7964 7962 ] final -176.59 input  175.53 | X-H torsion
[ 8008 7997 7996 7995 ] final -105.76 input   59.86 | X-H torsion
[ 10167 10162 10161 10158 ] final  107.67 input  -65.29 | X-H torsion
[ 10718 10713 10712 10709 ] final   31.73 input   66.30 | X-H torsion
[ 10763 10752 10751 10750 ] final  128.72 input  -60.55 | X-H torsion
[ 11005 11000 10999 10996 ] final  -78.82 input  -57.11 | X-H torsion

> <Gold.Protein.ActiveResidues>
 VAL166  LYS551  ARG553  GLY616  TRP617  ASP618  TYR619  PRO620  LYS621  CYS622 
 ASP623  PHE694  ASN695  SER759  ASP760  ASP761  ALA762  ILE779  LEU786  VAL792 
 PHE793  MET794  SER795  GLU796  ALA797  LYS798  CYS799  TRP800  GLU811  SER814 

> <Gold.Protein.RotatedAtoms>
  151.3394  135.0860  159.9365 H   0  0  0  0  0  0  0  0  0  0  0  0  # atno 6907 bound_to 6896
  152.5215  133.9462  159.7660 H   0  0  0  0  0  0  0  0  0  0  0  0  # atno 6908 bound_to 6896
  150.9816  133.6186  159.2751 H   0  0  0  0  0  0  0  0  0  0  0  0  # atno 6909 bound_to 6896
  144.7127  140.1147  143.6409 H   0  0  0  0  0  0  0  0  0  0  0  0  # atno 7974 bound_to 7965
  154.9045  140.0412  157.1912 H   0  0  0  0  0  0  0  0  0  0  0  0  # atno 8008 bound_to 7997
  154.8410  140.2914  155.5638 H   0  0  0  0  0  0  0  0  0  0  0  0  # atno 8009 bound_to 7997
  156.2992  140.2483  156.3352 H   0  0  0  0  0  0  0  0  0  0  0  0  # atno 8010 bound_to 7997
  139.6908  144.7108  151.1351 H   0  0  0  0  0  0  0  0  0  0  0  0  # atno 10167 bound_to 10162
  157.2763  130.7232  149.6531 H   0  0  0  0  0  0  0  0  0  0  0  0  # atno 10718 bound_to 10713
  153.7302  135.3240  155.3284 H   0  0  0  0  0  0  0  0  0  0  0  0  # atno 10763 bound_to 10752
  154.8328  135.4520  154.1129 H   0  0  0  0  0  0  0  0  0  0  0  0  # atno 10764 bound_to 10752
  153.2275  135.6956  153.8009 H   0  0  0  0  0  0  0  0  0  0  0  0  # atno 10765 bound_to 10752
  141.1666  133.7079  156.8029 H   0  0  0  0  0  0  0  0  0  0  0  0  # atno 11005 bound_to 11000
  145.9424  139.2678  143.1261 LP  0  0  0  0  0  0  0  0  0  0  0  0  # atno 17320 bound_to 7965
  145.9410  140.8980  143.0308 LP  0  0  0  0  0  0  0  0  0  0  0  0  # atno 17321 bound_to 7965
  140.7682  143.5562  150.9149 LP  0  0  0  0  0  0  0  0  0  0  0  0  # atno 17342 bound_to 10162
  139.9239  143.6573  152.3091 LP  0  0  0  0  0  0  0  0  0  0  0  0  # atno 17343 bound_to 10162
  155.9664  130.4352  150.5081 LP  0  0  0  0  0  0  0  0  0  0  0  0  # atno 17370 bound_to 10713
  157.3016  131.0646  151.2064 LP  0  0  0  0  0  0  0  0  0  0  0  0  # atno 17371 bound_to 10713
  140.2243  134.8733  157.3410 LP  0  0  0  0  0  0  0  0  0  0  0  0  # atno 17394 bound_to 11000
  140.1956  134.4318  155.7691 LP  0  0  0  0  0  0  0  0  0  0  0  0  # atno 17395 bound_to 11000

$$$$
