AV-unprocessed.smi:1433|AV-procd|sdf|5847|dock9
  -GOLD-   22720 5513D 1   1.00000     0.00000
 Structure written by MMmdl.
 45 46  0  0  0  0  0  0  0  0  2 V2000
  148.7994  140.6790  154.6029 C   0  0  0  0  0  0  0  0  0  0  0  0
  149.5311  139.3990  154.1837 C   0  0  2  0  0  0  0  0  0  0  0  0
  148.9152  138.1416  154.8235 C   0  0  0  0  0  0  0  0  0  0  0  0
  149.6773  136.9184  154.4517 N   0  3  2  0  0  0  0  0  0  0  0  0
  149.0466  135.6649  154.9822 C   0  0  1  0  0  0  0  0  0  0  0  0
  149.3151  135.5323  156.4998 C   0  0  0  0  0  0  0  0  0  0  0  0
  147.5218  135.5588  154.6925 C   0  0  0  0  0  0  0  0  0  0  0  0
  147.2303  135.3102  153.2847 N   0  0  0  0  0  0  0  0  0  0  0  0
  146.0119  135.0582  152.7817 C   0  0  0  0  0  0  0  0  0  0  0  0
  145.0004  134.9521  153.4748 O   0  0  0  0  0  0  0  0  0  0  0  0
  145.9187  134.9275  151.2617 C   0  0  0  0  0  0  0  0  0  0  0  0
  145.3664  133.6373  150.8880 N   0  0  0  0  0  0  0  0  0  0  0  0
  146.0314  132.4439  150.6978 C   0  0  0  0  0  0  0  0  0  0  0  0
  145.0957  131.5046  150.3713 C   0  0  0  0  0  0  0  0  0  0  0  0
  143.8705  132.2277  150.3872 C   0  0  0  0  0  0  0  0  0  0  0  0
  144.0347  133.5032  150.6994 N   0  0  0  0  0  0  0  0  0  0  0  0
  151.1142  137.1096  154.7918 C   0  0  0  0  0  0  0  0  0  0  0  0
  151.6695  138.4050  154.1690 C   0  0  2  0  0  0  0  0  0  0  0  0
  153.1233  138.6646  154.5799 C   0  0  0  0  0  0  0  0  0  0  0  0
  150.8852  139.5089  154.5992 O   0  0  0  0  0  0  0  0  0  0  0  0
  147.7523  140.6505  154.3003 H   0  0  0  0  0  0  0  0  0  0  0  0
  149.2540  141.5562  154.1416 H   0  0  0  0  0  0  0  0  0  0  0  0
  148.8319  140.8174  155.6840 H   0  0  0  0  0  0  0  0  0  0  0  0
  149.4902  139.3181  153.0960 H   0  0  0  0  0  0  0  0  0  0  0  0
  148.9045  138.2446  155.9100 H   0  0  0  0  0  0  0  0  0  0  0  0
  147.8774  138.0668  154.5044 H   0  0  0  0  0  0  0  0  0  0  0  0
  149.5261  134.8245  154.4778 H   0  0  0  0  0  0  0  0  0  0  0  0
  148.8957  134.6132  156.9093 H   0  0  0  0  0  0  0  0  0  0  0  0
  148.8771  136.3656  157.0500 H   0  0  0  0  0  0  0  0  0  0  0  0
  150.3769  135.5016  156.7374 H   0  0  0  0  0  0  0  0  0  0  0  0
  147.0835  134.7470  155.2740 H   0  0  0  0  0  0  0  0  0  0  0  0
  146.9949  136.4711  154.9754 H   0  0  0  0  0  0  0  0  0  0  0  0
  148.0024  135.3808  152.6370 H   0  0  0  0  0  0  0  0  0  0  0  0
  145.2971  135.7248  150.8508 H   0  0  0  0  0  0  0  0  0  0  0  0
  146.9093  135.0293  150.8165 H   0  0  0  0  0  0  0  0  0  0  0  0
  147.1027  132.3636  150.8112 H   0  0  0  0  0  0  0  0  0  0  0  0
  145.2611  130.4597  150.1539 H   0  0  0  0  0  0  0  0  0  0  0  0
  142.8733  131.8657  150.1841 H   0  0  0  0  0  0  0  0  0  0  0  0
  151.2319  137.1277  155.8766 H   0  0  0  0  0  0  0  0  0  0  0  0
  151.7134  136.2846  154.4080 H   0  0  0  0  0  0  0  0  0  0  0  0
  151.6260  138.3365  153.0805 H   0  0  0  0  0  0  0  0  0  0  0  0
  153.7731  137.8484  154.2634 H   0  0  0  0  0  0  0  0  0  0  0  0
  153.2163  138.7663  155.6616 H   0  0  0  0  0  0  0  0  0  0  0  0
  153.4989  139.5818  154.1259 H   0  0  0  0  0  0  0  0  0  0  0  0
  149.6423  136.8460  153.4449 H   0  0  0  0  0  0  0  0  0  0  0  0
  1  2  1  0  0  0  0
  1 21  1  0  0  0  0
  1 22  1  0  0  0  0
  1 23  1  0  0  0  0
  2 20  1  0  0  0  0
  2  3  1  0  0  0  0
  2 24  1  0  0  0  0
  3  4  1  0  0  0  0
  3 25  1  0  0  0  0
  3 26  1  0  0  0  0
  4  5  1  0  0  0  0
  4 17  1  0  0  0  0
  4 45  1  0  0  0  0
  5  6  1  0  0  0  0
  5  7  1  0  0  0  0
  5 27  1  0  0  0  0
  6 28  1  0  0  0  0
  6 29  1  0  0  0  0
  6 30  1  0  0  0  0
  7  8  1  0  0  0  0
  7 31  1  0  0  0  0
  7 32  1  0  0  0  0
  8  9  1  0  0  0  0
  8 33  1  0  0  0  0
  9 10  2  0  0  0  0
  9 11  1  0  0  0  0
 11 12  1  0  0  0  0
 11 34  1  0  0  0  0
 11 35  1  0  0  0  0
 12 16  1  0  0  0  0
 12 13  1  0  0  0  0
 13 14  2  0  0  0  0
 13 36  1  0  0  0  0
 14 15  1  0  0  0  0
 14 37  1  0  0  0  0
 15 16  2  0  0  0  0
 15 38  1  0  0  0  0
 17 18  1  0  0  0  0
 17 39  1  0  0  0  0
 17 40  1  0  0  0  0
 18 19  1  0  0  0  0
 18 20  1  0  0  0  0
 18 41  1  0  0  0  0
 19 42  1  0  0  0  0
 19 43  1  0  0  0  0
 19 44  1  0  0  0  0
M  CHG  1   4   1
M  END
> <s_m_source_file>
AV-unprocessed.smi

> <i_m_source_file_index>
1433

> <i_lp_mmshare_version>
43012

> <i_f3d_flags>
0

> <s_epik_input>
W0NIM11bQ0BASF0xW0NIMl1OKFtDSDJdW0NASF0oTzEpW0NIM10pW0NASF0oW0NIM10pW0NIMl1bTkhdQyg9TylbQ0gyXW4yW2NIXVtjSF1bY0hdbjI=

> <s_epik_cmdline>
J2VwaWtfcHl0aG9uJywgJy1waCcsICc3LjAnLCAnLXRuJywgJzgnLCAnLW1hJywgJzIwMCcsICctbWV0YWxfYmluZGluZycsICctaW1hZScsICc8aW5maWxlLm1hZT4nLCAnLW9tYWUnLCAnPG91dGZpbGUubWFlPic=

> <r_lp_tautomer_probability>
1

> <r_epik_Ionization_Penalty>
0.748405

> <r_epik_Ionization_Penalty_Charging>
0.748396

> <r_epik_Ionization_Penalty_Neutral>
8.54426e-06

> <r_epik_State_Penalty>
0.775162

> <r_epik_Charging_Adjusted_Penalty>
1.52356

> <i_epik_Tot_Q>
1

> <i_epik_Tot_abs_Q>
1

> <r_epik_Metal_State_Penalty>
0.775167

> <b_epik_Metal_Only>
0

> <s_lp_Force_Field>
OPLS_2005

> <r_lp_Energy>
17.7412

> <b_lp_Chiralities_Consistent>
1

> <s_lp_Variant>
AV-unprocessed.smi:1433-13

> <Gold.Version>
5.8.1

> <Gold.Id.Protein>
6NUR|6NUR_protein|mol2

> <Gold.PLP.Fitness>
50.5060

> <Gold.PLP.PLP>
-33.7775

> <Gold.PLP.part.hbond>
-2.9304

> <Gold.PLP.part.metal>
0.0000

> <Gold.PLP.part.buried>
-5.1380

> <Gold.PLP.part.nonpolar>
-26.6242

> <Gold.PLP.part.repulsive>
0.3639

> <Gold.PLP.ligand.clash>
0.0000

> <Gold.PLP.ligand.torsion>
0.5950

> <Gold.PLP.Chemscore.Hbond>
4.0000

> <Gold.PLP.Chemscore.CHOScore>
1.9494

> <Gold.PLP.Chemscore.Metal>
0.0000

> <Gold.Chemscore.Hbonds>
donor molecule, donor type, donor heavy atom, donor atom, acceptor molecule, acceptor atom, score
      L1  H     4    45       P1  7948  2.00
      L1  H     8    33       P1  7948  0.84
      P1  H  7989  7998       L1    20  0.95
      L1  C    13    36       P1 10747  1.00
      L1  C    15    38       P1 10952  0.77

> <Gold.PLP.Chemscore.Internal.Correction>
0.0703

> <Gold.Rescore>
     Score         DG    S(hbond)    S(metal)    S(lipo)     H(rot)  DE(clash)    DE(int)     intcor
     16.99     -17.46       2.04        0.00      84.92       1.87       0.09       0.37       ----

> <Gold.Chemscore.Fitness>
16.9910

> <Gold.Chemscore.DG>
-17.4559

> <Gold.Chemscore.ZeroCoef>
-5.4800

> <Gold.Chemscore.Hbond>
2.0407

> <Gold.Chemscore.Metal>
0.0000

> <Gold.Chemscore.Lipo>
84.9247

> <Gold.Chemscore.Internal_Hbond>
0.0000

> <Gold.Chemscore.DEClash>
0.0912

> <Gold.Chemscore.DEInternal>
0.3737

> <Gold.Chemscore.Rot>
1.8657

> <Gold.Chemscore.Internal.Correction>
   9.000000E+99

> <Gold.Chemscore.Hbonds>
donor molecule, donor type, donor heavy atom, donor atom, acceptor molecule, acceptor atom, score
      L1  H     4    45       P1  7948  0.64
      L1  H     8    33       P1  7948  0.78
      P1  H  7989  7998       L1    20  0.11

> <Gold.Chemscore.Hbond.Weighted>
-6.8159

> <Gold.Chemscore.Metal.Weighted>
-0.0000

> <Gold.Chemscore.Lipo.Weighted>
-9.9362

> <Gold.Chemscore.Internal_Hbond.Weighted>
0.0000

> <Gold.Chemscore.DEClash.Weighted>
0.0912

> <Gold.Chemscore.DEInternal.Weighted>
0.3737

> <Gold.Chemscore.Rot.Weighted>
4.7761

> <Gold.Chemscore.Internal.Correction.Weighted>
   9.000000E+99

> <Gold.Protein.RotatedTorsions>
[ 6907 6896 6895 6894 ] final  -69.46 input  -60.11 | X-H torsion
[ 7974 7965 7964 7962 ] final  -66.04 input  175.53 | X-H torsion
[ 8008 7997 7996 7995 ] final   19.25 input   59.86 | X-H torsion
[ 10167 10162 10161 10158 ] final   40.38 input  -65.29 | X-H torsion
[ 10718 10713 10712 10709 ] final   59.64 input   66.30 | X-H torsion
[ 10763 10752 10751 10750 ] final -140.13 input  -60.55 | X-H torsion
[ 11005 11000 10999 10996 ] final   14.89 input  -57.11 | X-H torsion

> <Gold.Protein.ActiveResidues>
 VAL166  LYS551  ARG553  GLY616  TRP617  ASP618  TYR619  PRO620  LYS621  CYS622 
 ASP623  PHE694  ASN695  SER759  ASP760  ASP761  ALA762  ILE779  LEU786  VAL792 
 PHE793  MET794  SER795  GLU796  ALA797  LYS798  CYS799  TRP800  GLU811  SER814 

> <Gold.Protein.RotatedAtoms>
  150.7304  134.5593  159.5833 H   0  0  0  0  0  0  0  0  0  0  0  0  # atno 6907 bound_to 6896
  152.3061  134.7551  160.0356 H   0  0  0  0  0  0  0  0  0  0  0  0  # atno 6908 bound_to 6896
  151.8115  133.3347  159.3593 H   0  0  0  0  0  0  0  0  0  0  0  0  # atno 6909 bound_to 6896
  145.7468  140.8927  143.0501 H   0  0  0  0  0  0  0  0  0  0  0  0  # atno 7974 bound_to 7965
  154.9180  140.3023  155.5231 H   0  0  0  0  0  0  0  0  0  0  0  0  # atno 8008 bound_to 7997
  156.3011  140.2377  156.4163 H   0  0  0  0  0  0  0  0  0  0  0  0  # atno 8009 bound_to 7997
  154.8359  140.0416  157.1497 H   0  0  0  0  0  0  0  0  0  0  0  0  # atno 8010 bound_to 7997
  140.3747  144.2058  150.6132 H   0  0  0  0  0  0  0  0  0  0  0  0  # atno 10167 bound_to 10162
  157.5691  130.8893  149.9237 H   0  0  0  0  0  0  0  0  0  0  0  0  # atno 10718 bound_to 10713
  154.8588  135.3562  154.5659 H   0  0  0  0  0  0  0  0  0  0  0  0  # atno 10763 bound_to 10752
  153.6273  135.7003  153.5293 H   0  0  0  0  0  0  0  0  0  0  0  0  # atno 10764 bound_to 10752
  153.3079  135.4187  155.1270 H   0  0  0  0  0  0  0  0  0  0  0  0  # atno 10765 bound_to 10752
  140.4644  134.1095  155.7722 H   0  0  0  0  0  0  0  0  0  0  0  0  # atno 11005 bound_to 11000
  144.6858  139.9536  143.7478 LP  0  0  0  0  0  0  0  0  0  0  0  0  # atno 17320 bound_to 7965
  146.0395  139.3408  143.0706 LP  0  0  0  0  0  0  0  0  0  0  0  0  # atno 17321 bound_to 7965
  140.4998  143.2321  151.8696 LP  0  0  0  0  0  0  0  0  0  0  0  0  # atno 17342 bound_to 10162
  139.4800  144.5072  151.8981 LP  0  0  0  0  0  0  0  0  0  0  0  0  # atno 17343 bound_to 10162
  156.0737  130.3681  150.0721 LP  0  0  0  0  0  0  0  0  0  0  0  0  # atno 17370 bound_to 10713
  156.8877  130.9578  151.3592 LP  0  0  0  0  0  0  0  0  0  0  0  0  # atno 17371 bound_to 10713
  141.1606  133.8799  157.1857 LP  0  0  0  0  0  0  0  0  0  0  0  0  # atno 17394 bound_to 11000
  139.9925  135.0059  157.0007 LP  0  0  0  0  0  0  0  0  0  0  0  0  # atno 17395 bound_to 11000

$$$$
