AV-unprocessed.smi:740|AV-procd|sdf|3550|dock8
  -GOLD-   22720 0543D 1   1.00000     0.00000
 Structure written by MMmdl.
 45 47  0  0  0  0  0  0  0  0  2 V2000
  152.3780  145.0405  159.9723 C   0  0  0  0  0  0  0  0  0  0  0  0
  151.9766  143.7926  159.2045 C   0  0  0  0  0  0  0  0  0  0  0  0
  151.1608  143.9384  158.0601 C   0  0  0  0  0  0  0  0  0  0  0  0
  150.8097  142.7789  157.3792 C   0  0  0  0  0  0  0  0  0  0  0  0
  150.0272  142.5910  156.2380 N   0  3  0  0  0  0  0  0  0  0  0  0
  149.9636  141.2630  155.9445 C   0  0  0  0  0  0  0  0  0  0  0  0
  150.6969  140.6000  156.8793 N   0  0  0  0  0  0  0  0  0  0  0  0
  150.9502  139.1588  157.0171 C   0  0  0  0  0  0  0  0  0  0  0  0
  152.4455  138.8043  156.9013 C   0  0  2  0  0  0  0  0  0  0  0  0
  152.9446  139.3176  155.6814 O   0  0  0  0  0  0  0  0  0  0  0  0
  152.6703  137.2787  156.9264 C   0  0  0  0  0  0  0  0  0  0  0  0
  153.3743  136.8453  158.1388 N   0  0  0  0  0  0  0  0  0  0  0  0
  154.3658  135.9441  158.1494 C   0  0  0  0  0  0  0  0  0  0  0  0
  154.8280  135.3587  157.1703 O   0  0  0  0  0  0  0  0  0  0  0  0
  154.8724  135.7057  159.5649 C   0  0  0  0  0  0  0  0  0  0  0  0
  153.9932  136.6351  160.4155 C   0  0  1  0  0  0  0  0  0  0  0  0
  154.7896  137.6735  161.2227 C   0  0  0  0  0  0  0  0  0  0  0  0
  153.0945  137.2937  159.3706 C   0  0  0  0  0  0  0  0  0  0  0  0
  152.2332  138.1239  159.6622 O   0  0  0  0  0  0  0  0  0  0  0  0
  151.2427  141.5054  157.7974 C   0  0  0  0  0  0  0  0  0  0  0  0
  152.0462  141.3445  158.9242 C   0  0  0  0  0  0  0  0  0  0  0  0
  152.4116  142.5115  159.6324 C   0  0  0  0  0  0  0  0  0  0  0  0
  153.2818  142.3652  160.8692 C   0  0  0  0  0  0  0  0  0  0  0  0
  151.9905  145.9425  159.4981 H   0  0  0  0  0  0  0  0  0  0  0  0
  153.4636  145.1298  160.0189 H   0  0  0  0  0  0  0  0  0  0  0  0
  151.9885  145.0050  160.9899 H   0  0  0  0  0  0  0  0  0  0  0  0
  150.8228  144.9100  157.7303 H   0  0  0  0  0  0  0  0  0  0  0  0
  149.4270  140.8157  155.1200 H   0  0  0  0  0  0  0  0  0  0  0  0
  150.5775  138.8670  157.9997 H   0  0  0  0  0  0  0  0  0  0  0  0
  150.3509  138.6107  156.2898 H   0  0  0  0  0  0  0  0  0  0  0  0
  152.9816  139.2788  157.7245 H   0  0  0  0  0  0  0  0  0  0  0  0
  152.2352  139.3565  155.0584 H   0  0  0  0  0  0  0  0  0  0  0  0
  151.7054  136.7690  156.8975 H   0  0  0  0  0  0  0  0  0  0  0  0
  153.1903  136.9509  156.0242 H   0  0  0  0  0  0  0  0  0  0  0  0
  154.7438  134.6594  159.8441 H   0  0  0  0  0  0  0  0  0  0  0  0
  155.9322  135.9551  159.6311 H   0  0  0  0  0  0  0  0  0  0  0  0
  153.3692  136.0452  161.0882 H   0  0  0  0  0  0  0  0  0  0  0  0
  154.1273  138.3089  161.8117 H   0  0  0  0  0  0  0  0  0  0  0  0
  155.3812  138.3194  160.5726 H   0  0  0  0  0  0  0  0  0  0  0  0
  155.4745  137.1836  161.9151 H   0  0  0  0  0  0  0  0  0  0  0  0
  152.3756  140.3706  159.2539 H   0  0  0  0  0  0  0  0  0  0  0  0
  153.5017  141.3183  161.0809 H   0  0  0  0  0  0  0  0  0  0  0  0
  152.7805  142.7821  161.7428 H   0  0  0  0  0  0  0  0  0  0  0  0
  154.2309  142.8840  160.7330 H   0  0  0  0  0  0  0  0  0  0  0  0
  149.5675  143.3136  155.6985 H   0  0  0  0  0  0  0  0  0  0  0  0
  1  2  1  0  0  0  0
  1 24  1  0  0  0  0
  1 25  1  0  0  0  0
  1 26  1  0  0  0  0
  2 22  1  0  0  0  0
  2  3  2  0  0  0  0
  3  4  1  0  0  0  0
  3 27  1  0  0  0  0
  4 20  2  0  0  0  0
  4  5  1  0  0  0  0
  5  6  2  0  0  0  0
  5 45  1  0  0  0  0
  6  7  1  0  0  0  0
  6 28  1  0  0  0  0
  7  8  1  0  0  0  0
  7 20  1  0  0  0  0
  8  9  1  0  0  0  0
  8 29  1  0  0  0  0
  8 30  1  0  0  0  0
  9 10  1  0  0  0  0
  9 11  1  0  0  0  0
  9 31  1  0  0  0  0
 10 32  1  0  0  0  0
 11 12  1  0  0  0  0
 11 33  1  0  0  0  0
 11 34  1  0  0  0  0
 12 18  1  0  0  0  0
 12 13  1  0  0  0  0
 13 14  2  0  0  0  0
 13 15  1  0  0  0  0
 15 16  1  0  0  0  0
 15 35  1  0  0  0  0
 15 36  1  0  0  0  0
 16 17  1  0  0  0  0
 16 18  1  0  0  0  0
 16 37  1  0  0  0  0
 17 38  1  0  0  0  0
 17 39  1  0  0  0  0
 17 40  1  0  0  0  0
 18 19  2  0  0  0  0
 20 21  1  0  0  0  0
 21 22  2  0  0  0  0
 21 41  1  0  0  0  0
 22 23  1  0  0  0  0
 23 42  1  0  0  0  0
 23 43  1  0  0  0  0
 23 44  1  0  0  0  0
M  CHG  1   5   1
M  END
> <s_m_source_file>
AV-unprocessed.smi

> <i_m_source_file_index>
740

> <i_lp_mmshare_version>
43012

> <i_f3d_flags>
0

> <s_epik_input>
W0NIM11jKFtjSF0xKWMoW0NIM10pW2NIXWMoYzEyKW4oW2NIXW4yKVtDSDJdW0NASF0oW09IXSlbQ0gyXU4zQyg9TylbQ0gyXVtDQEBIXShbQ0gzXSlDMz1P

> <s_epik_cmdline>
J2VwaWtfcHl0aG9uJywgJy1waCcsICc3LjAnLCAnLXRuJywgJzgnLCAnLW1hJywgJzIwMCcsICctbWV0YWxfYmluZGluZycsICctaW1hZScsICc8aW5maWxlLm1hZT4nLCAnLW9tYWUnLCAnPG91dGZpbGUubWFlPic=

> <r_lp_tautomer_probability>
1

> <r_epik_Ionization_Penalty>
1.08202

> <r_epik_Ionization_Penalty_Charging>
1.08202

> <r_epik_Ionization_Penalty_Neutral>
1.16605e-06

> <r_epik_State_Penalty>
1.13754

> <r_epik_Charging_Adjusted_Penalty>
2.21956

> <i_epik_Tot_Q>
1

> <i_epik_Tot_abs_Q>
1

> <r_epik_Metal_State_Penalty>
5.13645

> <b_epik_Metal_Only>
0

> <s_lp_Force_Field>
OPLS_2005

> <r_lp_Energy>
22.4261

> <b_lp_Chiralities_Consistent>
1

> <s_lp_Variant>
AV-unprocessed.smi:740-5

> <Gold.Version>
5.8.1

> <Gold.Id.Protein>
6NUR|6NUR_protein|mol2

> <Gold.PLP.Fitness>
50.1540

> <Gold.PLP.PLP>
-40.0802

> <Gold.PLP.part.hbond>
-2.8852

> <Gold.PLP.part.metal>
0.0000

> <Gold.PLP.part.buried>
-5.7229

> <Gold.PLP.part.nonpolar>
-32.2046

> <Gold.PLP.part.repulsive>
0.1064

> <Gold.PLP.ligand.clash>
0.0000

> <Gold.PLP.ligand.torsion>
0.9639

> <Gold.PLP.Chemscore.Hbond>
4.0000

> <Gold.PLP.Chemscore.CHOScore>
0.0000

> <Gold.PLP.Chemscore.Metal>
0.0000

> <Gold.Chemscore.Hbonds>
donor molecule, donor type, donor heavy atom, donor atom, acceptor molecule, acceptor atom, score
      L1  H     5    45       P1  8028  1.95
      P1  H  7997  8008       L1    10  1.00
      P1  H 10752 10764       L1    14  1.00

> <Gold.PLP.Chemscore.Internal.Correction>
0.0015

> <Gold.Rescore>
     Score         DG    S(hbond)    S(metal)    S(lipo)     H(rot)  DE(clash)    DE(int)     intcor
     18.73     -20.99       2.86        0.00     102.88       2.37       0.00       2.26       ----

> <Gold.Chemscore.Fitness>
18.7267

> <Gold.Chemscore.DG>
-20.9877

> <Gold.Chemscore.ZeroCoef>
-5.4800

> <Gold.Chemscore.Hbond>
2.8575

> <Gold.Chemscore.Metal>
0.0000

> <Gold.Chemscore.Lipo>
102.8815

> <Gold.Chemscore.Internal_Hbond>
0.0000

> <Gold.Chemscore.DEClash>
0.0029

> <Gold.Chemscore.DEInternal>
2.2581

> <Gold.Chemscore.Rot>
2.3724

> <Gold.Chemscore.Internal.Correction>
   9.000000E+99

> <Gold.Chemscore.Hbonds>
donor molecule, donor type, donor heavy atom, donor atom, acceptor molecule, acceptor atom, score
      L1  H     5    45       P1  8028  0.90
      P1  H  7997  8008       L1    10  0.30
      P1  H 10752 10764       L1    14  1.00

> <Gold.Chemscore.Hbond.Weighted>
-9.5439

> <Gold.Chemscore.Metal.Weighted>
-0.0000

> <Gold.Chemscore.Lipo.Weighted>
-12.0371

> <Gold.Chemscore.Internal_Hbond.Weighted>
0.0000

> <Gold.Chemscore.DEClash.Weighted>
0.0029

> <Gold.Chemscore.DEInternal.Weighted>
2.2581

> <Gold.Chemscore.Rot.Weighted>
6.0734

> <Gold.Chemscore.Internal.Correction.Weighted>
   9.000000E+99

> <Gold.Protein.RotatedTorsions>
[ 6907 6896 6895 6894 ] final -103.10 input  -60.11 | X-H torsion
[ 7974 7965 7964 7962 ] final  -24.25 input  175.53 | X-H torsion
[ 8008 7997 7996 7995 ] final  -37.20 input   59.86 | X-H torsion
[ 10167 10162 10161 10158 ] final -102.80 input  -65.29 | X-H torsion
[ 10718 10713 10712 10709 ] final  129.76 input   66.30 | X-H torsion
[ 10763 10752 10751 10750 ] final   37.12 input  -60.55 | X-H torsion
[ 11005 11000 10999 10996 ] final  -69.98 input  -57.11 | X-H torsion

> <Gold.Protein.ActiveResidues>
 VAL166  LYS551  ARG553  GLY616  TRP617  ASP618  TYR619  PRO620  LYS621  CYS622 
 ASP623  PHE694  ASN695  SER759  ASP760  ASP761  ALA762  ILE779  LEU786  VAL792 
 PHE793  MET794  SER795  GLU796  ALA797  LYS798  CYS799  TRP800  GLU811  SER814 

> <Gold.Protein.RotatedAtoms>
  150.7225  134.0481  159.3788 H   0  0  0  0  0  0  0  0  0  0  0  0  # atno 6907 bound_to 6896
  151.8457  135.0573  160.0462 H   0  0  0  0  0  0  0  0  0  0  0  0  # atno 6908 bound_to 6896
  152.2829  133.5451  159.5545 H   0  0  0  0  0  0  0  0  0  0  0  0  # atno 6909 bound_to 6896
  146.1566  140.4726  142.8589 H   0  0  0  0  0  0  0  0  0  0  0  0  # atno 7974 bound_to 7965
  154.4058  140.1610  156.2499 H   0  0  0  0  0  0  0  0  0  0  0  0  # atno 8008 bound_to 7997
  155.9128  140.3426  155.6089 H   0  0  0  0  0  0  0  0  0  0  0  0  # atno 8009 bound_to 7997
  155.7315  140.0781  157.2277 H   0  0  0  0  0  0  0  0  0  0  0  0  # atno 8010 bound_to 7997
  140.2267  143.3636  152.0922 H   0  0  0  0  0  0  0  0  0  0  0  0  # atno 10167 bound_to 10162
  157.5124  131.1097  150.9273 H   0  0  0  0  0  0  0  0  0  0  0  0  # atno 10718 bound_to 10713
  153.0050  135.6287  154.2093 H   0  0  0  0  0  0  0  0  0  0  0  0  # atno 10763 bound_to 10752
  154.1837  135.2812  155.3046 H   0  0  0  0  0  0  0  0  0  0  0  0  # atno 10764 bound_to 10752
  154.5814  135.5646  153.7249 H   0  0  0  0  0  0  0  0  0  0  0  0  # atno 10765 bound_to 10752
  141.1565  133.6778  156.6682 H   0  0  0  0  0  0  0  0  0  0  0  0  # atno 11005 bound_to 11000
  144.7972  140.6144  143.6502 LP  0  0  0  0  0  0  0  0  0  0  0  0  # atno 17320 bound_to 7965
  145.4693  139.1505  143.3823 LP  0  0  0  0  0  0  0  0  0  0  0  0  # atno 17321 bound_to 7965
  139.5124  144.6917  151.5743 LP  0  0  0  0  0  0  0  0  0  0  0  0  # atno 17342 bound_to 10162
  140.6215  143.9249  150.6530 LP  0  0  0  0  0  0  0  0  0  0  0  0  # atno 17343 bound_to 10162
  156.9909  130.5563  149.5303 LP  0  0  0  0  0  0  0  0  0  0  0  0  # atno 17370 bound_to 10713
  156.0298  130.5390  150.8504 LP  0  0  0  0  0  0  0  0  0  0  0  0  # atno 17371 bound_to 10713
  140.3195  134.8019  157.4241 LP  0  0  0  0  0  0  0  0  0  0  0  0  # atno 17394 bound_to 11000
  140.1109  134.5347  155.8267 LP  0  0  0  0  0  0  0  0  0  0  0  0  # atno 17395 bound_to 11000

$$$$
