AV-unprocessed.smi:2325|AV-procd|sdf|9295|dock8
  -GOLD-   2272012513D 1   1.00000     0.00000
 Structure written by MMmdl.
 40 41  0  0  0  0  0  0  0  0  1 V2000
  149.1555  139.4359  154.1598 C   0  0  0  0  0  0  0  0  0  0  0  0
  150.4163  138.9315  154.6687 N   0  0  0  0  0  0  0  0  0  0  0  0
  151.3859  139.7767  155.0907 N   0  0  0  0  0  0  0  0  0  0  0  0
  152.3546  138.9444  155.4734 C   0  0  0  0  0  0  0  0  0  0  0  0
  152.0897  137.6119  155.3330 N   0  0  0  0  0  0  0  0  0  0  0  0
  150.8628  137.6819  154.8259 C   0  0  0  0  0  0  0  0  0  0  0  0
  150.0417  136.5807  154.4642 N   0  0  0  0  0  0  0  0  0  0  0  0
  149.8641  135.4309  155.1361 C   0  0  0  0  0  0  0  0  0  0  0  0
  150.4185  135.1336  156.1942 O   0  0  0  0  0  0  0  0  0  0  0  0
  148.9917  134.6321  154.5058 N   0  0  0  0  0  0  0  0  0  0  0  0
  148.5530  133.3222  154.9826 C   0  0  2  0  0  0  0  0  0  0  0  0
  147.5493  132.6945  154.0360 C   0  0  0  0  0  0  0  0  0  0  0  0
  146.7906  131.7110  154.9346 C   0  0  0  0  0  0  0  0  0  0  0  0
  145.3044  131.6077  154.5596 C   0  0  0  0  0  0  0  0  0  0  0  0
  147.4515  130.3220  154.9552 C   0  0  0  0  0  0  0  0  0  0  0  0
  146.8883  132.2480  156.2529 O   0  0  0  0  0  0  0  0  0  0  0  0
  147.7704  133.3680  156.3138 C   0  0  0  0  0  0  0  0  0  0  0  0
  148.6828  133.1798  157.5362 C   0  0  0  0  0  0  0  0  0  0  0  0
  146.8800  134.6166  156.4853 C   0  0  0  0  0  0  0  0  0  0  0  0
  148.9768  139.0365  153.1610 H   0  0  0  0  0  0  0  0  0  0  0  0
  149.1711  140.5253  154.1061 H   0  0  0  0  0  0  0  0  0  0  0  0
  148.3445  139.1243  154.8185 H   0  0  0  0  0  0  0  0  0  0  0  0
  153.2894  139.3124  155.8700 H   0  0  0  0  0  0  0  0  0  0  0  0
  149.5259  136.6857  153.6033 H   0  0  0  0  0  0  0  0  0  0  0  0
  148.5862  134.9582  153.6409 H   0  0  0  0  0  0  0  0  0  0  0  0
  149.4052  132.6450  155.0697 H   0  0  0  0  0  0  0  0  0  0  0  0
  146.8700  133.4581  153.6533 H   0  0  0  0  0  0  0  0  0  0  0  0
  148.0191  132.2157  153.1760 H   0  0  0  0  0  0  0  0  0  0  0  0
  145.1789  131.2253  153.5462 H   0  0  0  0  0  0  0  0  0  0  0  0
  144.8151  132.5809  154.6121 H   0  0  0  0  0  0  0  0  0  0  0  0
  144.7733  130.9379  155.2366 H   0  0  0  0  0  0  0  0  0  0  0  0
  147.4257  129.8578  153.9688 H   0  0  0  0  0  0  0  0  0  0  0  0
  146.9396  129.6540  155.6488 H   0  0  0  0  0  0  0  0  0  0  0  0
  148.4945  130.3791  155.2675 H   0  0  0  0  0  0  0  0  0  0  0  0
  149.3796  134.0110  157.6429 H   0  0  0  0  0  0  0  0  0  0  0  0
  149.2674  132.2629  157.4564 H   0  0  0  0  0  0  0  0  0  0  0  0
  148.1004  133.1175  158.4558 H   0  0  0  0  0  0  0  0  0  0  0  0
  147.4755  135.5242  156.5882 H   0  0  0  0  0  0  0  0  0  0  0  0
  146.2611  134.5329  157.3788 H   0  0  0  0  0  0  0  0  0  0  0  0
  146.2086  134.7521  155.6372 H   0  0  0  0  0  0  0  0  0  0  0  0
  1  2  1  0  0  0  0
  1 20  1  0  0  0  0
  1 21  1  0  0  0  0
  1 22  1  0  0  0  0
  2  6  1  0  0  0  0
  2  3  1  0  0  0  0
  3  4  2  0  0  0  0
  4  5  1  0  0  0  0
  4 23  1  0  0  0  0
  5  6  2  0  0  0  0
  6  7  1  0  0  0  0
  7  8  1  0  0  0  0
  7 24  1  0  0  0  0
  8  9  2  0  0  0  0
  8 10  1  0  0  0  0
 10 11  1  0  0  0  0
 10 25  1  0  0  0  0
 11 17  1  0  0  0  0
 11 12  1  0  0  0  0
 11 26  1  0  0  0  0
 12 13  1  0  0  0  0
 12 27  1  0  0  0  0
 12 28  1  0  0  0  0
 13 14  1  0  0  0  0
 13 15  1  0  0  0  0
 13 16  1  0  0  0  0
 14 29  1  0  0  0  0
 14 30  1  0  0  0  0
 14 31  1  0  0  0  0
 15 32  1  0  0  0  0
 15 33  1  0  0  0  0
 15 34  1  0  0  0  0
 16 17  1  0  0  0  0
 17 18  1  0  0  0  0
 17 19  1  0  0  0  0
 18 35  1  0  0  0  0
 18 36  1  0  0  0  0
 18 37  1  0  0  0  0
 19 38  1  0  0  0  0
 19 39  1  0  0  0  0
 19 40  1  0  0  0  0
M  END
> <s_m_source_file>
AV-unprocessed.smi

> <i_m_source_file_index>
2325

> <i_lp_mmshare_version>
43012

> <i_f3d_flags>
0

> <s_epik_input>
W0NIM11uMW5bY0hdbmMxW05IXUMoPU8pW05IXVtDQEBIXShDKE8yKShbQ0gzXSlbQ0gzXSlbQ0gyXUMyKFtDSDNdKVtDSDNd

> <s_epik_cmdline>
J2VwaWtfcHl0aG9uJywgJy1waCcsICc3LjAnLCAnLXRuJywgJzgnLCAnLW1hJywgJzIwMCcsICctbWV0YWxfYmluZGluZycsICctaW1hZScsICc8aW5maWxlLm1hZT4nLCAnLW9tYWUnLCAnPG91dGZpbGUubWFlPic=

> <r_lp_tautomer_probability>
1

> <r_epik_Ionization_Penalty>
1.97832e-05

> <r_epik_Ionization_Penalty_Charging>
0

> <r_epik_Ionization_Penalty_Neutral>
1.97832e-05

> <r_epik_State_Penalty>
-0

> <r_epik_Charging_Adjusted_Penalty>
0

> <i_epik_Tot_Q>
0

> <i_epik_Tot_abs_Q>
0

> <r_epik_Metal_State_Penalty>
-0

> <b_epik_Metal_Only>
0

> <s_lp_Force_Field>
OPLS_2005

> <r_lp_Energy>
17.1508

> <b_lp_Chiralities_Consistent>
1

> <s_lp_Variant>
AV-unprocessed.smi:2325-1

> <Gold.Version>
5.8.1

> <Gold.Id.Protein>
6NUR|6NUR_protein|mol2

> <Gold.PLP.Fitness>
39.6934

> <Gold.PLP.PLP>
-29.6378

> <Gold.PLP.part.hbond>
-5.9256

> <Gold.PLP.part.metal>
0.0000

> <Gold.PLP.part.buried>
-0.8248

> <Gold.PLP.part.nonpolar>
-23.3299

> <Gold.PLP.part.repulsive>
0.2595

> <Gold.PLP.ligand.clash>
0.0000

> <Gold.PLP.ligand.torsion>
0.3442

> <Gold.PLP.Chemscore.Hbond>
3.5776

> <Gold.PLP.Chemscore.CHOScore>
0.0000

> <Gold.PLP.Chemscore.Metal>
0.0000

> <Gold.Chemscore.Hbonds>
donor molecule, donor type, donor heavy atom, donor atom, acceptor molecule, acceptor atom, score
      L1  H     7    24       P1  7948  1.00
      L1  H    10    25       P1  7948  0.52
      P1  H  7989  7998       L1     3  1.00
      P1  H 10752 10765       L1     5  0.27

> <Gold.PLP.Chemscore.Internal.Correction>
0.0111

> <Gold.Rescore>
     Score         DG    S(hbond)    S(metal)    S(lipo)     H(rot)  DE(clash)    DE(int)     intcor
     10.80     -13.17       1.81        0.00      35.79       1.00       0.82       1.55       ----

> <Gold.Chemscore.Fitness>
10.7952

> <Gold.Chemscore.DG>
-13.1680

> <Gold.Chemscore.ZeroCoef>
-5.4800

> <Gold.Chemscore.Hbond>
1.8145

> <Gold.Chemscore.Metal>
0.0000

> <Gold.Chemscore.Lipo>
35.7922

> <Gold.Chemscore.Internal_Hbond>
0.0000

> <Gold.Chemscore.DEClash>
0.8211

> <Gold.Chemscore.DEInternal>
1.5516

> <Gold.Chemscore.Rot>
1.0000

> <Gold.Chemscore.Internal.Correction>
   9.000000E+99

> <Gold.Chemscore.Hbonds>
donor molecule, donor type, donor heavy atom, donor atom, acceptor molecule, acceptor atom, score
      L1  H     7    24       P1  7948  0.77
      L1  H    10    25       P1  7948  0.40
      P1  H  7989  7998       L1     3  0.29
      P1  H 10752 10765       L1     5  0.16

> <Gold.Chemscore.Hbond.Weighted>
-6.0603

> <Gold.Chemscore.Metal.Weighted>
-0.0000

> <Gold.Chemscore.Lipo.Weighted>
-4.1877

> <Gold.Chemscore.Internal_Hbond.Weighted>
0.0000

> <Gold.Chemscore.DEClash.Weighted>
0.8211

> <Gold.Chemscore.DEInternal.Weighted>
1.5516

> <Gold.Chemscore.Rot.Weighted>
2.5600

> <Gold.Chemscore.Internal.Correction.Weighted>
   9.000000E+99

> <Gold.Protein.RotatedTorsions>
[ 6907 6896 6895 6894 ] final   -4.16 input  -60.11 | X-H torsion
[ 7974 7965 7964 7962 ] final  -68.28 input  175.53 | X-H torsion
[ 8008 7997 7996 7995 ] final  -64.68 input   59.86 | X-H torsion
[ 10167 10162 10161 10158 ] final   66.27 input  -65.29 | X-H torsion
[ 10718 10713 10712 10709 ] final   82.42 input   66.30 | X-H torsion
[ 10763 10752 10751 10750 ] final -175.04 input  -60.55 | X-H torsion
[ 11005 11000 10999 10996 ] final -178.60 input  -57.11 | X-H torsion

> <Gold.Protein.ActiveResidues>
 VAL166  LYS551  ARG553  GLY616  TRP617  ASP618  TYR619  PRO620  LYS621  CYS622 
 ASP623  PHE694  ASN695  SER759  ASP760  ASP761  ALA762  ILE779  LEU786  VAL792 
 PHE793  MET794  SER795  GLU796  ALA797  LYS798  CYS799  TRP800  GLU811  SER814 

> <Gold.Protein.RotatedAtoms>
  151.5021  135.1062  159.9831 H   0  0  0  0  0  0  0  0  0  0  0  0  # atno 6907 bound_to 6896
  152.4697  133.7998  159.6957 H   0  0  0  0  0  0  0  0  0  0  0  0  # atno 6908 bound_to 6896
  150.8699  133.7457  159.2990 H   0  0  0  0  0  0  0  0  0  0  0  0  # atno 6909 bound_to 6896
  145.7185  140.9049  143.0643 H   0  0  0  0  0  0  0  0  0  0  0  0  # atno 7974 bound_to 7965
  154.4626  140.0948  156.6935 H   0  0  0  0  0  0  0  0  0  0  0  0  # atno 8008 bound_to 7997
  155.4949  140.3472  155.4343 H   0  0  0  0  0  0  0  0  0  0  0  0  # atno 8009 bound_to 7997
  156.0899  140.1394  156.9594 H   0  0  0  0  0  0  0  0  0  0  0  0  # atno 8010 bound_to 7997
  140.1022  144.4893  150.7030 H   0  0  0  0  0  0  0  0  0  0  0  0  # atno 10167 bound_to 10162
  157.6857  131.0047  150.2372 H   0  0  0  0  0  0  0  0  0  0  0  0  # atno 10718 bound_to 10713
  154.5891  135.2843  155.0654 H   0  0  0  0  0  0  0  0  0  0  0  0  # atno 10763 bound_to 10752
  154.1961  135.6432  153.5077 H   0  0  0  0  0  0  0  0  0  0  0  0  # atno 10764 bound_to 10752
  153.0115  135.5458  154.6571 H   0  0  0  0  0  0  0  0  0  0  0  0  # atno 10765 bound_to 10752
  140.4279  134.6546  157.4697 H   0  0  0  0  0  0  0  0  0  0  0  0  # atno 11005 bound_to 11000
  144.6923  139.9170  143.7466 LP  0  0  0  0  0  0  0  0  0  0  0  0  # atno 17320 bound_to 7965
  146.0648  139.3639  143.0559 LP  0  0  0  0  0  0  0  0  0  0  0  0  # atno 17321 bound_to 7965
  140.6971  143.2411  151.4969 LP  0  0  0  0  0  0  0  0  0  0  0  0  # atno 17342 bound_to 10162
  139.5665  144.2030  152.1772 LP  0  0  0  0  0  0  0  0  0  0  0  0  # atno 17343 bound_to 10162
  156.2994  130.3756  149.7765 LP  0  0  0  0  0  0  0  0  0  0  0  0  # atno 17370 bound_to 10713
  156.5400  130.8295  151.3266 LP  0  0  0  0  0  0  0  0  0  0  0  0  # atno 17371 bound_to 10713
  140.0154  134.6626  155.9317 LP  0  0  0  0  0  0  0  0  0  0  0  0  # atno 17394 bound_to 11000
  141.1757  133.6540  156.4821 LP  0  0  0  0  0  0  0  0  0  0  0  0  # atno 17395 bound_to 11000

$$$$
