AV-unprocessed.smi:2353|AV-procd|sdf|9381|dock8
  -GOLD-   2272013 13D 1   1.00000     0.00000
 Structure written by MMmdl.
 45 47  0  0  0  0  0  0  0  0  1 V2000
  150.5137  143.8238  158.6290 C   0  0  0  0  0  0  0  0  0  0  0  0
  151.5898  142.8029  158.9370 C   0  0  0  0  0  0  0  0  0  0  0  0
  152.4406  142.9790  160.0451 C   0  0  0  0  0  0  0  0  0  0  0  0
  153.4384  142.0277  160.3222 C   0  0  0  0  0  0  0  0  0  0  0  0
  153.5922  140.8960  159.4949 C   0  0  0  0  0  0  0  0  0  0  0  0
  154.6729  139.8793  159.8110 C   0  0  0  0  0  0  0  0  0  0  0  0
  152.7446  140.7062  158.3788 C   0  0  0  0  0  0  0  0  0  0  0  0
  152.9476  139.5769  157.6121 O   0  0  0  0  0  0  0  0  0  0  0  0
  152.0438  139.3034  156.5496 C   0  0  0  0  0  0  0  0  0  0  0  0
  152.8089  138.5883  155.4226 C   0  0  1  0  0  0  0  0  0  0  0  0
  153.3675  137.4173  155.9857 O   0  0  0  0  0  0  0  0  0  0  0  0
  151.8746  138.1687  154.2659 C   0  0  0  0  0  0  0  0  0  0  0  0
  150.5151  137.8773  154.7380 N   0  0  0  0  0  0  0  0  0  0  0  0
  149.6275  138.9300  154.5889 N   0  0  0  0  0  0  0  0  0  0  0  0
  148.3909  138.8080  154.9505 C   0  0  0  0  0  0  0  0  0  0  0  0
  147.4096  139.8667  154.8235 N   0  0  0  0  0  0  0  0  0  0  0  0
  147.6576  140.9357  153.9647 C   0  0  0  0  0  0  0  0  0  0  0  0
  146.5597  141.7618  154.0635 C   0  0  0  0  0  0  0  0  0  0  0  0
  145.6397  141.2252  154.9638 N   0  0  0  0  0  0  0  0  0  0  0  0
  146.2101  140.1000  155.3760 C   0  0  0  0  0  0  0  0  0  0  0  0
  147.9199  137.5571  155.5200 C   0  0  0  0  0  0  0  0  0  0  0  0
  148.7925  136.5362  155.6606 C   0  0  0  0  0  0  0  0  0  0  0  0
  150.1923  136.6549  155.2553 C   0  0  0  0  0  0  0  0  0  0  0  0
  151.0037  135.7365  155.3648 O   0  0  0  0  0  0  0  0  0  0  0  0
  151.7427  141.6732  158.1080 C   0  0  0  0  0  0  0  0  0  0  0  0
  150.3628  144.5060  159.4662 H   0  0  0  0  0  0  0  0  0  0  0  0
  149.5651  143.3274  158.4226 H   0  0  0  0  0  0  0  0  0  0  0  0
  150.7924  144.4110  157.7538 H   0  0  0  0  0  0  0  0  0  0  0  0
  152.3328  143.8422  160.6854 H   0  0  0  0  0  0  0  0  0  0  0  0
  154.0857  142.1704  161.1750 H   0  0  0  0  0  0  0  0  0  0  0  0
  154.2230  138.9232  160.0790 H   0  0  0  0  0  0  0  0  0  0  0  0
  155.2981  140.2057  160.6427 H   0  0  0  0  0  0  0  0  0  0  0  0
  155.3167  139.7263  158.9444 H   0  0  0  0  0  0  0  0  0  0  0  0
  151.1943  138.7041  156.8828 H   0  0  0  0  0  0  0  0  0  0  0  0
  151.6572  140.2557  156.1828 H   0  0  0  0  0  0  0  0  0  0  0  0
  153.6003  139.2399  155.0487 H   0  0  0  0  0  0  0  0  0  0  0  0
  152.8402  136.6771  155.7252 H   0  0  0  0  0  0  0  0  0  0  0  0
  151.8809  138.9105  153.4647 H   0  0  0  0  0  0  0  0  0  0  0  0
  152.2604  137.2594  153.8014 H   0  0  0  0  0  0  0  0  0  0  0  0
  148.5541  141.0347  153.3694 H   0  0  0  0  0  0  0  0  0  0  0  0
  146.3621  142.6963  153.5592 H   0  0  0  0  0  0  0  0  0  0  0  0
  145.7387  139.4431  156.0918 H   0  0  0  0  0  0  0  0  0  0  0  0
  146.8927  137.4368  155.8284 H   0  0  0  0  0  0  0  0  0  0  0  0
  148.4482  135.6036  156.0831 H   0  0  0  0  0  0  0  0  0  0  0  0
  151.0759  141.5696  157.2656 H   0  0  0  0  0  0  0  0  0  0  0  0
  1  2  1  0  0  0  0
  1 26  1  0  0  0  0
  1 27  1  0  0  0  0
  1 28  1  0  0  0  0
  2 25  1  0  0  0  0
  2  3  2  0  0  0  0
  3  4  1  0  0  0  0
  3 29  1  0  0  0  0
  4  5  2  0  0  0  0
  4 30  1  0  0  0  0
  5  6  1  0  0  0  0
  5  7  1  0  0  0  0
  6 31  1  0  0  0  0
  6 32  1  0  0  0  0
  6 33  1  0  0  0  0
  7  8  1  0  0  0  0
  7 25  2  0  0  0  0
  8  9  1  0  0  0  0
  9 10  1  0  0  0  0
  9 34  1  0  0  0  0
  9 35  1  0  0  0  0
 10 11  1  0  0  0  0
 10 12  1  0  0  0  0
 10 36  1  0  0  0  0
 11 37  1  0  0  0  0
 12 13  1  0  0  0  0
 12 38  1  0  0  0  0
 12 39  1  0  0  0  0
 13 23  1  0  0  0  0
 13 14  1  0  0  0  0
 14 15  2  0  0  0  0
 15 16  1  0  0  0  0
 15 21  1  0  0  0  0
 16 20  1  0  0  0  0
 16 17  1  0  0  0  0
 17 18  2  0  0  0  0
 17 40  1  0  0  0  0
 18 19  1  0  0  0  0
 18 41  1  0  0  0  0
 19 20  2  0  0  0  0
 20 42  1  0  0  0  0
 21 22  2  0  0  0  0
 21 43  1  0  0  0  0
 22 23  1  0  0  0  0
 22 44  1  0  0  0  0
 23 24  2  0  0  0  0
 25 45  1  0  0  0  0
M  END
> <s_m_source_file>
AV-unprocessed.smi

> <i_m_source_file_index>
2353

> <i_lp_mmshare_version>
43012

> <i_f3d_flags>
0

> <s_epik_input>
W0NIM11jMVtjSF1bY0hdYyhbQ0gzXSljKFtjSF0xKU9bQ0gyXVtDQEhdKFtPSF0pW0NIMl1uMm5jKFtjSF1bY0hdYzI9TyktbjNbY0hdW2NIXW5bY0hdMw==

> <s_epik_cmdline>
J2VwaWtfcHl0aG9uJywgJy1waCcsICc3LjAnLCAnLXRuJywgJzgnLCAnLW1hJywgJzIwMCcsICctbWV0YWxfYmluZGluZycsICctaW1hZScsICc8aW5maWxlLm1hZT4nLCAnLW9tYWUnLCAnPG91dGZpbGUubWFlPic=

> <r_lp_tautomer_probability>
1

> <r_epik_Ionization_Penalty>
0.03707

> <r_epik_Ionization_Penalty_Charging>
0.0370699

> <r_epik_Ionization_Penalty_Neutral>
1.17174e-07

> <r_epik_State_Penalty>
0.0310055

> <r_epik_Charging_Adjusted_Penalty>
0.0680754

> <i_epik_Tot_Q>
0

> <i_epik_Tot_abs_Q>
0

> <r_epik_Metal_State_Penalty>
0.0291724

> <b_epik_Metal_Only>
0

> <s_lp_Force_Field>
OPLS_2005

> <r_lp_Energy>
35.5456

> <b_lp_Chiralities_Consistent>
1

> <s_lp_Variant>
AV-unprocessed.smi:2353-2

> <Gold.Version>
5.8.1

> <Gold.Id.Protein>
6NUR|6NUR_protein|mol2

> <Gold.PLP.Fitness>
49.9425

> <Gold.PLP.PLP>
-43.0576

> <Gold.PLP.part.hbond>
-3.0000

> <Gold.PLP.part.metal>
0.0000

> <Gold.PLP.part.buried>
-6.5941

> <Gold.PLP.part.nonpolar>
-33.5646

> <Gold.PLP.part.repulsive>
0.4731

> <Gold.PLP.ligand.clash>
0.0000

> <Gold.PLP.ligand.torsion>
1.0499

> <Gold.PLP.Chemscore.Hbond>
1.9500

> <Gold.PLP.Chemscore.CHOScore>
1.0000

> <Gold.PLP.Chemscore.Metal>
0.0000

> <Gold.Chemscore.Hbonds>
donor molecule, donor type, donor heavy atom, donor atom, acceptor molecule, acceptor atom, score
      P1  H  7997  8010       L1     8  1.00
      P1  H 10752 10763       L1    24  0.91
      L1  C    17    40       P1  7957  0.74

> <Gold.PLP.Chemscore.Internal.Correction>
0.1347

> <Gold.Rescore>
     Score         DG    S(hbond)    S(metal)    S(lipo)     H(rot)  DE(clash)    DE(int)     intcor
     13.27     -15.83       1.00        0.00     116.73       2.60       0.32       2.24       ----

> <Gold.Chemscore.Fitness>
13.2750

> <Gold.Chemscore.DG>
-15.8346

> <Gold.Chemscore.ZeroCoef>
-5.4800

> <Gold.Chemscore.Hbond>
1.0028

> <Gold.Chemscore.Metal>
0.0000

> <Gold.Chemscore.Lipo>
116.7308

> <Gold.Chemscore.Internal_Hbond>
0.0000

> <Gold.Chemscore.DEClash>
0.3175

> <Gold.Chemscore.DEInternal>
2.2421

> <Gold.Chemscore.Rot>
2.5986

> <Gold.Chemscore.Internal.Correction>
   9.000000E+99

> <Gold.Chemscore.Hbonds>
donor molecule, donor type, donor heavy atom, donor atom, acceptor molecule, acceptor atom, score
      P1  H  7997  8010       L1     8  0.07
      P1  H 10752 10763       L1    24  0.87

> <Gold.Chemscore.Hbond.Weighted>
-3.3495

> <Gold.Chemscore.Metal.Weighted>
-0.0000

> <Gold.Chemscore.Lipo.Weighted>
-13.6575

> <Gold.Chemscore.Internal_Hbond.Weighted>
0.0000

> <Gold.Chemscore.DEClash.Weighted>
0.3175

> <Gold.Chemscore.DEInternal.Weighted>
2.2421

> <Gold.Chemscore.Rot.Weighted>
6.6524

> <Gold.Chemscore.Internal.Correction.Weighted>
   9.000000E+99

> <Gold.Protein.RotatedTorsions>
[ 6907 6896 6895 6894 ] final   59.30 input  -60.11 | X-H torsion
[ 7974 7965 7964 7962 ] final  164.15 input  175.53 | X-H torsion
[ 8008 7997 7996 7995 ] final   58.95 input   59.86 | X-H torsion
[ 10167 10162 10161 10158 ] final   14.91 input  -65.29 | X-H torsion
[ 10718 10713 10712 10709 ] final   93.65 input   66.30 | X-H torsion
[ 10763 10752 10751 10750 ] final   62.38 input  -60.55 | X-H torsion
[ 11005 11000 10999 10996 ] final   -5.86 input  -57.11 | X-H torsion

> <Gold.Protein.ActiveResidues>
 VAL166  LYS551  ARG553  GLY616  TRP617  ASP618  TYR619  PRO620  LYS621  CYS622 
 ASP623  PHE694  ASN695  SER759  ASP760  ASP761  ALA762  ILE779  LEU786  VAL792 
 PHE793  MET794  SER795  GLU796  ALA797  LYS798  CYS799  TRP800  GLU811  SER814 

> <Gold.Protein.RotatedAtoms>
  152.3902  134.6453  160.0109 H   0  0  0  0  0  0  0  0  0  0  0  0  # atno 6907 bound_to 6896
  151.6689  133.3309  159.3200 H   0  0  0  0  0  0  0  0  0  0  0  0  # atno 6908 bound_to 6896
  150.7820  134.6816  159.6492 H   0  0  0  0  0  0  0  0  0  0  0  0  # atno 6909 bound_to 6896
  144.7558  139.8285  143.6350 H   0  0  0  0  0  0  0  0  0  0  0  0  # atno 7974 bound_to 7965
  155.5583  140.3487  155.4485 H   0  0  0  0  0  0  0  0  0  0  0  0  # atno 8008 bound_to 7997
  156.0533  140.1323  157.0051 H   0  0  0  0  0  0  0  0  0  0  0  0  # atno 8009 bound_to 7997
  154.4444  140.1000  156.6393 H   0  0  0  0  0  0  0  0  0  0  0  0  # atno 8010 bound_to 7997
  140.5904  143.8807  150.6868 H   0  0  0  0  0  0  0  0  0  0  0  0  # atno 10167 bound_to 10162
  157.6953  131.0485  150.4067 H   0  0  0  0  0  0  0  0  0  0  0  0  # atno 10718 bound_to 10713
  152.9981  135.5467  154.6183 H   0  0  0  0  0  0  0  0  0  0  0  0  # atno 10763 bound_to 10752
  154.5488  135.2825  155.1030 H   0  0  0  0  0  0  0  0  0  0  0  0  # atno 10764 bound_to 10752
  154.2278  135.6439  153.5218 H   0  0  0  0  0  0  0  0  0  0  0  0  # atno 10765 bound_to 10752
  140.6957  133.9033  155.8648 H   0  0  0  0  0  0  0  0  0  0  0  0  # atno 11005 bound_to 11000
  146.1565  139.4665  143.0015 LP  0  0  0  0  0  0  0  0  0  0  0  0  # atno 17320 bound_to 7965
  145.6786  141.0197  143.1619 LP  0  0  0  0  0  0  0  0  0  0  0  0  # atno 17321 bound_to 7965
  140.2329  143.3722  152.1551 LP  0  0  0  0  0  0  0  0  0  0  0  0  # atno 17342 bound_to 10162
  139.5224  144.7058  151.5359 LP  0  0  0  0  0  0  0  0  0  0  0  0  # atno 17343 bound_to 10162
  156.4455  130.4000  149.6670 LP  0  0  0  0  0  0  0  0  0  0  0  0  # atno 17370 bound_to 10713
  156.3838  130.7592  151.2588 LP  0  0  0  0  0  0  0  0  0  0  0  0  # atno 17371 bound_to 10713
  141.0205  134.0896  157.4126 LP  0  0  0  0  0  0  0  0  0  0  0  0  # atno 17394 bound_to 11000
  139.8911  135.0116  156.6771 LP  0  0  0  0  0  0  0  0  0  0  0  0  # atno 17395 bound_to 11000

$$$$
