AV-unprocessed.smi:158|AV-procd|sdf|1330|dock2
  -GOLD-   2262019 23D 1   1.00000     0.00000
 Structure written by MMmdl.
 31 33  0  0  0  0  0  0  0  0  1 V2000
  142.4960  144.9551  155.8076 N   0  0  0  0  0  0  0  0  0  0  0  0
  143.3076  144.0560  156.3810 C   0  0  0  0  0  0  0  0  0  0  0  0
  143.1079  143.7429  157.6824 N   0  0  0  0  0  0  0  0  0  0  0  0
  143.8949  142.8472  158.2916 C   0  0  0  0  0  0  0  0  0  0  0  0
  143.5485  142.5252  159.9496 Cl  0  0  0  0  0  0  0  0  0  0  0  0
  144.9212  142.1741  157.7594 N   0  0  0  0  0  0  0  0  0  0  0  0
  145.1267  142.4912  156.4484 C   0  0  0  0  0  0  0  0  0  0  0  0
  144.3641  143.4162  155.6881 C   0  0  0  0  0  0  0  0  0  0  0  0
  144.8512  143.4757  154.3900 N   0  0  0  0  0  0  0  0  0  0  0  0
  145.8449  142.6275  154.3886 C   0  0  0  0  0  0  0  0  0  0  0  0
  146.0928  142.0040  155.5948 N   0  0  0  0  0  0  0  0  0  0  0  0
  147.1341  140.9855  155.9473 C   0  0  1  0  0  0  0  0  0  0  0  0
  146.8536  139.8129  155.2342 O   0  0  0  0  0  0  0  0  0  0  0  0
  147.8002  139.6107  154.1781 C   0  0  1  0  0  0  0  0  0  0  0  0
  147.0945  139.1446  152.8947 C   0  0  0  0  0  0  0  0  0  0  0  0
  147.9882  139.2006  151.8043 O   0  0  0  0  0  0  0  0  0  0  0  0
  148.4968  140.9667  154.0352 C   0  0  2  0  0  0  0  0  0  0  0  0
  149.8020  140.8847  153.4977 O   0  0  0  0  0  0  0  0  0  0  0  0
  148.5083  141.4581  155.4698 C   0  0  2  0  0  0  0  0  0  0  0  0
  149.4328  140.8294  156.1997 F   0  0  0  0  0  0  0  0  0  0  0  0
  147.0411  140.8579  157.0267 H   0  0  0  0  0  0  0  0  0  0  0  0
  148.5281  138.8679  154.5109 H   0  0  0  0  0  0  0  0  0  0  0  0
  147.8968  141.6398  153.4207 H   0  0  0  0  0  0  0  0  0  0  0  0
  148.6538  142.5329  155.5805 H   0  0  0  0  0  0  0  0  0  0  0  0
  142.6265  145.2024  154.8370 H   0  0  0  0  0  0  0  0  0  0  0  0
  141.7561  145.3831  156.3454 H   0  0  0  0  0  0  0  0  0  0  0  0
  146.4204  142.4363  153.4959 H   0  0  0  0  0  0  0  0  0  0  0  0
  146.6846  138.1410  152.9988 H   0  0  0  0  0  0  0  0  0  0  0  0
  146.2608  139.8089  152.6656 H   0  0  0  0  0  0  0  0  0  0  0  0
  148.3220  138.3312  151.6431 H   0  0  0  0  0  0  0  0  0  0  0  0
  149.7383  140.6432  152.5864 H   0  0  0  0  0  0  0  0  0  0  0  0
  1  2  1  0  0  0  0
  1 25  1  0  0  0  0
  1 26  1  0  0  0  0
  2  8  1  0  0  0  0
  2  3  2  0  0  0  0
  3  4  1  0  0  0  0
  4  5  1  0  0  0  0
  4  6  2  0  0  0  0
  6  7  1  0  0  0  0
  7 11  1  0  0  0  0
  7  8  2  0  0  0  0
  8  9  1  0  0  0  0
  9 10  2  0  0  0  0
 10 11  1  0  0  0  0
 10 27  1  0  0  0  0
 11 12  1  0  0  0  0
 12 21  1  0  0  0  0
 12 19  1  0  0  0  0
 12 13  1  0  0  0  0
 13 14  1  0  0  0  0
 14 22  1  0  0  0  0
 14 15  1  0  0  0  0
 14 17  1  0  0  0  0
 15 16  1  0  0  0  0
 15 28  1  0  0  0  0
 15 29  1  0  0  0  0
 16 30  1  0  0  0  0
 17 23  1  0  0  0  0
 17 18  1  0  0  0  0
 17 19  1  0  0  0  0
 18 31  1  0  0  0  0
 19 24  1  0  0  0  0
 19 20  1  0  0  0  0
M  END
> <s_m_source_file>
AV-unprocessed.smi

> <i_m_source_file_index>
158

> <i_lp_mmshare_version>
43012

> <i_f3d_flags>
0

> <s_epik_input>
Q2xjKG4xKW5jKFtOSDJdKWMoYzEyKW5bY0hdbjJbQ0BASF0zT1tDQEhdKFtDSDJdW09IXSlbQ0BASF0oW09IXSlbQ0BASF0zRg==

> <s_epik_cmdline>
J2VwaWtfcHl0aG9uJywgJy1waCcsICc3LjAnLCAnLXRuJywgJzgnLCAnLW1hJywgJzIwMCcsICctbWV0YWxfYmluZGluZycsICctaW1hZScsICc8aW5maWxlLm1hZT4nLCAnLW9tYWUnLCAnPG91dGZpbGUubWFlPic=

> <r_lp_tautomer_probability>
1

> <r_epik_Ionization_Penalty>
6.51543e-05

> <r_epik_Ionization_Penalty_Charging>
0

> <r_epik_Ionization_Penalty_Neutral>
6.51543e-05

> <r_epik_State_Penalty>
-0

> <r_epik_Charging_Adjusted_Penalty>
0

> <i_epik_Tot_Q>
0

> <i_epik_Tot_abs_Q>
0

> <r_epik_Metal_State_Penalty>
-0

> <b_epik_Metal_Only>
0

> <s_epik_Chemistry_Notes>
This compound contains an acetal/aminal-like group ( X-CH(R)-Y where X, Y are N, S, or O) that may be acid/base labile, releasing an aldehyde.

> <s_lp_Force_Field>
OPLS_2005

> <r_lp_Energy>
30.2805

> <b_lp_Chiralities_Consistent>
1

> <s_lp_Variant>
AV-unprocessed.smi:158-8

> <Gold.Version>
5.8.1

> <Gold.Id.Protein>
6NUR|6NUR_protein|mol2

> <Gold.PLP.Fitness>
36.0578

> <Gold.PLP.PLP>
-28.8203

> <Gold.PLP.part.hbond>
-3.6784

> <Gold.PLP.part.metal>
0.0000

> <Gold.PLP.part.buried>
-6.2955

> <Gold.PLP.part.nonpolar>
-19.0798

> <Gold.PLP.part.repulsive>
0.4695

> <Gold.PLP.ligand.clash>
0.0000

> <Gold.PLP.ligand.torsion>
0.2117

> <Gold.PLP.Chemscore.Hbond>
2.5444

> <Gold.PLP.Chemscore.CHOScore>
0.0000

> <Gold.PLP.Chemscore.Metal>
0.0000

> <Gold.Chemscore.Hbonds>
donor molecule, donor type, donor heavy atom, donor atom, acceptor molecule, acceptor atom, score
      L1  H    16    30       P1  7948  0.68
      L1  H    18    31       P1  7957  1.00
      P1  H  7989  7998       L1    18  0.20

> <Gold.PLP.Chemscore.Internal.Correction>
0.0276

> <Gold.Rescore>
     Score         DG    S(hbond)    S(metal)    S(lipo)     H(rot)  DE(clash)    DE(int)     intcor
      7.61      -7.90       1.97        0.00      32.81       3.12       0.18       0.11       ----

> <Gold.Chemscore.Fitness>
7.6074

> <Gold.Chemscore.DG>
-7.8955

> <Gold.Chemscore.ZeroCoef>
-5.4800

> <Gold.Chemscore.Hbond>
1.9675

> <Gold.Chemscore.Metal>
0.0000

> <Gold.Chemscore.Lipo>
32.8127

> <Gold.Chemscore.Internal_Hbond>
0.0000

> <Gold.Chemscore.DEClash>
0.1755

> <Gold.Chemscore.DEInternal>
0.1127

> <Gold.Chemscore.Rot>
3.1230

> <Gold.Chemscore.Internal.Correction>
   9.000000E+99

> <Gold.Chemscore.Hbonds>
donor molecule, donor type, donor heavy atom, donor atom, acceptor molecule, acceptor atom, score
      L1  H    16    30       P1  7948  0.68
      L1  H    18    31       P1  7957  0.94
      P1  H  7989  7998       L1    18  0.02

> <Gold.Chemscore.Hbond.Weighted>
-6.5714

> <Gold.Chemscore.Metal.Weighted>
-0.0000

> <Gold.Chemscore.Lipo.Weighted>
-3.8391

> <Gold.Chemscore.Internal_Hbond.Weighted>
0.0000

> <Gold.Chemscore.DEClash.Weighted>
0.1755

> <Gold.Chemscore.DEInternal.Weighted>
0.1127

> <Gold.Chemscore.Rot.Weighted>
7.9950

> <Gold.Chemscore.Internal.Correction.Weighted>
   9.000000E+99

> <Gold.Protein.RotatedTorsions>
[ 6907 6896 6895 6894 ] final  158.68 input  -60.11 | X-H torsion
[ 7974 7965 7964 7962 ] final  -46.30 input  175.53 | X-H torsion
[ 8008 7997 7996 7995 ] final  112.63 input   59.86 | X-H torsion
[ 10167 10162 10161 10158 ] final -135.11 input  -65.29 | X-H torsion
[ 10718 10713 10712 10709 ] final -120.26 input   66.30 | X-H torsion
[ 10763 10752 10751 10750 ] final   61.80 input  -60.55 | X-H torsion
[ 11005 11000 10999 10996 ] final   81.13 input  -57.11 | X-H torsion

> <Gold.Protein.ActiveResidues>
 VAL166  LYS551  ARG553  GLY616  TRP617  ASP618  TYR619  PRO620  LYS621  CYS622 
 ASP623  PHE694  ASN695  SER759  ASP760  ASP761  ALA762  ILE779  LEU786  VAL792 
 PHE793  MET794  SER795  GLU796  ALA797  LYS798  CYS799  TRP800  GLU811  SER814 

> <Gold.Protein.RotatedAtoms>
  151.9968  133.3811  159.4165 H   0  0  0  0  0  0  0  0  0  0  0  0  # atno 6907 bound_to 6896
  150.6915  134.3877  159.5071 H   0  0  0  0  0  0  0  0  0  0  0  0  # atno 6908 bound_to 6896
  152.1618  134.8905  160.0591 H   0  0  0  0  0  0  0  0  0  0  0  0  # atno 6909 bound_to 6896
  145.9733  140.7361  142.9400 H   0  0  0  0  0  0  0  0  0  0  0  0  # atno 7974 bound_to 7965
  156.2205  140.2996  155.9940 H   0  0  0  0  0  0  0  0  0  0  0  0  # atno 8008 bound_to 7997
  155.2494  140.0425  157.3002 H   0  0  0  0  0  0  0  0  0  0  0  0  # atno 8009 bound_to 7997
  154.5833  140.2381  155.8031 H   0  0  0  0  0  0  0  0  0  0  0  0  # atno 8010 bound_to 7997
  139.8812  143.6837  152.2627 H   0  0  0  0  0  0  0  0  0  0  0  0  # atno 10167 bound_to 10162
  156.1244  130.6348  150.9518 H   0  0  0  0  0  0  0  0  0  0  0  0  # atno 10718 bound_to 10713
  152.9962  135.5487  154.6092 H   0  0  0  0  0  0  0  0  0  0  0  0  # atno 10763 bound_to 10752
  154.5416  135.2820  155.1092 H   0  0  0  0  0  0  0  0  0  0  0  0  # atno 10764 bound_to 10752
  154.2367  135.6424  153.5246 H   0  0  0  0  0  0  0  0  0  0  0  0  # atno 10765 bound_to 10752
  139.9109  134.7973  156.2000 H   0  0  0  0  0  0  0  0  0  0  0  0  # atno 11005 bound_to 11000
  144.6842  140.2785  143.7295 LP  0  0  0  0  0  0  0  0  0  0  0  0  # atno 17320 bound_to 7965
  145.7875  139.1914  143.2122 LP  0  0  0  0  0  0  0  0  0  0  0  0  # atno 17321 bound_to 7965
  139.7194  144.7605  151.0980 LP  0  0  0  0  0  0  0  0  0  0  0  0  # atno 17342 bound_to 10162
  140.7744  143.5227  150.9517 LP  0  0  0  0  0  0  0  0  0  0  0  0  # atno 17343 bound_to 10162
  157.6426  131.0908  150.8219 LP  0  0  0  0  0  0  0  0  0  0  0  0  # atno 17370 bound_to 10713
  156.8312  130.5016  149.5331 LP  0  0  0  0  0  0  0  0  0  0  0  0  # atno 17371 bound_to 10713
  141.0530  133.6879  156.1808 LP  0  0  0  0  0  0  0  0  0  0  0  0  # atno 17394 bound_to 11000
  140.6780  134.4797  157.5588 LP  0  0  0  0  0  0  0  0  0  0  0  0  # atno 17395 bound_to 11000

$$$$
