AV-unprocessed.smi:1005|AV-procd|sdf|4382|dock7
  -GOLD-   22720 2303D 1   1.00000     0.00000
 Structure written by MMmdl.
 58 60  0  0  0  0  0  0  0  0  4 V2000
  146.1927  129.8970  152.6435 C   0  0  0  0  0  0  0  0  0  0  0  0
  146.0834  131.3705  152.2903 C   0  0  0  0  0  0  0  0  0  0  0  0
  144.9228  131.8190  151.6201 C   0  0  0  0  0  0  0  0  0  0  0  0
  144.8507  133.1724  151.3129 C   0  0  0  0  0  0  0  0  0  0  0  0
  143.8578  133.9141  150.6693 N   0  3  0  0  0  0  0  0  0  0  0  0
  144.2384  135.2199  150.5998 C   0  0  0  0  0  0  0  0  0  0  0  0
  145.4593  135.3233  151.1928 N   0  0  0  0  0  0  0  0  0  0  0  0
  146.3181  136.4982  151.3937 C   0  0  0  0  0  0  0  0  0  0  0  0
  145.7581  137.4773  152.4450 C   0  0  2  0  0  0  0  0  0  0  0  0
  144.4267  137.8142  152.1057 O   0  0  0  0  0  0  0  0  0  0  0  0
  146.5942  138.7696  152.5330 C   0  0  0  0  0  0  0  0  0  0  0  0
  146.1807  139.6342  153.6716 N   0  3  1  0  0  0  0  0  0  0  0  0
  145.8727  138.9028  154.9271 C   0  0  0  0  0  0  0  0  0  0  0  0
  147.1568  138.5034  155.6779 C   0  0  0  0  0  0  0  0  0  0  0  0
  147.9596  139.6552  155.9052 O   0  0  0  0  0  0  0  0  0  0  0  0
  148.3715  140.2855  154.6963 C   0  0  2  0  0  0  0  0  0  0  0  0
  149.2865  141.4671  155.0696 C   0  0  0  0  0  0  0  0  0  0  0  0
  150.4311  141.0601  155.9250 N   0  3  0  0  0  0  0  0  0  0  0  0
  151.3793  140.1489  155.2432 C   0  0  0  0  0  0  0  0  0  0  0  0
  151.1280  142.2243  156.5153 C   0  0  0  0  0  0  0  0  0  0  0  0
  147.1110  140.7588  153.9405 C   0  0  0  0  0  0  0  0  0  0  0  0
  145.8827  134.0701  151.6482 C   0  0  0  0  0  0  0  0  0  0  0  0
  147.0346  133.6447  152.3052 C   0  0  0  0  0  0  0  0  0  0  0  0
  147.1261  132.2719  152.6281 C   0  0  0  0  0  0  0  0  0  0  0  0
  148.3688  131.7784  153.3494 C   0  0  0  0  0  0  0  0  0  0  0  0
  145.3056  129.3448  152.3319 H   0  0  0  0  0  0  0  0  0  0  0  0
  146.3035  129.7683  153.7205 H   0  0  0  0  0  0  0  0  0  0  0  0
  147.0551  129.4483  152.1500 H   0  0  0  0  0  0  0  0  0  0  0  0
  144.1256  131.1383  151.3591 H   0  0  0  0  0  0  0  0  0  0  0  0
  143.6717  136.0267  150.1576 H   0  0  0  0  0  0  0  0  0  0  0  0
  147.3128  136.1495  151.6746 H   0  0  0  0  0  0  0  0  0  0  0  0
  146.4252  136.9953  150.4284 H   0  0  0  0  0  0  0  0  0  0  0  0
  145.7386  136.9764  153.4120 H   0  0  0  0  0  0  0  0  0  0  0  0
  144.2862  138.7301  152.2927 H   0  0  0  0  0  0  0  0  0  0  0  0
  147.6538  138.5283  152.6177 H   0  0  0  0  0  0  0  0  0  0  0  0
  146.4861  139.3149  151.5941 H   0  0  0  0  0  0  0  0  0  0  0  0
  145.2784  139.5601  155.5632 H   0  0  0  0  0  0  0  0  0  0  0  0
  145.2541  138.0268  154.7361 H   0  0  0  0  0  0  0  0  0  0  0  0
  146.9016  138.0604  156.6408 H   0  0  0  0  0  0  0  0  0  0  0  0
  147.7247  137.7512  155.1295 H   0  0  0  0  0  0  0  0  0  0  0  0
  148.9168  139.5731  154.0768 H   0  0  0  0  0  0  0  0  0  0  0  0
  149.6638  141.9606  154.1725 H   0  0  0  0  0  0  0  0  0  0  0  0
  148.6848  142.2102  155.5955 H   0  0  0  0  0  0  0  0  0  0  0  0
  151.8310  140.6324  154.3759 H   0  0  0  0  0  0  0  0  0  0  0  0
  150.8885  139.2359  154.9083 H   0  0  0  0  0  0  0  0  0  0  0  0
  152.1813  139.8541  155.9210 H   0  0  0  0  0  0  0  0  0  0  0  0
  151.5662  142.8531  155.7394 H   0  0  0  0  0  0  0  0  0  0  0  0
  151.9259  141.8993  157.1840 H   0  0  0  0  0  0  0  0  0  0  0  0
  150.4380  142.8326  157.1010 H   0  0  0  0  0  0  0  0  0  0  0  0
  147.3783  141.2620  153.0106 H   0  0  0  0  0  0  0  0  0  0  0  0
  146.5818  141.4984  154.5433 H   0  0  0  0  0  0  0  0  0  0  0  0
  147.8281  134.3302  152.5619 H   0  0  0  0  0  0  0  0  0  0  0  0
  149.0795  132.5876  153.5201 H   0  0  0  0  0  0  0  0  0  0  0  0
  148.8741  131.0108  152.7627 H   0  0  0  0  0  0  0  0  0  0  0  0
  148.1056  131.3564  154.3196 H   0  0  0  0  0  0  0  0  0  0  0  0
  150.0412  140.5501  156.7053 H   0  0  0  0  0  0  0  0  0  0  0  0
  145.3162  140.0607  153.3673 H   0  0  0  0  0  0  0  0  0  0  0  0
  142.9834  133.5583  150.3040 H   0  0  0  0  0  0  0  0  0  0  0  0
  1  2  1  0  0  0  0
  1 26  1  0  0  0  0
  1 27  1  0  0  0  0
  1 28  1  0  0  0  0
  2 24  1  0  0  0  0
  2  3  2  0  0  0  0
  3  4  1  0  0  0  0
  3 29  1  0  0  0  0
  4 22  2  0  0  0  0
  4  5  1  0  0  0  0
  5  6  2  0  0  0  0
  5 58  1  0  0  0  0
  6  7  1  0  0  0  0
  6 30  1  0  0  0  0
  7  8  1  0  0  0  0
  7 22  1  0  0  0  0
  8  9  1  0  0  0  0
  8 31  1  0  0  0  0
  8 32  1  0  0  0  0
  9 10  1  0  0  0  0
  9 11  1  0  0  0  0
  9 33  1  0  0  0  0
 10 34  1  0  0  0  0
 11 12  1  0  0  0  0
 11 35  1  0  0  0  0
 11 36  1  0  0  0  0
 12 21  1  0  0  0  0
 12 13  1  0  0  0  0
 12 57  1  0  0  0  0
 13 14  1  0  0  0  0
 13 37  1  0  0  0  0
 13 38  1  0  0  0  0
 14 15  1  0  0  0  0
 14 39  1  0  0  0  0
 14 40  1  0  0  0  0
 15 16  1  0  0  0  0
 16 17  1  0  0  0  0
 16 21  1  0  0  0  0
 16 41  1  0  0  0  0
 17 18  1  0  0  0  0
 17 42  1  0  0  0  0
 17 43  1  0  0  0  0
 18 19  1  0  0  0  0
 18 20  1  0  0  0  0
 18 56  1  0  0  0  0
 19 44  1  0  0  0  0
 19 45  1  0  0  0  0
 19 46  1  0  0  0  0
 20 47  1  0  0  0  0
 20 48  1  0  0  0  0
 20 49  1  0  0  0  0
 21 50  1  0  0  0  0
 21 51  1  0  0  0  0
 22 23  1  0  0  0  0
 23 24  2  0  0  0  0
 23 52  1  0  0  0  0
 24 25  1  0  0  0  0
 25 53  1  0  0  0  0
 25 54  1  0  0  0  0
 25 55  1  0  0  0  0
M  CHG  1   5   1
M  CHG  1  12   1
M  CHG  1  18   1
M  END
> <s_m_source_file>
AV-unprocessed.smi

> <i_m_source_file_index>
1005

> <i_lp_mmshare_version>
43012

> <i_f3d_flags>
0

> <s_epik_input>
W0NIM11jKFtjSF0xKWMoW0NIM10pW2NIXWMoYzEyKW4oW2NIXW4yKVtDSDJdW0NASF0oW09IXSlbQ0gyXU4zW0NIMl1bQ0gyXU9bQ0BIXShbQ0gyXTMpW0NIMl1OKFtDSDNdKVtDSDNd

> <s_epik_cmdline>
J2VwaWtfcHl0aG9uJywgJy1waCcsICc3LjAnLCAnLXRuJywgJzgnLCAnLW1hJywgJzIwMCcsICctbWV0YWxfYmluZGluZycsICctaW1hZScsICc8aW5maWxlLm1hZT4nLCAnLW9tYWUnLCAnPG91dGZpbGUubWFlPic=

> <r_epik_Ionization_Penalty>
2.30802

> <r_epik_Ionization_Penalty_Charging>
2.30798

> <r_epik_Ionization_Penalty_Neutral>
3.4851e-05

> <r_epik_State_Penalty>
2.52618

> <r_epik_Charging_Adjusted_Penalty>
4.83416

> <i_epik_Tot_Q>
3

> <i_epik_Tot_abs_Q>
3

> <r_epik_Metal_State_Penalty>
6.53149

> <b_epik_Metal_Only>
0

> <s_lp_Force_Field>
OPLS_2005

> <r_lp_Energy>
46.1367

> <b_lp_Chiralities_Consistent>
1

> <s_lp_Variant>
AV-unprocessed.smi:1005-21

> <Gold.Version>
5.8.1

> <Gold.Id.Protein>
6NUR|6NUR_protein|mol2

> <Gold.PLP.Fitness>
59.0706

> <Gold.PLP.PLP>
-42.4973

> <Gold.PLP.part.hbond>
-3.2320

> <Gold.PLP.part.metal>
0.0000

> <Gold.PLP.part.buried>
-2.1769

> <Gold.PLP.part.nonpolar>
-38.2239

> <Gold.PLP.part.repulsive>
0.1032

> <Gold.PLP.ligand.clash>
0.0000

> <Gold.PLP.ligand.torsion>
0.3363

> <Gold.PLP.Chemscore.Hbond>
4.6960

> <Gold.PLP.Chemscore.CHOScore>
1.0000

> <Gold.PLP.Chemscore.Metal>
0.0000

> <Gold.Chemscore.Hbonds>
donor molecule, donor type, donor heavy atom, donor atom, acceptor molecule, acceptor atom, score
      L1  H     5    58       P1 10186  0.55
      L1  H    10    34       P1 10175  1.00
      L1  H    12    57       P1 10175  2.00
      L1  C     6    30       P1 10171  0.92

> <Gold.PLP.Chemscore.Internal.Correction>
0.1580

> <Gold.Rescore>
     Score         DG    S(hbond)    S(metal)    S(lipo)     H(rot)  DE(clash)    DE(int)     intcor
     18.23     -20.98       2.82        0.00     107.82       2.56       1.52       1.23       ----

> <Gold.Chemscore.Fitness>
18.2314

> <Gold.Chemscore.DG>
-20.9769

> <Gold.Chemscore.ZeroCoef>
-5.4800

> <Gold.Chemscore.Hbond>
2.8224

> <Gold.Chemscore.Metal>
0.0000

> <Gold.Chemscore.Lipo>
107.8219

> <Gold.Chemscore.Internal_Hbond>
0.0000

> <Gold.Chemscore.DEClash>
1.5196

> <Gold.Chemscore.DEInternal>
1.2259

> <Gold.Chemscore.Rot>
2.5566

> <Gold.Chemscore.Internal.Correction>
   9.000000E+99

> <Gold.Chemscore.Hbonds>
donor molecule, donor type, donor heavy atom, donor atom, acceptor molecule, acceptor atom, score
      L1  H     5    58       P1 10186  0.27
      L1  H    10    34       P1 10175  1.00
      L1  H    12    57       P1 10175  1.00

> <Gold.Chemscore.Hbond.Weighted>
-9.4267

> <Gold.Chemscore.Metal.Weighted>
-0.0000

> <Gold.Chemscore.Lipo.Weighted>
-12.6152

> <Gold.Chemscore.Internal_Hbond.Weighted>
0.0000

> <Gold.Chemscore.DEClash.Weighted>
1.5196

> <Gold.Chemscore.DEInternal.Weighted>
1.2259

> <Gold.Chemscore.Rot.Weighted>
6.5450

> <Gold.Chemscore.Internal.Correction.Weighted>
   9.000000E+99

> <Gold.Protein.RotatedTorsions>
[ 6907 6896 6895 6894 ] final  133.95 input  -60.11 | X-H torsion
[ 7974 7965 7964 7962 ] final  -18.80 input  175.53 | X-H torsion
[ 8008 7997 7996 7995 ] final   74.50 input   59.86 | X-H torsion
[ 10167 10162 10161 10158 ] final  -85.26 input  -65.29 | X-H torsion
[ 10718 10713 10712 10709 ] final  164.63 input   66.30 | X-H torsion
[ 10763 10752 10751 10750 ] final  -64.90 input  -60.55 | X-H torsion
[ 11005 11000 10999 10996 ] final  -84.75 input  -57.11 | X-H torsion

> <Gold.Protein.ActiveResidues>
 VAL166  LYS551  ARG553  GLY616  TRP617  ASP618  TYR619  PRO620  LYS621  CYS622 
 ASP623  PHE694  ASN695  SER759  ASP760  ASP761  ALA762  ILE779  LEU786  VAL792 
 PHE793  MET794  SER795  GLU796  ALA797  LYS798  CYS799  TRP800  GLU811  SER814 

> <Gold.Protein.RotatedAtoms>
  152.3165  133.5808  159.5715 H   0  0  0  0  0  0  0  0  0  0  0  0  # atno 6907 bound_to 6896
  150.7349  134.0075  159.3667 H   0  0  0  0  0  0  0  0  0  0  0  0  # atno 6908 bound_to 6896
  151.7963  135.0722  160.0445 H   0  0  0  0  0  0  0  0  0  0  0  0  # atno 6909 bound_to 6896
  146.1874  140.3972  142.8471 H   0  0  0  0  0  0  0  0  0  0  0  0  # atno 7974 bound_to 7965
  155.7992  140.3477  155.5393 H   0  0  0  0  0  0  0  0  0  0  0  0  # atno 8008 bound_to 7997
  155.8555  140.0963  157.1668 H   0  0  0  0  0  0  0  0  0  0  0  0  # atno 8009 bound_to 7997
  154.4009  140.1368  156.3884 H   0  0  0  0  0  0  0  0  0  0  0  0  # atno 8010 bound_to 7997
  140.4055  143.2645  151.9087 H   0  0  0  0  0  0  0  0  0  0  0  0  # atno 10167 bound_to 10162
  157.0916  131.0419  151.2534 H   0  0  0  0  0  0  0  0  0  0  0  0  # atno 10718 bound_to 10713
  154.3370  135.6164  153.5578 H   0  0  0  0  0  0  0  0  0  0  0  0  # atno 10763 bound_to 10752
  152.9807  135.5760  154.4896 H   0  0  0  0  0  0  0  0  0  0  0  0  # atno 10764 bound_to 10752
  154.4593  135.2855  155.1701 H   0  0  0  0  0  0  0  0  0  0  0  0  # atno 10765 bound_to 10752
  141.1648  133.7362  156.8913 H   0  0  0  0  0  0  0  0  0  0  0  0  # atno 11005 bound_to 11000
  144.8422  140.6875  143.6222 LP  0  0  0  0  0  0  0  0  0  0  0  0  # atno 17320 bound_to 7965
  145.3897  139.1619  143.4236 LP  0  0  0  0  0  0  0  0  0  0  0  0  # atno 17321 bound_to 7965
  139.4783  144.5591  151.8268 LP  0  0  0  0  0  0  0  0  0  0  0  0  # atno 17342 bound_to 10162
  140.4694  144.1608  150.5916 LP  0  0  0  0  0  0  0  0  0  0  0  0  # atno 17343 bound_to 10162
  157.4716  130.7712  149.7329 LP  0  0  0  0  0  0  0  0  0  0  0  0  # atno 17370 bound_to 10713
  155.9896  130.3950  150.3064 LP  0  0  0  0  0  0  0  0  0  0  0  0  # atno 17371 bound_to 10713
  140.1646  134.9142  157.2758 LP  0  0  0  0  0  0  0  0  0  0  0  0  # atno 17394 bound_to 11000
  140.2571  134.3614  155.7420 LP  0  0  0  0  0  0  0  0  0  0  0  0  # atno 17395 bound_to 11000

$$$$
