AV-unprocessed.smi:895|AV-procd|sdf|4075|dock1
  -GOLD-   22720 1563D 1   1.00000     0.00000
 Structure written by MMmdl.
 44 45  0  0  0  0  0  0  0  0  1 V2000
  144.0154  132.8313  151.2158 C   0  0  0  0  0  0  0  0  0  0  0  0
  145.2806  133.7069  151.2934 C   0  0  0  0  0  0  0  0  0  0  0  0
  146.4454  133.0254  150.5558 C   0  0  0  0  0  0  0  0  0  0  0  0
  145.0273  134.9136  150.6007 O   0  0  0  0  0  0  0  0  0  0  0  0
  145.7078  134.0662  152.7373 C   0  0  0  0  0  0  0  0  0  0  0  0
  146.4845  135.3020  152.8205 N   0  0  0  0  0  0  0  0  0  0  0  0
  146.1354  136.3976  153.5088 C   0  0  0  0  0  0  0  0  0  0  0  0
  145.0941  136.5063  154.1566 O   0  0  0  0  0  0  0  0  0  0  0  0
  147.0613  137.3610  153.4093 N   0  0  0  0  0  0  0  0  0  0  0  0
  146.9946  138.6668  154.0631 C   0  0  2  0  0  0  0  0  0  0  0  0
  146.9906  139.7853  153.0018 C   0  0  0  0  0  0  0  0  0  0  0  0
  146.9198  141.1739  153.6552 C   0  0  0  0  0  0  0  0  0  0  0  0
  148.0688  141.3871  154.6521 C   0  0  0  0  0  0  0  0  0  0  0  0
  148.1040  140.2755  155.7175 C   0  0  0  0  0  0  0  0  0  0  0  0
  148.1145  138.8451  155.1287 C   0  0  2  0  0  0  0  0  0  0  0  0
  149.4424  138.4295  154.6720 N   0  0  0  0  0  0  0  0  0  0  0  0
  150.2247  139.0413  153.7124 C   0  0  0  0  0  0  0  0  0  0  0  0
  151.3876  138.3337  153.6110 C   0  0  0  0  0  0  0  0  0  0  0  0
  151.2284  137.2891  154.5622 C   0  0  0  0  0  0  0  0  0  0  0  0
  150.0688  137.3505  155.1942 N   0  0  0  0  0  0  0  0  0  0  0  0
  144.1472  131.9029  151.7725 H   0  0  0  0  0  0  0  0  0  0  0  0
  143.7812  132.5654  150.1845 H   0  0  0  0  0  0  0  0  0  0  0  0
  143.1402  133.3396  151.6216 H   0  0  0  0  0  0  0  0  0  0  0  0
  146.7066  132.0763  151.0251 H   0  0  0  0  0  0  0  0  0  0  0  0
  147.3394  133.6504  150.5585 H   0  0  0  0  0  0  0  0  0  0  0  0
  146.1927  132.8179  149.5150 H   0  0  0  0  0  0  0  0  0  0  0  0
  145.3540  134.8257  149.7184 H   0  0  0  0  0  0  0  0  0  0  0  0
  144.8232  134.1421  153.3723 H   0  0  0  0  0  0  0  0  0  0  0  0
  146.3054  133.2602  153.1649 H   0  0  0  0  0  0  0  0  0  0  0  0
  147.3636  135.3159  152.3245 H   0  0  0  0  0  0  0  0  0  0  0  0
  147.8850  137.1740  152.8562 H   0  0  0  0  0  0  0  0  0  0  0  0
  146.0356  138.7285  154.5817 H   0  0  0  0  0  0  0  0  0  0  0  0
  147.8753  139.7213  152.3685 H   0  0  0  0  0  0  0  0  0  0  0  0
  146.1364  139.6573  152.3359 H   0  0  0  0  0  0  0  0  0  0  0  0
  146.9468  141.9473  152.8870 H   0  0  0  0  0  0  0  0  0  0  0  0
  145.9653  141.2850  154.1710 H   0  0  0  0  0  0  0  0  0  0  0  0
  149.0167  141.4343  154.1173 H   0  0  0  0  0  0  0  0  0  0  0  0
  147.9545  142.3555  155.1399 H   0  0  0  0  0  0  0  0  0  0  0  0
  148.9601  140.4172  156.3782 H   0  0  0  0  0  0  0  0  0  0  0  0
  147.2207  140.3810  156.3486 H   0  0  0  0  0  0  0  0  0  0  0  0
  147.8717  138.1775  155.9571 H   0  0  0  0  0  0  0  0  0  0  0  0
  149.8927  139.9248  153.1867 H   0  0  0  0  0  0  0  0  0  0  0  0
  152.2244  138.5331  152.9582 H   0  0  0  0  0  0  0  0  0  0  0  0
  151.9163  136.4948  154.8121 H   0  0  0  0  0  0  0  0  0  0  0  0
  1  2  1  0  0  0  0
  1 21  1  0  0  0  0
  1 22  1  0  0  0  0
  1 23  1  0  0  0  0
  2  3  1  0  0  0  0
  2  4  1  0  0  0  0
  2  5  1  0  0  0  0
  3 24  1  0  0  0  0
  3 25  1  0  0  0  0
  3 26  1  0  0  0  0
  4 27  1  0  0  0  0
  5  6  1  0  0  0  0
  5 28  1  0  0  0  0
  5 29  1  0  0  0  0
  6  7  1  0  0  0  0
  6 30  1  0  0  0  0
  7  8  2  0  0  0  0
  7  9  1  0  0  0  0
  9 10  1  0  0  0  0
  9 31  1  0  0  0  0
 10 15  1  0  0  0  0
 10 11  1  0  0  0  0
 10 32  1  0  0  0  0
 11 12  1  0  0  0  0
 11 33  1  0  0  0  0
 11 34  1  0  0  0  0
 12 13  1  0  0  0  0
 12 35  1  0  0  0  0
 12 36  1  0  0  0  0
 13 14  1  0  0  0  0
 13 37  1  0  0  0  0
 13 38  1  0  0  0  0
 14 15  1  0  0  0  0
 14 39  1  0  0  0  0
 14 40  1  0  0  0  0
 15 16  1  0  0  0  0
 15 41  1  0  0  0  0
 16 20  1  0  0  0  0
 16 17  1  0  0  0  0
 17 18  2  0  0  0  0
 17 42  1  0  0  0  0
 18 19  1  0  0  0  0
 18 43  1  0  0  0  0
 19 20  2  0  0  0  0
 19 44  1  0  0  0  0
M  END
> <s_m_source_file>
AV-unprocessed.smi

> <i_m_source_file_index>
895

> <i_lp_mmshare_version>
43012

> <i_f3d_flags>
0

> <s_epik_input>
W0NIM11DKFtDSDNdKShbT0hdKVtDSDJdW05IXUMoPU8pW05IXVtDQEBIXTFbQ0gyXVtDSDJdW0NIMl1bQ0gyXVtDQEhdMW4yW2NIXVtjSF1bY0hdbjI=

> <s_epik_cmdline>
J2VwaWtfcHl0aG9uJywgJy1waCcsICc3LjAnLCAnLXRuJywgJzgnLCAnLW1hJywgJzIwMCcsICctbWV0YWxfYmluZGluZycsICctaW1hZScsICc8aW5maWxlLm1hZT4nLCAnLW9tYWUnLCAnPG91dGZpbGUubWFlPic=

> <r_lp_tautomer_probability>
1

> <r_epik_Ionization_Penalty>
0.000440451

> <r_epik_Ionization_Penalty_Charging>
0

> <r_epik_Ionization_Penalty_Neutral>
0.000440451

> <r_epik_State_Penalty>
-0

> <r_epik_Charging_Adjusted_Penalty>
0

> <i_epik_Tot_Q>
0

> <i_epik_Tot_abs_Q>
0

> <r_epik_Metal_State_Penalty>
-0

> <b_epik_Metal_Only>
0

> <s_lp_Force_Field>
OPLS_2005

> <r_lp_Energy>
14.0773

> <b_lp_Chiralities_Consistent>
1

> <s_lp_Variant>
AV-unprocessed.smi:895-3

> <Gold.Version>
5.8.1

> <Gold.Id.Protein>
6NUR|6NUR_protein|mol2

> <Gold.PLP.Fitness>
41.8877

> <Gold.PLP.PLP>
-30.7273

> <Gold.PLP.part.hbond>
-3.0000

> <Gold.PLP.part.metal>
0.0000

> <Gold.PLP.part.buried>
-4.1659

> <Gold.PLP.part.nonpolar>
-23.7590

> <Gold.PLP.part.repulsive>
0.1905

> <Gold.PLP.ligand.clash>
0.0000

> <Gold.PLP.ligand.torsion>
0.4711

> <Gold.PLP.Chemscore.Hbond>
3.0000

> <Gold.PLP.Chemscore.CHOScore>
1.0000

> <Gold.PLP.Chemscore.Metal>
0.0000

> <Gold.Chemscore.Hbonds>
donor molecule, donor type, donor heavy atom, donor atom, acceptor molecule, acceptor atom, score
      L1  H     4    27       P1  7921  0.52
      L1  H     6    30       P1  7948  1.00
      L1  H     9    31       P1  7948  1.00
      L1  C    17    42       P1  7957  0.89

> <Gold.PLP.Chemscore.Internal.Correction>
0.1026

> <Gold.Rescore>
     Score         DG    S(hbond)    S(metal)    S(lipo)     H(rot)  DE(clash)    DE(int)     intcor
     18.06     -18.96       2.87        0.00      81.17       2.19       0.45       0.45       ----

> <Gold.Chemscore.Fitness>
18.0637

> <Gold.Chemscore.DG>
-18.9629

> <Gold.Chemscore.ZeroCoef>
-5.4800

> <Gold.Chemscore.Hbond>
2.8735

> <Gold.Chemscore.Metal>
0.0000

> <Gold.Chemscore.Lipo>
81.1678

> <Gold.Chemscore.Internal_Hbond>
0.0000

> <Gold.Chemscore.DEClash>
0.4529

> <Gold.Chemscore.DEInternal>
0.4463

> <Gold.Chemscore.Rot>
2.1919

> <Gold.Chemscore.Internal.Correction>
   9.000000E+99

> <Gold.Chemscore.Hbonds>
donor molecule, donor type, donor heavy atom, donor atom, acceptor molecule, acceptor atom, score
      L1  H     4    27       P1  7921  0.52
      L1  H     6    30       P1  7948  0.95
      L1  H     9    31       P1  7948  0.99

> <Gold.Chemscore.Hbond.Weighted>
-9.5976

> <Gold.Chemscore.Metal.Weighted>
-0.0000

> <Gold.Chemscore.Lipo.Weighted>
-9.4966

> <Gold.Chemscore.Internal_Hbond.Weighted>
0.0000

> <Gold.Chemscore.DEClash.Weighted>
0.4529

> <Gold.Chemscore.DEInternal.Weighted>
0.4463

> <Gold.Chemscore.Rot.Weighted>
5.6113

> <Gold.Chemscore.Internal.Correction.Weighted>
   9.000000E+99

> <Gold.Protein.RotatedTorsions>
[ 6907 6896 6895 6894 ] final  -22.45 input  -60.11 | X-H torsion
[ 7974 7965 7964 7962 ] final  -51.40 input  175.53 | X-H torsion
[ 8008 7997 7996 7995 ] final -160.31 input   59.86 | X-H torsion
[ 10167 10162 10161 10158 ] final  -19.51 input  -65.29 | X-H torsion
[ 10718 10713 10712 10709 ] final   30.17 input   66.30 | X-H torsion
[ 10763 10752 10751 10750 ] final  -35.98 input  -60.55 | X-H torsion
[ 11005 11000 10999 10996 ] final -140.34 input  -57.11 | X-H torsion

> <Gold.Protein.ActiveResidues>
 VAL166  LYS551  ARG553  GLY616  TRP617  ASP618  TYR619  PRO620  LYS621  CYS622 
 ASP623  PHE694  ASN695  SER759  ASP760  ASP761  ALA762  ILE779  LEU786  VAL792 
 PHE793  MET794  SER795  GLU796  ALA797  LYS798  CYS799  TRP800  GLU811  SER814 

> <Gold.Protein.RotatedAtoms>
  151.2184  135.0509  159.8939 H   0  0  0  0  0  0  0  0  0  0  0  0  # atno 6907 bound_to 6896
  152.5418  134.0668  159.8186 H   0  0  0  0  0  0  0  0  0  0  0  0  # atno 6908 bound_to 6896
  151.0831  133.5326  159.2651 H   0  0  0  0  0  0  0  0  0  0  0  0  # atno 6909 bound_to 6896
  145.9194  140.7847  142.9655 H   0  0  0  0  0  0  0  0  0  0  0  0  # atno 7974 bound_to 7965
  155.7756  140.0858  157.2086 H   0  0  0  0  0  0  0  0  0  0  0  0  # atno 8008 bound_to 7997
  154.3993  140.1517  156.3049 H   0  0  0  0  0  0  0  0  0  0  0  0  # atno 8009 bound_to 7997
  155.8704  140.3426  155.5820 H   0  0  0  0  0  0  0  0  0  0  0  0  # atno 8010 bound_to 7997
  140.7269  143.4812  151.0115 H   0  0  0  0  0  0  0  0  0  0  0  0  # atno 10167 bound_to 10162
  157.2561  130.7138  149.6430 H   0  0  0  0  0  0  0  0  0  0  0  0  # atno 10718 bound_to 10713
  153.8722  135.6830  153.4773 H   0  0  0  0  0  0  0  0  0  0  0  0  # atno 10763 bound_to 10752
  153.1281  135.4710  154.9302 H   0  0  0  0  0  0  0  0  0  0  0  0  # atno 10764 bound_to 10752
  154.7709  135.3238  154.8143 H   0  0  0  0  0  0  0  0  0  0  0  0  # atno 10765 bound_to 10752
  140.8432  134.2377  157.4799 H   0  0  0  0  0  0  0  0  0  0  0  0  # atno 11005 bound_to 11000
  144.6751  140.1951  143.7392 LP  0  0  0  0  0  0  0  0  0  0  0  0  # atno 17320 bound_to 7965
  145.8569  139.2203  143.1739 LP  0  0  0  0  0  0  0  0  0  0  0  0  # atno 17321 bound_to 7965
  139.8511  143.7437  152.3178 LP  0  0  0  0  0  0  0  0  0  0  0  0  # atno 17342 bound_to 10162
  139.7620  144.7503  151.0350 LP  0  0  0  0  0  0  0  0  0  0  0  0  # atno 17343 bound_to 10162
  155.9665  130.4412  150.5331 LP  0  0  0  0  0  0  0  0  0  0  0  0  # atno 17370 bound_to 10713
  157.3225  131.0684  151.1921 LP  0  0  0  0  0  0  0  0  0  0  0  0  # atno 17371 bound_to 10713
  139.8703  134.9646  156.4500 LP  0  0  0  0  0  0  0  0  0  0  0  0  # atno 17394 bound_to 11000
  140.8872  133.7874  155.9532 LP  0  0  0  0  0  0  0  0  0  0  0  0  # atno 17395 bound_to 11000

$$$$
