AV-unprocessed.smi:1882|AV-procd|sdf|7641|dock9
  -GOLD-   22720 9373D 1   1.00000     0.00000
 Structure written by MMmdl.
 25 26  0  0  0  0  0  0  0  0  1 V2000
  152.7695  143.2294  161.1039 C   0  0  0  0  0  0  0  0  0  0  0  0
  152.1245  143.0365  159.7744 C   0  0  0  0  0  0  0  0  0  0  0  0
  151.4474  141.9369  159.4345 N   0  0  0  0  0  0  0  0  0  0  0  0
  150.9387  141.9959  158.1328 C   0  0  0  0  0  0  0  0  0  0  0  0
  150.1473  140.8433  157.5859 C   0  0  0  0  0  0  0  0  0  0  0  0
  149.9320  141.0155  156.0814 C   0  0  0  0  0  0  0  0  0  0  0  0
  150.8151  140.6812  155.2914 O   0  0  0  0  0  0  0  0  0  0  0  0
  148.7554  141.5377  155.7029 N   0  0  0  0  0  0  0  0  0  0  0  0
  148.3539  141.7890  154.3568 C   0  0  0  0  0  0  0  0  0  0  0  0
  146.9872  142.4006  154.1351 C   0  0  0  0  0  0  0  0  0  0  0  0
  147.2235  140.9554  153.7931 C   0  0  0  0  0  0  0  0  0  0  0  0
  151.2376  143.1729  157.4905 C   0  0  0  0  0  0  0  0  0  0  0  0
  152.1787  144.2416  158.4943 S   0  0  0  0  0  0  0  0  0  0  0  0
  152.6238  142.3505  161.7330 H   0  0  0  0  0  0  0  0  0  0  0  0
  152.3362  144.0944  161.6060 H   0  0  0  0  0  0  0  0  0  0  0  0
  153.8394  143.3955  160.9782 H   0  0  0  0  0  0  0  0  0  0  0  0
  150.6623  139.8979  157.7630 H   0  0  0  0  0  0  0  0  0  0  0  0
  149.1840  140.7652  158.0917 H   0  0  0  0  0  0  0  0  0  0  0  0
  148.0933  141.7797  156.4256 H   0  0  0  0  0  0  0  0  0  0  0  0
  149.1287  142.0845  153.6504 H   0  0  0  0  0  0  0  0  0  0  0  0
  146.3765  142.6160  155.0099 H   0  0  0  0  0  0  0  0  0  0  0  0
  146.8789  143.1005  153.3090 H   0  0  0  0  0  0  0  0  0  0  0  0
  147.2746  140.6899  152.7389 H   0  0  0  0  0  0  0  0  0  0  0  0
  146.7701  140.2065  154.4397 H   0  0  0  0  0  0  0  0  0  0  0  0
  150.9660  143.4731  156.4895 H   0  0  0  0  0  0  0  0  0  0  0  0
  1  2  1  0  0  0  0
  1 14  1  0  0  0  0
  1 15  1  0  0  0  0
  1 16  1  0  0  0  0
  2 13  1  0  0  0  0
  2  3  2  0  0  0  0
  3  4  1  0  0  0  0
  4  5  1  0  0  0  0
  4 12  2  0  0  0  0
  5  6  1  0  0  0  0
  5 17  1  0  0  0  0
  5 18  1  0  0  0  0
  6  7  2  0  0  0  0
  6  8  1  0  0  0  0
  8  9  1  0  0  0  0
  8 19  1  0  0  0  0
  9 11  1  0  0  0  0
  9 10  1  0  0  0  0
  9 20  1  0  0  0  0
 10 11  1  0  0  0  0
 10 21  1  0  0  0  0
 10 22  1  0  0  0  0
 11 23  1  0  0  0  0
 11 24  1  0  0  0  0
 12 13  1  0  0  0  0
 12 25  1  0  0  0  0
M  END
> <s_m_source_file>
AV-unprocessed.smi

> <i_m_source_file_index>
1882

> <i_lp_mmshare_version>
43012

> <i_f3d_flags>
0

> <s_epik_input>
W0NIM11jMW5jKFtjSF1zMSlbQ0gyXUMoPU8pW05IXVtDSF0yW0NIMl1bQ0gyXTI=

> <s_epik_cmdline>
J2VwaWtfcHl0aG9uJywgJy1waCcsICc3LjAnLCAnLXRuJywgJzgnLCAnLW1hJywgJzIwMCcsICctbWV0YWxfYmluZGluZycsICctaW1hZScsICc8aW5maWxlLm1hZT4nLCAnLW9tYWUnLCAnPG91dGZpbGUubWFlPic=

> <r_lp_tautomer_probability>
1

> <r_epik_Ionization_Penalty>
5.52242e-05

> <r_epik_Ionization_Penalty_Charging>
0

> <r_epik_Ionization_Penalty_Neutral>
5.52242e-05

> <r_epik_State_Penalty>
-0

> <r_epik_Charging_Adjusted_Penalty>
0

> <i_epik_Tot_Q>
0

> <i_epik_Tot_abs_Q>
0

> <r_epik_Metal_State_Penalty>
-0

> <b_epik_Metal_Only>
0

> <s_lp_Force_Field>
OPLS_2005

> <r_lp_Energy>
14.0294

> <b_lp_Chiralities_Consistent>
1

> <s_lp_Variant>
AV-unprocessed.smi:1882-1

> <Gold.Version>
5.8.1

> <Gold.Id.Protein>
6NUR|6NUR_protein|mol2

> <Gold.PLP.Fitness>
36.3211

> <Gold.PLP.PLP>
-31.5446

> <Gold.PLP.part.hbond>
-1.5863

> <Gold.PLP.part.metal>
0.0000

> <Gold.PLP.part.buried>
-3.9862

> <Gold.PLP.part.nonpolar>
-26.8219

> <Gold.PLP.part.repulsive>
0.1306

> <Gold.PLP.ligand.clash>
0.0000

> <Gold.PLP.ligand.torsion>
0.4592

> <Gold.PLP.Chemscore.Hbond>
0.8960

> <Gold.PLP.Chemscore.CHOScore>
0.9907

> <Gold.PLP.Chemscore.Metal>
0.0000

> <Gold.Chemscore.Hbonds>
donor molecule, donor type, donor heavy atom, donor atom, acceptor molecule, acceptor atom, score
      P1  H  7989  7998       L1     7  0.88
      L1  C    12    25       P1  8028  0.95

> <Gold.PLP.Chemscore.Internal.Correction>
0.0349

> <Gold.Rescore>
     Score         DG    S(hbond)    S(metal)    S(lipo)     H(rot)  DE(clash)    DE(int)     intcor
     14.31     -14.87       0.94        0.00      82.99       1.36       0.12       0.44       ----

> <Gold.Chemscore.Fitness>
14.3089

> <Gold.Chemscore.DG>
-14.8704

> <Gold.Chemscore.ZeroCoef>
-5.4800

> <Gold.Chemscore.Hbond>
0.9443

> <Gold.Chemscore.Metal>
0.0000

> <Gold.Chemscore.Lipo>
82.9947

> <Gold.Chemscore.Internal_Hbond>
0.0000

> <Gold.Chemscore.DEClash>
0.1217

> <Gold.Chemscore.DEInternal>
0.4399

> <Gold.Chemscore.Rot>
1.3570

> <Gold.Chemscore.Internal.Correction>
   9.000000E+99

> <Gold.Chemscore.Hbonds>
donor molecule, donor type, donor heavy atom, donor atom, acceptor molecule, acceptor atom, score
      P1  H  7989  7998       L1     7  0.85

> <Gold.Chemscore.Hbond.Weighted>
-3.1540

> <Gold.Chemscore.Metal.Weighted>
-0.0000

> <Gold.Chemscore.Lipo.Weighted>
-9.7104

> <Gold.Chemscore.Internal_Hbond.Weighted>
0.0000

> <Gold.Chemscore.DEClash.Weighted>
0.1217

> <Gold.Chemscore.DEInternal.Weighted>
0.4399

> <Gold.Chemscore.Rot.Weighted>
3.4740

> <Gold.Chemscore.Internal.Correction.Weighted>
   9.000000E+99

> <Gold.Protein.RotatedTorsions>
[ 6907 6896 6895 6894 ] final  150.04 input  -60.11 | X-H torsion
[ 7974 7965 7964 7962 ] final  161.61 input  175.53 | X-H torsion
[ 8008 7997 7996 7995 ] final -156.49 input   59.86 | X-H torsion
[ 10167 10162 10161 10158 ] final  149.71 input  -65.29 | X-H torsion
[ 10718 10713 10712 10709 ] final   73.38 input   66.30 | X-H torsion
[ 10763 10752 10751 10750 ] final -126.73 input  -60.55 | X-H torsion
[ 11005 11000 10999 10996 ] final   29.60 input  -57.11 | X-H torsion

> <Gold.Protein.ActiveResidues>
 VAL166  LYS551  ARG553  GLY616  TRP617  ASP618  TYR619  PRO620  LYS621  CYS622 
 ASP623  PHE694  ASN695  SER759  ASP760  ASP761  ALA762  ILE779  LEU786  VAL792 
 PHE793  MET794  SER795  GLU796  ALA797  LYS798  CYS799  TRP800  GLU811  SER814 

> <Gold.Protein.RotatedAtoms>
  152.1198  133.4347  159.4669 H   0  0  0  0  0  0  0  0  0  0  0  0  # atno 6907 bound_to 6896
  150.6871  134.2548  159.4534 H   0  0  0  0  0  0  0  0  0  0  0  0  # atno 6908 bound_to 6896
  152.0424  134.9703  160.0624 H   0  0  0  0  0  0  0  0  0  0  0  0  # atno 6909 bound_to 6896
  144.7677  139.7923  143.6309 H   0  0  0  0  0  0  0  0  0  0  0  0  # atno 7974 bound_to 7965
  155.7180  140.0786  157.2343 H   0  0  0  0  0  0  0  0  0  0  0  0  # atno 8008 bound_to 7997
  154.4049  140.1618  156.2424 H   0  0  0  0  0  0  0  0  0  0  0  0  # atno 8009 bound_to 7997
  155.9223  140.3397  155.6185 H   0  0  0  0  0  0  0  0  0  0  0  0  # atno 8010 bound_to 7997
  139.4858  144.5580  151.7282 H   0  0  0  0  0  0  0  0  0  0  0  0  # atno 10167 bound_to 10162
  157.6545  130.9626  150.1062 H   0  0  0  0  0  0  0  0  0  0  0  0  # atno 10718 bound_to 10713
  154.8748  135.3986  154.3478 H   0  0  0  0  0  0  0  0  0  0  0  0  # atno 10763 bound_to 10752
  153.4268  135.7024  153.6262 H   0  0  0  0  0  0  0  0  0  0  0  0  # atno 10764 bound_to 10752
  153.4901  135.3750  155.2457 H   0  0  0  0  0  0  0  0  0  0  0  0  # atno 10765 bound_to 10752
  140.3032  134.2733  155.7749 H   0  0  0  0  0  0  0  0  0  0  0  0  # atno 11005 bound_to 11000
  146.1798  139.4985  142.9874 LP  0  0  0  0  0  0  0  0  0  0  0  0  # atno 17320 bound_to 7965
  145.6419  141.0282  143.1807 LP  0  0  0  0  0  0  0  0  0  0  0  0  # atno 17321 bound_to 7965
  140.5145  144.0974  150.6004 LP  0  0  0  0  0  0  0  0  0  0  0  0  # atno 17342 bound_to 10162
  140.3911  143.2752  152.0059 LP  0  0  0  0  0  0  0  0  0  0  0  0  # atno 17343 bound_to 10162
  156.1971  130.3658  149.8836 LP  0  0  0  0  0  0  0  0  0  0  0  0  # atno 17370 bound_to 10713
  156.6749  130.8835  151.3567 LP  0  0  0  0  0  0  0  0  0  0  0  0  # atno 17371 bound_to 10713
  141.2124  133.7660  156.9798 LP  0  0  0  0  0  0  0  0  0  0  0  0  # atno 17394 bound_to 11000
  140.1090  134.9488  157.2037 LP  0  0  0  0  0  0  0  0  0  0  0  0  # atno 17395 bound_to 11000

$$$$
