AV-unprocessed.smi:3031|AV-procd|sdf|11543|dock7
  -GOLD-   2272016493D 1   1.00000     0.00000
 Structure written by MMmdl.
 47 48  0  0  0  0  0  0  0  0  2 V2000
  144.5722  131.0330  151.9649 C   0  0  0  0  0  0  0  0  0  0  0  0
  145.1847  132.3887  151.7619 C   0  0  0  0  0  0  0  0  0  0  0  0
  146.5656  132.7187  151.6533 C   0  0  0  0  0  0  0  0  0  0  0  0
  146.7723  134.0144  151.4816 N   0  0  0  0  0  0  0  0  0  0  0  0
  145.5349  134.5548  151.4700 N   0  0  0  0  0  0  0  0  0  0  0  0
  145.3711  135.9884  151.3065 C   0  0  0  0  0  0  0  0  0  0  0  0
  145.2841  136.7236  152.6585 C   0  0  2  0  0  0  0  0  0  0  0  0
  144.0565  136.2567  153.4576 C   0  0  0  0  0  0  0  0  0  0  0  0
  145.2470  138.1876  152.4404 N   0  3  0  0  0  0  0  0  0  0  0  0
  146.5087  138.7940  151.9674 C   0  0  0  0  0  0  0  0  0  0  0  0
  147.3216  139.3535  153.1469 C   0  0  1  0  0  0  0  0  0  0  0  0
  148.6972  139.0999  152.9414 O   0  0  0  0  0  0  0  0  0  0  0  0
  147.1239  140.8530  153.4702 C   0  0  0  0  0  0  0  0  0  0  0  0
  147.1057  141.2331  154.8875 N   0  0  0  0  0  0  0  0  0  0  0  0
  146.5825  142.5868  155.0548 C   0  0  0  0  0  0  0  0  0  0  0  0
  146.5387  143.0127  156.5326 C   0  0  0  0  0  0  0  0  0  0  0  0
  147.8428  142.9149  157.0940 O   0  0  0  0  0  0  0  0  0  0  0  0
  148.3861  141.6035  156.9899 C   0  0  0  0  0  0  0  0  0  0  0  0
  148.4286  141.1783  155.5115 C   0  0  0  0  0  0  0  0  0  0  0  0
  144.5584  133.5964  151.6372 C   0  0  0  0  0  0  0  0  0  0  0  0
  145.3120  130.2365  151.8811 H   0  0  0  0  0  0  0  0  0  0  0  0
  143.7955  130.8280  151.2279 H   0  0  0  0  0  0  0  0  0  0  0  0
  144.1140  130.9427  152.9498 H   0  0  0  0  0  0  0  0  0  0  0  0
  147.4192  132.0582  151.6964 H   0  0  0  0  0  0  0  0  0  0  0  0
  146.1940  136.3756  150.7032 H   0  0  0  0  0  0  0  0  0  0  0  0
  144.4603  136.1548  150.7299 H   0  0  0  0  0  0  0  0  0  0  0  0
  146.1810  136.4792  153.2300 H   0  0  0  0  0  0  0  0  0  0  0  0
  144.0723  135.1757  153.6009 H   0  0  0  0  0  0  0  0  0  0  0  0
  143.1287  136.5080  152.9425 H   0  0  0  0  0  0  0  0  0  0  0  0
  144.0216  136.7098  154.4482 H   0  0  0  0  0  0  0  0  0  0  0  0
  144.5453  138.3692  151.7360 H   0  0  0  0  0  0  0  0  0  0  0  0
  147.0864  138.0467  151.4250 H   0  0  0  0  0  0  0  0  0  0  0  0
  146.2675  139.5996  151.2727 H   0  0  0  0  0  0  0  0  0  0  0  0
  147.0299  138.8050  154.0437 H   0  0  0  0  0  0  0  0  0  0  0  0
  148.9102  139.3017  152.0426 H   0  0  0  0  0  0  0  0  0  0  0  0
  147.8670  141.4485  152.9381 H   0  0  0  0  0  0  0  0  0  0  0  0
  146.1687  141.1315  153.0221 H   0  0  0  0  0  0  0  0  0  0  0  0
  147.1952  143.2938  154.4930 H   0  0  0  0  0  0  0  0  0  0  0  0
  145.5761  142.6489  154.6393 H   0  0  0  0  0  0  0  0  0  0  0  0
  146.1878  144.0410  156.6217 H   0  0  0  0  0  0  0  0  0  0  0  0
  145.8444  142.3861  157.0953 H   0  0  0  0  0  0  0  0  0  0  0  0
  149.3898  141.5994  157.4150 H   0  0  0  0  0  0  0  0  0  0  0  0
  147.7865  140.9050  157.5760 H   0  0  0  0  0  0  0  0  0  0  0  0
  148.8482  140.1783  155.4557 H   0  0  0  0  0  0  0  0  0  0  0  0
  149.1179  141.8313  154.9736 H   0  0  0  0  0  0  0  0  0  0  0  0
  143.5085  133.8504  151.6553 H   0  0  0  0  0  0  0  0  0  0  0  0
  144.9611  138.6429  153.2957 H   0  0  0  0  0  0  0  0  0  0  0  0
  1  2  1  0  0  0  0
  1 21  1  0  0  0  0
  1 22  1  0  0  0  0
  1 23  1  0  0  0  0
  2 20  2  0  0  0  0
  2  3  1  0  0  0  0
  3  4  2  0  0  0  0
  3 24  1  0  0  0  0
  4  5  1  0  0  0  0
  5  6  1  0  0  0  0
  5 20  1  0  0  0  0
  6  7  1  0  0  0  0
  6 25  1  0  0  0  0
  6 26  1  0  0  0  0
  7  8  1  0  0  0  0
  7  9  1  0  0  0  0
  7 27  1  0  0  0  0
  8 28  1  0  0  0  0
  8 29  1  0  0  0  0
  8 30  1  0  0  0  0
  9 10  1  0  0  0  0
  9 31  1  0  0  0  0
  9 47  1  0  0  0  0
 10 11  1  0  0  0  0
 10 32  1  0  0  0  0
 10 33  1  0  0  0  0
 11 12  1  0  0  0  0
 11 13  1  0  0  0  0
 11 34  1  0  0  0  0
 12 35  1  0  0  0  0
 13 14  1  0  0  0  0
 13 36  1  0  0  0  0
 13 37  1  0  0  0  0
 14 19  1  0  0  0  0
 14 15  1  0  0  0  0
 15 16  1  0  0  0  0
 15 38  1  0  0  0  0
 15 39  1  0  0  0  0
 16 17  1  0  0  0  0
 16 40  1  0  0  0  0
 16 41  1  0  0  0  0
 17 18  1  0  0  0  0
 18 19  1  0  0  0  0
 18 42  1  0  0  0  0
 18 43  1  0  0  0  0
 19 44  1  0  0  0  0
 19 45  1  0  0  0  0
 20 46  1  0  0  0  0
M  CHG  1   9   1
M  END
> <s_m_source_file>
AV-unprocessed.smi

> <i_m_source_file_index>
3031

> <i_lp_mmshare_version>
43012

> <i_f3d_flags>
0

> <s_epik_input>
W0NIM11jMVtjSF1ubihbY0hdMSlbQ0gyXVtDQEhdKFtDSDNdKVtOSF1bQ0gyXVtDQEhdKFtPSF0pW0NIMl1OMltDSDJdW0NIMl1PW0NIMl1bQ0gyXTI=

> <s_epik_cmdline>
J2VwaWtfcHl0aG9uJywgJy1waCcsICc3LjAnLCAnLXRuJywgJzgnLCAnLW1hJywgJzIwMCcsICctbWV0YWxfYmluZGluZycsICctaW1hZScsICc8aW5maWxlLm1hZT4nLCAnLW9tYWUnLCAnPG91dGZpbGUubWFlPic=

> <r_lp_tautomer_probability>
1

> <r_epik_Ionization_Penalty>
0.108564

> <r_epik_Ionization_Penalty_Charging>
0.01811

> <r_epik_Ionization_Penalty_Neutral>
0.0904541

> <r_epik_State_Penalty>
0.141043

> <r_epik_Charging_Adjusted_Penalty>
0.159153

> <i_epik_Tot_Q>
1

> <i_epik_Tot_abs_Q>
1

> <r_epik_Metal_State_Penalty>
0.141052

> <b_epik_Metal_Only>
0

> <s_lp_Force_Field>
OPLS_2005

> <r_lp_Energy>
34.8443

> <b_lp_Chiralities_Consistent>
1

> <s_lp_Variant>
AV-unprocessed.smi:3031-3

> <Gold.Version>
5.8.1

> <Gold.Id.Protein>
6NUR|6NUR_protein|mol2

> <Gold.PLP.Fitness>
46.8475

> <Gold.PLP.PLP>
-35.7355

> <Gold.PLP.part.hbond>
-3.9190

> <Gold.PLP.part.metal>
0.0000

> <Gold.PLP.part.buried>
-0.3133

> <Gold.PLP.part.nonpolar>
-31.9488

> <Gold.PLP.part.repulsive>
0.5546

> <Gold.PLP.ligand.clash>
0.0000

> <Gold.PLP.ligand.torsion>
1.7655

> <Gold.PLP.Chemscore.Hbond>
2.9833

> <Gold.PLP.Chemscore.CHOScore>
1.8702

> <Gold.PLP.Chemscore.Metal>
0.0000

> <Gold.Chemscore.Hbonds>
donor molecule, donor type, donor heavy atom, donor atom, acceptor molecule, acceptor atom, score
      L1  H     9    31       P1 10171  0.98
      L1  H     9    47       P1 10175  0.01
      L1  H    12    35       P1  7957  0.50
      L1  C     3    24       P1 10747  1.00

> <Gold.PLP.Chemscore.Internal.Correction>
0.0824

> <Gold.Rescore>
     Score         DG    S(hbond)    S(metal)    S(lipo)     H(rot)  DE(clash)    DE(int)     intcor
     16.33     -17.50       2.76        0.00      81.49       2.63       0.07       1.10       ----

> <Gold.Chemscore.Fitness>
16.3307

> <Gold.Chemscore.DG>
-17.4972

> <Gold.Chemscore.ZeroCoef>
-5.4800

> <Gold.Chemscore.Hbond>
2.7570

> <Gold.Chemscore.Metal>
0.0000

> <Gold.Chemscore.Lipo>
81.4877

> <Gold.Chemscore.Internal_Hbond>
0.0000

> <Gold.Chemscore.DEClash>
0.0680

> <Gold.Chemscore.DEInternal>
1.0985

> <Gold.Chemscore.Rot>
2.6270

> <Gold.Chemscore.Internal.Correction>
   9.000000E+99

> <Gold.Chemscore.Hbonds>
donor molecule, donor type, donor heavy atom, donor atom, acceptor molecule, acceptor atom, score
      L1  H     9    31       P1 10171  0.89
      L1  H     9    47       P1 10175  0.01
      L1  H    12    35       P1  7957  0.47

> <Gold.Chemscore.Hbond.Weighted>
-9.2082

> <Gold.Chemscore.Metal.Weighted>
-0.0000

> <Gold.Chemscore.Lipo.Weighted>
-9.5341

> <Gold.Chemscore.Internal_Hbond.Weighted>
0.0000

> <Gold.Chemscore.DEClash.Weighted>
0.0680

> <Gold.Chemscore.DEInternal.Weighted>
1.0985

> <Gold.Chemscore.Rot.Weighted>
6.7251

> <Gold.Chemscore.Internal.Correction.Weighted>
   9.000000E+99

> <Gold.Protein.RotatedTorsions>
[ 6907 6896 6895 6894 ] final  127.02 input  -60.11 | X-H torsion
[ 7974 7965 7964 7962 ] final   54.60 input  175.53 | X-H torsion
[ 8008 7997 7996 7995 ] final  -37.17 input   59.86 | X-H torsion
[ 10167 10162 10161 10158 ] final  103.39 input  -65.29 | X-H torsion
[ 10718 10713 10712 10709 ] final -140.94 input   66.30 | X-H torsion
[ 10763 10752 10751 10750 ] final -168.50 input  -60.55 | X-H torsion
[ 11005 11000 10999 10996 ] final   50.12 input  -57.11 | X-H torsion

> <Gold.Protein.ActiveResidues>
 VAL166  LYS551  ARG553  GLY616  TRP617  ASP618  TYR619  PRO620  LYS621  CYS622 
 ASP623  PHE694  ASN695  SER759  ASP760  ASP761  ALA762  ILE779  LEU786  VAL792 
 PHE793  MET794  SER795  GLU796  ALA797  LYS798  CYS799  TRP800  GLU811  SER814 

> <Gold.Protein.RotatedAtoms>
  152.3851  133.6599  159.6191 H   0  0  0  0  0  0  0  0  0  0  0  0  # atno 6907 bound_to 6896
  150.7772  133.9049  159.3361 H   0  0  0  0  0  0  0  0  0  0  0  0  # atno 6908 bound_to 6896
  151.6848  135.0957  160.0274 H   0  0  0  0  0  0  0  0  0  0  0  0  # atno 6909 bound_to 6896
  145.9591  139.4042  143.0259 H   0  0  0  0  0  0  0  0  0  0  0  0  # atno 7974 bound_to 7965
  154.4058  140.1611  156.2494 H   0  0  0  0  0  0  0  0  0  0  0  0  # atno 8008 bound_to 7997
  155.9132  140.3426  155.6092 H   0  0  0  0  0  0  0  0  0  0  0  0  # atno 8009 bound_to 7997
  155.7310  140.0780  157.2279 H   0  0  0  0  0  0  0  0  0  0  0  0  # atno 8010 bound_to 7997
  139.7267  144.7045  151.0786 H   0  0  0  0  0  0  0  0  0  0  0  0  # atno 10167 bound_to 10162
  156.3282  130.7571  151.1684 H   0  0  0  0  0  0  0  0  0  0  0  0  # atno 10718 bound_to 10713
  154.6622  135.2926  154.9852 H   0  0  0  0  0  0  0  0  0  0  0  0  # atno 10763 bound_to 10752
  154.0908  135.6591  153.4856 H   0  0  0  0  0  0  0  0  0  0  0  0  # atno 10764 bound_to 10752
  153.0436  135.5219  154.7578 H   0  0  0  0  0  0  0  0  0  0  0  0  # atno 10765 bound_to 10752
  140.1045  134.5037  155.8732 H   0  0  0  0  0  0  0  0  0  0  0  0  # atno 11005 bound_to 11000
  145.8064  140.9746  143.0971 LP  0  0  0  0  0  0  0  0  0  0  0  0  # atno 17320 bound_to 7965
  144.6811  139.9866  143.7484 LP  0  0  0  0  0  0  0  0  0  0  0  0  # atno 17321 bound_to 7965
  140.7764  143.5095  150.9670 LP  0  0  0  0  0  0  0  0  0  0  0  0  # atno 17342 bound_to 10162
  139.8783  143.7104  152.3159 LP  0  0  0  0  0  0  0  0  0  0  0  0  # atno 17343 bound_to 10162
  157.7425  131.0488  150.5017 LP  0  0  0  0  0  0  0  0  0  0  0  0  # atno 17370 bound_to 10713
  156.5179  130.4155  149.6266 LP  0  0  0  0  0  0  0  0  0  0  0  0  # atno 17371 bound_to 10713
  141.2114  133.6707  156.6583 LP  0  0  0  0  0  0  0  0  0  0  0  0  # atno 17394 bound_to 11000
  140.3175  134.8035  157.4225 LP  0  0  0  0  0  0  0  0  0  0  0  0  # atno 17395 bound_to 11000

$$$$
