AV-unprocessed.smi:240|AV-procd|sdf|1825|dock4
  -GOLD-   2262020423D 1   1.00000     0.00000
 Structure written by MMmdl.
 55 59  0  0  0  0  0  0  0  0  1 V2000
  145.8381  137.6209  161.8517 O   0  0  0  0  0  0  0  0  0  0  0  0
  146.8559  136.6661  162.0736 C   0  0  1  0  0  0  0  0  0  0  0  0
  146.3161  135.2863  162.4444 C   0  0  0  0  0  0  0  0  0  0  0  0
  147.5228  134.3732  162.2370 C   0  0  0  0  0  0  0  0  0  0  0  0
  148.2888  134.9683  161.0471 C   0  0  0  0  0  0  0  0  0  0  0  0
  147.8141  136.4319  160.8846 C   0  0  1  0  0  0  0  0  0  0  0  0
  147.2567  136.7606  159.4586 C   0  0  2  0  0  0  0  0  0  0  0  0
  146.0393  135.8876  159.0506 C   0  0  0  0  0  0  0  0  0  0  0  0
  145.5887  136.2345  157.7462 O   0  0  0  0  0  0  0  0  0  0  0  0
  146.5897  136.0106  156.7635 C   0  0  0  0  0  0  0  0  0  0  0  0
  147.7877  136.9183  157.0668 C   0  0  0  0  0  0  0  0  0  0  0  0
  148.2874  136.6646  158.4138 N   0  0  0  0  0  0  0  0  0  0  0  0
  149.4334  137.3454  158.6410 C   0  0  0  0  0  0  0  0  0  0  0  0
  150.4422  136.7683  159.3461 N   0  0  0  0  0  0  0  0  0  0  0  0
  151.5798  137.4398  159.5491 C   0  0  0  0  0  0  0  0  0  0  0  0
  151.9097  138.6678  159.1409 N   0  0  0  0  0  0  0  0  0  0  0  0
  150.8937  139.2478  158.4387 C   0  0  0  0  0  0  0  0  0  0  0  0
  149.6316  138.6606  158.1476 C   0  0  0  0  0  0  0  0  0  0  0  0
  148.8540  139.5392  157.4052 N   0  0  0  0  0  0  0  0  0  0  0  0
  149.6161  140.5892  157.2620 C   0  0  0  0  0  0  0  0  0  0  0  0
  150.8562  140.5032  157.8561 N   0  0  0  0  0  0  0  0  0  0  0  0
  151.9026  141.5143  157.8471 C   0  0  0  0  0  0  0  0  0  0  0  0
  151.8524  142.4789  159.0574 C   0  0  1  0  0  0  0  0  0  0  0  0
  151.9584  141.7274  160.2531 O   0  0  0  0  0  0  0  0  0  0  0  0
  152.9772  143.5150  159.0172 C   0  0  0  0  0  0  0  0  0  0  0  0
  152.2635  144.7982  158.6116 C   0  0  0  0  0  0  0  0  0  0  0  0
  151.0206  144.6808  159.2795 O   0  0  0  0  0  0  0  0  0  0  0  0
  150.5747  143.3428  159.1064 C   0  0  0  0  0  0  0  0  0  0  0  0
  145.2694  137.3013  161.1678 H   0  0  0  0  0  0  0  0  0  0  0  0
  147.4463  137.0254  162.9181 H   0  0  0  0  0  0  0  0  0  0  0  0
  145.9324  135.2465  163.4642 H   0  0  0  0  0  0  0  0  0  0  0  0
  145.5084  134.9913  161.7745 H   0  0  0  0  0  0  0  0  0  0  0  0
  148.1544  134.3997  163.1259 H   0  0  0  0  0  0  0  0  0  0  0  0
  147.2345  133.3351  162.0701 H   0  0  0  0  0  0  0  0  0  0  0  0
  149.3646  134.9215  161.2203 H   0  0  0  0  0  0  0  0  0  0  0  0
  148.0998  134.3811  160.1489 H   0  0  0  0  0  0  0  0  0  0  0  0
  148.6659  137.0877  161.0675 H   0  0  0  0  0  0  0  0  0  0  0  0
  146.9174  137.7976  159.4672 H   0  0  0  0  0  0  0  0  0  0  0  0
  146.2740  134.8234  159.0780 H   0  0  0  0  0  0  0  0  0  0  0  0
  145.2030  136.0401  159.7304 H   0  0  0  0  0  0  0  0  0  0  0  0
  146.8851  134.9599  156.7517 H   0  0  0  0  0  0  0  0  0  0  0  0
  146.1816  136.2410  155.7795 H   0  0  0  0  0  0  0  0  0  0  0  0
  148.5786  136.7416  156.3364 H   0  0  0  0  0  0  0  0  0  0  0  0
  147.4897  137.9640  156.9742 H   0  0  0  0  0  0  0  0  0  0  0  0
  152.3344  136.9180  160.1189 H   0  0  0  0  0  0  0  0  0  0  0  0
  149.2907  141.4605  156.7124 H   0  0  0  0  0  0  0  0  0  0  0  0
  152.8665  141.0045  157.8115 H   0  0  0  0  0  0  0  0  0  0  0  0
  151.8236  142.0771  156.9159 H   0  0  0  0  0  0  0  0  0  0  0  0
  151.1522  141.2513  160.3822 H   0  0  0  0  0  0  0  0  0  0  0  0
  153.4149  143.6552  160.0072 H   0  0  0  0  0  0  0  0  0  0  0  0
  153.7874  143.2547  158.3353 H   0  0  0  0  0  0  0  0  0  0  0  0
  152.8021  145.6965  158.9141 H   0  0  0  0  0  0  0  0  0  0  0  0
  152.1023  144.8354  157.5329 H   0  0  0  0  0  0  0  0  0  0  0  0
  150.0320  143.2997  158.1621 H   0  0  0  0  0  0  0  0  0  0  0  0
  149.8816  143.0531  159.8971 H   0  0  0  0  0  0  0  0  0  0  0  0
  1  2  1  0  0  0  0
  1 29  1  0  0  0  0
  2  6  1  0  0  0  0
  2  3  1  0  0  0  0
  2 30  1  0  0  0  0
  3  4  1  0  0  0  0
  3 31  1  0  0  0  0
  3 32  1  0  0  0  0
  4  5  1  0  0  0  0
  4 33  1  0  0  0  0
  4 34  1  0  0  0  0
  5  6  1  0  0  0  0
  5 35  1  0  0  0  0
  5 36  1  0  0  0  0
  6  7  1  0  0  0  0
  6 37  1  0  0  0  0
  7 12  1  0  0  0  0
  7  8  1  0  0  0  0
  7 38  1  0  0  0  0
  8  9  1  0  0  0  0
  8 39  1  0  0  0  0
  8 40  1  0  0  0  0
  9 10  1  0  0  0  0
 10 11  1  0  0  0  0
 10 41  1  0  0  0  0
 10 42  1  0  0  0  0
 11 12  1  0  0  0  0
 11 43  1  0  0  0  0
 11 44  1  0  0  0  0
 12 13  1  0  0  0  0
 13 18  1  0  0  0  0
 13 14  2  0  0  0  0
 14 15  1  0  0  0  0
 15 16  2  0  0  0  0
 15 45  1  0  0  0  0
 16 17  1  0  0  0  0
 17 21  1  0  0  0  0
 17 18  2  0  0  0  0
 18 19  1  0  0  0  0
 19 20  2  0  0  0  0
 20 21  1  0  0  0  0
 20 46  1  0  0  0  0
 21 22  1  0  0  0  0
 22 23  1  0  0  0  0
 22 47  1  0  0  0  0
 22 48  1  0  0  0  0
 23 28  1  0  0  0  0
 23 24  1  0  0  0  0
 23 25  1  0  0  0  0
 24 49  1  0  0  0  0
 25 26  1  0  0  0  0
 25 50  1  0  0  0  0
 25 51  1  0  0  0  0
 26 27  1  0  0  0  0
 26 52  1  0  0  0  0
 26 53  1  0  0  0  0
 27 28  1  0  0  0  0
 28 54  1  0  0  0  0
 28 55  1  0  0  0  0
M  END
> <s_m_source_file>
AV-unprocessed.smi

> <i_m_source_file_index>
240

> <i_lp_mmshare_version>
43012

> <i_f3d_flags>
0

> <s_epik_input>
W09IXVtDQEBIXTFbQ0gyXVtDSDJdW0NIMl1bQ0BIXTFbQ0BASF0yW0NIMl1PW0NIMl1bQ0gyXU4yYyhuW2NIXW4zKWMoYzM0KW5bY0hdbjRbQ0gyXVtDQEBdNShbT0hdKVtDSDJdW0NIMl1PW0NIMl01

> <s_epik_cmdline>
J2VwaWtfcHl0aG9uJywgJy1waCcsICc3LjAnLCAnLXRuJywgJzgnLCAnLW1hJywgJzIwMCcsICctbWV0YWxfYmluZGluZycsICctaW1hZScsICc8aW5maWxlLm1hZT4nLCAnLW9tYWUnLCAnPG91dGZpbGUubWFlPic=

> <r_lp_tautomer_probability>
1

> <r_epik_Ionization_Penalty>
0.000130618

> <r_epik_Ionization_Penalty_Charging>
0

> <r_epik_Ionization_Penalty_Neutral>
0.000130618

> <r_epik_State_Penalty>
-0

> <r_epik_Charging_Adjusted_Penalty>
0

> <i_epik_Tot_Q>
0

> <i_epik_Tot_abs_Q>
0

> <r_epik_Metal_State_Penalty>
-0

> <b_epik_Metal_Only>
0

> <s_lp_Force_Field>
OPLS_2005

> <r_lp_Energy>
64.9026

> <b_lp_Chiralities_Consistent>
1

> <s_lp_Variant>
AV-unprocessed.smi:240-2

> <Gold.Version>
5.8.1

> <Gold.Id.Protein>
6NUR|6NUR_protein|mol2

> <Gold.PLP.Fitness>
42.4491

> <Gold.PLP.PLP>
-40.2075

> <Gold.PLP.part.hbond>
-2.3268

> <Gold.PLP.part.metal>
0.0000

> <Gold.PLP.part.buried>
-7.6145

> <Gold.PLP.part.nonpolar>
-30.3221

> <Gold.PLP.part.repulsive>
0.1232

> <Gold.PLP.ligand.clash>
0.0000

> <Gold.PLP.ligand.torsion>
1.0628

> <Gold.PLP.Chemscore.Hbond>
1.3960

> <Gold.PLP.Chemscore.CHOScore>
0.0000

> <Gold.PLP.Chemscore.Metal>
0.0000

> <Gold.Chemscore.Hbonds>
donor molecule, donor type, donor heavy atom, donor atom, acceptor molecule, acceptor atom, score
      P1  H  6896  6908       L1    14  1.00
      P1  H  6934  6947       L1     1  0.43

> <Gold.PLP.Chemscore.Internal.Correction>
0.1793

> <Gold.Rescore>
     Score         DG    S(hbond)    S(metal)    S(lipo)     H(rot)  DE(clash)    DE(int)     intcor
      8.31     -11.32       0.62        0.00      97.88       3.00       0.17       2.83       ----

> <Gold.Chemscore.Fitness>
8.3089

> <Gold.Chemscore.DG>
-11.3176

> <Gold.Chemscore.ZeroCoef>
-5.4800

> <Gold.Chemscore.Hbond>
0.6215

> <Gold.Chemscore.Metal>
0.0000

> <Gold.Chemscore.Lipo>
97.8773

> <Gold.Chemscore.Internal_Hbond>
0.0000

> <Gold.Chemscore.DEClash>
0.1745

> <Gold.Chemscore.DEInternal>
2.8342

> <Gold.Chemscore.Rot>
3.0039

> <Gold.Chemscore.Internal.Correction>
   9.000000E+99

> <Gold.Chemscore.Hbonds>
donor molecule, donor type, donor heavy atom, donor atom, acceptor molecule, acceptor atom, score
      P1  H  6896  6908       L1    14  0.48
      P1  H  6934  6947       L1     1  0.03

> <Gold.Chemscore.Hbond.Weighted>
-2.0759

> <Gold.Chemscore.Metal.Weighted>
-0.0000

> <Gold.Chemscore.Lipo.Weighted>
-11.4516

> <Gold.Chemscore.Internal_Hbond.Weighted>
0.0000

> <Gold.Chemscore.DEClash.Weighted>
0.1745

> <Gold.Chemscore.DEInternal.Weighted>
2.8342

> <Gold.Chemscore.Rot.Weighted>
7.6899

> <Gold.Chemscore.Internal.Correction.Weighted>
   9.000000E+99

> <Gold.Protein.RotatedTorsions>
[ 6907 6896 6895 6894 ] final -168.52 input  -60.11 | X-H torsion
[ 7974 7965 7964 7962 ] final -152.22 input  175.53 | X-H torsion
[ 8008 7997 7996 7995 ] final   64.93 input   59.86 | X-H torsion
[ 10167 10162 10161 10158 ] final  169.09 input  -65.29 | X-H torsion
[ 10718 10713 10712 10709 ] final  122.54 input   66.30 | X-H torsion
[ 10763 10752 10751 10750 ] final  -37.78 input  -60.55 | X-H torsion
[ 11005 11000 10999 10996 ] final -135.52 input  -57.11 | X-H torsion

> <Gold.Protein.ActiveResidues>
 VAL166  LYS551  ARG553  GLY616  TRP617  ASP618  TYR619  PRO620  LYS621  CYS622 
 ASP623  PHE694  ASN695  SER759  ASP760  ASP761  ALA762  ILE779  LEU786  VAL792 
 PHE793  MET794  SER795  GLU796  ALA797  LYS798  CYS799  TRP800  GLU811  SER814 

> <Gold.Protein.RotatedAtoms>
  151.4768  133.3556  159.2831 H   0  0  0  0  0  0  0  0  0  0  0  0  # atno 6907 bound_to 6896
  150.8924  134.8331  159.7313 H   0  0  0  0  0  0  0  0  0  0  0  0  # atno 6908 bound_to 6896
  152.4831  134.4679  159.9678 H   0  0  0  0  0  0  0  0  0  0  0  0  # atno 6909 bound_to 6896
  144.7806  140.4692  143.5842 H   0  0  0  0  0  0  0  0  0  0  0  0  # atno 7974 bound_to 7965
  155.6537  140.3497  155.4757 H   0  0  0  0  0  0  0  0  0  0  0  0  # atno 8008 bound_to 7997
  155.9826  140.1177  157.0735 H   0  0  0  0  0  0  0  0  0  0  0  0  # atno 8009 bound_to 7997
  154.4196  140.1135  156.5442 H   0  0  0  0  0  0  0  0  0  0  0  0  # atno 8010 bound_to 7997
  139.4983  144.3744  151.9690 H   0  0  0  0  0  0  0  0  0  0  0  0  # atno 10167 bound_to 10162
  157.5735  131.1081  150.8323 H   0  0  0  0  0  0  0  0  0  0  0  0  # atno 10718 bound_to 10713
  153.9019  135.6801  153.4755 H   0  0  0  0  0  0  0  0  0  0  0  0  # atno 10763 bound_to 10752
  153.1124  135.4777  154.9056 H   0  0  0  0  0  0  0  0  0  0  0  0  # atno 10764 bound_to 10752
  154.7571  135.3200  154.8404 H   0  0  0  0  0  0  0  0  0  0  0  0  # atno 10765 bound_to 10752
  140.8891  134.1835  157.4540 H   0  0  0  0  0  0  0  0  0  0  0  0  # atno 11005 bound_to 11000
  145.6060  139.1508  143.3102 LP  0  0  0  0  0  0  0  0  0  0  0  0  # atno 17320 bound_to 7965
  146.2012  140.6179  142.9101 LP  0  0  0  0  0  0  0  0  0  0  0  0  # atno 17321 bound_to 7965
  140.3180  144.3461  150.6017 LP  0  0  0  0  0  0  0  0  0  0  0  0  # atno 17342 bound_to 10162
  140.5745  143.2177  151.7539 LP  0  0  0  0  0  0  0  0  0  0  0  0  # atno 17343 bound_to 10162
  156.8789  130.5172  149.5292 LP  0  0  0  0  0  0  0  0  0  0  0  0  # atno 17370 bound_to 10713
  156.0779  130.5797  150.9509 LP  0  0  0  0  0  0  0  0  0  0  0  0  # atno 17371 bound_to 10713
  139.8727  134.9850  156.5265 LP  0  0  0  0  0  0  0  0  0  0  0  0  # atno 17394 bound_to 11000
  140.8369  133.8235  155.9037 LP  0  0  0  0  0  0  0  0  0  0  0  0  # atno 17395 bound_to 11000

$$$$
