AV-unprocessed.smi:2059|AV-procd|sdf|8352|dock7
  -GOLD-   2272011 23D 1   1.00000     0.00000
 Structure written by MMmdl.
 29 30  0  0  0  0  0  0  0  0  2 V2000
  145.0486  134.8652  162.9752 C   0  0  0  0  0  0  0  0  0  0  0  0
  146.0615  135.5985  162.1646 C   0  0  0  0  0  0  0  0  0  0  0  0
  147.3890  135.3860  161.9206 C   0  0  0  0  0  0  0  0  0  0  0  0
  147.7405  136.4665  161.0669 C   0  0  0  0  0  0  0  0  0  0  0  0
  149.0764  136.5887  160.5871 N   0  0  0  0  0  0  0  0  0  0  0  0
  149.5665  136.9778  159.3902 C   0  0  0  0  0  0  0  0  0  0  0  0
  148.7127  137.2864  158.5525 O   0  0  0  0  0  0  0  0  0  0  0  0
  150.9202  136.9960  159.2175 N   0  5  0  0  0  0  0  0  0  0  0  0
  151.6539  137.9441  158.3758 C   0  0  2  0  0  0  0  0  0  0  0  0
  151.3934  139.3930  158.8322 C   0  0  0  0  0  0  0  0  0  0  0  0
  151.8813  140.3497  157.7346 C   0  0  0  0  0  0  0  0  0  0  0  0
  151.6260  139.4618  156.1493 S   0  0  0  0  0  0  0  0  0  0  0  0
  150.4302  139.9916  155.4754 O   0  0  0  0  0  0  0  0  0  0  0  0
  152.9118  139.3734  155.4392 O   0  0  0  0  0  0  0  0  0  0  0  0
  151.2213  137.8383  156.9049 C   0  0  0  0  0  0  0  0  0  0  0  0
  146.7117  137.2631  160.8117 N   0  0  0  0  0  0  0  0  0  0  0  0
  145.6329  136.7124  161.5131 O   0  0  0  0  0  0  0  0  0  0  0  0
  145.5151  134.0673  163.5532 H   0  0  0  0  0  0  0  0  0  0  0  0
  144.2900  134.4186  162.3324 H   0  0  0  0  0  0  0  0  0  0  0  0
  144.5495  135.5391  163.6719 H   0  0  0  0  0  0  0  0  0  0  0  0
  148.0092  134.5854  162.2952 H   0  0  0  0  0  0  0  0  0  0  0  0
  149.7839  136.3445  161.2639 H   0  0  0  0  0  0  0  0  0  0  0  0
  152.7318  137.7801  158.4222 H   0  0  0  0  0  0  0  0  0  0  0  0
  150.3213  139.5421  158.9722 H   0  0  0  0  0  0  0  0  0  0  0  0
  151.8712  139.6086  159.7884 H   0  0  0  0  0  0  0  0  0  0  0  0
  151.3387  141.2949  157.7279 H   0  0  0  0  0  0  0  0  0  0  0  0
  152.9465  140.5621  157.8388 H   0  0  0  0  0  0  0  0  0  0  0  0
  151.7280  137.0347  156.3705 H   0  0  0  0  0  0  0  0  0  0  0  0
  150.1442  137.6906  156.8181 H   0  0  0  0  0  0  0  0  0  0  0  0
  1  2  1  0  0  0  0
  1 18  1  0  0  0  0
  1 19  1  0  0  0  0
  1 20  1  0  0  0  0
  2 17  1  0  0  0  0
  2  3  2  0  0  0  0
  3  4  1  0  0  0  0
  3 21  1  0  0  0  0
  4  5  1  0  0  0  0
  4 16  2  0  0  0  0
  5  6  1  0  0  0  0
  5 22  1  0  0  0  0
  6  7  2  0  0  0  0
  6  8  1  0  0  0  0
  8  9  1  0  0  0  0
  9 15  1  0  0  0  0
  9 10  1  0  0  0  0
  9 23  1  0  0  0  0
 10 11  1  0  0  0  0
 10 24  1  0  0  0  0
 10 25  1  0  0  0  0
 11 12  1  0  0  0  0
 11 26  1  0  0  0  0
 11 27  1  0  0  0  0
 12 13  2  0  0  0  0
 12 14  2  0  0  0  0
 12 15  1  0  0  0  0
 15 28  1  0  0  0  0
 15 29  1  0  0  0  0
 16 17  1  0  0  0  0
M  CHG  1   8  -1
M  END
> <s_m_source_file>
AV-unprocessed.smi

> <i_m_source_file_index>
2059

> <i_lp_mmshare_version>
43012

> <i_f3d_flags>
0

> <s_epik_input>
W0NIM11jMVtjSF1jKG5vMSlbTkhdQyg9TylbTkhdW0NAQEhdKFtDSDJdMilbQ0gyXVtDSDJdUzIoPU8pPU8=

> <s_epik_cmdline>
J2VwaWtfcHl0aG9uJywgJy1waCcsICc3LjAnLCAnLXRuJywgJzgnLCAnLW1hJywgJzIwMCcsICctbWV0YWxfYmluZGluZycsICctaW1hZScsICc8aW5maWxlLm1hZT4nLCAnLW9tYWUnLCAnPG91dGZpbGUubWFlPic=

> <r_lp_tautomer_probability>
1

> <r_epik_Ionization_Penalty>
6.6071

> <r_epik_Ionization_Penalty_Charging>
6.60709

> <r_epik_Ionization_Penalty_Neutral>
5.42629e-06

> <r_epik_State_Penalty>
6.6352

> <r_epik_Charging_Adjusted_Penalty>
13.2423

> <i_epik_Tot_Q>
-1

> <i_epik_Tot_abs_Q>
1

> <r_epik_Metal_State_Penalty>
2.57602

> <b_epik_Metal_Only>
1

> <s_lp_Force_Field>
OPLS_2005

> <r_lp_Energy>
11.3724

> <b_lp_Chiralities_Consistent>
1

> <s_lp_Variant>
AV-unprocessed.smi:2059-5

> <Gold.Version>
5.8.1

> <Gold.Id.Protein>
6NUR|6NUR_protein|mol2

> <Gold.PLP.Fitness>
33.8857

> <Gold.PLP.PLP>
-22.8964

> <Gold.PLP.part.hbond>
-3.0000

> <Gold.PLP.part.metal>
0.0000

> <Gold.PLP.part.buried>
-5.3198

> <Gold.PLP.part.nonpolar>
-15.1483

> <Gold.PLP.part.repulsive>
0.2763

> <Gold.PLP.ligand.clash>
0.0000

> <Gold.PLP.ligand.torsion>
0.5065

> <Gold.PLP.Chemscore.Hbond>
4.0000

> <Gold.PLP.Chemscore.CHOScore>
0.0000

> <Gold.PLP.Chemscore.Metal>
0.0000

> <Gold.Chemscore.Hbonds>
donor molecule, donor type, donor heavy atom, donor atom, acceptor molecule, acceptor atom, score
      P1  H  6896  6907       L1     8  1.40
      P1  H  6934  6947       L1    16  1.00
      P1  H  7997  8009       L1    14  1.00

> <Gold.PLP.Chemscore.Internal.Correction>
0.0023

> <Gold.Rescore>
     Score         DG    S(hbond)    S(metal)    S(lipo)     H(rot)  DE(clash)    DE(int)     intcor
     16.26     -17.00       2.86        0.00      38.80       1.00       0.00       0.75       ----

> <Gold.Chemscore.Fitness>
16.2560

> <Gold.Chemscore.DG>
-17.0023

> <Gold.Chemscore.ZeroCoef>
-5.4800

> <Gold.Chemscore.Hbond>
2.8571

> <Gold.Chemscore.Metal>
0.0000

> <Gold.Chemscore.Lipo>
38.7989

> <Gold.Chemscore.Internal_Hbond>
0.0000

> <Gold.Chemscore.DEClash>
0.0000

> <Gold.Chemscore.DEInternal>
0.7463

> <Gold.Chemscore.Rot>
1.0000

> <Gold.Chemscore.Internal.Correction>
   9.000000E+99

> <Gold.Chemscore.Hbonds>
donor molecule, donor type, donor heavy atom, donor atom, acceptor molecule, acceptor atom, score
      P1  H  6896  6907       L1     8  0.07
      P1  H  6934  6947       L1    16  0.82
      P1  H  7997  8009       L1    14  0.98

> <Gold.Chemscore.Hbond.Weighted>
-9.5428

> <Gold.Chemscore.Metal.Weighted>
-0.0000

> <Gold.Chemscore.Lipo.Weighted>
-4.5395

> <Gold.Chemscore.Internal_Hbond.Weighted>
0.0000

> <Gold.Chemscore.DEClash.Weighted>
0.0000

> <Gold.Chemscore.DEInternal.Weighted>
0.7463

> <Gold.Chemscore.Rot.Weighted>
2.5600

> <Gold.Chemscore.Internal.Correction.Weighted>
   9.000000E+99

> <Gold.Protein.RotatedTorsions>
[ 6907 6896 6895 6894 ] final  -24.91 input  -60.11 | X-H torsion
[ 7974 7965 7964 7962 ] final   35.23 input  175.53 | X-H torsion
[ 8008 7997 7996 7995 ] final -147.47 input   59.86 | X-H torsion
[ 10167 10162 10161 10158 ] final  169.45 input  -65.29 | X-H torsion
[ 10718 10713 10712 10709 ] final  122.03 input   66.30 | X-H torsion
[ 10763 10752 10751 10750 ] final  -58.16 input  -60.55 | X-H torsion
[ 11005 11000 10999 10996 ] final -131.28 input  -57.11 | X-H torsion

> <Gold.Protein.ActiveResidues>
 VAL166  LYS551  ARG553  GLY616  TRP617  ASP618  TYR619  PRO620  LYS621  CYS622 
 ASP623  PHE694  ASN695  SER759  ASP760  ASP761  ALA762  ILE779  LEU786  VAL792 
 PHE793  MET794  SER795  GLU796  ALA797  LYS798  CYS799  TRP800  GLU811  SER814 

> <Gold.Protein.RotatedAtoms>
  151.1827  135.0368  159.8799 H   0  0  0  0  0  0  0  0  0  0  0  0  # atno 6907 bound_to 6896
  152.5444  134.1044  159.8342 H   0  0  0  0  0  0  0  0  0  0  0  0  # atno 6908 bound_to 6896
  151.1163  133.5089  159.2636 H   0  0  0  0  0  0  0  0  0  0  0  0  # atno 6909 bound_to 6896
  146.1297  139.6168  142.9234 H   0  0  0  0  0  0  0  0  0  0  0  0  # atno 7974 bound_to 7965
  155.5761  140.0639  157.2795 H   0  0  0  0  0  0  0  0  0  0  0  0  # atno 8008 bound_to 7997
  154.4346  140.1860  156.0974 H   0  0  0  0  0  0  0  0  0  0  0  0  # atno 8009 bound_to 7997
  156.0340  140.3303  155.7174 H   0  0  0  0  0  0  0  0  0  0  0  0  # atno 8010 bound_to 7997
  139.4992  144.3705  151.9730 H   0  0  0  0  0  0  0  0  0  0  0  0  # atno 10167 bound_to 10162
  157.5773  131.1078  150.8255 H   0  0  0  0  0  0  0  0  0  0  0  0  # atno 10718 bound_to 10713
  154.2337  135.6356  153.5184 H   0  0  0  0  0  0  0  0  0  0  0  0  # atno 10763 bound_to 10752
  152.9943  135.5525  154.5984 H   0  0  0  0  0  0  0  0  0  0  0  0  # atno 10764 bound_to 10752
  154.5474  135.2899  155.1015 H   0  0  0  0  0  0  0  0  0  0  0  0  # atno 10765 bound_to 10752
  140.9272  134.1367  157.4265 H   0  0  0  0  0  0  0  0  0  0  0  0  # atno 11005 bound_to 11000
  145.5287  141.0428  143.2395 LP  0  0  0  0  0  0  0  0  0  0  0  0  # atno 17320 bound_to 7965
  144.7678  139.6804  143.7207 LP  0  0  0  0  0  0  0  0  0  0  0  0  # atno 17321 bound_to 7965
  140.3141  144.3504  150.6026 LP  0  0  0  0  0  0  0  0  0  0  0  0  # atno 17342 bound_to 10162
  140.5775  143.2175  151.7488 LP  0  0  0  0  0  0  0  0  0  0  0  0  # atno 17343 bound_to 10162
  156.8710  130.5146  149.5297 LP  0  0  0  0  0  0  0  0  0  0  0  0  # atno 17370 bound_to 10713
  156.0818  130.5826  150.9576 LP  0  0  0  0  0  0  0  0  0  0  0  0  # atno 17371 bound_to 10713
  139.8788  134.9992  156.5944 LP  0  0  0  0  0  0  0  0  0  0  0  0  # atno 17394 bound_to 11000
  140.7910  133.8582  155.8646 LP  0  0  0  0  0  0  0  0  0  0  0  0  # atno 17395 bound_to 11000

$$$$
