AV-unprocessed.smi:581|AV-procd|sdf|2992|dock1
  -GOLD-   2262023493D 1   1.00000     0.00000
 Structure written by MMmdl.
 35 36  0  0  0  0  0  0  0  0  2 V2000
  149.4143  140.6922  154.7465 C   0  0  0  0  0  0  0  0  0  0  0  0
  150.6196  140.2506  155.5588 C   0  0  0  0  0  0  0  0  0  0  0  0
  150.9614  141.1168  156.5808 N   0  0  0  0  0  0  0  0  0  0  0  0
  152.0543  140.8212  157.3843 C   0  0  0  0  0  0  0  0  0  0  0  0
  152.2933  141.7523  158.3926 N   0  0  0  0  0  0  0  0  0  0  0  0
  151.8249  143.1291  158.2435 C   0  0  0  0  0  0  0  0  0  0  0  0
  152.5759  144.0781  159.1924 C   0  0  0  0  0  0  0  0  0  0  0  0
  152.4439  143.6186  160.5314 O   0  0  0  0  0  0  0  0  0  0  0  0
  153.0034  142.3219  160.6946 C   0  0  0  0  0  0  0  0  0  0  0  0
  152.2657  141.3209  159.7894 C   0  0  0  0  0  0  0  0  0  0  0  0
  152.7911  139.7613  157.2202 N   0  0  0  0  0  0  0  0  0  0  0  0
  152.5027  138.8487  156.1943 C   0  0  0  0  0  0  0  0  0  0  0  0
  153.2176  137.8617  156.0280 O   0  0  0  0  0  0  0  0  0  0  0  0
  151.3295  139.1182  155.3326 C   0  0  0  0  0  0  0  0  0  0  0  0
  150.9970  138.1395  154.2014 C   0  0  0  0  0  0  0  0  0  0  0  0
  149.8736  137.1294  154.5278 C   0  0  0  0  0  0  0  0  0  0  0  0
  150.3552  135.9797  155.4157 C   0  0  0  0  0  0  0  0  0  0  0  0
  149.5183  135.0981  155.7102 O   0  0  0  0  0  0  0  0  0  0  0  0
  151.5501  136.0035  155.7827 O   0  5  0  0  0  0  0  0  0  0  0  0
  150.3892  141.9371  156.7151 H   0  0  0  0  0  0  0  0  0  0  0  0
  148.5867  139.9959  154.8776 H   0  0  0  0  0  0  0  0  0  0  0  0
  149.6616  140.7456  153.6862 H   0  0  0  0  0  0  0  0  0  0  0  0
  149.0659  141.6790  155.0540 H   0  0  0  0  0  0  0  0  0  0  0  0
  150.7545  143.1650  158.4507 H   0  0  0  0  0  0  0  0  0  0  0  0
  151.9625  143.4641  157.2143 H   0  0  0  0  0  0  0  0  0  0  0  0
  153.6307  144.1454  158.9205 H   0  0  0  0  0  0  0  0  0  0  0  0
  152.1637  145.0847  159.1204 H   0  0  0  0  0  0  0  0  0  0  0  0
  154.0699  142.3402  160.4647 H   0  0  0  0  0  0  0  0  0  0  0  0
  152.9083  142.0241  161.7388 H   0  0  0  0  0  0  0  0  0  0  0  0
  152.7159  140.3341  159.9035 H   0  0  0  0  0  0  0  0  0  0  0  0
  151.2260  141.2298  160.1072 H   0  0  0  0  0  0  0  0  0  0  0  0
  151.8907  137.5998  153.8858 H   0  0  0  0  0  0  0  0  0  0  0  0
  150.7044  138.7147  153.3235 H   0  0  0  0  0  0  0  0  0  0  0  0
  149.0350  137.6283  155.0122 H   0  0  0  0  0  0  0  0  0  0  0  0
  149.4802  136.7095  153.6017 H   0  0  0  0  0  0  0  0  0  0  0  0
  1 21  1  0  0  0  0
  1 22  1  0  0  0  0
  1 23  1  0  0  0  0
  1  2  1  0  0  0  0
  2 14  2  0  0  0  0
  2  3  1  0  0  0  0
  3 20  1  0  0  0  0
  3  4  1  0  0  0  0
  4  5  1  0  0  0  0
  4 11  2  0  0  0  0
  5 10  1  0  0  0  0
  5  6  1  0  0  0  0
  6  7  1  0  0  0  0
  6 24  1  0  0  0  0
  6 25  1  0  0  0  0
  7  8  1  0  0  0  0
  7 26  1  0  0  0  0
  7 27  1  0  0  0  0
  8  9  1  0  0  0  0
  9 10  1  0  0  0  0
  9 28  1  0  0  0  0
  9 29  1  0  0  0  0
 10 30  1  0  0  0  0
 10 31  1  0  0  0  0
 11 12  1  0  0  0  0
 12 13  2  0  0  0  0
 12 14  1  0  0  0  0
 14 15  1  0  0  0  0
 15 16  1  0  0  0  0
 15 32  1  0  0  0  0
 15 33  1  0  0  0  0
 16 17  1  0  0  0  0
 16 34  1  0  0  0  0
 16 35  1  0  0  0  0
 17 18  2  0  0  0  0
 17 19  1  0  0  0  0
M  CHG  1  19  -1
M  END
> <s_m_source_file>
AV-unprocessed.smi

> <i_m_source_file_index>
581

> <i_lp_mmshare_version>
43012

> <i_f3d_flags>
0

> <s_epik_input>
W0NIMl0xW0NIMl1PW0NIMl1bQ0gyXU4xYyhuYzJbQ0gzXSlbbkhdYyg9TyljMltDSDJdW0NIMl1DKD1PKVtPSF0=

> <s_epik_cmdline>
J2VwaWtfcHl0aG9uJywgJy1waCcsICc3LjAnLCAnLXRuJywgJzgnLCAnLW1hJywgJzIwMCcsICctbWV0YWxfYmluZGluZycsICctaW1hZScsICc8aW5maWxlLm1hZT4nLCAnLW9tYWUnLCAnPG91dGZpbGUubWFlPic=

> <r_lp_tautomer_probability>
0.108306

> <r_epik_Ionization_Penalty>
0.0702858

> <r_epik_Ionization_Penalty_Charging>
0.050334

> <r_epik_Ionization_Penalty_Neutral>
0.0199519

> <r_epik_State_Penalty>
1.38976

> <r_epik_Charging_Adjusted_Penalty>
1.44009

> <i_epik_Tot_Q>
-1

> <i_epik_Tot_abs_Q>
1

> <r_epik_Metal_State_Penalty>
1.61644

> <b_epik_Metal_Only>
0

> <s_lp_Force_Field>
OPLS_2005

> <r_lp_Energy>
27.984

> <b_lp_Chiralities_Consistent>
1

> <s_lp_Variant>
AV-unprocessed.smi:581-2

> <Gold.Version>
5.8.1

> <Gold.Id.Protein>
6NUR|6NUR_protein|mol2

> <Gold.PLP.Fitness>
41.7206

> <Gold.PLP.PLP>
-34.5088

> <Gold.PLP.part.hbond>
-2.5223

> <Gold.PLP.part.metal>
0.0000

> <Gold.PLP.part.buried>
-2.8259

> <Gold.PLP.part.nonpolar>
-28.9702

> <Gold.PLP.part.repulsive>
0.2539

> <Gold.PLP.ligand.clash>
0.0165

> <Gold.PLP.ligand.torsion>
1.0706

> <Gold.PLP.Chemscore.Hbond>
3.0000

> <Gold.PLP.Chemscore.CHOScore>
0.0000

> <Gold.PLP.Chemscore.Metal>
0.0000

> <Gold.Chemscore.Hbonds>
donor molecule, donor type, donor heavy atom, donor atom, acceptor molecule, acceptor atom, score
      P1  H  7997  8009       L1    11  0.99
      P1  H 10752 10765       L1    19  2.00

> <Gold.PLP.Chemscore.Internal.Correction>
0.3695

> <Gold.Rescore>
     Score         DG    S(hbond)    S(metal)    S(lipo)     H(rot)  DE(clash)    DE(int)     intcor
     12.42     -14.84       1.54        0.00      77.27       1.89       0.14       2.29       ----

> <Gold.Chemscore.Fitness>
12.4183

> <Gold.Chemscore.DG>
-14.8438

> <Gold.Chemscore.ZeroCoef>
-5.4800

> <Gold.Chemscore.Hbond>
1.5447

> <Gold.Chemscore.Metal>
0.0000

> <Gold.Chemscore.Lipo>
77.2677

> <Gold.Chemscore.Internal_Hbond>
0.0000

> <Gold.Chemscore.DEClash>
0.1399

> <Gold.Chemscore.DEInternal>
2.2856

> <Gold.Chemscore.Rot>
1.8890

> <Gold.Chemscore.Internal.Correction>
   9.000000E+99

> <Gold.Chemscore.Hbonds>
donor molecule, donor type, donor heavy atom, donor atom, acceptor molecule, acceptor atom, score
      P1  H  7997  8009       L1    11  0.26
      P1  H 10752 10765       L1    19  1.00

> <Gold.Chemscore.Hbond.Weighted>
-5.1593

> <Gold.Chemscore.Metal.Weighted>
-0.0000

> <Gold.Chemscore.Lipo.Weighted>
-9.0403

> <Gold.Chemscore.Internal_Hbond.Weighted>
0.0000

> <Gold.Chemscore.DEClash.Weighted>
0.1399

> <Gold.Chemscore.DEInternal.Weighted>
2.2856

> <Gold.Chemscore.Rot.Weighted>
4.8357

> <Gold.Chemscore.Internal.Correction.Weighted>
   9.000000E+99

> <Gold.Protein.RotatedTorsions>
[ 6907 6896 6895 6894 ] final -150.27 input  -60.11 | X-H torsion
[ 7974 7965 7964 7962 ] final -139.96 input  175.53 | X-H torsion
[ 8008 7997 7996 7995 ] final  158.69 input   59.86 | X-H torsion
[ 10167 10162 10161 10158 ] final   46.44 input  -65.29 | X-H torsion
[ 10718 10713 10712 10709 ] final   56.78 input   66.30 | X-H torsion
[ 10763 10752 10751 10750 ] final -165.74 input  -60.55 | X-H torsion
[ 11005 11000 10999 10996 ] final   24.68 input  -57.11 | X-H torsion

> <Gold.Protein.ActiveResidues>
 VAL166  LYS551  ARG553  GLY616  TRP617  ASP618  TYR619  PRO620  LYS621  CYS622 
 ASP623  PHE694  ASN695  SER759  ASP760  ASP761  ALA762  ILE779  LEU786  VAL792 
 PHE793  MET794  SER795  GLU796  ALA797  LYS798  CYS799  TRP800  GLU811  SER814 

> <Gold.Protein.RotatedAtoms>
  151.1962  133.4638  159.2595 H   0  0  0  0  0  0  0  0  0  0  0  0  # atno 6907 bound_to 6896
  151.1115  135.0029  159.8506 H   0  0  0  0  0  0  0  0  0  0  0  0  # atno 6908 bound_to 6896
  152.5450  134.1881  159.8715 H   0  0  0  0  0  0  0  0  0  0  0  0  # atno 6909 bound_to 6896
  144.8635  140.6257  143.5313 H   0  0  0  0  0  0  0  0  0  0  0  0  # atno 7974 bound_to 7965
  156.2287  140.1851  156.7298 H   0  0  0  0  0  0  0  0  0  0  0  0  # atno 8008 bound_to 7997
  154.5985  140.0639  156.9364 H   0  0  0  0  0  0  0  0  0  0  0  0  # atno 8009 bound_to 7997
  155.2215  140.3308  155.4317 H   0  0  0  0  0  0  0  0  0  0  0  0  # atno 8010 bound_to 7997
  140.3138  144.2788  150.6195 H   0  0  0  0  0  0  0  0  0  0  0  0  # atno 10167 bound_to 10162
  157.5459  130.8731  149.8891 H   0  0  0  0  0  0  0  0  0  0  0  0  # atno 10718 bound_to 10713
  154.6902  135.2969  154.9490 H   0  0  0  0  0  0  0  0  0  0  0  0  # atno 10763 bound_to 10752
  154.0456  135.6651  153.4798 H   0  0  0  0  0  0  0  0  0  0  0  0  # atno 10764 bound_to 10752
  153.0607  135.5117  154.7990 H   0  0  0  0  0  0  0  0  0  0  0  0  # atno 10765 bound_to 10752
  140.3561  134.2176  155.7676 H   0  0  0  0  0  0  0  0  0  0  0  0  # atno 11005 bound_to 11000
  145.4266  139.1555  143.4045 LP  0  0  0  0  0  0  0  0  0  0  0  0  # atno 17320 bound_to 7965
  146.2878  140.4380  142.8751 LP  0  0  0  0  0  0  0  0  0  0  0  0  # atno 17321 bound_to 7965
  140.5544  143.2201  151.7872 LP  0  0  0  0  0  0  0  0  0  0  0  0  # atno 17342 bound_to 10162
  139.4888  144.4433  151.9739 LP  0  0  0  0  0  0  0  0  0  0  0  0  # atno 17343 bound_to 10162
  156.0535  130.3713  150.1145 LP  0  0  0  0  0  0  0  0  0  0  0  0  # atno 17370 bound_to 10713
  156.9321  130.9717  151.3531 LP  0  0  0  0  0  0  0  0  0  0  0  0  # atno 17371 bound_to 10713
  141.1998  133.8003  157.0519 LP  0  0  0  0  0  0  0  0  0  0  0  0  # atno 17394 bound_to 11000
  140.0664  134.9726  157.1393 LP  0  0  0  0  0  0  0  0  0  0  0  0  # atno 17395 bound_to 11000

$$$$
