AV-unprocessed.smi:2098|AV-procd|sdf|8565|dock7
  -GOLD-   2272011293D 1   1.00000     0.00000
 Structure written by MMmdl.
 36 38  0  0  0  0  0  0  0  0  1 V2000
  152.7635  139.8305  155.2464 O   0  0  0  0  0  0  0  0  0  0  0  0
  151.6137  139.2349  155.8155 C   0  0  2  0  0  0  0  0  0  0  0  0
  150.6617  138.8330  154.6779 C   0  0  0  0  0  0  0  0  0  0  0  0
  150.0569  140.0044  154.1457 O   0  0  0  0  0  0  0  0  0  0  0  0
  148.7834  140.3284  154.5628 C   0  0  0  0  0  0  0  0  0  0  0  0
  148.2096  141.4958  154.0176 C   0  0  0  0  0  0  0  0  0  0  0  0
  146.9143  141.9043  154.3898 C   0  0  0  0  0  0  0  0  0  0  0  0
  146.1765  141.1449  155.3162 C   0  0  0  0  0  0  0  0  0  0  0  0
  144.9318  141.5372  155.6771 F   0  0  0  0  0  0  0  0  0  0  0  0
  146.7351  139.9766  155.8666 C   0  0  0  0  0  0  0  0  0  0  0  0
  148.0305  139.5676  155.4935 C   0  0  0  0  0  0  0  0  0  0  0  0
  150.9555  140.2370  156.7840 C   0  0  0  0  0  0  0  0  0  0  0  0
  151.7777  140.5128  157.9492 N   0  0  0  0  0  0  0  0  0  0  0  0
  152.5846  139.6478  158.5933 C   0  0  0  0  0  0  0  0  0  0  0  0
  153.2506  140.1057  159.6495 N   0  0  0  0  0  0  0  0  0  0  0  0
  152.8261  141.4225  159.6975 C   0  0  0  0  0  0  0  0  0  0  0  0
  153.1606  142.4614  160.5958 C   0  0  0  0  0  0  0  0  0  0  0  0
  152.5947  143.7448  160.4468 C   0  0  0  0  0  0  0  0  0  0  0  0
  151.6880  144.0090  159.3998 C   0  0  0  0  0  0  0  0  0  0  0  0
  151.3390  142.9898  158.4929 C   0  0  0  0  0  0  0  0  0  0  0  0
  151.9044  141.7101  158.6458 C   0  0  0  0  0  0  0  0  0  0  0  0
  152.9502  139.3961  154.4280 H   0  0  0  0  0  0  0  0  0  0  0  0
  151.9147  138.3477  156.3743 H   0  0  0  0  0  0  0  0  0  0  0  0
  151.2318  138.3516  153.8813 H   0  0  0  0  0  0  0  0  0  0  0  0
  149.9173  138.1187  155.0345 H   0  0  0  0  0  0  0  0  0  0  0  0
  148.7691  142.0854  153.3062 H   0  0  0  0  0  0  0  0  0  0  0  0
  146.4878  142.8009  153.9645 H   0  0  0  0  0  0  0  0  0  0  0  0
  146.1697  139.3921  156.5773 H   0  0  0  0  0  0  0  0  0  0  0  0
  148.4233  138.6654  155.9370 H   0  0  0  0  0  0  0  0  0  0  0  0
  150.7431  141.1774  156.2739 H   0  0  0  0  0  0  0  0  0  0  0  0
  149.9968  139.8496  157.1310 H   0  0  0  0  0  0  0  0  0  0  0  0
  152.6884  138.6230  158.2678 H   0  0  0  0  0  0  0  0  0  0  0  0
  153.8542  142.2703  161.4012 H   0  0  0  0  0  0  0  0  0  0  0  0
  152.8577  144.5308  161.1395 H   0  0  0  0  0  0  0  0  0  0  0  0
  151.2604  144.9951  159.2931 H   0  0  0  0  0  0  0  0  0  0  0  0
  150.6468  143.1896  157.6886 H   0  0  0  0  0  0  0  0  0  0  0  0
  1  2  1  0  0  0  0
  1 22  1  0  0  0  0
  2  3  1  0  0  0  0
  2 12  1  0  0  0  0
  2 23  1  0  0  0  0
  3  4  1  0  0  0  0
  3 24  1  0  0  0  0
  3 25  1  0  0  0  0
  4  5  1  0  0  0  0
  5 11  1  0  0  0  0
  5  6  2  0  0  0  0
  6  7  1  0  0  0  0
  6 26  1  0  0  0  0
  7  8  2  0  0  0  0
  7 27  1  0  0  0  0
  8  9  1  0  0  0  0
  8 10  1  0  0  0  0
 10 11  2  0  0  0  0
 10 28  1  0  0  0  0
 11 29  1  0  0  0  0
 12 13  1  0  0  0  0
 12 30  1  0  0  0  0
 12 31  1  0  0  0  0
 13 21  1  0  0  0  0
 13 14  1  0  0  0  0
 14 15  2  0  0  0  0
 14 32  1  0  0  0  0
 15 16  1  0  0  0  0
 16 21  2  0  0  0  0
 16 17  1  0  0  0  0
 17 18  2  0  0  0  0
 17 33  1  0  0  0  0
 18 19  1  0  0  0  0
 18 34  1  0  0  0  0
 19 20  2  0  0  0  0
 19 35  1  0  0  0  0
 20 21  1  0  0  0  0
 20 36  1  0  0  0  0
M  END
> <s_m_source_file>
AV-unprocessed.smi

> <i_m_source_file_index>
2098

> <i_lp_mmshare_version>
43012

> <i_f3d_flags>
0

> <s_epik_input>
W2NIXTFbY0hdW2NIXVtjSF1jKGMxMiluKFtjSF1uMilbQ0gyXVtDQEhdKFtPSF0pW0NIMl1PYzNbY0hdW2NIXWMoRilbY0hdW2NIXTM=

> <s_epik_cmdline>
J2VwaWtfcHl0aG9uJywgJy1waCcsICc3LjAnLCAnLXRuJywgJzgnLCAnLW1hJywgJzIwMCcsICctbWV0YWxfYmluZGluZycsICctaW1hZScsICc8aW5maWxlLm1hZT4nLCAnLW9tYWUnLCAnPG91dGZpbGUubWFlPic=

> <r_lp_tautomer_probability>
1

> <r_epik_Ionization_Penalty>
0.0603575

> <r_epik_Ionization_Penalty_Charging>
0

> <r_epik_Ionization_Penalty_Neutral>
0.0603575

> <r_epik_State_Penalty>
0.0523204

> <r_epik_Charging_Adjusted_Penalty>
0.0523204

> <i_epik_Tot_Q>
0

> <i_epik_Tot_abs_Q>
0

> <r_epik_Metal_State_Penalty>
5.46976e-05

> <b_epik_Metal_Only>
0

> <s_lp_Force_Field>
OPLS_2005

> <r_lp_Energy>
15.3662

> <b_lp_Chiralities_Consistent>
1

> <s_lp_Variant>
AV-unprocessed.smi:2098-1

> <Gold.Version>
5.8.1

> <Gold.Id.Protein>
6NUR|6NUR_protein|mol2

> <Gold.PLP.Fitness>
47.8350

> <Gold.PLP.PLP>
-43.2721

> <Gold.PLP.part.hbond>
-2.7093

> <Gold.PLP.part.metal>
0.0000

> <Gold.PLP.part.buried>
-5.0356

> <Gold.PLP.part.nonpolar>
-36.7631

> <Gold.PLP.part.repulsive>
1.2018

> <Gold.PLP.ligand.clash>
0.0000

> <Gold.PLP.ligand.torsion>
0.7387

> <Gold.PLP.Chemscore.Hbond>
1.9920

> <Gold.PLP.Chemscore.CHOScore>
0.0000

> <Gold.PLP.Chemscore.Metal>
0.0000

> <Gold.Chemscore.Hbonds>
donor molecule, donor type, donor heavy atom, donor atom, acceptor molecule, acceptor atom, score
      P1  H  7989  7998       L1     4  0.93
      P1  H  7997  8009       L1     1  1.00

> <Gold.PLP.Chemscore.Internal.Correction>
0.0644

> <Gold.Rescore>
     Score         DG    S(hbond)    S(metal)    S(lipo)     H(rot)  DE(clash)    DE(int)     intcor
     18.03     -18.97       1.79        0.00     116.20       2.37       0.22       0.71       ----

> <Gold.Chemscore.Fitness>
18.0307

> <Gold.Chemscore.DG>
-18.9656

> <Gold.Chemscore.ZeroCoef>
-5.4800

> <Gold.Chemscore.Hbond>
1.7864

> <Gold.Chemscore.Metal>
0.0000

> <Gold.Chemscore.Lipo>
116.1983

> <Gold.Chemscore.Internal_Hbond>
0.0000

> <Gold.Chemscore.DEClash>
0.2205

> <Gold.Chemscore.DEInternal>
0.7144

> <Gold.Chemscore.Rot>
2.3735

> <Gold.Chemscore.Internal.Correction>
   9.000000E+99

> <Gold.Chemscore.Hbonds>
donor molecule, donor type, donor heavy atom, donor atom, acceptor molecule, acceptor atom, score
      P1  H  7989  7998       L1     4  0.20
      P1  H  7997  8009       L1     1  0.77

> <Gold.Chemscore.Hbond.Weighted>
-5.9666

> <Gold.Chemscore.Metal.Weighted>
-0.0000

> <Gold.Chemscore.Lipo.Weighted>
-13.5952

> <Gold.Chemscore.Internal_Hbond.Weighted>
0.0000

> <Gold.Chemscore.DEClash.Weighted>
0.2205

> <Gold.Chemscore.DEInternal.Weighted>
0.7144

> <Gold.Chemscore.Rot.Weighted>
6.0762

> <Gold.Chemscore.Internal.Correction.Weighted>
   9.000000E+99

> <Gold.Protein.RotatedTorsions>
[ 6907 6896 6895 6894 ] final -155.98 input  -60.11 | X-H torsion
[ 7974 7965 7964 7962 ] final -106.44 input  175.53 | X-H torsion
[ 8008 7997 7996 7995 ] final -156.75 input   59.86 | X-H torsion
[ 10167 10162 10161 10158 ] final  100.23 input  -65.29 | X-H torsion
[ 10718 10713 10712 10709 ] final  -89.48 input   66.30 | X-H torsion
[ 10763 10752 10751 10750 ] final -171.30 input  -60.55 | X-H torsion
[ 11005 11000 10999 10996 ] final  -11.84 input  -57.11 | X-H torsion

> <Gold.Protein.ActiveResidues>
 VAL166  LYS551  ARG553  GLY616  TRP617  ASP618  TYR619  PRO620  LYS621  CYS622 
 ASP623  PHE694  ASN695  SER759  ASP760  ASP761  ALA762  ILE779  LEU786  VAL792 
 PHE793  MET794  SER795  GLU796  ALA797  LYS798  CYS799  TRP800  GLU811  SER814 

> <Gold.Protein.RotatedAtoms>
  151.2807  133.4211  159.2626 H   0  0  0  0  0  0  0  0  0  0  0  0  # atno 6907 bound_to 6896
  151.0363  134.9576  159.8148 H   0  0  0  0  0  0  0  0  0  0  0  0  # atno 6908 bound_to 6896
  152.5356  134.2767  159.9044 H   0  0  0  0  0  0  0  0  0  0  0  0  # atno 6909 bound_to 6896
  145.2179  140.9122  143.3276 H   0  0  0  0  0  0  0  0  0  0  0  0  # atno 7974 bound_to 7965
  155.7219  140.0791  157.2327 H   0  0  0  0  0  0  0  0  0  0  0  0  # atno 8008 bound_to 7997
  154.4044  140.1611  156.2466 H   0  0  0  0  0  0  0  0  0  0  0  0  # atno 8009 bound_to 7997
  155.9188  140.3399  155.6159 H   0  0  0  0  0  0  0  0  0  0  0  0  # atno 8010 bound_to 7997
  139.7546  144.6973  151.0381 H   0  0  0  0  0  0  0  0  0  0  0  0  # atno 10167 bound_to 10162
  155.9984  130.4874  150.5177 H   0  0  0  0  0  0  0  0  0  0  0  0  # atno 10718 bound_to 10713
  154.6320  135.2888  155.0205 H   0  0  0  0  0  0  0  0  0  0  0  0  # atno 10763 bound_to 10752
  154.1363  135.6525  153.4936 H   0  0  0  0  0  0  0  0  0  0  0  0  # atno 10764 bound_to 10752
  153.0284  135.5322  154.7151 H   0  0  0  0  0  0  0  0  0  0  0  0  # atno 10765 bound_to 10752
  140.7594  133.8527  155.9112 H   0  0  0  0  0  0  0  0  0  0  0  0  # atno 11005 bound_to 11000
  144.9794  139.3799  143.6270 LP  0  0  0  0  0  0  0  0  0  0  0  0  # atno 17320 bound_to 7965
  146.3383  139.8927  142.8806 LP  0  0  0  0  0  0  0  0  0  0  0  0  # atno 17321 bound_to 7965
  140.7801  143.4768  151.0071 LP  0  0  0  0  0  0  0  0  0  0  0  0  # atno 17342 bound_to 10162
  139.8455  143.7507  152.3179 LP  0  0  0  0  0  0  0  0  0  0  0  0  # atno 17343 bound_to 10162
  157.3143  131.0669  151.1978 LP  0  0  0  0  0  0  0  0  0  0  0  0  # atno 17370 bound_to 10713
  157.2914  130.6798  149.6116 LP  0  0  0  0  0  0  0  0  0  0  0  0  # atno 17371 bound_to 10713
  140.9677  134.1572  157.4602 LP  0  0  0  0  0  0  0  0  0  0  0  0  # atno 17394 bound_to 11000
  139.8773  134.9967  156.5810 LP  0  0  0  0  0  0  0  0  0  0  0  0  # atno 17395 bound_to 11000

$$$$
