AV-unprocessed.smi:691|AV-procd|sdf|3365|dock2
  -GOLD-   22720 0343D 1   1.00000     0.00000
 Structure written by MMmdl.
 37 38  0  0  0  0  0  0  0  0  1 V2000
  152.2520  142.6301  160.8070 C   0  0  0  0  0  0  0  0  0  0  0  0
  152.0481  142.8564  159.2892 C   0  0  2  0  0  0  0  0  0  0  0  0
  152.3518  141.5385  158.5270 C   0  0  0  0  0  0  0  0  0  0  0  0
  153.6288  141.0259  158.8515 O   0  0  0  0  0  0  0  0  0  0  0  0
  152.9334  144.0171  158.8023 C   0  0  0  0  0  0  0  0  0  0  0  0
  152.2005  145.3014  159.1977 C   0  0  0  0  0  0  0  0  0  0  0  0
  150.7136  144.9331  159.2818 C   0  0  0  0  0  0  0  0  0  0  0  0
  150.6156  143.4125  159.0523 C   0  0  1  0  0  0  0  0  0  0  0  0
  150.1172  143.1675  157.6961 N   0  0  0  0  0  0  0  0  0  0  0  0
  149.6902  141.9898  157.2172 C   0  0  0  0  0  0  0  0  0  0  0  0
  149.6686  140.9540  157.8808 O   0  0  0  0  0  0  0  0  0  0  0  0
  149.2937  142.1059  155.9381 N   0  0  0  0  0  0  0  0  0  0  0  0
  148.7779  141.1090  155.0647 C   0  0  0  0  0  0  0  0  0  0  0  0
  147.7202  141.3109  154.1442 C   0  0  0  0  0  0  0  0  0  0  0  0
  147.2978  140.2305  153.3454 C   0  0  0  0  0  0  0  0  0  0  0  0
  147.9425  138.9880  153.4979 C   0  0  0  0  0  0  0  0  0  0  0  0
  148.9435  138.7777  154.3781 N   0  0  0  0  0  0  0  0  0  0  0  0
  149.3425  139.8178  155.1407 C   0  0  0  0  0  0  0  0  0  0  0  0
  153.2860  142.3778  161.0433 H   0  0  0  0  0  0  0  0  0  0  0  0
  151.6254  141.8142  161.1686 H   0  0  0  0  0  0  0  0  0  0  0  0
  151.9988  143.5143  161.3922 H   0  0  0  0  0  0  0  0  0  0  0  0
  151.6016  140.7822  158.7599 H   0  0  0  0  0  0  0  0  0  0  0  0
  152.3297  141.6865  157.4472 H   0  0  0  0  0  0  0  0  0  0  0  0
  153.5499  140.4920  159.6273 H   0  0  0  0  0  0  0  0  0  0  0  0
  153.9459  143.9782  159.2059 H   0  0  0  0  0  0  0  0  0  0  0  0
  153.0212  143.9815  157.7155 H   0  0  0  0  0  0  0  0  0  0  0  0
  152.5504  145.6453  160.1720 H   0  0  0  0  0  0  0  0  0  0  0  0
  152.3854  146.1053  158.4845 H   0  0  0  0  0  0  0  0  0  0  0  0
  150.3307  145.1881  160.2708 H   0  0  0  0  0  0  0  0  0  0  0  0
  150.1205  145.5000  158.5625 H   0  0  0  0  0  0  0  0  0  0  0  0
  149.9168  142.9855  159.7742 H   0  0  0  0  0  0  0  0  0  0  0  0
  150.0952  143.9640  157.0764 H   0  0  0  0  0  0  0  0  0  0  0  0
  149.3251  143.0381  155.5516 H   0  0  0  0  0  0  0  0  0  0  0  0
  147.2164  142.2583  154.0388 H   0  0  0  0  0  0  0  0  0  0  0  0
  146.4946  140.3519  152.6335 H   0  0  0  0  0  0  0  0  0  0  0  0
  147.6421  138.1394  152.9011 H   0  0  0  0  0  0  0  0  0  0  0  0
  150.1440  139.6111  155.8350 H   0  0  0  0  0  0  0  0  0  0  0  0
  1  2  1  0  0  0  0
  1 19  1  0  0  0  0
  1 20  1  0  0  0  0
  1 21  1  0  0  0  0
  2  8  1  0  0  0  0
  2  3  1  0  0  0  0
  2  5  1  0  0  0  0
  3  4  1  0  0  0  0
  3 22  1  0  0  0  0
  3 23  1  0  0  0  0
  4 24  1  0  0  0  0
  5  6  1  0  0  0  0
  5 25  1  0  0  0  0
  5 26  1  0  0  0  0
  6  7  1  0  0  0  0
  6 27  1  0  0  0  0
  6 28  1  0  0  0  0
  7  8  1  0  0  0  0
  7 29  1  0  0  0  0
  7 30  1  0  0  0  0
  8  9  1  0  0  0  0
  8 31  1  0  0  0  0
  9 10  1  0  0  0  0
  9 32  1  0  0  0  0
 10 11  2  0  0  0  0
 10 12  1  0  0  0  0
 12 13  1  0  0  0  0
 12 33  1  0  0  0  0
 13 18  1  0  0  0  0
 13 14  2  0  0  0  0
 14 15  1  0  0  0  0
 14 34  1  0  0  0  0
 15 16  2  0  0  0  0
 15 35  1  0  0  0  0
 16 17  1  0  0  0  0
 16 36  1  0  0  0  0
 17 18  2  0  0  0  0
 18 37  1  0  0  0  0
M  END
> <s_m_source_file>
AV-unprocessed.smi

> <i_m_source_file_index>
691

> <i_lp_mmshare_version>
43012

> <i_f3d_flags>
0

> <s_epik_input>
W09IXVtDSDJdW0NAXTEoW0NIM10pW0NIMl1bQ0gyXVtDSDJdW0NASF0xW05IXUMoPU8pW05IXWMyW2NIXVtjSF1bY0hdbltjSF0y

> <s_epik_cmdline>
J2VwaWtfcHl0aG9uJywgJy1waCcsICc3LjAnLCAnLXRuJywgJzgnLCAnLW1hJywgJzIwMCcsICctbWV0YWxfYmluZGluZycsICctaW1hZScsICc8aW5maWxlLm1hZT4nLCAnLW9tYWUnLCAnPG91dGZpbGUubWFlPic=

> <r_epik_Ionization_Penalty>
0.00496828

> <r_epik_Ionization_Penalty_Charging>
0

> <r_epik_Ionization_Penalty_Neutral>
0.00496828

> <r_epik_State_Penalty>
0.00358054

> <r_epik_Charging_Adjusted_Penalty>
0.00358054

> <i_epik_Tot_Q>
0

> <i_epik_Tot_abs_Q>
0

> <r_epik_Metal_State_Penalty>
-0

> <b_epik_Metal_Only>
0

> <s_lp_Force_Field>
OPLS_2005

> <r_lp_Energy>
30.5868

> <b_lp_Chiralities_Consistent>
1

> <s_lp_Variant>
AV-unprocessed.smi:691-2

> <Gold.Version>
5.8.1

> <Gold.Id.Protein>
6NUR|6NUR_protein|mol2

> <Gold.PLP.Fitness>
42.2767

> <Gold.PLP.PLP>
-34.1078

> <Gold.PLP.part.hbond>
-3.0000

> <Gold.PLP.part.metal>
0.0000

> <Gold.PLP.part.buried>
-1.1107

> <Gold.PLP.part.nonpolar>
-30.5372

> <Gold.PLP.part.repulsive>
0.3364

> <Gold.PLP.ligand.clash>
0.0000

> <Gold.PLP.ligand.torsion>
0.4843

> <Gold.PLP.Chemscore.Hbond>
2.0420

> <Gold.PLP.Chemscore.CHOScore>
1.0000

> <Gold.PLP.Chemscore.Metal>
0.0000

> <Gold.Chemscore.Hbonds>
donor molecule, donor type, donor heavy atom, donor atom, acceptor molecule, acceptor atom, score
      L1  H     9    32       P1  8028  0.78
      L1  H    12    33       P1  8028  0.99
      P1  H  7997  8009       L1     4  0.26
      L1  C    16    36       P1  7948  1.00

> <Gold.PLP.Chemscore.Internal.Correction>
0.0116

> <Gold.Rescore>
     Score         DG    S(hbond)    S(metal)    S(lipo)     H(rot)  DE(clash)    DE(int)     intcor
     14.43     -19.26       1.77        0.00     106.22       1.78       0.88       3.95       ----

> <Gold.Chemscore.Fitness>
14.4286

> <Gold.Chemscore.DG>
-19.2584

> <Gold.Chemscore.ZeroCoef>
-5.4800

> <Gold.Chemscore.Hbond>
1.7718

> <Gold.Chemscore.Metal>
0.0000

> <Gold.Chemscore.Lipo>
106.2159

> <Gold.Chemscore.Internal_Hbond>
0.0000

> <Gold.Chemscore.DEClash>
0.8809

> <Gold.Chemscore.DEInternal>
3.9489

> <Gold.Chemscore.Rot>
1.7838

> <Gold.Chemscore.Internal.Correction>
   9.000000E+99

> <Gold.Chemscore.Hbonds>
donor molecule, donor type, donor heavy atom, donor atom, acceptor molecule, acceptor atom, score
      L1  H     9    32       P1  8028  0.71
      L1  H    12    33       P1  8028  0.94
      P1  H  7997  8009       L1     4  0.22

> <Gold.Chemscore.Hbond.Weighted>
-5.9178

> <Gold.Chemscore.Metal.Weighted>
-0.0000

> <Gold.Chemscore.Lipo.Weighted>
-12.4273

> <Gold.Chemscore.Internal_Hbond.Weighted>
0.0000

> <Gold.Chemscore.DEClash.Weighted>
0.8809

> <Gold.Chemscore.DEInternal.Weighted>
3.9489

> <Gold.Chemscore.Rot.Weighted>
4.5666

> <Gold.Chemscore.Internal.Correction.Weighted>
   9.000000E+99

> <Gold.Protein.RotatedTorsions>
[ 6907 6896 6895 6894 ] final  175.00 input  -60.11 | X-H torsion
[ 7974 7965 7964 7962 ] final   69.27 input  175.53 | X-H torsion
[ 8008 7997 7996 7995 ] final  141.70 input   59.86 | X-H torsion
[ 10167 10162 10161 10158 ] final   18.57 input  -65.29 | X-H torsion
[ 10718 10713 10712 10709 ] final  -22.83 input   66.30 | X-H torsion
[ 10763 10752 10751 10750 ] final  177.79 input  -60.55 | X-H torsion
[ 11005 11000 10999 10996 ] final  -10.57 input  -57.11 | X-H torsion

> <Gold.Protein.ActiveResidues>
 VAL166  LYS551  ARG553  GLY616  TRP617  ASP618  TYR619  PRO620  LYS621  CYS622 
 ASP623  PHE694  ASN695  SER759  ASP760  ASP761  ALA762  ILE779  LEU786  VAL792 
 PHE793  MET794  SER795  GLU796  ALA797  LYS798  CYS799  TRP800  GLU811  SER814 

> <Gold.Protein.RotatedAtoms>
  151.7433  133.3323  159.3371 H   0  0  0  0  0  0  0  0  0  0  0  0  # atno 6907 bound_to 6896
  150.7565  134.6259  159.6170 H   0  0  0  0  0  0  0  0  0  0  0  0  # atno 6908 bound_to 6896
  152.3516  134.6999  160.0286 H   0  0  0  0  0  0  0  0  0  0  0  0  # atno 6909 bound_to 6896
  145.7925  139.2941  143.1202 H   0  0  0  0  0  0  0  0  0  0  0  0  # atno 7974 bound_to 7965
  156.2961  140.2308  156.4607 H   0  0  0  0  0  0  0  0  0  0  0  0  # atno 8008 bound_to 7997
  154.8020  140.0448  157.1301 H   0  0  0  0  0  0  0  0  0  0  0  0  # atno 8009 bound_to 7997
  154.9522  140.3043  155.5073 H   0  0  0  0  0  0  0  0  0  0  0  0  # atno 8010 bound_to 7997
  140.5643  143.9279  150.6665 H   0  0  0  0  0  0  0  0  0  0  0  0  # atno 10167 bound_to 10162
  156.4992  130.4584  149.6711 H   0  0  0  0  0  0  0  0  0  0  0  0  # atno 10718 bound_to 10713
  154.4992  135.2782  155.1435 H   0  0  0  0  0  0  0  0  0  0  0  0  # atno 10763 bound_to 10752
  154.3075  135.6235  153.5455 H   0  0  0  0  0  0  0  0  0  0  0  0  # atno 10764 bound_to 10752
  152.9899  135.5712  154.5430 H   0  0  0  0  0  0  0  0  0  0  0  0  # atno 10765 bound_to 10752
  140.7462  133.8630  155.9007 H   0  0  0  0  0  0  0  0  0  0  0  0  # atno 11005 bound_to 11000
  145.9962  140.8560  143.0041 LP  0  0  0  0  0  0  0  0  0  0  0  0  # atno 17320 bound_to 7965
  144.6780  140.2286  143.7358 LP  0  0  0  0  0  0  0  0  0  0  0  0  # atno 17321 bound_to 7965
  140.2738  143.3437  152.1213 LP  0  0  0  0  0  0  0  0  0  0  0  0  # atno 17342 bound_to 10162
  139.5085  144.6851  151.5908 LP  0  0  0  0  0  0  0  0  0  0  0  0  # atno 17343 bound_to 10162
  156.3349  130.7351  151.2287 LP  0  0  0  0  0  0  0  0  0  0  0  0  # atno 17370 bound_to 10713
  157.7465  131.0419  150.4671 LP  0  0  0  0  0  0  0  0  0  0  0  0  # atno 17371 bound_to 10713
  140.9792  134.1428  157.4509 LP  0  0  0  0  0  0  0  0  0  0  0  0  # atno 17394 bound_to 11000
  139.8796  135.0005  156.6013 LP  0  0  0  0  0  0  0  0  0  0  0  0  # atno 17395 bound_to 11000

$$$$
