AV-unprocessed.smi:969|AV-procd|sdf|4290|dock3
  -GOLD-   22720 2193D 1   1.00000     0.00000
 Structure written by MMmdl.
 37 38  0  0  0  0  0  0  0  0  1 V2000
  145.9861  142.3194  154.8416 C   0  0  0  0  0  0  0  0  0  0  0  0
  147.3296  141.8069  154.3056 C   0  0  0  0  0  0  0  0  0  0  0  0
  147.1944  140.4128  153.6735 C   0  0  0  0  0  0  0  0  0  0  0  0
  148.3070  141.7834  155.3899 N   0  0  0  0  0  0  0  0  0  0  0  0
  149.5440  141.2650  155.3126 C   0  0  0  0  0  0  0  0  0  0  0  0
  149.9902  140.7151  154.3055 O   0  0  0  0  0  0  0  0  0  0  0  0
  150.3544  141.3320  156.5748 C   0  0  0  0  0  0  0  0  0  0  0  0
  151.5659  140.6213  156.7199 C   0  0  0  0  0  0  0  0  0  0  0  0
  152.2699  140.7065  157.9364 C   0  0  0  0  0  0  0  0  0  0  0  0
  151.7415  141.4923  158.9878 C   0  0  0  0  0  0  0  0  0  0  0  0
  152.4293  141.5906  160.2170 N   0  0  0  0  0  0  0  0  0  0  0  0
  152.1993  142.8183  160.9747 C   0  0  0  0  0  0  0  0  0  0  0  0
  152.7456  142.6753  162.4058 C   0  0  0  0  0  0  0  0  0  0  0  0
  154.1184  142.3008  162.3632 O   0  0  0  0  0  0  0  0  0  0  0  0
  154.3038  141.0445  161.7201 C   0  0  0  0  0  0  0  0  0  0  0  0
  153.8169  141.1324  160.2640 C   0  0  0  0  0  0  0  0  0  0  0  0
  150.5755  142.1698  158.8474 N   0  0  0  0  0  0  0  0  0  0  0  0
  149.9031  142.0845  157.6800 C   0  0  0  0  0  0  0  0  0  0  0  0
  145.2429  142.3760  154.0458 H   0  0  0  0  0  0  0  0  0  0  0  0
  146.0880  143.3187  155.2668 H   0  0  0  0  0  0  0  0  0  0  0  0
  145.5913  141.6641  155.6191 H   0  0  0  0  0  0  0  0  0  0  0  0
  147.6679  142.5048  153.5375 H   0  0  0  0  0  0  0  0  0  0  0  0
  146.4707  140.4222  152.8581 H   0  0  0  0  0  0  0  0  0  0  0  0
  146.8622  139.6755  154.4052 H   0  0  0  0  0  0  0  0  0  0  0  0
  148.1446  140.0697  153.2628 H   0  0  0  0  0  0  0  0  0  0  0  0
  148.0202  142.1911  156.2679 H   0  0  0  0  0  0  0  0  0  0  0  0
  151.9613  140.0165  155.9167 H   0  0  0  0  0  0  0  0  0  0  0  0
  153.2072  140.1811  158.0428 H   0  0  0  0  0  0  0  0  0  0  0  0
  152.6993  143.6433  160.4660 H   0  0  0  0  0  0  0  0  0  0  0  0
  151.1413  143.0718  161.0242 H   0  0  0  0  0  0  0  0  0  0  0  0
  152.6527  143.6215  162.9388 H   0  0  0  0  0  0  0  0  0  0  0  0
  152.1727  141.9362  162.9683 H   0  0  0  0  0  0  0  0  0  0  0  0
  155.3622  140.7845  161.7468 H   0  0  0  0  0  0  0  0  0  0  0  0
  153.7699  140.2628  162.2629 H   0  0  0  0  0  0  0  0  0  0  0  0
  153.9076  140.1524  159.7937 H   0  0  0  0  0  0  0  0  0  0  0  0
  154.4454  141.8247  159.7019 H   0  0  0  0  0  0  0  0  0  0  0  0
  148.9792  142.6421  157.6319 H   0  0  0  0  0  0  0  0  0  0  0  0
  1  2  1  0  0  0  0
  1 19  1  0  0  0  0
  1 20  1  0  0  0  0
  1 21  1  0  0  0  0
  2  3  1  0  0  0  0
  2  4  1  0  0  0  0
  2 22  1  0  0  0  0
  3 23  1  0  0  0  0
  3 24  1  0  0  0  0
  3 25  1  0  0  0  0
  4  5  1  0  0  0  0
  4 26  1  0  0  0  0
  5  6  2  0  0  0  0
  5  7  1  0  0  0  0
  7 18  1  0  0  0  0
  7  8  2  0  0  0  0
  8  9  1  0  0  0  0
  8 27  1  0  0  0  0
  9 10  2  0  0  0  0
  9 28  1  0  0  0  0
 10 11  1  0  0  0  0
 10 17  1  0  0  0  0
 11 16  1  0  0  0  0
 11 12  1  0  0  0  0
 12 13  1  0  0  0  0
 12 29  1  0  0  0  0
 12 30  1  0  0  0  0
 13 14  1  0  0  0  0
 13 31  1  0  0  0  0
 13 32  1  0  0  0  0
 14 15  1  0  0  0  0
 15 16  1  0  0  0  0
 15 33  1  0  0  0  0
 15 34  1  0  0  0  0
 16 35  1  0  0  0  0
 16 36  1  0  0  0  0
 17 18  2  0  0  0  0
 18 37  1  0  0  0  0
M  END
> <s_m_source_file>
AV-unprocessed.smi

> <i_m_source_file_index>
969

> <i_lp_mmshare_version>
43012

> <i_f3d_flags>
0

> <s_epik_input>
W0NIM11bQ0hdKFtDSDNdKVtOSF1DKD1PKWMxW2NIXVtjSF1jKG5bY0hdMSlOMltDSDJdW0NIMl1PW0NIMl1bQ0gyXTI=

> <s_epik_cmdline>
J2VwaWtfcHl0aG9uJywgJy1waCcsICc3LjAnLCAnLXRuJywgJzgnLCAnLW1hJywgJzIwMCcsICctbWV0YWxfYmluZGluZycsICctaW1hZScsICc8aW5maWxlLm1hZT4nLCAnLW9tYWUnLCAnPG91dGZpbGUubWFlPic=

> <r_lp_tautomer_probability>
1

> <r_epik_Ionization_Penalty>
1.69485e-05

> <r_epik_Ionization_Penalty_Charging>
0

> <r_epik_Ionization_Penalty_Neutral>
1.69485e-05

> <r_epik_State_Penalty>
-0

> <r_epik_Charging_Adjusted_Penalty>
0

> <i_epik_Tot_Q>
0

> <i_epik_Tot_abs_Q>
0

> <r_epik_Metal_State_Penalty>
-0

> <b_epik_Metal_Only>
0

> <s_lp_Force_Field>
OPLS_2005

> <r_lp_Energy>
18.964

> <b_lp_Chiralities_Consistent>
1

> <s_lp_Variant>
AV-unprocessed.smi:969-1

> <Gold.Version>
5.8.1

> <Gold.Id.Protein>
6NUR|6NUR_protein|mol2

> <Gold.PLP.Fitness>
45.0374

> <Gold.PLP.PLP>
-40.0515

> <Gold.PLP.part.hbond>
-3.0000

> <Gold.PLP.part.metal>
0.0000

> <Gold.PLP.part.buried>
-3.1809

> <Gold.PLP.part.nonpolar>
-33.1825

> <Gold.PLP.part.repulsive>
0.3632

> <Gold.PLP.ligand.clash>
0.0000

> <Gold.PLP.ligand.torsion>
0.6512

> <Gold.PLP.Chemscore.Hbond>
0.9811

> <Gold.PLP.Chemscore.CHOScore>
1.0000

> <Gold.PLP.Chemscore.Metal>
0.0000

> <Gold.Chemscore.Hbonds>
donor molecule, donor type, donor heavy atom, donor atom, acceptor molecule, acceptor atom, score
      P1  H  7989  7998       L1     6  0.70
      L1  C    18    37       P1  8028  0.14

> <Gold.PLP.Chemscore.Internal.Correction>
0.3449

> <Gold.Rescore>
     Score         DG    S(hbond)    S(metal)    S(lipo)     H(rot)  DE(clash)    DE(int)     intcor
     14.43     -15.36       0.97        0.00      82.41       1.18       0.05       0.88       ----

> <Gold.Chemscore.Fitness>
14.4271

> <Gold.Chemscore.DG>
-15.3620

> <Gold.Chemscore.ZeroCoef>
-5.4800

> <Gold.Chemscore.Hbond>
0.9724

> <Gold.Chemscore.Metal>
0.0000

> <Gold.Chemscore.Lipo>
82.4126

> <Gold.Chemscore.Internal_Hbond>
0.0000

> <Gold.Chemscore.DEClash>
0.0530

> <Gold.Chemscore.DEInternal>
0.8819

> <Gold.Chemscore.Rot>
1.1750

> <Gold.Chemscore.Internal.Correction>
   9.000000E+99

> <Gold.Chemscore.Hbonds>
donor molecule, donor type, donor heavy atom, donor atom, acceptor molecule, acceptor atom, score
      P1  H  7989  7998       L1     6  0.72

> <Gold.Chemscore.Hbond.Weighted>
-3.2478

> <Gold.Chemscore.Metal.Weighted>
-0.0000

> <Gold.Chemscore.Lipo.Weighted>
-9.6423

> <Gold.Chemscore.Internal_Hbond.Weighted>
0.0000

> <Gold.Chemscore.DEClash.Weighted>
0.0530

> <Gold.Chemscore.DEInternal.Weighted>
0.8819

> <Gold.Chemscore.Rot.Weighted>
3.0080

> <Gold.Chemscore.Internal.Correction.Weighted>
   9.000000E+99

> <Gold.Protein.RotatedTorsions>
[ 6907 6896 6895 6894 ] final   41.16 input  -60.11 | X-H torsion
[ 7974 7965 7964 7962 ] final  -53.97 input  175.53 | X-H torsion
[ 8008 7997 7996 7995 ] final  -13.45 input   59.86 | X-H torsion
[ 10167 10162 10161 10158 ] final   -9.12 input  -65.29 | X-H torsion
[ 10718 10713 10712 10709 ] final  -58.25 input   66.30 | X-H torsion
[ 10763 10752 10751 10750 ] final  -15.95 input  -60.55 | X-H torsion
[ 11005 11000 10999 10996 ] final  172.12 input  -57.11 | X-H torsion

> <Gold.Protein.ActiveResidues>
 VAL166  LYS551  ARG553  GLY616  TRP617  ASP618  TYR619  PRO620  LYS621  CYS622 
 ASP623  PHE694  ASN695  SER759  ASP760  ASP761  ALA762  ILE779  LEU786  VAL792 
 PHE793  MET794  SER795  GLU796  ALA797  LYS798  CYS799  TRP800  GLU811  SER814 

> <Gold.Protein.RotatedAtoms>
  152.1918  134.8666  160.0516 H   0  0  0  0  0  0  0  0  0  0  0  0  # atno 6907 bound_to 6896
  151.9552  133.3673  159.4023 H   0  0  0  0  0  0  0  0  0  0  0  0  # atno 6908 bound_to 6896
  150.6936  134.4222  159.5254 H   0  0  0  0  0  0  0  0  0  0  0  0  # atno 6909 bound_to 6896
  145.8908  140.8072  142.9792 H   0  0  0  0  0  0  0  0  0  0  0  0  # atno 7974 bound_to 7965
  154.5292  140.2249  155.8835 H   0  0  0  0  0  0  0  0  0  0  0  0  # atno 8008 bound_to 7997
  156.1745  140.3114  155.8998 H   0  0  0  0  0  0  0  0  0  0  0  0  # atno 8009 bound_to 7997
  155.3488  140.0454  157.3036 H   0  0  0  0  0  0  0  0  0  0  0  0  # atno 8010 bound_to 7997
  140.7078  143.5893  150.8910 H   0  0  0  0  0  0  0  0  0  0  0  0  # atno 10167 bound_to 10162
  156.1149  130.4171  150.0551 H   0  0  0  0  0  0  0  0  0  0  0  0  # atno 10718 bound_to 10713
  153.5512  135.7011  153.5590 H   0  0  0  0  0  0  0  0  0  0  0  0  # atno 10763 bound_to 10752
  153.3513  135.3994  155.1648 H   0  0  0  0  0  0  0  0  0  0  0  0  # atno 10764 bound_to 10752
  154.8661  135.3766  154.5023 H   0  0  0  0  0  0  0  0  0  0  0  0  # atno 10765 bound_to 10752
  140.3263  134.7395  157.4102 H   0  0  0  0  0  0  0  0  0  0  0  0  # atno 11005 bound_to 11000
  144.6730  140.1527  143.7429 LP  0  0  0  0  0  0  0  0  0  0  0  0  # atno 17320 bound_to 7965
  145.8910  139.2376  143.1549 LP  0  0  0  0  0  0  0  0  0  0  0  0  # atno 17321 bound_to 7965
  139.9619  143.6154  152.3000 LP  0  0  0  0  0  0  0  0  0  0  0  0  # atno 17342 bound_to 10162
  139.6710  144.7661  151.1783 LP  0  0  0  0  0  0  0  0  0  0  0  0  # atno 17343 bound_to 10162
  156.8505  130.9457  151.3626 LP  0  0  0  0  0  0  0  0  0  0  0  0  # atno 17370 bound_to 10713
  157.6332  130.8746  149.9312 LP  0  0  0  0  0  0  0  0  0  0  0  0  # atno 17371 bound_to 10713
  140.0898  134.5616  155.8455 LP  0  0  0  0  0  0  0  0  0  0  0  0  # atno 17394 bound_to 11000
  141.2074  133.6664  156.6305 LP  0  0  0  0  0  0  0  0  0  0  0  0  # atno 17395 bound_to 11000

$$$$
