AV-unprocessed.smi:787|AV-procd|sdf|3726|dock6
  -GOLD-   22720 1153D 1   1.00000     0.00000
 Structure written by MMmdl.
 47 49  0  0  0  0  0  0  0  0  2 V2000
  147.8846  141.6383  153.9677 C   0  0  0  0  0  0  0  0  0  0  0  0
  148.9732  140.6976  153.7562 N   0  0  0  0  0  0  0  0  0  0  0  0
  149.5864  140.0569  154.8426 C   0  0  0  0  0  0  0  0  0  0  0  0
  150.9211  140.1698  155.0308 N   0  0  0  0  0  0  0  0  0  0  0  0
  151.4596  139.5433  156.0858 C   0  0  0  0  0  0  0  0  0  0  0  0
  150.8575  138.7913  157.0207 N   0  0  0  0  0  0  0  0  0  0  0  0
  149.5351  138.6715  156.8414 C   0  0  0  0  0  0  0  0  0  0  0  0
  148.6642  137.9569  157.6463 N   0  0  0  0  0  0  0  0  0  0  0  0
  147.4996  138.1608  157.0354 C   0  0  0  0  0  0  0  0  0  0  0  0
  147.5074  138.9200  155.9218 N   0  0  0  0  0  0  0  0  0  0  0  0
  146.3665  139.2670  155.0943 C   0  0  0  0  0  0  0  0  0  0  0  0
  145.6871  138.0227  154.4844 C   0  0  1  0  0  0  0  0  0  0  0  0
  144.3485  138.3369  154.1590 O   0  0  0  0  0  0  0  0  0  0  0  0
  146.3930  137.5301  153.2077 C   0  0  0  0  0  0  0  0  0  0  0  0
  146.1051  136.0966  152.9367 N   0  3  1  0  0  0  0  0  0  0  0  0
  146.0920  135.2724  154.1672 C   0  0  0  0  0  0  0  0  0  0  0  0
  144.8941  135.8792  152.1079 C   0  0  0  0  0  0  0  0  0  0  0  0
  144.9519  134.5521  151.3710 C   0  0  0  0  0  0  0  0  0  0  0  0
  143.7689  133.9816  150.8552 C   0  0  0  0  0  0  0  0  0  0  0  0
  143.8139  132.7440  150.1845 C   0  0  0  0  0  0  0  0  0  0  0  0
  145.0420  132.0743  150.0232 C   0  0  0  0  0  0  0  0  0  0  0  0
  146.2255  132.6424  150.5327 C   0  0  0  0  0  0  0  0  0  0  0  0
  146.1814  133.8793  151.2045 C   0  0  0  0  0  0  0  0  0  0  0  0
  148.8407  139.2874  155.7574 C   0  0  0  0  0  0  0  0  0  0  0  0
  147.5414  142.0320  153.0110 H   0  0  0  0  0  0  0  0  0  0  0  0
  148.2126  142.4762  154.5841 H   0  0  0  0  0  0  0  0  0  0  0  0
  147.0416  141.1509  154.4585 H   0  0  0  0  0  0  0  0  0  0  0  0
  149.2867  140.5077  152.8169 H   0  0  0  0  0  0  0  0  0  0  0  0
  152.5272  139.6597  156.2000 H   0  0  0  0  0  0  0  0  0  0  0  0
  146.5867  137.7275  157.4179 H   0  0  0  0  0  0  0  0  0  0  0  0
  145.6547  139.8375  155.6933 H   0  0  0  0  0  0  0  0  0  0  0  0
  146.7141  139.9423  154.3123 H   0  0  0  0  0  0  0  0  0  0  0  0
  145.6540  137.2190  155.2195 H   0  0  0  0  0  0  0  0  0  0  0  0
  144.3475  139.0425  153.5298 H   0  0  0  0  0  0  0  0  0  0  0  0
  146.0917  138.1254  152.3439 H   0  0  0  0  0  0  0  0  0  0  0  0
  147.4637  137.6989  153.3235 H   0  0  0  0  0  0  0  0  0  0  0  0
  145.2536  135.5437  154.8102 H   0  0  0  0  0  0  0  0  0  0  0  0
  147.0121  135.3961  154.7379 H   0  0  0  0  0  0  0  0  0  0  0  0
  146.0036  134.2140  153.9198 H   0  0  0  0  0  0  0  0  0  0  0  0
  144.0071  135.8628  152.7433 H   0  0  0  0  0  0  0  0  0  0  0  0
  144.7632  136.7076  151.4096 H   0  0  0  0  0  0  0  0  0  0  0  0
  142.8228  134.4887  150.9769 H   0  0  0  0  0  0  0  0  0  0  0  0
  142.9064  132.3080  149.7930 H   0  0  0  0  0  0  0  0  0  0  0  0
  145.0768  131.1258  149.5073 H   0  0  0  0  0  0  0  0  0  0  0  0
  147.1675  132.1288  150.4077 H   0  0  0  0  0  0  0  0  0  0  0  0
  147.0943  134.3067  151.5934 H   0  0  0  0  0  0  0  0  0  0  0  0
  146.8726  135.7565  152.3756 H   0  0  0  0  0  0  0  0  0  0  0  0
  1  2  1  0  0  0  0
  1 25  1  0  0  0  0
  1 26  1  0  0  0  0
  1 27  1  0  0  0  0
  2  3  1  0  0  0  0
  2 28  1  0  0  0  0
  3 24  1  0  0  0  0
  3  4  2  0  0  0  0
  4  5  1  0  0  0  0
  5  6  2  0  0  0  0
  5 29  1  0  0  0  0
  6  7  1  0  0  0  0
  7 24  2  0  0  0  0
  7  8  1  0  0  0  0
  8  9  2  0  0  0  0
  9 10  1  0  0  0  0
  9 30  1  0  0  0  0
 10 11  1  0  0  0  0
 10 24  1  0  0  0  0
 11 12  1  0  0  0  0
 11 31  1  0  0  0  0
 11 32  1  0  0  0  0
 12 13  1  0  0  0  0
 12 14  1  0  0  0  0
 12 33  1  0  0  0  0
 13 34  1  0  0  0  0
 14 15  1  0  0  0  0
 14 35  1  0  0  0  0
 14 36  1  0  0  0  0
 15 16  1  0  0  0  0
 15 17  1  0  0  0  0
 15 47  1  0  0  0  0
 16 37  1  0  0  0  0
 16 38  1  0  0  0  0
 16 39  1  0  0  0  0
 17 18  1  0  0  0  0
 17 40  1  0  0  0  0
 17 41  1  0  0  0  0
 18 23  1  0  0  0  0
 18 19  2  0  0  0  0
 19 20  1  0  0  0  0
 19 42  1  0  0  0  0
 20 21  2  0  0  0  0
 20 43  1  0  0  0  0
 21 22  1  0  0  0  0
 21 44  1  0  0  0  0
 22 23  2  0  0  0  0
 22 45  1  0  0  0  0
 23 46  1  0  0  0  0
M  CHG  1  15   1
M  END
> <s_m_source_file>
AV-unprocessed.smi

> <i_m_source_file_index>
787

> <i_lp_mmshare_version>
43012

> <i_f3d_flags>
0

> <s_epik_input>
bjFbY0hdbmMoW05IXVtDSDNdKWMoYzEyKW4oW2NIXW4yKVtDSDJdW0NASF0oW09IXSlbQ0gyXU4oW0NIM10pW0NIMl1jM1tjSF1bY0hdW2NIXVtjSF1bY0hdMw==

> <s_epik_cmdline>
J2VwaWtfcHl0aG9uJywgJy1waCcsICc3LjAnLCAnLXRuJywgJzgnLCAnLW1hJywgJzIwMCcsICctbWV0YWxfYmluZGluZycsICctaW1hZScsICc8aW5maWxlLm1hZT4nLCAnLW9tYWUnLCAnPG91dGZpbGUubWFlPic=

> <r_lp_tautomer_probability>
0.999987

> <r_epik_Ionization_Penalty>
0.0526284

> <r_epik_Ionization_Penalty_Charging>
0.0475377

> <r_epik_Ionization_Penalty_Neutral>
0.00509065

> <r_epik_State_Penalty>
0.0404888

> <r_epik_Charging_Adjusted_Penalty>
0.0880265

> <i_epik_Tot_Q>
1

> <i_epik_Tot_abs_Q>
1

> <r_epik_Metal_State_Penalty>
0.040507

> <b_epik_Metal_Only>
0

> <s_lp_Force_Field>
OPLS_2005

> <r_lp_Energy>
14.3877

> <b_lp_Chiralities_Consistent>
1

> <s_lp_Variant>
AV-unprocessed.smi:787-2

> <Gold.Version>
5.8.1

> <Gold.Id.Protein>
6NUR|6NUR_protein|mol2

> <Gold.PLP.Fitness>
44.7639

> <Gold.PLP.PLP>
-33.4875

> <Gold.PLP.part.hbond>
-4.0000

> <Gold.PLP.part.metal>
0.0000

> <Gold.PLP.part.buried>
-4.4174

> <Gold.PLP.part.nonpolar>
-25.3530

> <Gold.PLP.part.repulsive>
0.3229

> <Gold.PLP.ligand.clash>
0.0000

> <Gold.PLP.ligand.torsion>
1.7034

> <Gold.PLP.Chemscore.Hbond>
4.8240

> <Gold.PLP.Chemscore.CHOScore>
0.0000

> <Gold.PLP.Chemscore.Metal>
0.0000

> <Gold.Chemscore.Hbonds>
donor molecule, donor type, donor heavy atom, donor atom, acceptor molecule, acceptor atom, score
      L1  H     2    28       P1  7957  1.00
      L1  H    13    34       P1 10175  1.00
      L1  H    15    47       P1  7948  1.07
      P1  H  7989  7998       L1     4  1.00

> <Gold.PLP.Chemscore.Internal.Correction>
0.2111

> <Gold.Rescore>
     Score         DG    S(hbond)    S(metal)    S(lipo)     H(rot)  DE(clash)    DE(int)     intcor
     15.71     -17.67       3.58        0.00      71.80       3.19       0.25       1.71       ----

> <Gold.Chemscore.Fitness>
15.7061

> <Gold.Chemscore.DG>
-17.6664

> <Gold.Chemscore.ZeroCoef>
-5.4800

> <Gold.Chemscore.Hbond>
3.5806

> <Gold.Chemscore.Metal>
0.0000

> <Gold.Chemscore.Lipo>
71.8026

> <Gold.Chemscore.Internal_Hbond>
0.0000

> <Gold.Chemscore.DEClash>
0.2518

> <Gold.Chemscore.DEInternal>
1.7086

> <Gold.Chemscore.Rot>
3.1928

> <Gold.Chemscore.Internal.Correction>
   9.000000E+99

> <Gold.Chemscore.Hbonds>
donor molecule, donor type, donor heavy atom, donor atom, acceptor molecule, acceptor atom, score
      L1  H     2    28       P1  7957  1.00
      L1  H    13    34       P1 10175  0.99
      L1  H    15    47       P1  7948  0.52
      P1  H  7989  7998       L1     4  0.65

> <Gold.Chemscore.Hbond.Weighted>
-11.9591

> <Gold.Chemscore.Metal.Weighted>
-0.0000

> <Gold.Chemscore.Lipo.Weighted>
-8.4009

> <Gold.Chemscore.Internal_Hbond.Weighted>
0.0000

> <Gold.Chemscore.DEClash.Weighted>
0.2518

> <Gold.Chemscore.DEInternal.Weighted>
1.7086

> <Gold.Chemscore.Rot.Weighted>
8.1736

> <Gold.Chemscore.Internal.Correction.Weighted>
   9.000000E+99

> <Gold.Protein.RotatedTorsions>
[ 6907 6896 6895 6894 ] final   68.23 input  -60.11 | X-H torsion
[ 7974 7965 7964 7962 ] final -153.12 input  175.53 | X-H torsion
[ 8008 7997 7996 7995 ] final  -73.87 input   59.86 | X-H torsion
[ 10167 10162 10161 10158 ] final   92.60 input  -65.29 | X-H torsion
[ 10718 10713 10712 10709 ] final   -7.39 input   66.30 | X-H torsion
[ 10763 10752 10751 10750 ] final  -61.42 input  -60.55 | X-H torsion
[ 11005 11000 10999 10996 ] final    7.35 input  -57.11 | X-H torsion

> <Gold.Protein.ActiveResidues>
 VAL166  LYS551  ARG553  GLY616  TRP617  ASP618  TYR619  PRO620  LYS621  CYS622 
 ASP623  PHE694  ASN695  SER759  ASP760  ASP761  ALA762  ILE779  LEU786  VAL792 
 PHE793  MET794  SER795  GLU796  ALA797  LYS798  CYS799  TRP800  GLU811  SER814 

> <Gold.Protein.RotatedAtoms>
  152.4606  134.5192  159.9777 H   0  0  0  0  0  0  0  0  0  0  0  0  # atno 6907 bound_to 6896
  151.5242  133.3455  159.2914 H   0  0  0  0  0  0  0  0  0  0  0  0  # atno 6908 bound_to 6896
  150.8568  134.7938  159.7114 H   0  0  0  0  0  0  0  0  0  0  0  0  # atno 6909 bound_to 6896
  144.7757  140.4568  143.5875 H   0  0  0  0  0  0  0  0  0  0  0  0  # atno 7974 bound_to 7965
  154.5283  140.0771  156.8299 H   0  0  0  0  0  0  0  0  0  0  0  0  # atno 8008 bound_to 7997
  155.3428  140.3408  155.4221 H   0  0  0  0  0  0  0  0  0  0  0  0  # atno 8009 bound_to 7997
  156.1755  140.1634  156.8357 H   0  0  0  0  0  0  0  0  0  0  0  0  # atno 8010 bound_to 7997
  139.8261  144.6709  150.9458 H   0  0  0  0  0  0  0  0  0  0  0  0  # atno 10167 bound_to 10162
  156.7180  130.5142  149.5875 H   0  0  0  0  0  0  0  0  0  0  0  0  # atno 10718 bound_to 10713
  154.2843  135.6266  153.5359 H   0  0  0  0  0  0  0  0  0  0  0  0  # atno 10763 bound_to 10752
  152.9861  135.5640  154.5460 H   0  0  0  0  0  0  0  0  0  0  0  0  # atno 10764 bound_to 10752
  154.5058  135.2874  155.1359 H   0  0  0  0  0  0  0  0  0  0  0  0  # atno 10765 bound_to 10752
  140.5492  134.0300  155.7931 H   0  0  0  0  0  0  0  0  0  0  0  0  # atno 11005 bound_to 11000
  145.6193  139.1522  143.3032 LP  0  0  0  0  0  0  0  0  0  0  0  0  # atno 17320 bound_to 7965
  146.1935  140.6304  142.9135 LP  0  0  0  0  0  0  0  0  0  0  0  0  # atno 17321 bound_to 7965
  140.7810  143.4045  151.1093 LP  0  0  0  0  0  0  0  0  0  0  0  0  # atno 17342 bound_to 10162
  139.7702  143.8505  152.3119 LP  0  0  0  0  0  0  0  0  0  0  0  0  # atno 17343 bound_to 10162
  156.1615  130.6377  151.0724 LP  0  0  0  0  0  0  0  0  0  0  0  0  # atno 17370 bound_to 10713
  157.6910  131.0810  150.7108 LP  0  0  0  0  0  0  0  0  0  0  0  0  # atno 17371 bound_to 10713
  141.1182  133.9505  157.2782 LP  0  0  0  0  0  0  0  0  0  0  0  0  # atno 17394 bound_to 11000
  139.9464  135.0183  156.8864 LP  0  0  0  0  0  0  0  0  0  0  0  0  # atno 17395 bound_to 11000

$$$$
