AV-unprocessed.smi:2124|AV-procd|sdf|8673|dock3
  -GOLD-   2272011423D 1   1.00000     0.00000
 Structure written by MMmdl.
 46 48  0  0  0  0  0  0  0  0  2 V2000
  145.9228  149.9023  158.1036 C   0  0  0  0  0  0  0  0  0  0  0  0
  145.7732  148.5190  158.6998 C   0  0  0  0  0  0  0  0  0  0  0  0
  144.9387  147.7018  158.1799 N   0  0  0  0  0  0  0  0  0  0  0  0
  144.7963  146.4163  158.7289 C   0  0  0  0  0  0  0  0  0  0  0  0
  143.7870  145.5113  158.0441 C   0  0  0  0  0  0  0  0  0  0  0  0
  145.5303  146.0250  159.8099 C   0  0  0  0  0  0  0  0  0  0  0  0
  145.4102  144.6388  160.4420 C   0  0  0  0  0  0  0  0  0  0  0  0
  146.6507  143.7495  160.3321 C   0  0  0  0  0  0  0  0  0  0  0  0
  146.7652  142.7512  161.0435 O   0  0  0  0  0  0  0  0  0  0  0  0
  147.5713  144.1283  159.4315 N   0  0  0  0  0  0  0  0  0  0  0  0
  148.8238  143.4354  159.1332 C   0  0  1  0  0  0  0  0  0  0  0  0
  148.6726  142.7110  157.7869 C   0  0  0  0  0  0  0  0  0  0  0  0
  149.9952  144.4477  159.1345 C   0  0  1  0  0  0  0  0  0  0  0  0
  150.3834  144.9977  160.5270 C   0  0  0  0  0  0  0  0  0  0  0  0
  151.9120  144.8167  160.5590 C   0  0  1  0  0  0  0  0  0  0  0  0
  152.2351  143.3237  160.7506 C   0  0  0  0  0  0  0  0  0  0  0  0
  151.8762  142.7228  159.3797 C   0  0  0  0  0  0  0  0  0  0  0  0
  151.3576  143.9452  158.5942 C   0  0  2  0  0  0  0  0  0  0  0  0
  152.2945  145.0376  159.1003 C   0  0  0  0  0  0  0  0  0  0  0  0
  146.4779  146.9983  160.3823 C   0  0  0  0  0  0  0  0  0  0  0  0
  147.1564  146.7017  161.3650 O   0  0  0  0  0  0  0  0  0  0  0  0
  146.5652  148.2216  159.7861 N   0  5  0  0  0  0  0  0  0  0  0  0
  145.1121  150.1193  157.4068 H   0  0  0  0  0  0  0  0  0  0  0  0
  146.8682  149.9793  157.5658 H   0  0  0  0  0  0  0  0  0  0  0  0
  145.9074  150.6602  158.8875 H   0  0  0  0  0  0  0  0  0  0  0  0
  144.2822  144.6358  157.6244 H   0  0  0  0  0  0  0  0  0  0  0  0
  143.2804  146.0308  157.2300 H   0  0  0  0  0  0  0  0  0  0  0  0
  143.0272  145.1773  158.7506 H   0  0  0  0  0  0  0  0  0  0  0  0
  145.1612  144.7671  161.4959 H   0  0  0  0  0  0  0  0  0  0  0  0
  144.5635  144.0934  160.0248 H   0  0  0  0  0  0  0  0  0  0  0  0
  147.3838  144.9661  158.9000 H   0  0  0  0  0  0  0  0  0  0  0  0
  149.0050  142.6771  159.8950 H   0  0  0  0  0  0  0  0  0  0  0  0
  149.5594  142.1233  157.5504 H   0  0  0  0  0  0  0  0  0  0  0  0
  148.5114  143.4164  156.9713 H   0  0  0  0  0  0  0  0  0  0  0  0
  147.8258  142.0239  157.8059 H   0  0  0  0  0  0  0  0  0  0  0  0
  149.6960  145.2944  158.5137 H   0  0  0  0  0  0  0  0  0  0  0  0
  150.1095  146.0501  160.6124 H   0  0  0  0  0  0  0  0  0  0  0  0
  149.9025  144.4650  161.3481 H   0  0  0  0  0  0  0  0  0  0  0  0
  152.4153  145.4682  161.2738 H   0  0  0  0  0  0  0  0  0  0  0  0
  153.2938  143.1777  160.9683 H   0  0  0  0  0  0  0  0  0  0  0  0
  151.6616  142.8765  161.5636 H   0  0  0  0  0  0  0  0  0  0  0  0
  152.7695  142.3187  158.9020 H   0  0  0  0  0  0  0  0  0  0  0  0
  151.1546  141.9100  159.4486 H   0  0  0  0  0  0  0  0  0  0  0  0
  151.3741  143.8068  157.5130 H   0  0  0  0  0  0  0  0  0  0  0  0
  152.0418  146.0336  158.7322 H   0  0  0  0  0  0  0  0  0  0  0  0
  153.3475  144.8373  158.8942 H   0  0  0  0  0  0  0  0  0  0  0  0
  1  2  1  0  0  0  0
  1 23  1  0  0  0  0
  1 24  1  0  0  0  0
  1 25  1  0  0  0  0
  2 22  1  0  0  0  0
  2  3  2  0  0  0  0
  3  4  1  0  0  0  0
  4  5  1  0  0  0  0
  4  6  2  0  0  0  0
  5 26  1  0  0  0  0
  5 27  1  0  0  0  0
  5 28  1  0  0  0  0
  6  7  1  0  0  0  0
  6 20  1  0  0  0  0
  7  8  1  0  0  0  0
  7 29  1  0  0  0  0
  7 30  1  0  0  0  0
  8  9  2  0  0  0  0
  8 10  1  0  0  0  0
 10 11  1  0  0  0  0
 10 31  1  0  0  0  0
 11 12  1  0  0  0  0
 11 13  1  0  0  0  0
 11 32  1  0  0  0  0
 12 33  1  0  0  0  0
 12 34  1  0  0  0  0
 12 35  1  0  0  0  0
 13 18  1  0  0  0  0
 13 14  1  0  0  0  0
 13 36  1  0  0  0  0
 14 15  1  0  0  0  0
 14 37  1  0  0  0  0
 14 38  1  0  0  0  0
 15 19  1  0  0  0  0
 15 16  1  0  0  0  0
 15 39  1  0  0  0  0
 16 17  1  0  0  0  0
 16 40  1  0  0  0  0
 16 41  1  0  0  0  0
 17 18  1  0  0  0  0
 17 42  1  0  0  0  0
 17 43  1  0  0  0  0
 18 19  1  0  0  0  0
 18 44  1  0  0  0  0
 19 45  1  0  0  0  0
 19 46  1  0  0  0  0
 20 21  2  0  0  0  0
 20 22  1  0  0  0  0
M  CHG  1  22  -1
M  END
> <s_m_source_file>
AV-unprocessed.smi

> <i_m_source_file_index>
2124

> <i_lp_mmshare_version>
43012

> <i_f3d_flags>
0

> <s_epik_input>
W0NIM11jMW5jKFtDSDNdKWMoYyg9TylbbkhdMSlbQ0gyXUMoPU8pW05IXVtDQEhdKFtDSDNdKVtDQEhdKFtDSDJdW0NASF0yMylbQ0BIXShbQ0gyXTMpW0NIMl1bQ0gyXTI=

> <s_epik_cmdline>
J2VwaWtfcHl0aG9uJywgJy1waCcsICc3LjAnLCAnLXRuJywgJzgnLCAnLW1hJywgJzIwMCcsICctbWV0YWxfYmluZGluZycsICctaW1hZScsICc8aW5maWxlLm1hZT4nLCAnLW9tYWUnLCAnPG91dGZpbGUubWFlPic=

> <r_lp_tautomer_probability>
0.839158

> <r_epik_Ionization_Penalty>
6.63797

> <r_epik_Ionization_Penalty_Charging>
7.48558e-08

> <r_epik_Ionization_Penalty_Neutral>
6.63797

> <r_epik_State_Penalty>
4.49496

> <r_epik_Charging_Adjusted_Penalty>
4.49496

> <i_epik_Tot_Q>
-1

> <i_epik_Tot_abs_Q>
1

> <r_epik_Metal_State_Penalty>
0.841241

> <b_epik_Metal_Only>
1

> <s_lp_Force_Field>
OPLS_2005

> <r_lp_Energy>
55.5119

> <b_lp_Chiralities_Consistent>
1

> <s_lp_Variant>
AV-unprocessed.smi:2124-24

> <Gold.Version>
5.8.1

> <Gold.Id.Protein>
6NUR|6NUR_protein|mol2

> <Gold.PLP.Fitness>
51.1189

> <Gold.PLP.PLP>
-45.4768

> <Gold.PLP.part.hbond>
-6.2967

> <Gold.PLP.part.metal>
0.0000

> <Gold.PLP.part.buried>
-2.5155

> <Gold.PLP.part.nonpolar>
-37.3717

> <Gold.PLP.part.repulsive>
0.5698

> <Gold.PLP.ligand.clash>
0.0000

> <Gold.PLP.ligand.torsion>
0.5121

> <Gold.PLP.Chemscore.Hbond>
2.2155

> <Gold.PLP.Chemscore.CHOScore>
0.0000

> <Gold.PLP.Chemscore.Metal>
0.0000

> <Gold.Chemscore.Hbonds>
donor molecule, donor type, donor heavy atom, donor atom, acceptor molecule, acceptor atom, score
      L1  H    10    31       P1  8029  0.88
      P1  H  6933  6944       L1     9  0.83
      P1  H  6934  6946       L1     9  0.77

> <Gold.PLP.Chemscore.Internal.Correction>
0.0199

> <Gold.Rescore>
     Score         DG    S(hbond)    S(metal)    S(lipo)     H(rot)  DE(clash)    DE(int)     intcor
     18.45     -21.54       2.43        0.00     102.98       1.61       2.77       0.33       ----

> <Gold.Chemscore.Fitness>
18.4459

> <Gold.Chemscore.DG>
-21.5395

> <Gold.Chemscore.ZeroCoef>
-5.4800

> <Gold.Chemscore.Hbond>
2.4313

> <Gold.Chemscore.Metal>
0.0000

> <Gold.Chemscore.Lipo>
102.9754

> <Gold.Chemscore.Internal_Hbond>
0.0000

> <Gold.Chemscore.DEClash>
2.7683

> <Gold.Chemscore.DEInternal>
0.3254

> <Gold.Chemscore.Rot>
1.6051

> <Gold.Chemscore.Internal.Correction>
   9.000000E+99

> <Gold.Chemscore.Hbonds>
donor molecule, donor type, donor heavy atom, donor atom, acceptor molecule, acceptor atom, score
      L1  H    10    31       P1  8029  0.86
      P1  H  6933  6944       L1     9  0.72
      P1  H  6934  6946       L1     9  0.76

> <Gold.Chemscore.Hbond.Weighted>
-8.1204

> <Gold.Chemscore.Metal.Weighted>
-0.0000

> <Gold.Chemscore.Lipo.Weighted>
-12.0481

> <Gold.Chemscore.Internal_Hbond.Weighted>
0.0000

> <Gold.Chemscore.DEClash.Weighted>
2.7683

> <Gold.Chemscore.DEInternal.Weighted>
0.3254

> <Gold.Chemscore.Rot.Weighted>
4.1090

> <Gold.Chemscore.Internal.Correction.Weighted>
   9.000000E+99

> <Gold.Protein.RotatedTorsions>
[ 6907 6896 6895 6894 ] final -151.41 input  -60.11 | X-H torsion
[ 7974 7965 7964 7962 ] final  -48.76 input  175.53 | X-H torsion
[ 8008 7997 7996 7995 ] final  164.19 input   59.86 | X-H torsion
[ 10167 10162 10161 10158 ] final -149.06 input  -65.29 | X-H torsion
[ 10718 10713 10712 10709 ] final -128.57 input   66.30 | X-H torsion
[ 10763 10752 10751 10750 ] final -126.44 input  -60.55 | X-H torsion
[ 11005 11000 10999 10996 ] final  -68.82 input  -57.11 | X-H torsion

> <Gold.Protein.ActiveResidues>
 VAL166  LYS551  ARG553  GLY616  TRP617  ASP618  TYR619  PRO620  LYS621  CYS622 
 ASP623  PHE694  ASN695  SER759  ASP760  ASP761  ALA762  ILE779  LEU786  VAL792 
 PHE793  MET794  SER795  GLU796  ALA797  LYS798  CYS799  TRP800  GLU811  SER814 

> <Gold.Protein.RotatedAtoms>
  151.2127  133.4547  159.2598 H   0  0  0  0  0  0  0  0  0  0  0  0  # atno 6907 bound_to 6896
  151.0961  134.9945  159.8436 H   0  0  0  0  0  0  0  0  0  0  0  0  # atno 6908 bound_to 6896
  152.5439  134.2057  159.8783 H   0  0  0  0  0  0  0  0  0  0  0  0  # atno 6909 bound_to 6896
  145.9477  140.7602  142.9520 H   0  0  0  0  0  0  0  0  0  0  0  0  # atno 7974 bound_to 7965
  156.1899  140.1703  156.8112 H   0  0  0  0  0  0  0  0  0  0  0  0  # atno 8008 bound_to 7997
  154.5458  140.0727  156.8619 H   0  0  0  0  0  0  0  0  0  0  0  0  # atno 8009 bound_to 7997
  155.3124  140.3368  155.4246 H   0  0  0  0  0  0  0  0  0  0  0  0  # atno 8010 bound_to 7997
  139.7476  143.8567  152.2578 H   0  0  0  0  0  0  0  0  0  0  0  0  # atno 10167 bound_to 10162
  156.1963  130.6828  151.0486 H   0  0  0  0  0  0  0  0  0  0  0  0  # atno 10718 bound_to 10713
  154.8745  135.3995  154.3432 H   0  0  0  0  0  0  0  0  0  0  0  0  # atno 10763 bound_to 10752
  153.4228  135.7023  153.6288 H   0  0  0  0  0  0  0  0  0  0  0  0  # atno 10764 bound_to 10752
  153.4942  135.3741  155.2477 H   0  0  0  0  0  0  0  0  0  0  0  0  # atno 10765 bound_to 10752
  141.1540  133.6750  156.6505 H   0  0  0  0  0  0  0  0  0  0  0  0  # atno 11005 bound_to 11000
  144.6790  140.2384  143.7347 LP  0  0  0  0  0  0  0  0  0  0  0  0  # atno 17320 bound_to 7965
  145.8214  139.2045  143.1936 LP  0  0  0  0  0  0  0  0  0  0  0  0  # atno 17321 bound_to 7965
  139.8536  144.7152  150.9184 LP  0  0  0  0  0  0  0  0  0  0  0  0  # atno 17342 bound_to 10162
  140.7794  143.3878  151.1364 LP  0  0  0  0  0  0  0  0  0  0  0  0  # atno 17343 bound_to 10162
  157.6960  131.0794  150.6968 LP  0  0  0  0  0  0  0  0  0  0  0  0  # atno 17370 bound_to 10713
  156.7025  130.4627  149.5569 LP  0  0  0  0  0  0  0  0  0  0  0  0  # atno 17371 bound_to 10713
  140.3324  134.7918  157.4336 LP  0  0  0  0  0  0  0  0  0  0  0  0  # atno 17394 bound_to 11000
  140.1006  134.5478  155.8357 LP  0  0  0  0  0  0  0  0  0  0  0  0  # atno 17395 bound_to 11000

$$$$
