AV-unprocessed.smi:393|AV-procd|sdf|2484|dock4
  -GOLD-   2262022423D 1   1.00000     0.00000
 Structure written by MMmdl.
 43 44  0  0  0  0  0  0  0  0  1 V2000
  144.3128  135.4877  151.3446 C   0  0  0  0  0  0  0  0  0  0  0  0
  145.5316  136.4140  151.2722 C   0  0  0  0  0  0  0  0  0  0  0  0
  145.5503  137.4521  152.4033 C   0  0  0  0  0  0  0  0  0  0  0  0
  146.5742  138.5734  152.1557 C   0  0  0  0  0  0  0  0  0  0  0  0
  146.7956  139.4360  153.3999 C   0  0  0  0  0  0  0  0  0  0  0  0
  145.9694  139.4308  154.3125 O   0  0  0  0  0  0  0  0  0  0  0  0
  147.9204  140.1670  153.4292 N   0  0  0  0  0  0  0  0  0  0  0  0
  148.3416  141.0070  154.5463 C   0  0  0  0  0  0  0  0  0  0  0  0
  149.6828  140.6252  155.1613 C   0  0  0  0  0  0  0  0  0  0  0  0
  150.4218  139.5603  154.6108 C   0  0  0  0  0  0  0  0  0  0  0  0
  151.6605  139.2315  155.1909 C   0  0  0  0  0  0  0  0  0  0  0  0
  152.1751  139.8817  156.2551 N   0  0  0  0  0  0  0  0  0  0  0  0
  151.4687  140.8996  156.8058 C   0  0  0  0  0  0  0  0  0  0  0  0
  152.0188  141.5701  157.9201 N   0  0  0  0  0  0  0  0  0  0  0  0
  151.4228  142.8638  158.2444 C   0  0  0  0  0  0  0  0  0  0  0  0
  152.3053  143.6222  159.2507 C   0  0  0  0  0  0  0  0  0  0  0  0
  152.5294  142.8138  160.4009 O   0  0  0  0  0  0  0  0  0  0  0  0
  153.2124  141.6080  160.0744 C   0  0  0  0  0  0  0  0  0  0  0  0
  152.3608  140.7773  159.0996 C   0  0  0  0  0  0  0  0  0  0  0  0
  150.2150  141.2989  156.2841 C   0  0  0  0  0  0  0  0  0  0  0  0
  144.3318  134.7555  150.5372 H   0  0  0  0  0  0  0  0  0  0  0  0
  143.3843  136.0526  151.2598 H   0  0  0  0  0  0  0  0  0  0  0  0
  144.2887  134.9418  152.2881 H   0  0  0  0  0  0  0  0  0  0  0  0
  146.4411  135.8136  151.3114 H   0  0  0  0  0  0  0  0  0  0  0  0
  145.5394  136.9239  150.3083 H   0  0  0  0  0  0  0  0  0  0  0  0
  144.5527  137.8797  152.5144 H   0  0  0  0  0  0  0  0  0  0  0  0
  145.7779  136.9523  153.3465 H   0  0  0  0  0  0  0  0  0  0  0  0
  147.5229  138.1417  151.8326 H   0  0  0  0  0  0  0  0  0  0  0  0
  146.2334  139.2186  151.3454 H   0  0  0  0  0  0  0  0  0  0  0  0
  148.5432  140.1151  152.6364 H   0  0  0  0  0  0  0  0  0  0  0  0
  148.4108  142.0346  154.1894 H   0  0  0  0  0  0  0  0  0  0  0  0
  147.5706  140.9998  155.3188 H   0  0  0  0  0  0  0  0  0  0  0  0
  150.0535  139.0102  153.7571 H   0  0  0  0  0  0  0  0  0  0  0  0
  152.2554  138.4249  154.7890 H   0  0  0  0  0  0  0  0  0  0  0  0
  151.2866  143.4821  157.3584 H   0  0  0  0  0  0  0  0  0  0  0  0
  150.4325  142.6971  158.6698 H   0  0  0  0  0  0  0  0  0  0  0  0
  153.2578  143.9022  158.7982 H   0  0  0  0  0  0  0  0  0  0  0  0
  151.8152  144.5464  159.5567 H   0  0  0  0  0  0  0  0  0  0  0  0
  154.1879  141.8358  159.6414 H   0  0  0  0  0  0  0  0  0  0  0  0
  153.3940  141.0434  160.9888 H   0  0  0  0  0  0  0  0  0  0  0  0
  151.4443  140.4477  159.5913 H   0  0  0  0  0  0  0  0  0  0  0  0
  152.9151  139.8845  158.8076 H   0  0  0  0  0  0  0  0  0  0  0  0
  149.6773  142.1243  156.7256 H   0  0  0  0  0  0  0  0  0  0  0  0
  1  2  1  0  0  0  0
  1 21  1  0  0  0  0
  1 22  1  0  0  0  0
  1 23  1  0  0  0  0
  2  3  1  0  0  0  0
  2 24  1  0  0  0  0
  2 25  1  0  0  0  0
  3  4  1  0  0  0  0
  3 26  1  0  0  0  0
  3 27  1  0  0  0  0
  4  5  1  0  0  0  0
  4 28  1  0  0  0  0
  4 29  1  0  0  0  0
  5  6  2  0  0  0  0
  5  7  1  0  0  0  0
  7  8  1  0  0  0  0
  7 30  1  0  0  0  0
  8  9  1  0  0  0  0
  8 31  1  0  0  0  0
  8 32  1  0  0  0  0
  9 20  1  0  0  0  0
  9 10  2  0  0  0  0
 10 11  1  0  0  0  0
 10 33  1  0  0  0  0
 11 12  2  0  0  0  0
 11 34  1  0  0  0  0
 12 13  1  0  0  0  0
 13 14  1  0  0  0  0
 13 20  2  0  0  0  0
 14 19  1  0  0  0  0
 14 15  1  0  0  0  0
 15 16  1  0  0  0  0
 15 35  1  0  0  0  0
 15 36  1  0  0  0  0
 16 17  1  0  0  0  0
 16 37  1  0  0  0  0
 16 38  1  0  0  0  0
 17 18  1  0  0  0  0
 18 19  1  0  0  0  0
 18 39  1  0  0  0  0
 18 40  1  0  0  0  0
 19 41  1  0  0  0  0
 19 42  1  0  0  0  0
 20 43  1  0  0  0  0
M  END
> <s_m_source_file>
AV-unprocessed.smi

> <i_m_source_file_index>
393

> <i_lp_mmshare_version>
43012

> <i_f3d_flags>
0

> <s_epik_input>
W0NIM11bQ0gyXVtDSDJdW0NIMl1DKD1PKVtOSF1bQ0gyXWMxW2NIXVtjSF1uYyhbY0hdMSlOMltDSDJdW0NIMl1PW0NIMl1bQ0gyXTI=

> <s_epik_cmdline>
J2VwaWtfcHl0aG9uJywgJy1waCcsICc3LjAnLCAnLXRuJywgJzgnLCAnLW1hJywgJzIwMCcsICctbWV0YWxfYmluZGluZycsICctaW1hZScsICc8aW5maWxlLm1hZT4nLCAnLW9tYWUnLCAnPG91dGZpbGUubWFlPic=

> <r_lp_tautomer_probability>
1

> <r_epik_Ionization_Penalty>
0.00585334

> <r_epik_Ionization_Penalty_Charging>
0

> <r_epik_Ionization_Penalty_Neutral>
0.00585334

> <r_epik_State_Penalty>
0.00430121

> <r_epik_Charging_Adjusted_Penalty>
0.00430121

> <i_epik_Tot_Q>
0

> <i_epik_Tot_abs_Q>
0

> <r_epik_Metal_State_Penalty>
-0

> <b_epik_Metal_Only>
0

> <s_lp_Force_Field>
OPLS_2005

> <r_lp_Energy>
14.3492

> <b_lp_Chiralities_Consistent>
1

> <s_lp_Variant>
AV-unprocessed.smi:393-1

> <Gold.Version>
5.8.1

> <Gold.Id.Protein>
6NUR|6NUR_protein|mol2

> <Gold.PLP.Fitness>
47.1373

> <Gold.PLP.PLP>
-42.0086

> <Gold.PLP.part.hbond>
-1.9806

> <Gold.PLP.part.metal>
0.0000

> <Gold.PLP.part.buried>
0.1986

> <Gold.PLP.part.nonpolar>
-40.0359

> <Gold.PLP.part.repulsive>
0.2617

> <Gold.PLP.ligand.clash>
0.0000

> <Gold.PLP.ligand.torsion>
0.5628

> <Gold.PLP.Chemscore.Hbond>
1.9588

> <Gold.PLP.Chemscore.CHOScore>
0.0000

> <Gold.PLP.Chemscore.Metal>
0.0000

> <Gold.Chemscore.Hbonds>
donor molecule, donor type, donor heavy atom, donor atom, acceptor molecule, acceptor atom, score
      L1  H     7    30       P1  7957  1.00
      P1  H  7997  8009       L1    12  0.63

> <Gold.PLP.Chemscore.Internal.Correction>
0.3780

> <Gold.Rescore>
     Score         DG    S(hbond)    S(metal)    S(lipo)     H(rot)  DE(clash)    DE(int)     intcor
     17.71     -18.84       1.78        0.00     101.97       1.77       0.56       0.57       ----

> <Gold.Chemscore.Fitness>
17.7091

> <Gold.Chemscore.DG>
-18.8390

> <Gold.Chemscore.ZeroCoef>
-5.4800

> <Gold.Chemscore.Hbond>
1.7830

> <Gold.Chemscore.Metal>
0.0000

> <Gold.Chemscore.Lipo>
101.9721

> <Gold.Chemscore.Internal_Hbond>
0.0000

> <Gold.Chemscore.DEClash>
0.5610

> <Gold.Chemscore.DEInternal>
0.5690

> <Gold.Chemscore.Rot>
1.7684

> <Gold.Chemscore.Internal.Correction>
   9.000000E+99

> <Gold.Chemscore.Hbonds>
donor molecule, donor type, donor heavy atom, donor atom, acceptor molecule, acceptor atom, score
      L1  H     7    30       P1  7957  1.00
      P1  H  7997  8009       L1    12  0.54

> <Gold.Chemscore.Hbond.Weighted>
-5.9554

> <Gold.Chemscore.Metal.Weighted>
-0.0000

> <Gold.Chemscore.Lipo.Weighted>
-11.9307

> <Gold.Chemscore.Internal_Hbond.Weighted>
0.0000

> <Gold.Chemscore.DEClash.Weighted>
0.5610

> <Gold.Chemscore.DEInternal.Weighted>
0.5690

> <Gold.Chemscore.Rot.Weighted>
4.5271

> <Gold.Chemscore.Internal.Correction.Weighted>
   9.000000E+99

> <Gold.Protein.RotatedTorsions>
[ 6907 6896 6895 6894 ] final  -19.70 input  -60.11 | X-H torsion
[ 7974 7965 7964 7962 ] final   41.94 input  175.53 | X-H torsion
[ 8008 7997 7996 7995 ] final -157.69 input   59.86 | X-H torsion
[ 10167 10162 10161 10158 ] final  -96.20 input  -65.29 | X-H torsion
[ 10718 10713 10712 10709 ] final -158.61 input   66.30 | X-H torsion
[ 10763 10752 10751 10750 ] final   92.88 input  -60.55 | X-H torsion
[ 11005 11000 10999 10996 ] final   23.20 input  -57.11 | X-H torsion

> <Gold.Protein.ActiveResidues>
 VAL166  LYS551  ARG553  GLY616  TRP617  ASP618  TYR619  PRO620  LYS621  CYS622 
 ASP623  PHE694  ASN695  SER759  ASP760  ASP761  ALA762  ILE779  LEU786  VAL792 
 PHE793  MET794  SER795  GLU796  ALA797  LYS798  CYS799  TRP800  GLU811  SER814 

> <Gold.Protein.RotatedAtoms>
  151.2592  135.0648  159.9091 H   0  0  0  0  0  0  0  0  0  0  0  0  # atno 6907 bound_to 6896
  152.5368  134.0249  159.8008 H   0  0  0  0  0  0  0  0  0  0  0  0  # atno 6908 bound_to 6896
  151.0469  133.5608  159.2677 H   0  0  0  0  0  0  0  0  0  0  0  0  # atno 6909 bound_to 6896
  146.0782  139.5358  142.9554 H   0  0  0  0  0  0  0  0  0  0  0  0  # atno 7974 bound_to 7965
  155.7362  140.0808  157.2266 H   0  0  0  0  0  0  0  0  0  0  0  0  # atno 8008 bound_to 7997
  154.4027  140.1586  156.2620 H   0  0  0  0  0  0  0  0  0  0  0  0  # atno 8009 bound_to 7997
  155.9063  140.3406  155.6067 H   0  0  0  0  0  0  0  0  0  0  0  0  # atno 8010 bound_to 7997
  140.2963  143.3190  152.0294 H   0  0  0  0  0  0  0  0  0  0  0  0  # atno 10167 bound_to 10162
  156.5566  130.8628  151.2796 H   0  0  0  0  0  0  0  0  0  0  0  0  # atno 10718 bound_to 10713
  153.2241  135.4345  155.0522 H   0  0  0  0  0  0  0  0  0  0  0  0  # atno 10763 bound_to 10752
  154.8265  135.3363  154.6883 H   0  0  0  0  0  0  0  0  0  0  0  0  # atno 10764 bound_to 10752
  153.7314  135.7011  153.5044 H   0  0  0  0  0  0  0  0  0  0  0  0  # atno 10765 bound_to 10752
  140.3722  134.2010  155.7666 H   0  0  0  0  0  0  0  0  0  0  0  0  # atno 11005 bound_to 11000
  145.6267  141.0312  143.1885 LP  0  0  0  0  0  0  0  0  0  0  0  0  # atno 17320 bound_to 7965
  144.7275  139.7828  143.7359 LP  0  0  0  0  0  0  0  0  0  0  0  0  # atno 17321 bound_to 7965
  139.4925  144.6488  151.6720 LP  0  0  0  0  0  0  0  0  0  0  0  0  # atno 17342 bound_to 10162
  140.5689  144.0142  150.6207 LP  0  0  0  0  0  0  0  0  0  0  0  0  # atno 17343 bound_to 10162
  157.7377  130.9800  150.2208 LP  0  0  0  0  0  0  0  0  0  0  0  0  # atno 17370 bound_to 10713
  156.2836  130.3736  149.7910 LP  0  0  0  0  0  0  0  0  0  0  0  0  # atno 17371 bound_to 10713
  141.1951  133.8114  157.0730 LP  0  0  0  0  0  0  0  0  0  0  0  0  # atno 17394 bound_to 11000
  140.0543  134.9789  157.1192 LP  0  0  0  0  0  0  0  0  0  0  0  0  # atno 17395 bound_to 11000

$$$$
