AV-unprocessed.smi:1696|AV-procd|sdf|6802|dock3
  -GOLD-   22720 7573D 1   1.00000     0.00000
 Structure written by MMmdl.
 38 39  0  0  0  0  0  0  0  0  3 V2000
  149.4016  131.6666  154.1231 C   0  0  0  0  0  0  0  0  0  0  0  0
  149.3964  133.2025  154.0672 C   0  0  0  0  0  0  0  0  0  0  0  0
  147.9879  133.8506  154.1543 C   0  0  1  0  0  0  0  0  0  0  0  0
  147.9589  135.0947  155.0794 C   0  0  0  0  0  0  0  0  0  0  0  0
  148.8990  136.1224  154.6407 N   0  0  0  0  0  0  0  0  0  0  0  0
  149.8743  136.6795  155.3724 C   0  0  0  0  0  0  0  0  0  0  0  0
  150.0631  136.3154  156.5351 O   0  0  0  0  0  0  0  0  0  0  0  0
  150.5692  137.6292  154.7075 N   0  5  0  0  0  0  0  0  0  0  0  0
  150.1977  138.9169  154.7931 C   0  0  0  0  0  0  0  0  0  0  0  0
  149.0926  139.3983  154.2125 N   0  0  0  0  0  0  0  0  0  0  0  0
  148.9040  140.7649  154.4262 C   0  0  0  0  0  0  0  0  0  0  0  0
  149.8932  141.3393  155.1796 C   0  0  0  0  0  0  0  0  0  0  0  0
  151.0985  140.1735  155.6462 S   0  0  0  0  0  0  0  0  0  0  0  0
  147.4551  134.1555  152.7938 N   0  3  0  0  0  0  0  0  0  0  0  0
  147.2548  132.9769  151.9120 C   0  0  0  0  0  0  0  0  0  0  0  0
  145.9750  133.2260  151.1016 C   0  0  0  0  0  0  0  0  0  0  0  0
  145.6346  134.6901  151.3527 C   0  0  0  0  0  0  0  0  0  0  0  0
  146.1998  134.9364  152.7463 C   0  0  0  0  0  0  0  0  0  0  0  0
  150.4220  131.2860  154.0765 H   0  0  0  0  0  0  0  0  0  0  0  0
  148.8553  131.2306  153.2876 H   0  0  0  0  0  0  0  0  0  0  0  0
  148.9554  131.2967  155.0463 H   0  0  0  0  0  0  0  0  0  0  0  0
  150.0339  133.5816  154.8655 H   0  0  0  0  0  0  0  0  0  0  0  0
  149.8920  133.5195  153.1493 H   0  0  0  0  0  0  0  0  0  0  0  0
  147.3184  133.1114  154.5978 H   0  0  0  0  0  0  0  0  0  0  0  0
  146.9420  135.4809  155.1621 H   0  0  0  0  0  0  0  0  0  0  0  0
  148.2616  134.8286  156.0919 H   0  0  0  0  0  0  0  0  0  0  0  0
  148.7951  136.4565  153.6936 H   0  0  0  0  0  0  0  0  0  0  0  0
  148.0368  141.2491  154.0019 H   0  0  0  0  0  0  0  0  0  0  0  0
  149.9876  142.3701  155.4858 H   0  0  0  0  0  0  0  0  0  0  0  0
  148.1221  132.8672  151.2601 H   0  0  0  0  0  0  0  0  0  0  0  0
  147.1509  132.0542  152.4849 H   0  0  0  0  0  0  0  0  0  0  0  0
  146.0985  133.0026  150.0413 H   0  0  0  0  0  0  0  0  0  0  0  0
  145.1718  132.5928  151.4815 H   0  0  0  0  0  0  0  0  0  0  0  0
  146.1489  135.3215  150.6267 H   0  0  0  0  0  0  0  0  0  0  0  0
  144.5663  134.8972  151.2842 H   0  0  0  0  0  0  0  0  0  0  0  0
  145.5026  134.5603  153.4970 H   0  0  0  0  0  0  0  0  0  0  0  0
  146.3703  135.9967  152.9357 H   0  0  0  0  0  0  0  0  0  0  0  0
  148.1476  134.7306  152.3352 H   0  0  0  0  0  0  0  0  0  0  0  0
  1  2  1  0  0  0  0
  1 19  1  0  0  0  0
  1 20  1  0  0  0  0
  1 21  1  0  0  0  0
  2  3  1  0  0  0  0
  2 22  1  0  0  0  0
  2 23  1  0  0  0  0
  3  4  1  0  0  0  0
  3 14  1  0  0  0  0
  3 24  1  0  0  0  0
  4  5  1  0  0  0  0
  4 25  1  0  0  0  0
  4 26  1  0  0  0  0
  5  6  1  0  0  0  0
  5 27  1  0  0  0  0
  6  7  2  0  0  0  0
  6  8  1  0  0  0  0
  8  9  1  0  0  0  0
  9 13  1  0  0  0  0
  9 10  2  0  0  0  0
 10 11  1  0  0  0  0
 11 12  2  0  0  0  0
 11 28  1  0  0  0  0
 12 13  1  0  0  0  0
 12 29  1  0  0  0  0
 14 18  1  0  0  0  0
 14 15  1  0  0  0  0
 14 38  1  0  0  0  0
 15 16  1  0  0  0  0
 15 30  1  0  0  0  0
 15 31  1  0  0  0  0
 16 17  1  0  0  0  0
 16 32  1  0  0  0  0
 16 33  1  0  0  0  0
 17 18  1  0  0  0  0
 17 34  1  0  0  0  0
 17 35  1  0  0  0  0
 18 36  1  0  0  0  0
 18 37  1  0  0  0  0
M  CHG  1   8  -1
M  CHG  1  14   1
M  END
> <s_m_source_file>
AV-unprocessed.smi

> <i_m_source_file_index>
1696

> <i_lp_mmshare_version>
43012

> <i_f3d_flags>
0

> <s_epik_input>
W0NIMl0xW0NIMl1bQ0gyXVtDSDJdTjFbQ0BIXShbQ0gyXVtDSDNdKVtDSDJdW05IXUMoPU8pW05IXWMybltjSF1bY0hdczI=

> <s_epik_cmdline>
J2VwaWtfcHl0aG9uJywgJy1waCcsICc3LjAnLCAnLXRuJywgJzgnLCAnLW1hJywgJzIwMCcsICctbWV0YWxfYmluZGluZycsICctaW1hZScsICc8aW5maWxlLm1hZT4nLCAnLW9tYWUnLCAnPG91dGZpbGUubWFlPic=

> <r_lp_tautomer_probability>
1

> <r_epik_Ionization_Penalty>
7.71903

> <r_epik_Ionization_Penalty_Charging>
6.3282

> <r_epik_Ionization_Penalty_Neutral>
1.39083

> <r_epik_State_Penalty>
6.32705

> <r_epik_Charging_Adjusted_Penalty>
12.6552

> <i_epik_Tot_Q>
0

> <i_epik_Tot_abs_Q>
2

> <r_epik_Metal_State_Penalty>
2.26116

> <b_epik_Metal_Only>
1

> <s_lp_Force_Field>
OPLS_2005

> <r_lp_Energy>
23.2163

> <b_lp_Chiralities_Consistent>
1

> <s_lp_Variant>
AV-unprocessed.smi:1696-4

> <Gold.Version>
5.8.1

> <Gold.Id.Protein>
6NUR|6NUR_protein|mol2

> <Gold.PLP.Fitness>
38.4529

> <Gold.PLP.PLP>
-30.2386

> <Gold.PLP.part.hbond>
-2.0000

> <Gold.PLP.part.metal>
0.0000

> <Gold.PLP.part.buried>
-2.5188

> <Gold.PLP.part.nonpolar>
-25.6634

> <Gold.PLP.part.repulsive>
0.3571

> <Gold.PLP.ligand.clash>
0.0000

> <Gold.PLP.ligand.torsion>
2.0786

> <Gold.PLP.Chemscore.Hbond>
2.9760

> <Gold.PLP.Chemscore.CHOScore>
1.0000

> <Gold.PLP.Chemscore.Metal>
0.0000

> <Gold.Chemscore.Hbonds>
donor molecule, donor type, donor heavy atom, donor atom, acceptor molecule, acceptor atom, score
      L1  H     5    27       P1  7948  1.00
      L1  H    14    38       P1  7948  2.00
      L1  C    12    29       P1  8028  0.83

> <Gold.PLP.Chemscore.Internal.Correction>
0.4435

> <Gold.Rescore>
     Score         DG    S(hbond)    S(metal)    S(lipo)     H(rot)  DE(clash)    DE(int)     intcor
     14.26     -16.32       2.61        0.00      56.09       1.73       0.03       2.03       ----

> <Gold.Chemscore.Fitness>
14.2644

> <Gold.Chemscore.DG>
-16.3239

> <Gold.Chemscore.ZeroCoef>
-5.4800

> <Gold.Chemscore.Hbond>
2.6056

> <Gold.Chemscore.Metal>
0.0000

> <Gold.Chemscore.Lipo>
56.0890

> <Gold.Chemscore.Internal_Hbond>
0.0000

> <Gold.Chemscore.DEClash>
0.0285

> <Gold.Chemscore.DEInternal>
2.0310

> <Gold.Chemscore.Rot>
1.7270

> <Gold.Chemscore.Internal.Correction>
   9.000000E+99

> <Gold.Chemscore.Hbonds>
donor molecule, donor type, donor heavy atom, donor atom, acceptor molecule, acceptor atom, score
      L1  H     5    27       P1  7948  0.95
      L1  H    14    38       P1  7948  0.39

> <Gold.Chemscore.Hbond.Weighted>
-8.7026

> <Gold.Chemscore.Metal.Weighted>
-0.0000

> <Gold.Chemscore.Lipo.Weighted>
-6.5624

> <Gold.Chemscore.Internal_Hbond.Weighted>
0.0000

> <Gold.Chemscore.DEClash.Weighted>
0.0285

> <Gold.Chemscore.DEInternal.Weighted>
2.0310

> <Gold.Chemscore.Rot.Weighted>
4.4212

> <Gold.Chemscore.Internal.Correction.Weighted>
   9.000000E+99

> <Gold.Protein.RotatedTorsions>
[ 6907 6896 6895 6894 ] final  -55.65 input  -60.11 | X-H torsion
[ 7974 7965 7964 7962 ] final   -6.16 input  175.53 | X-H torsion
[ 8008 7997 7996 7995 ] final  144.16 input   59.86 | X-H torsion
[ 10167 10162 10161 10158 ] final  -78.60 input  -65.29 | X-H torsion
[ 10718 10713 10712 10709 ] final  170.20 input   66.30 | X-H torsion
[ 10763 10752 10751 10750 ] final -174.90 input  -60.55 | X-H torsion
[ 11005 11000 10999 10996 ] final -159.49 input  -57.11 | X-H torsion

> <Gold.Protein.ActiveResidues>
 VAL166  LYS551  ARG553  GLY616  TRP617  ASP618  TYR619  PRO620  LYS621  CYS622 
 ASP623  PHE694  ASN695  SER759  ASP760  ASP761  ALA762  ILE779  LEU786  VAL792 
 PHE793  MET794  SER795  GLU796  ALA797  LYS798  CYS799  TRP800  GLU811  SER814 

> <Gold.Protein.RotatedAtoms>
  150.8234  134.7452  159.6791 H   0  0  0  0  0  0  0  0  0  0  0  0  # atno 6907 bound_to 6896
  152.4347  134.5706  159.9930 H   0  0  0  0  0  0  0  0  0  0  0  0  # atno 6908 bound_to 6896
  151.5885  133.3332  159.3059 H   0  0  0  0  0  0  0  0  0  0  0  0  # atno 6909 bound_to 6896
  146.2337  140.2129  142.8335 H   0  0  0  0  0  0  0  0  0  0  0  0  # atno 7974 bound_to 7965
  156.2914  140.2243  156.5008 H   0  0  0  0  0  0  0  0  0  0  0  0  # atno 8008 bound_to 7997
  154.7691  140.0468  157.1058 H   0  0  0  0  0  0  0  0  0  0  0  0  # atno 8009 bound_to 7997
  154.9896  140.3088  155.4915 H   0  0  0  0  0  0  0  0  0  0  0  0  # atno 8010 bound_to 7997
  140.4668  143.2438  151.8266 H   0  0  0  0  0  0  0  0  0  0  0  0  # atno 10167 bound_to 10162
  157.0115  131.0205  151.2801 H   0  0  0  0  0  0  0  0  0  0  0  0  # atno 10718 bound_to 10713
  154.5908  135.2845  155.0638 H   0  0  0  0  0  0  0  0  0  0  0  0  # atno 10763 bound_to 10752
  154.1939  135.6436  153.5071 H   0  0  0  0  0  0  0  0  0  0  0  0  # atno 10764 bound_to 10752
  153.0120  135.5453  154.6593 H   0  0  0  0  0  0  0  0  0  0  0  0  # atno 10765 bound_to 10752
  140.6420  134.4541  157.5233 H   0  0  0  0  0  0  0  0  0  0  0  0  # atno 11005 bound_to 11000
  144.9692  140.8352  143.5466 LP  0  0  0  0  0  0  0  0  0  0  0  0  # atno 17320 bound_to 7965
  145.2109  139.2205  143.5143 LP  0  0  0  0  0  0  0  0  0  0  0  0  # atno 17321 bound_to 7965
  139.4813  144.4941  151.9146 LP  0  0  0  0  0  0  0  0  0  0  0  0  # atno 17342 bound_to 10162
  140.4027  144.2472  150.5892 LP  0  0  0  0  0  0  0  0  0  0  0  0  # atno 17343 bound_to 10162
  157.5316  130.8062  149.7924 LP  0  0  0  0  0  0  0  0  0  0  0  0  # atno 17370 bound_to 10713
  156.0134  130.3823  150.2189 LP  0  0  0  0  0  0  0  0  0  0  0  0  # atno 17371 bound_to 10713
  139.9077  134.8414  156.1645 LP  0  0  0  0  0  0  0  0  0  0  0  0  # atno 17394 bound_to 11000
  141.0600  133.6846  156.1933 LP  0  0  0  0  0  0  0  0  0  0  0  0  # atno 17395 bound_to 11000

$$$$
