AV-unprocessed.smi:3056|AV-procd|sdf|11660|dock3
  -GOLD-   2272017 63D 1   1.00000     0.00000
 Structure written by MMmdl.
 47 48  0  0  0  0  0  0  0  0  1 V2000
  146.0636  137.2251  152.8457 C   0  0  0  0  0  0  0  0  0  0  0  0
  146.9675  138.2887  153.3980 C   0  0  0  0  0  0  0  0  0  0  0  0
  148.3495  138.1783  153.7186 C   0  0  0  0  0  0  0  0  0  0  0  0
  148.8636  139.3094  154.1710 N   0  0  0  0  0  0  0  0  0  0  0  0
  147.8285  140.1806  154.1725 N   0  0  0  0  0  0  0  0  0  0  0  0
  148.0206  141.5754  154.5603 C   0  0  1  0  0  0  0  0  0  0  0  0
  146.7147  142.3950  154.4689 C   0  0  0  0  0  0  0  0  0  0  0  0
  148.7521  141.6785  155.9247 C   0  0  1  0  0  0  0  0  0  0  0  0
  148.4226  140.5097  156.8717 C   0  0  0  0  0  0  0  0  0  0  0  0
  150.2000  141.7600  155.7195 N   0  0  0  0  0  0  0  0  0  0  0  0
  150.8930  142.7164  156.6017 C   0  0  0  0  0  0  0  0  0  0  0  0
  151.5914  142.0859  157.8243 C   0  0  0  0  0  0  0  0  0  0  0  0
  151.5010  140.8698  158.0027 O   0  0  0  0  0  0  0  0  0  0  0  0
  152.2818  142.8839  158.6734 N   0  0  0  0  0  0  0  0  0  0  0  0
  152.2919  144.3449  158.5721 C   0  0  0  0  0  0  0  0  0  0  0  0
  151.5712  144.9088  159.8103 C   0  0  0  0  0  0  0  0  0  0  0  0
  152.2114  144.4435  160.9980 O   0  0  0  0  0  0  0  0  0  0  0  0
  152.2596  143.0201  161.1022 C   0  0  2  0  0  0  0  0  0  0  0  0
  152.9551  142.6581  162.4188 C   0  0  0  0  0  0  0  0  0  0  0  0
  153.0022  142.4558  159.8750 C   0  0  0  0  0  0  0  0  0  0  0  0
  146.6758  139.5889  153.6986 C   0  0  0  0  0  0  0  0  0  0  0  0
  146.2498  136.2570  153.3108 H   0  0  0  0  0  0  0  0  0  0  0  0
  146.2041  137.0992  151.7721 H   0  0  0  0  0  0  0  0  0  0  0  0
  145.0118  137.4618  153.0074 H   0  0  0  0  0  0  0  0  0  0  0  0
  148.9933  137.3160  153.6283 H   0  0  0  0  0  0  0  0  0  0  0  0
  148.6925  141.9961  153.8107 H   0  0  0  0  0  0  0  0  0  0  0  0
  146.9026  143.4598  154.6021 H   0  0  0  0  0  0  0  0  0  0  0  0
  145.9864  142.0916  155.2213 H   0  0  0  0  0  0  0  0  0  0  0  0
  146.2485  142.2733  153.4907 H   0  0  0  0  0  0  0  0  0  0  0  0
  148.3918  142.5910  156.4008 H   0  0  0  0  0  0  0  0  0  0  0  0
  147.3447  140.3908  156.9817 H   0  0  0  0  0  0  0  0  0  0  0  0
  148.8294  140.6734  157.8692 H   0  0  0  0  0  0  0  0  0  0  0  0
  148.8253  139.5652  156.5056 H   0  0  0  0  0  0  0  0  0  0  0  0
  150.3870  141.9669  154.7477 H   0  0  0  0  0  0  0  0  0  0  0  0
  151.6122  143.2792  156.0078 H   0  0  0  0  0  0  0  0  0  0  0  0
  150.1584  143.4324  156.9705 H   0  0  0  0  0  0  0  0  0  0  0  0
  153.3216  144.7032  158.5370 H   0  0  0  0  0  0  0  0  0  0  0  0
  151.8117  144.7140  157.6651 H   0  0  0  0  0  0  0  0  0  0  0  0
  151.5962  145.9984  159.7992 H   0  0  0  0  0  0  0  0  0  0  0  0
  150.5210  144.6127  159.8151 H   0  0  0  0  0  0  0  0  0  0  0  0
  151.2405  142.6295  161.1269 H   0  0  0  0  0  0  0  0  0  0  0  0
  153.0126  141.5770  162.5472 H   0  0  0  0  0  0  0  0  0  0  0  0
  152.4113  143.0649  163.2715 H   0  0  0  0  0  0  0  0  0  0  0  0
  153.9704  143.0539  162.4509 H   0  0  0  0  0  0  0  0  0  0  0  0
  153.1141  141.3761  159.9579 H   0  0  0  0  0  0  0  0  0  0  0  0
  154.0195  142.8488  159.8402 H   0  0  0  0  0  0  0  0  0  0  0  0
  145.7520  140.1408  153.6067 H   0  0  0  0  0  0  0  0  0  0  0  0
  1  2  1  0  0  0  0
  1 22  1  0  0  0  0
  1 23  1  0  0  0  0
  1 24  1  0  0  0  0
  2 21  2  0  0  0  0
  2  3  1  0  0  0  0
  3  4  2  0  0  0  0
  3 25  1  0  0  0  0
  4  5  1  0  0  0  0
  5  6  1  0  0  0  0
  5 21  1  0  0  0  0
  6  7  1  0  0  0  0
  6  8  1  0  0  0  0
  6 26  1  0  0  0  0
  7 27  1  0  0  0  0
  7 28  1  0  0  0  0
  7 29  1  0  0  0  0
  8  9  1  0  0  0  0
  8 10  1  0  0  0  0
  8 30  1  0  0  0  0
  9 31  1  0  0  0  0
  9 32  1  0  0  0  0
  9 33  1  0  0  0  0
 10 11  1  0  0  0  0
 10 34  1  0  0  0  0
 11 12  1  0  0  0  0
 11 35  1  0  0  0  0
 11 36  1  0  0  0  0
 12 13  2  0  0  0  0
 12 14  1  0  0  0  0
 14 20  1  0  0  0  0
 14 15  1  0  0  0  0
 15 16  1  0  0  0  0
 15 37  1  0  0  0  0
 15 38  1  0  0  0  0
 16 17  1  0  0  0  0
 16 39  1  0  0  0  0
 16 40  1  0  0  0  0
 17 18  1  0  0  0  0
 18 19  1  0  0  0  0
 18 20  1  0  0  0  0
 18 41  1  0  0  0  0
 19 42  1  0  0  0  0
 19 43  1  0  0  0  0
 19 44  1  0  0  0  0
 20 45  1  0  0  0  0
 20 46  1  0  0  0  0
 21 47  1  0  0  0  0
M  END
> <s_m_source_file>
AV-unprocessed.smi

> <i_m_source_file_index>
3056

> <i_lp_mmshare_version>
43012

> <i_f3d_flags>
0

> <s_epik_input>
W0NIM11jMVtjSF1ubihbY0hdMSlbQ0BIXShbQ0gzXSlbQ0BIXShbQ0gzXSlbTkhdW0NIMl1DKD1PKU4yW0NIMl1bQ0gyXU9bQ0BASF0oW0NIM10pW0NIMl0y

> <s_epik_cmdline>
J2VwaWtfcHl0aG9uJywgJy1waCcsICc3LjAnLCAnLXRuJywgJzgnLCAnLW1hJywgJzIwMCcsICctbWV0YWxfYmluZGluZycsICctaW1hZScsICc8aW5maWxlLm1hZT4nLCAnLW9tYWUnLCAnPG91dGZpbGUubWFlPic=

> <r_lp_tautomer_probability>
1

> <r_epik_Ionization_Penalty>
0.667689

> <r_epik_Ionization_Penalty_Charging>
0

> <r_epik_Ionization_Penalty_Neutral>
0.667689

> <r_epik_State_Penalty>
0.684601

> <r_epik_Charging_Adjusted_Penalty>
0.684601

> <i_epik_Tot_Q>
0

> <i_epik_Tot_abs_Q>
0

> <r_epik_Metal_State_Penalty>
0.681448

> <b_epik_Metal_Only>
0

> <s_lp_Force_Field>
OPLS_2005

> <r_lp_Energy>
31.287

> <b_lp_Chiralities_Consistent>
1

> <s_lp_Variant>
AV-unprocessed.smi:3056-16

> <Gold.Version>
5.8.1

> <Gold.Id.Protein>
6NUR|6NUR_protein|mol2

> <Gold.PLP.Fitness>
42.4608

> <Gold.PLP.PLP>
-40.1422

> <Gold.PLP.part.hbond>
-0.7358

> <Gold.PLP.part.metal>
0.0000

> <Gold.PLP.part.buried>
2.3235

> <Gold.PLP.part.nonpolar>
-42.6330

> <Gold.PLP.part.repulsive>
0.5644

> <Gold.PLP.ligand.clash>
0.0000

> <Gold.PLP.ligand.torsion>
1.8411

> <Gold.PLP.Chemscore.Hbond>
0.0000

> <Gold.PLP.Chemscore.CHOScore>
1.9214

> <Gold.PLP.Chemscore.Metal>
0.0000

> <Gold.Chemscore.Hbonds>
donor molecule, donor type, donor heavy atom, donor atom, acceptor molecule, acceptor atom, score
      L1  C     3    25       P1  7948  0.78
      L1  C    21    47       P1 10175  1.00

> <Gold.PLP.Chemscore.Internal.Correction>
0.2367

> <Gold.Rescore>
     Score         DG    S(hbond)    S(metal)    S(lipo)     H(rot)  DE(clash)    DE(int)     intcor
      9.91     -13.80       0.00        0.00     107.87       1.68       1.22       2.67       ----

> <Gold.Chemscore.Fitness>
9.9112

> <Gold.Chemscore.DG>
-13.8020

> <Gold.Chemscore.ZeroCoef>
-5.4800

> <Gold.Chemscore.Hbond>
0.0000

> <Gold.Chemscore.Metal>
0.0000

> <Gold.Chemscore.Lipo>
107.8722

> <Gold.Chemscore.Internal_Hbond>
0.0000

> <Gold.Chemscore.DEClash>
1.2239

> <Gold.Chemscore.DEInternal>
2.6670

> <Gold.Chemscore.Rot>
1.6793

> <Gold.Chemscore.Internal.Correction>
   9.000000E+99

> <Gold.Chemscore.Hbond.Weighted>
-0.0000

> <Gold.Chemscore.Metal.Weighted>
-0.0000

> <Gold.Chemscore.Lipo.Weighted>
-12.6210

> <Gold.Chemscore.Internal_Hbond.Weighted>
0.0000

> <Gold.Chemscore.DEClash.Weighted>
1.2239

> <Gold.Chemscore.DEInternal.Weighted>
2.6670

> <Gold.Chemscore.Rot.Weighted>
4.2990

> <Gold.Chemscore.Internal.Correction.Weighted>
   9.000000E+99

> <Gold.Protein.RotatedTorsions>
[ 6907 6896 6895 6894 ] final -102.22 input  -60.11 | X-H torsion
[ 7974 7965 7964 7962 ] final  105.73 input  175.53 | X-H torsion
[ 8008 7997 7996 7995 ] final   24.84 input   59.86 | X-H torsion
[ 10167 10162 10161 10158 ] final  162.92 input  -65.29 | X-H torsion
[ 10718 10713 10712 10709 ] final   39.23 input   66.30 | X-H torsion
[ 10763 10752 10751 10750 ] final  -66.10 input  -60.55 | X-H torsion
[ 11005 11000 10999 10996 ] final   72.75 input  -57.11 | X-H torsion

> <Gold.Protein.ActiveResidues>
 VAL166  LYS551  ARG553  GLY616  TRP617  ASP618  TYR619  PRO620  LYS621  CYS622 
 ASP623  PHE694  ASN695  SER759  ASP760  ASP761  ALA762  ILE779  LEU786  VAL792 
 PHE793  MET794  SER795  GLU796  ALA797  LYS798  CYS799  TRP800  GLU811  SER814 

> <Gold.Protein.RotatedAtoms>
  150.7187  134.0615  159.3832 H   0  0  0  0  0  0  0  0  0  0  0  0  # atno 6907 bound_to 6896
  151.8595  135.0527  160.0477 H   0  0  0  0  0  0  0  0  0  0  0  0  # atno 6908 bound_to 6896
  152.2728  133.5363  159.5486 H   0  0  0  0  0  0  0  0  0  0  0  0  # atno 6909 bound_to 6896
  145.3159  139.2526  143.3738 H   0  0  0  0  0  0  0  0  0  0  0  0  # atno 7974 bound_to 7965
  155.0025  140.3127  155.4861 H   0  0  0  0  0  0  0  0  0  0  0  0  # atno 8008 bound_to 7997
  156.2922  140.2229  156.5077 H   0  0  0  0  0  0  0  0  0  0  0  0  # atno 8009 bound_to 7997
  154.7606  140.0459  157.0958 H   0  0  0  0  0  0  0  0  0  0  0  0  # atno 8010 bound_to 7997
  139.4867  144.4389  151.8977 H   0  0  0  0  0  0  0  0  0  0  0  0  # atno 10167 bound_to 10162
  157.3681  130.7686  149.7098 H   0  0  0  0  0  0  0  0  0  0  0  0  # atno 10718 bound_to 10713
  154.3549  135.6128  153.5661 H   0  0  0  0  0  0  0  0  0  0  0  0  # atno 10763 bound_to 10752
  152.9796  135.5801  154.4701 H   0  0  0  0  0  0  0  0  0  0  0  0  # atno 10764 bound_to 10752
  154.4428  135.2850  155.1813 H   0  0  0  0  0  0  0  0  0  0  0  0  # atno 10765 bound_to 10752
  139.9475  134.7287  156.0944 H   0  0  0  0  0  0  0  0  0  0  0  0  # atno 11005 bound_to 11000
  146.3100  140.3706  142.8674 LP  0  0  0  0  0  0  0  0  0  0  0  0  # atno 17320 bound_to 7965
  144.8978  140.7605  143.5886 LP  0  0  0  0  0  0  0  0  0  0  0  0  # atno 17321 bound_to 7965
  140.3840  144.2700  150.5906 LP  0  0  0  0  0  0  0  0  0  0  0  0  # atno 17342 bound_to 10162
  140.5207  143.2266  151.8392 LP  0  0  0  0  0  0  0  0  0  0  0  0  # atno 17343 bound_to 10162
  155.9750  130.4095  150.3881 LP  0  0  0  0  0  0  0  0  0  0  0  0  # atno 17370 bound_to 10713
  157.1968  131.0428  151.2671 LP  0  0  0  0  0  0  0  0  0  0  0  0  # atno 17371 bound_to 10713
  141.1129  133.6637  156.3023 LP  0  0  0  0  0  0  0  0  0  0  0  0  # atno 17394 bound_to 11000
  140.5800  134.5755  157.5477 LP  0  0  0  0  0  0  0  0  0  0  0  0  # atno 17395 bound_to 11000

$$$$
