AV-unprocessed.smi:1334|AV-procd|sdf|5493|dock4
  -GOLD-   22720 5 73D 1   1.00000     0.00000
 Structure written by MMmdl.
 38 39  0  0  0  0  0  0  0  0  1 V2000
  147.0719  142.4653  154.0701 C   0  0  0  0  0  0  0  0  0  0  0  0
  147.8655  141.2080  153.6589 C   0  0  1  0  0  0  0  0  0  0  0  0
  149.0500  140.9238  154.5941 C   0  0  0  0  0  0  0  0  0  0  0  0
  150.0795  140.4060  154.1604 O   0  0  0  0  0  0  0  0  0  0  0  0
  148.8886  141.2839  155.8777 N   0  0  0  0  0  0  0  0  0  0  0  0
  149.9006  141.1866  156.9259 C   0  0  0  0  0  0  0  0  0  0  0  0
  151.0777  142.1441  156.6644 C   0  0  0  0  0  0  0  0  0  0  0  0
  151.6057  142.8289  157.9167 C   0  0  0  0  0  0  0  0  0  0  0  0
  152.0998  142.1298  158.9573 C   0  0  0  0  0  0  0  0  0  0  0  0
  152.6222  142.7612  160.2349 C   0  0  0  0  0  0  0  0  0  0  0  0
  152.1757  144.2243  160.3819 C   0  0  0  0  0  0  0  0  0  0  0  0
  152.3601  144.9866  159.0642 C   0  0  0  0  0  0  0  0  0  0  0  0
  151.5385  144.3524  157.9271 C   0  0  0  0  0  0  0  0  0  0  0  0
  147.0170  140.0269  153.5554 N   0  0  0  0  0  0  0  0  0  0  0  0
  146.8279  139.1961  152.5282 C   0  0  0  0  0  0  0  0  0  0  0  0
  146.0078  138.1889  152.7930 N   0  0  0  0  0  0  0  0  0  0  0  0
  145.7176  138.4688  154.0981 C   0  0  0  0  0  0  0  0  0  0  0  0
  146.3066  139.5499  154.6082 N   0  0  0  0  0  0  0  0  0  0  0  0
  147.7150  143.3458  154.0880 H   0  0  0  0  0  0  0  0  0  0  0  0
  146.6235  142.3644  155.0595 H   0  0  0  0  0  0  0  0  0  0  0  0
  146.2666  142.6639  153.3624 H   0  0  0  0  0  0  0  0  0  0  0  0
  148.2720  141.3967  152.6638 H   0  0  0  0  0  0  0  0  0  0  0  0
  148.0051  141.6947  156.1421 H   0  0  0  0  0  0  0  0  0  0  0  0
  149.4279  141.4451  157.8736 H   0  0  0  0  0  0  0  0  0  0  0  0
  150.2635  140.1642  157.0418 H   0  0  0  0  0  0  0  0  0  0  0  0
  151.8884  141.5922  156.1865 H   0  0  0  0  0  0  0  0  0  0  0  0
  150.7755  142.9116  155.9512 H   0  0  0  0  0  0  0  0  0  0  0  0
  152.1472  141.0517  158.9085 H   0  0  0  0  0  0  0  0  0  0  0  0
  152.2828  142.1804  161.0916 H   0  0  0  0  0  0  0  0  0  0  0  0
  153.7104  142.6974  160.2223 H   0  0  0  0  0  0  0  0  0  0  0  0
  151.1247  144.2585  160.6722 H   0  0  0  0  0  0  0  0  0  0  0  0
  152.7353  144.7071  161.1837 H   0  0  0  0  0  0  0  0  0  0  0  0
  152.0780  146.0326  159.1873 H   0  0  0  0  0  0  0  0  0  0  0  0
  153.4169  144.9820  158.7946 H   0  0  0  0  0  0  0  0  0  0  0  0
  151.8850  144.7395  156.9686 H   0  0  0  0  0  0  0  0  0  0  0  0
  150.4945  144.6477  158.0254 H   0  0  0  0  0  0  0  0  0  0  0  0
  147.3009  139.3303  151.5666 H   0  0  0  0  0  0  0  0  0  0  0  0
  145.0622  137.8505  154.6934 H   0  0  0  0  0  0  0  0  0  0  0  0
  1  2  1  0  0  0  0
  1 19  1  0  0  0  0
  1 20  1  0  0  0  0
  1 21  1  0  0  0  0
  2  3  1  0  0  0  0
  2 14  1  0  0  0  0
  2 22  1  0  0  0  0
  3  4  2  0  0  0  0
  3  5  1  0  0  0  0
  5  6  1  0  0  0  0
  5 23  1  0  0  0  0
  6  7  1  0  0  0  0
  6 24  1  0  0  0  0
  6 25  1  0  0  0  0
  7  8  1  0  0  0  0
  7 26  1  0  0  0  0
  7 27  1  0  0  0  0
  8 13  1  0  0  0  0
  8  9  2  0  0  0  0
  9 10  1  0  0  0  0
  9 28  1  0  0  0  0
 10 11  1  0  0  0  0
 10 29  1  0  0  0  0
 10 30  1  0  0  0  0
 11 12  1  0  0  0  0
 11 31  1  0  0  0  0
 11 32  1  0  0  0  0
 12 13  1  0  0  0  0
 12 33  1  0  0  0  0
 12 34  1  0  0  0  0
 13 35  1  0  0  0  0
 13 36  1  0  0  0  0
 14 18  1  0  0  0  0
 14 15  1  0  0  0  0
 15 16  2  0  0  0  0
 15 37  1  0  0  0  0
 16 17  1  0  0  0  0
 17 18  2  0  0  0  0
 17 38  1  0  0  0  0
M  END
> <s_m_source_file>
AV-unprocessed.smi

> <i_m_source_file_index>
1334

> <i_lp_mmshare_version>
43012

> <i_f3d_flags>
0

> <s_epik_input>
bjFbY0hdbltjSF1uMVtDQEhdKFtDSDNdKUMoPU8pW05IXVtDSDJdW0NIMl1DMj1bQ0hdW0NIMl1bQ0gyXVtDSDJdW0NIMl0y

> <s_epik_cmdline>
J2VwaWtfcHl0aG9uJywgJy1waCcsICc3LjAnLCAnLXRuJywgJzgnLCAnLW1hJywgJzIwMCcsICctbWV0YWxfYmluZGluZycsICctaW1hZScsICc8aW5maWxlLm1hZT4nLCAnLW9tYWUnLCAnPG91dGZpbGUubWFlPic=

> <r_lp_tautomer_probability>
1

> <r_epik_Ionization_Penalty>
1.26383e-05

> <r_epik_Ionization_Penalty_Charging>
0

> <r_epik_Ionization_Penalty_Neutral>
1.26383e-05

> <r_epik_State_Penalty>
-0

> <r_epik_Charging_Adjusted_Penalty>
0

> <i_epik_Tot_Q>
0

> <i_epik_Tot_abs_Q>
0

> <r_epik_Metal_State_Penalty>
-0

> <b_epik_Metal_Only>
0

> <s_lp_Force_Field>
OPLS_2005

> <r_lp_Energy>
11.5149

> <b_lp_Chiralities_Consistent>
1

> <s_lp_Variant>
AV-unprocessed.smi:1334-2

> <Gold.Version>
5.8.1

> <Gold.Id.Protein>
6NUR|6NUR_protein|mol2

> <Gold.PLP.Fitness>
44.8291

> <Gold.PLP.PLP>
-41.4803

> <Gold.PLP.part.hbond>
-1.0000

> <Gold.PLP.part.metal>
0.0000

> <Gold.PLP.part.buried>
-5.3950

> <Gold.PLP.part.nonpolar>
-36.6823

> <Gold.PLP.part.repulsive>
1.0272

> <Gold.PLP.ligand.clash>
0.0000

> <Gold.PLP.ligand.torsion>
1.1073

> <Gold.PLP.Chemscore.Hbond>
0.8480

> <Gold.PLP.Chemscore.CHOScore>
0.9588

> <Gold.PLP.Chemscore.Metal>
0.0000

> <Gold.Chemscore.Hbonds>
donor molecule, donor type, donor heavy atom, donor atom, acceptor molecule, acceptor atom, score
      P1  H  7989  7998       L1     4  0.85
      L1  C    15    37       P1  7957  0.96

> <Gold.PLP.Chemscore.Internal.Correction>
0.1431

> <Gold.Rescore>
     Score         DG    S(hbond)    S(metal)    S(lipo)     H(rot)  DE(clash)    DE(int)     intcor
     13.08     -14.31       0.93        0.00     101.33       2.40       0.03       1.20       ----

> <Gold.Chemscore.Fitness>
13.0796

> <Gold.Chemscore.DG>
-14.3070

> <Gold.Chemscore.ZeroCoef>
-5.4800

> <Gold.Chemscore.Hbond>
0.9337

> <Gold.Chemscore.Metal>
0.0000

> <Gold.Chemscore.Lipo>
101.3273

> <Gold.Chemscore.Internal_Hbond>
0.0000

> <Gold.Chemscore.DEClash>
0.0276

> <Gold.Chemscore.DEInternal>
1.1999

> <Gold.Chemscore.Rot>
2.4011

> <Gold.Chemscore.Internal.Correction>
   9.000000E+99

> <Gold.Chemscore.Hbonds>
donor molecule, donor type, donor heavy atom, donor atom, acceptor molecule, acceptor atom, score
      P1  H  7989  7998       L1     4  0.83

> <Gold.Chemscore.Hbond.Weighted>
-3.1186

> <Gold.Chemscore.Metal.Weighted>
-0.0000

> <Gold.Chemscore.Lipo.Weighted>
-11.8553

> <Gold.Chemscore.Internal_Hbond.Weighted>
0.0000

> <Gold.Chemscore.DEClash.Weighted>
0.0276

> <Gold.Chemscore.DEInternal.Weighted>
1.1999

> <Gold.Chemscore.Rot.Weighted>
6.1469

> <Gold.Chemscore.Internal.Correction.Weighted>
   9.000000E+99

> <Gold.Protein.RotatedTorsions>
[ 6907 6896 6895 6894 ] final -151.45 input  -60.11 | X-H torsion
[ 7974 7965 7964 7962 ] final  -75.00 input  175.53 | X-H torsion
[ 8008 7997 7996 7995 ] final -153.47 input   59.86 | X-H torsion
[ 10167 10162 10161 10158 ] final   99.55 input  -65.29 | X-H torsion
[ 10718 10713 10712 10709 ] final -178.25 input   66.30 | X-H torsion
[ 10763 10752 10751 10750 ] final -121.56 input  -60.55 | X-H torsion
[ 11005 11000 10999 10996 ] final   64.66 input  -57.11 | X-H torsion

> <Gold.Protein.ActiveResidues>
 VAL166  LYS551  ARG553  GLY616  TRP617  ASP618  TYR619  PRO620  LYS621  CYS622 
 ASP623  PHE694  ASN695  SER759  ASP760  ASP761  ALA762  ILE779  LEU786  VAL792 
 PHE793  MET794  SER795  GLU796  ALA797  LYS798  CYS799  TRP800  GLU811  SER814 

> <Gold.Protein.RotatedAtoms>
  151.2133  133.4543  159.2598 H   0  0  0  0  0  0  0  0  0  0  0  0  # atno 6907 bound_to 6896
  151.0955  134.9941  159.8433 H   0  0  0  0  0  0  0  0  0  0  0  0  # atno 6908 bound_to 6896
  152.5438  134.2064  159.8785 H   0  0  0  0  0  0  0  0  0  0  0  0  # atno 6909 bound_to 6896
  145.6318  140.9336  143.1083 H   0  0  0  0  0  0  0  0  0  0  0  0  # atno 7974 bound_to 7965
  155.6713  140.0733  157.2519 H   0  0  0  0  0  0  0  0  0  0  0  0  # atno 8008 bound_to 7997
  154.4123  140.1698  156.1933 H   0  0  0  0  0  0  0  0  0  0  0  0  # atno 8009 bound_to 7997
  155.9614  140.3369  155.6497 H   0  0  0  0  0  0  0  0  0  0  0  0  # atno 8010 bound_to 7997
  139.7607  144.6955  151.0297 H   0  0  0  0  0  0  0  0  0  0  0  0  # atno 10167 bound_to 10162
  156.8415  130.9688  151.3099 H   0  0  0  0  0  0  0  0  0  0  0  0  # atno 10718 bound_to 10713
  154.8671  135.4163  154.2640 H   0  0  0  0  0  0  0  0  0  0  0  0  # atno 10763 bound_to 10752
  153.3562  135.7001  153.6754 H   0  0  0  0  0  0  0  0  0  0  0  0  # atno 10764 bound_to 10752
  153.5673  135.3598  155.2796 H   0  0  0  0  0  0  0  0  0  0  0  0  # atno 10765 bound_to 10752
  139.9944  134.6540  156.0035 H   0  0  0  0  0  0  0  0  0  0  0  0  # atno 11005 bound_to 11000
  144.7191  139.8093  143.7388 LP  0  0  0  0  0  0  0  0  0  0  0  0  # atno 17320 bound_to 7965
  146.1351  139.4394  143.0144 LP  0  0  0  0  0  0  0  0  0  0  0  0  # atno 17321 bound_to 7965
  140.7807  143.4700  151.0159 LP  0  0  0  0  0  0  0  0  0  0  0  0  # atno 17342 bound_to 10162
  139.8387  143.7593  152.3180 LP  0  0  0  0  0  0  0  0  0  0  0  0  # atno 17343 bound_to 10162
  157.6353  130.8762  149.9347 LP  0  0  0  0  0  0  0  0  0  0  0  0  # atno 17370 bound_to 10713
  156.0878  130.3666  150.0454 LP  0  0  0  0  0  0  0  0  0  0  0  0  # atno 17371 bound_to 10713
  141.1592  133.6540  156.4264 LP  0  0  0  0  0  0  0  0  0  0  0  0  # atno 17394 bound_to 11000
  140.4846  134.6633  157.5185 LP  0  0  0  0  0  0  0  0  0  0  0  0  # atno 17395 bound_to 11000

$$$$
