AV-unprocessed.smi:1225|AV-procd|sdf|5143|dock10
  -GOLD-   22720 4213D 1   1.00000     0.00000
 Structure written by MMmdl.
 49 51  0  0  0  0  0  0  0  0  2 V2000
  142.6448  135.2839  152.6404 C   0  0  0  0  0  0  0  0  0  0  0  0
  143.8422  136.1678  152.7220 C   0  0  0  0  0  0  0  0  0  0  0  0
  144.8136  136.1841  151.8066 N   0  0  0  0  0  0  0  0  0  0  0  0
  145.8248  137.0955  152.1171 C   0  0  0  0  0  0  0  0  0  0  0  0
  145.6119  137.7831  153.2869 C   0  0  0  0  0  0  0  0  0  0  0  0
  146.4846  138.8261  153.9072 C   0  0  0  0  0  0  0  0  0  0  0  0
  146.5476  140.0752  153.1061 N   0  3  2  0  0  0  0  0  0  0  0  0
  147.1095  139.8560  151.7497 C   0  0  0  0  0  0  0  0  0  0  0  0
  147.2252  141.1782  153.8360 C   0  0  0  0  0  0  0  0  0  0  0  0
  148.6132  140.7662  154.3752 C   0  0  1  0  0  0  0  0  0  0  0  0
  149.5591  140.8861  153.3322 O   0  0  0  0  0  0  0  0  0  0  0  0
  149.0982  141.6355  155.5528 C   0  0  0  0  0  0  0  0  0  0  0  0
  150.1879  141.0210  156.2890 N   0  0  0  0  0  0  0  0  0  0  0  0
  150.7469  139.8167  156.0599 C   0  0  0  0  0  0  0  0  0  0  0  0
  151.7486  139.4501  156.8534 N   0  0  0  0  0  0  0  0  0  0  0  0
  151.8420  140.5365  157.7063 C   0  0  0  0  0  0  0  0  0  0  0  0
  152.7143  140.7795  158.7895 C   0  0  0  0  0  0  0  0  0  0  0  0
  152.6288  141.9775  159.5340 C   0  0  0  0  0  0  0  0  0  0  0  0
  153.5865  142.1972  160.6921 C   0  0  0  0  0  0  0  0  0  0  0  0
  151.6581  142.9553  159.1982 C   0  0  0  0  0  0  0  0  0  0  0  0
  151.5444  144.2475  159.9875 C   0  0  0  0  0  0  0  0  0  0  0  0
  150.7798  142.7291  158.1178 C   0  0  0  0  0  0  0  0  0  0  0  0
  150.8761  141.5340  157.3833 C   0  0  0  0  0  0  0  0  0  0  0  0
  144.1155  137.2977  154.0424 S   0  0  0  0  0  0  0  0  0  0  0  0
  142.6553  134.7062  151.7156 H   0  0  0  0  0  0  0  0  0  0  0  0
  141.7355  135.8846  152.6665 H   0  0  0  0  0  0  0  0  0  0  0  0
  142.6336  134.5933  153.4836 H   0  0  0  0  0  0  0  0  0  0  0  0
  146.6638  137.1936  151.4441 H   0  0  0  0  0  0  0  0  0  0  0  0
  146.0912  139.0465  154.9002 H   0  0  0  0  0  0  0  0  0  0  0  0
  147.4930  138.4373  154.0570 H   0  0  0  0  0  0  0  0  0  0  0  0
  148.1373  139.4955  151.8078 H   0  0  0  0  0  0  0  0  0  0  0  0
  147.1070  140.7714  151.1601 H   0  0  0  0  0  0  0  0  0  0  0  0
  146.5248  139.1229  151.1941 H   0  0  0  0  0  0  0  0  0  0  0  0
  147.3613  142.0393  153.1800 H   0  0  0  0  0  0  0  0  0  0  0  0
  146.5709  141.5147  154.6414 H   0  0  0  0  0  0  0  0  0  0  0  0
  148.6024  139.7256  154.6971 H   0  0  0  0  0  0  0  0  0  0  0  0
  149.2886  140.3329  152.6143 H   0  0  0  0  0  0  0  0  0  0  0  0
  149.4370  142.6082  155.1936 H   0  0  0  0  0  0  0  0  0  0  0  0
  148.2774  141.8266  156.2462 H   0  0  0  0  0  0  0  0  0  0  0  0
  150.4057  139.1767  155.2592 H   0  0  0  0  0  0  0  0  0  0  0  0
  153.4527  140.0341  159.0463 H   0  0  0  0  0  0  0  0  0  0  0  0
  153.0365  142.3472  161.6210 H   0  0  0  0  0  0  0  0  0  0  0  0
  154.2082  143.0742  160.5118 H   0  0  0  0  0  0  0  0  0  0  0  0
  154.2476  141.3414  160.8304 H   0  0  0  0  0  0  0  0  0  0  0  0
  150.7670  144.8950  159.5813 H   0  0  0  0  0  0  0  0  0  0  0  0
  152.4852  144.7976  159.9603 H   0  0  0  0  0  0  0  0  0  0  0  0
  151.2952  144.0376  161.0279 H   0  0  0  0  0  0  0  0  0  0  0  0
  150.0347  143.4649  157.8545 H   0  0  0  0  0  0  0  0  0  0  0  0
  145.5899  140.3743  152.9871 H   0  0  0  0  0  0  0  0  0  0  0  0
  1  2  1  0  0  0  0
  1 25  1  0  0  0  0
  1 26  1  0  0  0  0
  1 27  1  0  0  0  0
  2 24  1  0  0  0  0
  2  3  2  0  0  0  0
  3  4  1  0  0  0  0
  4  5  2  0  0  0  0
  4 28  1  0  0  0  0
  5  6  1  0  0  0  0
  5 24  1  0  0  0  0
  6  7  1  0  0  0  0
  6 29  1  0  0  0  0
  6 30  1  0  0  0  0
  7  8  1  0  0  0  0
  7  9  1  0  0  0  0
  7 49  1  0  0  0  0
  8 31  1  0  0  0  0
  8 32  1  0  0  0  0
  8 33  1  0  0  0  0
  9 10  1  0  0  0  0
  9 34  1  0  0  0  0
  9 35  1  0  0  0  0
 10 11  1  0  0  0  0
 10 12  1  0  0  0  0
 10 36  1  0  0  0  0
 11 37  1  0  0  0  0
 12 13  1  0  0  0  0
 12 38  1  0  0  0  0
 12 39  1  0  0  0  0
 13 23  1  0  0  0  0
 13 14  1  0  0  0  0
 14 15  2  0  0  0  0
 14 40  1  0  0  0  0
 15 16  1  0  0  0  0
 16 23  2  0  0  0  0
 16 17  1  0  0  0  0
 17 18  2  0  0  0  0
 17 41  1  0  0  0  0
 18 19  1  0  0  0  0
 18 20  1  0  0  0  0
 19 42  1  0  0  0  0
 19 43  1  0  0  0  0
 19 44  1  0  0  0  0
 20 21  1  0  0  0  0
 20 22  2  0  0  0  0
 21 45  1  0  0  0  0
 21 46  1  0  0  0  0
 21 47  1  0  0  0  0
 22 23  1  0  0  0  0
 22 48  1  0  0  0  0
M  CHG  1   7   1
M  END
> <s_m_source_file>
AV-unprocessed.smi

> <i_m_source_file_index>
1225

> <i_lp_mmshare_version>
43012

> <i_f3d_flags>
0

> <s_epik_input>
W0NIM11jMW5bY0hdYyhzMSlbQ0gyXU4oW0NIM10pW0NIMl1bQ0BIXShbT0hdKVtDSDJdbihbY0hdbjIpYyhjMjMpW2NIXWMoW0NIM10pYyhbY0hdMylbQ0gzXQ==

> <s_epik_cmdline>
J2VwaWtfcHl0aG9uJywgJy1waCcsICc3LjAnLCAnLXRuJywgJzgnLCAnLW1hJywgJzIwMCcsICctbWV0YWxfYmluZGluZycsICctaW1hZScsICc8aW5maWxlLm1hZT4nLCAnLW9tYWUnLCAnPG91dGZpbGUubWFlPic=

> <r_epik_Ionization_Penalty>
1.62543

> <r_epik_Ionization_Penalty_Charging>
1.53932

> <r_epik_Ionization_Penalty_Neutral>
0.0861152

> <r_epik_State_Penalty>
1.73127

> <r_epik_Charging_Adjusted_Penalty>
3.27059

> <i_epik_Tot_Q>
1

> <i_epik_Tot_abs_Q>
1

> <r_epik_Metal_State_Penalty>
1.71387

> <b_epik_Metal_Only>
0

> <s_lp_Force_Field>
OPLS_2005

> <r_lp_Energy>
12.5396

> <b_lp_Chiralities_Consistent>
1

> <s_lp_Variant>
AV-unprocessed.smi:1225-8

> <Gold.Version>
5.8.1

> <Gold.Id.Protein>
6NUR|6NUR_protein|mol2

> <Gold.PLP.Fitness>
58.7019

> <Gold.PLP.PLP>
-44.8174

> <Gold.PLP.part.hbond>
-3.1299

> <Gold.PLP.part.metal>
0.0000

> <Gold.PLP.part.buried>
-3.1159

> <Gold.PLP.part.nonpolar>
-40.1724

> <Gold.PLP.part.repulsive>
0.1732

> <Gold.PLP.ligand.clash>
0.0000

> <Gold.PLP.ligand.torsion>
0.5116

> <Gold.PLP.Chemscore.Hbond>
3.9365

> <Gold.PLP.Chemscore.CHOScore>
1.0000

> <Gold.PLP.Chemscore.Metal>
0.0000

> <Gold.Chemscore.Hbonds>
donor molecule, donor type, donor heavy atom, donor atom, acceptor molecule, acceptor atom, score
      L1  H     7    49       P1 10175  2.00
      L1  H    11    37       P1  7957  0.78
      P1  H  7989  7998       L1    11  0.23
      P1  H  8011  8017       L1    11  0.80
      L1  C     4    28       P1  7948  0.92

> <Gold.PLP.Chemscore.Internal.Correction>
0.0982

> <Gold.Rescore>
     Score         DG    S(hbond)    S(metal)    S(lipo)     H(rot)  DE(clash)    DE(int)     intcor
     19.25     -21.25       2.22        0.00     123.41       2.37       0.73       1.28       ----

> <Gold.Chemscore.Fitness>
19.2463

> <Gold.Chemscore.DG>
-21.2477

> <Gold.Chemscore.ZeroCoef>
-5.4800

> <Gold.Chemscore.Hbond>
2.2183

> <Gold.Chemscore.Metal>
0.0000

> <Gold.Chemscore.Lipo>
123.4069

> <Gold.Chemscore.Internal_Hbond>
0.0000

> <Gold.Chemscore.DEClash>
0.7262

> <Gold.Chemscore.DEInternal>
1.2751

> <Gold.Chemscore.Rot>
2.3750

> <Gold.Chemscore.Internal.Correction>
   9.000000E+99

> <Gold.Chemscore.Hbonds>
donor molecule, donor type, donor heavy atom, donor atom, acceptor molecule, acceptor atom, score
      L1  H     7    49       P1 10175  0.91
      L1  H    11    37       P1  7957  0.74
      P1  H  7989  7998       L1    11  0.16
      P1  H  8011  8017       L1    11  0.12

> <Gold.Chemscore.Hbond.Weighted>
-7.4091

> <Gold.Chemscore.Metal.Weighted>
-0.0000

> <Gold.Chemscore.Lipo.Weighted>
-14.4386

> <Gold.Chemscore.Internal_Hbond.Weighted>
0.0000

> <Gold.Chemscore.DEClash.Weighted>
0.7262

> <Gold.Chemscore.DEInternal.Weighted>
1.2751

> <Gold.Chemscore.Rot.Weighted>
6.0800

> <Gold.Chemscore.Internal.Correction.Weighted>
   9.000000E+99

> <Gold.Protein.RotatedTorsions>
[ 6907 6896 6895 6894 ] final -174.78 input  -60.11 | X-H torsion
[ 7974 7965 7964 7962 ] final    8.72 input  175.53 | X-H torsion
[ 8008 7997 7996 7995 ] final -166.69 input   59.86 | X-H torsion
[ 10167 10162 10161 10158 ] final   59.29 input  -65.29 | X-H torsion
[ 10718 10713 10712 10709 ] final   78.45 input   66.30 | X-H torsion
[ 10763 10752 10751 10750 ] final  -33.17 input  -60.55 | X-H torsion
[ 11005 11000 10999 10996 ] final -159.15 input  -57.11 | X-H torsion

> <Gold.Protein.ActiveResidues>
 VAL166  LYS551  ARG553  GLY616  TRP617  ASP618  TYR619  PRO620  LYS621  CYS622 
 ASP623  PHE694  ASN695  SER759  ASP760  ASP761  ALA762  ILE779  LEU786  VAL792 
 PHE793  MET794  SER795  GLU796  ALA797  LYS798  CYS799  TRP800  GLU811  SER814 

> <Gold.Protein.RotatedAtoms>
  151.5780  133.3381  159.3002 H   0  0  0  0  0  0  0  0  0  0  0  0  # atno 6907 bound_to 6896
  150.8330  134.7594  159.6880 H   0  0  0  0  0  0  0  0  0  0  0  0  # atno 6908 bound_to 6896
  152.4410  134.5597  159.9942 H   0  0  0  0  0  0  0  0  0  0  0  0  # atno 6909 bound_to 6896
  146.2413  139.9891  142.8427 H   0  0  0  0  0  0  0  0  0  0  0  0  # atno 7974 bound_to 7965
  155.8673  140.0988  157.1573 H   0  0  0  0  0  0  0  0  0  0  0  0  # atno 8008 bound_to 7997
  154.3994  140.1353  156.4097 H   0  0  0  0  0  0  0  0  0  0  0  0  # atno 8009 bound_to 7997
  155.7790  140.3459  155.5289 H   0  0  0  0  0  0  0  0  0  0  0  0  # atno 8010 bound_to 7997
  140.1780  144.4210  150.6629 H   0  0  0  0  0  0  0  0  0  0  0  0  # atno 10167 bound_to 10162
  157.6745  130.9869  150.1788 H   0  0  0  0  0  0  0  0  0  0  0  0  # atno 10718 bound_to 10713
  153.8258  135.6870  153.4821 H   0  0  0  0  0  0  0  0  0  0  0  0  # atno 10763 bound_to 10752
  153.1541  135.4606  154.9677 H   0  0  0  0  0  0  0  0  0  0  0  0  # atno 10764 bound_to 10752
  154.7908  135.3301  154.7726 H   0  0  0  0  0  0  0  0  0  0  0  0  # atno 10765 bound_to 10752
  140.6457  134.4504  157.5234 H   0  0  0  0  0  0  0  0  0  0  0  0  # atno 11005 bound_to 11000
  145.1520  140.9628  143.4427 LP  0  0  0  0  0  0  0  0  0  0  0  0  # atno 17320 bound_to 7965
  145.0196  139.3436  143.6079 LP  0  0  0  0  0  0  0  0  0  0  0  0  # atno 17321 bound_to 7965
  140.6538  143.2232  151.6015 LP  0  0  0  0  0  0  0  0  0  0  0  0  # atno 17342 bound_to 10162
  139.5308  144.2921  152.1144 LP  0  0  0  0  0  0  0  0  0  0  0  0  # atno 17343 bound_to 10162
  156.2526  130.3702  149.8216 LP  0  0  0  0  0  0  0  0  0  0  0  0  # atno 17370 bound_to 10713
  156.5985  130.8536  151.3426 LP  0  0  0  0  0  0  0  0  0  0  0  0  # atno 17371 bound_to 10713
  139.9064  134.8440  156.1692 LP  0  0  0  0  0  0  0  0  0  0  0  0  # atno 17394 bound_to 11000
  141.0574  133.6858  156.1886 LP  0  0  0  0  0  0  0  0  0  0  0  0  # atno 17395 bound_to 11000

$$$$
