AV-unprocessed.smi:2145|AV-procd|sdf|8737|dock4
  -GOLD-   2272011503D 1   1.00000     0.00000
 Structure written by MMmdl.
 45 47  0  0  0  0  0  0  0  0  2 V2000
  137.0118  142.4266  153.5110 C   0  0  0  0  0  0  0  0  0  0  0  0
  138.4971  142.1699  153.7597 C   0  0  0  0  0  0  0  0  0  0  0  0
  139.2357  143.1313  153.9715 O   0  0  0  0  0  0  0  0  0  0  0  0
  138.9730  140.7576  153.7325 C   0  0  0  0  0  0  0  0  0  0  0  0
  140.3338  140.4782  153.9894 C   0  0  0  0  0  0  0  0  0  0  0  0
  140.8088  139.1533  153.9705 C   0  0  0  0  0  0  0  0  0  0  0  0
  139.9410  138.0779  153.6977 C   0  0  0  0  0  0  0  0  0  0  0  0
  140.4904  136.8141  153.7018 O   0  0  0  0  0  0  0  0  0  0  0  0
  141.6553  136.5864  154.4838 C   0  0  0  0  0  0  0  0  0  0  0  0
  142.4228  135.3992  153.8824 C   0  0  1  0  0  0  0  0  0  0  0  0
  141.6319  134.2366  154.0290 O   0  0  0  0  0  0  0  0  0  0  0  0
  142.7385  135.6119  152.3883 C   0  0  0  0  0  0  0  0  0  0  0  0
  144.1224  135.2504  152.0407 N   0  0  0  0  0  0  0  0  0  0  0  0
  145.2729  135.9689  152.1802 C   0  0  0  0  0  0  0  0  0  0  0  0
  145.4002  137.3463  152.7384 C   0  0  0  0  0  0  0  0  0  0  0  0
  146.2928  135.1956  151.7125 N   0  3  0  0  0  0  0  0  0  0  0  0
  145.7919  133.9702  151.2711 C   0  0  0  0  0  0  0  0  0  0  0  0
  146.4385  132.8677  150.7210 C   0  0  0  0  0  0  0  0  0  0  0  0
  145.6287  131.7653  150.3778 C   0  0  0  0  0  0  0  0  0  0  0  0
  144.2343  131.7861  150.5855 C   0  0  0  0  0  0  0  0  0  0  0  0
  143.5899  132.9099  151.1434 C   0  0  0  0  0  0  0  0  0  0  0  0
  144.3970  133.9971  151.4790 C   0  0  0  0  0  0  0  0  0  0  0  0
  138.5763  138.3551  153.4377 C   0  0  0  0  0  0  0  0  0  0  0  0
  138.0994  139.6804  153.4550 C   0  0  0  0  0  0  0  0  0  0  0  0
  136.7220  142.0695  152.5226 H   0  0  0  0  0  0  0  0  0  0  0  0
  136.7953  143.4939  153.5645 H   0  0  0  0  0  0  0  0  0  0  0  0
  136.4055  141.9185  154.2611 H   0  0  0  0  0  0  0  0  0  0  0  0
  141.0292  141.2769  154.2043 H   0  0  0  0  0  0  0  0  0  0  0  0
  141.8529  138.9605  154.1697 H   0  0  0  0  0  0  0  0  0  0  0  0
  142.2895  137.4736  154.5347 H   0  0  0  0  0  0  0  0  0  0  0  0
  141.3445  136.3382  155.5001 H   0  0  0  0  0  0  0  0  0  0  0  0
  143.3584  135.2600  154.4255 H   0  0  0  0  0  0  0  0  0  0  0  0
  142.2091  133.4926  154.1133 H   0  0  0  0  0  0  0  0  0  0  0  0
  142.0469  135.0584  151.7526 H   0  0  0  0  0  0  0  0  0  0  0  0
  142.6096  136.6632  152.1283 H   0  0  0  0  0  0  0  0  0  0  0  0
  146.4462  137.6513  152.7741 H   0  0  0  0  0  0  0  0  0  0  0  0
  144.9943  137.3827  153.7495 H   0  0  0  0  0  0  0  0  0  0  0  0
  144.8530  138.0552  152.1167 H   0  0  0  0  0  0  0  0  0  0  0  0
  147.5069  132.8487  150.5635 H   0  0  0  0  0  0  0  0  0  0  0  0
  146.0863  130.8856  149.9488 H   0  0  0  0  0  0  0  0  0  0  0  0
  143.6464  130.9217  150.3129 H   0  0  0  0  0  0  0  0  0  0  0  0
  142.5221  132.9110  151.3043 H   0  0  0  0  0  0  0  0  0  0  0  0
  137.8720  137.5668  153.2198 H   0  0  0  0  0  0  0  0  0  0  0  0
  137.0522  139.8469  153.2505 H   0  0  0  0  0  0  0  0  0  0  0  0
  147.2617  135.4873  151.6988 H   0  0  0  0  0  0  0  0  0  0  0  0
  1  2  1  0  0  0  0
  1 25  1  0  0  0  0
  1 26  1  0  0  0  0
  1 27  1  0  0  0  0
  2  3  2  0  0  0  0
  2  4  1  0  0  0  0
  4 24  1  0  0  0  0
  4  5  2  0  0  0  0
  5  6  1  0  0  0  0
  5 28  1  0  0  0  0
  6  7  2  0  0  0  0
  6 29  1  0  0  0  0
  7  8  1  0  0  0  0
  7 23  1  0  0  0  0
  8  9  1  0  0  0  0
  9 10  1  0  0  0  0
  9 30  1  0  0  0  0
  9 31  1  0  0  0  0
 10 11  1  0  0  0  0
 10 12  1  0  0  0  0
 10 32  1  0  0  0  0
 11 33  1  0  0  0  0
 12 13  1  0  0  0  0
 12 34  1  0  0  0  0
 12 35  1  0  0  0  0
 13 22  1  0  0  0  0
 13 14  1  0  0  0  0
 14 15  1  0  0  0  0
 14 16  2  0  0  0  0
 15 36  1  0  0  0  0
 15 37  1  0  0  0  0
 15 38  1  0  0  0  0
 16 17  1  0  0  0  0
 16 45  1  0  0  0  0
 17 22  2  0  0  0  0
 17 18  1  0  0  0  0
 18 19  2  0  0  0  0
 18 39  1  0  0  0  0
 19 20  1  0  0  0  0
 19 40  1  0  0  0  0
 20 21  2  0  0  0  0
 20 41  1  0  0  0  0
 21 22  1  0  0  0  0
 21 42  1  0  0  0  0
 23 24  2  0  0  0  0
 23 43  1  0  0  0  0
 24 44  1  0  0  0  0
M  CHG  1  16   1
M  END
> <s_m_source_file>
AV-unprocessed.smi

> <i_m_source_file_index>
2145

> <i_lp_mmshare_version>
43012

> <i_f3d_flags>
0

> <s_epik_input>
W0NIM11DKD1PKWMxW2NIXVtjSF1jKFtjSF1bY0hdMSlPW0NIMl1bQ0BIXShbT0hdKVtDSDJdbihjKG4yKVtDSDNdKWMoYzIzKVtjSF1bY0hdW2NIXVtjSF0z

> <s_epik_cmdline>
J2VwaWtfcHl0aG9uJywgJy1waCcsICc3LjAnLCAnLXRuJywgJzgnLCAnLW1hJywgJzIwMCcsICctbWV0YWxfYmluZGluZycsICctaW1hZScsICc8aW5maWxlLm1hZT4nLCAnLW9tYWUnLCAnPG91dGZpbGUubWFlPic=

> <r_lp_tautomer_probability>
0.99995

> <r_epik_Ionization_Penalty>
1.05477

> <r_epik_Ionization_Penalty_Charging>
1.05477

> <r_epik_Ionization_Penalty_Neutral>
2.3993e-06

> <r_epik_State_Penalty>
1.10796

> <r_epik_Charging_Adjusted_Penalty>
2.16273

> <i_epik_Tot_Q>
1

> <i_epik_Tot_abs_Q>
1

> <r_epik_Metal_State_Penalty>
5.10164

> <b_epik_Metal_Only>
0

> <s_lp_Force_Field>
OPLS_2005

> <r_lp_Energy>
25.5273

> <b_lp_Chiralities_Consistent>
1

> <s_lp_Variant>
AV-unprocessed.smi:2145-4

> <Gold.Version>
5.8.1

> <Gold.Id.Protein>
6NUR|6NUR_protein|mol2

> <Gold.PLP.Fitness>
57.9364

> <Gold.PLP.PLP>
-45.6490

> <Gold.PLP.part.hbond>
-4.0000

> <Gold.PLP.part.metal>
0.0000

> <Gold.PLP.part.buried>
-8.0952

> <Gold.PLP.part.nonpolar>
-33.8951

> <Gold.PLP.part.repulsive>
0.2427

> <Gold.PLP.ligand.clash>
0.0000

> <Gold.PLP.ligand.torsion>
1.4639

> <Gold.PLP.Chemscore.Hbond>
4.9913

> <Gold.PLP.Chemscore.CHOScore>
0.0000

> <Gold.PLP.Chemscore.Metal>
0.0000

> <Gold.Chemscore.Hbonds>
donor molecule, donor type, donor heavy atom, donor atom, acceptor molecule, acceptor atom, score
      L1  H    11    33       P1 10957  1.00
      L1  H    16    45       P1  7948  2.00
      P1  H 10162 10167       L1     3  1.00
      P1  H 11000 11005       L1    11  0.95

> <Gold.PLP.Chemscore.Internal.Correction>
0.2416

> <Gold.Rescore>
     Score         DG    S(hbond)    S(metal)    S(lipo)     H(rot)  DE(clash)    DE(int)     intcor
     22.07     -23.59       3.28        0.00     111.44       2.30       0.06       1.46       ----

> <Gold.Chemscore.Fitness>
22.0657

> <Gold.Chemscore.DG>
-23.5902

> <Gold.Chemscore.ZeroCoef>
-5.4800

> <Gold.Chemscore.Hbond>
3.2800

> <Gold.Chemscore.Metal>
0.0000

> <Gold.Chemscore.Lipo>
111.4428

> <Gold.Chemscore.Internal_Hbond>
0.0000

> <Gold.Chemscore.DEClash>
0.0615

> <Gold.Chemscore.DEInternal>
1.4630

> <Gold.Chemscore.Rot>
2.2984

> <Gold.Chemscore.Internal.Correction>
   9.000000E+99

> <Gold.Chemscore.Hbonds>
donor molecule, donor type, donor heavy atom, donor atom, acceptor molecule, acceptor atom, score
      L1  H    11    33       P1 10957  0.96
      L1  H    16    45       P1  7948  0.99
      P1  H 10162 10167       L1     3  0.59
      P1  H 11000 11005       L1    11  0.20

> <Gold.Chemscore.Hbond.Weighted>
-10.9552

> <Gold.Chemscore.Metal.Weighted>
-0.0000

> <Gold.Chemscore.Lipo.Weighted>
-13.0388

> <Gold.Chemscore.Internal_Hbond.Weighted>
0.0000

> <Gold.Chemscore.DEClash.Weighted>
0.0615

> <Gold.Chemscore.DEInternal.Weighted>
1.4630

> <Gold.Chemscore.Rot.Weighted>
5.8839

> <Gold.Chemscore.Internal.Correction.Weighted>
   9.000000E+99

> <Gold.Protein.RotatedTorsions>
[ 6907 6896 6895 6894 ] final  119.80 input  -60.11 | X-H torsion
[ 7974 7965 7964 7962 ] final  142.42 input  175.53 | X-H torsion
[ 8008 7997 7996 7995 ] final  -12.09 input   59.86 | X-H torsion
[ 10167 10162 10161 10158 ] final -145.93 input  -65.29 | X-H torsion
[ 10718 10713 10712 10709 ] final    9.41 input   66.30 | X-H torsion
[ 10763 10752 10751 10750 ] final -149.54 input  -60.55 | X-H torsion
[ 11005 11000 10999 10996 ] final    5.21 input  -57.11 | X-H torsion

> <Gold.Protein.ActiveResidues>
 VAL166  LYS551  ARG553  GLY616  TRP617  ASP618  TYR619  PRO620  LYS621  CYS622 
 ASP623  PHE694  ASN695  SER759  ASP760  ASP761  ALA762  ILE779  LEU786  VAL792 
 PHE793  MET794  SER795  GLU796  ALA797  LYS798  CYS799  TRP800  GLU811  SER814 

> <Gold.Protein.RotatedAtoms>
  152.4445  133.7510  159.6693 H   0  0  0  0  0  0  0  0  0  0  0  0  # atno 6907 bound_to 6896
  150.8342  133.8030  159.3092 H   0  0  0  0  0  0  0  0  0  0  0  0  # atno 6908 bound_to 6896
  151.5675  135.1066  160.0039 H   0  0  0  0  0  0  0  0  0  0  0  0  # atno 6909 bound_to 6896
  144.9010  139.5424  143.5754 H   0  0  0  0  0  0  0  0  0  0  0  0  # atno 7974 bound_to 7965
  154.5407  140.2285  155.8645 H   0  0  0  0  0  0  0  0  0  0  0  0  # atno 8008 bound_to 7997
  156.1856  140.3090  155.9194 H   0  0  0  0  0  0  0  0  0  0  0  0  # atno 8009 bound_to 7997
  155.3263  140.0443  157.3031 H   0  0  0  0  0  0  0  0  0  0  0  0  # atno 8010 bound_to 7997
  139.7760  143.8169  152.2632 H   0  0  0  0  0  0  0  0  0  0  0  0  # atno 10167 bound_to 10162
  156.9658  130.5950  149.5665 H   0  0  0  0  0  0  0  0  0  0  0  0  # atno 10718 bound_to 10713
  154.8171  135.3307  154.7144 H   0  0  0  0  0  0  0  0  0  0  0  0  # atno 10763 bound_to 10752
  153.7783  135.6920  153.4898 H   0  0  0  0  0  0  0  0  0  0  0  0  # atno 10764 bound_to 10752
  153.1998  135.4520  155.0200 H   0  0  0  0  0  0  0  0  0  0  0  0  # atno 10765 bound_to 10752
  140.5733  134.0082  155.8017 H   0  0  0  0  0  0  0  0  0  0  0  0  # atno 11005 bound_to 11000
  146.3108  139.7739  142.9021 LP  0  0  0  0  0  0  0  0  0  0  0  0  # atno 17320 bound_to 7965
  145.3617  141.0327  143.3281 LP  0  0  0  0  0  0  0  0  0  0  0  0  # atno 17321 bound_to 7965
  139.8217  144.7293  150.9564 LP  0  0  0  0  0  0  0  0  0  0  0  0  # atno 17342 bound_to 10162
  140.7816  143.4152  151.0928 LP  0  0  0  0  0  0  0  0  0  0  0  0  # atno 17343 bound_to 10162
  156.0303  130.5394  150.8516 LP  0  0  0  0  0  0  0  0  0  0  0  0  # atno 17370 bound_to 10713
  157.5626  131.0946  150.9536 LP  0  0  0  0  0  0  0  0  0  0  0  0  # atno 17371 bound_to 10713
  141.1042  133.9719  157.3025 LP  0  0  0  0  0  0  0  0  0  0  0  0  # atno 17394 bound_to 11000
  139.9351  135.0197  156.8530 LP  0  0  0  0  0  0  0  0  0  0  0  0  # atno 17395 bound_to 11000

$$$$
