AV-unprocessed.smi:1508|AV-procd|sdf|6088|dock10
  -GOLD-   22720 6213D 1   1.00000     0.00000
 Structure written by MMmdl.
 37 38  0  0  0  0  0  0  0  0  3 V2000
  146.9229  131.6401  155.0333 C   0  0  0  0  0  0  0  0  0  0  0  0
  146.3697  132.8036  154.1955 C   0  0  0  0  0  0  0  0  0  0  0  0
  147.4416  133.7988  153.6732 C   0  0  2  0  0  0  0  0  0  0  0  0
  148.0208  134.6905  154.8054 C   0  0  0  0  0  0  0  0  0  0  0  0
  149.2198  135.4144  154.3956 N   0  0  0  0  0  0  0  0  0  0  0  0
  150.1884  135.8451  155.2161 C   0  0  0  0  0  0  0  0  0  0  0  0
  150.1149  135.6167  156.4258 O   0  0  0  0  0  0  0  0  0  0  0  0
  151.1750  136.5203  154.5861 N   0  5  0  0  0  0  0  0  0  0  0  0
  151.5044  137.7577  154.9919 C   0  0  0  0  0  0  0  0  0  0  0  0
  152.6369  138.0165  155.6650 N   0  0  0  0  0  0  0  0  0  0  0  0
  152.7851  139.3586  155.9880 N   0  0  0  0  0  0  0  0  0  0  0  0
  151.7596  140.0823  155.5398 C   0  0  0  0  0  0  0  0  0  0  0  0
  150.5210  139.1910  154.6813 S   0  0  0  0  0  0  0  0  0  0  0  0
  146.9352  134.6270  152.5400 N   0  3  0  0  0  0  0  0  0  0  0  0
  146.4580  133.8606  151.3603 C   0  0  0  0  0  0  0  0  0  0  0  0
  145.2426  134.6056  150.7913 C   0  0  0  0  0  0  0  0  0  0  0  0
  145.2078  135.9311  151.5427 C   0  0  0  0  0  0  0  0  0  0  0  0
  145.8627  135.5888  152.8754 C   0  0  0  0  0  0  0  0  0  0  0  0
  146.1103  131.0098  155.3950 H   0  0  0  0  0  0  0  0  0  0  0  0
  147.4742  131.9963  155.9034 H   0  0  0  0  0  0  0  0  0  0  0  0
  147.5882  131.0051  154.4488 H   0  0  0  0  0  0  0  0  0  0  0  0
  145.8160  132.3894  153.3526 H   0  0  0  0  0  0  0  0  0  0  0  0
  145.6159  133.3336  154.7774 H   0  0  0  0  0  0  0  0  0  0  0  0
  148.2583  133.1973  153.2708 H   0  0  0  0  0  0  0  0  0  0  0  0
  147.2896  135.4196  155.1557 H   0  0  0  0  0  0  0  0  0  0  0  0
  148.2727  134.0840  155.6753 H   0  0  0  0  0  0  0  0  0  0  0  0
  149.3210  135.6171  153.4116 H   0  0  0  0  0  0  0  0  0  0  0  0
  151.7335  141.1477  155.7132 H   0  0  0  0  0  0  0  0  0  0  0  0
  147.2619  133.7906  150.6270 H   0  0  0  0  0  0  0  0  0  0  0  0
  146.1652  132.8450  151.6314 H   0  0  0  0  0  0  0  0  0  0  0  0
  145.3025  134.7421  149.7113 H   0  0  0  0  0  0  0  0  0  0  0  0
  144.3343  134.0397  151.0029 H   0  0  0  0  0  0  0  0  0  0  0  0
  145.8079  136.6733  151.0146 H   0  0  0  0  0  0  0  0  0  0  0  0
  144.1989  136.3295  151.6548 H   0  0  0  0  0  0  0  0  0  0  0  0
  145.1326  135.1132  153.5330 H   0  0  0  0  0  0  0  0  0  0  0  0
  146.2486  136.4765  153.3773 H   0  0  0  0  0  0  0  0  0  0  0  0
  147.7119  135.1847  152.2144 H   0  0  0  0  0  0  0  0  0  0  0  0
  1  2  1  0  0  0  0
  1 19  1  0  0  0  0
  1 20  1  0  0  0  0
  1 21  1  0  0  0  0
  2  3  1  0  0  0  0
  2 22  1  0  0  0  0
  2 23  1  0  0  0  0
  3  4  1  0  0  0  0
  3 14  1  0  0  0  0
  3 24  1  0  0  0  0
  4  5  1  0  0  0  0
  4 25  1  0  0  0  0
  4 26  1  0  0  0  0
  5  6  1  0  0  0  0
  5 27  1  0  0  0  0
  6  7  2  0  0  0  0
  6  8  1  0  0  0  0
  8  9  1  0  0  0  0
  9 13  1  0  0  0  0
  9 10  2  0  0  0  0
 10 11  1  0  0  0  0
 11 12  2  0  0  0  0
 12 13  1  0  0  0  0
 12 28  1  0  0  0  0
 14 18  1  0  0  0  0
 14 15  1  0  0  0  0
 14 37  1  0  0  0  0
 15 16  1  0  0  0  0
 15 29  1  0  0  0  0
 15 30  1  0  0  0  0
 16 17  1  0  0  0  0
 16 31  1  0  0  0  0
 16 32  1  0  0  0  0
 17 18  1  0  0  0  0
 17 33  1  0  0  0  0
 17 34  1  0  0  0  0
 18 35  1  0  0  0  0
 18 36  1  0  0  0  0
M  CHG  1   8  -1
M  CHG  1  14   1
M  END
> <s_m_source_file>
AV-unprocessed.smi

> <i_m_source_file_index>
1508

> <i_lp_mmshare_version>
43012

> <i_f3d_flags>
0

> <s_epik_input>
W0NIMl0xW0NIMl1bQ0gyXVtDSDJdTjFbQ0BIXShbQ0gyXVtDSDNdKVtDSDJdW05IXUMoPU8pW05IXWMybm5bY0hdczI=

> <s_epik_cmdline>
J2VwaWtfcHl0aG9uJywgJy1waCcsICc3LjAnLCAnLXRuJywgJzgnLCAnLW1hJywgJzIwMCcsICctbWV0YWxfYmluZGluZycsICctaW1hZScsICc8aW5maWxlLm1hZT4nLCAnLW9tYWUnLCAnPG91dGZpbGUubWFlPic=

> <r_lp_tautomer_probability>
1

> <r_epik_Ionization_Penalty>
3.98086

> <r_epik_Ionization_Penalty_Charging>
3.94833

> <r_epik_Ionization_Penalty_Neutral>
0.032525

> <r_epik_State_Penalty>
3.94643

> <r_epik_Charging_Adjusted_Penalty>
7.89477

> <i_epik_Tot_Q>
0

> <i_epik_Tot_abs_Q>
2

> <r_epik_Metal_State_Penalty>
0.605555

> <b_epik_Metal_Only>
1

> <s_lp_Force_Field>
OPLS_2005

> <r_lp_Energy>
24.3568

> <b_lp_Chiralities_Consistent>
1

> <s_lp_Variant>
AV-unprocessed.smi:1508-3

> <Gold.Version>
5.8.1

> <Gold.Id.Protein>
6NUR|6NUR_protein|mol2

> <Gold.PLP.Fitness>
42.8564

> <Gold.PLP.PLP>
-28.0088

> <Gold.PLP.part.hbond>
-4.7126

> <Gold.PLP.part.metal>
0.0000

> <Gold.PLP.part.buried>
-4.0073

> <Gold.PLP.part.nonpolar>
-19.8510

> <Gold.PLP.part.repulsive>
0.4977

> <Gold.PLP.ligand.clash>
0.0000

> <Gold.PLP.ligand.torsion>
1.5538

> <Gold.PLP.Chemscore.Hbond>
5.9500

> <Gold.PLP.Chemscore.CHOScore>
0.0000

> <Gold.PLP.Chemscore.Metal>
0.0000

> <Gold.Chemscore.Hbonds>
donor molecule, donor type, donor heavy atom, donor atom, acceptor molecule, acceptor atom, score
      L1  H     5    27       P1  7948  1.00
      L1  H    14    37       P1  7948  2.00
      P1  H  7997  8010       L1    11  1.00
      P1  H 10752 10765       L1     8  2.00

> <Gold.PLP.Chemscore.Internal.Correction>
0.1051

> <Gold.Rescore>
     Score         DG    S(hbond)    S(metal)    S(lipo)     H(rot)  DE(clash)    DE(int)     intcor
     14.47     -16.10       3.02        0.00      45.17       1.86       0.00       1.63       ----

> <Gold.Chemscore.Fitness>
14.4739

> <Gold.Chemscore.DG>
-16.1041

> <Gold.Chemscore.ZeroCoef>
-5.4800

> <Gold.Chemscore.Hbond>
3.0224

> <Gold.Chemscore.Metal>
0.0000

> <Gold.Chemscore.Lipo>
45.1653

> <Gold.Chemscore.Internal_Hbond>
0.0000

> <Gold.Chemscore.DEClash>
0.0015

> <Gold.Chemscore.DEInternal>
1.6287

> <Gold.Chemscore.Rot>
1.8575

> <Gold.Chemscore.Internal.Correction>
   9.000000E+99

> <Gold.Chemscore.Hbonds>
donor molecule, donor type, donor heavy atom, donor atom, acceptor molecule, acceptor atom, score
      L1  H     5    27       P1  7948  0.35
      L1  H    14    37       P1  7948  0.96
      P1  H  7997  8010       L1    11  0.98
      P1  H 10752 10765       L1     8  0.36

> <Gold.Chemscore.Hbond.Weighted>
-10.0949

> <Gold.Chemscore.Metal.Weighted>
-0.0000

> <Gold.Chemscore.Lipo.Weighted>
-5.2843

> <Gold.Chemscore.Internal_Hbond.Weighted>
0.0000

> <Gold.Chemscore.DEClash.Weighted>
0.0015

> <Gold.Chemscore.DEInternal.Weighted>
1.6287

> <Gold.Chemscore.Rot.Weighted>
4.7551

> <Gold.Chemscore.Internal.Correction.Weighted>
   9.000000E+99

> <Gold.Protein.RotatedTorsions>
[ 6907 6896 6895 6894 ] final   27.76 input  -60.11 | X-H torsion
[ 7974 7965 7964 7962 ] final  -95.21 input  175.53 | X-H torsion
[ 8008 7997 7996 7995 ] final   74.76 input   59.86 | X-H torsion
[ 10167 10162 10161 10158 ] final  142.53 input  -65.29 | X-H torsion
[ 10718 10713 10712 10709 ] final  170.98 input   66.30 | X-H torsion
[ 10763 10752 10751 10750 ] final  174.77 input  -60.55 | X-H torsion
[ 11005 11000 10999 10996 ] final   21.46 input  -57.11 | X-H torsion

> <Gold.Protein.ActiveResidues>
 VAL166  LYS551  ARG553  GLY616  TRP617  ASP618  TYR619  PRO620  LYS621  CYS622 
 ASP623  PHE694  ASN695  SER759  ASP760  ASP761  ALA762  ILE779  LEU786  VAL792 
 PHE793  MET794  SER795  GLU796  ALA797  LYS798  CYS799  TRP800  GLU811  SER814 

> <Gold.Protein.RotatedAtoms>
  152.0071  134.9897  160.0566 H   0  0  0  0  0  0  0  0  0  0  0  0  # atno 6907 bound_to 6896
  152.1464  133.4490  159.4800 H   0  0  0  0  0  0  0  0  0  0  0  0  # atno 6908 bound_to 6896
  150.6870  134.2160  159.4421 H   0  0  0  0  0  0  0  0  0  0  0  0  # atno 6909 bound_to 6896
  145.3631  140.9494  143.2489 H   0  0  0  0  0  0  0  0  0  0  0  0  # atno 7974 bound_to 7965
  155.8030  140.3475  155.5414 H   0  0  0  0  0  0  0  0  0  0  0  0  # atno 8008 bound_to 7997
  155.8518  140.0957  157.1690 H   0  0  0  0  0  0  0  0  0  0  0  0  # atno 8009 bound_to 7997
  154.4008  140.1375  156.3841 H   0  0  0  0  0  0  0  0  0  0  0  0  # atno 8010 bound_to 7997
  139.4992  144.6101  151.6291 H   0  0  0  0  0  0  0  0  0  0  0  0  # atno 10167 bound_to 10162
  157.0002  131.0174  151.2832 H   0  0  0  0  0  0  0  0  0  0  0  0  # atno 10718 bound_to 10713
  154.4585  135.2767  155.1730 H   0  0  0  0  0  0  0  0  0  0  0  0  # atno 10763 bound_to 10752
  154.3527  135.6146  153.5654 H   0  0  0  0  0  0  0  0  0  0  0  0  # atno 10764 bound_to 10752
  152.9853  135.5815  154.4943 H   0  0  0  0  0  0  0  0  0  0  0  0  # atno 10765 bound_to 10752
  140.3913  134.1816  155.7662 H   0  0  0  0  0  0  0  0  0  0  0  0  # atno 11005 bound_to 11000
  144.8632  139.5147  143.6802 LP  0  0  0  0  0  0  0  0  0  0  0  0  # atno 17320 bound_to 7965
  146.2918  139.7163  142.9155 LP  0  0  0  0  0  0  0  0  0  0  0  0  # atno 17321 bound_to 7965
  140.5773  144.0006  150.6249 LP  0  0  0  0  0  0  0  0  0  0  0  0  # atno 17342 bound_to 10162
  140.3144  143.3177  152.0847 LP  0  0  0  0  0  0  0  0  0  0  0  0  # atno 17343 bound_to 10162
  157.5395  130.8111  149.8012 LP  0  0  0  0  0  0  0  0  0  0  0  0  # atno 17370 bound_to 10713
  156.0174  130.3808  150.2068 LP  0  0  0  0  0  0  0  0  0  0  0  0  # atno 17371 bound_to 10713
  141.1890  133.8249  157.0975 LP  0  0  0  0  0  0  0  0  0  0  0  0  # atno 17394 bound_to 11000
  140.0404  134.9857  157.0951 LP  0  0  0  0  0  0  0  0  0  0  0  0  # atno 17395 bound_to 11000

$$$$
