AV-unprocessed.smi:2356|AV-procd|sdf|9398|dock8
  -GOLD-   2272013 33D 1   1.00000     0.00000
 Structure written by MMmdl.
 54 57  0  0  0  0  0  0  0  0  2 V2000
  149.0488  141.0003  154.5917 C   0  0  0  0  0  0  0  0  0  0  0  0
  149.9630  141.0218  155.8061 C   0  0  0  0  0  0  0  0  0  0  0  0
  150.0999  142.2135  156.4295 N   0  3  0  0  0  0  0  0  0  0  0  0
  150.8692  142.4060  157.5218 C   0  0  0  0  0  0  0  0  0  0  0  0
  150.9083  143.7026  158.0533 N   0  0  0  0  0  0  0  0  0  0  0  0
  152.2332  144.2953  158.1285 C   0  0  0  0  0  0  0  0  0  0  0  0
  152.1015  145.4755  159.0950 C   0  0  0  0  0  0  0  0  0  0  0  0
  150.8433  145.1738  159.9179 C   0  0  0  0  0  0  0  0  0  0  0  0
  150.3365  143.8320  159.3830 C   0  0  0  0  0  0  0  0  0  0  0  0
  151.5735  141.3096  158.0666 C   0  0  0  0  0  0  0  0  0  0  0  0
  151.4652  140.0456  157.4540 C   0  0  0  0  0  0  0  0  0  0  0  0
  150.6628  139.8889  156.2952 C   0  0  0  0  0  0  0  0  0  0  0  0
  150.4986  138.6388  155.6360 N   0  0  0  0  0  0  0  0  0  0  0  0
  150.8387  137.4059  156.0612 C   0  0  0  0  0  0  0  0  0  0  0  0
  151.3881  137.1634  157.1333 O   0  0  0  0  0  0  0  0  0  0  0  0
  150.5371  136.4208  155.1960 N   0  0  0  0  0  0  0  0  0  0  0  0
  150.7659  134.9810  155.3384 C   0  0  1  0  0  0  0  0  0  0  0  0
  150.1340  134.4861  156.6481 C   0  0  0  0  0  0  0  0  0  0  0  0
  150.2341  132.9562  156.7586 C   0  0  0  0  0  0  0  0  0  0  0  0
  149.6279  132.3459  155.6242 O   0  0  0  0  0  0  0  0  0  0  0  0
  150.2693  132.6817  154.3977 C   0  0  1  0  0  0  0  0  0  0  0  0
  149.6119  131.8881  153.2862 C   0  0  0  0  0  0  0  0  0  0  0  0
  148.1075  131.8344  153.1591 C   0  0  0  0  0  0  0  0  0  0  0  0
  148.8722  130.6057  153.5891 C   0  0  0  0  0  0  0  0  0  0  0  0
  150.1580  134.1988  154.1602 C   0  0  0  0  0  0  0  0  0  0  0  0
  148.9404  140.0091  154.1529 H   0  0  0  0  0  0  0  0  0  0  0  0
  149.4383  141.6656  153.8207 H   0  0  0  0  0  0  0  0  0  0  0  0
  148.0537  141.3500  154.8676 H   0  0  0  0  0  0  0  0  0  0  0  0
  152.9567  143.5756  158.5133 H   0  0  0  0  0  0  0  0  0  0  0  0
  152.5736  144.6197  157.1447 H   0  0  0  0  0  0  0  0  0  0  0  0
  152.9896  145.5824  159.7189 H   0  0  0  0  0  0  0  0  0  0  0  0
  151.9700  146.4068  158.5427 H   0  0  0  0  0  0  0  0  0  0  0  0
  151.0468  145.1285  160.9880 H   0  0  0  0  0  0  0  0  0  0  0  0
  150.0979  145.9530  159.7539 H   0  0  0  0  0  0  0  0  0  0  0  0
  149.2472  143.8006  159.3465 H   0  0  0  0  0  0  0  0  0  0  0  0
  150.6753  143.0196  160.0273 H   0  0  0  0  0  0  0  0  0  0  0  0
  152.1876  141.4267  158.9476 H   0  0  0  0  0  0  0  0  0  0  0  0
  151.9917  139.2155  157.8983 H   0  0  0  0  0  0  0  0  0  0  0  0
  150.1321  138.6910  154.6967 H   0  0  0  0  0  0  0  0  0  0  0  0
  150.0760  136.7039  154.3433 H   0  0  0  0  0  0  0  0  0  0  0  0
  151.8384  134.7840  155.3880 H   0  0  0  0  0  0  0  0  0  0  0  0
  150.6199  134.9544  157.5048 H   0  0  0  0  0  0  0  0  0  0  0  0
  149.0831  134.7774  156.6869 H   0  0  0  0  0  0  0  0  0  0  0  0
  151.2746  132.6390  156.8438 H   0  0  0  0  0  0  0  0  0  0  0  0
  149.7231  132.6119  157.6580 H   0  0  0  0  0  0  0  0  0  0  0  0
  151.3212  132.3947  154.4528 H   0  0  0  0  0  0  0  0  0  0  0  0
  150.1665  131.9037  152.3496 H   0  0  0  0  0  0  0  0  0  0  0  0
  147.5162  132.3482  153.9144 H   0  0  0  0  0  0  0  0  0  0  0  0
  147.6894  131.8423  152.1547 H   0  0  0  0  0  0  0  0  0  0  0  0
  148.9634  129.7924  152.8721 H   0  0  0  0  0  0  0  0  0  0  0  0
  148.7892  130.3020  154.6309 H   0  0  0  0  0  0  0  0  0  0  0  0
  149.1085  134.4717  154.0389 H   0  0  0  0  0  0  0  0  0  0  0  0
  150.6572  134.4624  153.2273 H   0  0  0  0  0  0  0  0  0  0  0  0
  149.5919  143.0142  156.0531 H   0  0  0  0  0  0  0  0  0  0  0  0
  1  2  1  0  0  0  0
  1 26  1  0  0  0  0
  1 27  1  0  0  0  0
  1 28  1  0  0  0  0
  2 12  1  0  0  0  0
  2  3  2  0  0  0  0
  3  4  1  0  0  0  0
  3 54  1  0  0  0  0
  4  5  1  0  0  0  0
  4 10  2  0  0  0  0
  5  9  1  0  0  0  0
  5  6  1  0  0  0  0
  6  7  1  0  0  0  0
  6 29  1  0  0  0  0
  6 30  1  0  0  0  0
  7  8  1  0  0  0  0
  7 31  1  0  0  0  0
  7 32  1  0  0  0  0
  8  9  1  0  0  0  0
  8 33  1  0  0  0  0
  8 34  1  0  0  0  0
  9 35  1  0  0  0  0
  9 36  1  0  0  0  0
 10 11  1  0  0  0  0
 10 37  1  0  0  0  0
 11 12  2  0  0  0  0
 11 38  1  0  0  0  0
 12 13  1  0  0  0  0
 13 14  1  0  0  0  0
 13 39  1  0  0  0  0
 14 15  2  0  0  0  0
 14 16  1  0  0  0  0
 16 17  1  0  0  0  0
 16 40  1  0  0  0  0
 17 25  1  0  0  0  0
 17 18  1  0  0  0  0
 17 41  1  0  0  0  0
 18 19  1  0  0  0  0
 18 42  1  0  0  0  0
 18 43  1  0  0  0  0
 19 20  1  0  0  0  0
 19 44  1  0  0  0  0
 19 45  1  0  0  0  0
 20 21  1  0  0  0  0
 21 22  1  0  0  0  0
 21 25  1  0  0  0  0
 21 46  1  0  0  0  0
 22 24  1  0  0  0  0
 22 23  1  0  0  0  0
 22 47  1  0  0  0  0
 23 24  1  0  0  0  0
 23 48  1  0  0  0  0
 23 49  1  0  0  0  0
 24 50  1  0  0  0  0
 24 51  1  0  0  0  0
 25 52  1  0  0  0  0
 25 53  1  0  0  0  0
M  CHG  1   3   1
M  END
> <s_m_source_file>
AV-unprocessed.smi

> <i_m_source_file_index>
2356

> <i_lp_mmshare_version>
43012

> <i_f3d_flags>
0

> <s_epik_input>
W0NIMl0xW0NIMl1bQ0gyXVtDSDJdTjFjKG5jMltDSDNdKVtjSF1bY0hdYzJbTkhdQyg9TylbTkhdW0NAQEhdM1tDSDJdW0NIMl1PW0NASF0oW0NIMl0zKVtDSF00W0NIMl1bQ0gyXTQ=

> <s_epik_cmdline>
J2VwaWtfcHl0aG9uJywgJy1waCcsICc3LjAnLCAnLXRuJywgJzgnLCAnLW1hJywgJzIwMCcsICctbWV0YWxfYmluZGluZycsICctaW1hZScsICc8aW5maWxlLm1hZT4nLCAnLW9tYWUnLCAnPG91dGZpbGUubWFlPic=

> <r_lp_tautomer_probability>
0.999994

> <r_epik_Ionization_Penalty>
0.534681

> <r_epik_Ionization_Penalty_Charging>
0.534661

> <r_epik_Ionization_Penalty_Neutral>
1.99132e-05

> <r_epik_State_Penalty>
0.543738

> <r_epik_Charging_Adjusted_Penalty>
1.0784

> <i_epik_Tot_Q>
1

> <i_epik_Tot_abs_Q>
1

> <r_epik_Metal_State_Penalty>
0.74699

> <b_epik_Metal_Only>
0

> <s_lp_Force_Field>
OPLS_2005

> <r_lp_Energy>
63.5996

> <b_lp_Chiralities_Consistent>
1

> <s_lp_Variant>
AV-unprocessed.smi:2356-6

> <Gold.Version>
5.8.1

> <Gold.Id.Protein>
6NUR|6NUR_protein|mol2

> <Gold.PLP.Fitness>
49.7144

> <Gold.PLP.PLP>
-43.9762

> <Gold.PLP.part.hbond>
-1.0000

> <Gold.PLP.part.metal>
0.0000

> <Gold.PLP.part.buried>
-6.7209

> <Gold.PLP.part.nonpolar>
-36.6905

> <Gold.PLP.part.repulsive>
0.3350

> <Gold.PLP.ligand.clash>
0.0000

> <Gold.PLP.ligand.torsion>
0.6754

> <Gold.PLP.Chemscore.Hbond>
2.0000

> <Gold.PLP.Chemscore.CHOScore>
0.0000

> <Gold.PLP.Chemscore.Metal>
0.0000

> <Gold.Chemscore.Hbonds>
donor molecule, donor type, donor heavy atom, donor atom, acceptor molecule, acceptor atom, score
      L1  H     3    54       P1  8028  2.00

> <Gold.PLP.Chemscore.Internal.Correction>
1.0890

> <Gold.Rescore>
     Score         DG    S(hbond)    S(metal)    S(lipo)     H(rot)  DE(clash)    DE(int)     intcor
     17.25     -19.46       1.00        0.00     119.56       1.31       0.24       1.98       ----

> <Gold.Chemscore.Fitness>
17.2503

> <Gold.Chemscore.DG>
-19.4647

> <Gold.Chemscore.ZeroCoef>
-5.4800

> <Gold.Chemscore.Hbond>
0.9998

> <Gold.Chemscore.Metal>
0.0000

> <Gold.Chemscore.Lipo>
119.5612

> <Gold.Chemscore.Internal_Hbond>
0.0000

> <Gold.Chemscore.DEClash>
0.2390

> <Gold.Chemscore.DEInternal>
1.9754

> <Gold.Chemscore.Rot>
1.3060

> <Gold.Chemscore.Internal.Correction>
   9.000000E+99

> <Gold.Chemscore.Hbonds>
donor molecule, donor type, donor heavy atom, donor atom, acceptor molecule, acceptor atom, score
      L1  H     3    54       P1  8028  1.00

> <Gold.Chemscore.Hbond.Weighted>
-3.3394

> <Gold.Chemscore.Metal.Weighted>
-0.0000

> <Gold.Chemscore.Lipo.Weighted>
-13.9887

> <Gold.Chemscore.Internal_Hbond.Weighted>
0.0000

> <Gold.Chemscore.DEClash.Weighted>
0.2390

> <Gold.Chemscore.DEInternal.Weighted>
1.9754

> <Gold.Chemscore.Rot.Weighted>
3.3433

> <Gold.Chemscore.Internal.Correction.Weighted>
   9.000000E+99

> <Gold.Protein.RotatedTorsions>
[ 6907 6896 6895 6894 ] final -117.81 input  -60.11 | X-H torsion
[ 7974 7965 7964 7962 ] final  146.38 input  175.53 | X-H torsion
[ 8008 7997 7996 7995 ] final  -89.85 input   59.86 | X-H torsion
[ 10167 10162 10161 10158 ] final  -82.45 input  -65.29 | X-H torsion
[ 10718 10713 10712 10709 ] final  -40.40 input   66.30 | X-H torsion
[ 10763 10752 10751 10750 ] final  -45.12 input  -60.55 | X-H torsion
[ 11005 11000 10999 10996 ] final   20.45 input  -57.11 | X-H torsion

> <Gold.Protein.ActiveResidues>
 VAL166  LYS551  ARG553  GLY616  TRP617  ASP618  TYR619  PRO620  LYS621  CYS622 
 ASP623  PHE694  ASN695  SER759  ASP760  ASP761  ALA762  ILE779  LEU786  VAL792 
 PHE793  MET794  SER795  GLU796  ALA797  LYS798  CYS799  TRP800  GLU811  SER814 

> <Gold.Protein.RotatedAtoms>
  150.8167  133.8325  159.3157 H   0  0  0  0  0  0  0  0  0  0  0  0  # atno 6907 bound_to 6896
  151.6095  135.1039  160.0087 H   0  0  0  0  0  0  0  0  0  0  0  0  # atno 6908 bound_to 6896
  152.4258  133.7152  159.6558 H   0  0  0  0  0  0  0  0  0  0  0  0  # atno 6909 bound_to 6896
  144.8676  139.5898  143.5902 H   0  0  0  0  0  0  0  0  0  0  0  0  # atno 7974 bound_to 7965
  154.6914  140.0537  157.0367 H   0  0  0  0  0  0  0  0  0  0  0  0  # atno 8008 bound_to 7997
  155.0811  140.3209  155.4582 H   0  0  0  0  0  0  0  0  0  0  0  0  # atno 8009 bound_to 7997
  156.2729  140.2065  156.5938 H   0  0  0  0  0  0  0  0  0  0  0  0  # atno 8010 bound_to 7997
  140.4318  143.2546  151.8748 H   0  0  0  0  0  0  0  0  0  0  0  0  # atno 10167 bound_to 10162
  156.2817  130.4218  149.8330 H   0  0  0  0  0  0  0  0  0  0  0  0  # atno 10718 bound_to 10713
  154.0233  135.6666  153.4774 H   0  0  0  0  0  0  0  0  0  0  0  0  # atno 10763 bound_to 10752
  153.0571  135.5050  154.8002 H   0  0  0  0  0  0  0  0  0  0  0  0  # atno 10764 bound_to 10752
  154.6924  135.3064  154.9425 H   0  0  0  0  0  0  0  0  0  0  0  0  # atno 10765 bound_to 10752
  140.4025  134.1703  155.7664 H   0  0  0  0  0  0  0  0  0  0  0  0  # atno 11005 bound_to 11000
  146.2907  139.7131  142.9163 LP  0  0  0  0  0  0  0  0  0  0  0  0  # atno 17320 bound_to 7965
  145.4192  141.0405  143.2973 LP  0  0  0  0  0  0  0  0  0  0  0  0  # atno 17321 bound_to 7965
  139.4785  144.5326  151.8645 LP  0  0  0  0  0  0  0  0  0  0  0  0  # atno 17342 bound_to 10162
  140.4418  144.1976  150.5892 LP  0  0  0  0  0  0  0  0  0  0  0  0  # atno 17343 bound_to 10162
  156.5774  130.8451  151.3373 LP  0  0  0  0  0  0  0  0  0  0  0  0  # atno 17370 bound_to 10713
  157.7316  130.9703  150.1890 LP  0  0  0  0  0  0  0  0  0  0  0  0  # atno 17371 bound_to 10713
  141.1851  133.8330  157.1115 LP  0  0  0  0  0  0  0  0  0  0  0  0  # atno 17394 bound_to 11000
  140.0326  134.9894  157.0809 LP  0  0  0  0  0  0  0  0  0  0  0  0  # atno 17395 bound_to 11000

$$$$
