AV-unprocessed.smi:213|AV-procd|sdf|1633|dock4
  -GOLD-   2262019593D 1   1.00000     0.00000
 Structure written by MMmdl.
 59 62  0  0  0  0  0  0  0  0  2 V2000
  150.7090  140.5427  157.9001 C   0  0  0  0  0  0  0  0  0  0  0  0
  150.1081  141.3874  156.7647 C   0  0  2  0  0  0  0  0  0  0  0  0
  149.2969  142.5828  157.3231 C   0  0  0  0  0  0  0  0  0  0  0  0
  150.1543  143.6521  157.8956 N   0  3  0  0  0  0  0  0  0  0  0  0
  150.2214  143.6162  159.3740 C   0  0  0  0  0  0  0  0  0  0  0  0
  151.0378  144.8117  159.8934 C   0  0  0  0  0  0  0  0  0  0  0  0
  152.3379  144.7899  159.3163 O   0  0  0  0  0  0  0  0  0  0  0  0
  152.2952  144.8986  157.8984 C   0  0  0  0  0  0  0  0  0  0  0  0
  151.5182  143.7072  157.3142 C   0  0  0  0  0  0  0  0  0  0  0  0
  149.3310  140.5584  155.8294 N   0  0  0  0  0  0  0  0  0  0  0  0
  148.3459  141.1946  154.9547 C   0  0  0  0  0  0  0  0  0  0  0  0
  149.9588  139.4559  155.3401 C   0  0  0  0  0  0  0  0  0  0  0  0
  150.6893  139.5577  154.1966 N   0  0  0  0  0  0  0  0  0  0  0  0
  151.3685  138.5061  153.7307 C   0  0  0  0  0  0  0  0  0  0  0  0
  151.4633  137.2810  154.2485 N   0  0  0  0  0  0  0  0  0  0  0  0
  150.7218  137.1656  155.3866 C   0  0  0  0  0  0  0  0  0  0  0  0
  149.9420  138.1904  155.9933 C   0  0  0  0  0  0  0  0  0  0  0  0
  149.3248  137.6972  157.1371 N   0  0  0  0  0  0  0  0  0  0  0  0
  149.7245  136.4569  157.2085 C   0  0  0  0  0  0  0  0  0  0  0  0
  150.5759  136.0590  156.2037 N   0  0  0  0  0  0  0  0  0  0  0  0
  151.1830  134.7478  156.0487 C   0  0  0  0  0  0  0  0  0  0  0  0
  150.1454  133.6053  156.1066 C   0  0  2  0  0  0  0  0  0  0  0  0
  150.7657  132.4688  156.6786 O   0  0  0  0  0  0  0  0  0  0  0  0
  149.6106  133.2026  154.7175 C   0  0  2  0  0  0  0  0  0  0  0  0
  148.5475  134.1381  154.1400 C   0  0  0  0  0  0  0  0  0  0  0  0
  147.8237  133.2608  153.1344 C   0  0  0  0  0  0  0  0  0  0  0  0
  148.1052  131.8387  153.6253 C   0  0  0  0  0  0  0  0  0  0  0  0
  148.8749  131.9913  154.8116 O   0  0  0  0  0  0  0  0  0  0  0  0
  151.3839  141.1419  158.5119 H   0  0  0  0  0  0  0  0  0  0  0  0
  151.2845  139.7058  157.5034 H   0  0  0  0  0  0  0  0  0  0  0  0
  149.9429  140.1408  158.5632 H   0  0  0  0  0  0  0  0  0  0  0  0
  150.9660  141.8001  156.2384 H   0  0  0  0  0  0  0  0  0  0  0  0
  148.6925  143.0003  156.5166 H   0  0  0  0  0  0  0  0  0  0  0  0
  148.5908  142.2441  158.0829 H   0  0  0  0  0  0  0  0  0  0  0  0
  149.2147  143.6526  159.7920 H   0  0  0  0  0  0  0  0  0  0  0  0
  150.6733  142.6780  159.6995 H   0  0  0  0  0  0  0  0  0  0  0  0
  150.5392  145.7539  159.6590 H   0  0  0  0  0  0  0  0  0  0  0  0
  151.1314  144.7613  160.9783 H   0  0  0  0  0  0  0  0  0  0  0  0
  151.8363  145.8442  157.6065 H   0  0  0  0  0  0  0  0  0  0  0  0
  153.3145  144.9088  157.5122 H   0  0  0  0  0  0  0  0  0  0  0  0
  152.0458  142.7759  157.5254 H   0  0  0  0  0  0  0  0  0  0  0  0
  151.4711  143.8083  156.2308 H   0  0  0  0  0  0  0  0  0  0  0  0
  147.7178  140.4467  154.4688 H   0  0  0  0  0  0  0  0  0  0  0  0
  148.8348  141.7862  154.1803 H   0  0  0  0  0  0  0  0  0  0  0  0
  147.6839  141.8513  155.5174 H   0  0  0  0  0  0  0  0  0  0  0  0
  151.9234  138.6726  152.8192 H   0  0  0  0  0  0  0  0  0  0  0  0
  149.4147  135.7963  158.0057 H   0  0  0  0  0  0  0  0  0  0  0  0
  151.7140  134.7376  155.0964 H   0  0  0  0  0  0  0  0  0  0  0  0
  151.9366  134.6146  156.8260 H   0  0  0  0  0  0  0  0  0  0  0  0
  149.3148  133.9085  156.7456 H   0  0  0  0  0  0  0  0  0  0  0  0
  150.7235  131.7615  156.0542 H   0  0  0  0  0  0  0  0  0  0  0  0
  150.4257  133.0870  154.0000 H   0  0  0  0  0  0  0  0  0  0  0  0
  147.8527  134.4469  154.9225 H   0  0  0  0  0  0  0  0  0  0  0  0
  148.9704  135.0356  153.6877 H   0  0  0  0  0  0  0  0  0  0  0  0
  146.7573  133.4846  153.0977 H   0  0  0  0  0  0  0  0  0  0  0  0
  148.2329  133.4011  152.1332 H   0  0  0  0  0  0  0  0  0  0  0  0
  147.1903  131.2834  153.8329 H   0  0  0  0  0  0  0  0  0  0  0  0
  148.6816  131.2821  152.8854 H   0  0  0  0  0  0  0  0  0  0  0  0
  149.7024  144.5255  157.6623 H   0  0  0  0  0  0  0  0  0  0  0  0
  1  2  1  0  0  0  0
  1 29  1  0  0  0  0
  1 30  1  0  0  0  0
  1 31  1  0  0  0  0
  2  3  1  0  0  0  0
  2 10  1  0  0  0  0
  2 32  1  0  0  0  0
  3  4  1  0  0  0  0
  3 33  1  0  0  0  0
  3 34  1  0  0  0  0
  4  9  1  0  0  0  0
  4  5  1  0  0  0  0
  4 59  1  0  0  0  0
  5  6  1  0  0  0  0
  5 35  1  0  0  0  0
  5 36  1  0  0  0  0
  6  7  1  0  0  0  0
  6 37  1  0  0  0  0
  6 38  1  0  0  0  0
  7  8  1  0  0  0  0
  8  9  1  0  0  0  0
  8 39  1  0  0  0  0
  8 40  1  0  0  0  0
  9 41  1  0  0  0  0
  9 42  1  0  0  0  0
 10 11  1  0  0  0  0
 10 12  1  0  0  0  0
 11 43  1  0  0  0  0
 11 44  1  0  0  0  0
 11 45  1  0  0  0  0
 12 17  1  0  0  0  0
 12 13  2  0  0  0  0
 13 14  1  0  0  0  0
 14 15  2  0  0  0  0
 14 46  1  0  0  0  0
 15 16  1  0  0  0  0
 16 20  1  0  0  0  0
 16 17  2  0  0  0  0
 17 18  1  0  0  0  0
 18 19  2  0  0  0  0
 19 20  1  0  0  0  0
 19 47  1  0  0  0  0
 20 21  1  0  0  0  0
 21 22  1  0  0  0  0
 21 48  1  0  0  0  0
 21 49  1  0  0  0  0
 22 23  1  0  0  0  0
 22 24  1  0  0  0  0
 22 50  1  0  0  0  0
 23 51  1  0  0  0  0
 24 28  1  0  0  0  0
 24 25  1  0  0  0  0
 24 52  1  0  0  0  0
 25 26  1  0  0  0  0
 25 53  1  0  0  0  0
 25 54  1  0  0  0  0
 26 27  1  0  0  0  0
 26 55  1  0  0  0  0
 26 56  1  0  0  0  0
 27 28  1  0  0  0  0
 27 57  1  0  0  0  0
 27 58  1  0  0  0  0
M  CHG  1   4   1
M  END
> <s_m_source_file>
AV-unprocessed.smi

> <i_m_source_file_index>
213

> <i_lp_mmshare_version>
43012

> <i_f3d_flags>
0

> <s_epik_input>
W0NIMl0xW0NIMl1PW0NIMl1bQ0gyXU4xW0NIMl1bQ0BASF0oW0NIM10pTihbQ0gzXSljKG5bY0hdbjIpYyhjMjMpbltjSF1uM1tDSDJdW0NASF0oW09IXSlbQ0BASF00W0NIMl1bQ0gyXVtDSDJdTzQ=

> <s_epik_cmdline>
J2VwaWtfcHl0aG9uJywgJy1waCcsICc3LjAnLCAnLXRuJywgJzgnLCAnLW1hJywgJzIwMCcsICctbWV0YWxfYmluZGluZycsICctaW1hZScsICc8aW5maWxlLm1hZT4nLCAnLW9tYWUnLCAnPG91dGZpbGUubWFlPic=

> <r_lp_tautomer_probability>
1

> <r_epik_Ionization_Penalty>
0.399679

> <r_epik_Ionization_Penalty_Charging>
0.399433

> <r_epik_Ionization_Penalty_Neutral>
0.000246213

> <r_epik_State_Penalty>
0.286032

> <r_epik_Charging_Adjusted_Penalty>
0.685465

> <i_epik_Tot_Q>
1

> <i_epik_Tot_abs_Q>
1

> <r_epik_Metal_State_Penalty>
0.286072

> <b_epik_Metal_Only>
0

> <s_lp_Force_Field>
OPLS_2005

> <r_lp_Energy>
46.7886

> <b_lp_Chiralities_Consistent>
1

> <s_lp_Variant>
AV-unprocessed.smi:213-1

> <Gold.Version>
5.8.1

> <Gold.Id.Protein>
6NUR|6NUR_protein|mol2

> <Gold.PLP.Fitness>
48.5660

> <Gold.PLP.PLP>
-43.7500

> <Gold.PLP.part.hbond>
-2.7786

> <Gold.PLP.part.metal>
0.0000

> <Gold.PLP.part.buried>
-3.8091

> <Gold.PLP.part.nonpolar>
-37.1354

> <Gold.PLP.part.repulsive>
0.3033

> <Gold.PLP.ligand.clash>
0.0000

> <Gold.PLP.ligand.torsion>
2.9939

> <Gold.PLP.Chemscore.Hbond>
3.1920

> <Gold.PLP.Chemscore.CHOScore>
0.0000

> <Gold.PLP.Chemscore.Metal>
0.0000

> <Gold.Chemscore.Hbonds>
donor molecule, donor type, donor heavy atom, donor atom, acceptor molecule, acceptor atom, score
      L1  H     4    59       P1  8028  0.34
      P1  H  7989  7998       L1    13  1.00
      P1  H 10752 10765       L1    15  0.52

> <Gold.PLP.Chemscore.Internal.Correction>
1.2279

> <Gold.Rescore>
     Score         DG    S(hbond)    S(metal)    S(lipo)     H(rot)  DE(clash)    DE(int)     intcor
     12.27     -16.26       1.97        0.00      97.78       2.83       1.52       2.47       ----

> <Gold.Chemscore.Fitness>
12.2718

> <Gold.Chemscore.DG>
-16.2607

> <Gold.Chemscore.ZeroCoef>
-5.4800

> <Gold.Chemscore.Hbond>
1.9680

> <Gold.Chemscore.Metal>
0.0000

> <Gold.Chemscore.Lipo>
97.7806

> <Gold.Chemscore.Internal_Hbond>
0.0000

> <Gold.Chemscore.DEClash>
1.5213

> <Gold.Chemscore.DEInternal>
2.4676

> <Gold.Chemscore.Rot>
2.8254

> <Gold.Chemscore.Internal.Correction>
   9.000000E+99

> <Gold.Chemscore.Hbonds>
donor molecule, donor type, donor heavy atom, donor atom, acceptor molecule, acceptor atom, score
      L1  H     4    59       P1  8028  0.01
      P1  H  7989  7998       L1    13  0.26
      P1  H 10752 10765       L1    15  0.17

> <Gold.Chemscore.Hbond.Weighted>
-6.5733

> <Gold.Chemscore.Metal.Weighted>
-0.0000

> <Gold.Chemscore.Lipo.Weighted>
-11.4403

> <Gold.Chemscore.Internal_Hbond.Weighted>
0.0000

> <Gold.Chemscore.DEClash.Weighted>
1.5213

> <Gold.Chemscore.DEInternal.Weighted>
2.4676

> <Gold.Chemscore.Rot.Weighted>
7.2330

> <Gold.Chemscore.Internal.Correction.Weighted>
   9.000000E+99

> <Gold.Protein.RotatedTorsions>
[ 6907 6896 6895 6894 ] final  165.34 input  -60.11 | X-H torsion
[ 7974 7965 7964 7962 ] final -141.68 input  175.53 | X-H torsion
[ 8008 7997 7996 7995 ] final -101.38 input   59.86 | X-H torsion
[ 10167 10162 10161 10158 ] final  -39.41 input  -65.29 | X-H torsion
[ 10718 10713 10712 10709 ] final -128.29 input   66.30 | X-H torsion
[ 10763 10752 10751 10750 ] final  173.72 input  -60.55 | X-H torsion
[ 11005 11000 10999 10996 ] final -134.50 input  -57.11 | X-H torsion

> <Gold.Protein.ActiveResidues>
 VAL166  LYS551  ARG553  GLY616  TRP617  ASP618  TYR619  PRO620  LYS621  CYS622 
 ASP623  PHE694  ASN695  SER759  ASP760  ASP761  ALA762  ILE779  LEU786  VAL792 
 PHE793  MET794  SER795  GLU796  ALA797  LYS798  CYS799  TRP800  GLU811  SER814 

> <Gold.Protein.RotatedAtoms>
  151.8959  133.3527  159.3813 H   0  0  0  0  0  0  0  0  0  0  0  0  # atno 6907 bound_to 6896
  150.7092  134.4877  159.5510 H   0  0  0  0  0  0  0  0  0  0  0  0  # atno 6908 bound_to 6896
  152.2456  134.8185  160.0504 H   0  0  0  0  0  0  0  0  0  0  0  0  # atno 6909 bound_to 6896
  144.8501  140.6050  143.5396 H   0  0  0  0  0  0  0  0  0  0  0  0  # atno 7974 bound_to 7965
  154.8417  140.0435  157.1546 H   0  0  0  0  0  0  0  0  0  0  0  0  # atno 8008 bound_to 7997
  154.9039  140.3004  155.5282 H   0  0  0  0  0  0  0  0  0  0  0  0  # atno 8009 bound_to 7997
  156.2992  140.2371  156.4070 H   0  0  0  0  0  0  0  0  0  0  0  0  # atno 8010 bound_to 7997
  140.7065  143.3216  151.2778 H   0  0  0  0  0  0  0  0  0  0  0  0  # atno 10167 bound_to 10162
  156.1936  130.6812  151.0455 H   0  0  0  0  0  0  0  0  0  0  0  0  # atno 10718 bound_to 10713
  154.4440  135.2763  155.1828 H   0  0  0  0  0  0  0  0  0  0  0  0  # atno 10763 bound_to 10752
  154.3682  135.6114  153.5730 H   0  0  0  0  0  0  0  0  0  0  0  0  # atno 10764 bound_to 10752
  152.9842  135.5851  154.4773 H   0  0  0  0  0  0  0  0  0  0  0  0  # atno 10765 bound_to 10752
  140.8984  134.1722  157.4478 H   0  0  0  0  0  0  0  0  0  0  0  0  # atno 11005 bound_to 11000
  145.4518  139.1522  143.3914 LP  0  0  0  0  0  0  0  0  0  0  0  0  # atno 17320 bound_to 7965
  146.2777  140.4644  142.8789 LP  0  0  0  0  0  0  0  0  0  0  0  0  # atno 17321 bound_to 7965
  139.6672  144.0085  152.2730 LP  0  0  0  0  0  0  0  0  0  0  0  0  # atno 17342 bound_to 10162
  139.9671  144.6519  150.8024 LP  0  0  0  0  0  0  0  0  0  0  0  0  # atno 17343 bound_to 10162
  157.6944  131.0799  150.7012 LP  0  0  0  0  0  0  0  0  0  0  0  0  # atno 17370 bound_to 10713
  156.7069  130.4640  149.5558 LP  0  0  0  0  0  0  0  0  0  0  0  0  # atno 17371 bound_to 10713
  139.8739  134.9888  156.5427 LP  0  0  0  0  0  0  0  0  0  0  0  0  # atno 17394 bound_to 11000
  140.8260  133.8316  155.8940 LP  0  0  0  0  0  0  0  0  0  0  0  0  # atno 17395 bound_to 11000

$$$$
