AV-unprocessed.smi:686|AV-procd|sdf|3340|dock7
  -GOLD-   22720 0313D 1   1.00000     0.00000
 Structure written by MMmdl.
 41 42  0  0  0  0  0  0  0  0  2 V2000
  147.2043  139.6804  153.9798 C   0  0  0  0  0  0  0  0  0  0  0  0
  146.5771  138.2859  153.8183 C   0  0  1  0  0  0  0  0  0  0  0  0
  146.1665  137.9165  152.3853 C   0  0  0  0  0  0  0  0  0  0  0  0
  146.3852  136.4553  152.2300 N   0  3  2  0  0  0  0  0  0  0  0  0
  145.2952  135.7169  151.5321 C   0  0  0  0  0  0  0  0  0  0  0  0
  143.9525  135.8393  152.2784 C   0  0  0  0  0  0  0  0  0  0  0  0
  145.6540  134.2277  151.3670 C   0  0  0  0  0  0  0  0  0  0  0  0
  146.7732  135.9258  153.5581 C   0  0  0  0  0  0  0  0  0  0  0  0
  147.4165  137.0989  154.3008 C   0  0  1  0  0  0  0  0  0  0  0  0
  148.8275  137.2391  153.9230 N   0  0  0  0  0  0  0  0  0  0  0  0
  150.0271  136.3287  154.7641 S   0  0  0  0  0  0  0  0  0  0  0  0
  151.3021  136.5498  154.0655 O   0  0  0  0  0  0  0  0  0  0  0  0
  149.9065  136.6496  156.1945 O   0  0  0  0  0  0  0  0  0  0  0  0
  149.4767  134.5928  154.4722 C   0  0  0  0  0  0  0  0  0  0  0  0
  150.4419  133.6369  155.1158 C   0  0  0  0  0  0  0  0  0  0  0  0
  151.1336  132.5449  154.5226 C   0  0  0  0  0  0  0  0  0  0  0  0
  151.8720  132.0376  155.5527 C   0  0  0  0  0  0  0  0  0  0  0  0
  151.6578  132.7508  156.6874 O   0  0  0  0  0  0  0  0  0  0  0  0
  150.7407  133.7678  156.3997 N   0  0  0  0  0  0  0  0  0  0  0  0
  148.0997  139.7966  153.3686 H   0  0  0  0  0  0  0  0  0  0  0  0
  147.4811  139.8653  155.0181 H   0  0  0  0  0  0  0  0  0  0  0  0
  146.5009  140.4581  153.6811 H   0  0  0  0  0  0  0  0  0  0  0  0
  145.6649  138.2764  154.4175 H   0  0  0  0  0  0  0  0  0  0  0  0
  145.1281  138.2027  152.2123 H   0  0  0  0  0  0  0  0  0  0  0  0
  146.7798  138.4356  151.6477 H   0  0  0  0  0  0  0  0  0  0  0  0
  145.1707  136.1538  150.5399 H   0  0  0  0  0  0  0  0  0  0  0  0
  143.1779  135.2504  151.7862 H   0  0  0  0  0  0  0  0  0  0  0  0
  143.5918  136.8675  152.3083 H   0  0  0  0  0  0  0  0  0  0  0  0
  144.0351  135.4825  153.3057 H   0  0  0  0  0  0  0  0  0  0  0  0
  144.8465  133.6844  150.8752 H   0  0  0  0  0  0  0  0  0  0  0  0
  145.8280  133.7537  152.3336 H   0  0  0  0  0  0  0  0  0  0  0  0
  146.5473  134.0824  150.7601 H   0  0  0  0  0  0  0  0  0  0  0  0
  145.8772  135.6132  154.0975 H   0  0  0  0  0  0  0  0  0  0  0  0
  147.4260  135.0577  153.4705 H   0  0  0  0  0  0  0  0  0  0  0  0
  147.3494  136.9805  155.3831 H   0  0  0  0  0  0  0  0  0  0  0  0
  148.9699  137.2094  152.9136 H   0  0  0  0  0  0  0  0  0  0  0  0
  148.4633  134.4725  154.8563 H   0  0  0  0  0  0  0  0  0  0  0  0
  149.4422  134.4301  153.3950 H   0  0  0  0  0  0  0  0  0  0  0  0
  151.0969  132.1915  153.5027 H   0  0  0  0  0  0  0  0  0  0  0  0
  152.5649  131.2131  155.6336 H   0  0  0  0  0  0  0  0  0  0  0  0
  147.2097  136.3641  151.6537 H   0  0  0  0  0  0  0  0  0  0  0  0
  1  2  1  0  0  0  0
  1 20  1  0  0  0  0
  1 21  1  0  0  0  0
  1 22  1  0  0  0  0
  2  9  1  0  0  0  0
  2  3  1  0  0  0  0
  2 23  1  0  0  0  0
  3  4  1  0  0  0  0
  3 24  1  0  0  0  0
  3 25  1  0  0  0  0
  4  5  1  0  0  0  0
  4  8  1  0  0  0  0
  4 41  1  0  0  0  0
  5  6  1  0  0  0  0
  5  7  1  0  0  0  0
  5 26  1  0  0  0  0
  6 27  1  0  0  0  0
  6 28  1  0  0  0  0
  6 29  1  0  0  0  0
  7 30  1  0  0  0  0
  7 31  1  0  0  0  0
  7 32  1  0  0  0  0
  8  9  1  0  0  0  0
  8 33  1  0  0  0  0
  8 34  1  0  0  0  0
  9 10  1  0  0  0  0
  9 35  1  0  0  0  0
 10 11  1  0  0  0  0
 10 36  1  0  0  0  0
 11 12  2  0  0  0  0
 11 13  2  0  0  0  0
 11 14  1  0  0  0  0
 14 15  1  0  0  0  0
 14 37  1  0  0  0  0
 14 38  1  0  0  0  0
 15 19  2  0  0  0  0
 15 16  1  0  0  0  0
 16 17  2  0  0  0  0
 16 39  1  0  0  0  0
 17 18  1  0  0  0  0
 17 40  1  0  0  0  0
 18 19  1  0  0  0  0
M  CHG  1   4   1
M  END
> <s_m_source_file>
AV-unprocessed.smi

> <i_m_source_file_index>
686

> <i_lp_mmshare_version>
43012

> <i_f3d_flags>
0

> <s_epik_input>
W0NIM11bQ0BASF0xW0NIMl1OKFtDSF0oW0NIM10pW0NIM10pW0NIMl1bQ0BIXTFbTkhdUyg9TykoPU8pW0NIMl1jMltjSF1bY0hdb24y

> <s_epik_cmdline>
J2VwaWtfcHl0aG9uJywgJy1waCcsICc3LjAnLCAnLXRuJywgJzgnLCAnLW1hJywgJzIwMCcsICctbWV0YWxfYmluZGluZycsICctaW1hZScsICc8aW5maWxlLm1hZT4nLCAnLW9tYWUnLCAnPG91dGZpbGUubWFlPic=

> <r_epik_Ionization_Penalty>
0.00200818

> <r_epik_Ionization_Penalty_Charging>
0.000701289

> <r_epik_Ionization_Penalty_Neutral>
0.00130689

> <r_epik_State_Penalty>
0.00131314

> <r_epik_Charging_Adjusted_Penalty>
0.00201443

> <i_epik_Tot_Q>
1

> <i_epik_Tot_abs_Q>
1

> <r_epik_Metal_State_Penalty>
0.310831

> <b_epik_Metal_Only>
0

> <s_lp_Force_Field>
OPLS_2005

> <r_lp_Energy>
21.9273

> <b_lp_Chiralities_Consistent>
1

> <s_lp_Variant>
AV-unprocessed.smi:686-4

> <Gold.Version>
5.8.1

> <Gold.Id.Protein>
6NUR|6NUR_protein|mol2

> <Gold.PLP.Fitness>
38.3985

> <Gold.PLP.PLP>
-24.0051

> <Gold.PLP.part.hbond>
-4.2793

> <Gold.PLP.part.metal>
0.0000

> <Gold.PLP.part.buried>
-2.7687

> <Gold.PLP.part.nonpolar>
-17.7676

> <Gold.PLP.part.repulsive>
0.2240

> <Gold.PLP.ligand.clash>
0.0000

> <Gold.PLP.ligand.torsion>
0.3705

> <Gold.PLP.Chemscore.Hbond>
4.9833

> <Gold.PLP.Chemscore.CHOScore>
0.0000

> <Gold.PLP.Chemscore.Metal>
0.0000

> <Gold.Chemscore.Hbonds>
donor molecule, donor type, donor heavy atom, donor atom, acceptor molecule, acceptor atom, score
      L1  H     4    41       P1  7948  1.60
      L1  H    10    36       P1  7948  0.56
      P1  H 10752 10764       L1    12  1.00

> <Gold.PLP.Chemscore.Internal.Correction>
0.1846

> <Gold.Rescore>
     Score         DG    S(hbond)    S(metal)    S(lipo)     H(rot)  DE(clash)    DE(int)     intcor
     18.04     -19.07       3.72        0.00      51.86       1.91       0.01       1.01       ----

> <Gold.Chemscore.Fitness>
18.0435

> <Gold.Chemscore.DG>
-19.0726

> <Gold.Chemscore.ZeroCoef>
-5.4800

> <Gold.Chemscore.Hbond>
3.7182

> <Gold.Chemscore.Metal>
0.0000

> <Gold.Chemscore.Lipo>
51.8585

> <Gold.Chemscore.Internal_Hbond>
0.0000

> <Gold.Chemscore.DEClash>
0.0149

> <Gold.Chemscore.DEInternal>
1.0143

> <Gold.Chemscore.Rot>
1.9115

> <Gold.Chemscore.Internal.Correction>
   9.000000E+99

> <Gold.Chemscore.Hbonds>
donor molecule, donor type, donor heavy atom, donor atom, acceptor molecule, acceptor atom, score
      L1  H     4    41       P1  7948  0.80
      L1  H    10    36       P1  7948  0.55
      P1  H 10752 10764       L1    12  0.97

> <Gold.Chemscore.Hbond.Weighted>
-12.4187

> <Gold.Chemscore.Metal.Weighted>
-0.0000

> <Gold.Chemscore.Lipo.Weighted>
-6.0674

> <Gold.Chemscore.Internal_Hbond.Weighted>
0.0000

> <Gold.Chemscore.DEClash.Weighted>
0.0149

> <Gold.Chemscore.DEInternal.Weighted>
1.0143

> <Gold.Chemscore.Rot.Weighted>
4.8935

> <Gold.Chemscore.Internal.Correction.Weighted>
   9.000000E+99

> <Gold.Protein.RotatedTorsions>
[ 6907 6896 6895 6894 ] final -169.42 input  -60.11 | X-H torsion
[ 7974 7965 7964 7962 ] final -179.76 input  175.53 | X-H torsion
[ 8008 7997 7996 7995 ] final  -89.45 input   59.86 | X-H torsion
[ 10167 10162 10161 10158 ] final   90.19 input  -65.29 | X-H torsion
[ 10718 10713 10712 10709 ] final -160.99 input   66.30 | X-H torsion
[ 10763 10752 10751 10750 ] final  -62.52 input  -60.55 | X-H torsion
[ 11005 11000 10999 10996 ] final -120.55 input  -57.11 | X-H torsion

> <Gold.Protein.ActiveResidues>
 VAL166  LYS551  ARG553  GLY616  TRP617  ASP618  TYR619  PRO620  LYS621  CYS622 
 ASP623  PHE694  ASN695  SER759  ASP760  ASP761  ALA762  ILE779  LEU786  VAL792 
 PHE793  MET794  SER795  GLU796  ALA797  LYS798  CYS799  TRP800  GLU811  SER814 

> <Gold.Protein.RotatedAtoms>
  151.4913  133.3524  159.2853 H   0  0  0  0  0  0  0  0  0  0  0  0  # atno 6907 bound_to 6896
  150.8832  134.8229  159.7251 H   0  0  0  0  0  0  0  0  0  0  0  0  # atno 6908 bound_to 6896
  152.4776  134.4814  159.9718 H   0  0  0  0  0  0  0  0  0  0  0  0  # atno 6909 bound_to 6896
  144.7139  140.0669  143.6431 H   0  0  0  0  0  0  0  0  0  0  0  0  # atno 7974 bound_to 7965
  154.6868  140.0541  157.0322 H   0  0  0  0  0  0  0  0  0  0  0  0  # atno 8008 bound_to 7997
  155.0874  140.3216  155.4565 H   0  0  0  0  0  0  0  0  0  0  0  0  # atno 8009 bound_to 7997
  156.2714  140.2054  156.6001 H   0  0  0  0  0  0  0  0  0  0  0  0  # atno 8010 bound_to 7997
  139.8497  144.6599  150.9184 H   0  0  0  0  0  0  0  0  0  0  0  0  # atno 10167 bound_to 10162
  156.5899  130.8765  151.2887 H   0  0  0  0  0  0  0  0  0  0  0  0  # atno 10718 bound_to 10713
  154.3011  135.6234  153.5425 H   0  0  0  0  0  0  0  0  0  0  0  0  # atno 10763 bound_to 10752
  152.9840  135.5679  154.5282 H   0  0  0  0  0  0  0  0  0  0  0  0  # atno 10764 bound_to 10752
  154.4913  135.2867  155.1470 H   0  0  0  0  0  0  0  0  0  0  0  0  # atno 10765 bound_to 10752
  141.0135  134.0229  157.3381 H   0  0  0  0  0  0  0  0  0  0  0  0  # atno 11005 bound_to 11000
  145.9817  139.2946  143.1038 LP  0  0  0  0  0  0  0  0  0  0  0  0  # atno 17320 bound_to 7965
  145.9003  140.9247  143.0506 LP  0  0  0  0  0  0  0  0  0  0  0  0  # atno 17321 bound_to 7965
  140.7789  143.3838  151.1430 LP  0  0  0  0  0  0  0  0  0  0  0  0  # atno 17342 bound_to 10162
  139.7477  143.8827  152.3068 LP  0  0  0  0  0  0  0  0  0  0  0  0  # atno 17343 bound_to 10162
  157.7306  130.9688  150.1841 LP  0  0  0  0  0  0  0  0  0  0  0  0  # atno 17370 bound_to 10713
  156.2559  130.3705  149.8182 LP  0  0  0  0  0  0  0  0  0  0  0  0  # atno 17371 bound_to 10713
  139.9103  135.0189  156.7665 LP  0  0  0  0  0  0  0  0  0  0  0  0  # atno 17394 bound_to 11000
  140.6693  133.9574  155.7848 LP  0  0  0  0  0  0  0  0  0  0  0  0  # atno 17395 bound_to 11000

$$$$
