AV-unprocessed.smi:802|AV-procd|sdf|3792|dock4
  -GOLD-   22720 1223D 1   1.00000     0.00000
 Structure written by MMmdl.
 37 38  0  0  0  0  0  0  0  0  2 V2000
  146.7152  141.5928  154.1674 C   0  0  0  0  0  0  0  0  0  0  0  0
  148.0990  141.0166  154.2150 C   0  0  0  0  0  0  0  0  0  0  0  0
  148.4990  139.7043  154.5874 C   0  0  0  0  0  0  0  0  0  0  0  0
  149.8572  139.7264  154.4403 C   0  0  0  0  0  0  0  0  0  0  0  0
  150.9220  138.7032  154.6544 C   0  0  0  0  0  0  0  0  0  0  0  0
  152.2770  139.4092  155.6847 S   0  0  0  0  0  0  0  0  0  0  0  0
  153.1871  138.2912  155.9836 O   0  0  0  0  0  0  0  0  0  0  0  0
  152.8326  140.5330  154.9126 O   0  0  0  0  0  0  0  0  0  0  0  0
  151.4391  139.8963  156.9830 N   0  5  0  0  0  0  0  0  0  0  0  0
  150.9906  141.2764  157.0617 C   0  0  0  0  0  0  0  0  0  0  0  0
  151.8639  142.0758  158.0679 C   0  0  0  0  0  0  0  0  0  0  0  0
  152.1480  141.3052  159.3875 C   0  0  0  0  0  0  0  0  0  0  0  0
  153.0498  142.1144  160.3345 C   0  0  0  0  0  0  0  0  0  0  0  0
  152.4446  143.4908  160.6432 C   0  0  0  0  0  0  0  0  0  0  0  0
  152.1586  144.2675  159.3502 C   0  0  0  0  0  0  0  0  0  0  0  0
  151.2532  143.4629  158.4025 C   0  0  0  0  0  0  0  0  0  0  0  0
  150.2619  140.9536  154.0218 O   0  0  0  0  0  0  0  0  0  0  0  0
  149.1339  141.7698  153.8816 N   0  0  0  0  0  0  0  0  0  0  0  0
  145.9663  140.8376  154.4062 H   0  0  0  0  0  0  0  0  0  0  0  0
  146.4862  141.9842  153.1760 H   0  0  0  0  0  0  0  0  0  0  0  0
  146.6051  142.4079  154.8830 H   0  0  0  0  0  0  0  0  0  0  0  0
  147.8875  138.8724  154.9040 H   0  0  0  0  0  0  0  0  0  0  0  0
  150.5227  137.8274  155.1659 H   0  0  0  0  0  0  0  0  0  0  0  0
  151.3426  138.3778  153.7034 H   0  0  0  0  0  0  0  0  0  0  0  0
  151.0489  141.7587  156.0854 H   0  0  0  0  0  0  0  0  0  0  0  0
  149.9454  141.3503  157.3639 H   0  0  0  0  0  0  0  0  0  0  0  0
  152.8236  142.2648  157.5831 H   0  0  0  0  0  0  0  0  0  0  0  0
  151.2148  141.0723  159.9051 H   0  0  0  0  0  0  0  0  0  0  0  0
  152.6359  140.3484  159.1911 H   0  0  0  0  0  0  0  0  0  0  0  0
  153.2039  141.5615  161.2616 H   0  0  0  0  0  0  0  0  0  0  0  0
  154.0343  142.2402  159.8825 H   0  0  0  0  0  0  0  0  0  0  0  0
  151.5200  143.3661  161.2082 H   0  0  0  0  0  0  0  0  0  0  0  0
  153.1225  144.0611  161.2788 H   0  0  0  0  0  0  0  0  0  0  0  0
  151.6903  145.2231  159.5878 H   0  0  0  0  0  0  0  0  0  0  0  0
  153.0981  144.5000  158.8472 H   0  0  0  0  0  0  0  0  0  0  0  0
  151.0981  144.0534  157.4969 H   0  0  0  0  0  0  0  0  0  0  0  0
  150.2719  143.3504  158.8689 H   0  0  0  0  0  0  0  0  0  0  0  0
  1  2  1  0  0  0  0
  1 19  1  0  0  0  0
  1 20  1  0  0  0  0
  1 21  1  0  0  0  0
  2 18  2  0  0  0  0
  2  3  1  0  0  0  0
  3  4  2  0  0  0  0
  3 22  1  0  0  0  0
  4  5  1  0  0  0  0
  4 17  1  0  0  0  0
  5  6  1  0  0  0  0
  5 23  1  0  0  0  0
  5 24  1  0  0  0  0
  6  7  2  0  0  0  0
  6  8  2  0  0  0  0
  6  9  1  0  0  0  0
  9 10  1  0  0  0  0
 10 11  1  0  0  0  0
 10 25  1  0  0  0  0
 10 26  1  0  0  0  0
 11 16  1  0  0  0  0
 11 12  1  0  0  0  0
 11 27  1  0  0  0  0
 12 13  1  0  0  0  0
 12 28  1  0  0  0  0
 12 29  1  0  0  0  0
 13 14  1  0  0  0  0
 13 30  1  0  0  0  0
 13 31  1  0  0  0  0
 14 15  1  0  0  0  0
 14 32  1  0  0  0  0
 14 33  1  0  0  0  0
 15 16  1  0  0  0  0
 15 34  1  0  0  0  0
 15 35  1  0  0  0  0
 16 36  1  0  0  0  0
 16 37  1  0  0  0  0
 17 18  1  0  0  0  0
M  CHG  1   9  -1
M  END
> <s_m_source_file>
AV-unprocessed.smi

> <i_m_source_file_index>
802

> <i_lp_mmshare_version>
43012

> <i_f3d_flags>
0

> <s_epik_input>
W0NIM11jMVtjSF1jKG9uMSlbQ0gyXVMoPU8pKD1PKVtOSF1bQ0gyXVtDSF0yW0NIMl1bQ0gyXVtDSDJdW0NIMl1bQ0gyXTI=

> <s_epik_cmdline>
J2VwaWtfcHl0aG9uJywgJy1waCcsICc3LjAnLCAnLXRuJywgJzgnLCAnLW1hJywgJzIwMCcsICctbWV0YWxfYmluZGluZycsICctaW1hZScsICc8aW5maWxlLm1hZT4nLCAnLW9tYWUnLCAnPG91dGZpbGUubWFlPic=

> <r_lp_tautomer_probability>
1

> <r_epik_Ionization_Penalty>
5.54077

> <r_epik_Ionization_Penalty_Charging>
5.54077

> <r_epik_Ionization_Penalty_Neutral>
8.84355e-10

> <r_epik_State_Penalty>
5.54071

> <r_epik_Charging_Adjusted_Penalty>
11.0815

> <i_epik_Tot_Q>
-1

> <i_epik_Tot_abs_Q>
1

> <r_epik_Metal_State_Penalty>
1.54279

> <b_epik_Metal_Only>
1

> <s_lp_Force_Field>
OPLS_2005

> <r_lp_Energy>
6.62566

> <b_lp_Chiralities_Consistent>
1

> <s_lp_Variant>
AV-unprocessed.smi:802-2

> <Gold.Version>
5.8.1

> <Gold.Id.Protein>
6NUR|6NUR_protein|mol2

> <Gold.PLP.Fitness>
45.5056

> <Gold.PLP.PLP>
-38.9220

> <Gold.PLP.part.hbond>
-4.7325

> <Gold.PLP.part.metal>
0.0000

> <Gold.PLP.part.buried>
-4.2452

> <Gold.PLP.part.nonpolar>
-30.1526

> <Gold.PLP.part.repulsive>
0.7919

> <Gold.PLP.ligand.clash>
0.0000

> <Gold.PLP.ligand.torsion>
0.8126

> <Gold.PLP.Chemscore.Hbond>
2.3920

> <Gold.PLP.Chemscore.CHOScore>
0.0000

> <Gold.PLP.Chemscore.Metal>
0.0000

> <Gold.Chemscore.Hbonds>
donor molecule, donor type, donor heavy atom, donor atom, acceptor molecule, acceptor atom, score
      P1  H  7989  7998       L1    17  0.42
      P1  H  7997  8010       L1     8  0.20
      P1  H  8011  8017       L1    18  0.29

> <Gold.PLP.Chemscore.Internal.Correction>
1.0327

> <Gold.Rescore>
     Score         DG    S(hbond)    S(metal)    S(lipo)     H(rot)  DE(clash)    DE(int)     intcor
     17.87     -20.74       2.12        0.00     102.49       1.50       0.37       2.50       ----

> <Gold.Chemscore.Fitness>
17.8729

> <Gold.Chemscore.DG>
-20.7391

> <Gold.Chemscore.ZeroCoef>
-5.4800

> <Gold.Chemscore.Hbond>
2.1247

> <Gold.Chemscore.Metal>
0.0000

> <Gold.Chemscore.Lipo>
102.4901

> <Gold.Chemscore.Internal_Hbond>
0.0000

> <Gold.Chemscore.DEClash>
0.3695

> <Gold.Chemscore.DEInternal>
2.4968

> <Gold.Chemscore.Rot>
1.4956

> <Gold.Chemscore.Internal.Correction>
   9.000000E+99

> <Gold.Chemscore.Hbonds>
donor molecule, donor type, donor heavy atom, donor atom, acceptor molecule, acceptor atom, score
      P1  H  7989  7998       L1    17  0.33
      P1  H  8011  8017       L1    18  0.01

> <Gold.Chemscore.Hbond.Weighted>
-7.0965

> <Gold.Chemscore.Metal.Weighted>
-0.0000

> <Gold.Chemscore.Lipo.Weighted>
-11.9913

> <Gold.Chemscore.Internal_Hbond.Weighted>
0.0000

> <Gold.Chemscore.DEClash.Weighted>
0.3695

> <Gold.Chemscore.DEInternal.Weighted>
2.4968

> <Gold.Chemscore.Rot.Weighted>
3.8287

> <Gold.Chemscore.Internal.Correction.Weighted>
   9.000000E+99

> <Gold.Protein.RotatedTorsions>
[ 6907 6896 6895 6894 ] final   67.61 input  -60.11 | X-H torsion
[ 7974 7965 7964 7962 ] final  -97.67 input  175.53 | X-H torsion
[ 8008 7997 7996 7995 ] final   97.94 input   59.86 | X-H torsion
[ 10167 10162 10161 10158 ] final -122.76 input  -65.29 | X-H torsion
[ 10718 10713 10712 10709 ] final  -41.50 input   66.30 | X-H torsion
[ 10763 10752 10751 10750 ] final  -85.90 input  -60.55 | X-H torsion
[ 11005 11000 10999 10996 ] final -156.34 input  -57.11 | X-H torsion

> <Gold.Protein.ActiveResidues>
 VAL166  LYS551  ARG553  GLY616  TRP617  ASP618  TYR619  PRO620  LYS621  CYS622 
 ASP623  PHE694  ASN695  SER759  ASP760  ASP761  ALA762  ILE779  LEU786  VAL792 
 PHE793  MET794  SER795  GLU796  ALA797  LYS798  CYS799  TRP800  GLU811  SER814 

> <Gold.Protein.RotatedAtoms>
  152.4564  134.5283  159.9802 H   0  0  0  0  0  0  0  0  0  0  0  0  # atno 6907 bound_to 6896
  151.5343  133.3438  159.2931 H   0  0  0  0  0  0  0  0  0  0  0  0  # atno 6908 bound_to 6896
  150.8509  134.7864  159.7071 H   0  0  0  0  0  0  0  0  0  0  0  0  # atno 6909 bound_to 6896
  145.3306  140.9441  143.2663 H   0  0  0  0  0  0  0  0  0  0  0  0  # atno 7974 bound_to 7965
  156.0954  140.3251  155.7870 H   0  0  0  0  0  0  0  0  0  0  0  0  # atno 8008 bound_to 7997
  155.4927  140.0563  157.2968 H   0  0  0  0  0  0  0  0  0  0  0  0  # atno 8009 bound_to 7997
  154.4663  140.1990  156.0126 H   0  0  0  0  0  0  0  0  0  0  0  0  # atno 8010 bound_to 7997
  140.0107  143.5444  152.2264 H   0  0  0  0  0  0  0  0  0  0  0  0  # atno 10167 bound_to 10162
  156.2697  130.4205  149.8451 H   0  0  0  0  0  0  0  0  0  0  0  0  # atno 10718 bound_to 10713
  154.6164  135.5468  153.7528 H   0  0  0  0  0  0  0  0  0  0  0  0  # atno 10763 bound_to 10752
  153.0218  135.6402  154.1504 H   0  0  0  0  0  0  0  0  0  0  0  0  # atno 10764 bound_to 10752
  154.1440  135.2906  155.3133 H   0  0  0  0  0  0  0  0  0  0  0  0  # atno 10765 bound_to 10752
  140.6766  134.4189  157.5229 H   0  0  0  0  0  0  0  0  0  0  0  0  # atno 11005 bound_to 11000
  144.8867  139.4830  143.6697 LP  0  0  0  0  0  0  0  0  0  0  0  0  # atno 17320 bound_to 7965
  146.3047  139.7540  142.9065 LP  0  0  0  0  0  0  0  0  0  0  0  0  # atno 17321 bound_to 7965
  139.6207  144.7628  151.2747 LP  0  0  0  0  0  0  0  0  0  0  0  0  # atno 17342 bound_to 10162
  140.7382  143.6654  150.8127 LP  0  0  0  0  0  0  0  0  0  0  0  0  # atno 17343 bound_to 10162
  156.5937  130.8517  151.3414 LP  0  0  0  0  0  0  0  0  0  0  0  0  # atno 17370 bound_to 10713
  157.7280  130.9650  150.1721 LP  0  0  0  0  0  0  0  0  0  0  0  0  # atno 17371 bound_to 10713
  139.8964  134.8659  156.2087 LP  0  0  0  0  0  0  0  0  0  0  0  0  # atno 17394 bound_to 11000
  141.0350  133.6968  156.1497 LP  0  0  0  0  0  0  0  0  0  0  0  0  # atno 17395 bound_to 11000

$$$$
