AV-unprocessed.smi:54|AV-procd|sdf|543|dock7
  -GOLD-   2262016433D 1   1.00000     0.00000
 Structure written by MMmdl.
 44 46  0  0  0  0  0  0  0  0  1 V2000
  146.6879  135.1767  162.3083 C   0  0  0  0  0  0  0  0  0  0  0  0
  146.7528  135.4637  160.7997 C   0  0  0  0  0  0  0  0  0  0  0  0
  146.9155  134.1662  159.9912 C   0  0  0  0  0  0  0  0  0  0  0  0
  147.8897  136.4429  160.4859 C   0  0  0  0  0  0  0  0  0  0  0  0
  148.6058  136.9164  161.3692 O   0  0  0  0  0  0  0  0  0  0  0  0
  148.0635  136.7640  159.0800 N   0  0  0  0  0  0  0  0  0  0  0  0
  148.9867  137.5874  158.5311 C   0  0  0  0  0  0  0  0  0  0  0  0
  148.6874  138.5266  157.6453 N   0  0  0  0  0  0  0  0  0  0  0  0
  149.7547  139.2652  157.2147 C   0  0  0  0  0  0  0  0  0  0  0  0
  151.0693  139.1111  157.6008 C   0  0  0  0  0  0  0  0  0  0  0  0
  151.8717  140.0378  156.9468 N   0  0  0  0  0  0  0  0  0  0  0  0
  151.0370  140.7109  156.2047 C   0  0  0  0  0  0  0  0  0  0  0  0
  149.7235  140.3137  156.3194 N   0  0  0  0  0  0  0  0  0  0  0  0
  148.4941  140.8321  155.6272 C   0  0  2  0  0  0  0  0  0  0  0  0
  147.3872  140.1334  156.1066 O   0  0  0  0  0  0  0  0  0  0  0  0
  147.0522  139.0303  155.2544 C   0  0  1  0  0  0  0  0  0  0  0  0
  145.5626  139.1600  154.8934 C   0  0  0  0  0  0  0  0  0  0  0  0
  145.2945  140.4543  154.3977 O   0  0  0  0  0  0  0  0  0  0  0  0
  147.9715  139.1478  154.0207 C   0  0  2  0  0  0  0  0  0  0  0  0
  148.9930  138.1687  154.0923 O   0  0  0  0  0  0  0  0  0  0  0  0
  148.5169  140.5671  154.1178 C   0  0  2  0  0  0  0  0  0  0  0  0
  149.7691  140.7452  153.4796 O   0  0  0  0  0  0  0  0  0  0  0  0
  151.4121  138.0914  158.5496 C   0  0  0  0  0  0  0  0  0  0  0  0
  152.5207  137.8118  159.0009 O   0  0  0  0  0  0  0  0  0  0  0  0
  150.2913  137.3642  158.9716 N   0  0  0  0  0  0  0  0  0  0  0  0
  148.4515  141.8881  155.8969 H   0  0  0  0  0  0  0  0  0  0  0  0
  147.2225  138.0848  155.7719 H   0  0  0  0  0  0  0  0  0  0  0  0
  147.4390  138.9977  153.0810 H   0  0  0  0  0  0  0  0  0  0  0  0
  147.7990  141.2529  153.6660 H   0  0  0  0  0  0  0  0  0  0  0  0
  146.5728  136.0969  162.8827 H   0  0  0  0  0  0  0  0  0  0  0  0
  147.5899  134.6744  162.6608 H   0  0  0  0  0  0  0  0  0  0  0  0
  145.8390  134.5354  162.5467 H   0  0  0  0  0  0  0  0  0  0  0  0
  145.8112  135.9288  160.5035 H   0  0  0  0  0  0  0  0  0  0  0  0
  146.9770  134.3697  158.9216 H   0  0  0  0  0  0  0  0  0  0  0  0
  146.0664  133.5006  160.1485 H   0  0  0  0  0  0  0  0  0  0  0  0
  147.8172  133.6236  160.2791 H   0  0  0  0  0  0  0  0  0  0  0  0
  147.4295  136.3061  158.4418 H   0  0  0  0  0  0  0  0  0  0  0  0
  151.3650  141.5123  155.5602 H   0  0  0  0  0  0  0  0  0  0  0  0
  145.2605  138.4040  154.1681 H   0  0  0  0  0  0  0  0  0  0  0  0
  144.9446  139.0226  155.7810 H   0  0  0  0  0  0  0  0  0  0  0  0
  144.9098  140.3737  153.5383 H   0  0  0  0  0  0  0  0  0  0  0  0
  148.8167  137.5085  153.4390 H   0  0  0  0  0  0  0  0  0  0  0  0
  149.8565  140.0888  152.8049 H   0  0  0  0  0  0  0  0  0  0  0  0
  150.4582  136.6310  159.6451 H   0  0  0  0  0  0  0  0  0  0  0  0
  1  2  1  0  0  0  0
  1 30  1  0  0  0  0
  1 31  1  0  0  0  0
  1 32  1  0  0  0  0
  2  3  1  0  0  0  0
  2  4  1  0  0  0  0
  2 33  1  0  0  0  0
  3 34  1  0  0  0  0
  3 35  1  0  0  0  0
  3 36  1  0  0  0  0
  4  5  2  0  0  0  0
  4  6  1  0  0  0  0
  6 37  1  0  0  0  0
  6  7  1  0  0  0  0
  7 25  1  0  0  0  0
  7  8  2  0  0  0  0
  8  9  1  0  0  0  0
  9 13  1  0  0  0  0
  9 10  2  0  0  0  0
 10 11  1  0  0  0  0
 10 23  1  0  0  0  0
 11 12  2  0  0  0  0
 12 13  1  0  0  0  0
 12 38  1  0  0  0  0
 13 14  1  0  0  0  0
 14 26  1  0  0  0  0
 14 21  1  0  0  0  0
 14 15  1  0  0  0  0
 15 16  1  0  0  0  0
 16 27  1  0  0  0  0
 16 17  1  0  0  0  0
 16 19  1  0  0  0  0
 17 18  1  0  0  0  0
 17 39  1  0  0  0  0
 17 40  1  0  0  0  0
 18 41  1  0  0  0  0
 19 28  1  0  0  0  0
 19 20  1  0  0  0  0
 19 21  1  0  0  0  0
 20 42  1  0  0  0  0
 21 29  1  0  0  0  0
 21 22  1  0  0  0  0
 22 43  1  0  0  0  0
 23 24  2  0  0  0  0
 23 25  1  0  0  0  0
 25 44  1  0  0  0  0
M  END
> <s_m_source_file>
AV-unprocessed.smi

> <i_m_source_file_index>
54

> <i_lp_mmshare_version>
43012

> <i_f3d_flags>
0

> <s_epik_input>
W0NIM11bQ0hdKFtDSDNdKUMoPU8pW05IXWMobjEpW25IXWMoPU8pYyhjMTIpbltjSF1uMltDQEBIXTNPW0NASF0oW0NIMl1bT0hdKVtDQEBIXShbT0hdKVtDQEhdM1tPSF0=

> <s_epik_cmdline>
J2VwaWtfcHl0aG9uJywgJy1waCcsICc3LjAnLCAnLXRuJywgJzgnLCAnLW1hJywgJzIwMCcsICctbWV0YWxfYmluZGluZycsICctaW1hZScsICc8aW5maWxlLm1hZT4nLCAnLW9tYWUnLCAnPG91dGZpbGUubWFlPic=

> <r_lp_tautomer_probability>
0.85571

> <r_epik_Ionization_Penalty>
0.0316551

> <r_epik_Ionization_Penalty_Charging>
0.0316043

> <r_epik_Ionization_Penalty_Neutral>
5.07097e-05

> <r_epik_State_Penalty>
3.15494e-07

> <r_epik_Charging_Adjusted_Penalty>
0.0316047

> <i_epik_Tot_Q>
0

> <i_epik_Tot_abs_Q>
0

> <r_epik_Metal_State_Penalty>
0.421206

> <b_epik_Metal_Only>
0

> <s_epik_Chemistry_Notes>
This compound contains an acetal/aminal-like group ( X-CH(R)-Y where X, Y are N, S, or O) that may be acid/base labile, releasing an aldehyde.

> <s_lp_Force_Field>
OPLS_2005

> <r_lp_Energy>
46.2687

> <b_lp_Chiralities_Consistent>
1

> <s_lp_Variant>
AV-unprocessed.smi:54-15

> <Gold.Version>
5.8.1

> <Gold.Id.Protein>
6NUR|6NUR_protein|mol2

> <Gold.PLP.Fitness>
41.9787

> <Gold.PLP.PLP>
-28.5215

> <Gold.PLP.part.hbond>
-5.4231

> <Gold.PLP.part.metal>
0.0000

> <Gold.PLP.part.buried>
-5.2383

> <Gold.PLP.part.nonpolar>
-18.1105

> <Gold.PLP.part.repulsive>
0.3278

> <Gold.PLP.ligand.clash>
0.0000

> <Gold.PLP.ligand.torsion>
0.5197

> <Gold.PLP.Chemscore.Hbond>
4.7842

> <Gold.PLP.Chemscore.CHOScore>
0.0000

> <Gold.PLP.Chemscore.Metal>
0.0000

> <Gold.Chemscore.Hbonds>
donor molecule, donor type, donor heavy atom, donor atom, acceptor molecule, acceptor atom, score
      L1  H    18    41       P1 10175  1.00
      L1  H    20    42       P1  7948  1.00
      L1  H    22    43       P1  7957  0.70
      P1  H  6931  6943       L1     5  0.91
      P1  H  7989  7998       L1    22  0.13
      P1  H  8011  8017       L1    22  0.95

> <Gold.PLP.Chemscore.Internal.Correction>
0.1439

> <Gold.Rescore>
     Score         DG    S(hbond)    S(metal)    S(lipo)     H(rot)  DE(clash)    DE(int)     intcor
      8.23     -12.69       3.96        0.00      37.28       4.05       0.07       4.38       ----

> <Gold.Chemscore.Fitness>
8.2335

> <Gold.Chemscore.DG>
-12.6870

> <Gold.Chemscore.ZeroCoef>
-5.4800

> <Gold.Chemscore.Hbond>
3.9554

> <Gold.Chemscore.Metal>
0.0000

> <Gold.Chemscore.Lipo>
37.2847

> <Gold.Chemscore.Internal_Hbond>
0.0000

> <Gold.Chemscore.DEClash>
0.0710

> <Gold.Chemscore.DEInternal>
4.3825

> <Gold.Chemscore.Rot>
4.0493

> <Gold.Chemscore.Internal.Correction>
   9.000000E+99

> <Gold.Chemscore.Hbonds>
donor molecule, donor type, donor heavy atom, donor atom, acceptor molecule, acceptor atom, score
      L1  H    18    41       P1 10175  0.96
      L1  H    20    42       P1  7948  0.94
      L1  H    22    43       P1  7957  0.72
      P1  H  6931  6943       L1     5  0.87
      P1  H  8011  8017       L1    22  0.16

> <Gold.Chemscore.Hbond.Weighted>
-13.2109

> <Gold.Chemscore.Metal.Weighted>
-0.0000

> <Gold.Chemscore.Lipo.Weighted>
-4.3623

> <Gold.Chemscore.Internal_Hbond.Weighted>
0.0000

> <Gold.Chemscore.DEClash.Weighted>
0.0710

> <Gold.Chemscore.DEInternal.Weighted>
4.3825

> <Gold.Chemscore.Rot.Weighted>
10.3662

> <Gold.Chemscore.Internal.Correction.Weighted>
   9.000000E+99

> <Gold.Protein.RotatedTorsions>
[ 6907 6896 6895 6894 ] final  -35.09 input  -60.11 | X-H torsion
[ 7974 7965 7964 7962 ] final   45.03 input  175.53 | X-H torsion
[ 8008 7997 7996 7995 ] final  -72.91 input   59.86 | X-H torsion
[ 10167 10162 10161 10158 ] final   58.97 input  -65.29 | X-H torsion
[ 10718 10713 10712 10709 ] final  124.81 input   66.30 | X-H torsion
[ 10763 10752 10751 10750 ] final  -29.50 input  -60.55 | X-H torsion
[ 11005 11000 10999 10996 ] final   45.78 input  -57.11 | X-H torsion

> <Gold.Protein.ActiveResidues>
 VAL166  LYS551  ARG553  GLY616  TRP617  ASP618  TYR619  PRO620  LYS621  CYS622 
 ASP623  PHE694  ASN695  SER759  ASP760  ASP761  ALA762  ILE779  LEU786  VAL792 
 PHE793  MET794  SER795  GLU796  ALA797  LYS798  CYS799  TRP800  GLU811  SER814 

> <Gold.Protein.RotatedAtoms>
  151.0443  134.9629  159.8177 H   0  0  0  0  0  0  0  0  0  0  0  0  # atno 6907 bound_to 6896
  152.5369  134.2618  159.8948 H   0  0  0  0  0  0  0  0  0  0  0  0  # atno 6908 bound_to 6896
  151.2632  133.4249  159.2651 H   0  0  0  0  0  0  0  0  0  0  0  0  # atno 6909 bound_to 6896
  146.0516  139.5009  142.9715 H   0  0  0  0  0  0  0  0  0  0  0  0  # atno 7974 bound_to 7965
  154.5204  140.0788  156.8161 H   0  0  0  0  0  0  0  0  0  0  0  0  # atno 8008 bound_to 7997
  155.3589  140.3417  155.4222 H   0  0  0  0  0  0  0  0  0  0  0  0  # atno 8009 bound_to 7997
  156.1675  140.1608  156.8493 H   0  0  0  0  0  0  0  0  0  0  0  0  # atno 8010 bound_to 7997
  140.1815  144.4177  150.6613 H   0  0  0  0  0  0  0  0  0  0  0  0  # atno 10167 bound_to 10162
  157.5554  131.1092  150.8630 H   0  0  0  0  0  0  0  0  0  0  0  0  # atno 10718 bound_to 10713
  153.7657  135.6916  153.4916 H   0  0  0  0  0  0  0  0  0  0  0  0  # atno 10763 bound_to 10752
  153.1908  135.4471  155.0146 H   0  0  0  0  0  0  0  0  0  0  0  0  # atno 10764 bound_to 10752
  154.8136  135.3389  154.7169 H   0  0  0  0  0  0  0  0  0  0  0  0  # atno 10765 bound_to 10752
  140.1428  134.4561  155.8437 H   0  0  0  0  0  0  0  0  0  0  0  0  # atno 11005 bound_to 11000
  145.6714  141.0215  143.1655 LP  0  0  0  0  0  0  0  0  0  0  0  0  # atno 17320 bound_to 7965
  144.7126  139.8315  143.7409 LP  0  0  0  0  0  0  0  0  0  0  0  0  # atno 17321 bound_to 7965
  140.6517  143.2226  151.6063 LP  0  0  0  0  0  0  0  0  0  0  0  0  # atno 17342 bound_to 10162
  139.5294  144.2960  152.1113 LP  0  0  0  0  0  0  0  0  0  0  0  0  # atno 17343 bound_to 10162
  156.9143  130.5292  149.5280 LP  0  0  0  0  0  0  0  0  0  0  0  0  # atno 17370 bound_to 10713
  156.0614  130.5666  150.9200 LP  0  0  0  0  0  0  0  0  0  0  0  0  # atno 17371 bound_to 10713
  141.2188  133.6840  156.7278 LP  0  0  0  0  0  0  0  0  0  0  0  0  # atno 17394 bound_to 11000
  140.2701  134.8399  157.3839 LP  0  0  0  0  0  0  0  0  0  0  0  0  # atno 17395 bound_to 11000

$$$$
