AV-unprocessed.smi:2087|AV-procd|sdf|8523|dock8
  -GOLD-   2272011243D 1   1.00000     0.00000
 Structure written by MMmdl.
 51 52  0  0  0  0  0  0  0  0  2 V2000
  146.3895  131.5509  149.1505 C   0  0  0  0  0  0  0  0  0  0  0  0
  145.5771  132.1150  150.3287 C   0  0  0  0  0  0  0  0  0  0  0  0
  144.4709  133.0497  149.8166 C   0  0  0  0  0  0  0  0  0  0  0  0
  146.4760  132.8458  151.3495 C   0  0  0  0  0  0  0  0  0  0  0  0
  147.1928  131.9173  152.2607 N   0  3  2  0  0  0  0  0  0  0  0  0
  146.3447  130.8152  152.7793 C   0  0  0  0  0  0  0  0  0  0  0  0
  147.1698  129.8802  153.6796 C   0  0  0  0  0  0  0  0  0  0  0  0
  147.7665  130.6332  154.7277 O   0  0  0  0  0  0  0  0  0  0  0  0
  148.6646  131.6223  154.2338 C   0  0  2  0  0  0  0  0  0  0  0  0
  149.3598  132.2964  155.4313 C   0  0  0  0  0  0  0  0  0  0  0  0
  150.1309  131.3299  156.2041 N   0  0  0  0  0  0  0  0  0  0  0  0
  150.7075  131.5793  157.3889 C   0  0  0  0  0  0  0  0  0  0  0  0
  150.5611  132.6369  158.0029 O   0  0  0  0  0  0  0  0  0  0  0  0
  151.5932  130.4649  157.9597 C   0  0  0  0  0  0  0  0  0  0  0  0
  152.8102  130.2537  157.1641 N   0  0  0  0  0  0  0  0  0  0  0  0
  152.7966  129.3508  156.1162 C   0  0  0  0  0  0  0  0  0  0  0  0
  153.8714  129.0961  155.3383 C   0  0  0  0  0  0  0  0  0  0  0  0
  155.1405  129.7739  155.5717 C   0  0  0  0  0  0  0  0  0  0  0  0
  156.1431  129.5880  154.8807 O   0  0  0  0  0  0  0  0  0  0  0  0
  155.1331  130.6807  156.6570 N   0  0  0  0  0  0  0  0  0  0  0  0
  156.3666  131.3885  156.9323 C   0  0  0  0  0  0  0  0  0  0  0  0
  153.9994  130.9605  157.4541 C   0  0  0  0  0  0  0  0  0  0  0  0
  154.0267  131.7870  158.3699 O   0  0  0  0  0  0  0  0  0  0  0  0
  147.8658  132.6220  153.3779 C   0  0  0  0  0  0  0  0  0  0  0  0
  146.9164  132.3429  148.6172 H   0  0  0  0  0  0  0  0  0  0  0  0
  145.7420  131.0435  148.4346 H   0  0  0  0  0  0  0  0  0  0  0  0
  147.1307  130.8250  149.4856 H   0  0  0  0  0  0  0  0  0  0  0  0
  145.0789  131.2812  150.8228 H   0  0  0  0  0  0  0  0  0  0  0  0
  144.8894  133.9117  149.2960 H   0  0  0  0  0  0  0  0  0  0  0  0
  143.8577  133.4224  150.6377 H   0  0  0  0  0  0  0  0  0  0  0  0
  143.8080  132.5318  149.1227 H   0  0  0  0  0  0  0  0  0  0  0  0
  147.2024  133.4434  150.7968 H   0  0  0  0  0  0  0  0  0  0  0  0
  145.8922  133.5516  151.9429 H   0  0  0  0  0  0  0  0  0  0  0  0
  145.5085  131.2310  153.3434 H   0  0  0  0  0  0  0  0  0  0  0  0
  145.9205  130.2390  151.9579 H   0  0  0  0  0  0  0  0  0  0  0  0
  146.5277  129.1149  154.1164 H   0  0  0  0  0  0  0  0  0  0  0  0
  147.9380  129.3601  153.1052 H   0  0  0  0  0  0  0  0  0  0  0  0
  149.4187  131.1432  153.6065 H   0  0  0  0  0  0  0  0  0  0  0  0
  150.0136  133.1012  155.0910 H   0  0  0  0  0  0  0  0  0  0  0  0
  148.6197  132.7532  156.0891 H   0  0  0  0  0  0  0  0  0  0  0  0
  150.2946  130.4297  155.7764 H   0  0  0  0  0  0  0  0  0  0  0  0
  151.8491  130.7274  158.9870 H   0  0  0  0  0  0  0  0  0  0  0  0
  151.0322  129.5303  158.0216 H   0  0  0  0  0  0  0  0  0  0  0  0
  151.8804  128.8193  155.9038 H   0  0  0  0  0  0  0  0  0  0  0  0
  153.7913  128.3811  154.5326 H   0  0  0  0  0  0  0  0  0  0  0  0
  156.3687  131.7733  157.9523 H   0  0  0  0  0  0  0  0  0  0  0  0
  156.4365  132.1985  156.2050 H   0  0  0  0  0  0  0  0  0  0  0  0
  157.1981  130.6888  156.8318 H   0  0  0  0  0  0  0  0  0  0  0  0
  148.5395  133.3822  152.9801 H   0  0  0  0  0  0  0  0  0  0  0  0
  147.1224  133.1374  153.9884 H   0  0  0  0  0  0  0  0  0  0  0  0
  147.9290  131.4927  151.7147 H   0  0  0  0  0  0  0  0  0  0  0  0
  1  2  1  0  0  0  0
  1 25  1  0  0  0  0
  1 26  1  0  0  0  0
  1 27  1  0  0  0  0
  2  3  1  0  0  0  0
  2  4  1  0  0  0  0
  2 28  1  0  0  0  0
  3 29  1  0  0  0  0
  3 30  1  0  0  0  0
  3 31  1  0  0  0  0
  4  5  1  0  0  0  0
  4 32  1  0  0  0  0
  4 33  1  0  0  0  0
  5 24  1  0  0  0  0
  5  6  1  0  0  0  0
  5 51  1  0  0  0  0
  6  7  1  0  0  0  0
  6 34  1  0  0  0  0
  6 35  1  0  0  0  0
  7  8  1  0  0  0  0
  7 36  1  0  0  0  0
  7 37  1  0  0  0  0
  8  9  1  0  0  0  0
  9 10  1  0  0  0  0
  9 24  1  0  0  0  0
  9 38  1  0  0  0  0
 10 11  1  0  0  0  0
 10 39  1  0  0  0  0
 10 40  1  0  0  0  0
 11 12  1  0  0  0  0
 11 41  1  0  0  0  0
 12 13  2  0  0  0  0
 12 14  1  0  0  0  0
 14 15  1  0  0  0  0
 14 42  1  0  0  0  0
 14 43  1  0  0  0  0
 15 22  1  0  0  0  0
 15 16  1  0  0  0  0
 16 17  2  0  0  0  0
 16 44  1  0  0  0  0
 17 18  1  0  0  0  0
 17 45  1  0  0  0  0
 18 19  2  0  0  0  0
 18 20  1  0  0  0  0
 20 21  1  0  0  0  0
 20 22  1  0  0  0  0
 21 46  1  0  0  0  0
 21 47  1  0  0  0  0
 21 48  1  0  0  0  0
 22 23  2  0  0  0  0
 24 49  1  0  0  0  0
 24 50  1  0  0  0  0
M  CHG  1   5   1
M  END
> <s_m_source_file>
AV-unprocessed.smi

> <i_m_source_file_index>
2087

> <i_lp_mmshare_version>
43012

> <i_f3d_flags>
0

> <s_epik_input>
W0NIM11bQ0hdKFtDSDNdKVtDSDJdTjFbQ0gyXVtDSDJdT1tDQEhdKFtDSDJdMSlbQ0gyXVtOSF1DKD1PKVtDSDJdbjJbY0hdW2NIXWMoPU8pbihbQ0gzXSljMj1P

> <s_epik_cmdline>
J2VwaWtfcHl0aG9uJywgJy1waCcsICc3LjAnLCAnLXRuJywgJzgnLCAnLW1hJywgJzIwMCcsICctbWV0YWxfYmluZGluZycsICctaW1hZScsICc8aW5maWxlLm1hZT4nLCAnLW9tYWUnLCAnPG91dGZpbGUubWFlPic=

> <r_lp_tautomer_probability>
1

> <r_epik_Ionization_Penalty>
0.097593

> <r_epik_Ionization_Penalty_Charging>
0.097593

> <r_epik_Ionization_Penalty_Neutral>
6.27044e-08

> <r_epik_State_Penalty>
0.0877056

> <r_epik_Charging_Adjusted_Penalty>
0.185299

> <i_epik_Tot_Q>
1

> <i_epik_Tot_abs_Q>
1

> <r_epik_Metal_State_Penalty>
0.0877109

> <b_epik_Metal_Only>
0

> <s_lp_Force_Field>
OPLS_2005

> <r_lp_Energy>
25.7141

> <b_lp_Chiralities_Consistent>
1

> <s_lp_Variant>
AV-unprocessed.smi:2087-4

> <Gold.Version>
5.8.1

> <Gold.Id.Protein>
6NUR|6NUR_protein|mol2

> <Gold.PLP.Fitness>
49.8771

> <Gold.PLP.PLP>
-42.3344

> <Gold.PLP.part.hbond>
-3.0000

> <Gold.PLP.part.metal>
0.0000

> <Gold.PLP.part.buried>
-5.4049

> <Gold.PLP.part.nonpolar>
-33.8055

> <Gold.PLP.part.repulsive>
0.0515

> <Gold.PLP.ligand.clash>
0.0000

> <Gold.PLP.ligand.torsion>
0.7635

> <Gold.PLP.Chemscore.Hbond>
2.9920

> <Gold.PLP.Chemscore.CHOScore>
0.0000

> <Gold.PLP.Chemscore.Metal>
0.0000

> <Gold.Chemscore.Hbonds>
donor molecule, donor type, donor heavy atom, donor atom, acceptor molecule, acceptor atom, score
      L1  H     5    51       P1 10747  1.00
      P1  H  6896  6907       L1    13  0.72

> <Gold.PLP.Chemscore.Internal.Correction>
0.0938

> <Gold.Rescore>
     Score         DG    S(hbond)    S(metal)    S(lipo)     H(rot)  DE(clash)    DE(int)     intcor
     19.20     -19.91       2.98        0.00      86.97       2.22       0.05       0.66       ----

> <Gold.Chemscore.Fitness>
19.2003

> <Gold.Chemscore.DG>
-19.9066

> <Gold.Chemscore.ZeroCoef>
-5.4800

> <Gold.Chemscore.Hbond>
2.9780

> <Gold.Chemscore.Metal>
0.0000

> <Gold.Chemscore.Lipo>
86.9720

> <Gold.Chemscore.Internal_Hbond>
0.0000

> <Gold.Chemscore.DEClash>
0.0512

> <Gold.Chemscore.DEInternal>
0.6550

> <Gold.Chemscore.Rot>
2.2249

> <Gold.Chemscore.Internal.Correction>
   9.000000E+99

> <Gold.Chemscore.Hbonds>
donor molecule, donor type, donor heavy atom, donor atom, acceptor molecule, acceptor atom, score
      L1  H     5    51       P1 10747  1.00
      P1  H  6896  6907       L1    13  0.72

> <Gold.Chemscore.Hbond.Weighted>
-9.9465

> <Gold.Chemscore.Metal.Weighted>
-0.0000

> <Gold.Chemscore.Lipo.Weighted>
-10.1757

> <Gold.Chemscore.Internal_Hbond.Weighted>
0.0000

> <Gold.Chemscore.DEClash.Weighted>
0.0512

> <Gold.Chemscore.DEInternal.Weighted>
0.6550

> <Gold.Chemscore.Rot.Weighted>
5.6957

> <Gold.Chemscore.Internal.Correction.Weighted>
   9.000000E+99

> <Gold.Protein.RotatedTorsions>
[ 6907 6896 6895 6894 ] final -176.89 input  -60.11 | X-H torsion
[ 7974 7965 7964 7962 ] final  115.94 input  175.53 | X-H torsion
[ 8008 7997 7996 7995 ] final  174.40 input   59.86 | X-H torsion
[ 10167 10162 10161 10158 ] final -102.07 input  -65.29 | X-H torsion
[ 10718 10713 10712 10709 ] final -179.51 input   66.30 | X-H torsion
[ 10763 10752 10751 10750 ] final -140.41 input  -60.55 | X-H torsion
[ 11005 11000 10999 10996 ] final  -58.35 input  -57.11 | X-H torsion

> <Gold.Protein.ActiveResidues>
 VAL166  LYS551  ARG553  GLY616  TRP617  ASP618  TYR619  PRO620  LYS621  CYS622 
 ASP623  PHE694  ASN695  SER759  ASP760  ASP761  ALA762  ILE779  LEU786  VAL792 
 PHE793  MET794  SER795  GLU796  ALA797  LYS798  CYS799  TRP800  GLU811  SER814 

> <Gold.Protein.RotatedAtoms>
  151.6121  133.3346  159.3069 H   0  0  0  0  0  0  0  0  0  0  0  0  # atno 6907 bound_to 6896
  150.8151  134.7331  159.6734 H   0  0  0  0  0  0  0  0  0  0  0  0  # atno 6908 bound_to 6896
  152.4247  134.5896  160.0022 H   0  0  0  0  0  0  0  0  0  0  0  0  # atno 6909 bound_to 6896
  145.1858  139.3026  143.4394 H   0  0  0  0  0  0  0  0  0  0  0  0  # atno 7974 bound_to 7965
  156.0978  140.1435  156.9508 H   0  0  0  0  0  0  0  0  0  0  0  0  # atno 8008 bound_to 7997
  154.4683  140.0919  156.7123 H   0  0  0  0  0  0  0  0  0  0  0  0  # atno 8009 bound_to 7997
  155.4811  140.3445  155.4342 H   0  0  0  0  0  0  0  0  0  0  0  0  # atno 8010 bound_to 7997
  140.2346  143.3582  152.0856 H   0  0  0  0  0  0  0  0  0  0  0  0  # atno 10167 bound_to 10162
  156.8602  130.9749  151.3084 H   0  0  0  0  0  0  0  0  0  0  0  0  # atno 10718 bound_to 10713
  154.8579  135.3554  154.5703 H   0  0  0  0  0  0  0  0  0  0  0  0  # atno 10763 bound_to 10752
  153.6316  135.7002  153.5278 H   0  0  0  0  0  0  0  0  0  0  0  0  # atno 10764 bound_to 10752
  153.3045  135.4196  155.1241 H   0  0  0  0  0  0  0  0  0  0  0  0  # atno 10765 bound_to 10752
  141.1204  133.6612  156.4908 H   0  0  0  0  0  0  0  0  0  0  0  0  # atno 11005 bound_to 11000
  146.3445  140.2053  142.8589 LP  0  0  0  0  0  0  0  0  0  0  0  0  # atno 17320 bound_to 7965
  145.0090  140.8698  143.5235 LP  0  0  0  0  0  0  0  0  0  0  0  0  # atno 17321 bound_to 7965
  139.5098  144.6873  151.5852 LP  0  0  0  0  0  0  0  0  0  0  0  0  # atno 17342 bound_to 10162
  140.6159  143.9349  150.6488 LP  0  0  0  0  0  0  0  0  0  0  0  0  # atno 17343 bound_to 10162
  157.6254  130.8687  149.9180 LP  0  0  0  0  0  0  0  0  0  0  0  0  # atno 17370 bound_to 10713
  156.0780  130.3676  150.0637 LP  0  0  0  0  0  0  0  0  0  0  0  0  # atno 17371 bound_to 10713
  140.4525  134.6916  157.5046 LP  0  0  0  0  0  0  0  0  0  0  0  0  # atno 17394 bound_to 11000
  140.0156  134.6624  155.9314 LP  0  0  0  0  0  0  0  0  0  0  0  0  # atno 17395 bound_to 11000

$$$$
