AV-unprocessed.smi:1528|AV-procd|sdf|6151|dock1
  -GOLD-   22720 6293D 1   1.00000     0.00000
 Structure written by MMmdl.
 34 35  0  0  0  0  0  0  0  0  1 V2000
  154.3179  135.6606  163.8107 C   0  0  0  0  0  0  0  0  0  0  0  0
  154.9092  135.9680  162.4283 C   0  0  0  0  0  0  0  0  0  0  0  0
  154.5246  137.2956  161.9640 N   0  0  0  0  0  0  0  0  0  0  0  0
  153.6932  137.5445  160.9389 C   0  0  0  0  0  0  0  0  0  0  0  0
  153.1748  136.6622  160.2545 O   0  0  0  0  0  0  0  0  0  0  0  0
  153.4723  138.9948  160.6191 C   0  0  0  0  0  0  0  0  0  0  0  0
  154.0562  140.0241  161.3896 C   0  0  0  0  0  0  0  0  0  0  0  0
  153.7934  141.3660  161.0536 C   0  0  0  0  0  0  0  0  0  0  0  0
  152.9430  141.6511  159.9592 C   0  0  0  0  0  0  0  0  0  0  0  0
  152.6657  142.9893  159.6042 N   0  0  0  0  0  0  0  0  0  0  0  0
  152.0408  143.8049  160.6429 C   0  0  0  0  0  0  0  0  0  0  0  0
  152.0773  145.2921  160.2504 C   0  0  0  0  0  0  0  0  0  0  0  0
  151.4770  145.4691  158.9715 O   0  0  0  0  0  0  0  0  0  0  0  0
  152.1729  144.7534  157.9568 C   0  0  0  0  0  0  0  0  0  0  0  0
  152.1343  143.2478  158.2671 C   0  0  0  0  0  0  0  0  0  0  0  0
  152.3793  140.6611  159.2243 N   0  0  0  0  0  0  0  0  0  0  0  0
  152.6323  139.3761  159.5511 C   0  0  0  0  0  0  0  0  0  0  0  0
  154.6382  134.6786  164.1589 H   0  0  0  0  0  0  0  0  0  0  0  0
  153.2277  135.6626  163.7861 H   0  0  0  0  0  0  0  0  0  0  0  0
  154.6386  136.3958  164.5493 H   0  0  0  0  0  0  0  0  0  0  0  0
  155.9977  135.9272  162.4763 H   0  0  0  0  0  0  0  0  0  0  0  0
  154.6017  135.2096  161.7063 H   0  0  0  0  0  0  0  0  0  0  0  0
  154.9225  138.0834  162.4543 H   0  0  0  0  0  0  0  0  0  0  0  0
  154.6992  139.8010  162.2286 H   0  0  0  0  0  0  0  0  0  0  0  0
  154.2544  142.1550  161.6283 H   0  0  0  0  0  0  0  0  0  0  0  0
  151.0079  143.4786  160.7712 H   0  0  0  0  0  0  0  0  0  0  0  0
  152.5337  143.6813  161.6059 H   0  0  0  0  0  0  0  0  0  0  0  0
  151.5325  145.8874  160.9833 H   0  0  0  0  0  0  0  0  0  0  0  0
  153.1028  145.6650  160.2370 H   0  0  0  0  0  0  0  0  0  0  0  0
  151.6998  144.9504  156.9950 H   0  0  0  0  0  0  0  0  0  0  0  0
  153.2019  145.1096  157.8847 H   0  0  0  0  0  0  0  0  0  0  0  0
  152.7167  142.7101  157.5180 H   0  0  0  0  0  0  0  0  0  0  0  0
  151.1085  142.8813  158.2088 H   0  0  0  0  0  0  0  0  0  0  0  0
  152.1500  138.6338  158.9317 H   0  0  0  0  0  0  0  0  0  0  0  0
  1  2  1  0  0  0  0
  1 18  1  0  0  0  0
  1 19  1  0  0  0  0
  1 20  1  0  0  0  0
  2  3  1  0  0  0  0
  2 21  1  0  0  0  0
  2 22  1  0  0  0  0
  3  4  1  0  0  0  0
  3 23  1  0  0  0  0
  4  5  2  0  0  0  0
  4  6  1  0  0  0  0
  6 17  1  0  0  0  0
  6  7  2  0  0  0  0
  7  8  1  0  0  0  0
  7 24  1  0  0  0  0
  8  9  2  0  0  0  0
  8 25  1  0  0  0  0
  9 10  1  0  0  0  0
  9 16  1  0  0  0  0
 10 15  1  0  0  0  0
 10 11  1  0  0  0  0
 11 12  1  0  0  0  0
 11 26  1  0  0  0  0
 11 27  1  0  0  0  0
 12 13  1  0  0  0  0
 12 28  1  0  0  0  0
 12 29  1  0  0  0  0
 13 14  1  0  0  0  0
 14 15  1  0  0  0  0
 14 30  1  0  0  0  0
 14 31  1  0  0  0  0
 15 32  1  0  0  0  0
 15 33  1  0  0  0  0
 16 17  2  0  0  0  0
 17 34  1  0  0  0  0
M  END
> <s_m_source_file>
AV-unprocessed.smi

> <i_m_source_file_index>
1528

> <i_lp_mmshare_version>
43012

> <i_f3d_flags>
0

> <s_epik_input>
W0NIM11bQ0gyXVtOSF1DKD1PKWMxW2NIXVtjSF1jKG5bY0hdMSlOMltDSDJdW0NIMl1PW0NIMl1bQ0gyXTI=

> <s_epik_cmdline>
J2VwaWtfcHl0aG9uJywgJy1waCcsICc3LjAnLCAnLXRuJywgJzgnLCAnLW1hJywgJzIwMCcsICctbWV0YWxfYmluZGluZycsICctaW1hZScsICc8aW5maWxlLm1hZT4nLCAnLW9tYWUnLCAnPG91dGZpbGUubWFlPic=

> <r_lp_tautomer_probability>
1

> <r_epik_Ionization_Penalty>
1.55122e-05

> <r_epik_Ionization_Penalty_Charging>
0

> <r_epik_Ionization_Penalty_Neutral>
1.55122e-05

> <r_epik_State_Penalty>
-0

> <r_epik_Charging_Adjusted_Penalty>
0

> <i_epik_Tot_Q>
0

> <i_epik_Tot_abs_Q>
0

> <r_epik_Metal_State_Penalty>
-0

> <b_epik_Metal_Only>
0

> <s_lp_Force_Field>
OPLS_2005

> <r_lp_Energy>
18.5854

> <b_lp_Chiralities_Consistent>
1

> <s_lp_Variant>
AV-unprocessed.smi:1528-1

> <Gold.Version>
5.8.1

> <Gold.Id.Protein>
6NUR|6NUR_protein|mol2

> <Gold.PLP.Fitness>
39.1734

> <Gold.PLP.PLP>
-36.4267

> <Gold.PLP.part.hbond>
-1.6568

> <Gold.PLP.part.metal>
0.0000

> <Gold.PLP.part.buried>
-6.4047

> <Gold.PLP.part.nonpolar>
-29.2206

> <Gold.PLP.part.repulsive>
0.1402

> <Gold.PLP.ligand.clash>
0.0000

> <Gold.PLP.ligand.torsion>
0.2864

> <Gold.PLP.Chemscore.Hbond>
0.9913

> <Gold.PLP.Chemscore.CHOScore>
0.0000

> <Gold.PLP.Chemscore.Metal>
0.0000

> <Gold.Chemscore.Hbonds>
donor molecule, donor type, donor heavy atom, donor atom, acceptor molecule, acceptor atom, score
      P1  H  6896  6907       L1     5  1.00

> <Gold.PLP.Chemscore.Internal.Correction>
0.3458

> <Gold.Rescore>
     Score         DG    S(hbond)    S(metal)    S(lipo)     H(rot)  DE(clash)    DE(int)     intcor
     16.19     -16.68       1.00        0.00      93.20       1.18       0.10       0.38       ----

> <Gold.Chemscore.Fitness>
16.1943

> <Gold.Chemscore.DG>
-16.6828

> <Gold.Chemscore.ZeroCoef>
-5.4800

> <Gold.Chemscore.Hbond>
0.9975

> <Gold.Chemscore.Metal>
0.0000

> <Gold.Chemscore.Lipo>
93.1973

> <Gold.Chemscore.Internal_Hbond>
0.0000

> <Gold.Chemscore.DEClash>
0.1049

> <Gold.Chemscore.DEInternal>
0.3835

> <Gold.Chemscore.Rot>
1.1848

> <Gold.Chemscore.Internal.Correction>
   9.000000E+99

> <Gold.Chemscore.Hbonds>
donor molecule, donor type, donor heavy atom, donor atom, acceptor molecule, acceptor atom, score
      P1  H  6896  6907       L1     5  0.98

> <Gold.Chemscore.Hbond.Weighted>
-3.3318

> <Gold.Chemscore.Metal.Weighted>
-0.0000

> <Gold.Chemscore.Lipo.Weighted>
-10.9041

> <Gold.Chemscore.Internal_Hbond.Weighted>
0.0000

> <Gold.Chemscore.DEClash.Weighted>
0.1049

> <Gold.Chemscore.DEInternal.Weighted>
0.3835

> <Gold.Chemscore.Rot.Weighted>
3.0331

> <Gold.Chemscore.Internal.Correction.Weighted>
   9.000000E+99

> <Gold.Protein.RotatedTorsions>
[ 6907 6896 6895 6894 ] final   29.08 input  -60.11 | X-H torsion
[ 7974 7965 7964 7962 ] final   19.91 input  175.53 | X-H torsion
[ 8008 7997 7996 7995 ] final   65.12 input   59.86 | X-H torsion
[ 10167 10162 10161 10158 ] final   25.07 input  -65.29 | X-H torsion
[ 10718 10713 10712 10709 ] final  -27.05 input   66.30 | X-H torsion
[ 10763 10752 10751 10750 ] final   82.76 input  -60.55 | X-H torsion
[ 11005 11000 10999 10996 ] final  154.64 input  -57.11 | X-H torsion

> <Gold.Protein.ActiveResidues>
 VAL166  LYS551  ARG553  GLY616  TRP617  ASP618  TYR619  PRO620  LYS621  CYS622 
 ASP623  PHE694  ASN695  SER759  ASP760  ASP761  ALA762  ILE779  LEU786  VAL792 
 PHE793  MET794  SER795  GLU796  ALA797  LYS798  CYS799  TRP800  GLU811  SER814 

> <Gold.Protein.RotatedAtoms>
  152.0263  134.9794  160.0571 H   0  0  0  0  0  0  0  0  0  0  0  0  # atno 6907 bound_to 6896
  152.1288  133.4391  159.4719 H   0  0  0  0  0  0  0  0  0  0  0  0  # atno 6908 bound_to 6896
  150.6854  134.2364  159.4498 H   0  0  0  0  0  0  0  0  0  0  0  0  # atno 6909 bound_to 6896
  146.2131  139.8245  142.8673 H   0  0  0  0  0  0  0  0  0  0  0  0  # atno 7974 bound_to 7965
  155.6568  140.3497  155.4768 H   0  0  0  0  0  0  0  0  0  0  0  0  # atno 8008 bound_to 7997
  155.9802  140.1173  157.0757 H   0  0  0  0  0  0  0  0  0  0  0  0  # atno 8009 bound_to 7997
  154.4189  140.1140  156.5411 H   0  0  0  0  0  0  0  0  0  0  0  0  # atno 8010 bound_to 7997
  140.5136  144.0119  150.6384 H   0  0  0  0  0  0  0  0  0  0  0  0  # atno 10167 bound_to 10162
  156.4432  130.4468  149.7039 H   0  0  0  0  0  0  0  0  0  0  0  0  # atno 10718 bound_to 10713
  153.1231  135.4716  154.9227 H   0  0  0  0  0  0  0  0  0  0  0  0  # atno 10763 bound_to 10752
  154.7594  135.3127  154.8410 H   0  0  0  0  0  0  0  0  0  0  0  0  # atno 10764 bound_to 10752
  153.8970  135.6879  153.4811 H   0  0  0  0  0  0  0  0  0  0  0  0  # atno 10765 bound_to 10752
  140.1507  134.8676  157.2451 H   0  0  0  0  0  0  0  0  0  0  0  0  # atno 11005 bound_to 11000
  145.3062  141.0207  143.3581 LP  0  0  0  0  0  0  0  0  0  0  0  0  # atno 17320 bound_to 7965
  144.8970  139.4699  143.6651 LP  0  0  0  0  0  0  0  0  0  0  0  0  # atno 17321 bound_to 7965
  140.3448  143.2998  152.0550 LP  0  0  0  0  0  0  0  0  0  0  0  0  # atno 17342 bound_to 10162
  139.4903  144.6416  151.6864 LP  0  0  0  0  0  0  0  0  0  0  0  0  # atno 17343 bound_to 10162
  156.3895  130.7620  151.2620 LP  0  0  0  0  0  0  0  0  0  0  0  0  # atno 17370 bound_to 10713
  157.7505  131.0272  150.3995 LP  0  0  0  0  0  0  0  0  0  0  0  0  # atno 17371 bound_to 10713
  140.2608  134.3574  155.7407 LP  0  0  0  0  0  0  0  0  0  0  0  0  # atno 17394 bound_to 11000
  141.2198  133.7368  156.9077 LP  0  0  0  0  0  0  0  0  0  0  0  0  # atno 17395 bound_to 11000

$$$$
