AV-unprocessed.smi:1867|AV-procd|sdf|7582|dock3
  -GOLD-   22720 9293D 1   1.00000     0.00000
 Structure written by MMmdl.
 52 55  0  0  0  0  0  0  0  0  4 V2000
  147.5792  140.3677  153.5015 O   0  0  0  0  0  0  0  0  0  0  0  0
  147.7055  139.2730  154.0440 C   0  0  0  0  0  0  0  0  0  0  0  0
  148.4846  139.1587  155.1484 N   0  0  0  0  0  0  0  0  0  0  0  0
  149.2524  140.1283  155.8537 C   0  0  0  0  0  0  0  0  0  0  0  0
  150.1826  139.6418  156.7964 C   0  0  0  0  0  0  0  0  0  0  0  0
  150.9773  140.5429  157.5336 C   0  0  0  0  0  0  0  0  0  0  0  0
  150.8333  141.9342  157.3251 C   0  0  0  0  0  0  0  0  0  0  0  0
  151.5946  142.8930  158.0198 N   0  0  0  0  0  0  0  0  0  0  0  0
  151.2604  144.3076  157.9684 C   0  0  0  0  0  0  0  0  0  0  0  0
  152.1961  144.9613  158.9835 C   0  0  0  0  0  0  0  0  0  0  0  0
  152.3551  143.8795  160.0519 C   0  0  0  0  0  0  0  0  0  0  0  0
  152.2645  142.5631  159.2702 C   0  0  0  0  0  0  0  0  0  0  0  0
  149.9317  142.3591  156.4088 N   0  3  0  0  0  0  0  0  0  0  0  0
  149.1505  141.5309  155.6820 C   0  0  0  0  0  0  0  0  0  0  0  0
  147.0714  138.1686  153.5463 N   0  5  0  0  0  0  0  0  0  0  0  0
  146.1692  137.2173  154.2236 C   0  0  2  0  0  0  0  0  0  0  0  0
  146.9778  136.3904  155.2413 C   0  0  0  0  0  0  0  0  0  0  0  0
  147.4690  135.1407  154.4798 C   0  0  0  0  0  0  0  0  0  0  0  0
  146.8770  135.2369  153.1303 N   0  3  1  0  0  0  0  0  0  0  0  0
  146.5791  133.9672  152.4310 C   0  0  0  0  0  0  0  0  0  0  0  0
  146.0331  134.2708  151.0210 C   0  0  0  0  0  0  0  0  0  0  0  0
  144.8275  135.2317  151.0658 C   0  0  0  0  0  0  0  0  0  0  0  0
  145.1675  136.5106  151.8555 C   0  0  0  0  0  0  0  0  0  0  0  0
  145.7053  136.1202  153.2504 C   0  0  2  0  0  0  0  0  0  0  0  0
  148.5387  138.2235  155.5249 H   0  0  0  0  0  0  0  0  0  0  0  0
  150.2924  138.5787  156.9548 H   0  0  0  0  0  0  0  0  0  0  0  0
  151.6918  140.1548  158.2443 H   0  0  0  0  0  0  0  0  0  0  0  0
  151.3991  144.7195  156.9682 H   0  0  0  0  0  0  0  0  0  0  0  0
  150.2187  144.4474  158.2605 H   0  0  0  0  0  0  0  0  0  0  0  0
  153.1620  145.1654  158.5192 H   0  0  0  0  0  0  0  0  0  0  0  0
  151.8057  145.8997  159.3783 H   0  0  0  0  0  0  0  0  0  0  0  0
  153.2826  143.9732  160.6177 H   0  0  0  0  0  0  0  0  0  0  0  0
  151.5258  143.9426  160.7577 H   0  0  0  0  0  0  0  0  0  0  0  0
  151.7249  141.8075  159.8421 H   0  0  0  0  0  0  0  0  0  0  0  0
  153.2594  142.1775  159.0452 H   0  0  0  0  0  0  0  0  0  0  0  0
  148.4842  142.0379  155.0022 H   0  0  0  0  0  0  0  0  0  0  0  0
  145.3142  137.6974  154.7014 H   0  0  0  0  0  0  0  0  0  0  0  0
  147.7988  136.9516  155.6906 H   0  0  0  0  0  0  0  0  0  0  0  0
  146.3245  136.0790  156.0573 H   0  0  0  0  0  0  0  0  0  0  0  0
  148.5565  135.1059  154.4054 H   0  0  0  0  0  0  0  0  0  0  0  0
  147.1369  134.2332  154.9867 H   0  0  0  0  0  0  0  0  0  0  0  0
  147.4867  133.3666  152.3629 H   0  0  0  0  0  0  0  0  0  0  0  0
  145.8520  133.3909  153.0050 H   0  0  0  0  0  0  0  0  0  0  0  0
  146.8244  134.7163  150.4165 H   0  0  0  0  0  0  0  0  0  0  0  0
  145.7519  133.3425  150.5229 H   0  0  0  0  0  0  0  0  0  0  0  0
  144.5147  135.4887  150.0534 H   0  0  0  0  0  0  0  0  0  0  0  0
  143.9799  134.7293  151.5335 H   0  0  0  0  0  0  0  0  0  0  0  0
  145.9054  137.0866  151.2938 H   0  0  0  0  0  0  0  0  0  0  0  0
  144.2796  137.1386  151.9430 H   0  0  0  0  0  0  0  0  0  0  0  0
  144.9203  135.5557  153.7589 H   0  0  0  0  0  0  0  0  0  0  0  0
  147.5421  135.7505  152.5691 H   0  0  0  0  0  0  0  0  0  0  0  0
  149.8335  143.3631  156.2577 H   0  0  0  0  0  0  0  0  0  0  0  0
  1  2  2  0  0  0  0
  2  3  1  0  0  0  0
  2 15  1  0  0  0  0
  3  4  1  0  0  0  0
  3 25  1  0  0  0  0
  4 14  1  0  0  0  0
  4  5  2  0  0  0  0
  5  6  1  0  0  0  0
  5 26  1  0  0  0  0
  6  7  2  0  0  0  0
  6 27  1  0  0  0  0
  7  8  1  0  0  0  0
  7 13  1  0  0  0  0
  8 12  1  0  0  0  0
  8  9  1  0  0  0  0
  9 10  1  0  0  0  0
  9 28  1  0  0  0  0
  9 29  1  0  0  0  0
 10 11  1  0  0  0  0
 10 30  1  0  0  0  0
 10 31  1  0  0  0  0
 11 12  1  0  0  0  0
 11 32  1  0  0  0  0
 11 33  1  0  0  0  0
 12 34  1  0  0  0  0
 12 35  1  0  0  0  0
 13 14  2  0  0  0  0
 13 52  1  0  0  0  0
 14 36  1  0  0  0  0
 15 16  1  0  0  0  0
 16 24  1  0  0  0  0
 16 17  1  0  0  0  0
 16 37  1  0  0  0  0
 17 18  1  0  0  0  0
 17 38  1  0  0  0  0
 17 39  1  0  0  0  0
 18 19  1  0  0  0  0
 18 40  1  0  0  0  0
 18 41  1  0  0  0  0
 19 24  1  0  0  0  0
 19 20  1  0  0  0  0
 19 51  1  0  0  0  0
 20 21  1  0  0  0  0
 20 42  1  0  0  0  0
 20 43  1  0  0  0  0
 21 22  1  0  0  0  0
 21 44  1  0  0  0  0
 21 45  1  0  0  0  0
 22 23  1  0  0  0  0
 22 46  1  0  0  0  0
 22 47  1  0  0  0  0
 23 24  1  0  0  0  0
 23 48  1  0  0  0  0
 23 49  1  0  0  0  0
 24 50  1  0  0  0  0
M  CHG  1  13   1
M  CHG  1  15  -1
M  CHG  1  19   1
M  END
> <s_m_source_file>
AV-unprocessed.smi

> <i_m_source_file_index>
1867

> <i_lp_mmshare_version>
43012

> <i_f3d_flags>
0

> <s_epik_input>
W0NIMl0xW0NIMl1bQ0gyXVtDSDJdW0NASF0oTjEyKVtDQEBIXShbQ0gyXVtDSDJdMilbTkhdQyg9TylbTkhdYzNbY0hdW2NIXWMobltjSF0zKU40W0NIMl1bQ0gyXVtDSDJdW0NIMl00

> <s_epik_cmdline>
J2VwaWtfcHl0aG9uJywgJy1waCcsICc3LjAnLCAnLXRuJywgJzgnLCAnLW1hJywgJzIwMCcsICctbWV0YWxfYmluZGluZycsICctaW1hZScsICc8aW5maWxlLm1hZT4nLCAnLW9tYWUnLCAnPG91dGZpbGUubWFlPic=

> <r_lp_tautomer_probability>
0.999994

> <r_epik_Ionization_Penalty>
8.56137

> <r_epik_Ionization_Penalty_Charging>
8.56136

> <r_epik_Ionization_Penalty_Neutral>
3.91889e-06

> <r_epik_State_Penalty>
8.16255

> <r_epik_Charging_Adjusted_Penalty>
16.7239

> <i_epik_Tot_Q>
1

> <i_epik_Tot_abs_Q>
3

> <r_epik_Metal_State_Penalty>
4.14279

> <b_epik_Metal_Only>
1

> <s_lp_Force_Field>
OPLS_2005

> <r_lp_Energy>
67.5686

> <b_lp_Chiralities_Consistent>
1

> <s_lp_Variant>
AV-unprocessed.smi:1867-23

> <Gold.Version>
5.8.1

> <Gold.Id.Protein>
6NUR|6NUR_protein|mol2

> <Gold.PLP.Fitness>
49.6391

> <Gold.PLP.PLP>
-38.7776

> <Gold.PLP.part.hbond>
-2.0000

> <Gold.PLP.part.metal>
0.0000

> <Gold.PLP.part.buried>
-6.0629

> <Gold.PLP.part.nonpolar>
-33.4573

> <Gold.PLP.part.repulsive>
1.7068

> <Gold.PLP.ligand.clash>
0.0000

> <Gold.PLP.ligand.torsion>
0.6845

> <Gold.PLP.Chemscore.Hbond>
3.9840

> <Gold.PLP.Chemscore.CHOScore>
0.0000

> <Gold.PLP.Chemscore.Metal>
0.0000

> <Gold.Chemscore.Hbonds>
donor molecule, donor type, donor heavy atom, donor atom, acceptor molecule, acceptor atom, score
      L1  H    13    52       P1  8028  2.00
      L1  H    19    51       P1  7948  2.00

> <Gold.PLP.Chemscore.Internal.Correction>
0.2785

> <Gold.Rescore>
     Score         DG    S(hbond)    S(metal)    S(lipo)     H(rot)  DE(clash)    DE(int)     intcor
     18.70     -20.66       1.98        0.00      94.99       1.00       0.07       1.89       ----

> <Gold.Chemscore.Fitness>
18.7012

> <Gold.Chemscore.DG>
-20.6628

> <Gold.Chemscore.ZeroCoef>
-5.4800

> <Gold.Chemscore.Hbond>
1.9847

> <Gold.Chemscore.Metal>
0.0000

> <Gold.Chemscore.Lipo>
94.9902

> <Gold.Chemscore.Internal_Hbond>
0.0000

> <Gold.Chemscore.DEClash>
0.0712

> <Gold.Chemscore.DEInternal>
1.8904

> <Gold.Chemscore.Rot>
1.0000

> <Gold.Chemscore.Internal.Correction>
   9.000000E+99

> <Gold.Chemscore.Hbonds>
donor molecule, donor type, donor heavy atom, donor atom, acceptor molecule, acceptor atom, score
      L1  H    13    52       P1  8028  0.94
      L1  H    19    51       P1  7948  0.99

> <Gold.Chemscore.Hbond.Weighted>
-6.6289

> <Gold.Chemscore.Metal.Weighted>
-0.0000

> <Gold.Chemscore.Lipo.Weighted>
-11.1139

> <Gold.Chemscore.Internal_Hbond.Weighted>
0.0000

> <Gold.Chemscore.DEClash.Weighted>
0.0712

> <Gold.Chemscore.DEInternal.Weighted>
1.8904

> <Gold.Chemscore.Rot.Weighted>
2.5600

> <Gold.Chemscore.Internal.Correction.Weighted>
   9.000000E+99

> <Gold.Protein.RotatedTorsions>
[ 6907 6896 6895 6894 ] final  -60.73 input  -60.11 | X-H torsion
[ 7974 7965 7964 7962 ] final -170.37 input  175.53 | X-H torsion
[ 8008 7997 7996 7995 ] final   46.83 input   59.86 | X-H torsion
[ 10167 10162 10161 10158 ] final   81.13 input  -65.29 | X-H torsion
[ 10718 10713 10712 10709 ] final  103.51 input   66.30 | X-H torsion
[ 10763 10752 10751 10750 ] final  -77.08 input  -60.55 | X-H torsion
[ 11005 11000 10999 10996 ] final  -76.96 input  -57.11 | X-H torsion

> <Gold.Protein.ActiveResidues>
 VAL166  LYS551  ARG553  GLY616  TRP617  ASP618  TYR619  PRO620  LYS621  CYS622 
 ASP623  PHE694  ASN695  SER759  ASP760  ASP761  ALA762  ILE779  LEU786  VAL792 
 PHE793  MET794  SER795  GLU796  ALA797  LYS798  CYS799  TRP800  GLU811  SER814 

> <Gold.Protein.RotatedAtoms>
  150.7835  134.6798  159.6437 H   0  0  0  0  0  0  0  0  0  0  0  0  # atno 6907 bound_to 6896
  152.3925  134.6415  160.0111 H   0  0  0  0  0  0  0  0  0  0  0  0  # atno 6908 bound_to 6896
  151.6711  133.3277  159.3233 H   0  0  0  0  0  0  0  0  0  0  0  0  # atno 6909 bound_to 6896
  144.7171  140.2082  143.6330 H   0  0  0  0  0  0  0  0  0  0  0  0  # atno 7974 bound_to 7965
  155.3589  140.3417  155.4240 H   0  0  0  0  0  0  0  0  0  0  0  0  # atno 8008 bound_to 7997
  156.1724  140.1636  156.8458 H   0  0  0  0  0  0  0  0  0  0  0  0  # atno 8009 bound_to 7997
  154.5247  140.0759  156.8219 H   0  0  0  0  0  0  0  0  0  0  0  0  # atno 8010 bound_to 7997
  139.9425  144.6080  150.8238 H   0  0  0  0  0  0  0  0  0  0  0  0  # atno 10167 bound_to 10162
  157.6770  131.0780  150.5566 H   0  0  0  0  0  0  0  0  0  0  0  0  # atno 10718 bound_to 10713
  154.5083  135.5776  153.6585 H   0  0  0  0  0  0  0  0  0  0  0  0  # atno 10763 bound_to 10752
  152.9892  135.6152  154.2912 H   0  0  0  0  0  0  0  0  0  0  0  0  # atno 10764 bound_to 10752
  154.2825  135.2850  155.2670 H   0  0  0  0  0  0  0  0  0  0  0  0  # atno 10765 bound_to 10752
  141.1657  133.7004  156.7748 H   0  0  0  0  0  0  0  0  0  0  0  0  # atno 11005 bound_to 11000
  145.8615  139.2225  143.1713 LP  0  0  0  0  0  0  0  0  0  0  0  0  # atno 17320 bound_to 7965
  146.0168  140.8384  142.9943 LP  0  0  0  0  0  0  0  0  0  0  0  0  # atno 17321 bound_to 7965
  140.7607  143.3157  151.2740 LP  0  0  0  0  0  0  0  0  0  0  0  0  # atno 17342 bound_to 10162
  139.6693  144.0048  152.2743 LP  0  0  0  0  0  0  0  0  0  0  0  0  # atno 17343 bound_to 10162
  156.5870  130.4319  149.5953 LP  0  0  0  0  0  0  0  0  0  0  0  0  # atno 17370 bound_to 10713
  156.2615  130.6965  151.1735 LP  0  0  0  0  0  0  0  0  0  0  0  0  # atno 17371 bound_to 10713
  140.2437  134.8593  157.3599 LP  0  0  0  0  0  0  0  0  0  0  0  0  # atno 17394 bound_to 11000
  140.1770  134.4537  155.7795 LP  0  0  0  0  0  0  0  0  0  0  0  0  # atno 17395 bound_to 11000

$$$$
