AV-unprocessed.smi:2346|AV-procd|sdf|9366|dock9
  -GOLD-   2272012593D 1   1.00000     0.00000
 Structure written by MMmdl.
 44 46  0  0  0  0  0  0  0  0  1 V2000
  157.1402  140.3883  159.7877 C   0  0  0  0  0  0  0  0  0  0  0  0
  155.8797  139.9811  159.2776 O   0  0  0  0  0  0  0  0  0  0  0  0
  155.0919  139.1556  160.0539 C   0  0  0  0  0  0  0  0  0  0  0  0
  155.4334  138.7496  161.3688 C   0  0  0  0  0  0  0  0  0  0  0  0
  154.5780  137.9019  162.1000 C   0  0  0  0  0  0  0  0  0  0  0  0
  154.9363  137.4909  163.4473 C   0  0  0  0  0  0  0  0  0  0  0  0
  155.2217  137.1637  164.5196 N   0  0  0  0  0  0  0  0  0  0  0  0
  153.3751  137.4535  161.5234 C   0  0  0  0  0  0  0  0  0  0  0  0
  153.0288  137.8499  160.2189 C   0  0  0  0  0  0  0  0  0  0  0  0
  153.8844  138.7011  159.4767 C   0  0  0  0  0  0  0  0  0  0  0  0
  153.6109  139.1318  158.1972 O   0  0  0  0  0  0  0  0  0  0  0  0
  152.5084  138.5669  157.5020 C   0  0  0  0  0  0  0  0  0  0  0  0
  151.2237  139.2594  157.9801 C   0  0  0  0  0  0  0  0  0  0  0  0
  151.1894  140.6648  157.5978 N   0  0  0  0  0  0  0  0  0  0  0  0
  150.6686  141.2230  156.4748 C   0  0  0  0  0  0  0  0  0  0  0  0
  149.9954  140.4057  155.4068 C   0  0  1  0  0  0  0  0  0  0  0  0
  149.2050  141.2835  154.4275 C   0  0  0  0  0  0  0  0  0  0  0  0
  150.9168  139.6310  154.6662 O   0  0  0  0  0  0  0  0  0  0  0  0
  150.7645  142.5526  156.3943 N   0  0  0  0  0  0  0  0  0  0  0  0
  151.4345  142.8830  157.5553 C   0  0  0  0  0  0  0  0  0  0  0  0
  151.8548  144.1394  158.0474 C   0  0  0  0  0  0  0  0  0  0  0  0
  152.5419  144.2314  159.2755 C   0  0  0  0  0  0  0  0  0  0  0  0
  152.8153  143.0715  160.0291 C   0  0  0  0  0  0  0  0  0  0  0  0
  152.3997  141.8112  159.5595 C   0  0  0  0  0  0  0  0  0  0  0  0
  151.7165  141.7241  158.3314 C   0  0  0  0  0  0  0  0  0  0  0  0
  157.6361  141.0212  159.0518 H   0  0  0  0  0  0  0  0  0  0  0  0
  157.7894  139.5324  159.9769 H   0  0  0  0  0  0  0  0  0  0  0  0
  157.0305  140.9703  160.7036 H   0  0  0  0  0  0  0  0  0  0  0  0
  156.3509  139.0792  161.8338 H   0  0  0  0  0  0  0  0  0  0  0  0
  152.7111  136.8044  162.0765 H   0  0  0  0  0  0  0  0  0  0  0  0
  152.0974  137.4900  159.8091 H   0  0  0  0  0  0  0  0  0  0  0  0
  152.6246  138.7083  156.4263 H   0  0  0  0  0  0  0  0  0  0  0  0
  152.4454  137.4961  157.6990 H   0  0  0  0  0  0  0  0  0  0  0  0
  150.3410  138.7515  157.5922 H   0  0  0  0  0  0  0  0  0  0  0  0
  151.1529  139.1971  159.0665 H   0  0  0  0  0  0  0  0  0  0  0  0
  149.3163  139.6927  155.8725 H   0  0  0  0  0  0  0  0  0  0  0  0
  148.4422  141.8619  154.9497 H   0  0  0  0  0  0  0  0  0  0  0  0
  148.7002  140.6779  153.6742 H   0  0  0  0  0  0  0  0  0  0  0  0
  149.8572  141.9872  153.9090 H   0  0  0  0  0  0  0  0  0  0  0  0
  150.5945  138.7431  154.6290 H   0  0  0  0  0  0  0  0  0  0  0  0
  151.6515  145.0334  157.4767 H   0  0  0  0  0  0  0  0  0  0  0  0
  152.8618  145.1963  159.6407 H   0  0  0  0  0  0  0  0  0  0  0  0
  153.3444  143.1496  160.9674 H   0  0  0  0  0  0  0  0  0  0  0  0
  152.6115  140.9205  160.1323 H   0  0  0  0  0  0  0  0  0  0  0  0
  1  2  1  0  0  0  0
  1 26  1  0  0  0  0
  1 27  1  0  0  0  0
  1 28  1  0  0  0  0
  2  3  1  0  0  0  0
  3 10  1  0  0  0  0
  3  4  2  0  0  0  0
  4  5  1  0  0  0  0
  4 29  1  0  0  0  0
  5  6  1  0  0  0  0
  5  8  2  0  0  0  0
  6  7  3  0  0  0  0
  8  9  1  0  0  0  0
  8 30  1  0  0  0  0
  9 10  2  0  0  0  0
  9 31  1  0  0  0  0
 10 11  1  0  0  0  0
 11 12  1  0  0  0  0
 12 13  1  0  0  0  0
 12 32  1  0  0  0  0
 12 33  1  0  0  0  0
 13 14  1  0  0  0  0
 13 34  1  0  0  0  0
 13 35  1  0  0  0  0
 14 25  1  0  0  0  0
 14 15  1  0  0  0  0
 15 16  1  0  0  0  0
 15 19  2  0  0  0  0
 16 17  1  0  0  0  0
 16 18  1  0  0  0  0
 16 36  1  0  0  0  0
 17 37  1  0  0  0  0
 17 38  1  0  0  0  0
 17 39  1  0  0  0  0
 18 40  1  0  0  0  0
 19 20  1  0  0  0  0
 20 25  2  0  0  0  0
 20 21  1  0  0  0  0
 21 22  2  0  0  0  0
 21 41  1  0  0  0  0
 22 23  1  0  0  0  0
 22 42  1  0  0  0  0
 23 24  2  0  0  0  0
 23 43  1  0  0  0  0
 24 25  1  0  0  0  0
 24 44  1  0  0  0  0
M  END
> <s_m_source_file>
AV-unprocessed.smi

> <i_m_source_file_index>
2346

> <i_lp_mmshare_version>
43012

> <i_f3d_flags>
0

> <s_epik_input>
W0NIM11PYzFbY0hdYyhDI04pW2NIXVtjSF1jMU9bQ0gyXVtDSDJdbihjKG4yKVtDQEhdKFtDSDNdKVtPSF0pYyhjMjMpW2NIXVtjSF1bY0hdW2NIXTM=

> <s_epik_cmdline>
J2VwaWtfcHl0aG9uJywgJy1waCcsICc3LjAnLCAnLXRuJywgJzgnLCAnLW1hJywgJzIwMCcsICctbWV0YWxfYmluZGluZycsICctaW1hZScsICc8aW5maWxlLm1hZT4nLCAnLW9tYWUnLCAnPG91dGZpbGUubWFlPic=

> <r_epik_Ionization_Penalty>
0.0419826

> <r_epik_Ionization_Penalty_Charging>
0

> <r_epik_Ionization_Penalty_Neutral>
0.0419826

> <r_epik_State_Penalty>
0.0354317

> <r_epik_Charging_Adjusted_Penalty>
0.0354317

> <i_epik_Tot_Q>
0

> <i_epik_Tot_abs_Q>
0

> <r_epik_Metal_State_Penalty>
3.65115e-05

> <b_epik_Metal_Only>
0

> <s_lp_Force_Field>
OPLS_2005

> <r_lp_Energy>
17.2355

> <b_lp_Chiralities_Consistent>
1

> <s_lp_Variant>
AV-unprocessed.smi:2346-2

> <Gold.Version>
5.8.1

> <Gold.Id.Protein>
6NUR|6NUR_protein|mol2

> <Gold.PLP.Fitness>
52.7927

> <Gold.PLP.PLP>
-47.8029

> <Gold.PLP.part.hbond>
-3.0000

> <Gold.PLP.part.metal>
0.0000

> <Gold.PLP.part.buried>
-5.2962

> <Gold.PLP.part.nonpolar>
-40.0528

> <Gold.PLP.part.repulsive>
1.5899

> <Gold.PLP.ligand.clash>
0.0000

> <Gold.PLP.ligand.torsion>
0.8264

> <Gold.PLP.Chemscore.Hbond>
2.1797

> <Gold.PLP.Chemscore.CHOScore>
0.0000

> <Gold.PLP.Chemscore.Metal>
0.0000

> <Gold.Chemscore.Hbonds>
donor molecule, donor type, donor heavy atom, donor atom, acceptor molecule, acceptor atom, score
      P1  H  7989  7998       L1    18  1.00
      P1  H  7997  8009       L1     2  0.31
      P1  H  7997  8010       L1    11  0.60

> <Gold.PLP.Chemscore.Internal.Correction>
0.1036

> <Gold.Rescore>
     Score         DG    S(hbond)    S(metal)    S(lipo)     H(rot)  DE(clash)    DE(int)     intcor
     18.20     -19.25       1.53        0.00     130.12       2.57       0.28       0.78       ----

> <Gold.Chemscore.Fitness>
18.1974

> <Gold.Chemscore.DG>
-19.2515

> <Gold.Chemscore.ZeroCoef>
-5.4800

> <Gold.Chemscore.Hbond>
1.5333

> <Gold.Chemscore.Metal>
0.0000

> <Gold.Chemscore.Lipo>
130.1250

> <Gold.Chemscore.Internal_Hbond>
0.0000

> <Gold.Chemscore.DEClash>
0.2753

> <Gold.Chemscore.DEInternal>
0.7788

> <Gold.Chemscore.Rot>
2.5681

> <Gold.Chemscore.Internal.Correction>
   9.000000E+99

> <Gold.Chemscore.Hbonds>
donor molecule, donor type, donor heavy atom, donor atom, acceptor molecule, acceptor atom, score
      P1  H  7989  7998       L1    18  0.40
      P1  H  7997  8009       L1     2  0.17
      P1  H  7997  8010       L1    11  0.10

> <Gold.Chemscore.Hbond.Weighted>
-5.1211

> <Gold.Chemscore.Metal.Weighted>
-0.0000

> <Gold.Chemscore.Lipo.Weighted>
-15.2246

> <Gold.Chemscore.Internal_Hbond.Weighted>
0.0000

> <Gold.Chemscore.DEClash.Weighted>
0.2753

> <Gold.Chemscore.DEInternal.Weighted>
0.7788

> <Gold.Chemscore.Rot.Weighted>
6.5743

> <Gold.Chemscore.Internal.Correction.Weighted>
   9.000000E+99

> <Gold.Protein.RotatedTorsions>
[ 6907 6896 6895 6894 ] final   73.68 input  -60.11 | X-H torsion
[ 7974 7965 7964 7962 ] final  -55.00 input  175.53 | X-H torsion
[ 8008 7997 7996 7995 ] final   60.93 input   59.86 | X-H torsion
[ 10167 10162 10161 10158 ] final -115.07 input  -65.29 | X-H torsion
[ 10718 10713 10712 10709 ] final   18.93 input   66.30 | X-H torsion
[ 10763 10752 10751 10750 ] final   95.33 input  -60.55 | X-H torsion
[ 11005 11000 10999 10996 ] final   23.67 input  -57.11 | X-H torsion

> <Gold.Protein.ActiveResidues>
 VAL166  LYS551  ARG553  GLY616  TRP617  ASP618  TYR619  PRO620  LYS621  CYS622 
 ASP623  PHE694  ASN695  SER759  ASP760  ASP761  ALA762  ILE779  LEU786  VAL792 
 PHE793  MET794  SER795  GLU796  ALA797  LYS798  CYS799  TRP800  GLU811  SER814 

> <Gold.Protein.RotatedAtoms>
  152.4936  134.4386  159.9535 H   0  0  0  0  0  0  0  0  0  0  0  0  # atno 6907 bound_to 6896
  151.4368  133.3648  159.2784 H   0  0  0  0  0  0  0  0  0  0  0  0  # atno 6908 bound_to 6896
  150.9115  134.8555  159.7488 H   0  0  0  0  0  0  0  0  0  0  0  0  # atno 6909 bound_to 6896
  145.8791  140.8158  142.9849 H   0  0  0  0  0  0  0  0  0  0  0  0  # atno 7974 bound_to 7965
  155.5902  140.3492  155.4564 H   0  0  0  0  0  0  0  0  0  0  0  0  # atno 8008 bound_to 7997
  156.0307  140.1274  157.0286 H   0  0  0  0  0  0  0  0  0  0  0  0  # atno 8009 bound_to 7997
  154.4351  140.1044  156.6081 H   0  0  0  0  0  0  0  0  0  0  0  0  # atno 8010 bound_to 7997
  140.0940  143.4673  152.1852 H   0  0  0  0  0  0  0  0  0  0  0  0  # atno 10167 bound_to 10162
  157.1033  130.6477  149.5878 H   0  0  0  0  0  0  0  0  0  0  0  0  # atno 10718 bound_to 10713
  153.2519  135.4258  155.0806 H   0  0  0  0  0  0  0  0  0  0  0  0  # atno 10763 bound_to 10752
  154.8385  135.3428  154.6500 H   0  0  0  0  0  0  0  0  0  0  0  0  # atno 10764 bound_to 10752
  153.6922  135.7033  153.5143 H   0  0  0  0  0  0  0  0  0  0  0  0  # atno 10765 bound_to 10752
  140.3671  134.2062  155.7668 H   0  0  0  0  0  0  0  0  0  0  0  0  # atno 11005 bound_to 11000
  144.6727  140.1357  143.7440 LP  0  0  0  0  0  0  0  0  0  0  0  0  # atno 17320 bound_to 7965
  145.9045  139.2450  143.1474 LP  0  0  0  0  0  0  0  0  0  0  0  0  # atno 17321 bound_to 7965
  139.5708  144.7461  151.3896 LP  0  0  0  0  0  0  0  0  0  0  0  0  # atno 17342 bound_to 10162
  140.7013  143.7624  150.7408 LP  0  0  0  0  0  0  0  0  0  0  0  0  # atno 17343 bound_to 10162
  155.9868  130.4904  150.7096 LP  0  0  0  0  0  0  0  0  0  0  0  0  # atno 17370 bound_to 10713
  157.4622  131.0884  151.0733 LP  0  0  0  0  0  0  0  0  0  0  0  0  # atno 17371 bound_to 10713
  141.1966  133.8078  157.0664 LP  0  0  0  0  0  0  0  0  0  0  0  0  # atno 17394 bound_to 11000
  140.0581  134.9770  157.1256 LP  0  0  0  0  0  0  0  0  0  0  0  0  # atno 17395 bound_to 11000

$$$$
