AV-unprocessed.smi:2460|AV-procd|sdf|9715|dock1
  -GOLD-   2272013353D 1   1.00000     0.00000
 Structure written by MMmdl.
 46 48  0  0  0  0  0  0  0  0  1 V2000
  142.7704  134.2095  152.3698 C   0  0  0  0  0  0  0  0  0  0  0  0
  144.1907  134.0140  151.8124 C   0  0  0  0  0  0  0  0  0  0  0  0
  144.1529  133.3546  150.4253 C   0  0  0  0  0  0  0  0  0  0  0  0
  144.9924  135.3217  151.8130 C   0  0  0  0  0  0  0  0  0  0  0  0
  145.6716  135.3100  153.1682 C   0  0  2  0  0  0  0  0  0  0  0  0
  146.8784  136.1344  153.1739 N   0  0  0  0  0  0  0  0  0  0  0  0
  147.1923  137.0346  154.1151 C   0  0  0  0  0  0  0  0  0  0  0  0
  146.4679  137.2961  155.0750 O   0  0  0  0  0  0  0  0  0  0  0  0
  148.3969  137.5811  153.8807 N   0  0  0  0  0  0  0  0  0  0  0  0
  149.0933  138.5340  154.6703 C   0  0  0  0  0  0  0  0  0  0  0  0
  150.1297  139.2878  154.0808 C   0  0  0  0  0  0  0  0  0  0  0  0
  150.8253  140.2136  154.7751 N   0  0  0  0  0  0  0  0  0  0  0  0
  150.4868  140.3864  156.0559 C   0  0  0  0  0  0  0  0  0  0  0  0
  151.2401  141.4334  156.8156 C   0  0  0  0  0  0  0  0  0  0  0  0
  151.0583  141.5875  158.3119 C   0  0  0  0  0  0  0  0  0  0  0  0
  150.5252  142.6429  157.3836 C   0  0  0  0  0  0  0  0  0  0  0  0
  149.5080  139.7575  156.7124 N   0  0  0  0  0  0  0  0  0  0  0  0
  148.8084  138.8280  156.0265 C   0  0  0  0  0  0  0  0  0  0  0  0
  145.9425  133.8058  153.3918 C   0  0  0  0  0  0  0  0  0  0  0  0
  147.2555  133.2951  152.7611 C   0  0  0  0  0  0  0  0  0  0  0  0
  145.8640  133.4125  154.8754 C   0  0  0  0  0  0  0  0  0  0  0  0
  144.8801  133.1431  152.7080 O   0  0  0  0  0  0  0  0  0  0  0  0
  142.1856  134.8765  151.7361 H   0  0  0  0  0  0  0  0  0  0  0  0
  142.7891  134.6364  153.3727 H   0  0  0  0  0  0  0  0  0  0  0  0
  142.2389  133.2594  152.4299 H   0  0  0  0  0  0  0  0  0  0  0  0
  143.6566  133.9966  149.6973 H   0  0  0  0  0  0  0  0  0  0  0  0
  143.6154  132.4064  150.4547 H   0  0  0  0  0  0  0  0  0  0  0  0
  145.1588  133.1503  150.0575 H   0  0  0  0  0  0  0  0  0  0  0  0
  145.7420  135.3066  151.0202 H   0  0  0  0  0  0  0  0  0  0  0  0
  144.3726  136.2054  151.6581 H   0  0  0  0  0  0  0  0  0  0  0  0
  144.9562  135.6777  153.9068 H   0  0  0  0  0  0  0  0  0  0  0  0
  147.5349  135.9830  152.4222 H   0  0  0  0  0  0  0  0  0  0  0  0
  148.9071  137.2147  153.0905 H   0  0  0  0  0  0  0  0  0  0  0  0
  150.4090  139.1452  153.0472 H   0  0  0  0  0  0  0  0  0  0  0  0
  152.2385  141.5787  156.4073 H   0  0  0  0  0  0  0  0  0  0  0  0
  150.3332  140.9431  158.8054 H   0  0  0  0  0  0  0  0  0  0  0  0
  151.9395  141.8335  158.9006 H   0  0  0  0  0  0  0  0  0  0  0  0
  151.0488  143.5960  157.3512 H   0  0  0  0  0  0  0  0  0  0  0  0
  149.4455  142.7006  157.2600 H   0  0  0  0  0  0  0  0  0  0  0  0
  148.0135  138.3458  156.5737 H   0  0  0  0  0  0  0  0  0  0  0  0
  148.1306  133.7136  153.2590 H   0  0  0  0  0  0  0  0  0  0  0  0
  147.3203  133.5496  151.7031 H   0  0  0  0  0  0  0  0  0  0  0  0
  147.3279  132.2099  152.8383 H   0  0  0  0  0  0  0  0  0  0  0  0
  146.6573  133.8861  155.4536 H   0  0  0  0  0  0  0  0  0  0  0  0
  145.9618  132.3342  155.0025 H   0  0  0  0  0  0  0  0  0  0  0  0
  144.9105  133.7092  155.3130 H   0  0  0  0  0  0  0  0  0  0  0  0
  1  2  1  0  0  0  0
  1 23  1  0  0  0  0
  1 24  1  0  0  0  0
  1 25  1  0  0  0  0
  2 22  1  0  0  0  0
  2  3  1  0  0  0  0
  2  4  1  0  0  0  0
  3 26  1  0  0  0  0
  3 27  1  0  0  0  0
  3 28  1  0  0  0  0
  4  5  1  0  0  0  0
  4 29  1  0  0  0  0
  4 30  1  0  0  0  0
  5  6  1  0  0  0  0
  5 19  1  0  0  0  0
  5 31  1  0  0  0  0
  6  7  1  0  0  0  0
  6 32  1  0  0  0  0
  7  8  2  0  0  0  0
  7  9  1  0  0  0  0
  9 10  1  0  0  0  0
  9 33  1  0  0  0  0
 10 18  1  0  0  0  0
 10 11  2  0  0  0  0
 11 12  1  0  0  0  0
 11 34  1  0  0  0  0
 12 13  2  0  0  0  0
 13 14  1  0  0  0  0
 13 17  1  0  0  0  0
 14 16  1  0  0  0  0
 14 15  1  0  0  0  0
 14 35  1  0  0  0  0
 15 16  1  0  0  0  0
 15 36  1  0  0  0  0
 15 37  1  0  0  0  0
 16 38  1  0  0  0  0
 16 39  1  0  0  0  0
 17 18  2  0  0  0  0
 18 40  1  0  0  0  0
 19 20  1  0  0  0  0
 19 21  1  0  0  0  0
 19 22  1  0  0  0  0
 20 41  1  0  0  0  0
 20 42  1  0  0  0  0
 20 43  1  0  0  0  0
 21 44  1  0  0  0  0
 21 45  1  0  0  0  0
 21 46  1  0  0  0  0
M  END
> <s_m_source_file>
AV-unprocessed.smi

> <i_m_source_file_index>
2460

> <i_lp_mmshare_version>
43012

> <i_f3d_flags>
0

> <s_epik_input>
W0NIM11DMShbQ0gzXSlbQ0gyXVtDQEhdKEMoTzEpKFtDSDNdKVtDSDNdKVtOSF1DKD1PKVtOSF1jMltjSF1uYyhuW2NIXTIpW0NIXTNbQ0gyXVtDSDJdMw==

> <s_epik_cmdline>
J2VwaWtfcHl0aG9uJywgJy1waCcsICc3LjAnLCAnLXRuJywgJzgnLCAnLW1hJywgJzIwMCcsICctbWV0YWxfYmluZGluZycsICctaW1hZScsICc8aW5maWxlLm1hZT4nLCAnLW9tYWUnLCAnPG91dGZpbGUubWFlPic=

> <r_lp_tautomer_probability>
1

> <r_epik_Ionization_Penalty>
2.38399e-05

> <r_epik_Ionization_Penalty_Charging>
0

> <r_epik_Ionization_Penalty_Neutral>
2.38399e-05

> <r_epik_State_Penalty>
-0

> <r_epik_Charging_Adjusted_Penalty>
0

> <i_epik_Tot_Q>
0

> <i_epik_Tot_abs_Q>
0

> <r_epik_Metal_State_Penalty>
-0

> <b_epik_Metal_Only>
0

> <s_lp_Force_Field>
OPLS_2005

> <r_lp_Energy>
17.9428

> <b_lp_Chiralities_Consistent>
1

> <s_lp_Variant>
AV-unprocessed.smi:2460-2

> <Gold.Version>
5.8.1

> <Gold.Id.Protein>
6NUR|6NUR_protein|mol2

> <Gold.PLP.Fitness>
38.0779

> <Gold.PLP.PLP>
-26.9923

> <Gold.PLP.part.hbond>
-2.5340

> <Gold.PLP.part.metal>
0.0000

> <Gold.PLP.part.buried>
-2.4745

> <Gold.PLP.part.nonpolar>
-22.5602

> <Gold.PLP.part.repulsive>
0.2329

> <Gold.PLP.ligand.clash>
0.0000

> <Gold.PLP.ligand.torsion>
0.2608

> <Gold.PLP.Chemscore.Hbond>
2.8260

> <Gold.PLP.Chemscore.CHOScore>
1.0000

> <Gold.PLP.Chemscore.Metal>
0.0000

> <Gold.Chemscore.Hbonds>
donor molecule, donor type, donor heavy atom, donor atom, acceptor molecule, acceptor atom, score
      L1  H     6    32       P1  7948  0.98
      L1  H     9    33       P1  7948  1.00
      P1  H  7989  7998       L1    12  0.85
      L1  C    11    34       P1  7957  1.00

> <Gold.PLP.Chemscore.Internal.Correction>
0.1292

> <Gold.Rescore>
     Score         DG    S(hbond)    S(metal)    S(lipo)     H(rot)  DE(clash)    DE(int)     intcor
     15.93     -17.54       2.16        0.00      67.26       1.18       0.19       1.41       ----

> <Gold.Chemscore.Fitness>
15.9338

> <Gold.Chemscore.DG>
-17.5380

> <Gold.Chemscore.ZeroCoef>
-5.4800

> <Gold.Chemscore.Hbond>
2.1573

> <Gold.Chemscore.Metal>
0.0000

> <Gold.Chemscore.Lipo>
67.2599

> <Gold.Chemscore.Internal_Hbond>
0.0000

> <Gold.Chemscore.DEClash>
0.1936

> <Gold.Chemscore.DEInternal>
1.4106

> <Gold.Chemscore.Rot>
1.1785

> <Gold.Chemscore.Internal.Correction>
   9.000000E+99

> <Gold.Chemscore.Hbonds>
donor molecule, donor type, donor heavy atom, donor atom, acceptor molecule, acceptor atom, score
      L1  H     6    32       P1  7948  0.87
      L1  H     9    33       P1  7948  0.91
      P1  H  7989  7998       L1    12  0.15

> <Gold.Chemscore.Hbond.Weighted>
-7.2055

> <Gold.Chemscore.Metal.Weighted>
-0.0000

> <Gold.Chemscore.Lipo.Weighted>
-7.8694

> <Gold.Chemscore.Internal_Hbond.Weighted>
0.0000

> <Gold.Chemscore.DEClash.Weighted>
0.1936

> <Gold.Chemscore.DEInternal.Weighted>
1.4106

> <Gold.Chemscore.Rot.Weighted>
3.0169

> <Gold.Chemscore.Internal.Correction.Weighted>
   9.000000E+99

> <Gold.Protein.RotatedTorsions>
[ 6907 6896 6895 6894 ] final  -22.25 input  -60.11 | X-H torsion
[ 7974 7965 7964 7962 ] final  -48.29 input  175.53 | X-H torsion
[ 8008 7997 7996 7995 ] final  -57.73 input   59.86 | X-H torsion
[ 10167 10162 10161 10158 ] final  -23.52 input  -65.29 | X-H torsion
[ 10718 10713 10712 10709 ] final  -98.86 input   66.30 | X-H torsion
[ 10763 10752 10751 10750 ] final  -65.45 input  -60.55 | X-H torsion
[ 11005 11000 10999 10996 ] final -158.16 input  -57.11 | X-H torsion

> <Gold.Protein.ActiveResidues>
 VAL166  LYS551  ARG553  GLY616  TRP617  ASP618  TYR619  PRO620  LYS621  CYS622 
 ASP623  PHE694  ASN695  SER759  ASP760  ASP761  ALA762  ILE779  LEU786  VAL792 
 PHE793  MET794  SER795  GLU796  ALA797  LYS798  CYS799  TRP800  GLU811  SER814 

> <Gold.Protein.RotatedAtoms>
  151.2214  135.0520  159.8950 H   0  0  0  0  0  0  0  0  0  0  0  0  # atno 6907 bound_to 6896
  152.5415  134.0637  159.8173 H   0  0  0  0  0  0  0  0  0  0  0  0  # atno 6908 bound_to 6896
  151.0803  133.5347  159.2653 H   0  0  0  0  0  0  0  0  0  0  0  0  # atno 6909 bound_to 6896
  145.9527  140.7557  142.9497 H   0  0  0  0  0  0  0  0  0  0  0  0  # atno 7974 bound_to 7965
  154.4279  140.1100  156.5844 H   0  0  0  0  0  0  0  0  0  0  0  0  # atno 8008 bound_to 7997
  155.6079  140.3494  155.4594 H   0  0  0  0  0  0  0  0  0  0  0  0  # atno 8009 bound_to 7997
  156.0123  140.1221  157.0431 H   0  0  0  0  0  0  0  0  0  0  0  0  # atno 8010 bound_to 7997
  140.7288  143.4435  151.0621 H   0  0  0  0  0  0  0  0  0  0  0  0  # atno 10167 bound_to 10162
  156.0118  130.5256  150.6585 H   0  0  0  0  0  0  0  0  0  0  0  0  # atno 10718 bound_to 10713
  154.3451  135.6148  153.5615 H   0  0  0  0  0  0  0  0  0  0  0  0  # atno 10763 bound_to 10752
  152.9801  135.5779  154.4808 H   0  0  0  0  0  0  0  0  0  0  0  0  # atno 10764 bound_to 10752
  154.4519  135.2853  155.1752 H   0  0  0  0  0  0  0  0  0  0  0  0  # atno 10765 bound_to 10752
  140.6567  134.4393  157.5235 H   0  0  0  0  0  0  0  0  0  0  0  0  # atno 11005 bound_to 11000
  144.6799  140.2460  143.7337 LP  0  0  0  0  0  0  0  0  0  0  0  0  # atno 17320 bound_to 7965
  145.8149  139.2019  143.1971 LP  0  0  0  0  0  0  0  0  0  0  0  0  # atno 17321 bound_to 7965
  139.8105  143.7958  152.3171 LP  0  0  0  0  0  0  0  0  0  0  0  0  # atno 17342 bound_to 10162
  139.8005  144.7375  150.9831 LP  0  0  0  0  0  0  0  0  0  0  0  0  # atno 17343 bound_to 10162
  157.4332  131.0852  151.1018 LP  0  0  0  0  0  0  0  0  0  0  0  0  # atno 17370 bound_to 10713
  157.1585  130.6215  149.5603 LP  0  0  0  0  0  0  0  0  0  0  0  0  # atno 17371 bound_to 10713
  139.9027  134.8519  156.1830 LP  0  0  0  0  0  0  0  0  0  0  0  0  # atno 17394 bound_to 11000
  141.0496  133.6895  156.1747 LP  0  0  0  0  0  0  0  0  0  0  0  0  # atno 17395 bound_to 11000

$$$$
