AV-unprocessed.smi:474|AV-procd|sdf|2665|dock6
  -GOLD-   2262023 83D 1   1.00000     0.00000
 Structure written by MMmdl.
 37 38  0  0  0  0  0  0  0  0  1 V2000
  137.8096  137.1917  154.5558 C   0  0  0  0  0  0  0  0  0  0  0  0
  139.2798  137.1920  154.3124 C   0  0  0  0  0  0  0  0  0  0  0  0
  140.0792  137.8857  153.4484 C   0  0  0  0  0  0  0  0  0  0  0  0
  141.3819  137.3946  153.7544 C   0  0  0  0  0  0  0  0  0  0  0  0
  142.5973  137.7937  153.1408 N   0  0  0  0  0  0  0  0  0  0  0  0
  143.5867  137.0197  152.6640 C   0  0  0  0  0  0  0  0  0  0  0  0
  143.6121  135.7895  152.7020 O   0  0  0  0  0  0  0  0  0  0  0  0
  144.5661  137.7620  152.1274 N   0  0  0  0  0  0  0  0  0  0  0  0
  145.7784  137.2338  151.5127 C   0  0  0  0  0  0  0  0  0  0  0  0
  146.3269  136.0262  152.2927 C   0  0  0  0  0  0  0  0  0  0  0  0
  146.0121  134.7000  151.6210 C   0  0  0  0  0  0  0  0  0  0  0  0
  146.6132  133.5527  151.9919 C   0  0  0  0  0  0  0  0  0  0  0  0
  146.3490  132.2034  151.3470 C   0  0  0  0  0  0  0  0  0  0  0  0
  145.5887  132.3277  150.0160 C   0  0  0  0  0  0  0  0  0  0  0  0
  144.4480  133.3470  150.1228 C   0  0  0  0  0  0  0  0  0  0  0  0
  144.9771  134.7418  150.5022 C   0  0  0  0  0  0  0  0  0  0  0  0
  141.3708  136.4864  154.7128 N   0  0  0  0  0  0  0  0  0  0  0  0
  140.0261  136.3497  155.0765 O   0  0  0  0  0  0  0  0  0  0  0  0
  137.3397  138.0639  154.1009 H   0  0  0  0  0  0  0  0  0  0  0  0
  137.5930  137.2112  155.6240 H   0  0  0  0  0  0  0  0  0  0  0  0
  137.3487  136.2994  154.1323 H   0  0  0  0  0  0  0  0  0  0  0  0
  139.7657  138.6219  152.7240 H   0  0  0  0  0  0  0  0  0  0  0  0
  142.7217  138.7905  153.0424 H   0  0  0  0  0  0  0  0  0  0  0  0
  144.4642  138.7663  152.1400 H   0  0  0  0  0  0  0  0  0  0  0  0
  145.5306  136.9445  150.4915 H   0  0  0  0  0  0  0  0  0  0  0  0
  146.5346  138.0174  151.4393 H   0  0  0  0  0  0  0  0  0  0  0  0
  147.4079  136.1220  152.4046 H   0  0  0  0  0  0  0  0  0  0  0  0
  145.9156  136.0116  153.3027 H   0  0  0  0  0  0  0  0  0  0  0  0
  147.3283  133.5581  152.8018 H   0  0  0  0  0  0  0  0  0  0  0  0
  147.2973  131.6900  151.1852 H   0  0  0  0  0  0  0  0  0  0  0  0
  145.7771  131.6002  152.0524 H   0  0  0  0  0  0  0  0  0  0  0  0
  146.2771  132.6439  149.2310 H   0  0  0  0  0  0  0  0  0  0  0  0
  145.2027  131.3536  149.7144 H   0  0  0  0  0  0  0  0  0  0  0  0
  143.8975  133.4012  149.1832 H   0  0  0  0  0  0  0  0  0  0  0  0
  143.7365  133.0095  150.8779 H   0  0  0  0  0  0  0  0  0  0  0  0
  144.1428  135.3780  150.7997 H   0  0  0  0  0  0  0  0  0  0  0  0
  145.4362  135.2089  149.6306 H   0  0  0  0  0  0  0  0  0  0  0  0
  1  2  1  0  0  0  0
  1 19  1  0  0  0  0
  1 20  1  0  0  0  0
  1 21  1  0  0  0  0
  2 18  1  0  0  0  0
  2  3  2  0  0  0  0
  3  4  1  0  0  0  0
  3 22  1  0  0  0  0
  4  5  1  0  0  0  0
  4 17  2  0  0  0  0
  5  6  1  0  0  0  0
  5 23  1  0  0  0  0
  6  7  2  0  0  0  0
  6  8  1  0  0  0  0
  8  9  1  0  0  0  0
  8 24  1  0  0  0  0
  9 10  1  0  0  0  0
  9 25  1  0  0  0  0
  9 26  1  0  0  0  0
 10 11  1  0  0  0  0
 10 27  1  0  0  0  0
 10 28  1  0  0  0  0
 11 16  1  0  0  0  0
 11 12  2  0  0  0  0
 12 13  1  0  0  0  0
 12 29  1  0  0  0  0
 13 14  1  0  0  0  0
 13 30  1  0  0  0  0
 13 31  1  0  0  0  0
 14 15  1  0  0  0  0
 14 32  1  0  0  0  0
 14 33  1  0  0  0  0
 15 16  1  0  0  0  0
 15 34  1  0  0  0  0
 15 35  1  0  0  0  0
 16 36  1  0  0  0  0
 16 37  1  0  0  0  0
 17 18  1  0  0  0  0
M  END
> <s_m_source_file>
AV-unprocessed.smi

> <i_m_source_file_index>
474

> <i_lp_mmshare_version>
43012

> <i_f3d_flags>
0

> <s_epik_input>
W0NIM11jMVtjSF1jKG5vMSlbTkhdQyg9TylbTkhdW0NIMl1bQ0gyXUMyPVtDSF1bQ0gyXVtDSDJdW0NIMl1bQ0gyXTI=

> <s_epik_cmdline>
J2VwaWtfcHl0aG9uJywgJy1waCcsICc3LjAnLCAnLXRuJywgJzgnLCAnLW1hJywgJzIwMCcsICctbWV0YWxfYmluZGluZycsICctaW1hZScsICc8aW5maWxlLm1hZT4nLCAnLW9tYWUnLCAnPG91dGZpbGUubWFlPic=

> <r_lp_tautomer_probability>
1

> <r_epik_Ionization_Penalty>
2.87157e-05

> <r_epik_Ionization_Penalty_Charging>
0

> <r_epik_Ionization_Penalty_Neutral>
2.87157e-05

> <r_epik_State_Penalty>
-0

> <r_epik_Charging_Adjusted_Penalty>
0

> <i_epik_Tot_Q>
0

> <i_epik_Tot_abs_Q>
0

> <r_epik_Metal_State_Penalty>
0.00793999

> <b_epik_Metal_Only>
0

> <s_lp_Force_Field>
OPLS_2005

> <r_lp_Energy>
6.67712

> <b_lp_Chiralities_Consistent>
1

> <s_lp_Variant>
AV-unprocessed.smi:474-1

> <Gold.Version>
5.8.1

> <Gold.Id.Protein>
6NUR|6NUR_protein|mol2

> <Gold.PLP.Fitness>
41.1103

> <Gold.PLP.PLP>
-34.5867

> <Gold.PLP.part.hbond>
-4.4233

> <Gold.PLP.part.metal>
0.0000

> <Gold.PLP.part.buried>
-2.6896

> <Gold.PLP.part.nonpolar>
-27.8039

> <Gold.PLP.part.repulsive>
0.3027

> <Gold.PLP.ligand.clash>
0.0000

> <Gold.PLP.ligand.torsion>
1.0076

> <Gold.PLP.Chemscore.Hbond>
2.8413

> <Gold.PLP.Chemscore.CHOScore>
0.0000

> <Gold.PLP.Chemscore.Metal>
0.0000

> <Gold.Chemscore.Hbonds>
donor molecule, donor type, donor heavy atom, donor atom, acceptor molecule, acceptor atom, score
      L1  H     5    23       P1 10175  1.00
      L1  H     8    24       P1 10175  1.00
      P1  H 11000 11005       L1    18  0.93

> <Gold.PLP.Chemscore.Internal.Correction>
0.0150

> <Gold.Rescore>
     Score         DG    S(hbond)    S(metal)    S(lipo)     H(rot)  DE(clash)    DE(int)     intcor
     13.51     -18.81       2.46        0.00      76.03       1.48       1.88       3.42       ----

> <Gold.Chemscore.Fitness>
13.5111

> <Gold.Chemscore.DG>
-18.8120

> <Gold.Chemscore.ZeroCoef>
-5.4800

> <Gold.Chemscore.Hbond>
2.4641

> <Gold.Chemscore.Metal>
0.0000

> <Gold.Chemscore.Lipo>
76.0279

> <Gold.Chemscore.Internal_Hbond>
0.0000

> <Gold.Chemscore.DEClash>
1.8771

> <Gold.Chemscore.DEInternal>
3.4238

> <Gold.Chemscore.Rot>
1.4818

> <Gold.Chemscore.Internal.Correction>
   9.000000E+99

> <Gold.Chemscore.Hbonds>
donor molecule, donor type, donor heavy atom, donor atom, acceptor molecule, acceptor atom, score
      L1  H     5    23       P1 10175  0.98
      L1  H     8    24       P1 10175  0.99
      P1  H 11000 11005       L1    18  0.58

> <Gold.Chemscore.Hbond.Weighted>
-8.2300

> <Gold.Chemscore.Metal.Weighted>
-0.0000

> <Gold.Chemscore.Lipo.Weighted>
-8.8953

> <Gold.Chemscore.Internal_Hbond.Weighted>
0.0000

> <Gold.Chemscore.DEClash.Weighted>
1.8771

> <Gold.Chemscore.DEInternal.Weighted>
3.4238

> <Gold.Chemscore.Rot.Weighted>
3.7933

> <Gold.Chemscore.Internal.Correction.Weighted>
   9.000000E+99

> <Gold.Protein.RotatedTorsions>
[ 6907 6896 6895 6894 ] final -154.38 input  -60.11 | X-H torsion
[ 7974 7965 7964 7962 ] final  176.55 input  175.53 | X-H torsion
[ 8008 7997 7996 7995 ] final  115.09 input   59.86 | X-H torsion
[ 10167 10162 10161 10158 ] final  -82.35 input  -65.29 | X-H torsion
[ 10718 10713 10712 10709 ] final   61.10 input   66.30 | X-H torsion
[ 10763 10752 10751 10750 ] final  -96.12 input  -60.55 | X-H torsion
[ 11005 11000 10999 10996 ] final   90.47 input  -57.11 | X-H torsion

> <Gold.Protein.ActiveResidues>
 VAL166  LYS551  ARG553  GLY616  TRP617  ASP618  TYR619  PRO620  LYS621  CYS622 
 ASP623  PHE694  ASN695  SER759  ASP760  ASP761  ALA762  ILE779  LEU786  VAL792 
 PHE793  MET794  SER795  GLU796  ALA797  LYS798  CYS799  TRP800  GLU811  SER814 

> <Gold.Protein.RotatedAtoms>
  151.2566  133.4323  159.2613 H   0  0  0  0  0  0  0  0  0  0  0  0  # atno 6907 bound_to 6896
  151.0569  134.9711  159.8250 H   0  0  0  0  0  0  0  0  0  0  0  0  # atno 6908 bound_to 6896
  152.5392  134.2518  159.8954 H   0  0  0  0  0  0  0  0  0  0  0  0  # atno 6909 bound_to 6896
  144.7182  140.0113  143.6440 H   0  0  0  0  0  0  0  0  0  0  0  0  # atno 7974 bound_to 7965
  156.2361  140.2945  156.0316 H   0  0  0  0  0  0  0  0  0  0  0  0  # atno 8008 bound_to 7997
  155.2088  140.0412  157.2947 H   0  0  0  0  0  0  0  0  0  0  0  0  # atno 8009 bound_to 7997
  154.6081  140.2444  155.7712 H   0  0  0  0  0  0  0  0  0  0  0  0  # atno 8010 bound_to 7997
  140.4328  143.2542  151.8736 H   0  0  0  0  0  0  0  0  0  0  0  0  # atno 10167 bound_to 10162
  157.5802  130.8975  149.9418 H   0  0  0  0  0  0  0  0  0  0  0  0  # atno 10718 bound_to 10713
  154.7210  135.5095  153.8812 H   0  0  0  0  0  0  0  0  0  0  0  0  # atno 10763 bound_to 10752
  153.0863  135.6646  153.9952 H   0  0  0  0  0  0  0  0  0  0  0  0  # atno 10764 bound_to 10752
  153.9775  135.3032  155.3402 H   0  0  0  0  0  0  0  0  0  0  0  0  # atno 10765 bound_to 10752
  139.8855  134.8616  156.3290 H   0  0  0  0  0  0  0  0  0  0  0  0  # atno 11005 bound_to 11000
  146.0256  139.3289  143.0786 LP  0  0  0  0  0  0  0  0  0  0  0  0  # atno 17320 bound_to 7965
  145.8516  140.9526  143.0747 LP  0  0  0  0  0  0  0  0  0  0  0  0  # atno 17321 bound_to 7965
  139.4785  144.5316  151.8658 LP  0  0  0  0  0  0  0  0  0  0  0  0  # atno 17342 bound_to 10162
  140.4408  144.1989  150.5891 LP  0  0  0  0  0  0  0  0  0  0  0  0  # atno 17343 bound_to 10162
  156.0848  130.3669  150.0509 LP  0  0  0  0  0  0  0  0  0  0  0  0  # atno 17370 bound_to 10713
  156.8649  130.9504  151.3614 LP  0  0  0  0  0  0  0  0  0  0  0  0  # atno 17371 bound_to 10713
  140.9736  133.7312  156.0569 LP  0  0  0  0  0  0  0  0  0  0  0  0  # atno 17394 bound_to 11000
  140.7840  134.3693  157.5481 LP  0  0  0  0  0  0  0  0  0  0  0  0  # atno 17395 bound_to 11000

$$$$
