AV-unprocessed.smi:189|AV-procd|sdf|1479|dock2
  -GOLD-   2262019303D 1   1.00000     0.00000
 Structure written by MMmdl.
 53 57  0  0  0  0  0  0  0  0  1 V2000
  150.7399  140.4252  155.3826 C   0  0  0  0  0  0  0  0  0  0  0  0
  150.5488  141.0562  156.7692 C   0  0  2  0  0  0  0  0  0  0  0  0
  150.4120  142.5979  156.7399 C   0  0  0  0  0  0  0  0  0  0  0  0
  151.5206  143.0760  157.6778 C   0  0  1  0  0  0  0  0  0  0  0  0
  151.2982  144.3471  158.5056 C   0  0  0  0  0  0  0  0  0  0  0  0
  152.5185  144.5676  159.4258 C   0  0  0  0  0  0  0  0  0  0  0  0
  152.8471  143.3229  160.2836 C   0  0  0  0  0  0  0  0  0  0  0  0
  152.9744  142.0380  159.4378 C   0  0  0  0  0  0  0  0  0  0  0  0
  151.7037  141.8751  158.5894 C   0  0  2  0  0  0  0  0  0  0  0  0
  151.6721  140.7582  157.6637 N   0  0  0  0  0  0  0  0  0  0  0  0
  151.6832  139.5348  158.2399 C   0  0  0  0  0  0  0  0  0  0  0  0
  150.5638  138.7635  158.2515 N   0  0  0  0  0  0  0  0  0  0  0  0
  150.5894  137.5609  158.8340 C   0  0  0  0  0  0  0  0  0  0  0  0
  151.6048  136.9536  159.4531 N   0  0  0  0  0  0  0  0  0  0  0  0
  152.7253  137.7318  159.4490 C   0  0  0  0  0  0  0  0  0  0  0  0
  152.8480  139.0246  158.8684 C   0  0  0  0  0  0  0  0  0  0  0  0
  154.1332  139.5150  159.0562 N   0  0  0  0  0  0  0  0  0  0  0  0
  154.7398  138.5624  159.7106 C   0  0  0  0  0  0  0  0  0  0  0  0
  153.9681  137.4570  159.9929 N   0  0  0  0  0  0  0  0  0  0  0  0
  154.3927  136.2615  160.7047 C   0  0  0  0  0  0  0  0  0  0  0  0
  154.7910  136.5305  162.1744 C   0  0  1  0  0  0  0  0  0  0  0  0
  155.9417  137.3581  162.1970 O   0  0  0  0  0  0  0  0  0  0  0  0
  153.6977  137.1952  163.0055 C   0  0  0  0  0  0  0  0  0  0  0  0
  153.9501  136.6420  164.4009 C   0  0  0  0  0  0  0  0  0  0  0  0
  154.2931  135.2916  164.1408 O   0  0  0  0  0  0  0  0  0  0  0  0
  155.1012  135.2461  162.9690 C   0  0  0  0  0  0  0  0  0  0  0  0
  149.9004  140.6603  154.7282 H   0  0  0  0  0  0  0  0  0  0  0  0
  150.8118  139.3394  155.4499 H   0  0  0  0  0  0  0  0  0  0  0  0
  151.6495  140.7907  154.9048 H   0  0  0  0  0  0  0  0  0  0  0  0
  149.6285  140.6542  157.1950 H   0  0  0  0  0  0  0  0  0  0  0  0
  150.5272  143.0185  155.7403 H   0  0  0  0  0  0  0  0  0  0  0  0
  149.4306  142.8920  157.1139 H   0  0  0  0  0  0  0  0  0  0  0  0
  152.4251  143.2047  157.0793 H   0  0  0  0  0  0  0  0  0  0  0  0
  151.1573  145.2074  157.8511 H   0  0  0  0  0  0  0  0  0  0  0  0
  150.3914  144.2521  159.1044 H   0  0  0  0  0  0  0  0  0  0  0  0
  153.3867  144.8168  158.8145 H   0  0  0  0  0  0  0  0  0  0  0  0
  152.3446  145.4284  160.0721 H   0  0  0  0  0  0  0  0  0  0  0  0
  153.7675  143.4908  160.8433 H   0  0  0  0  0  0  0  0  0  0  0  0
  152.0596  143.1843  161.0254 H   0  0  0  0  0  0  0  0  0  0  0  0
  153.8534  142.0971  158.7943 H   0  0  0  0  0  0  0  0  0  0  0  0
  153.1174  141.1751  160.0891 H   0  0  0  0  0  0  0  0  0  0  0  0
  150.8437  141.7940  159.2579 H   0  0  0  0  0  0  0  0  0  0  0  0
  149.6636  137.0057  158.7994 H   0  0  0  0  0  0  0  0  0  0  0  0
  155.7743  138.6416  160.0117 H   0  0  0  0  0  0  0  0  0  0  0  0
  153.5828  135.5321  160.6623 H   0  0  0  0  0  0  0  0  0  0  0  0
  155.2296  135.8199  160.1619 H   0  0  0  0  0  0  0  0  0  0  0  0
  155.6952  138.2213  161.9013 H   0  0  0  0  0  0  0  0  0  0  0  0
  153.7094  138.2852  162.9622 H   0  0  0  0  0  0  0  0  0  0  0  0
  152.7148  136.8601  162.6725 H   0  0  0  0  0  0  0  0  0  0  0  0
  154.7870  137.1510  164.8815 H   0  0  0  0  0  0  0  0  0  0  0  0
  153.0776  136.7177  165.0502 H   0  0  0  0  0  0  0  0  0  0  0  0
  154.8590  134.3434  162.4076 H   0  0  0  0  0  0  0  0  0  0  0  0
  156.1534  135.1806  163.2516 H   0  0  0  0  0  0  0  0  0  0  0  0
  1  2  1  0  0  0  0
  1 27  1  0  0  0  0
  1 28  1  0  0  0  0
  1 29  1  0  0  0  0
  2 10  1  0  0  0  0
  2  3  1  0  0  0  0
  2 30  1  0  0  0  0
  3  4  1  0  0  0  0
  3 31  1  0  0  0  0
  3 32  1  0  0  0  0
  4  9  1  0  0  0  0
  4  5  1  0  0  0  0
  4 33  1  0  0  0  0
  5  6  1  0  0  0  0
  5 34  1  0  0  0  0
  5 35  1  0  0  0  0
  6  7  1  0  0  0  0
  6 36  1  0  0  0  0
  6 37  1  0  0  0  0
  7  8  1  0  0  0  0
  7 38  1  0  0  0  0
  7 39  1  0  0  0  0
  8  9  1  0  0  0  0
  8 40  1  0  0  0  0
  8 41  1  0  0  0  0
  9 10  1  0  0  0  0
  9 42  1  0  0  0  0
 10 11  1  0  0  0  0
 11 16  1  0  0  0  0
 11 12  2  0  0  0  0
 12 13  1  0  0  0  0
 13 14  2  0  0  0  0
 13 43  1  0  0  0  0
 14 15  1  0  0  0  0
 15 19  1  0  0  0  0
 15 16  2  0  0  0  0
 16 17  1  0  0  0  0
 17 18  2  0  0  0  0
 18 19  1  0  0  0  0
 18 44  1  0  0  0  0
 19 20  1  0  0  0  0
 20 21  1  0  0  0  0
 20 45  1  0  0  0  0
 20 46  1  0  0  0  0
 21 26  1  0  0  0  0
 21 22  1  0  0  0  0
 21 23  1  0  0  0  0
 22 47  1  0  0  0  0
 23 24  1  0  0  0  0
 23 48  1  0  0  0  0
 23 49  1  0  0  0  0
 24 25  1  0  0  0  0
 24 50  1  0  0  0  0
 24 51  1  0  0  0  0
 25 26  1  0  0  0  0
 26 52  1  0  0  0  0
 26 53  1  0  0  0  0
M  END
> <s_m_source_file>
AV-unprocessed.smi

> <i_m_source_file_index>
189

> <i_lp_mmshare_version>
43012

> <i_f3d_flags>
0

> <s_epik_input>
W0NIMl0xW0NIMl1bQ0gyXVtDSDJdW0NASF0oW0NASF0xMilOKFtDQEhdKFtDSDNdKVtDSDJdMiljKG5bY0hdbjMpYyhjMzQpbltjSF1uNFtDSDJdW0NAQF01KFtPSF0pW0NIMl1bQ0gyXU9bQ0gyXTU=

> <s_epik_cmdline>
J2VwaWtfcHl0aG9uJywgJy1waCcsICc3LjAnLCAnLXRuJywgJzgnLCAnLW1hJywgJzIwMCcsICctbWV0YWxfYmluZGluZycsICctaW1hZScsICc8aW5maWxlLm1hZT4nLCAnLW9tYWUnLCAnPG91dGZpbGUubWFlPic=

> <r_lp_tautomer_probability>
1

> <r_epik_Ionization_Penalty>
0.00594261

> <r_epik_Ionization_Penalty_Charging>
0

> <r_epik_Ionization_Penalty_Neutral>
0.00594261

> <r_epik_State_Penalty>
0.00429776

> <r_epik_Charging_Adjusted_Penalty>
0.00429776

> <i_epik_Tot_Q>
0

> <i_epik_Tot_abs_Q>
0

> <r_epik_Metal_State_Penalty>
-0

> <b_epik_Metal_Only>
0

> <s_lp_Force_Field>
OPLS_2005

> <r_lp_Energy>
58.3288

> <b_lp_Chiralities_Consistent>
1

> <s_lp_Variant>
AV-unprocessed.smi:189-5

> <Gold.Version>
5.8.1

> <Gold.Id.Protein>
6NUR|6NUR_protein|mol2

> <Gold.PLP.Fitness>
53.4171

> <Gold.PLP.PLP>
-48.0689

> <Gold.PLP.part.hbond>
-2.0000

> <Gold.PLP.part.metal>
0.0000

> <Gold.PLP.part.buried>
-2.8052

> <Gold.PLP.part.nonpolar>
-42.9529

> <Gold.PLP.part.repulsive>
0.0748

> <Gold.PLP.ligand.clash>
0.0000

> <Gold.PLP.ligand.torsion>
0.3492

> <Gold.PLP.Chemscore.Hbond>
2.0000

> <Gold.PLP.Chemscore.CHOScore>
0.0000

> <Gold.PLP.Chemscore.Metal>
0.0000

> <Gold.Chemscore.Hbonds>
donor molecule, donor type, donor heavy atom, donor atom, acceptor molecule, acceptor atom, score
      P1  H  6896  6908       L1    14  1.00
      P1  H  7997  8009       L1    17  1.00

> <Gold.PLP.Chemscore.Internal.Correction>
0.0466

> <Gold.Rescore>
     Score         DG    S(hbond)    S(metal)    S(lipo)     H(rot)  DE(clash)    DE(int)     intcor
     19.08     -21.98       1.90        0.00     131.05       2.03       1.03       1.86       ----

> <Gold.Chemscore.Fitness>
19.0800

> <Gold.Chemscore.DG>
-21.9756

> <Gold.Chemscore.ZeroCoef>
-5.4800

> <Gold.Chemscore.Hbond>
1.9037

> <Gold.Chemscore.Metal>
0.0000

> <Gold.Chemscore.Lipo>
131.0538

> <Gold.Chemscore.Internal_Hbond>
0.0000

> <Gold.Chemscore.DEClash>
1.0311

> <Gold.Chemscore.DEInternal>
1.8644

> <Gold.Chemscore.Rot>
2.0297

> <Gold.Chemscore.Internal.Correction>
   9.000000E+99

> <Gold.Chemscore.Hbonds>
donor molecule, donor type, donor heavy atom, donor atom, acceptor molecule, acceptor atom, score
      P1  H  6896  6908       L1    14  0.88
      P1  H  7997  8009       L1    17  0.68

> <Gold.Chemscore.Hbond.Weighted>
-6.3583

> <Gold.Chemscore.Metal.Weighted>
-0.0000

> <Gold.Chemscore.Lipo.Weighted>
-15.3333

> <Gold.Chemscore.Internal_Hbond.Weighted>
0.0000

> <Gold.Chemscore.DEClash.Weighted>
1.0311

> <Gold.Chemscore.DEInternal.Weighted>
1.8644

> <Gold.Chemscore.Rot.Weighted>
5.1960

> <Gold.Chemscore.Internal.Correction.Weighted>
   9.000000E+99

> <Gold.Protein.RotatedTorsions>
[ 6907 6896 6895 6894 ] final -137.64 input  -60.11 | X-H torsion
[ 7974 7965 7964 7962 ] final -150.52 input  175.53 | X-H torsion
[ 8008 7997 7996 7995 ] final  127.87 input   59.86 | X-H torsion
[ 10167 10162 10161 10158 ] final    3.87 input  -65.29 | X-H torsion
[ 10718 10713 10712 10709 ] final   99.16 input   66.30 | X-H torsion
[ 10763 10752 10751 10750 ] final   46.34 input  -60.55 | X-H torsion
[ 11005 11000 10999 10996 ] final   -9.62 input  -57.11 | X-H torsion

> <Gold.Protein.ActiveResidues>
 VAL166  LYS551  ARG553  GLY616  TRP617  ASP618  TYR619  PRO620  LYS621  CYS622 
 ASP623  PHE694  ASN695  SER759  ASP760  ASP761  ALA762  ILE779  LEU786  VAL792 
 PHE793  MET794  SER795  GLU796  ALA797  LYS798  CYS799  TRP800  GLU811  SER814 

> <Gold.Protein.RotatedAtoms>
  151.0250  133.5842  159.2666 H   0  0  0  0  0  0  0  0  0  0  0  0  # atno 6907 bound_to 6896
  151.2945  135.0750  159.9226 H   0  0  0  0  0  0  0  0  0  0  0  0  # atno 6908 bound_to 6896
  152.5332  133.9942  159.7919 H   0  0  0  0  0  0  0  0  0  0  0  0  # atno 6909 bound_to 6896
  144.7903  140.4920  143.5778 H   0  0  0  0  0  0  0  0  0  0  0  0  # atno 7974 bound_to 7965
  156.2901  140.2658  156.2343 H   0  0  0  0  0  0  0  0  0  0  0  0  # atno 8008 bound_to 7997
  155.0041  140.0387  157.2390 H   0  0  0  0  0  0  0  0  0  0  0  0  # atno 8009 bound_to 7997
  154.7576  140.2754  155.6246 H   0  0  0  0  0  0  0  0  0  0  0  0  # atno 8010 bound_to 7997
  140.6564  143.7417  150.7661 H   0  0  0  0  0  0  0  0  0  0  0  0  # atno 10167 bound_to 10162
  157.6881  131.0661  150.4906 H   0  0  0  0  0  0  0  0  0  0  0  0  # atno 10718 bound_to 10713
  152.9812  135.6011  154.3584 H   0  0  0  0  0  0  0  0  0  0  0  0  # atno 10763 bound_to 10752
  154.3268  135.2769  155.2494 H   0  0  0  0  0  0  0  0  0  0  0  0  # atno 10764 bound_to 10752
  154.4635  135.5960  153.6328 H   0  0  0  0  0  0  0  0  0  0  0  0  # atno 10765 bound_to 10752
  140.7360  133.8709  155.8930 H   0  0  0  0  0  0  0  0  0  0  0  0  # atno 11005 bound_to 11000
  145.5813  139.1489  143.3233 LP  0  0  0  0  0  0  0  0  0  0  0  0  # atno 17320 bound_to 7965
  146.2152  140.5943  142.9042 LP  0  0  0  0  0  0  0  0  0  0  0  0  # atno 17321 bound_to 7965
  140.1077  143.4728  152.2388 LP  0  0  0  0  0  0  0  0  0  0  0  0  # atno 17342 bound_to 10162
  139.5787  144.7500  151.3696 LP  0  0  0  0  0  0  0  0  0  0  0  0  # atno 17343 bound_to 10162
  156.5233  130.4167  149.6239 LP  0  0  0  0  0  0  0  0  0  0  0  0  # atno 17370 bound_to 10713
  156.3134  130.7241  151.2139 LP  0  0  0  0  0  0  0  0  0  0  0  0  # atno 17371 bound_to 10713
  140.9879  134.1318  157.4435 LP  0  0  0  0  0  0  0  0  0  0  0  0  # atno 17394 bound_to 11000
  139.8816  135.0031  156.6167 LP  0  0  0  0  0  0  0  0  0  0  0  0  # atno 17395 bound_to 11000

$$$$
