AV-unprocessed.smi:2718|AV-procd|sdf|10486|dock6
  -GOLD-   2272014533D 1   1.00000     0.00000
 Structure written by MMmdl.
 47 48  0  0  0  0  0  0  0  0  1 V2000
  149.1776  141.6786  155.5721 C   0  0  0  0  0  0  0  0  0  0  0  0
  150.2041  141.8952  156.6661 C   0  0  0  0  0  0  0  0  0  0  0  0
  150.7410  140.6208  157.2938 C   0  0  0  0  0  0  0  0  0  0  0  0
  150.5967  143.1294  157.0348 C   0  0  0  0  0  0  0  0  0  0  0  0
  151.5946  143.4615  158.0854 C   0  0  2  0  0  0  0  0  0  0  0  0
  151.5192  142.8283  159.4635 C   0  0  1  0  0  0  0  0  0  0  0  0
  152.7901  142.4365  160.1497 C   0  0  0  0  0  0  0  0  0  0  0  0
  153.1115  142.8389  161.2684 O   0  0  0  0  0  0  0  0  0  0  0  0
  153.5524  141.6037  159.4261 N   0  0  0  0  0  0  0  0  0  0  0  0
  154.8506  141.0659  159.8261 C   0  0  0  0  0  0  0  0  0  0  0  0
  154.8480  139.5380  160.0686 C   0  0  2  0  0  0  0  0  0  0  0  0
  156.2021  139.0464  160.5998 C   0  0  0  0  0  0  0  0  0  0  0  0
  154.4072  138.7495  158.8642 C   0  0  0  0  0  0  0  0  0  0  0  0
  155.0327  138.7940  157.6801 N   0  0  0  0  0  0  0  0  0  0  0  0
  154.3331  137.9374  156.8549 N   0  0  0  0  0  0  0  0  0  0  0  0
  153.3643  137.4468  157.6259 C   0  0  0  0  0  0  0  0  0  0  0  0
  153.3569  137.9016  158.8876 N   0  0  0  0  0  0  0  0  0  0  0  0
  152.4532  137.5499  159.9653 C   0  0  0  0  0  0  0  0  0  0  0  0
  151.2080  144.3096  159.2851 C   0  0  0  0  0  0  0  0  0  0  0  0
  152.1530  145.4192  159.7271 C   0  0  0  0  0  0  0  0  0  0  0  0
  149.7709  144.7561  159.5081 C   0  0  0  0  0  0  0  0  0  0  0  0
  148.3173  141.1346  155.9631 H   0  0  0  0  0  0  0  0  0  0  0  0
  149.6111  141.0963  154.7587 H   0  0  0  0  0  0  0  0  0  0  0  0
  148.8227  142.6241  155.1607 H   0  0  0  0  0  0  0  0  0  0  0  0
  151.2341  140.0093  156.5378 H   0  0  0  0  0  0  0  0  0  0  0  0
  149.9233  140.0402  157.7215 H   0  0  0  0  0  0  0  0  0  0  0  0
  151.4611  140.8164  158.0878 H   0  0  0  0  0  0  0  0  0  0  0  0
  150.1573  143.9804  156.5350 H   0  0  0  0  0  0  0  0  0  0  0  0
  152.5841  143.6203  157.6597 H   0  0  0  0  0  0  0  0  0  0  0  0
  150.6639  142.1854  159.6685 H   0  0  0  0  0  0  0  0  0  0  0  0
  153.2073  141.3198  158.5205 H   0  0  0  0  0  0  0  0  0  0  0  0
  155.5457  141.3013  159.0195 H   0  0  0  0  0  0  0  0  0  0  0  0
  155.2160  141.5933  160.7085 H   0  0  0  0  0  0  0  0  0  0  0  0
  154.1295  139.3570  160.8670 H   0  0  0  0  0  0  0  0  0  0  0  0
  156.1615  137.9863  160.8524 H   0  0  0  0  0  0  0  0  0  0  0  0
  156.4918  139.5899  161.4994 H   0  0  0  0  0  0  0  0  0  0  0  0
  156.9923  139.1823  159.8605 H   0  0  0  0  0  0  0  0  0  0  0  0
  152.6436  136.7299  157.2606 H   0  0  0  0  0  0  0  0  0  0  0  0
  151.6756  136.8785  159.5990 H   0  0  0  0  0  0  0  0  0  0  0  0
  151.9833  138.4481  160.3651 H   0  0  0  0  0  0  0  0  0  0  0  0
  153.0080  137.0515  160.7604 H   0  0  0  0  0  0  0  0  0  0  0  0
  152.1171  145.5359  160.8102 H   0  0  0  0  0  0  0  0  0  0  0  0
  151.8656  146.3655  159.2683 H   0  0  0  0  0  0  0  0  0  0  0  0
  153.1805  145.2125  159.4309 H   0  0  0  0  0  0  0  0  0  0  0  0
  149.6125  145.0126  160.5559 H   0  0  0  0  0  0  0  0  0  0  0  0
  149.0678  143.9658  159.2445 H   0  0  0  0  0  0  0  0  0  0  0  0
  149.5451  145.6302  158.8967 H   0  0  0  0  0  0  0  0  0  0  0  0
  1  2  1  0  0  0  0
  1 22  1  0  0  0  0
  1 23  1  0  0  0  0
  1 24  1  0  0  0  0
  2  3  1  0  0  0  0
  2  4  2  0  0  0  0
  3 25  1  0  0  0  0
  3 26  1  0  0  0  0
  3 27  1  0  0  0  0
  4  5  1  0  0  0  0
  4 28  1  0  0  0  0
  5 19  1  0  0  0  0
  5  6  1  0  0  0  0
  5 29  1  0  0  0  0
  6  7  1  0  0  0  0
  6 19  1  0  0  0  0
  6 30  1  0  0  0  0
  7  8  2  0  0  0  0
  7  9  1  0  0  0  0
  9 10  1  0  0  0  0
  9 31  1  0  0  0  0
 10 11  1  0  0  0  0
 10 32  1  0  0  0  0
 10 33  1  0  0  0  0
 11 12  1  0  0  0  0
 11 13  1  0  0  0  0
 11 34  1  0  0  0  0
 12 35  1  0  0  0  0
 12 36  1  0  0  0  0
 12 37  1  0  0  0  0
 13 17  1  0  0  0  0
 13 14  2  0  0  0  0
 14 15  1  0  0  0  0
 15 16  2  0  0  0  0
 16 17  1  0  0  0  0
 16 38  1  0  0  0  0
 17 18  1  0  0  0  0
 18 39  1  0  0  0  0
 18 40  1  0  0  0  0
 18 41  1  0  0  0  0
 19 20  1  0  0  0  0
 19 21  1  0  0  0  0
 20 42  1  0  0  0  0
 20 43  1  0  0  0  0
 20 44  1  0  0  0  0
 21 45  1  0  0  0  0
 21 46  1  0  0  0  0
 21 47  1  0  0  0  0
M  END
> <s_m_source_file>
AV-unprocessed.smi

> <i_m_source_file_index>
2718

> <i_lp_mmshare_version>
43012

> <i_f3d_flags>
0

> <s_epik_input>
W0NIM11DKFtDSDNdKT1bQ0hdW0NAQEhdKEMxKFtDSDNdKVtDSDNdKVtDQEhdMUMoPU8pW05IXVtDSDJdW0NASF0oW0NIM10pYzJubltjSF1uMltDSDNd

> <s_epik_cmdline>
J2VwaWtfcHl0aG9uJywgJy1waCcsICc3LjAnLCAnLXRuJywgJzgnLCAnLW1hJywgJzIwMCcsICctbWV0YWxfYmluZGluZycsICctaW1hZScsICc8aW5maWxlLm1hZT4nLCAnLW9tYWUnLCAnPG91dGZpbGUubWFlPic=

> <r_lp_tautomer_probability>
1

> <r_epik_Ionization_Penalty>
0.000449586

> <r_epik_Ionization_Penalty_Charging>
0

> <r_epik_Ionization_Penalty_Neutral>
0.000449586

> <r_epik_State_Penalty>
0.000243372

> <r_epik_Charging_Adjusted_Penalty>
0.000243372

> <i_epik_Tot_Q>
0

> <i_epik_Tot_abs_Q>
0

> <r_epik_Metal_State_Penalty>
-0

> <b_epik_Metal_Only>
0

> <s_lp_Force_Field>
OPLS_2005

> <r_lp_Energy>
15.15

> <b_lp_Chiralities_Consistent>
1

> <s_lp_Variant>
AV-unprocessed.smi:2718-1

> <Gold.Version>
5.8.1

> <Gold.Id.Protein>
6NUR|6NUR_protein|mol2

> <Gold.PLP.Fitness>
39.5900

> <Gold.PLP.PLP>
-36.7429

> <Gold.PLP.part.hbond>
-2.0000

> <Gold.PLP.part.metal>
0.0000

> <Gold.PLP.part.buried>
-1.3111

> <Gold.PLP.part.nonpolar>
-33.8763

> <Gold.PLP.part.repulsive>
0.1335

> <Gold.PLP.ligand.clash>
0.0000

> <Gold.PLP.ligand.torsion>
0.2027

> <Gold.PLP.Chemscore.Hbond>
1.0000

> <Gold.PLP.Chemscore.CHOScore>
0.0000

> <Gold.PLP.Chemscore.Metal>
0.0000

> <Gold.Chemscore.Hbonds>
donor molecule, donor type, donor heavy atom, donor atom, acceptor molecule, acceptor atom, score
      P1  H  7997  8009       L1    14  0.23

> <Gold.PLP.Chemscore.Internal.Correction>
0.2526

> <Gold.Rescore>
     Score         DG    S(hbond)    S(metal)    S(lipo)     H(rot)  DE(clash)    DE(int)     intcor
     13.75     -14.11       0.59        0.00      99.62       1.95       0.21       0.15       ----

> <Gold.Chemscore.Fitness>
13.7476

> <Gold.Chemscore.DG>
-14.1118

> <Gold.Chemscore.ZeroCoef>
-5.4800

> <Gold.Chemscore.Hbond>
0.5919

> <Gold.Chemscore.Metal>
0.0000

> <Gold.Chemscore.Lipo>
99.6202

> <Gold.Chemscore.Internal_Hbond>
0.0000

> <Gold.Chemscore.DEClash>
0.2132

> <Gold.Chemscore.DEInternal>
0.1510

> <Gold.Chemscore.Rot>
1.9533

> <Gold.Chemscore.Internal.Correction>
   9.000000E+99

> <Gold.Chemscore.Hbonds>
donor molecule, donor type, donor heavy atom, donor atom, acceptor molecule, acceptor atom, score
      P1  H  7997  8009       L1    14  0.19

> <Gold.Chemscore.Hbond.Weighted>
-1.9768

> <Gold.Chemscore.Metal.Weighted>
-0.0000

> <Gold.Chemscore.Lipo.Weighted>
-11.6556

> <Gold.Chemscore.Internal_Hbond.Weighted>
0.0000

> <Gold.Chemscore.DEClash.Weighted>
0.2132

> <Gold.Chemscore.DEInternal.Weighted>
0.1510

> <Gold.Chemscore.Rot.Weighted>
5.0005

> <Gold.Chemscore.Internal.Correction.Weighted>
   9.000000E+99

> <Gold.Protein.RotatedTorsions>
[ 6907 6896 6895 6894 ] final -116.12 input  -60.11 | X-H torsion
[ 7974 7965 7964 7962 ] final  144.79 input  175.53 | X-H torsion
[ 8008 7997 7996 7995 ] final  108.03 input   59.86 | X-H torsion
[ 10167 10162 10161 10158 ] final  -43.67 input  -65.29 | X-H torsion
[ 10718 10713 10712 10709 ] final  164.98 input   66.30 | X-H torsion
[ 10763 10752 10751 10750 ] final  116.68 input  -60.55 | X-H torsion
[ 11005 11000 10999 10996 ] final  125.40 input  -57.11 | X-H torsion

> <Gold.Protein.ActiveResidues>
 VAL166  LYS551  ARG553  GLY616  TRP617  ASP618  TYR619  PRO620  LYS621  CYS622 
 ASP623  PHE694  ASN695  SER759  ASP760  ASP761  ALA762  ILE779  LEU786  VAL792 
 PHE793  MET794  SER795  GLU796  ALA797  LYS798  CYS799  TRP800  GLU811  SER814 

> <Gold.Protein.RotatedAtoms>
  150.8031  133.8562  159.3218 H   0  0  0  0  0  0  0  0  0  0  0  0  # atno 6907 bound_to 6896
  151.6368  135.1015  160.0142 H   0  0  0  0  0  0  0  0  0  0  0  0  # atno 6908 bound_to 6896
  152.4120  133.6938  159.6441 H   0  0  0  0  0  0  0  0  0  0  0  0  # atno 6909 bound_to 6896
  144.8806  139.5704  143.5844 H   0  0  0  0  0  0  0  0  0  0  0  0  # atno 7974 bound_to 7965
  156.1871  140.3084  155.9259 H   0  0  0  0  0  0  0  0  0  0  0  0  # atno 8008 bound_to 7997
  155.3257  140.0458  157.3058 H   0  0  0  0  0  0  0  0  0  0  0  0  # atno 8009 bound_to 7997
  154.5408  140.2261  155.8654 H   0  0  0  0  0  0  0  0  0  0  0  0  # atno 8010 bound_to 7997
  140.6925  143.2970  151.3385 H   0  0  0  0  0  0  0  0  0  0  0  0  # atno 10167 bound_to 10162
  157.0867  131.0407  151.2553 H   0  0  0  0  0  0  0  0  0  0  0  0  # atno 10718 bound_to 10713
  153.5409  135.3559  155.2718 H   0  0  0  0  0  0  0  0  0  0  0  0  # atno 10763 bound_to 10752
  154.8717  135.4091  154.3044 H   0  0  0  0  0  0  0  0  0  0  0  0  # atno 10764 bound_to 10752
  153.3752  135.7066  153.6676 H   0  0  0  0  0  0  0  0  0  0  0  0  # atno 10765 bound_to 10752
  139.9405  134.9636  156.8553 H   0  0  0  0  0  0  0  0  0  0  0  0  # atno 11005 bound_to 11000
  146.2992  139.7373  142.9104 LP  0  0  0  0  0  0  0  0  0  0  0  0  # atno 17320 bound_to 7965
  145.3960  141.0379  143.3097 LP  0  0  0  0  0  0  0  0  0  0  0  0  # atno 17321 bound_to 7965
  139.6343  144.0660  152.2503 LP  0  0  0  0  0  0  0  0  0  0  0  0  # atno 17342 bound_to 10162
  140.0145  144.6199  150.7619 LP  0  0  0  0  0  0  0  0  0  0  0  0  # atno 17343 bound_to 10162
  157.4755  130.7734  149.7364 LP  0  0  0  0  0  0  0  0  0  0  0  0  # atno 17370 bound_to 10713
  155.9909  130.3941  150.3009 LP  0  0  0  0  0  0  0  0  0  0  0  0  # atno 17371 bound_to 10713
  140.5965  134.0213  155.7520 LP  0  0  0  0  0  0  0  0  0  0  0  0  # atno 17394 bound_to 11000
  141.1037  133.9727  157.3034 LP  0  0  0  0  0  0  0  0  0  0  0  0  # atno 17395 bound_to 11000

$$$$
