AV-unprocessed.smi:1738|AV-procd|sdf|7001|dock2
  -GOLD-   22720 8213D 1   1.00000     0.00000
 Structure written by MMmdl.
 46 48  0  0  0  0  0  0  0  0  2 V2000
  150.1283  140.6236  157.9580 C   0  0  0  0  0  0  0  0  0  0  0  0
  151.3923  140.1901  156.6940 S   0  0  0  0  0  0  0  0  0  0  0  0
  151.2726  141.1530  155.5879 O   0  0  0  0  0  0  0  0  0  0  0  0
  152.6860  140.0220  157.3738 O   0  0  0  0  0  0  0  0  0  0  0  0
  150.8691  138.5849  156.1014 C   0  0  0  0  0  0  0  0  0  0  0  0
  151.3339  137.4078  156.7212 C   0  0  0  0  0  0  0  0  0  0  0  0
  150.9268  136.1702  156.1877 C   0  0  0  0  0  0  0  0  0  0  0  0
  150.0834  136.1581  155.0483 C   0  0  0  0  0  0  0  0  0  0  0  0
  149.5958  134.9863  154.4053 N   0  0  0  0  0  0  0  0  0  0  0  0
  149.1697  133.8300  154.9424 C   0  0  0  0  0  0  0  0  0  0  0  0
  149.0889  133.5821  156.1443 O   0  0  0  0  0  0  0  0  0  0  0  0
  148.8297  132.9521  153.9874 N   0  0  0  0  0  0  0  0  0  0  0  0
  148.3505  131.5913  154.2257 C   0  0  2  0  0  0  0  0  0  0  0  0
  149.4073  130.5146  153.9149 C   0  0  0  0  0  0  0  0  0  0  0  0
  148.6169  129.3797  153.2556 C   0  0  0  0  0  0  0  0  0  0  0  0
  147.5707  130.0975  152.5182 N   0  3  1  0  0  0  0  0  0  0  0  0
  146.4533  129.3256  151.9381 C   0  0  0  0  0  0  0  0  0  0  0  0
  145.6119  130.2762  151.0587 C   0  0  0  0  0  0  0  0  0  0  0  0
  145.1856  131.5548  151.8163 C   0  0  0  0  0  0  0  0  0  0  0  0
  146.3823  132.2386  152.5133 C   0  0  0  0  0  0  0  0  0  0  0  0
  147.1142  131.2000  153.3819 C   0  0  2  0  0  0  0  0  0  0  0  0
  149.6879  137.4025  154.5112 C   0  0  0  0  0  0  0  0  0  0  0  0
  150.0720  138.5946  155.0127 N   0  0  0  0  0  0  0  0  0  0  0  0
  150.3585  141.6012  158.3804 H   0  0  0  0  0  0  0  0  0  0  0  0
  150.1346  139.8756  158.7506 H   0  0  0  0  0  0  0  0  0  0  0  0
  149.1433  140.6511  157.4929 H   0  0  0  0  0  0  0  0  0  0  0  0
  151.9832  137.4455  157.5833 H   0  0  0  0  0  0  0  0  0  0  0  0
  151.2711  135.2689  156.6680 H   0  0  0  0  0  0  0  0  0  0  0  0
  149.6119  135.0194  153.3964 H   0  0  0  0  0  0  0  0  0  0  0  0
  148.9248  133.2401  153.0245 H   0  0  0  0  0  0  0  0  0  0  0  0
  148.0851  131.4924  155.2804 H   0  0  0  0  0  0  0  0  0  0  0  0
  150.1429  130.8984  153.2061 H   0  0  0  0  0  0  0  0  0  0  0  0
  149.9472  130.1858  154.8035 H   0  0  0  0  0  0  0  0  0  0  0  0
  149.2321  128.7635  152.5990 H   0  0  0  0  0  0  0  0  0  0  0  0
  148.1620  128.7377  154.0117 H   0  0  0  0  0  0  0  0  0  0  0  0
  146.8449  128.5049  151.3365 H   0  0  0  0  0  0  0  0  0  0  0  0
  145.8466  128.8872  152.7317 H   0  0  0  0  0  0  0  0  0  0  0  0
  146.1964  130.5618  150.1832 H   0  0  0  0  0  0  0  0  0  0  0  0
  144.7319  129.7553  150.6804 H   0  0  0  0  0  0  0  0  0  0  0  0
  144.7031  132.2521  151.1309 H   0  0  0  0  0  0  0  0  0  0  0  0
  144.4366  131.2934  152.5646 H   0  0  0  0  0  0  0  0  0  0  0  0
  147.0600  132.6578  151.7683 H   0  0  0  0  0  0  0  0  0  0  0  0
  146.0261  133.0683  153.1243 H   0  0  0  0  0  0  0  0  0  0  0  0
  146.3882  130.7859  154.0851 H   0  0  0  0  0  0  0  0  0  0  0  0
  149.0447  137.4440  153.6442 H   0  0  0  0  0  0  0  0  0  0  0  0
  148.0464  130.5346  151.7419 H   0  0  0  0  0  0  0  0  0  0  0  0
  1  2  1  0  0  0  0
  1 24  1  0  0  0  0
  1 25  1  0  0  0  0
  1 26  1  0  0  0  0
  2  3  2  0  0  0  0
  2  4  2  0  0  0  0
  2  5  1  0  0  0  0
  5 23  1  0  0  0  0
  5  6  2  0  0  0  0
  6  7  1  0  0  0  0
  6 27  1  0  0  0  0
  7  8  2  0  0  0  0
  7 28  1  0  0  0  0
  8  9  1  0  0  0  0
  8 22  1  0  0  0  0
  9 10  1  0  0  0  0
  9 29  1  0  0  0  0
 10 11  2  0  0  0  0
 10 12  1  0  0  0  0
 12 13  1  0  0  0  0
 12 30  1  0  0  0  0
 13 21  1  0  0  0  0
 13 14  1  0  0  0  0
 13 31  1  0  0  0  0
 14 15  1  0  0  0  0
 14 32  1  0  0  0  0
 14 33  1  0  0  0  0
 15 16  1  0  0  0  0
 15 34  1  0  0  0  0
 15 35  1  0  0  0  0
 16 21  1  0  0  0  0
 16 17  1  0  0  0  0
 16 46  1  0  0  0  0
 17 18  1  0  0  0  0
 17 36  1  0  0  0  0
 17 37  1  0  0  0  0
 18 19  1  0  0  0  0
 18 38  1  0  0  0  0
 18 39  1  0  0  0  0
 19 20  1  0  0  0  0
 19 40  1  0  0  0  0
 19 41  1  0  0  0  0
 20 21  1  0  0  0  0
 20 42  1  0  0  0  0
 20 43  1  0  0  0  0
 21 44  1  0  0  0  0
 22 23  2  0  0  0  0
 22 45  1  0  0  0  0
M  CHG  1  16   1
M  END
> <s_m_source_file>
AV-unprocessed.smi

> <i_m_source_file_index>
1738

> <i_lp_mmshare_version>
43012

> <i_f3d_flags>
0

> <s_epik_input>
W0NIM11TKD1PKSg9TyljMVtjSF1bY0hdYyhbY0hdbjEpW05IXUMoPU8pW05IXVtDQEhdKFtDSDJdW0NIMl0yKVtDQEBIXShOMjMpW0NIMl1bQ0gyXVtDSDJdW0NIMl0z

> <s_epik_cmdline>
J2VwaWtfcHl0aG9uJywgJy1waCcsICc3LjAnLCAnLXRuJywgJzgnLCAnLW1hJywgJzIwMCcsICctbWV0YWxfYmluZGluZycsICctaW1hZScsICc8aW5maWxlLm1hZT4nLCAnLW9tYWUnLCAnPG91dGZpbGUubWFlPic=

> <r_epik_Ionization_Penalty>
0.00100042

> <r_epik_Ionization_Penalty_Charging>
0.000974069

> <r_epik_Ionization_Penalty_Neutral>
2.63543e-05

> <r_epik_State_Penalty>
0.000633842

> <r_epik_Charging_Adjusted_Penalty>
0.00160791

> <i_epik_Tot_Q>
1

> <i_epik_Tot_abs_Q>
1

> <r_epik_Metal_State_Penalty>
-0

> <b_epik_Metal_Only>
0

> <s_lp_Force_Field>
OPLS_2005

> <r_lp_Energy>
43.1351

> <b_lp_Chiralities_Consistent>
1

> <s_lp_Variant>
AV-unprocessed.smi:1738-5

> <Gold.Version>
5.8.1

> <Gold.Id.Protein>
6NUR|6NUR_protein|mol2

> <Gold.PLP.Fitness>
38.8517

> <Gold.PLP.PLP>
-28.5297

> <Gold.PLP.part.hbond>
-4.0000

> <Gold.PLP.part.metal>
0.0000

> <Gold.PLP.part.buried>
-1.4324

> <Gold.PLP.part.nonpolar>
-21.6077

> <Gold.PLP.part.repulsive>
0.2054

> <Gold.PLP.ligand.clash>
0.0000

> <Gold.PLP.ligand.torsion>
1.4857

> <Gold.PLP.Chemscore.Hbond>
2.7578

> <Gold.PLP.Chemscore.CHOScore>
1.0000

> <Gold.PLP.Chemscore.Metal>
0.0000

> <Gold.Chemscore.Hbonds>
donor molecule, donor type, donor heavy atom, donor atom, acceptor molecule, acceptor atom, score
      L1  H     9    29       P1  7948  0.33
      L1  H    16    46       P1 10747  1.00
      P1  H  7989  7998       L1     3  0.44
      P1  H  7997  8009       L1     4  1.00
      L1  C    22    45       P1  7948  1.00

> <Gold.PLP.Chemscore.Internal.Correction>
2.0199

> <Gold.Rescore>
     Score         DG    S(hbond)    S(metal)    S(lipo)     H(rot)  DE(clash)    DE(int)     intcor
     18.01     -20.23       2.55        0.00      75.05       1.00       0.76       1.46       ----

> <Gold.Chemscore.Fitness>
18.0080

> <Gold.Chemscore.DG>
-20.2289

> <Gold.Chemscore.ZeroCoef>
-5.4800

> <Gold.Chemscore.Hbond>
2.5535

> <Gold.Chemscore.Metal>
0.0000

> <Gold.Chemscore.Lipo>
75.0453

> <Gold.Chemscore.Internal_Hbond>
0.0000

> <Gold.Chemscore.DEClash>
0.7593

> <Gold.Chemscore.DEInternal>
1.4615

> <Gold.Chemscore.Rot>
1.0000

> <Gold.Chemscore.Internal.Correction>
   9.000000E+99

> <Gold.Chemscore.Hbonds>
donor molecule, donor type, donor heavy atom, donor atom, acceptor molecule, acceptor atom, score
      L1  H     9    29       P1  7948  0.01
      L1  H    16    46       P1 10747  1.00
      P1  H  7989  7998       L1     3  0.43
      P1  H  7997  8009       L1     4  0.97

> <Gold.Chemscore.Hbond.Weighted>
-8.5286

> <Gold.Chemscore.Metal.Weighted>
-0.0000

> <Gold.Chemscore.Lipo.Weighted>
-8.7803

> <Gold.Chemscore.Internal_Hbond.Weighted>
0.0000

> <Gold.Chemscore.DEClash.Weighted>
0.7593

> <Gold.Chemscore.DEInternal.Weighted>
1.4615

> <Gold.Chemscore.Rot.Weighted>
2.5600

> <Gold.Chemscore.Internal.Correction.Weighted>
   9.000000E+99

> <Gold.Protein.RotatedTorsions>
[ 6907 6896 6895 6894 ] final   25.23 input  -60.11 | X-H torsion
[ 7974 7965 7964 7962 ] final   41.61 input  175.53 | X-H torsion
[ 8008 7997 7996 7995 ] final  166.11 input   59.86 | X-H torsion
[ 10167 10162 10161 10158 ] final -169.35 input  -65.29 | X-H torsion
[ 10718 10713 10712 10709 ] final  -89.57 input   66.30 | X-H torsion
[ 10763 10752 10751 10750 ] final -139.54 input  -60.55 | X-H torsion
[ 11005 11000 10999 10996 ] final  -28.66 input  -57.11 | X-H torsion

> <Gold.Protein.ActiveResidues>
 VAL166  LYS551  ARG553  GLY616  TRP617  ASP618  TYR619  PRO620  LYS621  CYS622 
 ASP623  PHE694  ASN695  SER759  ASP760  ASP761  ALA762  ILE779  LEU786  VAL792 
 PHE793  MET794  SER795  GLU796  ALA797  LYS798  CYS799  TRP800  GLU811  SER814 

> <Gold.Protein.RotatedAtoms>
  151.9694  135.0084  160.0551 H   0  0  0  0  0  0  0  0  0  0  0  0  # atno 6907 bound_to 6896
  152.1797  133.4694  159.4960 H   0  0  0  0  0  0  0  0  0  0  0  0  # atno 6908 bound_to 6896
  150.6915  134.1766  159.4275 H   0  0  0  0  0  0  0  0  0  0  0  0  # atno 6909 bound_to 6896
  146.0809  139.5396  142.9537 H   0  0  0  0  0  0  0  0  0  0  0  0  # atno 7974 bound_to 7965
  156.1745  140.1652  156.8387 H   0  0  0  0  0  0  0  0  0  0  0  0  # atno 8008 bound_to 7997
  154.5292  140.0760  156.8348 H   0  0  0  0  0  0  0  0  0  0  0  0  # atno 8009 bound_to 7997
  155.3442  140.3386  155.4241 H   0  0  0  0  0  0  0  0  0  0  0  0  # atno 8010 bound_to 7997
  139.5928  144.1176  152.1654 H   0  0  0  0  0  0  0  0  0  0  0  0  # atno 10167 bound_to 10162
  155.9985  130.4877  150.5191 H   0  0  0  0  0  0  0  0  0  0  0  0  # atno 10718 bound_to 10713
  154.8606  135.3579  154.5563 H   0  0  0  0  0  0  0  0  0  0  0  0  # atno 10763 bound_to 10752
  153.6179  135.7007  153.5326 H   0  0  0  0  0  0  0  0  0  0  0  0  # atno 10764 bound_to 10752
  153.3153  135.4166  155.1331 H   0  0  0  0  0  0  0  0  0  0  0  0  # atno 10765 bound_to 10752
  140.9228  133.7388  156.0825 H   0  0  0  0  0  0  0  0  0  0  0  0  # atno 11005 bound_to 11000
  145.6219  141.0321  143.1910 LP  0  0  0  0  0  0  0  0  0  0  0  0  # atno 17320 bound_to 7965
  144.7293  139.7777  143.7353 LP  0  0  0  0  0  0  0  0  0  0  0  0  # atno 17321 bound_to 7965
  140.0754  144.5745  150.7161 LP  0  0  0  0  0  0  0  0  0  0  0  0  # atno 17342 bound_to 10162
  140.7187  143.2568  151.4349 LP  0  0  0  0  0  0  0  0  0  0  0  0  # atno 17343 bound_to 10162
  157.3154  131.0672  151.1970 LP  0  0  0  0  0  0  0  0  0  0  0  0  # atno 17370 bound_to 10713
  157.2902  130.6792  149.6110 LP  0  0  0  0  0  0  0  0  0  0  0  0  # atno 17371 bound_to 10713
  140.7965  134.3558  157.5451 LP  0  0  0  0  0  0  0  0  0  0  0  0  # atno 17394 bound_to 11000
  139.8779  134.9172  156.3173 LP  0  0  0  0  0  0  0  0  0  0  0  0  # atno 17395 bound_to 11000

$$$$
