AV-unprocessed.smi:38|AV-procd|sdf|345|dock2
  -GOLD-   2262016183D 1   1.00000     0.00000
 Structure written by MMmdl.
 27 28  0  0  0  0  0  0  0  0  2 V2000
  153.0099  141.1497  159.2884 O   0  0  0  0  0  0  0  0  0  0  0  0
  152.3535  141.0256  158.2554 C   0  0  0  0  0  0  0  0  0  0  0  0
  152.5657  140.0155  157.3624 N   0  5  0  0  0  0  0  0  0  0  0  0
  151.8384  139.8809  156.2144 C   0  0  0  0  0  0  0  0  0  0  0  0
  152.0065  138.9590  155.4159 O   0  0  0  0  0  0  0  0  0  0  0  0
  150.8318  140.8412  155.9245 N   0  0  0  0  0  0  0  0  0  0  0  0
  150.0092  140.7013  154.6666 C   0  0  1  0  0  0  0  0  0  0  0  0
  149.3177  139.3435  154.6094 C   0  0  0  0  0  0  0  0  0  0  0  0
  148.0298  139.6657  153.8579 C   0  0  1  0  0  0  0  0  0  0  0  0
  146.9192  139.1149  154.5418 O   0  0  0  0  0  0  0  0  0  0  0  0
  148.0037  141.2092  153.7490 C   0  0  1  0  0  0  0  0  0  0  0  0
  146.6559  141.8907  154.0508 C   0  0  0  0  0  0  0  0  0  0  0  0
  146.8184  143.2924  154.0962 O   0  0  0  0  0  0  0  0  0  0  0  0
  148.9881  141.6423  154.6787 O   0  0  0  0  0  0  0  0  0  0  0  0
  150.5800  141.8654  156.8215 C   0  0  0  0  0  0  0  0  0  0  0  0
  151.2954  141.9897  157.9579 C   0  0  0  0  0  0  0  0  0  0  0  0
  151.0277  142.9933  158.8114 F   0  0  0  0  0  0  0  0  0  0  0  0
  150.6649  140.9015  153.8169 H   0  0  0  0  0  0  0  0  0  0  0  0
  148.0565  139.2313  152.8580 H   0  0  0  0  0  0  0  0  0  0  0  0
  148.3412  141.4808  152.7466 H   0  0  0  0  0  0  0  0  0  0  0  0
  149.9489  138.6090  154.1081 H   0  0  0  0  0  0  0  0  0  0  0  0
  149.1118  138.9999  155.6251 H   0  0  0  0  0  0  0  0  0  0  0  0
  146.1490  139.6132  154.3149 H   0  0  0  0  0  0  0  0  0  0  0  0
  145.9374  141.6823  153.2580 H   0  0  0  0  0  0  0  0  0  0  0  0
  146.2283  141.5268  154.9857 H   0  0  0  0  0  0  0  0  0  0  0  0
  147.6274  143.4865  154.5442 H   0  0  0  0  0  0  0  0  0  0  0  0
  149.7943  142.5781  156.6189 H   0  0  0  0  0  0  0  0  0  0  0  0
  1  2  2  0  0  0  0
  2 16  1  0  0  0  0
  2  3  1  0  0  0  0
  3  4  1  0  0  0  0
  4  5  2  0  0  0  0
  4  6  1  0  0  0  0
  6  7  1  0  0  0  0
  6 15  1  0  0  0  0
  7 18  1  0  0  0  0
  7 14  1  0  0  0  0
  7  8  1  0  0  0  0
  8  9  1  0  0  0  0
  8 21  1  0  0  0  0
  8 22  1  0  0  0  0
  9 19  1  0  0  0  0
  9 10  1  0  0  0  0
  9 11  1  0  0  0  0
 10 23  1  0  0  0  0
 11 20  1  0  0  0  0
 11 12  1  0  0  0  0
 11 14  1  0  0  0  0
 12 13  1  0  0  0  0
 12 24  1  0  0  0  0
 12 25  1  0  0  0  0
 13 26  1  0  0  0  0
 15 16  2  0  0  0  0
 15 27  1  0  0  0  0
 16 17  1  0  0  0  0
M  CHG  1   3  -1
M  END
> <s_m_source_file>
AV-unprocessed.smi

> <i_m_source_file_index>
38

> <i_lp_mmshare_version>
43012

> <i_f3d_flags>
0

> <s_epik_input>
Tz1jMVtuSF1jKD1PKW4oW2NIXWMxRilbQ0BIXTJbQ0gyXVtDQEhdKFtPSF0pW0NASF0oTzIpW0NIMl1bT0hd

> <s_epik_cmdline>
J2VwaWtfcHl0aG9uJywgJy1waCcsICc3LjAnLCAnLXRuJywgJzgnLCAnLW1hJywgJzIwMCcsICctbWV0YWxfYmluZGluZycsICctaW1hZScsICc8aW5maWxlLm1hZT4nLCAnLW9tYWUnLCAnPG91dGZpbGUubWFlPic=

> <r_epik_Ionization_Penalty>
1.68146

> <r_epik_Ionization_Penalty_Charging>
3.4211e-08

> <r_epik_Ionization_Penalty_Neutral>
1.68146

> <r_epik_State_Penalty>
1.78593

> <r_epik_Charging_Adjusted_Penalty>
1.78593

> <i_epik_Tot_Q>
-1

> <i_epik_Tot_abs_Q>
1

> <r_epik_Metal_State_Penalty>
0.0113696

> <b_epik_Metal_Only>
0

> <s_epik_Chemistry_Notes>
This compound contains an acetal/aminal-like group ( X-CH(R)-Y where X, Y are N, S, or O) that may be acid/base labile, releasing an aldehyde.

> <s_lp_Force_Field>
OPLS_2005

> <r_lp_Energy>
42.0277

> <b_lp_Chiralities_Consistent>
1

> <s_lp_Variant>
AV-unprocessed.smi:38-11

> <Gold.Version>
5.8.1

> <Gold.Id.Protein>
6NUR|6NUR_protein|mol2

> <Gold.PLP.Fitness>
40.2824

> <Gold.PLP.PLP>
-28.4373

> <Gold.PLP.part.hbond>
-3.2039

> <Gold.PLP.part.metal>
0.0000

> <Gold.PLP.part.buried>
-0.7570

> <Gold.PLP.part.nonpolar>
-24.6502

> <Gold.PLP.part.repulsive>
0.1560

> <Gold.PLP.ligand.clash>
0.0000

> <Gold.PLP.ligand.torsion>
0.0751

> <Gold.PLP.Chemscore.Hbond>
2.9913

> <Gold.PLP.Chemscore.CHOScore>
1.0000

> <Gold.PLP.Chemscore.Metal>
0.0000

> <Gold.Chemscore.Hbonds>
donor molecule, donor type, donor heavy atom, donor atom, acceptor molecule, acceptor atom, score
      L1  H    13    26       P1  8028  0.99
      P1  H  7997  8009       L1     3  2.00
      L1  C    15    27       P1  8028  1.00

> <Gold.PLP.Chemscore.Internal.Correction>
0.0216

> <Gold.Rescore>
     Score         DG    S(hbond)    S(metal)    S(lipo)     H(rot)  DE(clash)    DE(int)     intcor
      3.69      -5.06       0.83        0.00      35.93       2.88       0.23       1.14       ----

> <Gold.Chemscore.Fitness>
3.6883

> <Gold.Chemscore.DG>
-5.0631

> <Gold.Chemscore.ZeroCoef>
-5.4800

> <Gold.Chemscore.Hbond>
0.8252

> <Gold.Chemscore.Metal>
0.0000

> <Gold.Chemscore.Lipo>
35.9266

> <Gold.Chemscore.Internal_Hbond>
0.0000

> <Gold.Chemscore.DEClash>
0.2332

> <Gold.Chemscore.DEInternal>
1.1416

> <Gold.Chemscore.Rot>
2.8815

> <Gold.Chemscore.Internal.Correction>
   9.000000E+99

> <Gold.Chemscore.Hbonds>
donor molecule, donor type, donor heavy atom, donor atom, acceptor molecule, acceptor atom, score
      L1  H    13    26       P1  8028  0.35
      P1  H  7997  8009       L1     3  0.23

> <Gold.Chemscore.Hbond.Weighted>
-2.7562

> <Gold.Chemscore.Metal.Weighted>
-0.0000

> <Gold.Chemscore.Lipo.Weighted>
-4.2034

> <Gold.Chemscore.Internal_Hbond.Weighted>
0.0000

> <Gold.Chemscore.DEClash.Weighted>
0.2332

> <Gold.Chemscore.DEInternal.Weighted>
1.1416

> <Gold.Chemscore.Rot.Weighted>
7.3765

> <Gold.Chemscore.Internal.Correction.Weighted>
   9.000000E+99

> <Gold.Protein.RotatedTorsions>
[ 6907 6896 6895 6894 ] final  153.12 input  -60.11 | X-H torsion
[ 7974 7965 7964 7962 ] final   16.54 input  175.53 | X-H torsion
[ 8008 7997 7996 7995 ] final -179.79 input   59.86 | X-H torsion
[ 10167 10162 10161 10158 ] final  -52.46 input  -65.29 | X-H torsion
[ 10718 10713 10712 10709 ] final -149.00 input   66.30 | X-H torsion
[ 10763 10752 10751 10750 ] final  111.34 input  -60.55 | X-H torsion
[ 11005 11000 10999 10996 ] final   10.28 input  -57.11 | X-H torsion

> <Gold.Protein.ActiveResidues>
 VAL166  LYS551  ARG553  GLY616  TRP617  ASP618  TYR619  PRO620  LYS621  CYS622 
 ASP623  PHE694  ASN695  SER759  ASP760  ASP761  ALA762  ILE779  LEU786  VAL792 
 PHE793  MET794  SER795  GLU796  ALA797  LYS798  CYS799  TRP800  GLU811  SER814 

> <Gold.Protein.RotatedAtoms>
  152.0772  133.4135  159.4484 H   0  0  0  0  0  0  0  0  0  0  0  0  # atno 6907 bound_to 6896
  150.6862  134.3024  159.4721 H   0  0  0  0  0  0  0  0  0  0  0  0  # atno 6908 bound_to 6896
  152.0862  134.9437  160.0623 H   0  0  0  0  0  0  0  0  0  0  0  0  # atno 6909 bound_to 6896
  146.2246  139.8732  142.8583 H   0  0  0  0  0  0  0  0  0  0  0  0  # atno 7974 bound_to 7965
  156.0345  140.1289  157.0222 H   0  0  0  0  0  0  0  0  0  0  0  0  # atno 8008 bound_to 7997
  154.4364  140.1042  156.6218 H   0  0  0  0  0  0  0  0  0  0  0  0  # atno 8009 bound_to 7997
  155.5757  140.3467  155.4529 H   0  0  0  0  0  0  0  0  0  0  0  0  # atno 8010 bound_to 7997
  140.6536  143.2583  151.4651 H   0  0  0  0  0  0  0  0  0  0  0  0  # atno 10167 bound_to 10162
  156.4275  130.8059  151.2285 H   0  0  0  0  0  0  0  0  0  0  0  0  # atno 10718 bound_to 10713
  153.4620  135.3720  155.2343 H   0  0  0  0  0  0  0  0  0  0  0  0  # atno 10763 bound_to 10752
  154.8757  135.3911  154.3914 H   0  0  0  0  0  0  0  0  0  0  0  0  # atno 10764 bound_to 10752
  153.4489  135.7085  153.6186 H   0  0  0  0  0  0  0  0  0  0  0  0  # atno 10765 bound_to 10752
  140.5162  134.0603  155.7832 H   0  0  0  0  0  0  0  0  0  0  0  0  # atno 11005 bound_to 11000
  145.2587  141.0069  143.3839 LP  0  0  0  0  0  0  0  0  0  0  0  0  # atno 17320 bound_to 7965
  144.9316  139.4292  143.6492 LP  0  0  0  0  0  0  0  0  0  0  0  0  # atno 17321 bound_to 7965
  139.5755  144.1829  152.1897 LP  0  0  0  0  0  0  0  0  0  0  0  0  # atno 17342 bound_to 10162
  140.1138  144.5433  150.6907 LP  0  0  0  0  0  0  0  0  0  0  0  0  # atno 17343 bound_to 10162
  157.7508  131.0208  150.3726 LP  0  0  0  0  0  0  0  0  0  0  0  0  # atno 17370 bound_to 10713
  156.4056  130.3924  149.6928 LP  0  0  0  0  0  0  0  0  0  0  0  0  # atno 17371 bound_to 10713
  141.1359  133.9223  157.2435 LP  0  0  0  0  0  0  0  0  0  0  0  0  # atno 17394 bound_to 11000
  139.9631  135.0149  156.9314 LP  0  0  0  0  0  0  0  0  0  0  0  0  # atno 17395 bound_to 11000

$$$$
