AV-unprocessed.smi:915|AV-procd|sdf|4156|dock5
  -GOLD-   22720 2 63D 1   1.00000     0.00000
 Structure written by MMmdl.
 33 34  0  0  0  0  0  0  0  0  2 V2000
  147.6611  140.4338  153.3771 C   0  0  0  0  0  0  0  0  0  0  0  0
  148.7098  141.0521  154.3088 C   0  0  0  0  0  0  0  0  0  0  0  0
  149.8706  140.1353  154.5486 C   0  0  0  0  0  0  0  0  0  0  0  0
  150.1866  139.0039  153.8422 C   0  0  0  0  0  0  0  0  0  0  0  0
  151.6187  138.2358  154.4651 S   0  0  0  0  0  0  0  0  0  0  0  0
  151.7544  139.5037  155.6855 C   0  0  0  0  0  0  0  0  0  0  0  0
  152.7184  139.5734  156.6178 N   0  5  0  0  0  0  0  0  0  0  0  0
  152.3867  139.6474  157.9269 C   0  0  0  0  0  0  0  0  0  0  0  0
  151.4281  139.0936  158.4701 O   0  0  0  0  0  0  0  0  0  0  0  0
  153.2135  140.4147  158.6512 N   0  0  0  0  0  0  0  0  0  0  0  0
  153.0903  140.6908  160.0792 C   0  0  0  0  0  0  0  0  0  0  0  0
  153.2640  142.1871  160.4008 C   0  0  2  0  0  0  0  0  0  0  0  0
  152.5636  142.6333  161.6926 C   0  0  0  0  0  0  0  0  0  0  0  0
  152.3817  144.1481  161.5943 C   0  0  0  0  0  0  0  0  0  0  0  0
  151.8511  144.4298  160.1877 C   0  0  0  0  0  0  0  0  0  0  0  0
  152.6306  143.2401  159.0657 S   0  0  0  0  0  0  0  0  0  0  0  0
  150.7638  140.3976  155.5908 N   0  0  0  0  0  0  0  0  0  0  0  0
  146.8303  141.1209  153.2165 H   0  0  0  0  0  0  0  0  0  0  0  0
  147.2555  139.5126  153.7969 H   0  0  0  0  0  0  0  0  0  0  0  0
  148.0922  140.1972  152.4038 H   0  0  0  0  0  0  0  0  0  0  0  0
  149.0589  141.9925  153.8812 H   0  0  0  0  0  0  0  0  0  0  0  0
  148.2391  141.3123  155.2577 H   0  0  0  0  0  0  0  0  0  0  0  0
  149.6667  138.5762  152.9985 H   0  0  0  0  0  0  0  0  0  0  0  0
  153.9869  140.8465  158.1673 H   0  0  0  0  0  0  0  0  0  0  0  0
  152.1252  140.3338  160.4417 H   0  0  0  0  0  0  0  0  0  0  0  0
  153.8491  140.1074  160.6014 H   0  0  0  0  0  0  0  0  0  0  0  0
  154.3259  142.4195  160.4912 H   0  0  0  0  0  0  0  0  0  0  0  0
  151.5853  142.1569  161.7710 H   0  0  0  0  0  0  0  0  0  0  0  0
  153.1330  142.3514  162.5790 H   0  0  0  0  0  0  0  0  0  0  0  0
  151.7116  144.5301  162.3648 H   0  0  0  0  0  0  0  0  0  0  0  0
  153.3464  144.6393  161.7285 H   0  0  0  0  0  0  0  0  0  0  0  0
  150.7729  144.2709  160.1558 H   0  0  0  0  0  0  0  0  0  0  0  0
  152.0471  145.4545  159.8710 H   0  0  0  0  0  0  0  0  0  0  0  0
  1  2  1  0  0  0  0
  1 18  1  0  0  0  0
  1 19  1  0  0  0  0
  1 20  1  0  0  0  0
  2  3  1  0  0  0  0
  2 21  1  0  0  0  0
  2 22  1  0  0  0  0
  3 17  1  0  0  0  0
  3  4  2  0  0  0  0
  4  5  1  0  0  0  0
  4 23  1  0  0  0  0
  5  6  1  0  0  0  0
  6  7  1  0  0  0  0
  6 17  2  0  0  0  0
  7  8  1  0  0  0  0
  8  9  2  0  0  0  0
  8 10  1  0  0  0  0
 10 11  1  0  0  0  0
 10 24  1  0  0  0  0
 11 12  1  0  0  0  0
 11 25  1  0  0  0  0
 11 26  1  0  0  0  0
 12 16  1  0  0  0  0
 12 13  1  0  0  0  0
 12 27  1  0  0  0  0
 13 14  1  0  0  0  0
 13 28  1  0  0  0  0
 13 29  1  0  0  0  0
 14 15  1  0  0  0  0
 14 30  1  0  0  0  0
 14 31  1  0  0  0  0
 15 16  1  0  0  0  0
 15 32  1  0  0  0  0
 15 33  1  0  0  0  0
M  CHG  1   7  -1
M  END
> <s_m_source_file>
AV-unprocessed.smi

> <i_m_source_file_index>
915

> <i_lp_mmshare_version>
43012

> <i_f3d_flags>
0

> <s_epik_input>
W0NIM11bQ0gyXWMxW2NIXXNjKG4xKVtOSF1DKD1PKVtOSF1bQ0gyXVtDQEBIXTJbQ0gyXVtDSDJdW0NIMl1TMg==

> <s_epik_cmdline>
J2VwaWtfcHl0aG9uJywgJy1waCcsICc3LjAnLCAnLXRuJywgJzgnLCAnLW1hJywgJzIwMCcsICctbWV0YWxfYmluZGluZycsICctaW1hZScsICc8aW5maWxlLm1hZT4nLCAnLW9tYWUnLCAnPG91dGZpbGUubWFlPic=

> <r_lp_tautomer_probability>
0.999

> <r_epik_Ionization_Penalty>
8.73043

> <r_epik_Ionization_Penalty_Charging>
6.79141

> <r_epik_Ionization_Penalty_Neutral>
1.93902

> <r_epik_State_Penalty>
6.79158

> <r_epik_Charging_Adjusted_Penalty>
13.583

> <i_epik_Tot_Q>
-1

> <i_epik_Tot_abs_Q>
1

> <r_epik_Metal_State_Penalty>
2.71141

> <b_epik_Metal_Only>
1

> <s_lp_Force_Field>
OPLS_2005

> <r_lp_Energy>
4.53782

> <b_lp_Chiralities_Consistent>
1

> <s_lp_Variant>
AV-unprocessed.smi:915-3

> <Gold.Version>
5.8.1

> <Gold.Id.Protein>
6NUR|6NUR_protein|mol2

> <Gold.PLP.Fitness>
48.8067

> <Gold.PLP.PLP>
-40.6518

> <Gold.PLP.part.hbond>
-1.0000

> <Gold.PLP.part.metal>
0.0000

> <Gold.PLP.part.buried>
-2.4064

> <Gold.PLP.part.nonpolar>
-37.4340

> <Gold.PLP.part.repulsive>
0.7758

> <Gold.PLP.ligand.clash>
0.0000

> <Gold.PLP.ligand.torsion>
1.3083

> <Gold.PLP.Chemscore.Hbond>
2.0000

> <Gold.PLP.Chemscore.CHOScore>
1.5788

> <Gold.PLP.Chemscore.Metal>
0.0000

> <Gold.Chemscore.Hbonds>
donor molecule, donor type, donor heavy atom, donor atom, acceptor molecule, acceptor atom, score
      P1  H  7997  8010       L1     7  2.00
      L1  C     4    23       P1  7948  0.68
      L1  C     4    23       P1  7957  0.66

> <Gold.PLP.Chemscore.Internal.Correction>
0.0351

> <Gold.Rescore>
     Score         DG    S(hbond)    S(metal)    S(lipo)     H(rot)  DE(clash)    DE(int)     intcor
     16.35     -17.77       0.94        0.00     107.16       1.33       0.26       1.15       ----

> <Gold.Chemscore.Fitness>
16.3526

> <Gold.Chemscore.DG>
-17.7676

> <Gold.Chemscore.ZeroCoef>
-5.4800

> <Gold.Chemscore.Hbond>
0.9447

> <Gold.Chemscore.Metal>
0.0000

> <Gold.Chemscore.Lipo>
107.1643

> <Gold.Chemscore.Internal_Hbond>
0.0000

> <Gold.Chemscore.DEClash>
0.2606

> <Gold.Chemscore.DEInternal>
1.1544

> <Gold.Chemscore.Rot>
1.3305

> <Gold.Chemscore.Internal.Correction>
   9.000000E+99

> <Gold.Chemscore.Hbonds>
donor molecule, donor type, donor heavy atom, donor atom, acceptor molecule, acceptor atom, score
      P1  H  7997  8010       L1     7  0.70

> <Gold.Chemscore.Hbond.Weighted>
-3.1555

> <Gold.Chemscore.Metal.Weighted>
-0.0000

> <Gold.Chemscore.Lipo.Weighted>
-12.5382

> <Gold.Chemscore.Internal_Hbond.Weighted>
0.0000

> <Gold.Chemscore.DEClash.Weighted>
0.2606

> <Gold.Chemscore.DEInternal.Weighted>
1.1544

> <Gold.Chemscore.Rot.Weighted>
3.4060

> <Gold.Chemscore.Internal.Correction.Weighted>
   9.000000E+99

> <Gold.Protein.RotatedTorsions>
[ 6907 6896 6895 6894 ] final  129.43 input  -60.11 | X-H torsion
[ 7974 7965 7964 7962 ] final -162.71 input  175.53 | X-H torsion
[ 8008 7997 7996 7995 ] final   73.59 input   59.86 | X-H torsion
[ 10167 10162 10161 10158 ] final  -50.93 input  -65.29 | X-H torsion
[ 10718 10713 10712 10709 ] final    8.34 input   66.30 | X-H torsion
[ 10763 10752 10751 10750 ] final -146.66 input  -60.55 | X-H torsion
[ 11005 11000 10999 10996 ] final -152.74 input  -57.11 | X-H torsion

> <Gold.Protein.ActiveResidues>
 VAL166  LYS551  ARG553  GLY616  TRP617  ASP618  TYR619  PRO620  LYS621  CYS622 
 ASP623  PHE694  ASN695  SER759  ASP760  ASP761  ALA762  ILE779  LEU786  VAL792 
 PHE793  MET794  SER795  GLU796  ALA797  LYS798  CYS799  TRP800  GLU811  SER814 

> <Gold.Protein.RotatedAtoms>
  152.3624  133.6314  159.6024 H   0  0  0  0  0  0  0  0  0  0  0  0  # atno 6907 bound_to 6896
  150.7610  133.9402  159.3462 H   0  0  0  0  0  0  0  0  0  0  0  0  # atno 6908 bound_to 6896
  151.7238  135.0890  160.0340 H   0  0  0  0  0  0  0  0  0  0  0  0  # atno 6909 bound_to 6896
  144.7348  140.3213  143.6170 H   0  0  0  0  0  0  0  0  0  0  0  0  # atno 7974 bound_to 7965
  155.7859  140.3480  155.5322 H   0  0  0  0  0  0  0  0  0  0  0  0  # atno 8008 bound_to 7997
  155.8683  140.0982  157.1588 H   0  0  0  0  0  0  0  0  0  0  0  0  # atno 8009 bound_to 7997
  154.4016  140.1345  156.4033 H   0  0  0  0  0  0  0  0  0  0  0  0  # atno 8010 bound_to 7997
  140.6613  143.2638  151.4431 H   0  0  0  0  0  0  0  0  0  0  0  0  # atno 10167 bound_to 10162
  156.9502  130.5894  149.5656 H   0  0  0  0  0  0  0  0  0  0  0  0  # atno 10718 bound_to 10713
  154.8325  135.3381  154.6696 H   0  0  0  0  0  0  0  0  0  0  0  0  # atno 10763 bound_to 10752
  153.7314  135.6952  153.4993 H   0  0  0  0  0  0  0  0  0  0  0  0  # atno 10764 bound_to 10752
  153.2309  135.4416  155.0546 H   0  0  0  0  0  0  0  0  0  0  0  0  # atno 10765 bound_to 10752
  140.7156  134.3784  157.5191 H   0  0  0  0  0  0  0  0  0  0  0  0  # atno 11005 bound_to 11000
  145.7566  139.1811  143.2291 LP  0  0  0  0  0  0  0  0  0  0  0  0  # atno 17320 bound_to 7965
  146.1019  140.7533  142.9545 LP  0  0  0  0  0  0  0  0  0  0  0  0  # atno 17321 bound_to 7965
  139.5848  144.1629  152.2015 LP  0  0  0  0  0  0  0  0  0  0  0  0  # atno 17342 bound_to 10162
  140.0965  144.5576  150.7018 LP  0  0  0  0  0  0  0  0  0  0  0  0  # atno 17343 bound_to 10162
  156.0366  130.5453  150.8668 LP  0  0  0  0  0  0  0  0  0  0  0  0  # atno 17370 bound_to 10713
  157.5727  131.0946  150.9393 LP  0  0  0  0  0  0  0  0  0  0  0  0  # atno 17371 bound_to 10713
  139.8861  134.8920  156.2606 LP  0  0  0  0  0  0  0  0  0  0  0  0  # atno 17394 bound_to 11000
  141.0047  133.7130  156.1016 LP  0  0  0  0  0  0  0  0  0  0  0  0  # atno 17395 bound_to 11000

$$$$
