AV-unprocessed.smi:3158|AV-procd|sdf|12047|dock1
  -GOLD-   2272017473D 1   1.00000     0.00000
 Structure written by MMmdl.
 39 39  0  0  0  0  0  0  0  0  1 V2000
  145.2820  146.6690  159.2852 C   0  0  0  0  0  0  0  0  0  0  0  0
  146.5095  146.5712  160.2030 C   0  0  0  0  0  0  0  0  0  0  0  0
  146.8751  145.1274  160.5963 C   0  0  2  0  0  0  0  0  0  0  0  0
  148.0737  145.0882  161.5575 C   0  0  0  0  0  0  0  0  0  0  0  0
  147.1627  144.3417  159.3995 N   0  0  0  0  0  0  0  0  0  0  0  0
  146.7494  143.0859  159.1645 C   0  0  0  0  0  0  0  0  0  0  0  0
  146.0891  142.4316  159.9725 O   0  0  0  0  0  0  0  0  0  0  0  0
  147.1385  142.5024  157.7986 C   0  0  1  0  0  0  0  0  0  0  0  0
  146.2067  142.9876  156.6689 C   0  0  0  0  0  0  0  0  0  0  0  0
  148.5448  142.8236  157.5140 N   0  0  0  0  0  0  0  0  0  0  0  0
  149.4222  141.6605  157.5499 C   0  0  0  0  0  0  0  0  0  0  0  0
  150.8373  142.0572  157.0952 C   0  0  0  0  0  0  0  0  0  0  0  0
  151.4650  143.0053  157.9996 N   0  0  0  0  0  0  0  0  0  0  0  0
  151.6144  144.3676  157.8448 C   0  0  0  0  0  0  0  0  0  0  0  0
  152.2592  144.8345  158.9543 C   0  0  0  0  0  0  0  0  0  0  0  0
  152.4671  143.6669  159.7403 C   0  0  0  0  0  0  0  0  0  0  0  0
  151.9933  142.5732  159.1652 N   0  0  0  0  0  0  0  0  0  0  0  0
  145.0442  147.7099  159.0655 H   0  0  0  0  0  0  0  0  0  0  0  0
  144.4057  146.2185  159.7517 H   0  0  0  0  0  0  0  0  0  0  0  0
  145.4517  146.1638  158.3344 H   0  0  0  0  0  0  0  0  0  0  0  0
  147.3609  147.0478  159.7148 H   0  0  0  0  0  0  0  0  0  0  0  0
  146.3153  147.1505  161.1065 H   0  0  0  0  0  0  0  0  0  0  0  0
  146.0132  144.6933  161.1069 H   0  0  0  0  0  0  0  0  0  0  0  0
  147.8693  145.6625  162.4613 H   0  0  0  0  0  0  0  0  0  0  0  0
  148.9688  145.5043  161.0941 H   0  0  0  0  0  0  0  0  0  0  0  0
  148.3014  144.0667  161.8642 H   0  0  0  0  0  0  0  0  0  0  0  0
  147.6966  144.7997  158.6747 H   0  0  0  0  0  0  0  0  0  0  0  0
  147.0312  141.4202  157.8920 H   0  0  0  0  0  0  0  0  0  0  0  0
  145.1593  142.8091  156.9162 H   0  0  0  0  0  0  0  0  0  0  0  0
  146.4022  142.4618  155.7346 H   0  0  0  0  0  0  0  0  0  0  0  0
  146.3268  144.0551  156.4795 H   0  0  0  0  0  0  0  0  0  0  0  0
  148.6476  143.3110  156.6354 H   0  0  0  0  0  0  0  0  0  0  0  0
  149.4590  141.2409  158.5563 H   0  0  0  0  0  0  0  0  0  0  0  0
  149.0341  140.8850  156.8897 H   0  0  0  0  0  0  0  0  0  0  0  0
  151.4704  141.1709  157.0367 H   0  0  0  0  0  0  0  0  0  0  0  0
  150.8128  142.4881  156.0932 H   0  0  0  0  0  0  0  0  0  0  0  0
  151.2488  144.8861  156.9708 H   0  0  0  0  0  0  0  0  0  0  0  0
  152.5374  145.8549  159.1723 H   0  0  0  0  0  0  0  0  0  0  0  0
  152.9456  143.5820  160.7048 H   0  0  0  0  0  0  0  0  0  0  0  0
  1  2  1  0  0  0  0
  1 18  1  0  0  0  0
  1 19  1  0  0  0  0
  1 20  1  0  0  0  0
  2  3  1  0  0  0  0
  2 21  1  0  0  0  0
  2 22  1  0  0  0  0
  3  4  1  0  0  0  0
  3  5  1  0  0  0  0
  3 23  1  0  0  0  0
  4 24  1  0  0  0  0
  4 25  1  0  0  0  0
  4 26  1  0  0  0  0
  5  6  1  0  0  0  0
  5 27  1  0  0  0  0
  6  7  2  0  0  0  0
  6  8  1  0  0  0  0
  8  9  1  0  0  0  0
  8 10  1  0  0  0  0
  8 28  1  0  0  0  0
  9 29  1  0  0  0  0
  9 30  1  0  0  0  0
  9 31  1  0  0  0  0
 10 11  1  0  0  0  0
 10 32  1  0  0  0  0
 11 12  1  0  0  0  0
 11 33  1  0  0  0  0
 11 34  1  0  0  0  0
 12 13  1  0  0  0  0
 12 35  1  0  0  0  0
 12 36  1  0  0  0  0
 13 17  1  0  0  0  0
 13 14  1  0  0  0  0
 14 15  2  0  0  0  0
 14 37  1  0  0  0  0
 15 16  1  0  0  0  0
 15 38  1  0  0  0  0
 16 17  2  0  0  0  0
 16 39  1  0  0  0  0
M  END
> <s_m_source_file>
AV-unprocessed.smi

> <i_m_source_file_index>
3158

> <i_lp_mmshare_version>
43012

> <i_f3d_flags>
0

> <s_epik_input>
W0NIM11bQ0gyXVtDQEhdKFtDSDNdKVtOSF1DKD1PKVtDQEhdKFtDSDNdKVtOSF1bQ0gyXVtDSDJdbjFbY0hdW2NIXVtjSF1uMQ==

> <s_epik_cmdline>
J2VwaWtfcHl0aG9uJywgJy1waCcsICc3LjAnLCAnLXRuJywgJzgnLCAnLW1hJywgJzIwMCcsICctbWV0YWxfYmluZGluZycsICctaW1hZScsICc8aW5maWxlLm1hZT4nLCAnLW9tYWUnLCAnPG91dGZpbGUubWFlPic=

> <r_lp_tautomer_probability>
1

> <r_epik_Ionization_Penalty>
0.724013

> <r_epik_Ionization_Penalty_Charging>
0

> <r_epik_Ionization_Penalty_Neutral>
0.724013

> <r_epik_State_Penalty>
0.74758

> <r_epik_Charging_Adjusted_Penalty>
0.74758

> <i_epik_Tot_Q>
0

> <i_epik_Tot_abs_Q>
0

> <r_epik_Metal_State_Penalty>
0.746846

> <b_epik_Metal_Only>
0

> <s_lp_Force_Field>
OPLS_2005

> <r_lp_Energy>
5.95419

> <b_lp_Chiralities_Consistent>
1

> <s_lp_Variant>
AV-unprocessed.smi:3158-7

> <Gold.Version>
5.8.1

> <Gold.Id.Protein>
6NUR|6NUR_protein|mol2

> <Gold.PLP.Fitness>
47.4767

> <Gold.PLP.PLP>
-38.7007

> <Gold.PLP.part.hbond>
-3.5021

> <Gold.PLP.part.metal>
0.0000

> <Gold.PLP.part.buried>
-4.9706

> <Gold.PLP.part.nonpolar>
-29.5762

> <Gold.PLP.part.repulsive>
0.0896

> <Gold.PLP.ligand.clash>
0.0000

> <Gold.PLP.ligand.torsion>
1.7333

> <Gold.PLP.Chemscore.Hbond>
2.9920

> <Gold.PLP.Chemscore.CHOScore>
1.0000

> <Gold.PLP.Chemscore.Metal>
0.0000

> <Gold.Chemscore.Hbonds>
donor molecule, donor type, donor heavy atom, donor atom, acceptor molecule, acceptor atom, score
      L1  H     5    27       P1  8029  1.00
      L1  H    10    32       P1  8028  1.00
      P1  H  6934  6946       L1     7  1.00
      L1  C    14    37       P1  8028  0.67

> <Gold.PLP.Chemscore.Internal.Correction>
0.2666

> <Gold.Rescore>
     Score         DG    S(hbond)    S(metal)    S(lipo)     H(rot)  DE(clash)    DE(int)     intcor
     16.95     -18.60       2.85        0.00      77.23       2.12       0.02       1.63       ----

> <Gold.Chemscore.Fitness>
16.9460

> <Gold.Chemscore.DG>
-18.6000

> <Gold.Chemscore.ZeroCoef>
-5.4800

> <Gold.Chemscore.Hbond>
2.8503

> <Gold.Chemscore.Metal>
0.0000

> <Gold.Chemscore.Lipo>
77.2310

> <Gold.Chemscore.Internal_Hbond>
0.0000

> <Gold.Chemscore.DEClash>
0.0232

> <Gold.Chemscore.DEInternal>
1.6308

> <Gold.Chemscore.Rot>
2.1234

> <Gold.Chemscore.Internal.Correction>
   9.000000E+99

> <Gold.Chemscore.Hbonds>
donor molecule, donor type, donor heavy atom, donor atom, acceptor molecule, acceptor atom, score
      L1  H     5    27       P1  8029  0.97
      L1  H    10    32       P1  8028  0.68
      P1  H  6934  6946       L1     7  0.94

> <Gold.Chemscore.Hbond.Weighted>
-9.5199

> <Gold.Chemscore.Metal.Weighted>
-0.0000

> <Gold.Chemscore.Lipo.Weighted>
-9.0360

> <Gold.Chemscore.Internal_Hbond.Weighted>
0.0000

> <Gold.Chemscore.DEClash.Weighted>
0.0232

> <Gold.Chemscore.DEInternal.Weighted>
1.6308

> <Gold.Chemscore.Rot.Weighted>
5.4359

> <Gold.Chemscore.Internal.Correction.Weighted>
   9.000000E+99

> <Gold.Protein.RotatedTorsions>
[ 6907 6896 6895 6894 ] final   65.77 input  -60.11 | X-H torsion
[ 7974 7965 7964 7962 ] final -179.53 input  175.53 | X-H torsion
[ 8008 7997 7996 7995 ] final   52.94 input   59.86 | X-H torsion
[ 10167 10162 10161 10158 ] final -126.10 input  -65.29 | X-H torsion
[ 10718 10713 10712 10709 ] final   -7.94 input   66.30 | X-H torsion
[ 10763 10752 10751 10750 ] final  149.87 input  -60.55 | X-H torsion
[ 11005 11000 10999 10996 ] final -150.35 input  -57.11 | X-H torsion

> <Gold.Protein.ActiveResidues>
 VAL166  LYS551  ARG553  GLY616  TRP617  ASP618  TYR619  PRO620  LYS621  CYS622 
 ASP623  PHE694  ASN695  SER759  ASP760  ASP761  ALA762  ILE779  LEU786  VAL792 
 PHE793  MET794  SER795  GLU796  ALA797  LYS798  CYS799  TRP800  GLU811  SER814 

> <Gold.Protein.RotatedAtoms>
  152.4432  134.5548  159.9876 H   0  0  0  0  0  0  0  0  0  0  0  0  # atno 6907 bound_to 6896
  151.5639  133.3393  159.2984 H   0  0  0  0  0  0  0  0  0  0  0  0  # atno 6908 bound_to 6896
  150.8343  134.7642  159.6943 H   0  0  0  0  0  0  0  0  0  0  0  0  # atno 6909 bound_to 6896
  144.7137  140.0703  143.6429 H   0  0  0  0  0  0  0  0  0  0  0  0  # atno 7974 bound_to 7965
  155.4601  140.3461  155.4311 H   0  0  0  0  0  0  0  0  0  0  0  0  # atno 8008 bound_to 7997
  156.1166  140.1475  156.9293 H   0  0  0  0  0  0  0  0  0  0  0  0  # atno 8009 bound_to 7997
  154.4794  140.0875  156.7319 H   0  0  0  0  0  0  0  0  0  0  0  0  # atno 8010 bound_to 7997
  139.9751  143.5803  152.2399 H   0  0  0  0  0  0  0  0  0  0  0  0  # atno 10167 bound_to 10162
  156.7099  130.5119  149.5895 H   0  0  0  0  0  0  0  0  0  0  0  0  # atno 10718 bound_to 10713
  154.0782  135.2861  155.3295 H   0  0  0  0  0  0  0  0  0  0  0  0  # atno 10763 bound_to 10752
  154.6701  135.5302  153.8131 H   0  0  0  0  0  0  0  0  0  0  0  0  # atno 10764 bound_to 10752
  153.0459  135.6555  154.0959 H   0  0  0  0  0  0  0  0  0  0  0  0  # atno 10765 bound_to 10752
  140.7412  134.3512  157.5147 H   0  0  0  0  0  0  0  0  0  0  0  0  # atno 11005 bound_to 11000
  145.9789  139.2926  143.1054 LP  0  0  0  0  0  0  0  0  0  0  0  0  # atno 17320 bound_to 7965
  145.9033  140.9228  143.0491 LP  0  0  0  0  0  0  0  0  0  0  0  0  # atno 17321 bound_to 7965
  139.6452  144.7657  151.2259 LP  0  0  0  0  0  0  0  0  0  0  0  0  # atno 17342 bound_to 10162
  140.7508  143.6251  150.8476 LP  0  0  0  0  0  0  0  0  0  0  0  0  # atno 17343 bound_to 10162
  156.1668  130.6411  151.0788 LP  0  0  0  0  0  0  0  0  0  0  0  0  # atno 17370 bound_to 10713
  157.6940  131.0800  150.7024 LP  0  0  0  0  0  0  0  0  0  0  0  0  # atno 17371 bound_to 10713
  139.8806  134.9082  156.2961 LP  0  0  0  0  0  0  0  0  0  0  0  0  # atno 17394 bound_to 11000
  140.9835  133.7252  156.0707 LP  0  0  0  0  0  0  0  0  0  0  0  0  # atno 17395 bound_to 11000

$$$$
