AV-unprocessed.smi:1464|AV-procd|sdf|5940|dock6
  -GOLD-   22720 6 23D 1   1.00000     0.00000
 Structure written by MMmdl.
 40 41  0  0  0  0  0  0  0  0  2 V2000
  151.7477  145.3314  160.4058 C   0  0  0  0  0  0  0  0  0  0  0  0
  152.4831  144.0357  160.0164 C   0  0  1  0  0  0  0  0  0  0  0  0
  152.6614  143.1501  161.2661 C   0  0  0  0  0  0  0  0  0  0  0  0
  153.4199  141.8576  160.9458 C   0  0  0  0  0  0  0  0  0  0  0  0
  152.7019  141.0696  159.8467 C   0  0  0  0  0  0  0  0  0  0  0  0
  152.5201  141.9197  158.5745 C   0  0  1  0  0  0  0  0  0  0  0  0
  151.7947  141.1387  157.5740 N   0  0  0  0  0  0  0  0  0  0  0  0
  152.1716  139.9449  157.0903 C   0  0  0  0  0  0  0  0  0  0  0  0
  153.1859  139.3559  157.4682 O   0  0  0  0  0  0  0  0  0  0  0  0
  151.2384  139.3330  156.0335 C   0  0  0  0  0  0  0  0  0  0  0  0
  150.9260  137.9147  156.2613 N   0  0  0  0  0  0  0  0  0  0  0  0
  150.3365  137.6470  157.5705 N   0  5  0  0  0  0  0  0  0  0  0  0
  149.9799  136.3744  157.8888 C   0  0  0  0  0  0  0  0  0  0  0  0
  149.4633  136.0759  158.9631 O   0  0  0  0  0  0  0  0  0  0  0  0
  150.2287  135.3290  156.9101 C   0  0  0  0  0  0  0  0  0  0  0  0
  150.7949  135.6017  155.7181 C   0  0  0  0  0  0  0  0  0  0  0  0
  151.1870  136.9517  155.3317 C   0  0  0  0  0  0  0  0  0  0  0  0
  151.7105  137.2060  154.2469 O   0  0  0  0  0  0  0  0  0  0  0  0
  151.7806  143.2534  158.8699 C   0  0  2  0  0  0  0  0  0  0  0  0
  151.6429  144.1049  157.5883 C   0  0  0  0  0  0  0  0  0  0  0  0
  150.7108  145.1328  160.6785 H   0  0  0  0  0  0  0  0  0  0  0  0
  151.7505  146.0608  159.5964 H   0  0  0  0  0  0  0  0  0  0  0  0
  152.2272  145.8113  161.2595 H   0  0  0  0  0  0  0  0  0  0  0  0
  153.4787  144.3176  159.6702 H   0  0  0  0  0  0  0  0  0  0  0  0
  153.1996  143.6996  162.0394 H   0  0  0  0  0  0  0  0  0  0  0  0
  151.6852  142.9041  161.6866 H   0  0  0  0  0  0  0  0  0  0  0  0
  154.4360  142.0936  160.6271 H   0  0  0  0  0  0  0  0  0  0  0  0
  153.5094  141.2455  161.8437 H   0  0  0  0  0  0  0  0  0  0  0  0
  153.2693  140.1665  159.6181 H   0  0  0  0  0  0  0  0  0  0  0  0
  151.7295  140.7382  160.2140 H   0  0  0  0  0  0  0  0  0  0  0  0
  153.5089  142.1686  158.1834 H   0  0  0  0  0  0  0  0  0  0  0  0
  150.9466  141.5459  157.2078 H   0  0  0  0  0  0  0  0  0  0  0  0
  150.3200  139.9212  156.0008 H   0  0  0  0  0  0  0  0  0  0  0  0
  151.6950  139.4567  155.0493 H   0  0  0  0  0  0  0  0  0  0  0  0
  149.9553  134.3108  157.1448 H   0  0  0  0  0  0  0  0  0  0  0  0
  150.9624  134.7934  155.0219 H   0  0  0  0  0  0  0  0  0  0  0  0
  150.7727  143.0057  159.2071 H   0  0  0  0  0  0  0  0  0  0  0  0
  152.6184  144.4274  157.2230 H   0  0  0  0  0  0  0  0  0  0  0  0
  151.0365  144.9944  157.7539 H   0  0  0  0  0  0  0  0  0  0  0  0
  151.1569  143.5538  156.7832 H   0  0  0  0  0  0  0  0  0  0  0  0
  1  2  1  0  0  0  0
  1 21  1  0  0  0  0
  1 22  1  0  0  0  0
  1 23  1  0  0  0  0
  2 19  1  0  0  0  0
  2  3  1  0  0  0  0
  2 24  1  0  0  0  0
  3  4  1  0  0  0  0
  3 25  1  0  0  0  0
  3 26  1  0  0  0  0
  4  5  1  0  0  0  0
  4 27  1  0  0  0  0
  4 28  1  0  0  0  0
  5  6  1  0  0  0  0
  5 29  1  0  0  0  0
  5 30  1  0  0  0  0
  6  7  1  0  0  0  0
  6 19  1  0  0  0  0
  6 31  1  0  0  0  0
  7  8  1  0  0  0  0
  7 32  1  0  0  0  0
  8  9  2  0  0  0  0
  8 10  1  0  0  0  0
 10 33  1  0  0  0  0
 10 34  1  0  0  0  0
 10 11  1  0  0  0  0
 11 12  1  0  0  0  0
 11 17  1  0  0  0  0
 12 13  1  0  0  0  0
 13 14  2  0  0  0  0
 13 15  1  0  0  0  0
 15 35  1  0  0  0  0
 15 16  2  0  0  0  0
 16 36  1  0  0  0  0
 16 17  1  0  0  0  0
 17 18  2  0  0  0  0
 19 20  1  0  0  0  0
 19 37  1  0  0  0  0
 20 38  1  0  0  0  0
 20 39  1  0  0  0  0
 20 40  1  0  0  0  0
M  CHG  1  12  -1
M  END
> <s_m_source_file>
AV-unprocessed.smi

> <i_m_source_file_index>
1464

> <i_lp_mmshare_version>
43012

> <i_f3d_flags>
0

> <s_epik_input>
W0NIM11bQ0BASF0xW0NIMl1bQ0gyXVtDSDJdW0NASF0oW0NASF0xW0NIM10pW05IXUMoPU8pW0NIMl1uMltuSF1jKD1PKVtjSF1bY0hdYzI9Tw==

> <s_epik_cmdline>
J2VwaWtfcHl0aG9uJywgJy1waCcsICc3LjAnLCAnLXRuJywgJzgnLCAnLW1hJywgJzIwMCcsICctbWV0YWxfYmluZGluZycsICctaW1hZScsICc8aW5maWxlLm1hZT4nLCAnLW9tYWUnLCAnPG91dGZpbGUubWFlPic=

> <r_lp_tautomer_probability>
1

> <r_epik_Ionization_Penalty>
0.101366

> <r_epik_Ionization_Penalty_Charging>
0.101366

> <r_epik_Ionization_Penalty_Neutral>
1.90469e-08

> <r_epik_State_Penalty>
0.035861

> <r_epik_Charging_Adjusted_Penalty>
0.137227

> <i_epik_Tot_Q>
-1

> <i_epik_Tot_abs_Q>
1

> <r_epik_Metal_State_Penalty>
0.035861

> <b_epik_Metal_Only>
0

> <s_lp_Force_Field>
OPLS_2005

> <r_lp_Energy>
28.8284

> <b_lp_Chiralities_Consistent>
1

> <s_lp_Variant>
AV-unprocessed.smi:1464-6

> <Gold.Version>
5.8.1

> <Gold.Id.Protein>
6NUR|6NUR_protein|mol2

> <Gold.PLP.Fitness>
46.4422

> <Gold.PLP.PLP>
-37.7976

> <Gold.PLP.part.hbond>
-3.0000

> <Gold.PLP.part.metal>
0.0000

> <Gold.PLP.part.buried>
-5.1080

> <Gold.PLP.part.nonpolar>
-32.0521

> <Gold.PLP.part.repulsive>
0.6854

> <Gold.PLP.ligand.clash>
0.0000

> <Gold.PLP.ligand.torsion>
0.1827

> <Gold.PLP.Chemscore.Hbond>
3.0000

> <Gold.PLP.Chemscore.CHOScore>
0.0000

> <Gold.PLP.Chemscore.Metal>
0.0000

> <Gold.Chemscore.Hbonds>
donor molecule, donor type, donor heavy atom, donor atom, acceptor molecule, acceptor atom, score
      P1  H  6896  6907       L1    14  1.00
      P1  H  7997  8009       L1     9  1.00
      P1  H 10752 10763       L1    18  1.00

> <Gold.PLP.Chemscore.Internal.Correction>
0.0100

> <Gold.Rescore>
     Score         DG    S(hbond)    S(metal)    S(lipo)     H(rot)  DE(clash)    DE(int)     intcor
     18.36     -19.49       1.86        0.00     102.52       1.64       0.15       0.98       ----

> <Gold.Chemscore.Fitness>
18.3615

> <Gold.Chemscore.DG>
-19.4923

> <Gold.Chemscore.ZeroCoef>
-5.4800

> <Gold.Chemscore.Hbond>
1.8639

> <Gold.Chemscore.Metal>
0.0000

> <Gold.Chemscore.Lipo>
102.5196

> <Gold.Chemscore.Internal_Hbond>
0.0000

> <Gold.Chemscore.DEClash>
0.1465

> <Gold.Chemscore.DEInternal>
0.9844

> <Gold.Chemscore.Rot>
1.6438

> <Gold.Chemscore.Internal.Correction>
   9.000000E+99

> <Gold.Chemscore.Hbonds>
donor molecule, donor type, donor heavy atom, donor atom, acceptor molecule, acceptor atom, score
      P1  H  6896  6907       L1    14  0.25
      P1  H  7997  8009       L1     9  0.68
      P1  H 10752 10763       L1    18  0.24

> <Gold.Chemscore.Hbond.Weighted>
-6.2255

> <Gold.Chemscore.Metal.Weighted>
-0.0000

> <Gold.Chemscore.Lipo.Weighted>
-11.9948

> <Gold.Chemscore.Internal_Hbond.Weighted>
0.0000

> <Gold.Chemscore.DEClash.Weighted>
0.1465

> <Gold.Chemscore.DEInternal.Weighted>
0.9844

> <Gold.Chemscore.Rot.Weighted>
4.2080

> <Gold.Chemscore.Internal.Correction.Weighted>
   9.000000E+99

> <Gold.Protein.RotatedTorsions>
[ 6907 6896 6895 6894 ] final  -44.31 input  -60.11 | X-H torsion
[ 7974 7965 7964 7962 ] final  -11.00 input  175.53 | X-H torsion
[ 8008 7997 7996 7995 ] final  167.76 input   59.86 | X-H torsion
[ 10167 10162 10161 10158 ] final -165.73 input  -65.29 | X-H torsion
[ 10718 10713 10712 10709 ] final  -35.56 input   66.30 | X-H torsion
[ 10763 10752 10751 10750 ] final   32.20 input  -60.55 | X-H torsion
[ 11005 11000 10999 10996 ] final -155.84 input  -57.11 | X-H torsion

> <Gold.Protein.ActiveResidues>
 VAL166  LYS551  ARG553  GLY616  TRP617  ASP618  TYR619  PRO620  LYS621  CYS622 
 ASP623  PHE694  ASN695  SER759  ASP760  ASP761  ALA762  ILE779  LEU786  VAL792 
 PHE793  MET794  SER795  GLU796  ALA797  LYS798  CYS799  TRP800  GLU811  SER814 

> <Gold.Protein.RotatedAtoms>
  150.9343  134.8756  159.7571 H   0  0  0  0  0  0  0  0  0  0  0  0  # atno 6907 bound_to 6896
  152.5052  134.4034  159.9434 H   0  0  0  0  0  0  0  0  0  0  0  0  # atno 6908 bound_to 6896
  151.4059  133.3703  159.2773 H   0  0  0  0  0  0  0  0  0  0  0  0  # atno 6909 bound_to 6896
  146.2202  140.2846  142.8364 H   0  0  0  0  0  0  0  0  0  0  0  0  # atno 7974 bound_to 7965
  156.1606  140.1608  156.8619 H   0  0  0  0  0  0  0  0  0  0  0  0  # atno 8008 bound_to 7997
  154.5157  140.0790  156.8111 H   0  0  0  0  0  0  0  0  0  0  0  0  # atno 8009 bound_to 7997
  155.3716  140.3400  155.4246 H   0  0  0  0  0  0  0  0  0  0  0  0  # atno 8010 bound_to 7997
  139.6162  144.0715  152.1890 H   0  0  0  0  0  0  0  0  0  0  0  0  # atno 10167 bound_to 10162
  156.3372  130.4288  149.7820 H   0  0  0  0  0  0  0  0  0  0  0  0  # atno 10718 bound_to 10713
  153.0275  135.6419  154.1319 H   0  0  0  0  0  0  0  0  0  0  0  0  # atno 10763 bound_to 10752
  154.1045  135.2857  155.3246 H   0  0  0  0  0  0  0  0  0  0  0  0  # atno 10764 bound_to 10752
  154.6375  135.5471  153.7813 H   0  0  0  0  0  0  0  0  0  0  0  0  # atno 10765 bound_to 10752
  140.6821  134.4134  157.5226 H   0  0  0  0  0  0  0  0  0  0  0  0  # atno 11005 bound_to 11000
  144.9171  140.7825  143.5771 LP  0  0  0  0  0  0  0  0  0  0  0  0  # atno 17320 bound_to 7965
  145.2781  139.1929  143.4806 LP  0  0  0  0  0  0  0  0  0  0  0  0  # atno 17321 bound_to 7965
  140.0346  144.6055  150.7460 LP  0  0  0  0  0  0  0  0  0  0  0  0  # atno 17342 bound_to 10162
  140.7352  143.2738  151.3804 LP  0  0  0  0  0  0  0  0  0  0  0  0  # atno 17343 bound_to 10162
  156.5070  130.8154  151.3154 LP  0  0  0  0  0  0  0  0  0  0  0  0  # atno 17370 bound_to 10713
  157.7441  130.9926  150.2643 LP  0  0  0  0  0  0  0  0  0  0  0  0  # atno 17371 bound_to 10713
  139.8949  134.8696  156.2157 LP  0  0  0  0  0  0  0  0  0  0  0  0  # atno 17394 bound_to 11000
  141.0309  133.6989  156.1429 LP  0  0  0  0  0  0  0  0  0  0  0  0  # atno 17395 bound_to 11000

$$$$
