AV-unprocessed.smi:218|AV-procd|sdf|1671|dock8
  -GOLD-   2262020 83D 1   1.00000     0.00000
 Structure written by MMmdl.
 54 57  0  0  0  0  0  0  0  0  1 V2000
  151.0564  142.2595  157.3890 C   0  0  0  0  0  0  0  0  0  0  0  0
  151.8968  141.2138  158.1318 C   0  0  0  0  0  0  0  0  0  0  0  0
  152.9619  141.8827  159.0178 C   0  0  0  0  0  0  0  0  0  0  0  0
  152.5195  140.3974  157.1378 O   0  0  0  0  0  0  0  0  0  0  0  0
  151.7618  139.5209  156.3847 C   0  0  0  0  0  0  0  0  0  0  0  0
  151.2702  138.3559  157.0087 C   0  0  0  0  0  0  0  0  0  0  0  0
  150.5020  137.4498  156.2504 C   0  0  0  0  0  0  0  0  0  0  0  0
  149.9470  136.1930  156.8852 C   0  0  0  0  0  0  0  0  0  0  0  0
  149.8243  135.0964  155.9389 N   0  0  0  0  0  0  0  0  0  0  0  0
  148.6346  134.7947  155.3777 C   0  0  0  0  0  0  0  0  0  0  0  0
  147.6016  135.5926  155.7401 N   0  0  0  0  0  0  0  0  0  0  0  0
  146.3813  135.3805  155.2405 C   0  0  0  0  0  0  0  0  0  0  0  0
  145.9852  134.4424  154.3794 N   0  0  0  0  0  0  0  0  0  0  0  0
  147.0189  133.6333  154.0080 C   0  0  0  0  0  0  0  0  0  0  0  0
  148.3670  133.7373  154.4573 C   0  0  0  0  0  0  0  0  0  0  0  0
  149.1250  132.7340  153.8612 N   0  0  0  0  0  0  0  0  0  0  0  0
  148.2759  132.0845  153.1125 C   0  0  0  0  0  0  0  0  0  0  0  0
  146.9876  132.5656  153.1351 N   0  0  0  0  0  0  0  0  0  0  0  0
  145.8016  132.0396  152.3962 C   0  0  1  0  0  0  0  0  0  0  0  0
  145.2492  133.1000  151.6823 O   0  0  0  0  0  0  0  0  0  0  0  0
  144.7681  132.6380  150.4296 C   0  0  2  0  0  0  0  0  0  0  0  0
  143.2476  132.3825  150.5030 C   0  0  0  0  0  0  0  0  0  0  0  0
  142.6717  132.1031  149.2436 O   0  0  0  0  0  0  0  0  0  0  0  0
  145.6423  131.4282  150.0664 C   0  0  1  0  0  0  0  0  0  0  0  0
  146.6855  131.8536  149.2112 O   0  0  0  0  0  0  0  0  0  0  0  0
  146.2123  130.9380  151.3990 C   0  0  2  0  0  0  0  0  0  0  0  0
  145.6263  129.6971  151.7379 O   0  0  0  0  0  0  0  0  0  0  0  0
  150.2500  137.7443  154.8960 C   0  0  0  0  0  0  0  0  0  0  0  0
  150.7835  138.9321  154.3601 C   0  0  0  0  0  0  0  0  0  0  0  0
  151.5227  139.8028  155.0795 N   0  0  0  0  0  0  0  0  0  0  0  0
  145.1079  131.6994  153.1668 H   0  0  0  0  0  0  0  0  0  0  0  0
  144.9146  133.4477  149.7129 H   0  0  0  0  0  0  0  0  0  0  0  0
  145.0768  130.6609  149.5355 H   0  0  0  0  0  0  0  0  0  0  0  0
  147.2967  130.8193  151.3657 H   0  0  0  0  0  0  0  0  0  0  0  0
  150.5389  142.9168  158.0885 H   0  0  0  0  0  0  0  0  0  0  0  0
  150.3016  141.7807  156.7647 H   0  0  0  0  0  0  0  0  0  0  0  0
  151.6774  142.8809  156.7430 H   0  0  0  0  0  0  0  0  0  0  0  0
  151.2117  140.6304  158.7487 H   0  0  0  0  0  0  0  0  0  0  0  0
  152.4988  142.5352  159.7582 H   0  0  0  0  0  0  0  0  0  0  0  0
  153.6451  142.4880  158.4215 H   0  0  0  0  0  0  0  0  0  0  0  0
  153.5581  141.1483  159.5589 H   0  0  0  0  0  0  0  0  0  0  0  0
  151.4799  138.1634  158.0509 H   0  0  0  0  0  0  0  0  0  0  0  0
  150.5945  135.8929  157.7101 H   0  0  0  0  0  0  0  0  0  0  0  0
  148.9673  136.4234  157.3053 H   0  0  0  0  0  0  0  0  0  0  0  0
  150.6678  134.5688  155.7667 H   0  0  0  0  0  0  0  0  0  0  0  0
  145.6127  136.0602  155.5778 H   0  0  0  0  0  0  0  0  0  0  0  0
  148.5700  131.2323  152.5170 H   0  0  0  0  0  0  0  0  0  0  0  0
  143.0294  131.5666  151.1927 H   0  0  0  0  0  0  0  0  0  0  0  0
  142.7511  133.2694  150.8974 H   0  0  0  0  0  0  0  0  0  0  0  0
  141.9983  132.7438  149.0720 H   0  0  0  0  0  0  0  0  0  0  0  0
  147.4263  131.2791  149.3372 H   0  0  0  0  0  0  0  0  0  0  0  0
  144.6955  129.8235  151.8406 H   0  0  0  0  0  0  0  0  0  0  0  0
  149.6616  137.0798  154.2803 H   0  0  0  0  0  0  0  0  0  0  0  0
  150.6116  139.1908  153.3258 H   0  0  0  0  0  0  0  0  0  0  0  0
  1  2  1  0  0  0  0
  1 35  1  0  0  0  0
  1 36  1  0  0  0  0
  1 37  1  0  0  0  0
  2  3  1  0  0  0  0
  2  4  1  0  0  0  0
  2 38  1  0  0  0  0
  3 39  1  0  0  0  0
  3 40  1  0  0  0  0
  3 41  1  0  0  0  0
  4  5  1  0  0  0  0
  5 30  1  0  0  0  0
  5  6  2  0  0  0  0
  6  7  1  0  0  0  0
  6 42  1  0  0  0  0
  7  8  1  0  0  0  0
  7 28  2  0  0  0  0
  8  9  1  0  0  0  0
  8 43  1  0  0  0  0
  8 44  1  0  0  0  0
  9 10  1  0  0  0  0
  9 45  1  0  0  0  0
 10 15  1  0  0  0  0
 10 11  2  0  0  0  0
 11 12  1  0  0  0  0
 12 13  2  0  0  0  0
 12 46  1  0  0  0  0
 13 14  1  0  0  0  0
 14 18  1  0  0  0  0
 14 15  2  0  0  0  0
 15 16  1  0  0  0  0
 16 17  2  0  0  0  0
 17 18  1  0  0  0  0
 17 47  1  0  0  0  0
 18 19  1  0  0  0  0
 19 31  1  0  0  0  0
 19 26  1  0  0  0  0
 19 20  1  0  0  0  0
 20 21  1  0  0  0  0
 21 32  1  0  0  0  0
 21 22  1  0  0  0  0
 21 24  1  0  0  0  0
 22 23  1  0  0  0  0
 22 48  1  0  0  0  0
 22 49  1  0  0  0  0
 23 50  1  0  0  0  0
 24 33  1  0  0  0  0
 24 25  1  0  0  0  0
 24 26  1  0  0  0  0
 25 51  1  0  0  0  0
 26 34  1  0  0  0  0
 26 27  1  0  0  0  0
 27 52  1  0  0  0  0
 28 29  1  0  0  0  0
 28 53  1  0  0  0  0
 29 30  2  0  0  0  0
 29 54  1  0  0  0  0
M  END
> <s_m_source_file>
AV-unprocessed.smi

> <i_m_source_file_index>
218

> <i_lp_mmshare_version>
43012

> <i_f3d_flags>
0

> <s_epik_input>
W0NIM11bQ0hdKFtDSDNdKU9jMVtjSF1jKFtjSF1bY0hdbjEpW0NIMl1bTkhdYyhuW2NIXW4yKWMoYzIzKW5bY0hdbjNbQ0BASF00T1tDQEhdKFtDSDJdW09IXSlbQ0BASF0oW09IXSlbQ0BIXTRbT0hd

> <s_epik_cmdline>
J2VwaWtfcHl0aG9uJywgJy1waCcsICc3LjAnLCAnLXRuJywgJzgnLCAnLW1hJywgJzIwMCcsICctbWV0YWxfYmluZGluZycsICctaW1hZScsICc8aW5maWxlLm1hZT4nLCAnLW9tYWUnLCAnPG91dGZpbGUubWFlPic=

> <r_lp_tautomer_probability>
1

> <r_epik_Ionization_Penalty>
0.00457014

> <r_epik_Ionization_Penalty_Charging>
0

> <r_epik_Ionization_Penalty_Neutral>
0.00457014

> <r_epik_State_Penalty>
-0

> <r_epik_Charging_Adjusted_Penalty>
0

> <i_epik_Tot_Q>
0

> <i_epik_Tot_abs_Q>
0

> <r_epik_Metal_State_Penalty>
-0

> <b_epik_Metal_Only>
0

> <s_epik_Chemistry_Notes>
This compound contains an acetal/aminal-like group ( X-CH(R)-Y where X, Y are N, S, or O) that may be acid/base labile, releasing an aldehyde.

> <s_lp_Force_Field>
OPLS_2005

> <r_lp_Energy>
37.7133

> <b_lp_Chiralities_Consistent>
1

> <s_lp_Variant>
AV-unprocessed.smi:218-10

> <Gold.Version>
5.8.1

> <Gold.Id.Protein>
6NUR|6NUR_protein|mol2

> <Gold.PLP.Fitness>
57.0412

> <Gold.PLP.PLP>
-39.9118

> <Gold.PLP.part.hbond>
-5.9468

> <Gold.PLP.part.metal>
0.0000

> <Gold.PLP.part.buried>
-4.2675

> <Gold.PLP.part.nonpolar>
-30.2444

> <Gold.PLP.part.repulsive>
0.4208

> <Gold.PLP.ligand.clash>
0.0000

> <Gold.PLP.ligand.torsion>
0.8322

> <Gold.PLP.Chemscore.Hbond>
4.2455

> <Gold.PLP.Chemscore.CHOScore>
2.0000

> <Gold.PLP.Chemscore.Metal>
0.0000

> <Gold.Chemscore.Hbonds>
donor molecule, donor type, donor heavy atom, donor atom, acceptor molecule, acceptor atom, score
      L1  H    23    50       P1 10186  1.00
      L1  H    25    51       P1 10747  1.00
      P1  H  7989  7998       L1    30  0.40
      P1  H  7997  8010       L1     4  0.93
      P1  H 10785 10796       L1    23  0.86
      L1  C    17    47       P1 10747  1.00
      L1  C    29    54       P1  7957  1.00

> <Gold.PLP.Chemscore.Internal.Correction>
0.0573

> <Gold.Rescore>
     Score         DG    S(hbond)    S(metal)    S(lipo)     H(rot)  DE(clash)    DE(int)     intcor
     14.28     -14.98       3.41        0.00      91.18       4.90       0.10       0.60       ----

> <Gold.Chemscore.Fitness>
14.2832

> <Gold.Chemscore.DG>
-14.9757

> <Gold.Chemscore.ZeroCoef>
-5.4800

> <Gold.Chemscore.Hbond>
3.4069

> <Gold.Chemscore.Metal>
0.0000

> <Gold.Chemscore.Lipo>
91.1799

> <Gold.Chemscore.Internal_Hbond>
0.0000

> <Gold.Chemscore.DEClash>
0.0969

> <Gold.Chemscore.DEInternal>
0.5956

> <Gold.Chemscore.Rot>
4.9029

> <Gold.Chemscore.Internal.Correction>
   9.000000E+99

> <Gold.Chemscore.Hbonds>
donor molecule, donor type, donor heavy atom, donor atom, acceptor molecule, acceptor atom, score
      L1  H    23    50       P1 10186  0.93
      L1  H    25    51       P1 10747  0.94
      P1  H  7989  7998       L1    30  0.01
      P1  H  7997  8010       L1     4  0.54
      P1  H 10785 10796       L1    23  0.55

> <Gold.Chemscore.Hbond.Weighted>
-11.3792

> <Gold.Chemscore.Metal.Weighted>
-0.0000

> <Gold.Chemscore.Lipo.Weighted>
-10.6680

> <Gold.Chemscore.Internal_Hbond.Weighted>
0.0000

> <Gold.Chemscore.DEClash.Weighted>
0.0969

> <Gold.Chemscore.DEInternal.Weighted>
0.5956

> <Gold.Chemscore.Rot.Weighted>
12.5515

> <Gold.Chemscore.Internal.Correction.Weighted>
   9.000000E+99

> <Gold.Protein.RotatedTorsions>
[ 6907 6896 6895 6894 ] final  169.24 input  -60.11 | X-H torsion
[ 7974 7965 7964 7962 ] final  -83.85 input  175.53 | X-H torsion
[ 8008 7997 7996 7995 ] final   60.72 input   59.86 | X-H torsion
[ 10167 10162 10161 10158 ] final  -37.84 input  -65.29 | X-H torsion
[ 10718 10713 10712 10709 ] final   -1.83 input   66.30 | X-H torsion
[ 10763 10752 10751 10750 ] final   83.84 input  -60.55 | X-H torsion
[ 11005 11000 10999 10996 ] final -157.29 input  -57.11 | X-H torsion

> <Gold.Protein.ActiveResidues>
 VAL166  LYS551  ARG553  GLY616  TRP617  ASP618  TYR619  PRO620  LYS621  CYS622 
 ASP623  PHE694  ASN695  SER759  ASP760  ASP761  ALA762  ILE779  LEU786  VAL792 
 PHE793  MET794  SER795  GLU796  ALA797  LYS798  CYS799  TRP800  GLU811  SER814 

> <Gold.Protein.RotatedAtoms>
  151.8350  133.3414  159.3624 H   0  0  0  0  0  0  0  0  0  0  0  0  # atno 6907 bound_to 6896
  150.7252  134.5446  159.5773 H   0  0  0  0  0  0  0  0  0  0  0  0  # atno 6908 bound_to 6896
  152.2907  134.7725  160.0429 H   0  0  0  0  0  0  0  0  0  0  0  0  # atno 6909 bound_to 6896
  145.5144  140.9537  143.1689 H   0  0  0  0  0  0  0  0  0  0  0  0  # atno 7974 bound_to 7965
  155.5869  140.3492  155.4555 H   0  0  0  0  0  0  0  0  0  0  0  0  # atno 8008 bound_to 7997
  156.0331  140.1279  157.0262 H   0  0  0  0  0  0  0  0  0  0  0  0  # atno 8009 bound_to 7997
  154.4360  140.1039  156.6114 H   0  0  0  0  0  0  0  0  0  0  0  0  # atno 8010 bound_to 7997
  140.7108  143.3316  151.2557 H   0  0  0  0  0  0  0  0  0  0  0  0  # atno 10167 bound_to 10162
  156.7999  130.5389  149.5723 H   0  0  0  0  0  0  0  0  0  0  0  0  # atno 10718 bound_to 10713
  153.1327  135.4676  154.9374 H   0  0  0  0  0  0  0  0  0  0  0  0  # atno 10763 bound_to 10752
  154.7678  135.3150  154.8252 H   0  0  0  0  0  0  0  0  0  0  0  0  # atno 10764 bound_to 10752
  153.8791  135.6896  153.4822 H   0  0  0  0  0  0  0  0  0  0  0  0  # atno 10765 bound_to 10752
  140.6662  134.4296  157.5233 H   0  0  0  0  0  0  0  0  0  0  0  0  # atno 11005 bound_to 11000
  144.7709  139.6736  143.7195 LP  0  0  0  0  0  0  0  0  0  0  0  0  # atno 17320 bound_to 7965
  146.2146  139.5526  142.9659 LP  0  0  0  0  0  0  0  0  0  0  0  0  # atno 17321 bound_to 7965
  139.6799  143.9872  152.2802 LP  0  0  0  0  0  0  0  0  0  0  0  0  # atno 17342 bound_to 10162
  139.9499  144.6627  150.8183 LP  0  0  0  0  0  0  0  0  0  0  0  0  # atno 17343 bound_to 10162
  156.1108  130.6038  151.0043 LP  0  0  0  0  0  0  0  0  0  0  0  0  # atno 17370 bound_to 10713
  157.6559  131.0889  150.7948 LP  0  0  0  0  0  0  0  0  0  0  0  0  # atno 17371 bound_to 10713
  139.8996  134.8586  156.1952 LP  0  0  0  0  0  0  0  0  0  0  0  0  # atno 17394 bound_to 11000
  141.0427  133.6929  156.1627 LP  0  0  0  0  0  0  0  0  0  0  0  0  # atno 17395 bound_to 11000

$$$$
