AV-unprocessed.smi:2988|AV-procd|sdf|11390|dock10
  -GOLD-   2272016313D 1   1.00000     0.00000
 Structure written by MMmdl.
 37 38  0  0  0  0  0  0  0  0  1 V2000
  153.2442  142.8530  162.2417 C   0  0  0  0  0  0  0  0  0  0  0  0
  152.3881  143.1685  161.0015 C   0  0  1  0  0  0  0  0  0  0  0  0
  152.3387  144.6895  160.7500 C   0  0  0  0  0  0  0  0  0  0  0  0
  151.4837  145.0394  159.5231 C   0  0  0  0  0  0  0  0  0  0  0  0
  151.9900  144.3083  158.2724 C   0  0  0  0  0  0  0  0  0  0  0  0
  152.0327  142.7904  158.5005 C   0  0  0  0  0  0  0  0  0  0  0  0
  152.8796  142.4223  159.7361 C   0  0  2  0  0  0  0  0  0  0  0  0
  152.8314  140.9773  159.9479 N   0  0  0  0  0  0  0  0  0  0  0  0
  153.0494  140.0437  159.0095 C   0  0  0  0  0  0  0  0  0  0  0  0
  153.2874  140.3099  157.8309 O   0  0  0  0  0  0  0  0  0  0  0  0
  152.9634  138.5841  159.4770 C   0  0  0  0  0  0  0  0  0  0  0  0
  153.9756  138.2484  160.4887 N   0  0  0  0  0  0  0  0  0  0  0  0
  154.4153  139.3307  161.2306 N   0  0  0  0  0  0  0  0  0  0  0  0
  155.2902  139.1494  162.1591 C   0  0  0  0  0  0  0  0  0  0  0  0
  155.8408  137.8452  162.4551 C   0  0  0  0  0  0  0  0  0  0  0  0
  157.0120  137.6636  163.7132 Cl  0  0  0  0  0  0  0  0  0  0  0  0
  155.4078  136.7920  161.7174 C   0  0  0  0  0  0  0  0  0  0  0  0
  156.0200  135.2007  162.0126 Cl  0  0  0  0  0  0  0  0  0  0  0  0
  154.4117  136.9610  160.6502 C   0  0  0  0  0  0  0  0  0  0  0  0
  153.9966  136.0321  159.9555 O   0  0  0  0  0  0  0  0  0  0  0  0
  154.2849  143.1392  162.0867 H   0  0  0  0  0  0  0  0  0  0  0  0
  153.2253  141.7909  162.4873 H   0  0  0  0  0  0  0  0  0  0  0  0
  152.8792  143.3922  163.1162 H   0  0  0  0  0  0  0  0  0  0  0  0
  151.3703  142.8381  161.2151 H   0  0  0  0  0  0  0  0  0  0  0  0
  151.9393  145.1995  161.6272 H   0  0  0  0  0  0  0  0  0  0  0  0
  153.3502  145.0719  160.6065 H   0  0  0  0  0  0  0  0  0  0  0  0
  150.4440  144.7690  159.7114 H   0  0  0  0  0  0  0  0  0  0  0  0
  151.4980  146.1166  159.3548 H   0  0  0  0  0  0  0  0  0  0  0  0
  151.3481  144.5382  157.4217 H   0  0  0  0  0  0  0  0  0  0  0  0
  152.9869  144.6683  158.0154 H   0  0  0  0  0  0  0  0  0  0  0  0
  151.0153  142.4166  158.6250 H   0  0  0  0  0  0  0  0  0  0  0  0
  152.4336  142.3009  157.6121 H   0  0  0  0  0  0  0  0  0  0  0  0
  153.9116  142.7267  159.5498 H   0  0  0  0  0  0  0  0  0  0  0  0
  152.6354  140.6646  160.8878 H   0  0  0  0  0  0  0  0  0  0  0  0
  151.9650  138.3741  159.8661 H   0  0  0  0  0  0  0  0  0  0  0  0
  153.0753  137.9433  158.6005 H   0  0  0  0  0  0  0  0  0  0  0  0
  155.6625  139.9706  162.7718 H   0  0  0  0  0  0  0  0  0  0  0  0
  1  2  1  0  0  0  0
  1 21  1  0  0  0  0
  1 22  1  0  0  0  0
  1 23  1  0  0  0  0
  2  7  1  0  0  0  0
  2  3  1  0  0  0  0
  2 24  1  0  0  0  0
  3  4  1  0  0  0  0
  3 25  1  0  0  0  0
  3 26  1  0  0  0  0
  4  5  1  0  0  0  0
  4 27  1  0  0  0  0
  4 28  1  0  0  0  0
  5  6  1  0  0  0  0
  5 29  1  0  0  0  0
  5 30  1  0  0  0  0
  6  7  1  0  0  0  0
  6 31  1  0  0  0  0
  6 32  1  0  0  0  0
  7  8  1  0  0  0  0
  7 33  1  0  0  0  0
  8  9  1  0  0  0  0
  8 34  1  0  0  0  0
  9 10  2  0  0  0  0
  9 11  1  0  0  0  0
 11 12  1  0  0  0  0
 11 35  1  0  0  0  0
 11 36  1  0  0  0  0
 12 19  1  0  0  0  0
 12 13  1  0  0  0  0
 13 14  2  0  0  0  0
 14 15  1  0  0  0  0
 14 37  1  0  0  0  0
 15 16  1  0  0  0  0
 15 17  2  0  0  0  0
 17 18  1  0  0  0  0
 17 19  1  0  0  0  0
 19 20  2  0  0  0  0
M  END
> <s_m_source_file>
AV-unprocessed.smi

> <i_m_source_file_index>
2988

> <i_lp_mmshare_version>
43012

> <i_f3d_flags>
0

> <s_epik_input>
W0NIM11bQ0BASF0xW0NIMl1bQ0gyXVtDSDJdW0NIMl1bQ0BIXTFbTkhdQyg9TylbQ0gyXW4ybltjSF1jKENsKWMoQ2wpYzI9Tw==

> <s_epik_cmdline>
J2VwaWtfcHl0aG9uJywgJy1waCcsICc3LjAnLCAnLXRuJywgJzgnLCAnLW1hJywgJzIwMCcsICctbWV0YWxfYmluZGluZycsICctaW1hZScsICc8aW5maWxlLm1hZT4nLCAnLW9tYWUnLCAnPG91dGZpbGUubWFlPic=

> <r_lp_tautomer_probability>
1

> <r_epik_Ionization_Penalty>
1.90782e-08

> <r_epik_Ionization_Penalty_Charging>
3.13143e-11

> <r_epik_Ionization_Penalty_Neutral>
1.90469e-08

> <r_epik_State_Penalty>
-0

> <r_epik_Charging_Adjusted_Penalty>
3.13143e-11

> <i_epik_Tot_Q>
0

> <i_epik_Tot_abs_Q>
0

> <r_epik_Metal_State_Penalty>
-0

> <b_epik_Metal_Only>
0

> <s_lp_Force_Field>
OPLS_2005

> <r_lp_Energy>
24.109

> <b_lp_Chiralities_Consistent>
1

> <s_lp_Variant>
AV-unprocessed.smi:2988-4

> <Gold.Version>
5.8.1

> <Gold.Id.Protein>
6NUR|6NUR_protein|mol2

> <Gold.PLP.Fitness>
45.4019

> <Gold.PLP.PLP>
-40.5874

> <Gold.PLP.part.hbond>
-1.6644

> <Gold.PLP.part.metal>
0.0000

> <Gold.PLP.part.buried>
-2.7679

> <Gold.PLP.part.nonpolar>
-35.8779

> <Gold.PLP.part.repulsive>
0.1269

> <Gold.PLP.ligand.clash>
0.0000

> <Gold.PLP.ligand.torsion>
0.4396

> <Gold.PLP.Chemscore.Hbond>
1.8960

> <Gold.PLP.Chemscore.CHOScore>
0.0000

> <Gold.PLP.Chemscore.Metal>
0.0000

> <Gold.Chemscore.Hbonds>
donor molecule, donor type, donor heavy atom, donor atom, acceptor molecule, acceptor atom, score
      P1  H  6896  6908       L1    20  0.88
      P1  H  7997  8008       L1    10  0.88

> <Gold.PLP.Chemscore.Internal.Correction>
0.0057

> <Gold.Rescore>
     Score         DG    S(hbond)    S(metal)    S(lipo)     H(rot)  DE(clash)    DE(int)     intcor
     19.00     -21.12       1.99        0.00     109.71       1.50       0.21       1.91       ----

> <Gold.Chemscore.Fitness>
19.0027

> <Gold.Chemscore.DG>
-21.1240

> <Gold.Chemscore.ZeroCoef>
-5.4800

> <Gold.Chemscore.Hbond>
1.9888

> <Gold.Chemscore.Metal>
0.0000

> <Gold.Chemscore.Lipo>
109.7064

> <Gold.Chemscore.Internal_Hbond>
0.0000

> <Gold.Chemscore.DEClash>
0.2140

> <Gold.Chemscore.DEInternal>
1.9073

> <Gold.Chemscore.Rot>
1.4977

> <Gold.Chemscore.Internal.Correction>
   9.000000E+99

> <Gold.Chemscore.Hbonds>
donor molecule, donor type, donor heavy atom, donor atom, acceptor molecule, acceptor atom, score
      P1  H  6896  6908       L1    20  0.85
      P1  H  7997  8008       L1    10  0.82

> <Gold.Chemscore.Hbond.Weighted>
-6.6425

> <Gold.Chemscore.Metal.Weighted>
-0.0000

> <Gold.Chemscore.Lipo.Weighted>
-12.8356

> <Gold.Chemscore.Internal_Hbond.Weighted>
0.0000

> <Gold.Chemscore.DEClash.Weighted>
0.2140

> <Gold.Chemscore.DEInternal.Weighted>
1.9073

> <Gold.Chemscore.Rot.Weighted>
3.8341

> <Gold.Chemscore.Internal.Correction.Weighted>
   9.000000E+99

> <Gold.Protein.RotatedTorsions>
[ 6907 6896 6895 6894 ] final  -54.07 input  -60.11 | X-H torsion
[ 7974 7965 7964 7962 ] final -138.77 input  175.53 | X-H torsion
[ 8008 7997 7996 7995 ] final  -75.40 input   59.86 | X-H torsion
[ 10167 10162 10161 10158 ] final   94.07 input  -65.29 | X-H torsion
[ 10718 10713 10712 10709 ] final  -61.71 input   66.30 | X-H torsion
[ 10763 10752 10751 10750 ] final  116.33 input  -60.55 | X-H torsion
[ 11005 11000 10999 10996 ] final  -65.32 input  -57.11 | X-H torsion

> <Gold.Protein.ActiveResidues>
 VAL166  LYS551  ARG553  GLY616  TRP617  ASP618  TYR619  PRO620  LYS621  CYS622 
 ASP623  PHE694  ASN695  SER759  ASP760  ASP761  ALA762  ILE779  LEU786  VAL792 
 PHE793  MET794  SER795  GLU796  ALA797  LYS798  CYS799  TRP800  GLU811  SER814 

> <Gold.Protein.RotatedAtoms>
  150.8371  134.7648  159.6901 H   0  0  0  0  0  0  0  0  0  0  0  0  # atno 6907 bound_to 6896
  152.4465  134.5479  159.9868 H   0  0  0  0  0  0  0  0  0  0  0  0  # atno 6908 bound_to 6896
  151.5627  133.3363  159.3010 H   0  0  0  0  0  0  0  0  0  0  0  0  # atno 6909 bound_to 6896
  144.8731  140.6397  143.5254 H   0  0  0  0  0  0  0  0  0  0  0  0  # atno 7974 bound_to 7965
  154.5414  140.0744  156.8516 H   0  0  0  0  0  0  0  0  0  0  0  0  # atno 8008 bound_to 7997
  155.3174  140.3394  155.4224 H   0  0  0  0  0  0  0  0  0  0  0  0  # atno 8009 bound_to 7997
  156.1878  140.1675  156.8138 H   0  0  0  0  0  0  0  0  0  0  0  0  # atno 8010 bound_to 7997
  139.8119  144.6770  150.9630 H   0  0  0  0  0  0  0  0  0  0  0  0  # atno 10167 bound_to 10162
  156.0903  130.4201  150.1033 H   0  0  0  0  0  0  0  0  0  0  0  0  # atno 10718 bound_to 10713
  153.5355  135.3569  155.2695 H   0  0  0  0  0  0  0  0  0  0  0  0  # atno 10763 bound_to 10752
  154.8722  135.4078  154.3102 H   0  0  0  0  0  0  0  0  0  0  0  0  # atno 10764 bound_to 10752
  153.3799  135.7068  153.6641 H   0  0  0  0  0  0  0  0  0  0  0  0  # atno 10765 bound_to 10752
  141.1451  133.6680  156.5968 H   0  0  0  0  0  0  0  0  0  0  0  0  # atno 11005 bound_to 11000
  145.4093  139.1583  143.4135 LP  0  0  0  0  0  0  0  0  0  0  0  0  # atno 17320 bound_to 7965
  146.2944  140.4196  142.8727 LP  0  0  0  0  0  0  0  0  0  0  0  0  # atno 17321 bound_to 7965
  140.7817  143.4177  151.0891 LP  0  0  0  0  0  0  0  0  0  0  0  0  # atno 17342 bound_to 10162
  139.7843  143.8310  152.3142 LP  0  0  0  0  0  0  0  0  0  0  0  0  # atno 17343 bound_to 10162
  156.9044  130.9631  151.3572 LP  0  0  0  0  0  0  0  0  0  0  0  0  # atno 17370 bound_to 10713
  157.6050  130.8541  149.8861 LP  0  0  0  0  0  0  0  0  0  0  0  0  # atno 17371 bound_to 10713
  140.3720  134.7598  157.4604 LP  0  0  0  0  0  0  0  0  0  0  0  0  # atno 17394 bound_to 11000
  140.0703  134.5871  155.8649 LP  0  0  0  0  0  0  0  0  0  0  0  0  # atno 17395 bound_to 11000

$$$$
