AV-unprocessed.smi:2445|AV-procd|sdf|9637|dock9
  -GOLD-   2272013273D 1   1.00000     0.00000
 Structure written by MMmdl.
 40 41  0  0  0  0  0  0  0  0  1 V2000
  143.6252  144.9338  155.0129 C   0  0  0  0  0  0  0  0  0  0  0  0
  144.7845  143.9992  155.0864 C   0  0  0  0  0  0  0  0  0  0  0  0
  145.3300  143.4231  156.2067 C   0  0  0  0  0  0  0  0  0  0  0  0
  146.4192  142.5905  155.9403 N   0  0  0  0  0  0  0  0  0  0  0  0
  146.7092  142.5259  154.6383 C   0  0  0  0  0  0  0  0  0  0  0  0
  147.8336  141.7068  154.0839 C   0  0  2  0  0  0  0  0  0  0  0  0
  147.3220  140.6681  153.0708 C   0  0  0  0  0  0  0  0  0  0  0  0
  148.6934  141.0983  155.2133 C   0  0  0  0  0  0  0  0  0  0  0  0
  149.3263  142.1104  156.0535 N   0  0  0  0  0  0  0  0  0  0  0  0
  150.5209  141.9806  156.6464 C   0  0  0  0  0  0  0  0  0  0  0  0
  151.2320  140.9800  156.5543 O   0  0  0  0  0  0  0  0  0  0  0  0
  150.8489  143.0758  157.3461 N   0  0  0  0  0  0  0  0  0  0  0  0
  152.0843  143.2537  158.1100 C   0  0  2  0  0  0  0  0  0  0  0  0
  152.4661  141.9557  158.8211 C   0  0  0  0  0  0  0  0  0  0  0  0
  152.7175  142.3789  160.2647 C   0  0  0  0  0  0  0  0  0  0  0  0
  151.8557  143.4900  160.4336 O   0  0  0  0  0  0  0  0  0  0  0  0
  151.9625  144.2815  159.2596 C   0  0  2  0  0  0  0  0  0  0  0  0
  150.8050  145.2914  159.1969 C   0  0  0  0  0  0  0  0  0  0  0  0
  145.6317  143.5044  153.6445 S   0  0  0  0  0  0  0  0  0  0  0  0
  143.2660  145.1930  156.0092 H   0  0  0  0  0  0  0  0  0  0  0  0
  142.7989  144.4822  154.4638 H   0  0  0  0  0  0  0  0  0  0  0  0
  143.9047  145.8571  154.5052 H   0  0  0  0  0  0  0  0  0  0  0  0
  145.0083  143.5513  157.2299 H   0  0  0  0  0  0  0  0  0  0  0  0
  148.4717  142.3951  153.5272 H   0  0  0  0  0  0  0  0  0  0  0  0
  146.7472  141.1480  152.2780 H   0  0  0  0  0  0  0  0  0  0  0  0
  146.6772  139.9303  153.5488 H   0  0  0  0  0  0  0  0  0  0  0  0
  148.1437  140.1326  152.5951 H   0  0  0  0  0  0  0  0  0  0  0  0
  148.0862  140.4387  155.8359 H   0  0  0  0  0  0  0  0  0  0  0  0
  149.4830  140.4774  154.7893 H   0  0  0  0  0  0  0  0  0  0  0  0
  148.8192  142.9729  156.1876 H   0  0  0  0  0  0  0  0  0  0  0  0
  150.1989  143.8481  157.3517 H   0  0  0  0  0  0  0  0  0  0  0  0
  152.8955  143.5541  157.4439 H   0  0  0  0  0  0  0  0  0  0  0  0
  151.6441  141.2386  158.7954 H   0  0  0  0  0  0  0  0  0  0  0  0
  153.3374  141.4733  158.3777 H   0  0  0  0  0  0  0  0  0  0  0  0
  152.5010  141.5863  160.9810 H   0  0  0  0  0  0  0  0  0  0  0  0
  153.7527  142.6951  160.4037 H   0  0  0  0  0  0  0  0  0  0  0  0
  152.9009  144.8349  159.3271 H   0  0  0  0  0  0  0  0  0  0  0  0
  150.8676  145.9051  158.2980 H   0  0  0  0  0  0  0  0  0  0  0  0
  150.8330  145.9620  160.0555 H   0  0  0  0  0  0  0  0  0  0  0  0
  149.8349  144.7942  159.2022 H   0  0  0  0  0  0  0  0  0  0  0  0
  1  2  1  0  0  0  0
  1 20  1  0  0  0  0
  1 21  1  0  0  0  0
  1 22  1  0  0  0  0
  2 19  1  0  0  0  0
  2  3  2  0  0  0  0
  3  4  1  0  0  0  0
  3 23  1  0  0  0  0
  4  5  2  0  0  0  0
  5  6  1  0  0  0  0
  5 19  1  0  0  0  0
  6  7  1  0  0  0  0
  6  8  1  0  0  0  0
  6 24  1  0  0  0  0
  7 25  1  0  0  0  0
  7 26  1  0  0  0  0
  7 27  1  0  0  0  0
  8  9  1  0  0  0  0
  8 28  1  0  0  0  0
  8 29  1  0  0  0  0
  9 10  1  0  0  0  0
  9 30  1  0  0  0  0
 10 11  2  0  0  0  0
 10 12  1  0  0  0  0
 12 13  1  0  0  0  0
 12 31  1  0  0  0  0
 13 17  1  0  0  0  0
 13 14  1  0  0  0  0
 13 32  1  0  0  0  0
 14 15  1  0  0  0  0
 14 33  1  0  0  0  0
 14 34  1  0  0  0  0
 15 16  1  0  0  0  0
 15 35  1  0  0  0  0
 15 36  1  0  0  0  0
 16 17  1  0  0  0  0
 17 18  1  0  0  0  0
 17 37  1  0  0  0  0
 18 38  1  0  0  0  0
 18 39  1  0  0  0  0
 18 40  1  0  0  0  0
M  END
> <s_m_source_file>
AV-unprocessed.smi

> <i_m_source_file_index>
2445

> <i_lp_mmshare_version>
43012

> <i_f3d_flags>
0

> <s_epik_input>
W0NIM11jMVtjSF1uYyhzMSlbQ0BIXShbQ0gzXSlbQ0gyXVtOSF1DKD1PKVtOSF1bQ0BASF0yW0NIMl1bQ0gyXU9bQ0BIXTJbQ0gzXQ==

> <s_epik_cmdline>
J2VwaWtfcHl0aG9uJywgJy1waCcsICc3LjAnLCAnLXRuJywgJzgnLCAnLW1hJywgJzIwMCcsICctbWV0YWxfYmluZGluZycsICctaW1hZScsICc8aW5maWxlLm1hZT4nLCAnLW9tYWUnLCAnPG91dGZpbGUubWFlPic=

> <r_epik_Ionization_Penalty>
0.000649483

> <r_epik_Ionization_Penalty_Charging>
0

> <r_epik_Ionization_Penalty_Neutral>
0.000649483

> <r_epik_State_Penalty>
0.000379895

> <r_epik_Charging_Adjusted_Penalty>
0.000379895

> <i_epik_Tot_Q>
0

> <i_epik_Tot_abs_Q>
0

> <r_epik_Metal_State_Penalty>
-0

> <b_epik_Metal_Only>
0

> <s_lp_Force_Field>
OPLS_2005

> <r_lp_Energy>
6.28074

> <b_lp_Chiralities_Consistent>
1

> <s_lp_Variant>
AV-unprocessed.smi:2445-5

> <Gold.Version>
5.8.1

> <Gold.Id.Protein>
6NUR|6NUR_protein|mol2

> <Gold.PLP.Fitness>
43.8068

> <Gold.PLP.PLP>
-41.7161

> <Gold.PLP.part.hbond>
-1.9237

> <Gold.PLP.part.metal>
0.0000

> <Gold.PLP.part.buried>
-6.2561

> <Gold.PLP.part.nonpolar>
-34.6800

> <Gold.PLP.part.repulsive>
0.3472

> <Gold.PLP.ligand.clash>
0.0000

> <Gold.PLP.ligand.torsion>
0.5653

> <Gold.PLP.Chemscore.Hbond>
1.0448

> <Gold.PLP.Chemscore.CHOScore>
0.0000

> <Gold.PLP.Chemscore.Metal>
0.0000

> <Gold.Chemscore.Hbonds>
donor molecule, donor type, donor heavy atom, donor atom, acceptor molecule, acceptor atom, score
      L1  H     9    30       P1  8028  0.80
      L1  H    12    31       P1  8028  0.21

> <Gold.PLP.Chemscore.Internal.Correction>
0.0869

> <Gold.Rescore>
     Score         DG    S(hbond)    S(metal)    S(lipo)     H(rot)  DE(clash)    DE(int)     intcor
     15.64     -19.59       1.59        0.00     108.64       1.53       1.67       2.27       ----

> <Gold.Chemscore.Fitness>
15.6433

> <Gold.Chemscore.DG>
-19.5890

> <Gold.Chemscore.ZeroCoef>
-5.4800

> <Gold.Chemscore.Hbond>
1.5933

> <Gold.Chemscore.Metal>
0.0000

> <Gold.Chemscore.Lipo>
108.6380

> <Gold.Chemscore.Internal_Hbond>
0.0000

> <Gold.Chemscore.DEClash>
1.6708

> <Gold.Chemscore.DEInternal>
2.2748

> <Gold.Chemscore.Rot>
1.5325

> <Gold.Chemscore.Internal.Correction>
   9.000000E+99

> <Gold.Chemscore.Hbonds>
donor molecule, donor type, donor heavy atom, donor atom, acceptor molecule, acceptor atom, score
      L1  H     9    30       P1  8028  0.79
      L1  H    12    31       P1  8028  0.20

> <Gold.Chemscore.Hbond.Weighted>
-5.3216

> <Gold.Chemscore.Metal.Weighted>
-0.0000

> <Gold.Chemscore.Lipo.Weighted>
-12.7106

> <Gold.Chemscore.Internal_Hbond.Weighted>
0.0000

> <Gold.Chemscore.DEClash.Weighted>
1.6708

> <Gold.Chemscore.DEInternal.Weighted>
2.2748

> <Gold.Chemscore.Rot.Weighted>
3.9233

> <Gold.Chemscore.Internal.Correction.Weighted>
   9.000000E+99

> <Gold.Protein.RotatedTorsions>
[ 6907 6896 6895 6894 ] final  -16.01 input  -60.11 | X-H torsion
[ 7974 7965 7964 7962 ] final   67.98 input  175.53 | X-H torsion
[ 8008 7997 7996 7995 ] final   95.50 input   59.86 | X-H torsion
[ 10167 10162 10161 10158 ] final -138.68 input  -65.29 | X-H torsion
[ 10718 10713 10712 10709 ] final  149.66 input   66.30 | X-H torsion
[ 10763 10752 10751 10750 ] final   74.64 input  -60.55 | X-H torsion
[ 11005 11000 10999 10996 ] final   -2.72 input  -57.11 | X-H torsion

> <Gold.Protein.ActiveResidues>
 VAL166  LYS551  ARG553  GLY616  TRP617  ASP618  TYR619  PRO620  LYS621  CYS622 
 ASP623  PHE694  ASN695  SER759  ASP760  ASP761  ALA762  ILE779  LEU786  VAL792 
 PHE793  MET794  SER795  GLU796  ALA797  LYS798  CYS799  TRP800  GLU811  SER814 

> <Gold.Protein.RotatedAtoms>
  151.3151  135.0804  159.9285 H   0  0  0  0  0  0  0  0  0  0  0  0  # atno 6907 bound_to 6896
  152.5269  133.9696  159.7766 H   0  0  0  0  0  0  0  0  0  0  0  0  # atno 6908 bound_to 6896
  151.0006  133.6007  159.2725 H   0  0  0  0  0  0  0  0  0  0  0  0  # atno 6909 bound_to 6896
  145.8081  139.3017  143.1115 H   0  0  0  0  0  0  0  0  0  0  0  0  # atno 7974 bound_to 7965
  156.0695  140.3285  155.7559 H   0  0  0  0  0  0  0  0  0  0  0  0  # atno 8008 bound_to 7997
  155.5327  140.0595  157.2903 H   0  0  0  0  0  0  0  0  0  0  0  0  # atno 8009 bound_to 7997
  154.4523  140.1924  156.0501 H   0  0  0  0  0  0  0  0  0  0  0  0  # atno 8010 bound_to 7997
  139.8454  143.7267  152.2661 H   0  0  0  0  0  0  0  0  0  0  0  0  # atno 10167 bound_to 10162
  157.2934  131.0857  151.1445 H   0  0  0  0  0  0  0  0  0  0  0  0  # atno 10718 bound_to 10713
  153.0600  135.5018  154.8072 H   0  0  0  0  0  0  0  0  0  0  0  0  # atno 10763 bound_to 10752
  154.6868  135.2977  154.9538 H   0  0  0  0  0  0  0  0  0  0  0  0  # atno 10764 bound_to 10752
  154.0306  135.6730  153.4833 H   0  0  0  0  0  0  0  0  0  0  0  0  # atno 10765 bound_to 10752
  140.6614  133.9317  155.8438 H   0  0  0  0  0  0  0  0  0  0  0  0  # atno 11005 bound_to 11000
  145.9807  140.8685  143.0116 LP  0  0  0  0  0  0  0  0  0  0  0  0  # atno 17320 bound_to 7965
  144.6760  140.2075  143.7380 LP  0  0  0  0  0  0  0  0  0  0  0  0  # atno 17321 bound_to 7965
  139.7517  144.7532  151.0496 LP  0  0  0  0  0  0  0  0  0  0  0  0  # atno 17342 bound_to 10162
  140.7793  143.4852  150.9966 LP  0  0  0  0  0  0  0  0  0  0  0  0  # atno 17343 bound_to 10162
  157.2833  130.6760  149.6077 LP  0  0  0  0  0  0  0  0  0  0  0  0  # atno 17370 bound_to 10713
  155.9668  130.4443  150.5456 LP  0  0  0  0  0  0  0  0  0  0  0  0  # atno 17371 bound_to 10713
  141.0462  134.0550  157.3841 LP  0  0  0  0  0  0  0  0  0  0  0  0  # atno 17394 bound_to 11000
  139.9012  135.0165  156.7275 LP  0  0  0  0  0  0  0  0  0  0  0  0  # atno 17395 bound_to 11000

$$$$
