AV-unprocessed.smi:1154|AV-procd|sdf|4900|dock10
  -GOLD-   22720 3473D 1   1.00000     0.00000
 Structure written by MMmdl.
 42 43  0  0  0  0  0  0  0  0  2 V2000
  151.9129  145.8723  159.9670 C   0  0  0  0  0  0  0  0  0  0  0  0
  151.1063  144.6245  160.3677 C   0  0  2  0  0  0  0  0  0  0  0  0
  151.9213  143.6284  161.2131 C   0  0  0  0  0  0  0  0  0  0  0  0
  152.9456  142.8599  160.3584 C   0  0  1  0  0  0  0  0  0  0  0  0
  153.7063  141.8222  161.1963 C   0  0  0  0  0  0  0  0  0  0  0  0
  152.2497  142.2060  159.1490 C   0  0  0  0  0  0  0  0  0  0  0  0
  151.5130  143.2099  158.3383 N   0  3  1  0  0  0  0  0  0  0  0  0
  150.9737  142.6322  157.0812 C   0  0  0  0  0  0  0  0  0  0  0  0
  149.6876  141.8230  157.3153 C   0  0  0  0  0  0  0  0  0  0  0  0
  149.5992  140.7193  156.3698 N   0  0  0  0  0  0  0  0  0  0  0  0
  149.4705  140.8694  155.0424 C   0  0  0  0  0  0  0  0  0  0  0  0
  149.3861  141.9682  154.4950 O   0  0  0  0  0  0  0  0  0  0  0  0
  149.4208  139.5910  154.2011 C   0  0  0  0  0  0  0  0  0  0  0  0
  150.5947  138.7627  154.4115 N   0  0  0  0  0  0  0  0  0  0  0  0
  150.7493  137.4376  154.3791 C   0  0  0  0  0  0  0  0  0  0  0  0
  151.9972  137.0840  154.6446 N   0  0  0  0  0  0  0  0  0  0  0  0
  152.6327  138.2984  154.8439 N   0  0  0  0  0  0  0  0  0  0  0  0
  151.8060  139.2982  154.7057 N   0  0  0  0  0  0  0  0  0  0  0  0
  150.4839  143.9160  159.1481 C   0  0  0  0  0  0  0  0  0  0  0  0
  152.7465  145.6271  159.3090 H   0  0  0  0  0  0  0  0  0  0  0  0
  152.3201  146.3742  160.8453 H   0  0  0  0  0  0  0  0  0  0  0  0
  151.2831  146.5922  159.4435 H   0  0  0  0  0  0  0  0  0  0  0  0
  150.2850  144.9802  160.9915 H   0  0  0  0  0  0  0  0  0  0  0  0
  152.4216  144.1490  162.0307 H   0  0  0  0  0  0  0  0  0  0  0  0
  151.2378  142.9174  161.6796 H   0  0  0  0  0  0  0  0  0  0  0  0
  153.6818  143.5708  159.9815 H   0  0  0  0  0  0  0  0  0  0  0  0
  153.0317  141.0698  161.6063 H   0  0  0  0  0  0  0  0  0  0  0  0
  154.2236  142.2954  162.0315 H   0  0  0  0  0  0  0  0  0  0  0  0
  154.4557  141.3053  160.5964 H   0  0  0  0  0  0  0  0  0  0  0  0
  153.0020  141.7178  158.5278 H   0  0  0  0  0  0  0  0  0  0  0  0
  151.5588  141.4285  159.4798 H   0  0  0  0  0  0  0  0  0  0  0  0
  150.7384  143.4400  156.3863 H   0  0  0  0  0  0  0  0  0  0  0  0
  151.7371  142.0215  156.5964 H   0  0  0  0  0  0  0  0  0  0  0  0
  149.6552  141.4125  158.3245 H   0  0  0  0  0  0  0  0  0  0  0  0
  148.8175  142.4723  157.2024 H   0  0  0  0  0  0  0  0  0  0  0  0
  149.6546  139.7827  156.7434 H   0  0  0  0  0  0  0  0  0  0  0  0
  148.5300  139.0173  154.4597 H   0  0  0  0  0  0  0  0  0  0  0  0
  149.3492  139.8390  153.1410 H   0  0  0  0  0  0  0  0  0  0  0  0
  149.9532  136.7380  154.1706 H   0  0  0  0  0  0  0  0  0  0  0  0
  149.7387  143.1927  159.4834 H   0  0  0  0  0  0  0  0  0  0  0  0
  149.9508  144.6482  158.5427 H   0  0  0  0  0  0  0  0  0  0  0  0
  152.1964  143.9011  158.0629 H   0  0  0  0  0  0  0  0  0  0  0  0
  1  2  1  0  0  0  0
  1 20  1  0  0  0  0
  1 21  1  0  0  0  0
  1 22  1  0  0  0  0
  2 19  1  0  0  0  0
  2  3  1  0  0  0  0
  2 23  1  0  0  0  0
  3  4  1  0  0  0  0
  3 24  1  0  0  0  0
  3 25  1  0  0  0  0
  4  5  1  0  0  0  0
  4  6  1  0  0  0  0
  4 26  1  0  0  0  0
  5 27  1  0  0  0  0
  5 28  1  0  0  0  0
  5 29  1  0  0  0  0
  6  7  1  0  0  0  0
  6 30  1  0  0  0  0
  6 31  1  0  0  0  0
  7  8  1  0  0  0  0
  7 19  1  0  0  0  0
  7 42  1  0  0  0  0
  8  9  1  0  0  0  0
  8 32  1  0  0  0  0
  8 33  1  0  0  0  0
  9 10  1  0  0  0  0
  9 34  1  0  0  0  0
  9 35  1  0  0  0  0
 10 11  1  0  0  0  0
 10 36  1  0  0  0  0
 11 12  2  0  0  0  0
 11 13  1  0  0  0  0
 13 14  1  0  0  0  0
 13 37  1  0  0  0  0
 13 38  1  0  0  0  0
 14 18  1  0  0  0  0
 14 15  1  0  0  0  0
 15 16  2  0  0  0  0
 15 39  1  0  0  0  0
 16 17  1  0  0  0  0
 17 18  2  0  0  0  0
 19 40  1  0  0  0  0
 19 41  1  0  0  0  0
M  CHG  1   7   1
M  END
> <s_m_source_file>
AV-unprocessed.smi

> <i_m_source_file_index>
1154

> <i_lp_mmshare_version>
43012

> <i_f3d_flags>
0

> <s_epik_input>
W0NIM11bQ0BASF0xW0NIMl1bQ0BASF0oW0NIM10pW0NIMl1OKFtDSDJdMSlbQ0gyXVtDSDJdW05IXUMoPU8pW0NIMl1uMltjSF1ubm4y

> <s_epik_cmdline>
J2VwaWtfcHl0aG9uJywgJy1waCcsICc3LjAnLCAnLXRuJywgJzgnLCAnLW1hJywgJzIwMCcsICctbWV0YWxfYmluZGluZycsICctaW1hZScsICc8aW5maWxlLm1hZT4nLCAnLW9tYWUnLCAnPG91dGZpbGUubWFlPic=

> <r_lp_tautomer_probability>
1

> <r_epik_Ionization_Penalty>
0.00217773

> <r_epik_Ionization_Penalty_Charging>
0.00217329

> <r_epik_Ionization_Penalty_Neutral>
4.43997e-06

> <r_epik_State_Penalty>
0.00149294

> <r_epik_Charging_Adjusted_Penalty>
0.00366623

> <i_epik_Tot_Q>
1

> <i_epik_Tot_abs_Q>
1

> <r_epik_Metal_State_Penalty>
-0

> <b_epik_Metal_Only>
0

> <s_lp_Force_Field>
OPLS_2005

> <r_lp_Energy>
22.5946

> <b_lp_Chiralities_Consistent>
1

> <s_lp_Variant>
AV-unprocessed.smi:1154-1

> <Gold.Version>
5.8.1

> <Gold.Id.Protein>
6NUR|6NUR_protein|mol2

> <Gold.PLP.Fitness>
49.4744

> <Gold.PLP.PLP>
-42.3430

> <Gold.PLP.part.hbond>
-3.6540

> <Gold.PLP.part.metal>
0.0000

> <Gold.PLP.part.buried>
-3.3892

> <Gold.PLP.part.nonpolar>
-35.6326

> <Gold.PLP.part.repulsive>
1.1805

> <Gold.PLP.ligand.clash>
0.0000

> <Gold.PLP.ligand.torsion>
0.7199

> <Gold.PLP.Chemscore.Hbond>
1.9336

> <Gold.PLP.Chemscore.CHOScore>
0.9133

> <Gold.PLP.Chemscore.Metal>
0.0000

> <Gold.Chemscore.Hbonds>
donor molecule, donor type, donor heavy atom, donor atom, acceptor molecule, acceptor atom, score
      P1  H  7989  7998       L1    18  0.85
      P1  H  8011  8017       L1    12  0.17
      P1  H 10752 10765       L1    16  0.91
      L1  C    15    39       P1  7948  0.90

> <Gold.PLP.Chemscore.Internal.Correction>
0.0306

> <Gold.Rescore>
     Score         DG    S(hbond)    S(metal)    S(lipo)     H(rot)  DE(clash)    DE(int)     intcor
     15.01     -15.77       1.79        0.00      95.28       2.67       0.04       0.72       ----

> <Gold.Chemscore.Fitness>
15.0085

> <Gold.Chemscore.DG>
-15.7736

> <Gold.Chemscore.ZeroCoef>
-5.4800

> <Gold.Chemscore.Hbond>
1.7888

> <Gold.Chemscore.Metal>
0.0000

> <Gold.Chemscore.Lipo>
95.2780

> <Gold.Chemscore.Internal_Hbond>
0.0000

> <Gold.Chemscore.DEClash>
0.0428

> <Gold.Chemscore.DEInternal>
0.7223

> <Gold.Chemscore.Rot>
2.6674

> <Gold.Chemscore.Internal.Correction>
   9.000000E+99

> <Gold.Chemscore.Hbonds>
donor molecule, donor type, donor heavy atom, donor atom, acceptor molecule, acceptor atom, score
      P1  H  7989  7998       L1    18  0.14
      P1  H  8011  8017       L1    12  0.18
      P1  H 10752 10765       L1    16  0.86

> <Gold.Chemscore.Hbond.Weighted>
-5.9747

> <Gold.Chemscore.Metal.Weighted>
-0.0000

> <Gold.Chemscore.Lipo.Weighted>
-11.1475

> <Gold.Chemscore.Internal_Hbond.Weighted>
0.0000

> <Gold.Chemscore.DEClash.Weighted>
0.0428

> <Gold.Chemscore.DEInternal.Weighted>
0.7223

> <Gold.Chemscore.Rot.Weighted>
6.8286

> <Gold.Chemscore.Internal.Correction.Weighted>
   9.000000E+99

> <Gold.Protein.RotatedTorsions>
[ 6907 6896 6895 6894 ] final   22.24 input  -60.11 | X-H torsion
[ 7974 7965 7964 7962 ] final -119.82 input  175.53 | X-H torsion
[ 8008 7997 7996 7995 ] final  -41.76 input   59.86 | X-H torsion
[ 10167 10162 10161 10158 ] final  123.92 input  -65.29 | X-H torsion
[ 10718 10713 10712 10709 ] final   -8.44 input   66.30 | X-H torsion
[ 10763 10752 10751 10750 ] final  157.03 input  -60.55 | X-H torsion
[ 11005 11000 10999 10996 ] final   98.14 input  -57.11 | X-H torsion

> <Gold.Protein.ActiveResidues>
 VAL166  LYS551  ARG553  GLY616  TRP617  ASP618  TYR619  PRO620  LYS621  CYS622 
 ASP623  PHE694  ASN695  SER759  ASP760  ASP761  ALA762  ILE779  LEU786  VAL792 
 PHE793  MET794  SER795  GLU796  ALA797  LYS798  CYS799  TRP800  GLU811  SER814 

> <Gold.Protein.RotatedAtoms>
  151.9242  135.0285  160.0524 H   0  0  0  0  0  0  0  0  0  0  0  0  # atno 6907 bound_to 6896
  152.2174  133.4952  159.5152 H   0  0  0  0  0  0  0  0  0  0  0  0  # atno 6908 bound_to 6896
  150.6991  134.1304  159.4110 H   0  0  0  0  0  0  0  0  0  0  0  0  # atno 6909 bound_to 6896
  145.0582  140.8270  143.4168 H   0  0  0  0  0  0  0  0  0  0  0  0  # atno 7974 bound_to 7965
  154.4002  140.1491  156.3244 H   0  0  0  0  0  0  0  0  0  0  0  0  # atno 8008 bound_to 7997
  155.8500  140.3458  155.5666 H   0  0  0  0  0  0  0  0  0  0  0  0  # atno 8009 bound_to 7997
  155.7994  140.0868  157.1956 H   0  0  0  0  0  0  0  0  0  0  0  0  # atno 8010 bound_to 7997
  139.5772  144.6969  151.3623 H   0  0  0  0  0  0  0  0  0  0  0  0  # atno 10167 bound_to 10162
  156.7025  130.5098  149.5913 H   0  0  0  0  0  0  0  0  0  0  0  0  # atno 10718 bound_to 10713
  154.1937  135.2793  155.3013 H   0  0  0  0  0  0  0  0  0  0  0  0  # atno 10763 bound_to 10752
  154.5909  135.5560  153.7281 H   0  0  0  0  0  0  0  0  0  0  0  0  # atno 10764 bound_to 10752
  153.0106  135.6368  154.2075 H   0  0  0  0  0  0  0  0  0  0  0  0  # atno 10765 bound_to 10752
  139.8773  134.9035  156.4411 H   0  0  0  0  0  0  0  0  0  0  0  0  # atno 11005 bound_to 11000
  145.1442  139.2554  143.5474 LP  0  0  0  0  0  0  0  0  0  0  0  0  # atno 17320 bound_to 7965
  146.3523  140.1127  142.8603 LP  0  0  0  0  0  0  0  0  0  0  0  0  # atno 17321 bound_to 7965
  140.7053  143.7529  150.7472 LP  0  0  0  0  0  0  0  0  0  0  0  0  # atno 17342 bound_to 10162
  140.1052  143.4751  152.2402 LP  0  0  0  0  0  0  0  0  0  0  0  0  # atno 17343 bound_to 10162
  156.1718  130.6442  151.0847 LP  0  0  0  0  0  0  0  0  0  0  0  0  # atno 17370 bound_to 10713
  157.6967  131.0791  150.6946 LP  0  0  0  0  0  0  0  0  0  0  0  0  # atno 17371 bound_to 10713
  140.8998  133.7787  155.9667 LP  0  0  0  0  0  0  0  0  0  0  0  0  # atno 17394 bound_to 11000
  140.8663  134.2780  157.5211 LP  0  0  0  0  0  0  0  0  0  0  0  0  # atno 17395 bound_to 11000

$$$$
