AV-unprocessed.smi:3018|AV-procd|sdf|11483|dock1
  -GOLD-   2272016423D 1   1.00000     0.00000
 Structure written by MMmdl.
 44 45  0  0  0  0  0  0  0  0  2 V2000
  152.1777  138.4585  159.0605 C   0  0  0  0  0  0  0  0  0  0  0  0
  152.2639  139.9873  158.9718 C   0  0  0  0  0  0  0  0  0  0  0  0
  153.4155  140.5684  159.8123 C   0  0  2  0  0  0  0  0  0  0  0  0
  153.6633  141.8968  159.3536 O   0  0  0  0  0  0  0  0  0  0  0  0
  152.5636  142.8035  159.3858 C   0  0  0  0  0  0  0  0  0  0  0  0
  152.8302  144.0107  158.4634 C   0  0  0  0  0  0  0  0  0  0  0  0
  151.7198  145.0667  158.5917 C   0  0  0  0  0  0  0  0  0  0  0  0
  151.5409  145.5163  160.0508 C   0  0  0  0  0  0  0  0  0  0  0  0
  151.2816  144.3161  160.9749 C   0  0  0  0  0  0  0  0  0  0  0  0
  152.3952  143.2649  160.8437 C   0  0  0  0  0  0  0  0  0  0  0  0
  154.6863  139.7186  159.6610 C   0  0  0  0  0  0  0  0  0  0  0  0
  154.8807  139.0760  158.6290 O   0  0  0  0  0  0  0  0  0  0  0  0
  155.5389  139.7337  160.6979 N   0  0  0  0  0  0  0  0  0  0  0  0
  156.7786  138.9657  160.7909 C   0  0  0  0  0  0  0  0  0  0  0  0
  157.9770  139.8413  161.2112 C   0  0  0  0  0  0  0  0  0  0  0  0
  158.4661  140.7330  160.0989 C   0  0  0  0  0  0  0  0  0  0  0  0
  157.9550  140.8303  158.9284 N   0  0  0  0  0  0  0  0  0  0  0  0
  158.7268  141.7576  158.3387 N   0  0  0  0  0  0  0  0  0  0  0  0
  159.6861  142.1980  159.1560 C   0  0  0  0  0  0  0  0  0  0  0  0
  160.5134  143.0489  158.8364 O   0  0  0  0  0  0  0  0  0  0  0  0
  159.5405  141.5368  160.3179 N   0  5  0  0  0  0  0  0  0  0  0  0
  158.5444  142.0419  157.3876 H   0  0  0  0  0  0  0  0  0  0  0  0
  151.3633  138.0799  158.4424 H   0  0  0  0  0  0  0  0  0  0  0  0
  151.9972  138.1317  160.0848 H   0  0  0  0  0  0  0  0  0  0  0  0
  153.1010  137.9914  158.7172 H   0  0  0  0  0  0  0  0  0  0  0  0
  152.3946  140.2684  157.9254 H   0  0  0  0  0  0  0  0  0  0  0  0
  151.3140  140.4209  159.2881 H   0  0  0  0  0  0  0  0  0  0  0  0
  153.1079  140.5789  160.8589 H   0  0  0  0  0  0  0  0  0  0  0  0
  151.6392  142.3116  159.0808 H   0  0  0  0  0  0  0  0  0  0  0  0
  153.7912  144.4599  158.7167 H   0  0  0  0  0  0  0  0  0  0  0  0
  152.9032  143.6921  157.4241 H   0  0  0  0  0  0  0  0  0  0  0  0
  151.9510  145.9279  157.9641 H   0  0  0  0  0  0  0  0  0  0  0  0
  150.7808  144.6556  158.2186 H   0  0  0  0  0  0  0  0  0  0  0  0
  152.4360  146.0450  160.3816 H   0  0  0  0  0  0  0  0  0  0  0  0
  150.7173  146.2271  160.1235 H   0  0  0  0  0  0  0  0  0  0  0  0
  151.2078  144.6525  162.0094 H   0  0  0  0  0  0  0  0  0  0  0  0
  150.3205  143.8634  160.7275 H   0  0  0  0  0  0  0  0  0  0  0  0
  152.1717  142.4074  161.4791 H   0  0  0  0  0  0  0  0  0  0  0  0
  153.3347  143.6828  161.2083 H   0  0  0  0  0  0  0  0  0  0  0  0
  155.2939  140.2961  161.4995 H   0  0  0  0  0  0  0  0  0  0  0  0
  156.6724  138.1075  161.4574 H   0  0  0  0  0  0  0  0  0  0  0  0
  156.9733  138.5515  159.8017 H   0  0  0  0  0  0  0  0  0  0  0  0
  157.6872  140.4557  162.0648 H   0  0  0  0  0  0  0  0  0  0  0  0
  158.7925  139.2093  161.5652 H   0  0  0  0  0  0  0  0  0  0  0  0
  1  2  1  0  0  0  0
  1 23  1  0  0  0  0
  1 24  1  0  0  0  0
  1 25  1  0  0  0  0
  2  3  1  0  0  0  0
  2 26  1  0  0  0  0
  2 27  1  0  0  0  0
  3  4  1  0  0  0  0
  3 11  1  0  0  0  0
  3 28  1  0  0  0  0
  4  5  1  0  0  0  0
  5 10  1  0  0  0  0
  5  6  1  0  0  0  0
  5 29  1  0  0  0  0
  6  7  1  0  0  0  0
  6 30  1  0  0  0  0
  6 31  1  0  0  0  0
  7  8  1  0  0  0  0
  7 32  1  0  0  0  0
  7 33  1  0  0  0  0
  8  9  1  0  0  0  0
  8 34  1  0  0  0  0
  8 35  1  0  0  0  0
  9 10  1  0  0  0  0
  9 36  1  0  0  0  0
  9 37  1  0  0  0  0
 10 38  1  0  0  0  0
 10 39  1  0  0  0  0
 11 12  2  0  0  0  0
 11 13  1  0  0  0  0
 13 14  1  0  0  0  0
 13 40  1  0  0  0  0
 14 15  1  0  0  0  0
 14 41  1  0  0  0  0
 14 42  1  0  0  0  0
 15 16  1  0  0  0  0
 15 43  1  0  0  0  0
 15 44  1  0  0  0  0
 16 21  1  0  0  0  0
 16 17  2  0  0  0  0
 17 18  1  0  0  0  0
 18 22  1  0  0  0  0
 18 19  1  0  0  0  0
 19 20  2  0  0  0  0
 19 21  1  0  0  0  0
M  CHG  1  21  -1
M  END
> <s_m_source_file>
AV-unprocessed.smi

> <i_m_source_file_index>
3018

> <i_lp_mmshare_version>
43012

> <i_f3d_flags>
0

> <s_epik_input>
W0NIMl0xW0NIMl1bQ0gyXVtDSDJdW0NIMl1bQ0hdMU9bQ0BASF0oW0NIMl1bQ0gzXSlDKD1PKVtOSF1bQ0gyXVtDSDJdYzJuW25IXWMoPU8pW25IXTI=

> <s_epik_cmdline>
J2VwaWtfcHl0aG9uJywgJy1waCcsICc3LjAnLCAnLXRuJywgJzgnLCAnLW1hJywgJzIwMCcsICctbWV0YWxfYmluZGluZycsICctaW1hZScsICc8aW5maWxlLm1hZT4nLCAnLW9tYWUnLCAnPG91dGZpbGUubWFlPic=

> <r_lp_tautomer_probability>
1

> <r_epik_Ionization_Penalty>
13.7173

> <r_epik_Ionization_Penalty_Charging>
13.7173

> <r_epik_Ionization_Penalty_Neutral>
5.37575e-06

> <r_epik_State_Penalty>
4.05785

> <r_epik_Charging_Adjusted_Penalty>
17.7751

> <i_epik_Tot_Q>
-1

> <i_epik_Tot_abs_Q>
1

> <r_epik_Metal_State_Penalty>
0.460256

> <b_epik_Metal_Only>
1

> <s_lp_Force_Field>
OPLS_2005

> <r_lp_Energy>
25.0633

> <b_lp_Chiralities_Consistent>
1

> <s_lp_Variant>
AV-unprocessed.smi:3018-5

> <Gold.Version>
5.8.1

> <Gold.Id.Protein>
6NUR|6NUR_protein|mol2

> <Gold.PLP.Fitness>
44.7120

> <Gold.PLP.PLP>
-43.8392

> <Gold.PLP.part.hbond>
-2.6058

> <Gold.PLP.part.metal>
0.0000

> <Gold.PLP.part.buried>
-5.9646

> <Gold.PLP.part.nonpolar>
-34.8401

> <Gold.PLP.part.repulsive>
0.4499

> <Gold.PLP.ligand.clash>
0.0000

> <Gold.PLP.ligand.torsion>
1.1560

> <Gold.PLP.Chemscore.Hbond>
1.0000

> <Gold.PLP.Chemscore.CHOScore>
0.0000

> <Gold.PLP.Chemscore.Metal>
0.0000

> <Gold.Chemscore.Hbonds>
donor molecule, donor type, donor heavy atom, donor atom, acceptor molecule, acceptor atom, score
      P1  H  7997  8009       L1    12  1.00

> <Gold.PLP.Chemscore.Internal.Correction>
0.1848

> <Gold.Rescore>
     Score         DG    S(hbond)    S(metal)    S(lipo)     H(rot)  DE(clash)    DE(int)     intcor
     12.34     -12.92       0.97        0.00     100.96       2.98       0.07       0.50       ----

> <Gold.Chemscore.Fitness>
12.3382

> <Gold.Chemscore.DG>
-12.9167

> <Gold.Chemscore.ZeroCoef>
-5.4800

> <Gold.Chemscore.Hbond>
0.9720

> <Gold.Chemscore.Metal>
0.0000

> <Gold.Chemscore.Lipo>
100.9566

> <Gold.Chemscore.Internal_Hbond>
0.0000

> <Gold.Chemscore.DEClash>
0.0735

> <Gold.Chemscore.DEInternal>
0.5050

> <Gold.Chemscore.Rot>
2.9772

> <Gold.Chemscore.Internal.Correction>
   9.000000E+99

> <Gold.Chemscore.Hbonds>
donor molecule, donor type, donor heavy atom, donor atom, acceptor molecule, acceptor atom, score
      P1  H  7997  8009       L1    12  0.84

> <Gold.Chemscore.Hbond.Weighted>
-3.2464

> <Gold.Chemscore.Metal.Weighted>
-0.0000

> <Gold.Chemscore.Lipo.Weighted>
-11.8119

> <Gold.Chemscore.Internal_Hbond.Weighted>
0.0000

> <Gold.Chemscore.DEClash.Weighted>
0.0735

> <Gold.Chemscore.DEInternal.Weighted>
0.5050

> <Gold.Chemscore.Rot.Weighted>
7.6216

> <Gold.Chemscore.Internal.Correction.Weighted>
   9.000000E+99

> <Gold.Protein.RotatedTorsions>
[ 6907 6896 6895 6894 ] final  -20.16 input  -60.11 | X-H torsion
[ 7974 7965 7964 7962 ] final  152.81 input  175.53 | X-H torsion
[ 8008 7997 7996 7995 ] final  104.33 input   59.86 | X-H torsion
[ 10167 10162 10161 10158 ] final   35.63 input  -65.29 | X-H torsion
[ 10718 10713 10712 10709 ] final  -73.52 input   66.30 | X-H torsion
[ 10763 10752 10751 10750 ] final  -29.61 input  -60.55 | X-H torsion
[ 11005 11000 10999 10996 ] final   19.65 input  -57.11 | X-H torsion

> <Gold.Protein.ActiveResidues>
 VAL166  LYS551  ARG553  GLY616  TRP617  ASP618  TYR619  PRO620  LYS621  CYS622 
 ASP623  PHE694  ASN695  SER759  ASP760  ASP761  ALA762  ILE779  LEU786  VAL792 
 PHE793  MET794  SER795  GLU796  ALA797  LYS798  CYS799  TRP800  GLU811  SER814 

> <Gold.Protein.RotatedAtoms>
  151.2523  135.0626  159.9066 H   0  0  0  0  0  0  0  0  0  0  0  0  # atno 6907 bound_to 6896
  152.5378  134.0319  159.8038 H   0  0  0  0  0  0  0  0  0  0  0  0  # atno 6908 bound_to 6896
  151.0529  133.5560  159.2672 H   0  0  0  0  0  0  0  0  0  0  0  0  # atno 6909 bound_to 6896
  144.8197  139.6718  143.6106 H   0  0  0  0  0  0  0  0  0  0  0  0  # atno 7974 bound_to 7965
  156.1563  140.3149  155.8731 H   0  0  0  0  0  0  0  0  0  0  0  0  # atno 8008 bound_to 7997
  155.3872  140.0491  157.3059 H   0  0  0  0  0  0  0  0  0  0  0  0  # atno 8009 bound_to 7997
  154.5104  140.2162  155.9179 H   0  0  0  0  0  0  0  0  0  0  0  0  # atno 8010 bound_to 7997
  140.4204  144.1468  150.6147 H   0  0  0  0  0  0  0  0  0  0  0  0  # atno 10167 bound_to 10162
  156.0277  130.4396  150.2755 H   0  0  0  0  0  0  0  0  0  0  0  0  # atno 10718 bound_to 10713
  153.7674  135.6915  153.4913 H   0  0  0  0  0  0  0  0  0  0  0  0  # atno 10763 bound_to 10752
  153.1897  135.4475  155.0132 H   0  0  0  0  0  0  0  0  0  0  0  0  # atno 10764 bound_to 10752
  154.8130  135.3386  154.7186 H   0  0  0  0  0  0  0  0  0  0  0  0  # atno 10765 bound_to 10752
  140.4113  134.1615  155.7667 H   0  0  0  0  0  0  0  0  0  0  0  0  # atno 11005 bound_to 11000
  146.2502  139.6183  142.9432 LP  0  0  0  0  0  0  0  0  0  0  0  0  # atno 17320 bound_to 7965
  145.5134  141.0434  143.2475 LP  0  0  0  0  0  0  0  0  0  0  0  0  # atno 17321 bound_to 7965
  140.4540  143.2475  151.9309 LP  0  0  0  0  0  0  0  0  0  0  0  0  # atno 17342 bound_to 10162
  139.4782  144.5534  151.8351 LP  0  0  0  0  0  0  0  0  0  0  0  0  # atno 17343 bound_to 10162
  157.0858  131.0156  151.3140 LP  0  0  0  0  0  0  0  0  0  0  0  0  # atno 17370 bound_to 10713
  157.4892  130.7812  149.7491 LP  0  0  0  0  0  0  0  0  0  0  0  0  # atno 17371 bound_to 10713
  141.1820  133.8394  157.1225 LP  0  0  0  0  0  0  0  0  0  0  0  0  # atno 17394 bound_to 11000
  140.0265  134.9921  157.0696 LP  0  0  0  0  0  0  0  0  0  0  0  0  # atno 17395 bound_to 11000

$$$$
