AV-unprocessed.smi:1572|AV-procd|sdf|6330|dock3
  -GOLD-   22720 6543D 1   1.00000     0.00000
 Structure written by MMmdl.
 42 43  0  0  0  0  0  0  0  0  3 V2000
  146.7866  139.4712  151.6646 C   0  0  0  0  0  0  0  0  0  0  0  0
  146.4024  139.6583  153.0827 N   0  3  0  0  0  0  0  0  0  0  0  0
  147.0904  140.7908  153.7447 C   0  0  0  0  0  0  0  0  0  0  0  0
  148.5444  140.4369  154.1221 C   0  0  0  0  0  0  0  0  0  0  0  0
  148.5551  139.2681  155.0147 N   0  0  0  0  0  0  0  0  0  0  0  0
  149.8411  138.9758  155.6998 C   0  0  0  0  0  0  0  0  0  0  0  0
  151.0062  138.8626  154.6889 C   0  0  0  0  0  0  0  0  0  0  0  0
  150.1803  140.0967  156.7157 C   0  0  0  0  0  0  0  0  0  0  0  0
  149.7156  137.6431  156.4984 C   0  0  0  0  0  0  0  0  0  0  0  0
  148.9952  137.8095  157.7622 N   0  0  0  0  0  0  0  0  0  0  0  0
  148.8626  136.8947  158.7339 C   0  0  0  0  0  0  0  0  0  0  0  0
  149.4463  135.8118  158.6506 O   0  0  0  0  0  0  0  0  0  0  0  0
  148.0442  137.2834  159.7373 N   0  5  0  0  0  0  0  0  0  0  0  0
  147.7330  136.4208  160.7186 C   0  0  0  0  0  0  0  0  0  0  0  0
  147.6206  136.7993  162.0016 N   0  0  0  0  0  0  0  0  0  0  0  0
  147.2893  135.7531  162.8521 N   0  0  0  0  0  0  0  0  0  0  0  0
  147.1516  134.6085  162.1835 C   0  0  0  0  0  0  0  0  0  0  0  0
  147.4168  134.7032  160.4553 S   0  0  0  0  0  0  0  0  0  0  0  0
  147.9916  138.1385  154.2586 C   0  0  0  0  0  0  0  0  0  0  0  0
  146.5215  138.4312  153.9036 C   0  0  0  0  0  0  0  0  0  0  0  0
  147.8400  139.2118  151.5586 H   0  0  0  0  0  0  0  0  0  0  0  0
  146.6044  140.3842  151.0968 H   0  0  0  0  0  0  0  0  0  0  0  0
  146.1941  138.6765  151.2105 H   0  0  0  0  0  0  0  0  0  0  0  0
  147.0649  141.6709  153.1015 H   0  0  0  0  0  0  0  0  0  0  0  0
  146.5350  141.0539  154.6464 H   0  0  0  0  0  0  0  0  0  0  0  0
  149.1487  140.2515  153.2338 H   0  0  0  0  0  0  0  0  0  0  0  0
  148.9615  141.3148  154.6109 H   0  0  0  0  0  0  0  0  0  0  0  0
  151.9534  138.7116  155.2077 H   0  0  0  0  0  0  0  0  0  0  0  0
  151.1133  139.7642  154.0856 H   0  0  0  0  0  0  0  0  0  0  0  0
  150.8851  138.0182  154.0102 H   0  0  0  0  0  0  0  0  0  0  0  0
  151.0002  139.7984  157.3698 H   0  0  0  0  0  0  0  0  0  0  0  0
  149.3299  140.3394  157.3545 H   0  0  0  0  0  0  0  0  0  0  0  0
  150.5059  141.0151  156.2269 H   0  0  0  0  0  0  0  0  0  0  0  0
  149.2856  136.8406  155.8993 H   0  0  0  0  0  0  0  0  0  0  0  0
  150.7124  137.2811  156.7525 H   0  0  0  0  0  0  0  0  0  0  0  0
  148.5020  138.6816  157.8867 H   0  0  0  0  0  0  0  0  0  0  0  0
  146.8920  133.7031  162.7115 H   0  0  0  0  0  0  0  0  0  0  0  0
  148.5733  137.9511  153.3558 H   0  0  0  0  0  0  0  0  0  0  0  0
  148.0185  137.2173  154.8346 H   0  0  0  0  0  0  0  0  0  0  0  0
  145.9423  138.5628  154.8192 H   0  0  0  0  0  0  0  0  0  0  0  0
  146.0779  137.5848  153.3783 H   0  0  0  0  0  0  0  0  0  0  0  0
  145.4201  139.8930  153.0661 H   0  0  0  0  0  0  0  0  0  0  0  0
  1  2  1  0  0  0  0
  1 21  1  0  0  0  0
  1 22  1  0  0  0  0
  1 23  1  0  0  0  0
  2 20  1  0  0  0  0
  2  3  1  0  0  0  0
  2 42  1  0  0  0  0
  3  4  1  0  0  0  0
  3 24  1  0  0  0  0
  3 25  1  0  0  0  0
  4  5  1  0  0  0  0
  4 26  1  0  0  0  0
  4 27  1  0  0  0  0
  5  6  1  0  0  0  0
  5 19  1  0  0  0  0
  6  7  1  0  0  0  0
  6  8  1  0  0  0  0
  6  9  1  0  0  0  0
  7 28  1  0  0  0  0
  7 29  1  0  0  0  0
  7 30  1  0  0  0  0
  8 31  1  0  0  0  0
  8 32  1  0  0  0  0
  8 33  1  0  0  0  0
  9 10  1  0  0  0  0
  9 34  1  0  0  0  0
  9 35  1  0  0  0  0
 10 11  1  0  0  0  0
 10 36  1  0  0  0  0
 11 12  2  0  0  0  0
 11 13  1  0  0  0  0
 13 14  1  0  0  0  0
 14 18  1  0  0  0  0
 14 15  2  0  0  0  0
 15 16  1  0  0  0  0
 16 17  2  0  0  0  0
 17 18  1  0  0  0  0
 17 37  1  0  0  0  0
 19 20  1  0  0  0  0
 19 38  1  0  0  0  0
 19 39  1  0  0  0  0
 20 40  1  0  0  0  0
 20 41  1  0  0  0  0
M  CHG  1   2   1
M  CHG  1  13  -1
M  END
> <s_m_source_file>
AV-unprocessed.smi

> <i_m_source_file_index>
1572

> <i_lp_mmshare_version>
43012

> <i_f3d_flags>
0

> <s_epik_input>
W0NIM11OMVtDSDJdW0NIMl1OKFtDSDJdW0NIMl0xKUMoW0NIM10pKFtDSDNdKVtDSDJdW05IXUMoPU8pW05IXWMybm5bY0hdczI=

> <s_epik_cmdline>
J2VwaWtfcHl0aG9uJywgJy1waCcsICc3LjAnLCAnLXRuJywgJzgnLCAnLW1hJywgJzIwMCcsICctbWV0YWxfYmluZGluZycsICctaW1hZScsICc8aW5maWxlLm1hZT4nLCAnLW9tYWUnLCAnPG91dGZpbGUubWFlPic=

> <r_lp_tautomer_probability>
1

> <r_epik_Ionization_Penalty>
3.56565

> <r_epik_Ionization_Penalty_Charging>
3.52353

> <r_epik_Ionization_Penalty_Neutral>
0.0421115

> <r_epik_State_Penalty>
3.62656

> <r_epik_Charging_Adjusted_Penalty>
7.1501

> <i_epik_Tot_Q>
0

> <i_epik_Tot_abs_Q>
2

> <r_epik_Metal_State_Penalty>
0.645945

> <b_epik_Metal_Only>
1

> <s_lp_Force_Field>
OPLS_2005

> <r_lp_Energy>
17.8403

> <b_lp_Chiralities_Consistent>
1

> <s_lp_Variant>
AV-unprocessed.smi:1572-4

> <Gold.Version>
5.8.1

> <Gold.Id.Protein>
6NUR|6NUR_protein|mol2

> <Gold.PLP.Fitness>
41.3614

> <Gold.PLP.PLP>
-30.3917

> <Gold.PLP.part.hbond>
-5.5215

> <Gold.PLP.part.metal>
0.0000

> <Gold.PLP.part.buried>
-2.0762

> <Gold.PLP.part.nonpolar>
-23.7637

> <Gold.PLP.part.repulsive>
0.1564

> <Gold.PLP.ligand.clash>
0.0000

> <Gold.PLP.ligand.torsion>
0.7298

> <Gold.PLP.Chemscore.Hbond>
4.1231

> <Gold.PLP.Chemscore.CHOScore>
0.0000

> <Gold.PLP.Chemscore.Metal>
0.0000

> <Gold.Chemscore.Hbonds>
donor molecule, donor type, donor heavy atom, donor atom, acceptor molecule, acceptor atom, score
      L1  H     2    42       P1 10175  2.00
      P1  H  6896  6909       L1    12  1.00
      P1  H  6931  6943       L1    15  0.80
      P1  H  6934  6947       L1    13  0.33

> <Gold.PLP.Chemscore.Internal.Correction>
0.0600

> <Gold.Rescore>
     Score         DG    S(hbond)    S(metal)    S(lipo)     H(rot)  DE(clash)    DE(int)     intcor
     16.33     -17.50       2.56        0.00      66.26       1.67       0.39       0.78       ----

> <Gold.Chemscore.Fitness>
16.3341

> <Gold.Chemscore.DG>
-17.4984

> <Gold.Chemscore.ZeroCoef>
-5.4800

> <Gold.Chemscore.Hbond>
2.5568

> <Gold.Chemscore.Metal>
0.0000

> <Gold.Chemscore.Lipo>
66.2599

> <Gold.Chemscore.Internal_Hbond>
0.0000

> <Gold.Chemscore.DEClash>
0.3890

> <Gold.Chemscore.DEInternal>
0.7753

> <Gold.Chemscore.Rot>
1.6694

> <Gold.Chemscore.Internal.Correction>
   9.000000E+99

> <Gold.Chemscore.Hbonds>
donor molecule, donor type, donor heavy atom, donor atom, acceptor molecule, acceptor atom, score
      L1  H     2    42       P1 10175  0.99
      P1  H  6896  6909       L1    12  0.99
      P1  H  6931  6943       L1    15  0.11
      P1  H  6934  6947       L1    13  0.01

> <Gold.Chemscore.Hbond.Weighted>
-8.5398

> <Gold.Chemscore.Metal.Weighted>
-0.0000

> <Gold.Chemscore.Lipo.Weighted>
-7.7524

> <Gold.Chemscore.Internal_Hbond.Weighted>
0.0000

> <Gold.Chemscore.DEClash.Weighted>
0.3890

> <Gold.Chemscore.DEInternal.Weighted>
0.7753

> <Gold.Chemscore.Rot.Weighted>
4.2738

> <Gold.Chemscore.Internal.Correction.Weighted>
   9.000000E+99

> <Gold.Protein.RotatedTorsions>
[ 6907 6896 6895 6894 ] final   51.93 input  -60.11 | X-H torsion
[ 7974 7965 7964 7962 ] final   54.44 input  175.53 | X-H torsion
[ 8008 7997 7996 7995 ] final -155.22 input   59.86 | X-H torsion
[ 10167 10162 10161 10158 ] final   74.35 input  -65.29 | X-H torsion
[ 10718 10713 10712 10709 ] final   33.06 input   66.30 | X-H torsion
[ 10763 10752 10751 10750 ] final  -54.20 input  -60.55 | X-H torsion
[ 11005 11000 10999 10996 ] final   -3.15 input  -57.11 | X-H torsion

> <Gold.Protein.ActiveResidues>
 VAL166  LYS551  ARG553  GLY616  TRP617  ASP618  TYR619  PRO620  LYS621  CYS622 
 ASP623  PHE694  ASN695  SER759  ASP760  ASP761  ALA762  ILE779  LEU786  VAL792 
 PHE793  MET794  SER795  GLU796  ALA797  LYS798  CYS799  TRP800  GLU811  SER814 

> <Gold.Protein.RotatedAtoms>
  152.3179  134.7416  160.0320 H   0  0  0  0  0  0  0  0  0  0  0  0  # atno 6907 bound_to 6896
  151.7875  133.3350  159.3497 H   0  0  0  0  0  0  0  0  0  0  0  0  # atno 6908 bound_to 6896
  150.7354  134.5804  159.5980 H   0  0  0  0  0  0  0  0  0  0  0  0  # atno 6909 bound_to 6896
  145.9608  139.4058  143.0249 H   0  0  0  0  0  0  0  0  0  0  0  0  # atno 7974 bound_to 7965
  155.6985  140.0764  157.2420 H   0  0  0  0  0  0  0  0  0  0  0  0  # atno 8008 bound_to 7997
  154.4077  140.1652  156.2217 H   0  0  0  0  0  0  0  0  0  0  0  0  # atno 8009 bound_to 7997
  155.9389  140.3386  155.6314 H   0  0  0  0  0  0  0  0  0  0  0  0  # atno 8010 bound_to 7997
  140.0147  144.5587  150.7630 H   0  0  0  0  0  0  0  0  0  0  0  0  # atno 10167 bound_to 10162
  157.2931  130.7312  149.6622 H   0  0  0  0  0  0  0  0  0  0  0  0  # atno 10718 bound_to 10713
  154.1710  135.6459  153.5009 H   0  0  0  0  0  0  0  0  0  0  0  0  # atno 10763 bound_to 10752
  153.0084  135.5383  154.6613 H   0  0  0  0  0  0  0  0  0  0  0  0  # atno 10764 bound_to 10752
  154.5952  135.2938  155.0566 H   0  0  0  0  0  0  0  0  0  0  0  0  # atno 10765 bound_to 10752
  140.6661  133.9277  155.8466 H   0  0  0  0  0  0  0  0  0  0  0  0  # atno 11005 bound_to 11000
  145.8042  140.9756  143.0983 LP  0  0  0  0  0  0  0  0  0  0  0  0  # atno 17320 bound_to 7965
  144.6815  139.9839  143.7483 LP  0  0  0  0  0  0  0  0  0  0  0  0  # atno 17321 bound_to 7965
  140.7367  143.2756  151.3751 LP  0  0  0  0  0  0  0  0  0  0  0  0  # atno 17342 bound_to 10162
  139.6181  144.0962  152.2365 LP  0  0  0  0  0  0  0  0  0  0  0  0  # atno 17343 bound_to 10162
  155.9668  130.4303  150.4870 LP  0  0  0  0  0  0  0  0  0  0  0  0  # atno 17370 bound_to 10713
  157.2836  131.0612  151.2181 LP  0  0  0  0  0  0  0  0  0  0  0  0  # atno 17371 bound_to 10713
  141.0428  134.0597  157.3881 LP  0  0  0  0  0  0  0  0  0  0  0  0  # atno 17394 bound_to 11000
  139.8996  135.0159  156.7206 LP  0  0  0  0  0  0  0  0  0  0  0  0  # atno 17395 bound_to 11000

$$$$
