AV-unprocessed.smi:1211|AV-procd|sdf|5080|dock1
  -GOLD-   22720 4133D 1   1.00000     0.00000
 Structure written by MMmdl.
 48 50  0  0  0  0  0  0  0  0  2 V2000
  144.0208  135.1085  151.2238 C   0  0  0  0  0  0  0  0  0  0  0  0
  144.7596  133.7810  151.2737 C   0  0  0  0  0  0  0  0  0  0  0  0
  144.1392  132.6262  150.7511 C   0  0  0  0  0  0  0  0  0  0  0  0
  144.8223  131.3991  150.7990 C   0  0  0  0  0  0  0  0  0  0  0  0
  146.1052  131.3784  151.3718 C   0  0  0  0  0  0  0  0  0  0  0  0
  146.7056  132.4768  151.8742 N   0  0  0  0  0  0  0  0  0  0  0  0
  146.0606  133.6696  151.8338 C   0  0  0  0  0  0  0  0  0  0  0  0
  146.6341  134.8700  152.3410 N   0  0  0  0  0  0  0  0  0  0  0  0
  146.1360  135.7085  153.2670 C   0  0  0  0  0  0  0  0  0  0  0  0
  145.0655  135.5661  153.8576 O   0  0  0  0  0  0  0  0  0  0  0  0
  146.9592  136.7470  153.4722 N   0  0  0  0  0  0  0  0  0  0  0  0
  146.7301  137.8368  154.4211 C   0  0  0  0  0  0  0  0  0  0  0  0
  147.9562  138.7923  154.5827 C   0  0  1  0  0  0  0  0  0  0  0  0
  149.2140  137.9588  154.6476 N   0  3  0  0  0  0  0  0  0  0  0  0
  150.5116  138.6898  154.6927 C   0  0  0  0  0  0  0  0  0  0  0  0
  151.7002  137.7130  154.6452 C   0  0  0  0  0  0  0  0  0  0  0  0
  151.5979  136.7623  155.6944 O   0  0  0  0  0  0  0  0  0  0  0  0
  150.4190  135.9810  155.5739 C   0  0  0  0  0  0  0  0  0  0  0  0
  149.1921  136.8973  155.6936 C   0  0  0  0  0  0  0  0  0  0  0  0
  147.9681  139.8401  153.4338 C   0  0  0  0  0  0  0  0  0  0  0  0
  146.8030  140.8113  153.6474 C   0  0  0  0  0  0  0  0  0  0  0  0
  146.6102  141.0150  155.4349 S   0  0  0  0  0  0  0  0  0  0  0  0
  147.7654  139.6750  155.8386 C   0  0  0  0  0  0  0  0  0  0  0  0
  143.0412  135.0003  150.7569 H   0  0  0  0  0  0  0  0  0  0  0  0
  144.5877  135.8394  150.6464 H   0  0  0  0  0  0  0  0  0  0  0  0
  143.8708  135.5001  152.2305 H   0  0  0  0  0  0  0  0  0  0  0  0
  143.1508  132.6765  150.3180 H   0  0  0  0  0  0  0  0  0  0  0  0
  144.3747  130.4977  150.4072 H   0  0  0  0  0  0  0  0  0  0  0  0
  146.6649  130.4566  151.4287 H   0  0  0  0  0  0  0  0  0  0  0  0
  147.5296  135.1164  151.9470 H   0  0  0  0  0  0  0  0  0  0  0  0
  147.8243  136.7717  152.9529 H   0  0  0  0  0  0  0  0  0  0  0  0
  145.8216  138.3787  154.1586 H   0  0  0  0  0  0  0  0  0  0  0  0
  146.4874  137.3711  155.3755 H   0  0  0  0  0  0  0  0  0  0  0  0
  150.6196  139.3500  153.8335 H   0  0  0  0  0  0  0  0  0  0  0  0
  150.5641  139.3023  155.5934 H   0  0  0  0  0  0  0  0  0  0  0  0
  151.7435  137.2022  153.6818 H   0  0  0  0  0  0  0  0  0  0  0  0
  152.6376  138.2585  154.7550 H   0  0  0  0  0  0  0  0  0  0  0  0
  150.4142  135.4378  154.6275 H   0  0  0  0  0  0  0  0  0  0  0  0
  150.4086  135.2356  156.3694 H   0  0  0  0  0  0  0  0  0  0  0  0
  149.1833  137.3479  156.6865 H   0  0  0  0  0  0  0  0  0  0  0  0
  148.2949  136.2862  155.6139 H   0  0  0  0  0  0  0  0  0  0  0  0
  148.8619  140.4608  153.4803 H   0  0  0  0  0  0  0  0  0  0  0  0
  147.9508  139.3912  152.4414 H   0  0  0  0  0  0  0  0  0  0  0  0
  146.9829  141.7730  153.1662 H   0  0  0  0  0  0  0  0  0  0  0  0
  145.8779  140.4095  153.2337 H   0  0  0  0  0  0  0  0  0  0  0  0
  147.4065  139.1147  156.7026 H   0  0  0  0  0  0  0  0  0  0  0  0
  148.7074  140.1432  156.1254 H   0  0  0  0  0  0  0  0  0  0  0  0
  149.2344  137.4697  153.7643 H   0  0  0  0  0  0  0  0  0  0  0  0
  1  2  1  0  0  0  0
  1 24  1  0  0  0  0
  1 25  1  0  0  0  0
  1 26  1  0  0  0  0
  2  7  1  0  0  0  0
  2  3  2  0  0  0  0
  3  4  1  0  0  0  0
  3 27  1  0  0  0  0
  4  5  2  0  0  0  0
  4 28  1  0  0  0  0
  5  6  1  0  0  0  0
  5 29  1  0  0  0  0
  6  7  2  0  0  0  0
  7  8  1  0  0  0  0
  8  9  1  0  0  0  0
  8 30  1  0  0  0  0
  9 10  2  0  0  0  0
  9 11  1  0  0  0  0
 11 12  1  0  0  0  0
 11 31  1  0  0  0  0
 12 13  1  0  0  0  0
 12 32  1  0  0  0  0
 12 33  1  0  0  0  0
 13 23  1  0  0  0  0
 13 14  1  0  0  0  0
 13 20  1  0  0  0  0
 14 19  1  0  0  0  0
 14 15  1  0  0  0  0
 14 48  1  0  0  0  0
 15 16  1  0  0  0  0
 15 34  1  0  0  0  0
 15 35  1  0  0  0  0
 16 17  1  0  0  0  0
 16 36  1  0  0  0  0
 16 37  1  0  0  0  0
 17 18  1  0  0  0  0
 18 19  1  0  0  0  0
 18 38  1  0  0  0  0
 18 39  1  0  0  0  0
 19 40  1  0  0  0  0
 19 41  1  0  0  0  0
 20 21  1  0  0  0  0
 20 42  1  0  0  0  0
 20 43  1  0  0  0  0
 21 22  1  0  0  0  0
 21 44  1  0  0  0  0
 21 45  1  0  0  0  0
 22 23  1  0  0  0  0
 23 46  1  0  0  0  0
 23 47  1  0  0  0  0
M  CHG  1  14   1
M  END
> <s_m_source_file>
AV-unprocessed.smi

> <i_m_source_file_index>
1211

> <i_lp_mmshare_version>
43012

> <i_f3d_flags>
0

> <s_epik_input>
W0NIM11jMVtjSF1bY0hdW2NIXW5jMVtOSF1DKD1PKVtOSF1bQ0gyXVtDQF0yKFtDSDJdW0NIMl1TW0NIMl0yKU4zW0NIMl1bQ0gyXU9bQ0gyXVtDSDJdMw==

> <s_epik_cmdline>
J2VwaWtfcHl0aG9uJywgJy1waCcsICc3LjAnLCAnLXRuJywgJzgnLCAnLW1hJywgJzIwMCcsICctbWV0YWxfYmluZGluZycsICctaW1hZScsICc8aW5maWxlLm1hZT4nLCAnLW9tYWUnLCAnPG91dGZpbGUubWFlPic=

> <r_epik_Ionization_Penalty>
2.03223

> <r_epik_Ionization_Penalty_Charging>
2.03219

> <r_epik_Ionization_Penalty_Neutral>
4.05816e-05

> <r_epik_State_Penalty>
2.16328

> <r_epik_Charging_Adjusted_Penalty>
4.19546

> <i_epik_Tot_Q>
1

> <i_epik_Tot_abs_Q>
1

> <r_epik_Metal_State_Penalty>
2.16328

> <b_epik_Metal_Only>
0

> <s_lp_Force_Field>
OPLS_2005

> <r_lp_Energy>
45.8952

> <b_lp_Chiralities_Consistent>
1

> <s_lp_Variant>
AV-unprocessed.smi:1211-3

> <Gold.Version>
5.8.1

> <Gold.Id.Protein>
6NUR|6NUR_protein|mol2

> <Gold.PLP.Fitness>
47.4643

> <Gold.PLP.PLP>
-32.1199

> <Gold.PLP.part.hbond>
-3.9505

> <Gold.PLP.part.metal>
0.0000

> <Gold.PLP.part.buried>
-2.4152

> <Gold.PLP.part.nonpolar>
-26.8271

> <Gold.PLP.part.repulsive>
0.3884

> <Gold.PLP.ligand.clash>
0.0000

> <Gold.PLP.ligand.torsion>
0.8358

> <Gold.PLP.Chemscore.Hbond>
4.7645

> <Gold.PLP.Chemscore.CHOScore>
0.8170

> <Gold.PLP.Chemscore.Metal>
0.0000

> <Gold.Chemscore.Hbonds>
donor molecule, donor type, donor heavy atom, donor atom, acceptor molecule, acceptor atom, score
      L1  H     8    30       P1  7948  1.00
      L1  H    11    31       P1  7948  1.00
      L1  H    14    48       P1  7948  0.81
      P1  H 10752 10763       L1    17  0.36
      L1  C     5    29       P1 10747  0.46

> <Gold.PLP.Chemscore.Internal.Correction>
0.2715

> <Gold.Rescore>
     Score         DG    S(hbond)    S(metal)    S(lipo)     H(rot)  DE(clash)    DE(int)     intcor
     21.69     -22.71       3.25        0.00      86.78       1.48       0.03       0.98       ----

> <Gold.Chemscore.Fitness>
21.6900

> <Gold.Chemscore.DG>
-22.7059

> <Gold.Chemscore.ZeroCoef>
-5.4800

> <Gold.Chemscore.Hbond>
3.2536

> <Gold.Chemscore.Metal>
0.0000

> <Gold.Chemscore.Lipo>
86.7758

> <Gold.Chemscore.Internal_Hbond>
0.0000

> <Gold.Chemscore.DEClash>
0.0342

> <Gold.Chemscore.DEInternal>
0.9817

> <Gold.Chemscore.Rot>
1.4820

> <Gold.Chemscore.Internal.Correction>
   9.000000E+99

> <Gold.Chemscore.Hbonds>
donor molecule, donor type, donor heavy atom, donor atom, acceptor molecule, acceptor atom, score
      L1  H     8    30       P1  7948  0.89
      L1  H    11    31       P1  7948  0.98
      L1  H    14    48       P1  7948  0.41

> <Gold.Chemscore.Hbond.Weighted>
-10.8670

> <Gold.Chemscore.Metal.Weighted>
-0.0000

> <Gold.Chemscore.Lipo.Weighted>
-10.1528

> <Gold.Chemscore.Internal_Hbond.Weighted>
0.0000

> <Gold.Chemscore.DEClash.Weighted>
0.0342

> <Gold.Chemscore.DEInternal.Weighted>
0.9817

> <Gold.Chemscore.Rot.Weighted>
3.7939

> <Gold.Chemscore.Internal.Correction.Weighted>
   9.000000E+99

> <Gold.Protein.RotatedTorsions>
[ 6907 6896 6895 6894 ] final   45.02 input  -60.11 | X-H torsion
[ 7974 7965 7964 7962 ] final   19.22 input  175.53 | X-H torsion
[ 8008 7997 7996 7995 ] final  -79.88 input   59.86 | X-H torsion
[ 10167 10162 10161 10158 ] final  -95.78 input  -65.29 | X-H torsion
[ 10718 10713 10712 10709 ] final  -30.24 input   66.30 | X-H torsion
[ 10763 10752 10751 10750 ] final   62.91 input  -60.55 | X-H torsion
[ 11005 11000 10999 10996 ] final  -59.18 input  -57.11 | X-H torsion

> <Gold.Protein.ActiveResidues>
 VAL166  LYS551  ARG553  GLY616  TRP617  ASP618  TYR619  PRO620  LYS621  CYS622 
 ASP623  PHE694  ASN695  SER759  ASP760  ASP761  ALA762  ILE779  LEU786  VAL792 
 PHE793  MET794  SER795  GLU796  ALA797  LYS798  CYS799  TRP800  GLU811  SER814 

> <Gold.Protein.RotatedAtoms>
  152.2395  134.8242  160.0462 H   0  0  0  0  0  0  0  0  0  0  0  0  # atno 6907 bound_to 6896
  151.8962  133.3522  159.3823 H   0  0  0  0  0  0  0  0  0  0  0  0  # atno 6908 bound_to 6896
  150.7049  134.4800  159.5510 H   0  0  0  0  0  0  0  0  0  0  0  0  # atno 6909 bound_to 6896
  146.2157  139.8344  142.8653 H   0  0  0  0  0  0  0  0  0  0  0  0  # atno 7974 bound_to 7965
  154.5828  140.0671  156.9128 H   0  0  0  0  0  0  0  0  0  0  0  0  # atno 8008 bound_to 7997
  155.2432  140.3346  155.4272 H   0  0  0  0  0  0  0  0  0  0  0  0  # atno 8009 bound_to 7997
  156.2201  140.1795  156.7481 H   0  0  0  0  0  0  0  0  0  0  0  0  # atno 8010 bound_to 7997
  140.3006  143.3164  152.0252 H   0  0  0  0  0  0  0  0  0  0  0  0  # atno 10167 bound_to 10162
  156.4023  130.4392  149.7313 H   0  0  0  0  0  0  0  0  0  0  0  0  # atno 10718 bound_to 10713
  152.9999  135.5448  154.6268 H   0  0  0  0  0  0  0  0  0  0  0  0  # atno 10763 bound_to 10752
  154.5554  135.2830  155.0971 H   0  0  0  0  0  0  0  0  0  0  0  0  # atno 10764 bound_to 10752
  154.2194  135.6453  153.5192 H   0  0  0  0  0  0  0  0  0  0  0  0  # atno 10765 bound_to 10752
  141.1238  133.6615  156.5032 H   0  0  0  0  0  0  0  0  0  0  0  0  # atno 11005 bound_to 11000
  145.2963  141.0182  143.3634 LP  0  0  0  0  0  0  0  0  0  0  0  0  # atno 17320 bound_to 7965
  144.9039  139.4614  143.6619 LP  0  0  0  0  0  0  0  0  0  0  0  0  # atno 17321 bound_to 7965
  139.4916  144.6458  151.6781 LP  0  0  0  0  0  0  0  0  0  0  0  0  # atno 17342 bound_to 10162
  140.5654  144.0199  150.6190 LP  0  0  0  0  0  0  0  0  0  0  0  0  # atno 17343 bound_to 10162
  156.4324  130.7821  151.2841 LP  0  0  0  0  0  0  0  0  0  0  0  0  # atno 17370 bound_to 10713
  157.7504  131.0150  150.3486 LP  0  0  0  0  0  0  0  0  0  0  0  0  # atno 17371 bound_to 10713
  140.4429  134.6999  157.5001 LP  0  0  0  0  0  0  0  0  0  0  0  0  # atno 17394 bound_to 11000
  140.0217  134.6537  155.9230 LP  0  0  0  0  0  0  0  0  0  0  0  0  # atno 17395 bound_to 11000

$$$$
