AV-unprocessed.smi:1967|AV-procd|sdf|7955|dock1
  -GOLD-   2272010123D 1   1.00000     0.00000
 Structure written by MMmdl.
 36 37  0  0  0  0  0  0  0  0  2 V2000
  150.3271  138.9333  158.3622 O   0  0  0  0  0  0  0  0  0  0  0  0
  151.7907  138.9081  158.2052 S   0  0  0  0  0  0  0  0  0  0  0  0
  152.5167  137.7398  158.7297 O   0  0  0  0  0  0  0  0  0  0  0  0
  152.2847  139.3615  156.7291 N   0  5  0  0  0  0  0  0  0  0  0  0
  152.1441  138.4282  155.6254 C   0  0  0  0  0  0  0  0  0  0  0  0
  150.6590  138.0472  155.4458 C   0  0  0  0  0  0  0  0  0  0  0  0
  149.7862  139.1760  154.9062 C   0  0  0  0  0  0  0  0  0  0  0  0
  148.4775  138.9128  154.4406 C   0  0  0  0  0  0  0  0  0  0  0  0
  147.7045  139.9853  153.9566 C   0  0  0  0  0  0  0  0  0  0  0  0
  148.2607  141.2788  153.9600 C   0  0  0  0  0  0  0  0  0  0  0  0
  149.5710  141.4426  154.4510 C   0  0  0  0  0  0  0  0  0  0  0  0
  150.3210  140.4216  154.9178 N   0  0  0  0  0  0  0  0  0  0  0  0
  152.4002  140.2903  159.0646 N   0  0  0  0  0  0  0  0  0  0  0  0
  151.6942  141.5793  158.9083 C   0  0  0  0  0  0  0  0  0  0  0  0
  152.5945  142.7624  159.3003 C   0  0  0  0  0  0  0  0  0  0  0  0
  153.1577  142.5872  160.7141 C   0  0  0  0  0  0  0  0  0  0  0  0
  153.9059  141.2534  160.7994 C   0  0  0  0  0  0  0  0  0  0  0  0
  152.9987  140.0782  160.3991 C   0  0  0  0  0  0  0  0  0  0  0  0
  152.5204  138.8520  154.6937 H   0  0  0  0  0  0  0  0  0  0  0  0
  152.7230  137.5199  155.7965 H   0  0  0  0  0  0  0  0  0  0  0  0
  150.5760  137.1949  154.7697 H   0  0  0  0  0  0  0  0  0  0  0  0
  150.2458  137.7147  156.3997 H   0  0  0  0  0  0  0  0  0  0  0  0
  148.0784  137.9089  154.4490 H   0  0  0  0  0  0  0  0  0  0  0  0
  146.7027  139.8186  153.5892 H   0  0  0  0  0  0  0  0  0  0  0  0
  147.6970  142.1250  153.5960 H   0  0  0  0  0  0  0  0  0  0  0  0
  150.0286  142.4205  154.4709 H   0  0  0  0  0  0  0  0  0  0  0  0
  151.3669  141.7005  157.8759 H   0  0  0  0  0  0  0  0  0  0  0  0
  150.7945  141.5668  159.5249 H   0  0  0  0  0  0  0  0  0  0  0  0
  153.4149  142.8475  158.5867 H   0  0  0  0  0  0  0  0  0  0  0  0
  152.0312  143.6935  159.2359 H   0  0  0  0  0  0  0  0  0  0  0  0
  153.8268  143.4125  160.9594 H   0  0  0  0  0  0  0  0  0  0  0  0
  152.3469  142.6074  161.4435 H   0  0  0  0  0  0  0  0  0  0  0  0
  154.7778  141.2794  160.1446 H   0  0  0  0  0  0  0  0  0  0  0  0
  154.2837  141.1016  161.8108 H   0  0  0  0  0  0  0  0  0  0  0  0
  152.1986  139.9511  161.1296 H   0  0  0  0  0  0  0  0  0  0  0  0
  153.5788  139.1559  160.4036 H   0  0  0  0  0  0  0  0  0  0  0  0
  1  2  2  0  0  0  0
  2  3  2  0  0  0  0
  2  4  1  0  0  0  0
  2 13  1  0  0  0  0
  4  5  1  0  0  0  0
  5  6  1  0  0  0  0
  5 19  1  0  0  0  0
  5 20  1  0  0  0  0
  6  7  1  0  0  0  0
  6 21  1  0  0  0  0
  6 22  1  0  0  0  0
  7 12  1  0  0  0  0
  7  8  2  0  0  0  0
  8  9  1  0  0  0  0
  8 23  1  0  0  0  0
  9 10  2  0  0  0  0
  9 24  1  0  0  0  0
 10 11  1  0  0  0  0
 10 25  1  0  0  0  0
 11 12  2  0  0  0  0
 11 26  1  0  0  0  0
 13 18  1  0  0  0  0
 13 14  1  0  0  0  0
 14 15  1  0  0  0  0
 14 27  1  0  0  0  0
 14 28  1  0  0  0  0
 15 16  1  0  0  0  0
 15 29  1  0  0  0  0
 15 30  1  0  0  0  0
 16 17  1  0  0  0  0
 16 31  1  0  0  0  0
 16 32  1  0  0  0  0
 17 18  1  0  0  0  0
 17 33  1  0  0  0  0
 17 34  1  0  0  0  0
 18 35  1  0  0  0  0
 18 36  1  0  0  0  0
M  CHG  1   4  -1
M  END
> <s_m_source_file>
AV-unprocessed.smi

> <i_m_source_file_index>
1967

> <i_lp_mmshare_version>
43012

> <i_f3d_flags>
0

> <s_epik_input>
W0NIMl0xW0NIMl1bQ0gyXVtDSDJdW0NIMl1OMVMoPU8pKD1PKVtOSF1bQ0gyXVtDSDJdYzJbY0hdW2NIXVtjSF1bY0hdbjI=

> <s_epik_cmdline>
J2VwaWtfcHl0aG9uJywgJy1waCcsICc3LjAnLCAnLXRuJywgJzgnLCAnLW1hJywgJzIwMCcsICctbWV0YWxfYmluZGluZycsICctaW1hZScsICc8aW5maWxlLm1hZT4nLCAnLW9tYWUnLCAnPG91dGZpbGUubWFlPic=

> <r_epik_Ionization_Penalty>
2.02944

> <r_epik_Ionization_Penalty_Charging>
1.95606

> <r_epik_Ionization_Penalty_Neutral>
0.0733798

> <r_epik_State_Penalty>
2.47711

> <r_epik_Charging_Adjusted_Penalty>
4.43317

> <i_epik_Tot_Q>
-1

> <i_epik_Tot_abs_Q>
1

> <r_epik_Metal_State_Penalty>
0.729901

> <b_epik_Metal_Only>
0

> <s_lp_Force_Field>
OPLS_2005

> <r_lp_Energy>
6.94762

> <b_lp_Chiralities_Consistent>
1

> <s_lp_Variant>
AV-unprocessed.smi:1967-2

> <Gold.Version>
5.8.1

> <Gold.Id.Protein>
6NUR|6NUR_protein|mol2

> <Gold.PLP.Fitness>
50.3019

> <Gold.PLP.PLP>
-39.3139

> <Gold.PLP.part.hbond>
-2.0000

> <Gold.PLP.part.metal>
0.0000

> <Gold.PLP.part.buried>
-3.7034

> <Gold.PLP.part.nonpolar>
-33.7488

> <Gold.PLP.part.repulsive>
0.1001

> <Gold.PLP.ligand.clash>
0.0000

> <Gold.PLP.ligand.torsion>
1.9289

> <Gold.PLP.Chemscore.Hbond>
2.9120

> <Gold.PLP.Chemscore.CHOScore>
1.0000

> <Gold.PLP.Chemscore.Metal>
0.0000

> <Gold.Chemscore.Hbonds>
donor molecule, donor type, donor heavy atom, donor atom, acceptor molecule, acceptor atom, score
      P1  H  7989  7998       L1    12  0.30
      P1  H  7997  8010       L1     4  1.11
      L1  C    11    26       P1  8028  0.26

> <Gold.PLP.Chemscore.Internal.Correction>
3.1097

> <Gold.Rescore>
     Score         DG    S(hbond)    S(metal)    S(lipo)     H(rot)  DE(clash)    DE(int)     intcor
     12.93     -16.00       0.71        0.00      98.11       1.30       0.02       3.06       ----

> <Gold.Chemscore.Fitness>
12.9273

> <Gold.Chemscore.DG>
-15.9993

> <Gold.Chemscore.ZeroCoef>
-5.4800

> <Gold.Chemscore.Hbond>
0.7091

> <Gold.Chemscore.Metal>
0.0000

> <Gold.Chemscore.Lipo>
98.1050

> <Gold.Chemscore.Internal_Hbond>
0.0000

> <Gold.Chemscore.DEClash>
0.0166

> <Gold.Chemscore.DEInternal>
3.0554

> <Gold.Chemscore.Rot>
1.2997

> <Gold.Chemscore.Internal.Correction>
   9.000000E+99

> <Gold.Chemscore.Hbonds>
donor molecule, donor type, donor heavy atom, donor atom, acceptor molecule, acceptor atom, score
      P1  H  7997  8010       L1     4  0.19

> <Gold.Chemscore.Hbond.Weighted>
-2.3683

> <Gold.Chemscore.Metal.Weighted>
-0.0000

> <Gold.Chemscore.Lipo.Weighted>
-11.4783

> <Gold.Chemscore.Internal_Hbond.Weighted>
0.0000

> <Gold.Chemscore.DEClash.Weighted>
0.0166

> <Gold.Chemscore.DEInternal.Weighted>
3.0554

> <Gold.Chemscore.Rot.Weighted>
3.3273

> <Gold.Chemscore.Internal.Correction.Weighted>
   9.000000E+99

> <Gold.Protein.RotatedTorsions>
[ 6907 6896 6895 6894 ] final  -56.42 input  -60.11 | X-H torsion
[ 7974 7965 7964 7962 ] final -123.23 input  175.53 | X-H torsion
[ 8008 7997 7996 7995 ] final   73.56 input   59.86 | X-H torsion
[ 10167 10162 10161 10158 ] final   67.41 input  -65.29 | X-H torsion
[ 10718 10713 10712 10709 ] final  -75.39 input   66.30 | X-H torsion
[ 10763 10752 10751 10750 ] final -146.01 input  -60.55 | X-H torsion
[ 11005 11000 10999 10996 ] final  -84.36 input  -57.11 | X-H torsion

> <Gold.Protein.ActiveResidues>
 VAL166  LYS551  ARG553  GLY616  TRP617  ASP618  TYR619  PRO620  LYS621  CYS622 
 ASP623  PHE694  ASN695  SER759  ASP760  ASP761  ALA762  ILE779  LEU786  VAL792 
 PHE793  MET794  SER795  GLU796  ALA797  LYS798  CYS799  TRP800  GLU811  SER814 

> <Gold.Protein.RotatedAtoms>
  150.8169  134.7356  159.6737 H   0  0  0  0  0  0  0  0  0  0  0  0  # atno 6907 bound_to 6896
  152.4287  134.5816  159.9959 H   0  0  0  0  0  0  0  0  0  0  0  0  # atno 6908 bound_to 6896
  151.6010  133.3319  159.3083 H   0  0  0  0  0  0  0  0  0  0  0  0  # atno 6909 bound_to 6896
  145.0209  140.7987  143.4381 H   0  0  0  0  0  0  0  0  0  0  0  0  # atno 7974 bound_to 7965
  155.7855  140.3480  155.5321 H   0  0  0  0  0  0  0  0  0  0  0  0  # atno 8008 bound_to 7997
  155.8686  140.0983  157.1586 H   0  0  0  0  0  0  0  0  0  0  0  0  # atno 8009 bound_to 7997
  154.4016  140.1345  156.4037 H   0  0  0  0  0  0  0  0  0  0  0  0  # atno 8010 bound_to 7997
  140.0899  144.4997  150.7106 H   0  0  0  0  0  0  0  0  0  0  0  0  # atno 10167 bound_to 10162
  156.0209  130.4439  150.3035 H   0  0  0  0  0  0  0  0  0  0  0  0  # atno 10718 bound_to 10713
  154.8356  135.3398  154.6595 H   0  0  0  0  0  0  0  0  0  0  0  0  # atno 10763 bound_to 10752
  153.7210  135.6958  153.5017 H   0  0  0  0  0  0  0  0  0  0  0  0  # atno 10764 bound_to 10752
  153.2381  135.4393  155.0622 H   0  0  0  0  0  0  0  0  0  0  0  0  # atno 10765 bound_to 10752
  141.1651  133.7342  156.8857 H   0  0  0  0  0  0  0  0  0  0  0  0  # atno 11005 bound_to 11000
  145.1897  139.2308  143.5249 LP  0  0  0  0  0  0  0  0  0  0  0  0  # atno 17320 bound_to 7965
  146.3485  140.1690  142.8590 LP  0  0  0  0  0  0  0  0  0  0  0  0  # atno 17321 bound_to 7965
  140.7034  143.2451  151.4797 LP  0  0  0  0  0  0  0  0  0  0  0  0  # atno 17342 bound_to 10162
  139.5731  144.1882  152.1865 LP  0  0  0  0  0  0  0  0  0  0  0  0  # atno 17343 bound_to 10162
  157.1138  131.0228  151.3037 LP  0  0  0  0  0  0  0  0  0  0  0  0  # atno 17370 bound_to 10713
  157.4683  130.7694  149.7300 LP  0  0  0  0  0  0  0  0  0  0  0  0  # atno 17371 bound_to 10713
  140.1684  134.9117  157.2802 LP  0  0  0  0  0  0  0  0  0  0  0  0  # atno 17394 bound_to 11000
  140.2530  134.3660  155.7435 LP  0  0  0  0  0  0  0  0  0  0  0  0  # atno 17395 bound_to 11000

$$$$
