AV-unprocessed.smi:2784|AV-procd|sdf|10732|dock4
  -GOLD-   2272015173D 1   1.00000     0.00000
 Structure written by MMmdl.
 32 33  0  0  0  0  0  0  0  0  2 V2000
  147.5589  132.4702  152.6177 C   0  0  0  0  0  0  0  0  0  0  0  0
  147.0148  133.7411  152.2983 O   0  0  0  0  0  0  0  0  0  0  0  0
  145.6093  133.8384  152.5156 C   0  0  2  0  0  0  0  0  0  0  0  0
  144.8857  132.8562  151.5873 C   0  0  0  0  0  0  0  0  0  0  0  0
  144.8177  133.5884  150.2507 C   0  0  0  0  0  0  0  0  0  0  0  0
  144.5893  135.0561  150.6214 C   0  0  0  0  0  0  0  0  0  0  0  0
  145.0995  135.2277  152.0656 C   0  0  2  0  0  0  0  0  0  0  0  0
  146.1236  136.2679  152.1436 N   0  0  0  0  0  0  0  0  0  0  0  0
  145.9968  137.4144  152.8268 C   0  0  0  0  0  0  0  0  0  0  0  0
  144.9831  137.7276  153.4519 O   0  0  0  0  0  0  0  0  0  0  0  0
  147.1066  138.1636  152.7466 N   0  0  0  0  0  0  0  0  0  0  0  0
  147.2968  139.4221  153.3615 C   0  0  0  0  0  0  0  0  0  0  0  0
  146.3810  140.3895  153.3794 N   0  3  0  0  0  0  0  0  0  0  0  0
  146.8928  141.4682  154.0573 C   0  0  0  0  0  0  0  0  0  0  0  0
  148.1591  141.0996  154.4438 C   0  0  0  0  0  0  0  0  0  0  0  0
  148.4277  139.8158  154.0134 O   0  0  0  0  0  0  0  0  0  0  0  0
  148.6300  132.4731  152.4163 H   0  0  0  0  0  0  0  0  0  0  0  0
  147.1102  131.6741  152.0238 H   0  0  0  0  0  0  0  0  0  0  0  0
  147.4191  132.2388  153.6744 H   0  0  0  0  0  0  0  0  0  0  0  0
  145.3706  133.6657  153.5666 H   0  0  0  0  0  0  0  0  0  0  0  0
  145.3730  131.8847  151.5077 H   0  0  0  0  0  0  0  0  0  0  0  0
  143.8740  132.6844  151.9573 H   0  0  0  0  0  0  0  0  0  0  0  0
  145.7713  133.4848  149.7311 H   0  0  0  0  0  0  0  0  0  0  0  0
  144.0390  133.1952  149.5965 H   0  0  0  0  0  0  0  0  0  0  0  0
  145.0862  135.7185  149.9110 H   0  0  0  0  0  0  0  0  0  0  0  0
  143.5242  135.2875  150.5812 H   0  0  0  0  0  0  0  0  0  0  0  0
  144.2497  135.5133  152.6889 H   0  0  0  0  0  0  0  0  0  0  0  0
  146.9914  136.0856  151.6611 H   0  0  0  0  0  0  0  0  0  0  0  0
  145.4537  140.3734  152.9735 H   0  0  0  0  0  0  0  0  0  0  0  0
  146.3171  142.3724  154.1946 H   0  0  0  0  0  0  0  0  0  0  0  0
  148.9464  141.5956  154.9927 H   0  0  0  0  0  0  0  0  0  0  0  0
  147.8786  137.8025  152.2059 H   0  0  0  0  0  0  0  0  0  0  0  0
  1  2  1  0  0  0  0
  1 17  1  0  0  0  0
  1 18  1  0  0  0  0
  1 19  1  0  0  0  0
  2  3  1  0  0  0  0
  3  7  1  0  0  0  0
  3  4  1  0  0  0  0
  3 20  1  0  0  0  0
  4  5  1  0  0  0  0
  4 21  1  0  0  0  0
  4 22  1  0  0  0  0
  5  6  1  0  0  0  0
  5 23  1  0  0  0  0
  5 24  1  0  0  0  0
  6  7  1  0  0  0  0
  6 25  1  0  0  0  0
  6 26  1  0  0  0  0
  7  8  1  0  0  0  0
  7 27  1  0  0  0  0
  8 28  1  0  0  0  0
  8  9  1  0  0  0  0
  9 11  1  0  0  0  0
  9 10  2  0  0  0  0
 11 12  1  0  0  0  0
 11 32  1  0  0  0  0
 12 16  1  0  0  0  0
 12 13  2  0  0  0  0
 13 29  1  0  0  0  0
 13 14  1  0  0  0  0
 14 30  1  0  0  0  0
 14 15  2  0  0  0  0
 15 31  1  0  0  0  0
 15 16  1  0  0  0  0
M  CHG  1  13   1
M  END
> <s_m_source_file>
AV-unprocessed.smi

> <i_m_source_file_index>
2784

> <i_lp_mmshare_version>
43012

> <i_f3d_flags>
0

> <s_epik_input>
W0NIM11PW0NAQEhdMVtDSDJdW0NIMl1bQ0gyXVtDQEhdMVtOSF1DKD1PKVtOSF1jMm5bY0hdW2NIXW8y

> <s_epik_cmdline>
J2VwaWtfcHl0aG9uJywgJy1waCcsICc3LjAnLCAnLXRuJywgJzgnLCAnLW1hJywgJzIwMCcsICctbWV0YWxfYmluZGluZycsICctaW1hZScsICc8aW5maWxlLm1hZT4nLCAnLW9tYWUnLCAnPG91dGZpbGUubWFlPic=

> <r_epik_Ionization_Penalty>
6.73843

> <r_epik_Ionization_Penalty_Charging>
6.66704

> <r_epik_Ionization_Penalty_Neutral>
0.0713889

> <r_epik_State_Penalty>
1.94951

> <r_epik_Charging_Adjusted_Penalty>
8.61656

> <i_epik_Tot_Q>
1

> <i_epik_Tot_abs_Q>
1

> <r_epik_Metal_State_Penalty>
1.97013

> <b_epik_Metal_Only>
0

> <s_lp_Force_Field>
OPLS_2005

> <r_lp_Energy>
28.2598

> <b_lp_Chiralities_Consistent>
1

> <s_lp_Variant>
AV-unprocessed.smi:2784-7

> <Gold.Version>
5.8.1

> <Gold.Id.Protein>
6NUR|6NUR_protein|mol2

> <Gold.PLP.Fitness>
35.9862

> <Gold.PLP.PLP>
-24.9212

> <Gold.PLP.part.hbond>
-3.0000

> <Gold.PLP.part.metal>
0.0000

> <Gold.PLP.part.buried>
-5.0904

> <Gold.PLP.part.nonpolar>
-19.0670

> <Gold.PLP.part.repulsive>
1.8635

> <Gold.PLP.ligand.clash>
0.0000

> <Gold.PLP.ligand.torsion>
0.3769

> <Gold.PLP.Chemscore.Hbond>
3.9360

> <Gold.PLP.Chemscore.CHOScore>
0.0000

> <Gold.PLP.Chemscore.Metal>
0.0000

> <Gold.Chemscore.Hbonds>
donor molecule, donor type, donor heavy atom, donor atom, acceptor molecule, acceptor atom, score
      L1  H     8    28       P1  7948  0.88
      L1  H    11    32       P1  7948  0.91
      L1  H    13    29       P1 10175  2.00

> <Gold.PLP.Chemscore.Internal.Correction>
0.0108

> <Gold.Rescore>
     Score         DG    S(hbond)    S(metal)    S(lipo)     H(rot)  DE(clash)    DE(int)     intcor
     16.58     -16.88       2.91        0.00      43.69       1.34       0.00       0.30       ----

> <Gold.Chemscore.Fitness>
16.5797

> <Gold.Chemscore.DG>
-16.8773

> <Gold.Chemscore.ZeroCoef>
-5.4800

> <Gold.Chemscore.Hbond>
2.9052

> <Gold.Chemscore.Metal>
0.0000

> <Gold.Chemscore.Lipo>
43.6887

> <Gold.Chemscore.Internal_Hbond>
0.0000

> <Gold.Chemscore.DEClash>
0.0000

> <Gold.Chemscore.DEInternal>
0.2976

> <Gold.Chemscore.Rot>
1.3351

> <Gold.Chemscore.Internal.Correction>
   9.000000E+99

> <Gold.Chemscore.Hbonds>
donor molecule, donor type, donor heavy atom, donor atom, acceptor molecule, acceptor atom, score
      L1  H     8    28       P1  7948  0.86
      L1  H    11    32       P1  7948  0.89
      L1  H    13    29       P1 10175  0.93

> <Gold.Chemscore.Hbond.Weighted>
-9.7034

> <Gold.Chemscore.Metal.Weighted>
-0.0000

> <Gold.Chemscore.Lipo.Weighted>
-5.1116

> <Gold.Chemscore.Internal_Hbond.Weighted>
0.0000

> <Gold.Chemscore.DEClash.Weighted>
0.0000

> <Gold.Chemscore.DEInternal.Weighted>
0.2976

> <Gold.Chemscore.Rot.Weighted>
3.4177

> <Gold.Chemscore.Internal.Correction.Weighted>
   9.000000E+99

> <Gold.Protein.RotatedTorsions>
[ 6907 6896 6895 6894 ] final   84.29 input  -60.11 | X-H torsion
[ 7974 7965 7964 7962 ] final   90.78 input  175.53 | X-H torsion
[ 8008 7997 7996 7995 ] final -175.25 input   59.86 | X-H torsion
[ 10167 10162 10161 10158 ] final  -76.77 input  -65.29 | X-H torsion
[ 10718 10713 10712 10709 ] final  123.18 input   66.30 | X-H torsion
[ 10763 10752 10751 10750 ] final -134.69 input  -60.55 | X-H torsion
[ 11005 11000 10999 10996 ] final   47.75 input  -57.11 | X-H torsion

> <Gold.Protein.ActiveResidues>
 VAL166  LYS551  ARG553  GLY616  TRP617  ASP618  TYR619  PRO620  LYS621  CYS622 
 ASP623  PHE694  ASN695  SER759  ASP760  ASP761  ALA762  ILE779  LEU786  VAL792 
 PHE793  MET794  SER795  GLU796  ALA797  LYS798  CYS799  TRP800  GLU811  SER814 

> <Gold.Protein.RotatedAtoms>
  152.5349  134.2763  159.8990 H   0  0  0  0  0  0  0  0  0  0  0  0  # atno 6907 bound_to 6896
  151.2718  133.4245  159.2629 H   0  0  0  0  0  0  0  0  0  0  0  0  # atno 6908 bound_to 6896
  151.0361  134.9589  159.8193 H   0  0  0  0  0  0  0  0  0  0  0  0  # atno 6909 bound_to 6896
  145.5144  139.2277  143.2706 H   0  0  0  0  0  0  0  0  0  0  0  0  # atno 7974 bound_to 7965
  155.9803  140.1180  157.0733 H   0  0  0  0  0  0  0  0  0  0  0  0  # atno 8008 bound_to 7997
  154.4181  140.1146  156.5494 H   0  0  0  0  0  0  0  0  0  0  0  0  # atno 8009 bound_to 7997
  155.6480  140.3473  155.4740 H   0  0  0  0  0  0  0  0  0  0  0  0  # atno 8010 bound_to 7997
  140.4828  143.2398  151.8031 H   0  0  0  0  0  0  0  0  0  0  0  0  # atno 10167 bound_to 10162
  157.5685  131.1085  150.8411 H   0  0  0  0  0  0  0  0  0  0  0  0  # atno 10718 bound_to 10713
  154.8715  135.3727  154.4776 H   0  0  0  0  0  0  0  0  0  0  0  0  # atno 10763 bound_to 10752
  153.5432  135.7026  153.5631 H   0  0  0  0  0  0  0  0  0  0  0  0  # atno 10764 bound_to 10752
  153.3784  135.4003  155.1803 H   0  0  0  0  0  0  0  0  0  0  0  0  # atno 10765 bound_to 10752
  140.1251  134.4778  155.8566 H   0  0  0  0  0  0  0  0  0  0  0  0  # atno 11005 bound_to 11000
  146.2146  140.5953  142.9044 LP  0  0  0  0  0  0  0  0  0  0  0  0  # atno 17320 bound_to 7965
  144.7710  140.5636  143.6670 LP  0  0  0  0  0  0  0  0  0  0  0  0  # atno 17321 bound_to 7965
  139.4836  144.4751  151.9377 LP  0  0  0  0  0  0  0  0  0  0  0  0  # atno 17342 bound_to 10162
  140.3836  144.2704  150.5906 LP  0  0  0  0  0  0  0  0  0  0  0  0  # atno 17343 bound_to 10162
  156.8889  130.5206  149.5287 LP  0  0  0  0  0  0  0  0  0  0  0  0  # atno 17370 bound_to 10713
  156.0731  130.5760  150.9422 LP  0  0  0  0  0  0  0  0  0  0  0  0  # atno 17371 bound_to 10713
  141.2159  133.6775  156.6963 LP  0  0  0  0  0  0  0  0  0  0  0  0  # atno 17394 bound_to 11000
  140.2914  134.8237  157.4020 LP  0  0  0  0  0  0  0  0  0  0  0  0  # atno 17395 bound_to 11000

$$$$
