AV-unprocessed.smi:193|AV-procd|sdf|1500|dock6
  -GOLD-   2262019323D 1   1.00000     0.00000
 Structure written by MMmdl.
 62 66  0  0  0  0  0  0  0  0  2 V2000
  154.4760  140.9165  160.5113 C   0  0  0  0  0  0  0  0  0  0  0  0
  153.1949  141.1643  159.6985 C   0  0  2  0  0  0  0  0  0  0  0  0
  153.2585  140.3608  158.3824 C   0  0  0  0  0  0  0  0  0  0  0  0
  151.9533  140.0858  157.7770 N   0  0  0  0  0  0  0  0  0  0  0  0
  151.8839  139.1215  156.8218 C   0  0  0  0  0  0  0  0  0  0  0  0
  152.3825  139.3804  155.5836 N   0  0  0  0  0  0  0  0  0  0  0  0
  152.3121  138.4584  154.6191 C   0  0  0  0  0  0  0  0  0  0  0  0
  151.7940  137.2306  154.6754 N   0  0  0  0  0  0  0  0  0  0  0  0
  151.3010  136.9577  155.9170 C   0  0  0  0  0  0  0  0  0  0  0  0
  151.3110  137.8343  157.0392 C   0  0  0  0  0  0  0  0  0  0  0  0
  150.7440  137.1982  158.1382 N   0  0  0  0  0  0  0  0  0  0  0  0
  150.4059  136.0211  157.6878 C   0  0  0  0  0  0  0  0  0  0  0  0
  150.6894  135.7977  156.3595 N   0  0  0  0  0  0  0  0  0  0  0  0
  150.4106  134.5868  155.6022 C   0  0  0  0  0  0  0  0  0  0  0  0
  148.9029  134.3396  155.3424 C   0  0  0  0  0  0  0  0  0  0  0  0
  148.3844  135.4787  154.6785 O   0  0  0  0  0  0  0  0  0  0  0  0
  148.7106  133.1149  154.4254 C   0  0  0  0  0  0  0  0  0  0  0  0
  147.2289  132.7249  154.2789 C   0  0  0  0  0  0  0  0  0  0  0  0
  146.6551  132.5052  155.5618 O   0  0  0  0  0  0  0  0  0  0  0  0
  146.6552  133.6750  156.3704 C   0  0  0  0  0  0  0  0  0  0  0  0
  148.0997  134.1297  156.6453 C   0  0  0  0  0  0  0  0  0  0  0  0
  150.8389  141.0291  157.8674 C   0  0  0  0  0  0  0  0  0  0  0  0
  151.2677  142.4942  157.7159 C   0  0  0  0  0  0  0  0  0  0  0  0
  151.6667  143.0732  159.0208 N   0  3  2  0  0  0  0  0  0  0  0  0
  151.4992  144.5455  159.0489 C   0  0  1  0  0  0  0  0  0  0  0  0
  150.2726  145.0104  159.8027 C   0  0  0  0  0  0  0  0  0  0  0  0
  151.6430  145.1869  160.4181 C   0  0  1  0  0  0  0  0  0  0  0  0
  152.0178  144.4174  161.6718 C   0  0  0  0  0  0  0  0  0  0  0  0
  153.0331  142.6795  159.4436 C   0  0  0  0  0  0  0  0  0  0  0  0
  155.3611  141.2534  159.9704 H   0  0  0  0  0  0  0  0  0  0  0  0
  154.6048  139.8563  160.7322 H   0  0  0  0  0  0  0  0  0  0  0  0
  154.4480  141.4436  161.4655 H   0  0  0  0  0  0  0  0  0  0  0  0
  152.3627  140.8054  160.3065 H   0  0  0  0  0  0  0  0  0  0  0  0
  153.9023  140.8662  157.6611 H   0  0  0  0  0  0  0  0  0  0  0  0
  153.7268  139.3965  158.5870 H   0  0  0  0  0  0  0  0  0  0  0  0
  152.7277  138.7464  153.6646 H   0  0  0  0  0  0  0  0  0  0  0  0
  149.9287  135.2810  158.3138 H   0  0  0  0  0  0  0  0  0  0  0  0
  150.9562  134.6376  154.6588 H   0  0  0  0  0  0  0  0  0  0  0  0
  150.8356  133.7457  156.1518 H   0  0  0  0  0  0  0  0  0  0  0  0
  148.7684  135.5258  153.8163 H   0  0  0  0  0  0  0  0  0  0  0  0
  149.1481  133.2988  153.4432 H   0  0  0  0  0  0  0  0  0  0  0  0
  149.2493  132.2633  154.8433 H   0  0  0  0  0  0  0  0  0  0  0  0
  146.6693  133.4933  153.7432 H   0  0  0  0  0  0  0  0  0  0  0  0
  147.1415  131.8084  153.6954 H   0  0  0  0  0  0  0  0  0  0  0  0
  146.0788  134.4654  155.8871 H   0  0  0  0  0  0  0  0  0  0  0  0
  146.1517  133.4502  157.3108 H   0  0  0  0  0  0  0  0  0  0  0  0
  148.5929  133.3694  157.2523 H   0  0  0  0  0  0  0  0  0  0  0  0
  148.0853  135.0400  157.2455 H   0  0  0  0  0  0  0  0  0  0  0  0
  150.1242  140.8284  157.0691 H   0  0  0  0  0  0  0  0  0  0  0  0
  150.2984  140.8731  158.8016 H   0  0  0  0  0  0  0  0  0  0  0  0
  152.0462  142.6218  156.9619 H   0  0  0  0  0  0  0  0  0  0  0  0
  150.4008  143.0431  157.3466 H   0  0  0  0  0  0  0  0  0  0  0  0
  151.8154  145.0758  158.1521 H   0  0  0  0  0  0  0  0  0  0  0  0
  149.7711  145.9063  159.4423 H   0  0  0  0  0  0  0  0  0  0  0  0
  149.6173  144.2564  160.2354 H   0  0  0  0  0  0  0  0  0  0  0  0
  152.0358  146.2020  160.4113 H   0  0  0  0  0  0  0  0  0  0  0  0
  151.5463  143.4346  161.6933 H   0  0  0  0  0  0  0  0  0  0  0  0
  151.6930  144.9685  162.5544 H   0  0  0  0  0  0  0  0  0  0  0  0
  153.0989  144.2891  161.7255 H   0  0  0  0  0  0  0  0  0  0  0  0
  153.2573  143.2130  160.3679 H   0  0  0  0  0  0  0  0  0  0  0  0
  153.7642  143.0276  158.7121 H   0  0  0  0  0  0  0  0  0  0  0  0
  151.0250  142.7078  159.7099 H   0  0  0  0  0  0  0  0  0  0  0  0
  1  2  1  0  0  0  0
  1 30  1  0  0  0  0
  1 31  1  0  0  0  0
  1 32  1  0  0  0  0
  2 29  1  0  0  0  0
  2  3  1  0  0  0  0
  2 33  1  0  0  0  0
  3  4  1  0  0  0  0
  3 34  1  0  0  0  0
  3 35  1  0  0  0  0
  4  5  1  0  0  0  0
  4 22  1  0  0  0  0
  5 10  1  0  0  0  0
  5  6  2  0  0  0  0
  6  7  1  0  0  0  0
  7  8  2  0  0  0  0
  7 36  1  0  0  0  0
  8  9  1  0  0  0  0
  9 13  1  0  0  0  0
  9 10  2  0  0  0  0
 10 11  1  0  0  0  0
 11 12  2  0  0  0  0
 12 13  1  0  0  0  0
 12 37  1  0  0  0  0
 13 14  1  0  0  0  0
 14 15  1  0  0  0  0
 14 38  1  0  0  0  0
 14 39  1  0  0  0  0
 15 21  1  0  0  0  0
 15 16  1  0  0  0  0
 15 17  1  0  0  0  0
 16 40  1  0  0  0  0
 17 18  1  0  0  0  0
 17 41  1  0  0  0  0
 17 42  1  0  0  0  0
 18 19  1  0  0  0  0
 18 43  1  0  0  0  0
 18 44  1  0  0  0  0
 19 20  1  0  0  0  0
 20 21  1  0  0  0  0
 20 45  1  0  0  0  0
 20 46  1  0  0  0  0
 21 47  1  0  0  0  0
 21 48  1  0  0  0  0
 22 23  1  0  0  0  0
 22 49  1  0  0  0  0
 22 50  1  0  0  0  0
 23 24  1  0  0  0  0
 23 51  1  0  0  0  0
 23 52  1  0  0  0  0
 24 25  1  0  0  0  0
 24 29  1  0  0  0  0
 24 62  1  0  0  0  0
 25 27  1  0  0  0  0
 25 26  1  0  0  0  0
 25 53  1  0  0  0  0
 26 27  1  0  0  0  0
 26 54  1  0  0  0  0
 26 55  1  0  0  0  0
 27 28  1  0  0  0  0
 27 56  1  0  0  0  0
 28 57  1  0  0  0  0
 28 58  1  0  0  0  0
 28 59  1  0  0  0  0
 29 60  1  0  0  0  0
 29 61  1  0  0  0  0
M  CHG  1  24   1
M  END
> <s_m_source_file>
AV-unprocessed.smi

> <i_m_source_file_index>
193

> <i_lp_mmshare_version>
43012

> <i_f3d_flags>
0

> <s_epik_input>
W0NIM11bQ0BASF0xW0NIMl1bQ0BIXTFOKFtDSDJdMilbQ0gyXVtDSDJdTihbQ0gyXVtDQEhdMltDSDNdKWMobltjSF1uMyljKGMzNCluW2NIXW40W0NIMl1DNShbT0hdKVtDSDJdW0NIMl1PW0NIMl1bQ0gyXTU=

> <s_epik_cmdline>
J2VwaWtfcHl0aG9uJywgJy1waCcsICc3LjAnLCAnLXRuJywgJzgnLCAnLW1hJywgJzIwMCcsICctbWV0YWxfYmluZGluZycsICctaW1hZScsICc8aW5maWxlLm1hZT4nLCAnLW9tYWUnLCAnPG91dGZpbGUubWFlPic=

> <r_lp_tautomer_probability>
1

> <r_epik_Ionization_Penalty>
0.0540825

> <r_epik_Ionization_Penalty_Charging>
0.0538476

> <r_epik_Ionization_Penalty_Neutral>
0.000234891

> <r_epik_State_Penalty>
0.0200719

> <r_epik_Charging_Adjusted_Penalty>
0.0739194

> <i_epik_Tot_Q>
1

> <i_epik_Tot_abs_Q>
1

> <r_epik_Metal_State_Penalty>
0.0199414

> <b_epik_Metal_Only>
0

> <s_lp_Force_Field>
OPLS_2005

> <r_lp_Energy>
56.6778

> <b_lp_Chiralities_Consistent>
1

> <s_lp_Variant>
AV-unprocessed.smi:193-5

> <Gold.Version>
5.8.1

> <Gold.Id.Protein>
6NUR|6NUR_protein|mol2

> <Gold.PLP.Fitness>
53.9468

> <Gold.PLP.PLP>
-48.2633

> <Gold.PLP.part.hbond>
-2.5501

> <Gold.PLP.part.metal>
0.0000

> <Gold.PLP.part.buried>
-5.5318

> <Gold.PLP.part.nonpolar>
-40.4357

> <Gold.PLP.part.repulsive>
0.2446

> <Gold.PLP.ligand.clash>
0.0000

> <Gold.PLP.ligand.torsion>
2.2223

> <Gold.PLP.Chemscore.Hbond>
2.9360

> <Gold.PLP.Chemscore.CHOScore>
0.0000

> <Gold.PLP.Chemscore.Metal>
0.0000

> <Gold.Chemscore.Hbonds>
donor molecule, donor type, donor heavy atom, donor atom, acceptor molecule, acceptor atom, score
      L1  H    16    40       P1  7948  0.91
      P1  H  7997  8009       L1     6  0.31
      P1  H 10752 10764       L1     8  0.90

> <Gold.PLP.Chemscore.Internal.Correction>
1.3202

> <Gold.Rescore>
     Score         DG    S(hbond)    S(metal)    S(lipo)     H(rot)  DE(clash)    DE(int)     intcor
     19.25     -22.62       2.54        0.00     116.18       1.93       0.02       3.35       ----

> <Gold.Chemscore.Fitness>
19.2520

> <Gold.Chemscore.DG>
-22.6223

> <Gold.Chemscore.ZeroCoef>
-5.4800

> <Gold.Chemscore.Hbond>
2.5411

> <Gold.Chemscore.Metal>
0.0000

> <Gold.Chemscore.Lipo>
116.1830

> <Gold.Chemscore.Internal_Hbond>
0.0000

> <Gold.Chemscore.DEClash>
0.0194

> <Gold.Chemscore.DEInternal>
3.3509

> <Gold.Chemscore.Rot>
1.9290

> <Gold.Chemscore.Internal.Correction>
   9.000000E+99

> <Gold.Chemscore.Hbonds>
donor molecule, donor type, donor heavy atom, donor atom, acceptor molecule, acceptor atom, score
      L1  H    16    40       P1  7948  0.81
      P1  H  7997  8009       L1     6  0.03
      P1  H 10752 10764       L1     8  0.16

> <Gold.Chemscore.Hbond.Weighted>
-8.4871

> <Gold.Chemscore.Metal.Weighted>
-0.0000

> <Gold.Chemscore.Lipo.Weighted>
-13.5934

> <Gold.Chemscore.Internal_Hbond.Weighted>
0.0000

> <Gold.Chemscore.DEClash.Weighted>
0.0194

> <Gold.Chemscore.DEInternal.Weighted>
3.3509

> <Gold.Chemscore.Rot.Weighted>
4.9383

> <Gold.Chemscore.Internal.Correction.Weighted>
   9.000000E+99

> <Gold.Protein.RotatedTorsions>
[ 6907 6896 6895 6894 ] final   44.19 input  -60.11 | X-H torsion
[ 7974 7965 7964 7962 ] final    3.77 input  175.53 | X-H torsion
[ 8008 7997 7996 7995 ] final -167.94 input   59.86 | X-H torsion
[ 10167 10162 10161 10158 ] final  170.26 input  -65.29 | X-H torsion
[ 10718 10713 10712 10709 ] final   92.52 input   66.30 | X-H torsion
[ 10763 10752 10751 10750 ] final  -66.44 input  -60.55 | X-H torsion
[ 11005 11000 10999 10996 ] final   89.52 input  -57.11 | X-H torsion

> <Gold.Protein.ActiveResidues>
 VAL166  LYS551  ARG553  GLY616  TRP617  ASP618  TYR619  PRO620  LYS621  CYS622 
 ASP623  PHE694  ASN695  SER759  ASP760  ASP761  ALA762  ILE779  LEU786  VAL792 
 PHE793  MET794  SER795  GLU796  ALA797  LYS798  CYS799  TRP800  GLU811  SER814 

> <Gold.Protein.RotatedAtoms>
  152.2295  134.8336  160.0475 H   0  0  0  0  0  0  0  0  0  0  0  0  # atno 6907 bound_to 6896
  151.9090  133.3551  159.3865 H   0  0  0  0  0  0  0  0  0  0  0  0  # atno 6908 bound_to 6896
  150.7021  134.4677  159.5454 H   0  0  0  0  0  0  0  0  0  0  0  0  # atno 6909 bound_to 6896
  146.2445  140.0635  142.8367 H   0  0  0  0  0  0  0  0  0  0  0  0  # atno 7974 bound_to 7965
  155.8846  140.1014  157.1461 H   0  0  0  0  0  0  0  0  0  0  0  0  # atno 8008 bound_to 7997
  154.4008  140.1322  156.4303 H   0  0  0  0  0  0  0  0  0  0  0  0  # atno 8009 bound_to 7997
  155.7604  140.3463  155.5197 H   0  0  0  0  0  0  0  0  0  0  0  0  # atno 8010 bound_to 7997
  139.5014  144.3616  151.9819 H   0  0  0  0  0  0  0  0  0  0  0  0  # atno 10167 bound_to 10162
  157.6958  131.0446  150.3895 H   0  0  0  0  0  0  0  0  0  0  0  0  # atno 10718 bound_to 10713
  154.3599  135.6118  153.5685 H   0  0  0  0  0  0  0  0  0  0  0  0  # atno 10763 bound_to 10752
  152.9794  135.5812  154.4645 H   0  0  0  0  0  0  0  0  0  0  0  0  # atno 10764 bound_to 10752
  154.4381  135.2849  155.1844 H   0  0  0  0  0  0  0  0  0  0  0  0  # atno 10765 bound_to 10752
  139.8874  134.8556  156.3153 H   0  0  0  0  0  0  0  0  0  0  0  0  # atno 11005 bound_to 11000
  145.0879  140.9265  143.4786 LP  0  0  0  0  0  0  0  0  0  0  0  0  # atno 17320 bound_to 7965
  145.0801  139.2966  143.5788 LP  0  0  0  0  0  0  0  0  0  0  0  0  # atno 17321 bound_to 7965
  140.3052  144.3601  150.6049 LP  0  0  0  0  0  0  0  0  0  0  0  0  # atno 17342 bound_to 10162
  140.5842  143.2171  151.7372 LP  0  0  0  0  0  0  0  0  0  0  0  0  # atno 17343 bound_to 10162
  156.4300  130.3970  149.6767 LP  0  0  0  0  0  0  0  0  0  0  0  0  # atno 17370 bound_to 10713
  156.3988  130.7664  151.2670 LP  0  0  0  0  0  0  0  0  0  0  0  0  # atno 17371 bound_to 10713
  140.9823  133.7260  156.0690 LP  0  0  0  0  0  0  0  0  0  0  0  0  # atno 17394 bound_to 11000
  140.7733  134.3807  157.5503 LP  0  0  0  0  0  0  0  0  0  0  0  0  # atno 17395 bound_to 11000

$$$$
