AV-unprocessed.smi:1323|AV-procd|sdf|5465|dock4
  -GOLD-   22720 5 33D 1   1.00000     0.00000
 Structure written by MMmdl.
 45 46  0  0  0  0  0  0  0  0  1 V2000
  146.6826  130.1172  153.6401 C   0  0  0  0  0  0  0  0  0  0  0  0
  146.1264  131.3465  152.9033 C   0  0  2  0  0  0  0  0  0  0  0  0
  145.4190  130.9236  151.5997 C   0  0  0  0  0  0  0  0  0  0  0  0
  144.8583  132.1331  150.8368 C   0  0  0  0  0  0  0  0  0  0  0  0
  145.9637  133.1559  150.5406 C   0  0  0  0  0  0  0  0  0  0  0  0
  146.6673  133.5950  151.8331 C   0  0  0  0  0  0  0  0  0  0  0  0
  147.2308  132.3888  152.6145 C   0  0  1  0  0  0  0  0  0  0  0  0
  147.7430  132.8408  153.8617 O   0  0  0  0  0  0  0  0  0  0  0  0
  148.8909  133.6707  153.7596 C   0  0  0  0  0  0  0  0  0  0  0  0
  148.8808  134.6762  154.9157 C   0  0  0  0  0  0  0  0  0  0  0  0
  149.5222  135.9201  154.5135 N   0  0  0  0  0  0  0  0  0  0  0  0
  150.7108  136.3440  154.9642 C   0  0  0  0  0  0  0  0  0  0  0  0
  151.3867  135.7106  155.7766 O   0  0  0  0  0  0  0  0  0  0  0  0
  151.1882  137.6953  154.4122 C   0  0  0  0  0  0  0  0  0  0  0  0
  151.4242  138.7097  155.4531 N   0  0  0  0  0  0  0  0  0  0  0  0
  152.1705  138.3080  156.5788 C   0  0  0  0  0  0  0  0  0  0  0  0
  152.4458  139.1514  157.5861 C   0  0  0  0  0  0  0  0  0  0  0  0
  151.9530  140.5053  157.4967 C   0  0  0  0  0  0  0  0  0  0  0  0
  151.2420  140.9014  156.4222 C   0  0  0  0  0  0  0  0  0  0  0  0
  150.9424  139.9838  155.3165 C   0  0  0  0  0  0  0  0  0  0  0  0
  150.2982  140.3388  154.3290 O   0  0  0  0  0  0  0  0  0  0  0  0
  147.4454  129.6109  153.0477 H   0  0  0  0  0  0  0  0  0  0  0  0
  145.8925  129.3960  153.8509 H   0  0  0  0  0  0  0  0  0  0  0  0
  147.1322  130.3947  154.5936 H   0  0  0  0  0  0  0  0  0  0  0  0
  145.3819  131.8123  153.5507 H   0  0  0  0  0  0  0  0  0  0  0  0
  146.1180  130.3846  150.9587 H   0  0  0  0  0  0  0  0  0  0  0  0
  144.6087  130.2288  151.8237 H   0  0  0  0  0  0  0  0  0  0  0  0
  144.3958  131.8045  149.9056 H   0  0  0  0  0  0  0  0  0  0  0  0
  144.0702  132.6043  151.4253 H   0  0  0  0  0  0  0  0  0  0  0  0
  146.6926  132.7213  149.8555 H   0  0  0  0  0  0  0  0  0  0  0  0
  145.5408  134.0236  150.0336 H   0  0  0  0  0  0  0  0  0  0  0  0
  147.4623  134.2989  151.5880 H   0  0  0  0  0  0  0  0  0  0  0  0
  145.9604  134.1378  152.4621 H   0  0  0  0  0  0  0  0  0  0  0  0
  148.0182  131.9064  152.0313 H   0  0  0  0  0  0  0  0  0  0  0  0
  149.7891  133.0541  153.8162 H   0  0  0  0  0  0  0  0  0  0  0  0
  148.9180  134.1980  152.8054 H   0  0  0  0  0  0  0  0  0  0  0  0
  147.8573  134.8731  155.2381 H   0  0  0  0  0  0  0  0  0  0  0  0
  149.4142  134.2579  155.7705 H   0  0  0  0  0  0  0  0  0  0  0  0
  149.0240  136.4998  153.8536 H   0  0  0  0  0  0  0  0  0  0  0  0
  152.0943  137.5381  153.8239 H   0  0  0  0  0  0  0  0  0  0  0  0
  150.4451  138.0530  153.6977 H   0  0  0  0  0  0  0  0  0  0  0  0
  152.5073  137.2816  156.5650 H   0  0  0  0  0  0  0  0  0  0  0  0
  153.0239  138.8266  158.4386 H   0  0  0  0  0  0  0  0  0  0  0  0
  152.1568  141.2041  158.2948 H   0  0  0  0  0  0  0  0  0  0  0  0
  150.8826  141.9187  156.3720 H   0  0  0  0  0  0  0  0  0  0  0  0
  1  2  1  0  0  0  0
  1 22  1  0  0  0  0
  1 23  1  0  0  0  0
  1 24  1  0  0  0  0
  2  7  1  0  0  0  0
  2  3  1  0  0  0  0
  2 25  1  0  0  0  0
  3  4  1  0  0  0  0
  3 26  1  0  0  0  0
  3 27  1  0  0  0  0
  4  5  1  0  0  0  0
  4 28  1  0  0  0  0
  4 29  1  0  0  0  0
  5  6  1  0  0  0  0
  5 30  1  0  0  0  0
  5 31  1  0  0  0  0
  6  7  1  0  0  0  0
  6 32  1  0  0  0  0
  6 33  1  0  0  0  0
  7  8  1  0  0  0  0
  7 34  1  0  0  0  0
  8  9  1  0  0  0  0
  9 10  1  0  0  0  0
  9 35  1  0  0  0  0
  9 36  1  0  0  0  0
 10 11  1  0  0  0  0
 10 37  1  0  0  0  0
 10 38  1  0  0  0  0
 11 12  1  0  0  0  0
 11 39  1  0  0  0  0
 12 13  2  0  0  0  0
 12 14  1  0  0  0  0
 14 15  1  0  0  0  0
 14 40  1  0  0  0  0
 14 41  1  0  0  0  0
 15 20  1  0  0  0  0
 15 16  1  0  0  0  0
 16 17  2  0  0  0  0
 16 42  1  0  0  0  0
 17 18  1  0  0  0  0
 17 43  1  0  0  0  0
 18 19  2  0  0  0  0
 18 44  1  0  0  0  0
 19 20  1  0  0  0  0
 19 45  1  0  0  0  0
 20 21  2  0  0  0  0
M  END
> <s_m_source_file>
AV-unprocessed.smi

> <i_m_source_file_index>
1323

> <i_lp_mmshare_version>
43012

> <i_f3d_flags>
0

> <s_epik_input>
W0NIM11bQ0BASF0xW0NIMl1bQ0gyXVtDSDJdW0NIMl1bQ0BIXTFPW0NIMl1bQ0gyXVtOSF1DKD1PKVtDSDJdbjJbY0hdW2NIXVtjSF1bY0hdYzI9Tw==

> <s_epik_cmdline>
J2VwaWtfcHl0aG9uJywgJy1waCcsICc3LjAnLCAnLXRuJywgJzgnLCAnLW1hJywgJzIwMCcsICctbWV0YWxfYmluZGluZycsICctaW1hZScsICc8aW5maWxlLm1hZT4nLCAnLW9tYWUnLCAnPG91dGZpbGUubWFlPic=

> <r_lp_tautomer_probability>
1

> <r_epik_Ionization_Penalty>
4.02412e-07

> <r_epik_Ionization_Penalty_Charging>
3.74552e-07

> <r_epik_Ionization_Penalty_Neutral>
2.78599e-08

> <r_epik_State_Penalty>
-0

> <r_epik_Charging_Adjusted_Penalty>
3.74552e-07

> <i_epik_Tot_Q>
0

> <i_epik_Tot_abs_Q>
0

> <r_epik_Metal_State_Penalty>
-0

> <b_epik_Metal_Only>
0

> <s_lp_Force_Field>
OPLS_2005

> <r_lp_Energy>
21.1571

> <b_lp_Chiralities_Consistent>
1

> <s_lp_Variant>
AV-unprocessed.smi:1323-1

> <Gold.Version>
5.8.1

> <Gold.Id.Protein>
6NUR|6NUR_protein|mol2

> <Gold.PLP.Fitness>
45.7441

> <Gold.PLP.PLP>
-39.0186

> <Gold.PLP.part.hbond>
-3.0000

> <Gold.PLP.part.metal>
0.0000

> <Gold.PLP.part.buried>
-4.2008

> <Gold.PLP.part.nonpolar>
-32.6173

> <Gold.PLP.part.repulsive>
0.2810

> <Gold.PLP.ligand.clash>
0.0000

> <Gold.PLP.ligand.torsion>
0.6288

> <Gold.PLP.Chemscore.Hbond>
2.6400

> <Gold.PLP.Chemscore.CHOScore>
0.0000

> <Gold.PLP.Chemscore.Metal>
0.0000

> <Gold.Chemscore.Hbonds>
donor molecule, donor type, donor heavy atom, donor atom, acceptor molecule, acceptor atom, score
      L1  H    11    39       P1  7948  0.50
      P1  H  7989  7998       L1    21  0.74
      P1  H 10752 10763       L1    13  1.00

> <Gold.PLP.Chemscore.Internal.Correction>
0.0631

> <Gold.Rescore>
     Score         DG    S(hbond)    S(metal)    S(lipo)     H(rot)  DE(clash)    DE(int)     intcor
     14.92     -17.53       1.96        0.00      89.39       1.94       0.17       2.44       ----

> <Gold.Chemscore.Fitness>
14.9190

> <Gold.Chemscore.DG>
-17.5313

> <Gold.Chemscore.ZeroCoef>
-5.4800

> <Gold.Chemscore.Hbond>
1.9637

> <Gold.Chemscore.Metal>
0.0000

> <Gold.Chemscore.Lipo>
89.3891

> <Gold.Chemscore.Internal_Hbond>
0.0000

> <Gold.Chemscore.DEClash>
0.1745

> <Gold.Chemscore.DEInternal>
2.4378

> <Gold.Chemscore.Rot>
1.9398

> <Gold.Chemscore.Internal.Correction>
   9.000000E+99

> <Gold.Chemscore.Hbonds>
donor molecule, donor type, donor heavy atom, donor atom, acceptor molecule, acceptor atom, score
      L1  H    11    39       P1  7948  0.48
      P1  H  7989  7998       L1    21  0.09
      P1  H 10752 10763       L1    13  0.60

> <Gold.Chemscore.Hbond.Weighted>
-6.5588

> <Gold.Chemscore.Metal.Weighted>
-0.0000

> <Gold.Chemscore.Lipo.Weighted>
-10.4585

> <Gold.Chemscore.Internal_Hbond.Weighted>
0.0000

> <Gold.Chemscore.DEClash.Weighted>
0.1745

> <Gold.Chemscore.DEInternal.Weighted>
2.4378

> <Gold.Chemscore.Rot.Weighted>
4.9659

> <Gold.Chemscore.Internal.Correction.Weighted>
   9.000000E+99

> <Gold.Protein.RotatedTorsions>
[ 6907 6896 6895 6894 ] final   98.09 input  -60.11 | X-H torsion
[ 7974 7965 7964 7962 ] final  117.36 input  175.53 | X-H torsion
[ 8008 7997 7996 7995 ] final   15.20 input   59.86 | X-H torsion
[ 10167 10162 10161 10158 ] final   68.70 input  -65.29 | X-H torsion
[ 10718 10713 10712 10709 ] final -122.01 input   66.30 | X-H torsion
[ 10763 10752 10751 10750 ] final   86.13 input  -60.55 | X-H torsion
[ 11005 11000 10999 10996 ] final   96.24 input  -57.11 | X-H torsion

> <Gold.Protein.ActiveResidues>
 VAL166  LYS551  ARG553  GLY616  TRP617  ASP618  TYR619  PRO620  LYS621  CYS622 
 ASP623  PHE694  ASN695  SER759  ASP760  ASP761  ALA762  ILE779  LEU786  VAL792 
 PHE793  MET794  SER795  GLU796  ALA797  LYS798  CYS799  TRP800  GLU811  SER814 

> <Gold.Protein.RotatedAtoms>
  152.5414  134.0633  159.8161 H   0  0  0  0  0  0  0  0  0  0  0  0  # atno 6907 bound_to 6896
  151.0758  133.5422  159.2631 H   0  0  0  0  0  0  0  0  0  0  0  0  # atno 6908 bound_to 6896
  151.2268  135.0548  159.9026 H   0  0  0  0  0  0  0  0  0  0  0  0  # atno 6909 bound_to 6896
  145.1683  139.3116  143.4481 H   0  0  0  0  0  0  0  0  0  0  0  0  # atno 7974 bound_to 7965
  154.8593  140.2942  155.5549 H   0  0  0  0  0  0  0  0  0  0  0  0  # atno 8008 bound_to 7997
  156.3019  140.2481  156.3498 H   0  0  0  0  0  0  0  0  0  0  0  0  # atno 8009 bound_to 7997
  154.8935  140.0393  157.1841 H   0  0  0  0  0  0  0  0  0  0  0  0  # atno 8010 bound_to 7997
  140.0758  144.5113  150.7195 H   0  0  0  0  0  0  0  0  0  0  0  0  # atno 10167 bound_to 10162
  156.1384  130.6447  150.9732 H   0  0  0  0  0  0  0  0  0  0  0  0  # atno 10718 bound_to 10713
  153.1541  135.4591  154.9679 H   0  0  0  0  0  0  0  0  0  0  0  0  # atno 10763 bound_to 10752
  154.7848  135.3200  154.7914 H   0  0  0  0  0  0  0  0  0  0  0  0  # atno 10764 bound_to 10752
  153.8414  135.6930  153.4857 H   0  0  0  0  0  0  0  0  0  0  0  0  # atno 10765 bound_to 10752
  139.8783  134.8941  156.4130 H   0  0  0  0  0  0  0  0  0  0  0  0  # atno 11005 bound_to 11000
  146.3472  140.1819  142.8589 LP  0  0  0  0  0  0  0  0  0  0  0  0  # atno 17320 bound_to 7965
  145.0259  140.8832  143.5138 LP  0  0  0  0  0  0  0  0  0  0  0  0  # atno 17321 bound_to 7965
  140.7102  143.2499  151.4603 LP  0  0  0  0  0  0  0  0  0  0  0  0  # atno 17342 bound_to 10162
  139.5808  144.1713  152.1966 LP  0  0  0  0  0  0  0  0  0  0  0  0  # atno 17343 bound_to 10162
  157.6553  131.0890  150.7960 LP  0  0  0  0  0  0  0  0  0  0  0  0  # atno 17370 bound_to 10713
  156.8038  130.4930  149.5366 LP  0  0  0  0  0  0  0  0  0  0  0  0  # atno 17371 bound_to 10713
  140.9187  133.7660  155.9880 LP  0  0  0  0  0  0  0  0  0  0  0  0  # atno 17394 bound_to 11000
  140.8464  134.3006  157.5293 LP  0  0  0  0  0  0  0  0  0  0  0  0  # atno 17395 bound_to 11000

$$$$
