AV-unprocessed.smi:1399|AV-procd|sdf|5681|dock3
  -GOLD-   22720 5303D 1   1.00000     0.00000
 Structure written by MMmdl.
 37 38  0  0  0  0  0  0  0  0  1 V2000
  142.7092  132.8851  148.3553 N   0  0  0  0  0  0  0  0  0  0  0  0
  143.8330  132.5853  149.0115 C   0  0  0  0  0  0  0  0  0  0  0  0
  144.8110  132.0945  148.4521 O   0  0  0  0  0  0  0  0  0  0  0  0
  143.8592  132.8712  150.5175 C   0  0  0  0  0  0  0  0  0  0  0  0
  144.1705  134.2743  150.8770 N   0  0  0  0  0  0  0  0  0  0  0  0
  145.5394  134.4317  151.3911 C   0  0  0  0  0  0  0  0  0  0  0  0
  145.8410  135.9118  151.6870 C   0  0  0  0  0  0  0  0  0  0  0  0
  144.8338  136.4971  152.6905 C   0  0  0  0  0  0  0  0  0  0  0  0
  145.0431  137.9311  152.8664 N   0  0  0  0  0  0  0  0  0  0  0  0
  146.1862  138.5006  153.2738 C   0  0  0  0  0  0  0  0  0  0  0  0
  147.2055  137.8651  153.5442 O   0  0  0  0  0  0  0  0  0  0  0  0
  146.0679  139.8366  153.3436 N   0  0  0  0  0  0  0  0  0  0  0  0
  147.0605  140.7696  153.7360 C   0  0  0  0  0  0  0  0  0  0  0  0
  148.4613  140.5539  153.6298 C   0  0  0  0  0  0  0  0  0  0  0  0
  149.1466  141.5986  154.0719 N   0  0  0  0  0  0  0  0  0  0  0  0
  148.1965  142.4791  154.4601 N   0  0  0  0  0  0  0  0  0  0  0  0
  146.9122  142.0175  154.2739 C   0  0  0  0  0  0  0  0  0  0  0  0
  143.4115  136.2352  152.1766 C   0  0  0  0  0  0  0  0  0  0  0  0
  143.1994  134.7420  151.8718 C   0  0  0  0  0  0  0  0  0  0  0  0
  148.4373  143.3813  154.8456 H   0  0  0  0  0  0  0  0  0  0  0  0
  142.6489  132.7203  147.3611 H   0  0  0  0  0  0  0  0  0  0  0  0
  141.9270  133.2817  148.8557 H   0  0  0  0  0  0  0  0  0  0  0  0
  142.8785  132.6029  150.9131 H   0  0  0  0  0  0  0  0  0  0  0  0
  144.5778  132.2011  150.9935 H   0  0  0  0  0  0  0  0  0  0  0  0
  145.6744  133.8312  152.2924 H   0  0  0  0  0  0  0  0  0  0  0  0
  146.2717  134.0782  150.6653 H   0  0  0  0  0  0  0  0  0  0  0  0
  146.8560  136.0070  152.0742 H   0  0  0  0  0  0  0  0  0  0  0  0
  145.8120  136.4796  150.7556 H   0  0  0  0  0  0  0  0  0  0  0  0
  144.9512  135.9934  153.6522 H   0  0  0  0  0  0  0  0  0  0  0  0
  144.2577  138.5325  152.6649 H   0  0  0  0  0  0  0  0  0  0  0  0
  145.1722  140.2282  153.0914 H   0  0  0  0  0  0  0  0  0  0  0  0
  148.9926  139.6919  153.2536 H   0  0  0  0  0  0  0  0  0  0  0  0
  146.0436  142.6040  154.5343 H   0  0  0  0  0  0  0  0  0  0  0  0
  142.6806  136.5677  152.9147 H   0  0  0  0  0  0  0  0  0  0  0  0
  143.2261  136.8185  151.2731 H   0  0  0  0  0  0  0  0  0  0  0  0
  142.1859  134.6025  151.4931 H   0  0  0  0  0  0  0  0  0  0  0  0
  143.2790  134.1539  152.7880 H   0  0  0  0  0  0  0  0  0  0  0  0
  1  2  1  0  0  0  0
  1 21  1  0  0  0  0
  1 22  1  0  0  0  0
  2  3  2  0  0  0  0
  2  4  1  0  0  0  0
  4  5  1  0  0  0  0
  4 23  1  0  0  0  0
  4 24  1  0  0  0  0
  5 19  1  0  0  0  0
  5  6  1  0  0  0  0
  6  7  1  0  0  0  0
  6 25  1  0  0  0  0
  6 26  1  0  0  0  0
  7  8  1  0  0  0  0
  7 27  1  0  0  0  0
  7 28  1  0  0  0  0
  8  9  1  0  0  0  0
  8 18  1  0  0  0  0
  8 29  1  0  0  0  0
  9 10  1  0  0  0  0
  9 30  1  0  0  0  0
 10 11  2  0  0  0  0
 10 12  1  0  0  0  0
 12 13  1  0  0  0  0
 12 31  1  0  0  0  0
 13 17  2  0  0  0  0
 13 14  1  0  0  0  0
 14 15  2  0  0  0  0
 14 32  1  0  0  0  0
 15 16  1  0  0  0  0
 16 20  1  0  0  0  0
 16 17  1  0  0  0  0
 17 33  1  0  0  0  0
 18 19  1  0  0  0  0
 18 34  1  0  0  0  0
 18 35  1  0  0  0  0
 19 36  1  0  0  0  0
 19 37  1  0  0  0  0
M  END
> <s_m_source_file>
AV-unprocessed.smi

> <i_m_source_file_index>
1399

> <i_lp_mmshare_version>
43012

> <i_f3d_flags>
0

> <s_epik_input>
W05IMl1DKD1PKVtDSDJdTjFbQ0gyXVtDSDJdW0NIXShbQ0gyXVtDSDJdMSlbTkhdQyg9TylbTkhdYzJbY0hdbltuSF1bY0hdMg==

> <s_epik_cmdline>
J2VwaWtfcHl0aG9uJywgJy1waCcsICc3LjAnLCAnLXRuJywgJzgnLCAnLW1hJywgJzIwMCcsICctbWV0YWxfYmluZGluZycsICctaW1hZScsICc8aW5maWxlLm1hZT4nLCAnLW9tYWUnLCAnPG91dGZpbGUubWFlPic=

> <r_lp_tautomer_probability>
0.5

> <r_epik_Ionization_Penalty>
0.164786

> <r_epik_Ionization_Penalty_Charging>
0

> <r_epik_Ionization_Penalty_Neutral>
0.164786

> <r_epik_State_Penalty>
0.154069

> <r_epik_Charging_Adjusted_Penalty>
0.154069

> <i_epik_Tot_Q>
0

> <i_epik_Tot_abs_Q>
0

> <r_epik_Metal_State_Penalty>
0.171367

> <b_epik_Metal_Only>
0

> <s_lp_Force_Field>
OPLS_2005

> <r_lp_Energy>
13.9175

> <b_lp_Chiralities_Consistent>
1

> <s_lp_Variant>
AV-unprocessed.smi:1399-1

> <Gold.Version>
5.8.1

> <Gold.Id.Protein>
6NUR|6NUR_protein|mol2

> <Gold.PLP.Fitness>
48.7520

> <Gold.PLP.PLP>
-32.5324

> <Gold.PLP.part.hbond>
-8.7063

> <Gold.PLP.part.metal>
0.0000

> <Gold.PLP.part.buried>
-4.1119

> <Gold.PLP.part.nonpolar>
-23.9703

> <Gold.PLP.part.repulsive>
3.3541

> <Gold.PLP.ligand.clash>
0.0000

> <Gold.PLP.ligand.torsion>
1.1173

> <Gold.PLP.Chemscore.Hbond>
5.5270

> <Gold.PLP.Chemscore.CHOScore>
0.6203

> <Gold.PLP.Chemscore.Metal>
0.0000

> <Gold.Chemscore.Hbonds>
donor molecule, donor type, donor heavy atom, donor atom, acceptor molecule, acceptor atom, score
      L1  H     1    21       P1 10195  0.89
      L1  H     1    22       P1 10186  1.00
      L1  H     9    30       P1 10175  0.91
      L1  H    12    31       P1 10175  1.00
      L1  H    16    20       P1  8028  1.00
      P1  H  8011  8017       L1    15  0.62
      L1  C    14    32       P1  7957  0.60

> <Gold.PLP.Chemscore.Internal.Correction>
0.0125

> <Gold.Rescore>
     Score         DG    S(hbond)    S(metal)    S(lipo)     H(rot)  DE(clash)    DE(int)     intcor
     19.48     -21.88       4.72        0.00      50.43       2.06       0.13       2.27       ----

> <Gold.Chemscore.Fitness>
19.4766

> <Gold.Chemscore.DG>
-21.8785

> <Gold.Chemscore.ZeroCoef>
-5.4800

> <Gold.Chemscore.Hbond>
4.7236

> <Gold.Chemscore.Metal>
0.0000

> <Gold.Chemscore.Lipo>
50.4324

> <Gold.Chemscore.Internal_Hbond>
0.0000

> <Gold.Chemscore.DEClash>
0.1322

> <Gold.Chemscore.DEInternal>
2.2697

> <Gold.Chemscore.Rot>
2.0620

> <Gold.Chemscore.Internal.Correction>
   9.000000E+99

> <Gold.Chemscore.Hbonds>
donor molecule, donor type, donor heavy atom, donor atom, acceptor molecule, acceptor atom, score
      L1  H     1    21       P1 10195  0.83
      L1  H     1    22       P1 10186  0.98
      L1  H     9    30       P1 10175  0.84
      L1  H    12    31       P1 10175  0.99
      L1  H    16    20       P1  8028  0.98
      P1  H  8011  8017       L1    15  0.07

> <Gold.Chemscore.Hbond.Weighted>
-15.7767

> <Gold.Chemscore.Metal.Weighted>
-0.0000

> <Gold.Chemscore.Lipo.Weighted>
-5.9006

> <Gold.Chemscore.Internal_Hbond.Weighted>
0.0000

> <Gold.Chemscore.DEClash.Weighted>
0.1322

> <Gold.Chemscore.DEInternal.Weighted>
2.2697

> <Gold.Chemscore.Rot.Weighted>
5.2788

> <Gold.Chemscore.Internal.Correction.Weighted>
   9.000000E+99

> <Gold.Protein.RotatedTorsions>
[ 6907 6896 6895 6894 ] final  -20.19 input  -60.11 | X-H torsion
[ 7974 7965 7964 7962 ] final  104.88 input  175.53 | X-H torsion
[ 8008 7997 7996 7995 ] final    2.53 input   59.86 | X-H torsion
[ 10167 10162 10161 10158 ] final   88.27 input  -65.29 | X-H torsion
[ 10718 10713 10712 10709 ] final  102.05 input   66.30 | X-H torsion
[ 10763 10752 10751 10750 ] final -133.93 input  -60.55 | X-H torsion
[ 11005 11000 10999 10996 ] final  173.77 input  -57.11 | X-H torsion

> <Gold.Protein.ActiveResidues>
 VAL166  LYS551  ARG553  GLY616  TRP617  ASP618  TYR619  PRO620  LYS621  CYS622 
 ASP623  PHE694  ASN695  SER759  ASP760  ASP761  ALA762  ILE779  LEU786  VAL792 
 PHE793  MET794  SER795  GLU796  ALA797  LYS798  CYS799  TRP800  GLU811  SER814 

> <Gold.Protein.RotatedAtoms>
  151.2519  135.0625  159.9064 H   0  0  0  0  0  0  0  0  0  0  0  0  # atno 6907 bound_to 6896
  152.5379  134.0323  159.8041 H   0  0  0  0  0  0  0  0  0  0  0  0  # atno 6908 bound_to 6896
  151.0533  133.5556  159.2671 H   0  0  0  0  0  0  0  0  0  0  0  0  # atno 6909 bound_to 6896
  145.3270  139.2497  143.3681 H   0  0  0  0  0  0  0  0  0  0  0  0  # atno 7974 bound_to 7965
  154.6928  140.2656  155.6796 H   0  0  0  0  0  0  0  0  0  0  0  0  # atno 8008 bound_to 7997
  156.2738  140.2788  156.1435 H   0  0  0  0  0  0  0  0  0  0  0  0  # atno 8009 bound_to 7997
  155.0873  140.0373  157.2648 H   0  0  0  0  0  0  0  0  0  0  0  0  # atno 8010 bound_to 7997
  139.8689  144.6503  150.8972 H   0  0  0  0  0  0  0  0  0  0  0  0  # atno 10167 bound_to 10162
  157.6813  131.0742  150.5345 H   0  0  0  0  0  0  0  0  0  0  0  0  # atno 10718 bound_to 10713
  154.8726  135.3750  154.4653 H   0  0  0  0  0  0  0  0  0  0  0  0  # atno 10763 bound_to 10752
  153.5318  135.7027  153.5684 H   0  0  0  0  0  0  0  0  0  0  0  0  # atno 10764 bound_to 10752
  153.3886  135.3978  155.1872 H   0  0  0  0  0  0  0  0  0  0  0  0  # atno 10765 bound_to 10752
  140.3441  134.7251  157.4222 H   0  0  0  0  0  0  0  0  0  0  0  0  # atno 11005 bound_to 11000
  146.3060  140.3840  142.8687 LP  0  0  0  0  0  0  0  0  0  0  0  0  # atno 17320 bound_to 7965
  144.8894  140.7504  143.5936 LP  0  0  0  0  0  0  0  0  0  0  0  0  # atno 17321 bound_to 7965
  140.7764  143.3680  151.1702 LP  0  0  0  0  0  0  0  0  0  0  0  0  # atno 17342 bound_to 10162
  139.7302  143.9084  152.3017 LP  0  0  0  0  0  0  0  0  0  0  0  0  # atno 17343 bound_to 10162
  156.5653  130.4266  149.6044 LP  0  0  0  0  0  0  0  0  0  0  0  0  # atno 17370 bound_to 10713
  156.2786  130.7058  151.1876 LP  0  0  0  0  0  0  0  0  0  0  0  0  # atno 17371 bound_to 10713
  140.0757  134.5801  155.8594 LP  0  0  0  0  0  0  0  0  0  0  0  0  # atno 17394 bound_to 11000
  141.2030  133.6629  156.6040 LP  0  0  0  0  0  0  0  0  0  0  0  0  # atno 17395 bound_to 11000

$$$$
