AV-unprocessed.smi:2226|AV-procd|sdf|9010|dock2
  -GOLD-   2272012213D 1   1.00000     0.00000
 Structure written by MMmdl.
 40 42  0  0  0  0  0  0  0  0  2 V2000
  145.9691  142.2541  154.6922 C   0  0  0  0  0  0  0  0  0  0  0  0
  146.0017  140.8797  154.1375 N   0  3  2  0  0  0  0  0  0  0  0  0
  145.8142  139.7993  155.1363 C   0  0  1  0  0  0  0  0  0  0  0  0
  145.4366  138.4941  154.3970 C   0  0  0  0  0  0  0  0  0  0  0  0
  146.4224  138.1043  153.2765 C   0  0  0  0  0  0  0  0  0  0  0  0
  146.8691  139.3191  152.4376 C   0  0  0  0  0  0  0  0  0  0  0  0
  147.1732  140.5818  153.2779 C   0  0  2  0  0  0  0  0  0  0  0  0
  148.4782  140.5104  154.1098 C   0  0  0  0  0  0  0  0  0  0  0  0
  148.4029  139.5923  155.3516 C   0  0  1  0  0  0  0  0  0  0  0  0
  149.4664  139.9616  156.2848 N   0  0  0  0  0  0  0  0  0  0  0  0
  150.7619  140.1513  155.9892 C   0  0  0  0  0  0  0  0  0  0  0  0
  151.1925  140.0231  154.8388 O   0  0  0  0  0  0  0  0  0  0  0  0
  151.4590  140.4913  157.1393 N   0  0  0  0  0  0  0  0  0  0  0  0
  151.5478  141.7357  157.4950 C   0  0  0  0  0  0  0  0  0  0  0  0
  152.1986  142.2528  158.6037 N   0  0  0  0  0  0  0  0  0  0  0  0
  152.0415  143.6112  158.5945 C   0  0  0  0  0  0  0  0  0  0  0  0
  151.3219  143.9375  157.5249 C   0  0  0  0  0  0  0  0  0  0  0  0
  151.0033  142.8102  156.8297 O   0  0  0  0  0  0  0  0  0  0  0  0
  147.0400  139.6828  156.0763 C   0  0  0  0  0  0  0  0  0  0  0  0
  146.7956  142.4445  155.3764 H   0  0  0  0  0  0  0  0  0  0  0  0
  145.0378  142.4232  155.2336 H   0  0  0  0  0  0  0  0  0  0  0  0
  146.0203  142.9893  153.8888 H   0  0  0  0  0  0  0  0  0  0  0  0
  144.9550  140.0631  155.7547 H   0  0  0  0  0  0  0  0  0  0  0  0
  145.3303  137.6713  155.1048 H   0  0  0  0  0  0  0  0  0  0  0  0
  144.4511  138.6300  153.9496 H   0  0  0  0  0  0  0  0  0  0  0  0
  147.2856  137.5913  153.6916 H   0  0  0  0  0  0  0  0  0  0  0  0
  145.9561  137.3652  152.6243 H   0  0  0  0  0  0  0  0  0  0  0  0
  147.7296  139.0533  151.8228 H   0  0  0  0  0  0  0  0  0  0  0  0
  146.0680  139.5614  151.7382 H   0  0  0  0  0  0  0  0  0  0  0  0
  147.2842  141.4042  152.5697 H   0  0  0  0  0  0  0  0  0  0  0  0
  149.3101  140.2030  153.4750 H   0  0  0  0  0  0  0  0  0  0  0  0
  148.7257  141.5225  154.4330 H   0  0  0  0  0  0  0  0  0  0  0  0
  148.5526  138.5655  155.0291 H   0  0  0  0  0  0  0  0  0  0  0  0
  149.1942  140.0858  157.2494 H   0  0  0  0  0  0  0  0  0  0  0  0
  152.7101  141.7552  159.3181 H   0  0  0  0  0  0  0  0  0  0  0  0
  152.4741  144.2166  159.3771 H   0  0  0  0  0  0  0  0  0  0  0  0
  150.9695  144.8821  157.1378 H   0  0  0  0  0  0  0  0  0  0  0  0
  147.0450  140.5555  156.7308 H   0  0  0  0  0  0  0  0  0  0  0  0
  146.9205  138.8278  156.7429 H   0  0  0  0  0  0  0  0  0  0  0  0
  145.1973  140.8300  153.5284 H   0  0  0  0  0  0  0  0  0  0  0  0
  1  2  1  0  0  0  0
  1 20  1  0  0  0  0
  1 21  1  0  0  0  0
  1 22  1  0  0  0  0
  2  7  1  0  0  0  0
  2  3  1  0  0  0  0
  2 40  1  0  0  0  0
  3 19  1  0  0  0  0
  3  4  1  0  0  0  0
  3 23  1  0  0  0  0
  4  5  1  0  0  0  0
  4 24  1  0  0  0  0
  4 25  1  0  0  0  0
  5  6  1  0  0  0  0
  5 26  1  0  0  0  0
  5 27  1  0  0  0  0
  6  7  1  0  0  0  0
  6 28  1  0  0  0  0
  6 29  1  0  0  0  0
  7  8  1  0  0  0  0
  7 30  1  0  0  0  0
  8  9  1  0  0  0  0
  8 31  1  0  0  0  0
  8 32  1  0  0  0  0
  9 10  1  0  0  0  0
  9 19  1  0  0  0  0
  9 33  1  0  0  0  0
 10 34  1  0  0  0  0
 10 11  1  0  0  0  0
 11 13  1  0  0  0  0
 11 12  2  0  0  0  0
 13 14  2  0  0  0  0
 14 18  1  0  0  0  0
 14 15  1  0  0  0  0
 15 35  1  0  0  0  0
 15 16  1  0  0  0  0
 16 36  1  0  0  0  0
 16 17  2  0  0  0  0
 17 37  1  0  0  0  0
 17 18  1  0  0  0  0
 19 38  1  0  0  0  0
 19 39  1  0  0  0  0
M  CHG  1   2   1
M  END
> <s_m_source_file>
AV-unprocessed.smi

> <i_m_source_file_index>
2226

> <i_lp_mmshare_version>
43012

> <i_f3d_flags>
0

> <s_epik_input>
W0NIMl0xW0NIMl1bQ0gyXVtDQEhdKE4oW0NIM10pW0NIXTEyKVtDSDJdW0NASF0oW0NIMl0yKVtOSF1DKD1PKVtOSF1jM25bY0hdW2NIXW8z

> <s_epik_cmdline>
J2VwaWtfcHl0aG9uJywgJy1waCcsICc3LjAnLCAnLXRuJywgJzgnLCAnLW1hJywgJzIwMCcsICctbWV0YWxfYmluZGluZycsICctaW1hZScsICc8aW5maWxlLm1hZT4nLCAnLW9tYWUnLCAnPG91dGZpbGUubWFlPic=

> <r_lp_tautomer_probability>
0.107061

> <r_epik_Ionization_Penalty>
1.08307

> <r_epik_Ionization_Penalty_Charging>
1.08272

> <r_epik_Ionization_Penalty_Neutral>
0.000345913

> <r_epik_State_Penalty>
2.5744

> <r_epik_Charging_Adjusted_Penalty>
3.65713

> <i_epik_Tot_Q>
1

> <i_epik_Tot_abs_Q>
1

> <r_epik_Metal_State_Penalty>
3.72133

> <b_epik_Metal_Only>
0

> <s_lp_Force_Field>
OPLS_2005

> <r_lp_Energy>
57.8706

> <b_lp_Chiralities_Consistent>
1

> <s_lp_Variant>
AV-unprocessed.smi:2226-10

> <Gold.Version>
5.8.1

> <Gold.Id.Protein>
6NUR|6NUR_protein|mol2

> <Gold.PLP.Fitness>
35.8369

> <Gold.PLP.PLP>
-26.3366

> <Gold.PLP.part.hbond>
-2.0000

> <Gold.PLP.part.metal>
0.0000

> <Gold.PLP.part.buried>
-2.3838

> <Gold.PLP.part.nonpolar>
-23.2177

> <Gold.PLP.part.repulsive>
0.5405

> <Gold.PLP.ligand.clash>
0.0000

> <Gold.PLP.ligand.torsion>
0.8411

> <Gold.PLP.Chemscore.Hbond>
3.0000

> <Gold.PLP.Chemscore.CHOScore>
0.7254

> <Gold.PLP.Chemscore.Metal>
0.0000

> <Gold.Chemscore.Hbonds>
donor molecule, donor type, donor heavy atom, donor atom, acceptor molecule, acceptor atom, score
      L1  H     2    40       P1 10175  2.00
      P1  H  7989  7998       L1    12  1.00
      L1  C    17    37       P1  8028  0.72

> <Gold.PLP.Chemscore.Internal.Correction>
0.0063

> <Gold.Rescore>
     Score         DG    S(hbond)    S(metal)    S(lipo)     H(rot)  DE(clash)    DE(int)     intcor
     14.58     -16.82       1.96        0.00      62.92       1.00       0.07       2.17       ----

> <Gold.Chemscore.Fitness>
14.5790

> <Gold.Chemscore.DG>
-16.8197

> <Gold.Chemscore.ZeroCoef>
-5.4800

> <Gold.Chemscore.Hbond>
1.9576

> <Gold.Chemscore.Metal>
0.0000

> <Gold.Chemscore.Lipo>
62.9184

> <Gold.Chemscore.Internal_Hbond>
0.0000

> <Gold.Chemscore.DEClash>
0.0735

> <Gold.Chemscore.DEInternal>
2.1672

> <Gold.Chemscore.Rot>
1.0000

> <Gold.Chemscore.Internal.Correction>
   9.000000E+99

> <Gold.Chemscore.Hbonds>
donor molecule, donor type, donor heavy atom, donor atom, acceptor molecule, acceptor atom, score
      L1  H     2    40       P1 10175  0.85
      P1  H  7989  7998       L1    12  1.00

> <Gold.Chemscore.Hbond.Weighted>
-6.5383

> <Gold.Chemscore.Metal.Weighted>
-0.0000

> <Gold.Chemscore.Lipo.Weighted>
-7.3615

> <Gold.Chemscore.Internal_Hbond.Weighted>
0.0000

> <Gold.Chemscore.DEClash.Weighted>
0.0735

> <Gold.Chemscore.DEInternal.Weighted>
2.1672

> <Gold.Chemscore.Rot.Weighted>
2.5600

> <Gold.Chemscore.Internal.Correction.Weighted>
   9.000000E+99

> <Gold.Protein.RotatedTorsions>
[ 6907 6896 6895 6894 ] final  -83.44 input  -60.11 | X-H torsion
[ 7974 7965 7964 7962 ] final -139.03 input  175.53 | X-H torsion
[ 8008 7997 7996 7995 ] final  132.94 input   59.86 | X-H torsion
[ 10167 10162 10161 10158 ] final -173.40 input  -65.29 | X-H torsion
[ 10718 10713 10712 10709 ] final  -15.96 input   66.30 | X-H torsion
[ 10763 10752 10751 10750 ] final  173.49 input  -60.55 | X-H torsion
[ 11005 11000 10999 10996 ] final   38.85 input  -57.11 | X-H torsion

> <Gold.Protein.ActiveResidues>
 VAL166  LYS551  ARG553  GLY616  TRP617  ASP618  TYR619  PRO620  LYS621  CYS622 
 ASP623  PHE694  ASN695  SER759  ASP760  ASP761  ALA762  ILE779  LEU786  VAL792 
 PHE793  MET794  SER795  GLU796  ALA797  LYS798  CYS799  TRP800  GLU811  SER814 

> <Gold.Protein.RotatedAtoms>
  150.6885  134.3512  159.4909 H   0  0  0  0  0  0  0  0  0  0  0  0  # atno 6907 bound_to 6896
  152.1353  134.9101  160.0566 H   0  0  0  0  0  0  0  0  0  0  0  0  # atno 6908 bound_to 6896
  152.0255  133.3881  159.4313 H   0  0  0  0  0  0  0  0  0  0  0  0  # atno 6909 bound_to 6896
  144.8710  140.6366  143.5267 H   0  0  0  0  0  0  0  0  0  0  0  0  # atno 7974 bound_to 7965
  156.2987  140.2534  156.3171 H   0  0  0  0  0  0  0  0  0  0  0  0  # atno 8008 bound_to 7997
  154.9271  140.0399  157.2047 H   0  0  0  0  0  0  0  0  0  0  0  0  # atno 8009 bound_to 7997
  154.8255  140.2867  155.5762 H   0  0  0  0  0  0  0  0  0  0  0  0  # atno 8010 bound_to 7997
  139.5691  144.1685  152.1357 H   0  0  0  0  0  0  0  0  0  0  0  0  # atno 10167 bound_to 10162
  156.5943  130.4807  149.6266 H   0  0  0  0  0  0  0  0  0  0  0  0  # atno 10718 bound_to 10713
  154.4408  135.2762  155.1848 H   0  0  0  0  0  0  0  0  0  0  0  0  # atno 10763 bound_to 10752
  154.3715  135.6107  153.5746 H   0  0  0  0  0  0  0  0  0  0  0  0  # atno 10764 bound_to 10752
  152.9841  135.5858  154.4736 H   0  0  0  0  0  0  0  0  0  0  0  0  # atno 10765 bound_to 10752
  140.2085  134.3784  155.8060 H   0  0  0  0  0  0  0  0  0  0  0  0  # atno 11005 bound_to 11000
  145.4131  139.1576  143.4115 LP  0  0  0  0  0  0  0  0  0  0  0  0  # atno 17320 bound_to 7965
  146.2930  140.4236  142.8732 LP  0  0  0  0  0  0  0  0  0  0  0  0  # atno 17321 bound_to 7965
  140.1214  144.5370  150.6860 LP  0  0  0  0  0  0  0  0  0  0  0  0  # atno 17342 bound_to 10162
  140.6975  143.2413  151.4959 LP  0  0  0  0  0  0  0  0  0  0  0  0  # atno 17343 bound_to 10162
  156.2523  130.6914  151.1656 LP  0  0  0  0  0  0  0  0  0  0  0  0  # atno 17370 bound_to 10713
  157.7296  131.0623  150.5767 LP  0  0  0  0  0  0  0  0  0  0  0  0  # atno 17371 bound_to 10713
  141.2226  133.7131  156.8378 LP  0  0  0  0  0  0  0  0  0  0  0  0  # atno 17394 bound_to 11000
  140.1976  134.8920  157.3132 LP  0  0  0  0  0  0  0  0  0  0  0  0  # atno 17395 bound_to 11000

$$$$
