AV-unprocessed.smi:260|AV-procd|sdf|1982|dock3
  -GOLD-   2262021153D 1   1.00000     0.00000
 Structure written by MMmdl.
 53 56  0  0  0  0  0  0  0  0  1 V2000
  153.2398  142.4431  161.9304 C   0  0  0  0  0  0  0  0  0  0  0  0
  152.5573  143.2451  160.9269 N   0  0  0  0  0  0  0  0  0  0  0  0
  152.7114  143.0957  159.6015 C   0  0  0  0  0  0  0  0  0  0  0  0
  153.4723  142.2524  159.1245 O   0  0  0  0  0  0  0  0  0  0  0  0
  151.9043  144.0190  158.6510 C   0  0  2  0  0  0  0  0  0  0  0  0
  152.8851  144.9141  157.8685 C   0  0  0  0  0  0  0  0  0  0  0  0
  150.8019  144.8458  159.3530 C   0  0  0  0  0  0  0  0  0  0  0  0
  149.6024  143.8949  159.4622 C   0  0  0  0  0  0  0  0  0  0  0  0
  149.8169  142.8844  158.4370 N   0  0  0  0  0  0  0  0  0  0  0  0
  148.7842  142.2007  157.8806 C   0  0  0  0  0  0  0  0  0  0  0  0
  147.6740  141.9725  158.6312 N   0  0  0  0  0  0  0  0  0  0  0  0
  146.6332  141.3087  158.1205 C   0  0  0  0  0  0  0  0  0  0  0  0
  146.4896  140.7967  156.8974 N   0  0  0  0  0  0  0  0  0  0  0  0
  147.5940  141.0305  156.1332 C   0  0  0  0  0  0  0  0  0  0  0  0
  148.7750  141.7167  156.5389 C   0  0  0  0  0  0  0  0  0  0  0  0
  149.6736  141.7636  155.4776 N   0  0  0  0  0  0  0  0  0  0  0  0
  149.0633  141.1391  154.5080 C   0  0  0  0  0  0  0  0  0  0  0  0
  147.8081  140.6687  154.8158 N   0  0  0  0  0  0  0  0  0  0  0  0
  146.9052  139.9511  153.9338 C   0  0  0  0  0  0  0  0  0  0  0  0
  147.3866  138.5155  153.6467 C   0  0  1  0  0  0  0  0  0  0  0  0
  148.6642  138.5302  153.0382 O   0  0  0  0  0  0  0  0  0  0  0  0
  147.3978  137.6253  154.9056 C   0  0  1  0  0  0  0  0  0  0  0  0
  147.7699  136.1550  154.6977 C   0  0  0  0  0  0  0  0  0  0  0  0
  148.2360  135.7715  156.0843 C   0  0  0  0  0  0  0  0  0  0  0  0
  148.9654  137.0369  156.5298 C   0  0  0  0  0  0  0  0  0  0  0  0
  148.2876  138.1227  155.9024 O   0  0  0  0  0  0  0  0  0  0  0  0
  151.0443  143.1629  157.7020 C   0  0  0  0  0  0  0  0  0  0  0  0
  152.9339  142.7574  162.9283 H   0  0  0  0  0  0  0  0  0  0  0  0
  154.3215  142.5605  161.8518 H   0  0  0  0  0  0  0  0  0  0  0  0
  152.9942  141.3865  161.8151 H   0  0  0  0  0  0  0  0  0  0  0  0
  151.9177  143.9528  161.2577 H   0  0  0  0  0  0  0  0  0  0  0  0
  152.3594  145.5534  157.1586 H   0  0  0  0  0  0  0  0  0  0  0  0
  153.6037  144.3240  157.2980 H   0  0  0  0  0  0  0  0  0  0  0  0
  153.4474  145.5654  158.5389 H   0  0  0  0  0  0  0  0  0  0  0  0
  151.0919  145.2727  160.3135 H   0  0  0  0  0  0  0  0  0  0  0  0
  150.5210  145.6876  158.7182 H   0  0  0  0  0  0  0  0  0  0  0  0
  149.5796  143.4101  160.4387 H   0  0  0  0  0  0  0  0  0  0  0  0
  148.6634  144.4317  159.3217 H   0  0  0  0  0  0  0  0  0  0  0  0
  145.7953  141.1696  158.7874 H   0  0  0  0  0  0  0  0  0  0  0  0
  149.5118  141.0101  153.5337 H   0  0  0  0  0  0  0  0  0  0  0  0
  145.9127  139.9416  154.3860 H   0  0  0  0  0  0  0  0  0  0  0  0
  146.8191  140.5135  153.0033 H   0  0  0  0  0  0  0  0  0  0  0  0
  146.7062  138.0613  152.9252 H   0  0  0  0  0  0  0  0  0  0  0  0
  148.7312  137.7778  152.4702 H   0  0  0  0  0  0  0  0  0  0  0  0
  146.4030  137.6544  155.3539 H   0  0  0  0  0  0  0  0  0  0  0  0
  146.9342  135.5507  154.3437 H   0  0  0  0  0  0  0  0  0  0  0  0
  148.5943  136.0430  153.9928 H   0  0  0  0  0  0  0  0  0  0  0  0
  147.3771  135.5846  156.7305 H   0  0  0  0  0  0  0  0  0  0  0  0
  148.8725  134.8862  156.0947 H   0  0  0  0  0  0  0  0  0  0  0  0
  148.9813  137.1492  157.6141 H   0  0  0  0  0  0  0  0  0  0  0  0
  149.9971  137.0239  156.1758 H   0  0  0  0  0  0  0  0  0  0  0  0
  150.8036  143.7142  156.7916 H   0  0  0  0  0  0  0  0  0  0  0  0
  151.5414  142.2373  157.4072 H   0  0  0  0  0  0  0  0  0  0  0  0
  1  2  1  0  0  0  0
  1 28  1  0  0  0  0
  1 29  1  0  0  0  0
  1 30  1  0  0  0  0
  2  3  1  0  0  0  0
  2 31  1  0  0  0  0
  3  4  2  0  0  0  0
  3  5  1  0  0  0  0
  5 27  1  0  0  0  0
  5  6  1  0  0  0  0
  5  7  1  0  0  0  0
  6 32  1  0  0  0  0
  6 33  1  0  0  0  0
  6 34  1  0  0  0  0
  7  8  1  0  0  0  0
  7 35  1  0  0  0  0
  7 36  1  0  0  0  0
  8  9  1  0  0  0  0
  8 37  1  0  0  0  0
  8 38  1  0  0  0  0
  9 10  1  0  0  0  0
  9 27  1  0  0  0  0
 10 15  1  0  0  0  0
 10 11  2  0  0  0  0
 11 12  1  0  0  0  0
 12 13  2  0  0  0  0
 12 39  1  0  0  0  0
 13 14  1  0  0  0  0
 14 18  1  0  0  0  0
 14 15  2  0  0  0  0
 15 16  1  0  0  0  0
 16 17  2  0  0  0  0
 17 18  1  0  0  0  0
 17 40  1  0  0  0  0
 18 19  1  0  0  0  0
 19 20  1  0  0  0  0
 19 41  1  0  0  0  0
 19 42  1  0  0  0  0
 20 21  1  0  0  0  0
 20 22  1  0  0  0  0
 20 43  1  0  0  0  0
 21 44  1  0  0  0  0
 22 26  1  0  0  0  0
 22 23  1  0  0  0  0
 22 45  1  0  0  0  0
 23 24  1  0  0  0  0
 23 46  1  0  0  0  0
 23 47  1  0  0  0  0
 24 25  1  0  0  0  0
 24 48  1  0  0  0  0
 24 49  1  0  0  0  0
 25 26  1  0  0  0  0
 25 50  1  0  0  0  0
 25 51  1  0  0  0  0
 27 52  1  0  0  0  0
 27 53  1  0  0  0  0
M  END
> <s_m_source_file>
AV-unprocessed.smi

> <i_m_source_file_index>
260

> <i_lp_mmshare_version>
43012

> <i_f3d_flags>
0

> <s_epik_input>
W0NIM11bTkhdQyg9TylbQ0BAXTEoW0NIM10pW0NIMl1bQ0gyXU4oW0NIMl0xKWMobltjSF1uMiljKGMyMyluW2NIXW4zW0NIMl1bQ0BIXShbT0hdKVtDQEBIXTRbQ0gyXVtDSDJdW0NIMl1PNA==

> <s_epik_cmdline>
J2VwaWtfcHl0aG9uJywgJy1waCcsICc3LjAnLCAnLXRuJywgJzgnLCAnLW1hJywgJzIwMCcsICctbWV0YWxfYmluZGluZycsICctaW1hZScsICc8aW5maWxlLm1hZT4nLCAnLW9tYWUnLCAnPG91dGZpbGUubWFlPic=

> <r_lp_tautomer_probability>
1

> <r_epik_Ionization_Penalty>
0.00115068

> <r_epik_Ionization_Penalty_Charging>
0

> <r_epik_Ionization_Penalty_Neutral>
0.00115068

> <r_epik_State_Penalty>
0.000668876

> <r_epik_Charging_Adjusted_Penalty>
0.000668876

> <i_epik_Tot_Q>
0

> <i_epik_Tot_abs_Q>
0

> <r_epik_Metal_State_Penalty>
-0

> <b_epik_Metal_Only>
0

> <s_lp_Force_Field>
OPLS_2005

> <r_lp_Energy>
50.4325

> <b_lp_Chiralities_Consistent>
1

> <s_lp_Variant>
AV-unprocessed.smi:260-8

> <Gold.Version>
5.8.1

> <Gold.Id.Protein>
6NUR|6NUR_protein|mol2

> <Gold.PLP.Fitness>
45.4716

> <Gold.PLP.PLP>
-40.0489

> <Gold.PLP.part.hbond>
-1.9832

> <Gold.PLP.part.metal>
0.0000

> <Gold.PLP.part.buried>
-6.1350

> <Gold.PLP.part.nonpolar>
-32.6996

> <Gold.PLP.part.repulsive>
0.3489

> <Gold.PLP.ligand.clash>
0.0000

> <Gold.PLP.ligand.torsion>
0.4550

> <Gold.PLP.Chemscore.Hbond>
1.0000

> <Gold.PLP.Chemscore.CHOScore>
1.0000

> <Gold.PLP.Chemscore.Metal>
0.0000

> <Gold.Chemscore.Hbonds>
donor molecule, donor type, donor heavy atom, donor atom, acceptor molecule, acceptor atom, score
      L1  H    21    44       P1  7948  1.00
      L1  C    17    40       P1  7957  0.93

> <Gold.PLP.Chemscore.Internal.Correction>
0.3328

> <Gold.Rescore>
     Score         DG    S(hbond)    S(metal)    S(lipo)     H(rot)  DE(clash)    DE(int)     intcor
      8.37     -12.28       0.98        0.00      85.29       2.53       0.68       3.23       ----

> <Gold.Chemscore.Fitness>
8.3675

> <Gold.Chemscore.DG>
-12.2763

> <Gold.Chemscore.ZeroCoef>
-5.4800

> <Gold.Chemscore.Hbond>
0.9833

> <Gold.Chemscore.Metal>
0.0000

> <Gold.Chemscore.Lipo>
85.2855

> <Gold.Chemscore.Internal_Hbond>
0.0000

> <Gold.Chemscore.DEClash>
0.6838

> <Gold.Chemscore.DEInternal>
3.2251

> <Gold.Chemscore.Rot>
2.5259

> <Gold.Chemscore.Internal.Correction>
   9.000000E+99

> <Gold.Chemscore.Hbonds>
donor molecule, donor type, donor heavy atom, donor atom, acceptor molecule, acceptor atom, score
      L1  H    21    44       P1  7948  1.00

> <Gold.Chemscore.Hbond.Weighted>
-3.2842

> <Gold.Chemscore.Metal.Weighted>
-0.0000

> <Gold.Chemscore.Lipo.Weighted>
-9.9784

> <Gold.Chemscore.Internal_Hbond.Weighted>
0.0000

> <Gold.Chemscore.DEClash.Weighted>
0.6838

> <Gold.Chemscore.DEInternal.Weighted>
3.2251

> <Gold.Chemscore.Rot.Weighted>
6.4663

> <Gold.Chemscore.Internal.Correction.Weighted>
   9.000000E+99

> <Gold.Protein.RotatedTorsions>
[ 6907 6896 6895 6894 ] final -123.98 input  -60.11 | X-H torsion
[ 7974 7965 7964 7962 ] final  172.72 input  175.53 | X-H torsion
[ 8008 7997 7996 7995 ] final   15.34 input   59.86 | X-H torsion
[ 10167 10162 10161 10158 ] final   17.67 input  -65.29 | X-H torsion
[ 10718 10713 10712 10709 ] final  -56.45 input   66.30 | X-H torsion
[ 10763 10752 10751 10750 ] final -176.75 input  -60.55 | X-H torsion
[ 11005 11000 10999 10996 ] final   18.50 input  -57.11 | X-H torsion

> <Gold.Protein.ActiveResidues>
 VAL166  LYS551  ARG553  GLY616  TRP617  ASP618  TYR619  PRO620  LYS621  CYS622 
 ASP623  PHE694  ASN695  SER759  ASP760  ASP761  ALA762  ILE779  LEU786  VAL792 
 PHE793  MET794  SER795  GLU796  ALA797  LYS798  CYS799  TRP800  GLU811  SER814 

> <Gold.Protein.RotatedAtoms>
  150.8723  133.7487  159.2957 H   0  0  0  0  0  0  0  0  0  0  0  0  # atno 6907 bound_to 6896
  151.5095  135.1063  159.9860 H   0  0  0  0  0  0  0  0  0  0  0  0  # atno 6908 bound_to 6896
  152.4704  133.7971  159.6989 H   0  0  0  0  0  0  0  0  0  0  0  0  # atno 6909 bound_to 6896
  144.7261  139.9540  143.6433 H   0  0  0  0  0  0  0  0  0  0  0  0  # atno 7974 bound_to 7965
  154.8613  140.2945  155.5537 H   0  0  0  0  0  0  0  0  0  0  0  0  # atno 8008 bound_to 7997
  156.3020  140.2477  156.3520 H   0  0  0  0  0  0  0  0  0  0  0  0  # atno 8009 bound_to 7997
  154.8915  140.0394  157.1830 H   0  0  0  0  0  0  0  0  0  0  0  0  # atno 8010 bound_to 7997
  140.5709  143.9163  150.6712 H   0  0  0  0  0  0  0  0  0  0  0  0  # atno 10167 bound_to 10162
  156.1288  130.4161  150.0306 H   0  0  0  0  0  0  0  0  0  0  0  0  # atno 10718 bound_to 10713
  154.5685  135.2826  155.0850 H   0  0  0  0  0  0  0  0  0  0  0  0  # atno 10763 bound_to 10752
  154.2231  135.6387  153.5155 H   0  0  0  0  0  0  0  0  0  0  0  0  # atno 10764 bound_to 10752
  153.0050  135.5519  154.6302 H   0  0  0  0  0  0  0  0  0  0  0  0  # atno 10765 bound_to 10752
  140.4242  134.1487  155.7675 H   0  0  0  0  0  0  0  0  0  0  0  0  # atno 11005 bound_to 11000
  146.0689  139.3678  143.0535 LP  0  0  0  0  0  0  0  0  0  0  0  0  # atno 17320 bound_to 7965
  145.7994  140.9778  143.1006 LP  0  0  0  0  0  0  0  0  0  0  0  0  # atno 17321 bound_to 7965
  140.2638  143.3505  152.1299 LP  0  0  0  0  0  0  0  0  0  0  0  0  # atno 17342 bound_to 10162
  139.5117  144.6905  151.5773 LP  0  0  0  0  0  0  0  0  0  0  0  0  # atno 17343 bound_to 10162
  156.8224  130.9363  151.3640 LP  0  0  0  0  0  0  0  0  0  0  0  0  # atno 17370 bound_to 10713
  157.6468  130.8850  149.9553 LP  0  0  0  0  0  0  0  0  0  0  0  0  # atno 17371 bound_to 10713
  141.1772  133.8490  157.1382 LP  0  0  0  0  0  0  0  0  0  0  0  0  # atno 17394 bound_to 11000
  140.0179  134.9959  157.0531 LP  0  0  0  0  0  0  0  0  0  0  0  0  # atno 17395 bound_to 11000

$$$$
