AV-unprocessed.smi:3334|AV-procd|sdf|12835|dock9
  -GOLD-   2272019213D 1   1.00000     0.00000
 Structure written by MMmdl.
 41 42  0  0  0  0  0  0  0  0  1 V2000
  152.1594  144.5617  157.3442 C   0  0  0  0  0  0  0  0  0  0  0  0
  151.6352  144.3440  158.7706 C   0  0  0  0  0  0  0  0  0  0  0  0
  151.9305  145.5232  159.7088 C   0  0  0  0  0  0  0  0  0  0  0  0
  152.0937  143.0395  159.3420 C   0  0  0  0  0  0  0  0  0  0  0  0
  152.7966  142.9327  160.4733 N   0  0  0  0  0  0  0  0  0  0  0  0
  153.1284  141.6098  160.7840 C   0  0  0  0  0  0  0  0  0  0  0  0
  153.9318  141.3008  162.0155 C   0  0  0  0  0  0  0  0  0  0  0  0
  154.7728  140.0179  161.8941 C   0  0  0  0  0  0  0  0  0  0  0  0
  154.0827  138.8687  162.4669 N   0  0  0  0  0  0  0  0  0  0  0  0
  154.6335  137.9777  163.3020 C   0  0  0  0  0  0  0  0  0  0  0  0
  155.8130  138.0175  163.6519 O   0  0  0  0  0  0  0  0  0  0  0  0
  153.7069  136.8738  163.8211 C   0  0  0  0  0  0  0  0  0  0  0  0
  154.4690  135.6427  164.3519 C   0  0  2  0  0  0  0  0  0  0  0  0
  154.9886  134.7707  163.2382 C   0  0  0  0  0  0  0  0  0  0  0  0
  154.6587  133.4900  163.3898 C   0  0  0  0  0  0  0  0  0  0  0  0
  153.8528  133.2479  164.6354 C   0  0  0  0  0  0  0  0  0  0  0  0
  153.6062  134.6663  165.1957 C   0  0  0  0  0  0  0  0  0  0  0  0
  152.6540  140.7063  159.8662 C   0  0  0  0  0  0  0  0  0  0  0  0
  151.7791  141.4859  158.5771 S   0  0  0  0  0  0  0  0  0  0  0  0
  151.8428  143.7511  156.6873 H   0  0  0  0  0  0  0  0  0  0  0  0
  153.2488  144.6041  157.3213 H   0  0  0  0  0  0  0  0  0  0  0  0
  151.7812  145.4938  156.9233 H   0  0  0  0  0  0  0  0  0  0  0  0
  150.5492  144.2798  158.6928 H   0  0  0  0  0  0  0  0  0  0  0  0
  151.4759  145.3692  160.6878 H   0  0  0  0  0  0  0  0  0  0  0  0
  151.5356  146.4552  159.3039 H   0  0  0  0  0  0  0  0  0  0  0  0
  153.0032  145.6536  159.8557 H   0  0  0  0  0  0  0  0  0  0  0  0
  154.5891  142.1396  162.2484 H   0  0  0  0  0  0  0  0  0  0  0  0
  153.2669  141.2048  162.8745 H   0  0  0  0  0  0  0  0  0  0  0  0
  154.9903  139.8128  160.8453 H   0  0  0  0  0  0  0  0  0  0  0  0
  155.7310  140.1623  162.3962 H   0  0  0  0  0  0  0  0  0  0  0  0
  153.1045  138.7642  162.2379 H   0  0  0  0  0  0  0  0  0  0  0  0
  153.0597  137.2730  164.6043 H   0  0  0  0  0  0  0  0  0  0  0  0
  153.0509  136.5763  163.0024 H   0  0  0  0  0  0  0  0  0  0  0  0
  155.3353  135.9642  164.9321 H   0  0  0  0  0  0  0  0  0  0  0  0
  155.5782  135.1677  162.4250 H   0  0  0  0  0  0  0  0  0  0  0  0
  154.9390  132.6906  162.7196 H   0  0  0  0  0  0  0  0  0  0  0  0
  152.9211  132.7323  164.4014 H   0  0  0  0  0  0  0  0  0  0  0  0
  154.4264  132.6346  165.3309 H   0  0  0  0  0  0  0  0  0  0  0  0
  153.8546  134.7282  166.2558 H   0  0  0  0  0  0  0  0  0  0  0  0
  152.5471  134.9102  165.1033 H   0  0  0  0  0  0  0  0  0  0  0  0
  152.7687  139.6326  159.8683 H   0  0  0  0  0  0  0  0  0  0  0  0
  1  2  1  0  0  0  0
  1 20  1  0  0  0  0
  1 21  1  0  0  0  0
  1 22  1  0  0  0  0
  2  3  1  0  0  0  0
  2  4  1  0  0  0  0
  2 23  1  0  0  0  0
  3 24  1  0  0  0  0
  3 25  1  0  0  0  0
  3 26  1  0  0  0  0
  4 19  1  0  0  0  0
  4  5  2  0  0  0  0
  5  6  1  0  0  0  0
  6  7  1  0  0  0  0
  6 18  2  0  0  0  0
  7  8  1  0  0  0  0
  7 27  1  0  0  0  0
  7 28  1  0  0  0  0
  8  9  1  0  0  0  0
  8 29  1  0  0  0  0
  8 30  1  0  0  0  0
  9 10  1  0  0  0  0
  9 31  1  0  0  0  0
 10 11  2  0  0  0  0
 10 12  1  0  0  0  0
 12 13  1  0  0  0  0
 12 32  1  0  0  0  0
 12 33  1  0  0  0  0
 13 17  1  0  0  0  0
 13 14  1  0  0  0  0
 13 34  1  0  0  0  0
 14 15  2  0  0  0  0
 14 35  1  0  0  0  0
 15 16  1  0  0  0  0
 15 36  1  0  0  0  0
 16 17  1  0  0  0  0
 16 37  1  0  0  0  0
 16 38  1  0  0  0  0
 17 39  1  0  0  0  0
 17 40  1  0  0  0  0
 18 19  1  0  0  0  0
 18 41  1  0  0  0  0
M  END
> <s_m_source_file>
AV-unprocessed.smi

> <i_m_source_file_index>
3334

> <i_lp_mmshare_version>
43012

> <i_f3d_flags>
0

> <s_epik_input>
W0NIM11bQ0hdKFtDSDNdKWMxbmMoW2NIXXMxKVtDSDJdW0NIMl1bTkhdQyg9TylbQ0gyXVtDQEBIXTJbQ0hdPVtDSF1bQ0gyXVtDSDJdMg==

> <s_epik_cmdline>
J2VwaWtfcHl0aG9uJywgJy1waCcsICc3LjAnLCAnLXRuJywgJzgnLCAnLW1hJywgJzIwMCcsICctbWV0YWxfYmluZGluZycsICctaW1hZScsICc8aW5maWxlLm1hZT4nLCAnLW9tYWUnLCAnPG91dGZpbGUubWFlPic=

> <r_epik_Ionization_Penalty>
0.000771592

> <r_epik_Ionization_Penalty_Charging>
0

> <r_epik_Ionization_Penalty_Neutral>
0.000771592

> <r_epik_State_Penalty>
0.000494253

> <r_epik_Charging_Adjusted_Penalty>
0.000494253

> <i_epik_Tot_Q>
0

> <i_epik_Tot_abs_Q>
0

> <r_epik_Metal_State_Penalty>
-0

> <b_epik_Metal_Only>
0

> <s_lp_Force_Field>
OPLS_2005

> <r_lp_Energy>
4.8696

> <b_lp_Chiralities_Consistent>
1

> <s_lp_Variant>
AV-unprocessed.smi:3334-1

> <Gold.Version>
5.8.1

> <Gold.Id.Protein>
6NUR|6NUR_protein|mol2

> <Gold.PLP.Fitness>
42.9893

> <Gold.PLP.PLP>
-45.1384

> <Gold.PLP.part.hbond>
0.0000

> <Gold.PLP.part.metal>
0.0000

> <Gold.PLP.part.buried>
-4.9023

> <Gold.PLP.part.nonpolar>
-40.2990

> <Gold.PLP.part.repulsive>
0.0141

> <Gold.PLP.ligand.clash>
0.0000

> <Gold.PLP.ligand.torsion>
1.1316

> <Gold.PLP.Chemscore.Hbond>
0.0000

> <Gold.PLP.Chemscore.CHOScore>
0.0000

> <Gold.PLP.Chemscore.Metal>
0.0000

> <Gold.PLP.Chemscore.Internal.Correction>
0.1141

> <Gold.Rescore>
     Score         DG    S(hbond)    S(metal)    S(lipo)     H(rot)  DE(clash)    DE(int)     intcor
     16.32     -17.67       0.00        0.00     137.38       1.52       0.05       1.30       ----

> <Gold.Chemscore.Fitness>
16.3194

> <Gold.Chemscore.DG>
-17.6721

> <Gold.Chemscore.ZeroCoef>
-5.4800

> <Gold.Chemscore.Hbond>
0.0000

> <Gold.Chemscore.Metal>
0.0000

> <Gold.Chemscore.Lipo>
137.3819

> <Gold.Chemscore.Internal_Hbond>
0.0000

> <Gold.Chemscore.DEClash>
0.0529

> <Gold.Chemscore.DEInternal>
1.2998

> <Gold.Chemscore.Rot>
1.5162

> <Gold.Chemscore.Internal.Correction>
   9.000000E+99

> <Gold.Chemscore.Hbond.Weighted>
-0.0000

> <Gold.Chemscore.Metal.Weighted>
-0.0000

> <Gold.Chemscore.Lipo.Weighted>
-16.0737

> <Gold.Chemscore.Internal_Hbond.Weighted>
0.0000

> <Gold.Chemscore.DEClash.Weighted>
0.0529

> <Gold.Chemscore.DEInternal.Weighted>
1.2998

> <Gold.Chemscore.Rot.Weighted>
3.8815

> <Gold.Chemscore.Internal.Correction.Weighted>
   9.000000E+99

> <Gold.Protein.RotatedTorsions>
[ 6907 6896 6895 6894 ] final   77.61 input  -60.11 | X-H torsion
[ 7974 7965 7964 7962 ] final  -81.29 input  175.53 | X-H torsion
[ 8008 7997 7996 7995 ] final    3.71 input   59.86 | X-H torsion
[ 10167 10162 10161 10158 ] final   27.17 input  -65.29 | X-H torsion
[ 10718 10713 10712 10709 ] final   20.76 input   66.30 | X-H torsion
[ 10763 10752 10751 10750 ] final -115.80 input  -60.55 | X-H torsion
[ 11005 11000 10999 10996 ] final   67.78 input  -57.11 | X-H torsion

> <Gold.Protein.ActiveResidues>
 VAL166  LYS551  ARG553  GLY616  TRP617  ASP618  TYR619  PRO620  LYS621  CYS622 
 ASP623  PHE694  ASN695  SER759  ASP760  ASP761  ALA762  ILE779  LEU786  VAL792 
 PHE793  MET794  SER795  GLU796  ALA797  LYS798  CYS799  TRP800  GLU811  SER814 

> <Gold.Protein.RotatedAtoms>
  152.5125  134.3790  159.9344 H   0  0  0  0  0  0  0  0  0  0  0  0  # atno 6907 bound_to 6896
  151.3747  133.3836  159.2711 H   0  0  0  0  0  0  0  0  0  0  0  0  # atno 6908 bound_to 6896
  150.9551  134.8966  159.7754 H   0  0  0  0  0  0  0  0  0  0  0  0  # atno 6909 bound_to 6896
  145.5486  140.9500  143.1512 H   0  0  0  0  0  0  0  0  0  0  0  0  # atno 7974 bound_to 7965
  154.7070  140.2685  155.6665 H   0  0  0  0  0  0  0  0  0  0  0  0  # atno 8008 bound_to 7997
  156.2783  140.2761  156.1623 H   0  0  0  0  0  0  0  0  0  0  0  0  # atno 8009 bound_to 7997
  155.0687  140.0372  157.2591 H   0  0  0  0  0  0  0  0  0  0  0  0  # atno 8010 bound_to 7997
  140.4961  144.0390  150.6315 H   0  0  0  0  0  0  0  0  0  0  0  0  # atno 10167 bound_to 10162
  157.1290  130.6583  149.5946 H   0  0  0  0  0  0  0  0  0  0  0  0  # atno 10718 bound_to 10713
  154.8495  135.4368  154.1720 H   0  0  0  0  0  0  0  0  0  0  0  0  # atno 10763 bound_to 10752
  153.2832  135.6955  153.7371 H   0  0  0  0  0  0  0  0  0  0  0  0  # atno 10764 bound_to 10752
  153.6567  135.3442  155.3090 H   0  0  0  0  0  0  0  0  0  0  0  0  # atno 10765 bound_to 10752
  139.9750  134.6837  156.0371 H   0  0  0  0  0  0  0  0  0  0  0  0  # atno 11005 bound_to 11000
  144.7541  139.7120  143.7261 LP  0  0  0  0  0  0  0  0  0  0  0  0  # atno 17320 bound_to 7965
  146.1932  139.5184  142.9791 LP  0  0  0  0  0  0  0  0  0  0  0  0  # atno 17321 bound_to 7965
  140.3673  143.2874  152.0317 LP  0  0  0  0  0  0  0  0  0  0  0  0  # atno 17342 bound_to 10162
  139.4861  144.6257  151.7169 LP  0  0  0  0  0  0  0  0  0  0  0  0  # atno 17343 bound_to 10162
  155.9812  130.4817  150.6814 LP  0  0  0  0  0  0  0  0  0  0  0  0  # atno 17370 bound_to 10713
  157.4409  131.0861  151.0945 LP  0  0  0  0  0  0  0  0  0  0  0  0  # atno 17371 bound_to 10713
  141.1428  133.6561  156.3779 LP  0  0  0  0  0  0  0  0  0  0  0  0  # atno 17394 bound_to 11000
  140.5213  134.6301  157.5319 LP  0  0  0  0  0  0  0  0  0  0  0  0  # atno 17395 bound_to 11000

$$$$
