AV-unprocessed.smi:66|AV-procd|sdf|622|dock4
  -GOLD-   2262016513D 1   1.00000     0.00000
 Structure written by MMmdl.
 28 30  0  0  0  0  0  0  0  0  2 V2000
  152.4379  137.5265  154.1919 O   0  0  0  0  0  0  0  0  0  0  0  0
  152.2349  138.6656  154.6652 C   0  0  0  0  0  0  0  0  0  0  0  0
  153.0967  139.5656  154.7833 O   0  5  0  0  0  0  0  0  0  0  0  0
  150.8076  138.9749  155.1338 C   0  0  1  0  0  0  0  0  0  0  0  0
  150.1904  140.1802  154.4127 C   0  0  0  0  0  0  0  0  0  0  0  0
  148.6985  139.8853  154.5287 C   0  0  1  0  0  0  0  0  0  0  0  0
  147.9301  140.5695  153.5616 O   0  0  0  0  0  0  0  0  0  0  0  0
  148.6327  138.3650  154.3643 C   0  0  0  0  0  0  0  0  0  0  0  0
  149.9028  137.8556  154.8682 N   0  0  0  0  0  0  0  0  0  0  0  0
  149.7978  136.8637  155.8544 C   0  0  0  0  0  0  0  0  0  0  0  0
  149.9082  137.1822  157.1654 N   0  0  0  0  0  0  0  0  0  0  0  0
  149.7767  136.1905  158.0580 C   0  0  0  0  0  0  0  0  0  0  0  0
  149.5330  134.8853  157.8483 N   0  0  0  0  0  0  0  0  0  0  0  0
  149.4152  134.5650  156.5517 C   0  0  0  0  0  0  0  0  0  0  0  0
  149.1610  133.3022  156.0329 N   0  0  0  0  0  0  0  0  0  0  0  0
  149.1449  133.5406  154.7209 C   0  0  0  0  0  0  0  0  0  0  0  0
  149.3556  134.8118  154.3395 N   0  0  0  0  0  0  0  0  0  0  0  0
  149.5386  135.5281  155.5089 C   0  0  0  0  0  0  0  0  0  0  0  0
  149.3847  135.1480  153.3874 H   0  0  0  0  0  0  0  0  0  0  0  0
  150.8299  139.1885  156.2032 H   0  0  0  0  0  0  0  0  0  0  0  0
  150.4686  141.1314  154.8676 H   0  0  0  0  0  0  0  0  0  0  0  0
  150.4888  140.2057  153.3626 H   0  0  0  0  0  0  0  0  0  0  0  0
  148.3520  140.1604  155.5261 H   0  0  0  0  0  0  0  0  0  0  0  0
  148.3806  140.5183  152.7325 H   0  0  0  0  0  0  0  0  0  0  0  0
  147.7632  137.9444  154.8725 H   0  0  0  0  0  0  0  0  0  0  0  0
  148.5637  138.0896  153.3111 H   0  0  0  0  0  0  0  0  0  0  0  0
  149.8763  136.4830  159.0928 H   0  0  0  0  0  0  0  0  0  0  0  0
  148.9730  132.7529  154.0021 H   0  0  0  0  0  0  0  0  0  0  0  0
  1  2  2  0  0  0  0
  2  3  1  0  0  0  0
  2  4  1  0  0  0  0
  4  9  1  0  0  0  0
  4  5  1  0  0  0  0
  4 20  1  0  0  0  0
  5  6  1  0  0  0  0
  5 21  1  0  0  0  0
  5 22  1  0  0  0  0
  6  7  1  0  0  0  0
  6  8  1  0  0  0  0
  6 23  1  0  0  0  0
  7 24  1  0  0  0  0
  8  9  1  0  0  0  0
  8 25  1  0  0  0  0
  8 26  1  0  0  0  0
  9 10  1  0  0  0  0
 10 18  1  0  0  0  0
 10 11  2  0  0  0  0
 11 12  1  0  0  0  0
 12 13  2  0  0  0  0
 12 27  1  0  0  0  0
 13 14  1  0  0  0  0
 14 18  2  0  0  0  0
 14 15  1  0  0  0  0
 15 16  2  0  0  0  0
 16 17  1  0  0  0  0
 16 28  1  0  0  0  0
 17 19  1  0  0  0  0
 17 18  1  0  0  0  0
M  CHG  1   3  -1
M  END
> <s_m_source_file>
AV-unprocessed.smi

> <i_m_source_file_index>
66

> <i_lp_mmshare_version>
43012

> <i_f3d_flags>
0

> <s_epik_input>
Tz1DKFtPSF0pW0NAQEhdMVtDSDJdW0NAQEhdKFtPSF0pW0NIMl1OMWMobltjSF1uMiljKGMyMylbbkhdW2NIXW4z

> <s_epik_cmdline>
J2VwaWtfcHl0aG9uJywgJy1waCcsICc3LjAnLCAnLXRuJywgJzgnLCAnLW1hJywgJzIwMCcsICctbWV0YWxfYmluZGluZycsICctaW1hZScsICc8aW5maWxlLm1hZT4nLCAnLW9tYWUnLCAnPG91dGZpbGUubWFlPic=

> <r_lp_tautomer_probability>
0.0419193

> <r_epik_Ionization_Penalty>
0.0157405

> <r_epik_Ionization_Penalty_Charging>
0.000248217

> <r_epik_Ionization_Penalty_Neutral>
0.0154923

> <r_epik_State_Penalty>
1.99742

> <r_epik_Charging_Adjusted_Penalty>
1.99767

> <i_epik_Tot_Q>
-1

> <i_epik_Tot_abs_Q>
1

> <r_epik_Metal_State_Penalty>
2.31035

> <b_epik_Metal_Only>
0

> <s_lp_Force_Field>
OPLS_2005

> <r_lp_Energy>
24.7496

> <b_lp_Chiralities_Consistent>
1

> <s_lp_Variant>
AV-unprocessed.smi:66-6

> <Gold.Version>
5.8.1

> <Gold.Id.Protein>
6NUR|6NUR_protein|mol2

> <Gold.PLP.Fitness>
40.1565

> <Gold.PLP.PLP>
-22.8611

> <Gold.PLP.part.hbond>
-6.0000

> <Gold.PLP.part.metal>
0.0000

> <Gold.PLP.part.buried>
-2.2591

> <Gold.PLP.part.nonpolar>
-16.3396

> <Gold.PLP.part.repulsive>
0.3357

> <Gold.PLP.ligand.clash>
0.0000

> <Gold.PLP.ligand.torsion>
0.6774

> <Gold.PLP.Chemscore.Hbond>
6.1735

> <Gold.PLP.Chemscore.CHOScore>
0.0000

> <Gold.PLP.Chemscore.Metal>
0.0000

> <Gold.Chemscore.Hbonds>
donor molecule, donor type, donor heavy atom, donor atom, acceptor molecule, acceptor atom, score
      L1  H     7    24       P1  7957  0.98
      L1  H    17    19       P1  7948  0.70
      P1  H  6896  6909       L1    13  0.97
      P1  H  7989  7998       L1     3  0.04
      P1  H  7997  8008       L1     3  2.00
      P1  H 10752 10764       L1     1  1.38

> <Gold.PLP.Chemscore.Internal.Correction>
0.1297

> <Gold.Rescore>
     Score         DG    S(hbond)    S(metal)    S(lipo)     H(rot)  DE(clash)    DE(int)     intcor
     12.90     -14.16       3.48        0.00      28.98       2.48       0.81       0.45       ----

> <Gold.Chemscore.Fitness>
12.9039

> <Gold.Chemscore.DG>
-14.1634

> <Gold.Chemscore.ZeroCoef>
-5.4800

> <Gold.Chemscore.Hbond>
3.4825

> <Gold.Chemscore.Metal>
0.0000

> <Gold.Chemscore.Lipo>
28.9834

> <Gold.Chemscore.Internal_Hbond>
0.0000

> <Gold.Chemscore.DEClash>
0.8115

> <Gold.Chemscore.DEInternal>
0.4480

> <Gold.Chemscore.Rot>
2.4762

> <Gold.Chemscore.Internal.Correction>
   9.000000E+99

> <Gold.Chemscore.Hbonds>
donor molecule, donor type, donor heavy atom, donor atom, acceptor molecule, acceptor atom, score
      L1  H     7    24       P1  7957  0.91
      L1  H    17    19       P1  7948  0.07
      P1  H  6896  6909       L1    13  0.22
      P1  H  7997  8008       L1     3  1.00
      P1  H 10752 10764       L1     1  0.70

> <Gold.Chemscore.Hbond.Weighted>
-11.6314

> <Gold.Chemscore.Metal.Weighted>
-0.0000

> <Gold.Chemscore.Lipo.Weighted>
-3.3911

> <Gold.Chemscore.Internal_Hbond.Weighted>
0.0000

> <Gold.Chemscore.DEClash.Weighted>
0.8115

> <Gold.Chemscore.DEInternal.Weighted>
0.4480

> <Gold.Chemscore.Rot.Weighted>
6.3391

> <Gold.Chemscore.Internal.Correction.Weighted>
   9.000000E+99

> <Gold.Protein.RotatedTorsions>
[ 6907 6896 6895 6894 ] final   17.12 input  -60.11 | X-H torsion
[ 7974 7965 7964 7962 ] final -179.06 input  175.53 | X-H torsion
[ 8008 7997 7996 7995 ] final   -3.53 input   59.86 | X-H torsion
[ 10167 10162 10161 10158 ] final  166.44 input  -65.29 | X-H torsion
[ 10718 10713 10712 10709 ] final  -59.81 input   66.30 | X-H torsion
[ 10763 10752 10751 10750 ] final  -87.59 input  -60.55 | X-H torsion
[ 11005 11000 10999 10996 ] final  -70.10 input  -57.11 | X-H torsion

> <Gold.Protein.ActiveResidues>
 VAL166  LYS551  ARG553  GLY616  TRP617  ASP618  TYR619  PRO620  LYS621  CYS622 
 ASP623  PHE694  ASN695  SER759  ASP760  ASP761  ALA762  ILE779  LEU786  VAL792 
 PHE793  MET794  SER795  GLU796  ALA797  LYS798  CYS799  TRP800  GLU811  SER814 

> <Gold.Protein.RotatedAtoms>
  151.8446  135.0578  160.0451 H   0  0  0  0  0  0  0  0  0  0  0  0  # atno 6907 bound_to 6896
  152.2783  133.5442  159.5490 H   0  0  0  0  0  0  0  0  0  0  0  0  # atno 6908 bound_to 6896
  150.7179  134.0517  159.3843 H   0  0  0  0  0  0  0  0  0  0  0  0  # atno 6909 bound_to 6896
  144.7134  140.0775  143.6427 H   0  0  0  0  0  0  0  0  0  0  0  0  # atno 7974 bound_to 7965
  154.6239  140.2507  155.7515 H   0  0  0  0  0  0  0  0  0  0  0  0  # atno 8008 bound_to 7997
  156.2442  140.2921  156.0479 H   0  0  0  0  0  0  0  0  0  0  0  0  # atno 8009 bound_to 7997
  155.1852  140.0390  157.2880 H   0  0  0  0  0  0  0  0  0  0  0  0  # atno 8010 bound_to 7997
  139.4925  144.4027  151.9390 H   0  0  0  0  0  0  0  0  0  0  0  0  # atno 10167 bound_to 10162
  156.1035  130.4183  150.0767 H   0  0  0  0  0  0  0  0  0  0  0  0  # atno 10718 bound_to 10713
  154.6353  135.5408  153.7727 H   0  0  0  0  0  0  0  0  0  0  0  0  # atno 10763 bound_to 10752
  153.0305  135.6446  154.1241 H   0  0  0  0  0  0  0  0  0  0  0  0  # atno 10764 bound_to 10752
  154.1168  135.2923  155.3197 H   0  0  0  0  0  0  0  0  0  0  0  0  # atno 10765 bound_to 10752
  141.1567  133.6781  156.6700 H   0  0  0  0  0  0  0  0  0  0  0  0  # atno 11005 bound_to 11000
  145.9730  139.2884  143.1087 LP  0  0  0  0  0  0  0  0  0  0  0  0  # atno 17320 bound_to 7965
  145.9095  140.9189  143.0461 LP  0  0  0  0  0  0  0  0  0  0  0  0  # atno 17321 bound_to 7965
  140.3467  144.3138  150.5957 LP  0  0  0  0  0  0  0  0  0  0  0  0  # atno 17342 bound_to 10162
  140.5520  143.2205  151.7911 LP  0  0  0  0  0  0  0  0  0  0  0  0  # atno 17343 bound_to 10162
  156.8748  130.9536  151.3605 LP  0  0  0  0  0  0  0  0  0  0  0  0  # atno 17370 bound_to 10713
  157.6208  130.8654  149.9106 LP  0  0  0  0  0  0  0  0  0  0  0  0  # atno 17371 bound_to 10713
  140.3182  134.8030  157.4231 LP  0  0  0  0  0  0  0  0  0  0  0  0  # atno 17394 bound_to 11000
  140.1120  134.5333  155.8258 LP  0  0  0  0  0  0  0  0  0  0  0  0  # atno 17395 bound_to 11000

$$$$
