AV-unprocessed.smi:578|AV-procd|sdf|2985|dock2
  -GOLD-   2262023493D 1   1.00000     0.00000
 Structure written by MMmdl.
 32 33  0  0  0  0  0  0  0  0  2 V2000
  151.3252  145.4208  159.4822 C   0  0  0  0  0  0  0  0  0  0  0  0
  151.3432  143.8893  159.5316 C   0  0  1  0  0  0  0  0  0  0  0  0
  151.1958  143.2633  158.1317 C   0  0  0  0  0  0  0  0  0  0  0  0
  151.3124  141.8137  158.2179 N   0  0  0  0  0  0  0  0  0  0  0  0
  151.0771  141.1671  156.9967 C   0  0  0  0  0  0  0  0  0  0  0  0
  149.9536  141.5264  156.2277 C   0  0  0  0  0  0  0  0  0  0  0  0
  149.7381  140.8643  155.0044 C   0  0  0  0  0  0  0  0  0  0  0  0
  150.5543  139.9014  154.5290 N   0  0  0  0  0  0  0  0  0  0  0  0
  151.6386  139.5488  155.2614 C   0  0  0  0  0  0  0  0  0  0  0  0
  152.5338  138.4719  154.7091 C   0  0  0  0  0  0  0  0  0  0  0  0
  152.0133  137.4939  154.1261 O   0  0  0  0  0  0  0  0  0  0  0  0
  153.7731  138.5835  154.8475 O   0  5  0  0  0  0  0  0  0  0  0  0
  151.9355  140.1597  156.5031 C   0  0  0  0  0  0  0  0  0  0  0  0
  152.5490  141.3948  158.8646 C   0  0  0  0  0  0  0  0  0  0  0  0
  152.6701  142.0559  160.2509 C   0  0  1  0  0  0  0  0  0  0  0  0
  154.0006  141.7230  160.9339 C   0  0  0  0  0  0  0  0  0  0  0  0
  152.5828  143.4719  160.1008 O   0  0  0  0  0  0  0  0  0  0  0  0
  150.3882  145.7878  159.0625 H   0  0  0  0  0  0  0  0  0  0  0  0
  152.1405  145.8058  158.8692 H   0  0  0  0  0  0  0  0  0  0  0  0
  151.4298  145.8442  160.4813 H   0  0  0  0  0  0  0  0  0  0  0  0
  150.5257  143.5532  160.1718 H   0  0  0  0  0  0  0  0  0  0  0  0
  150.2292  143.5285  157.7011 H   0  0  0  0  0  0  0  0  0  0  0  0
  151.9649  143.6564  157.4653 H   0  0  0  0  0  0  0  0  0  0  0  0
  149.2701  142.2916  156.5650 H   0  0  0  0  0  0  0  0  0  0  0  0
  148.8862  141.1153  154.3899 H   0  0  0  0  0  0  0  0  0  0  0  0
  152.8065  139.8631  157.0695 H   0  0  0  0  0  0  0  0  0  0  0  0
  152.5615  140.3085  158.9635 H   0  0  0  0  0  0  0  0  0  0  0  0
  153.4029  141.6725  158.2450 H   0  0  0  0  0  0  0  0  0  0  0  0
  151.8557  141.7145  160.8926 H   0  0  0  0  0  0  0  0  0  0  0  0
  154.1072  140.6479  161.0805 H   0  0  0  0  0  0  0  0  0  0  0  0
  154.0665  142.1996  161.9123 H   0  0  0  0  0  0  0  0  0  0  0  0
  154.8470  142.0655  160.3379 H   0  0  0  0  0  0  0  0  0  0  0  0
  1  2  1  0  0  0  0
  1 18  1  0  0  0  0
  1 19  1  0  0  0  0
  1 20  1  0  0  0  0
  2 17  1  0  0  0  0
  2  3  1  0  0  0  0
  2 21  1  0  0  0  0
  3  4  1  0  0  0  0
  3 22  1  0  0  0  0
  3 23  1  0  0  0  0
  4  5  1  0  0  0  0
  4 14  1  0  0  0  0
  5 13  1  0  0  0  0
  5  6  2  0  0  0  0
  6  7  1  0  0  0  0
  6 24  1  0  0  0  0
  7  8  2  0  0  0  0
  7 25  1  0  0  0  0
  8  9  1  0  0  0  0
  9 10  1  0  0  0  0
  9 13  2  0  0  0  0
 10 11  2  0  0  0  0
 10 12  1  0  0  0  0
 13 26  1  0  0  0  0
 14 15  1  0  0  0  0
 14 27  1  0  0  0  0
 14 28  1  0  0  0  0
 15 16  1  0  0  0  0
 15 17  1  0  0  0  0
 15 29  1  0  0  0  0
 16 30  1  0  0  0  0
 16 31  1  0  0  0  0
 16 32  1  0  0  0  0
M  CHG  1  12  -1
M  END
> <s_m_source_file>
AV-unprocessed.smi

> <i_m_source_file_index>
578

> <i_lp_mmshare_version>
43012

> <i_f3d_flags>
0

> <s_epik_input>
W0NIM11bQ0BASF0xW0NIMl1OKFtDSDJdW0NASF0oTzEpW0NIM10pYzJbY0hdW2NIXW5jKFtjSF0yKUMoPU8pW09IXQ==

> <s_epik_cmdline>
J2VwaWtfcHl0aG9uJywgJy1waCcsICc3LjAnLCAnLXRuJywgJzgnLCAnLW1hJywgJzIwMCcsICctbWV0YWxfYmluZGluZycsICctaW1hZScsICc8aW5maWxlLm1hZT4nLCAnLW9tYWUnLCAnPG91dGZpbGUubWFlPic=

> <r_epik_Ionization_Penalty>
2.00764

> <r_epik_Ionization_Penalty_Charging>
0.000210348

> <r_epik_Ionization_Penalty_Neutral>
2.00743

> <r_epik_State_Penalty>
2.13668

> <r_epik_Charging_Adjusted_Penalty>
2.13689

> <i_epik_Tot_Q>
-1

> <i_epik_Tot_abs_Q>
1

> <r_epik_Metal_State_Penalty>
0.0208571

> <b_epik_Metal_Only>
0

> <s_lp_Force_Field>
OPLS_2005

> <r_lp_Energy>
21.1915

> <b_lp_Chiralities_Consistent>
1

> <s_lp_Variant>
AV-unprocessed.smi:578-5

> <Gold.Version>
5.8.1

> <Gold.Id.Protein>
6NUR|6NUR_protein|mol2

> <Gold.PLP.Fitness>
50.3665

> <Gold.PLP.PLP>
-40.2638

> <Gold.PLP.part.hbond>
-3.0000

> <Gold.PLP.part.metal>
0.0000

> <Gold.PLP.part.buried>
-5.7626

> <Gold.PLP.part.nonpolar>
-32.2461

> <Gold.PLP.part.repulsive>
0.2953

> <Gold.PLP.ligand.clash>
0.5545

> <Gold.PLP.ligand.torsion>
0.7444

> <Gold.PLP.Chemscore.Hbond>
4.0178

> <Gold.PLP.Chemscore.CHOScore>
0.0000

> <Gold.PLP.Chemscore.Metal>
0.0000

> <Gold.Chemscore.Hbonds>
donor molecule, donor type, donor heavy atom, donor atom, acceptor molecule, acceptor atom, score
      P1  H  7989  7998       L1     8  0.45
      P1  H  7997  8010       L1    12  1.70
      P1  H 10752 10765       L1    11  1.81

> <Gold.PLP.Chemscore.Internal.Correction>
0.0927

> <Gold.Rescore>
     Score         DG    S(hbond)    S(metal)    S(lipo)     H(rot)  DE(clash)    DE(int)     intcor
     18.83     -19.45       1.65        0.00      94.11       1.00       0.02       0.60       ----

> <Gold.Chemscore.Fitness>
18.8310

> <Gold.Chemscore.DG>
-19.4476

> <Gold.Chemscore.ZeroCoef>
-5.4800

> <Gold.Chemscore.Hbond>
1.6518

> <Gold.Chemscore.Metal>
0.0000

> <Gold.Chemscore.Lipo>
94.1063

> <Gold.Chemscore.Internal_Hbond>
0.0000

> <Gold.Chemscore.DEClash>
0.0214

> <Gold.Chemscore.DEInternal>
0.5952

> <Gold.Chemscore.Rot>
1.0000

> <Gold.Chemscore.Internal.Correction>
   9.000000E+99

> <Gold.Chemscore.Hbonds>
donor molecule, donor type, donor heavy atom, donor atom, acceptor molecule, acceptor atom, score
      P1  H  7997  8010       L1    12  0.80
      P1  H 10752 10765       L1    11  0.80

> <Gold.Chemscore.Hbond.Weighted>
-5.5171

> <Gold.Chemscore.Metal.Weighted>
-0.0000

> <Gold.Chemscore.Lipo.Weighted>
-11.0104

> <Gold.Chemscore.Internal_Hbond.Weighted>
0.0000

> <Gold.Chemscore.DEClash.Weighted>
0.0214

> <Gold.Chemscore.DEInternal.Weighted>
0.5952

> <Gold.Chemscore.Rot.Weighted>
2.5600

> <Gold.Chemscore.Internal.Correction.Weighted>
   9.000000E+99

> <Gold.Protein.RotatedTorsions>
[ 6907 6896 6895 6894 ] final  -49.17 input  -60.11 | X-H torsion
[ 7974 7965 7964 7962 ] final  102.85 input  175.53 | X-H torsion
[ 8008 7997 7996 7995 ] final  113.92 input   59.86 | X-H torsion
[ 10167 10162 10161 10158 ] final  131.67 input  -65.29 | X-H torsion
[ 10718 10713 10712 10709 ] final  -73.85 input   66.30 | X-H torsion
[ 10763 10752 10751 10750 ] final  152.52 input  -60.55 | X-H torsion
[ 11005 11000 10999 10996 ] final -118.56 input  -57.11 | X-H torsion

> <Gold.Protein.ActiveResidues>
 VAL166  LYS551  ARG553  GLY616  TRP617  ASP618  TYR619  PRO620  LYS621  CYS622 
 ASP623  PHE694  ASN695  SER759  ASP760  ASP761  ALA762  ILE779  LEU786  VAL792 
 PHE793  MET794  SER795  GLU796  ALA797  LYS798  CYS799  TRP800  GLU811  SER814 

> <Gold.Protein.RotatedAtoms>
  150.8831  134.8225  159.7239 H   0  0  0  0  0  0  0  0  0  0  0  0  # atno 6907 bound_to 6896
  152.4791  134.4764  159.9661 H   0  0  0  0  0  0  0  0  0  0  0  0  # atno 6908 bound_to 6896
  151.4836  133.3502  159.2877 H   0  0  0  0  0  0  0  0  0  0  0  0  # atno 6909 bound_to 6896
  145.3537  139.2433  143.3544 H   0  0  0  0  0  0  0  0  0  0  0  0  # atno 7974 bound_to 7965
  156.2288  140.2970  156.0136 H   0  0  0  0  0  0  0  0  0  0  0  0  # atno 8008 bound_to 7997
  155.2282  140.0418  157.2975 H   0  0  0  0  0  0  0  0  0  0  0  0  # atno 8009 bound_to 7997
  154.5961  140.2414  155.7863 H   0  0  0  0  0  0  0  0  0  0  0  0  # atno 8010 bound_to 7997
  139.5374  144.6696  151.4741 H   0  0  0  0  0  0  0  0  0  0  0  0  # atno 10167 bound_to 10162
  156.0264  130.4403  150.2804 H   0  0  0  0  0  0  0  0  0  0  0  0  # atno 10718 bound_to 10713
  154.1213  135.2832  155.3207 H   0  0  0  0  0  0  0  0  0  0  0  0  # atno 10763 bound_to 10752
  154.6421  135.5399  153.7804 H   0  0  0  0  0  0  0  0  0  0  0  0  # atno 10764 bound_to 10752
  153.0312  135.6489  154.1367 H   0  0  0  0  0  0  0  0  0  0  0  0  # atno 10765 bound_to 10752
  141.0277  134.0029  157.3190 H   0  0  0  0  0  0  0  0  0  0  0  0  # atno 11005 bound_to 11000
  146.2957  140.4158  142.8722 LP  0  0  0  0  0  0  0  0  0  0  0  0  # atno 17320 bound_to 7965
  144.8698  140.7257  143.6054 LP  0  0  0  0  0  0  0  0  0  0  0  0  # atno 17321 bound_to 7965
  140.6587  143.8545  150.6863 LP  0  0  0  0  0  0  0  0  0  0  0  0  # atno 17342 bound_to 10162
  140.1933  143.4019  152.1847 LP  0  0  0  0  0  0  0  0  0  0  0  0  # atno 17343 bound_to 10162
  157.0908  131.0169  151.3122 LP  0  0  0  0  0  0  0  0  0  0  0  0  # atno 17370 bound_to 10713
  157.4856  130.7791  149.7456 LP  0  0  0  0  0  0  0  0  0  0  0  0  # atno 17371 bound_to 10713
  139.9187  135.0199  156.7980 LP  0  0  0  0  0  0  0  0  0  0  0  0  # atno 17394 bound_to 11000
  140.6462  133.9773  155.7732 LP  0  0  0  0  0  0  0  0  0  0  0  0  # atno 17395 bound_to 11000

$$$$
