AV-unprocessed.smi:38|AV-procd|sdf|342|dock2
  -GOLD-   2262016183D 1   1.00000     0.00000
 Structure written by MMmdl.
 28 29  0  0  0  0  0  0  0  0  1 V2000
  153.1373  139.1660  156.7666 O   0  0  0  0  0  0  0  0  0  0  0  0
  152.1109  139.5971  156.2449 C   0  0  0  0  0  0  0  0  0  0  0  0
  151.3788  140.6123  156.8677 N   0  0  0  0  0  0  0  0  0  0  0  0
  150.2010  141.1819  156.3793 C   0  0  0  0  0  0  0  0  0  0  0  0
  149.6362  142.0638  157.0246 O   0  0  0  0  0  0  0  0  0  0  0  0
  149.7118  140.6916  155.1473 N   0  0  0  0  0  0  0  0  0  0  0  0
  148.4482  141.2674  154.5500 C   0  0  2  0  0  0  0  0  0  0  0  0
  147.2331  140.9531  155.4287 C   0  0  0  0  0  0  0  0  0  0  0  0
  146.5105  139.8908  154.6209 C   0  0  1  0  0  0  0  0  0  0  0  0
  145.1164  139.9531  154.8428 O   0  0  0  0  0  0  0  0  0  0  0  0
  146.8903  140.2534  153.1824 C   0  0  2  0  0  0  0  0  0  0  0  0
  146.8016  139.0699  152.2069 C   0  0  0  0  0  0  0  0  0  0  0  0
  145.4610  138.6480  152.0781 O   0  0  0  0  0  0  0  0  0  0  0  0
  148.2445  140.6777  153.3019 O   0  0  0  0  0  0  0  0  0  0  0  0
  150.4062  139.6823  154.4941 C   0  0  0  0  0  0  0  0  0  0  0  0
  151.5459  139.1367  154.9799 C   0  0  0  0  0  0  0  0  0  0  0  0
  152.1618  138.1623  154.2890 F   0  0  0  0  0  0  0  0  0  0  0  0
  151.7308  140.9623  157.7468 H   0  0  0  0  0  0  0  0  0  0  0  0
  148.5997  142.3377  154.4050 H   0  0  0  0  0  0  0  0  0  0  0  0
  146.8850  138.9005  154.8822 H   0  0  0  0  0  0  0  0  0  0  0  0
  146.2833  141.0959  152.8444 H   0  0  0  0  0  0  0  0  0  0  0  0
  147.5171  140.6259  156.4298 H   0  0  0  0  0  0  0  0  0  0  0  0
  146.6331  141.8605  155.5140 H   0  0  0  0  0  0  0  0  0  0  0  0
  144.6841  140.0919  154.0139 H   0  0  0  0  0  0  0  0  0  0  0  0
  147.2158  139.3275  151.2315 H   0  0  0  0  0  0  0  0  0  0  0  0
  147.3741  138.2239  152.5886 H   0  0  0  0  0  0  0  0  0  0  0  0
  144.9023  139.4100  152.0949 H   0  0  0  0  0  0  0  0  0  0  0  0
  150.0310  139.3079  153.5533 H   0  0  0  0  0  0  0  0  0  0  0  0
  1  2  2  0  0  0  0
  2 16  1  0  0  0  0
  2  3  1  0  0  0  0
  3 18  1  0  0  0  0
  3  4  1  0  0  0  0
  4  5  2  0  0  0  0
  4  6  1  0  0  0  0
  6  7  1  0  0  0  0
  6 15  1  0  0  0  0
  7 19  1  0  0  0  0
  7 14  1  0  0  0  0
  7  8  1  0  0  0  0
  8  9  1  0  0  0  0
  8 22  1  0  0  0  0
  8 23  1  0  0  0  0
  9 20  1  0  0  0  0
  9 10  1  0  0  0  0
  9 11  1  0  0  0  0
 10 24  1  0  0  0  0
 11 21  1  0  0  0  0
 11 12  1  0  0  0  0
 11 14  1  0  0  0  0
 12 13  1  0  0  0  0
 12 25  1  0  0  0  0
 12 26  1  0  0  0  0
 13 27  1  0  0  0  0
 15 16  2  0  0  0  0
 15 28  1  0  0  0  0
 16 17  1  0  0  0  0
M  END
> <s_m_source_file>
AV-unprocessed.smi

> <i_m_source_file_index>
38

> <i_lp_mmshare_version>
43012

> <i_f3d_flags>
0

> <s_epik_input>
Tz1jMVtuSF1jKD1PKW4oW2NIXWMxRilbQ0BIXTJbQ0gyXVtDQEhdKFtPSF0pW0NASF0oTzIpW0NIMl1bT0hd

> <s_epik_cmdline>
J2VwaWtfcHl0aG9uJywgJy1waCcsICc3LjAnLCAnLXRuJywgJzgnLCAnLW1hJywgJzIwMCcsICctbWV0YWxfYmluZGluZycsICctaW1hZScsICc8aW5maWxlLm1hZT4nLCAnLW9tYWUnLCAnPG91dGZpbGUubWFlPic=

> <r_lp_tautomer_probability>
0.999537

> <r_epik_Ionization_Penalty>
0.0357432

> <r_epik_Ionization_Penalty_Charging>
0.0357431

> <r_epik_Ionization_Penalty_Neutral>
1.19946e-07

> <r_epik_State_Penalty>
0.0298169

> <r_epik_Charging_Adjusted_Penalty>
0.06556

> <i_epik_Tot_Q>
0

> <i_epik_Tot_abs_Q>
0

> <r_epik_Metal_State_Penalty>
2.348

> <b_epik_Metal_Only>
0

> <s_epik_Chemistry_Notes>
This compound contains an acetal/aminal-like group ( X-CH(R)-Y where X, Y are N, S, or O) that may be acid/base labile, releasing an aldehyde.

> <s_lp_Force_Field>
OPLS_2005

> <r_lp_Energy>
27.0037

> <b_lp_Chiralities_Consistent>
1

> <s_lp_Variant>
AV-unprocessed.smi:38-8

> <Gold.Version>
5.8.1

> <Gold.Id.Protein>
6NUR|6NUR_protein|mol2

> <Gold.PLP.Fitness>
39.4528

> <Gold.PLP.PLP>
-27.5486

> <Gold.PLP.part.hbond>
-4.0000

> <Gold.PLP.part.metal>
0.0000

> <Gold.PLP.part.buried>
-2.1880

> <Gold.PLP.part.nonpolar>
-25.3730

> <Gold.PLP.part.repulsive>
3.9243

> <Gold.PLP.ligand.clash>
0.0000

> <Gold.PLP.ligand.torsion>
0.0525

> <Gold.PLP.Chemscore.Hbond>
3.0000

> <Gold.PLP.Chemscore.CHOScore>
1.0000

> <Gold.PLP.Chemscore.Metal>
0.0000

> <Gold.Chemscore.Hbonds>
donor molecule, donor type, donor heavy atom, donor atom, acceptor molecule, acceptor atom, score
      L1  H    10    24       P1 10175  1.00
      L1  H    13    27       P1 10175  1.00
      P1  H  7997  8010       L1     1  1.00
      L1  C    15    28       P1  7957  1.00

> <Gold.PLP.Chemscore.Internal.Correction>
0.0092

> <Gold.Rescore>
     Score         DG    S(hbond)    S(metal)    S(lipo)     H(rot)  DE(clash)    DE(int)     intcor
     10.93     -12.40       2.98        0.00      38.00       2.91       1.38       0.09       ----

> <Gold.Chemscore.Fitness>
10.9331

> <Gold.Chemscore.DG>
-12.4027

> <Gold.Chemscore.ZeroCoef>
-5.4800

> <Gold.Chemscore.Hbond>
2.9752

> <Gold.Chemscore.Metal>
0.0000

> <Gold.Chemscore.Lipo>
37.9966

> <Gold.Chemscore.Internal_Hbond>
0.0000

> <Gold.Chemscore.DEClash>
1.3839

> <Gold.Chemscore.DEInternal>
0.0857

> <Gold.Chemscore.Rot>
2.9141

> <Gold.Chemscore.Internal.Correction>
   9.000000E+99

> <Gold.Chemscore.Hbonds>
donor molecule, donor type, donor heavy atom, donor atom, acceptor molecule, acceptor atom, score
      L1  H    10    24       P1 10175  1.00
      L1  H    13    27       P1 10175  0.99
      P1  H  7997  8010       L1     1  0.81

> <Gold.Chemscore.Hbond.Weighted>
-9.9372

> <Gold.Chemscore.Metal.Weighted>
-0.0000

> <Gold.Chemscore.Lipo.Weighted>
-4.4456

> <Gold.Chemscore.Internal_Hbond.Weighted>
0.0000

> <Gold.Chemscore.DEClash.Weighted>
1.3839

> <Gold.Chemscore.DEInternal.Weighted>
0.0857

> <Gold.Chemscore.Rot.Weighted>
7.4601

> <Gold.Chemscore.Internal.Correction.Weighted>
   9.000000E+99

> <Gold.Protein.RotatedTorsions>
[ 6907 6896 6895 6894 ] final   99.83 input  -60.11 | X-H torsion
[ 7974 7965 7964 7962 ] final  100.82 input  175.53 | X-H torsion
[ 8008 7997 7996 7995 ] final   65.31 input   59.86 | X-H torsion
[ 10167 10162 10161 10158 ] final -157.07 input  -65.29 | X-H torsion
[ 10718 10713 10712 10709 ] final  -65.30 input   66.30 | X-H torsion
[ 10763 10752 10751 10750 ] final  109.31 input  -60.55 | X-H torsion
[ 11005 11000 10999 10996 ] final  176.98 input  -57.11 | X-H torsion

> <Gold.Protein.ActiveResidues>
 VAL166  LYS551  ARG553  GLY616  TRP617  ASP618  TYR619  PRO620  LYS621  CYS622 
 ASP623  PHE694  ASN695  SER759  ASP760  ASP761  ALA762  ILE779  LEU786  VAL792 
 PHE793  MET794  SER795  GLU796  ALA797  LYS798  CYS799  TRP800  GLU811  SER814 

> <Gold.Protein.RotatedAtoms>
  152.5384  134.0369  159.8049 H   0  0  0  0  0  0  0  0  0  0  0  0  # atno 6907 bound_to 6896
  151.0531  133.5600  159.2648 H   0  0  0  0  0  0  0  0  0  0  0  0  # atno 6908 bound_to 6896
  151.2527  135.0635  159.9122 H   0  0  0  0  0  0  0  0  0  0  0  0  # atno 6909 bound_to 6896
  145.3805  139.2381  143.3406 H   0  0  0  0  0  0  0  0  0  0  0  0  # atno 7974 bound_to 7965
  155.6598  140.3497  155.4778 H   0  0  0  0  0  0  0  0  0  0  0  0  # atno 8008 bound_to 7997
  155.9778  140.1168  157.0777 H   0  0  0  0  0  0  0  0  0  0  0  0  # atno 8009 bound_to 7997
  154.4183  140.1144  156.5380 H   0  0  0  0  0  0  0  0  0  0  0  0  # atno 8010 bound_to 7997
  139.6800  143.9598  152.2331 H   0  0  0  0  0  0  0  0  0  0  0  0  # atno 10167 bound_to 10162
  156.0678  130.4245  150.1544 H   0  0  0  0  0  0  0  0  0  0  0  0  # atno 10718 bound_to 10713
  153.4329  135.3784  155.2181 H   0  0  0  0  0  0  0  0  0  0  0  0  # atno 10763 bound_to 10752
  154.8751  135.3844  154.4246 H   0  0  0  0  0  0  0  0  0  0  0  0  # atno 10764 bound_to 10752
  153.4781  135.7088  153.6017 H   0  0  0  0  0  0  0  0  0  0  0  0  # atno 10765 bound_to 10752
  140.3791  134.6962  157.4440 H   0  0  0  0  0  0  0  0  0  0  0  0  # atno 11005 bound_to 11000
  146.2844  140.4471  142.8763 LP  0  0  0  0  0  0  0  0  0  0  0  0  # atno 17320 bound_to 7965
  144.8511  140.7003  143.6167 LP  0  0  0  0  0  0  0  0  0  0  0  0  # atno 17321 bound_to 7965
  139.9385  144.6696  150.8290 LP  0  0  0  0  0  0  0  0  0  0  0  0  # atno 17342 bound_to 10162
  140.7649  143.3260  151.2515 LP  0  0  0  0  0  0  0  0  0  0  0  0  # atno 17343 bound_to 10162
  156.9601  130.9802  151.3481 LP  0  0  0  0  0  0  0  0  0  0  0  0  # atno 17370 bound_to 10713
  157.5730  130.8323  149.8417 LP  0  0  0  0  0  0  0  0  0  0  0  0  # atno 17371 bound_to 10713
  140.0492  134.6155  155.8882 LP  0  0  0  0  0  0  0  0  0  0  0  0  # atno 17394 bound_to 11000
  141.1929  133.6577  156.5525 LP  0  0  0  0  0  0  0  0  0  0  0  0  # atno 17395 bound_to 11000

$$$$
