AV-unprocessed.smi:109|AV-procd|sdf|1046|dock4
  -GOLD-   2262018 83D 1   1.00000     0.00000
 Structure written by MMmdl.
 58 61  0  0  0  0  0  0  0  0  1 V2000
  152.3567  140.0390  154.8828 O   0  0  0  0  0  0  0  0  0  0  0  0
  152.1680  139.2049  156.0051 C   0  0  0  0  0  0  0  0  0  0  0  0
  150.8834  139.6074  156.7470 C   0  0  0  0  0  0  0  0  0  0  0  0
  150.6891  141.1381  156.8215 C   0  0  1  0  0  0  0  0  0  0  0  0
  149.3080  141.4422  157.1948 N   0  0  0  0  0  0  0  0  0  0  0  0
  148.3736  141.7541  156.2700 C   0  0  0  0  0  0  0  0  0  0  0  0
  148.6499  141.7103  154.9407 N   0  0  0  0  0  0  0  0  0  0  0  0
  147.7004  142.0118  154.0504 C   0  0  0  0  0  0  0  0  0  0  0  0
  146.4344  142.3708  154.2717 N   0  0  0  0  0  0  0  0  0  0  0  0
  146.1513  142.4195  155.6062 C   0  0  0  0  0  0  0  0  0  0  0  0
  147.0619  142.1280  156.6596 C   0  0  0  0  0  0  0  0  0  0  0  0
  146.4281  142.2769  157.8860 N   0  0  0  0  0  0  0  0  0  0  0  0
  145.2112  142.6311  157.5714 C   0  0  0  0  0  0  0  0  0  0  0  0
  144.9556  142.7343  156.2222 N   0  0  0  0  0  0  0  0  0  0  0  0
  143.6575  143.0971  155.5702 C   0  0  1  0  0  0  0  0  0  0  0  0
  142.6007  142.7140  156.3924 O   0  0  0  0  0  0  0  0  0  0  0  0
  141.5388  143.6656  156.3277 C   0  0  1  0  0  0  0  0  0  0  0  0
  141.2635  144.1569  157.7589 C   0  0  0  0  0  0  0  0  0  0  0  0
  140.2324  145.1217  157.7580 O   0  0  0  0  0  0  0  0  0  0  0  0
  142.0107  144.7817  155.3768 C   0  0  2  0  0  0  0  0  0  0  0  0
  141.4391  144.5785  154.0986 O   0  0  0  0  0  0  0  0  0  0  0  0
  143.5180  144.6023  155.3116 C   0  0  1  0  0  0  0  0  0  0  0  0
  144.1700  145.4078  156.2772 O   0  0  0  0  0  0  0  0  0  0  0  0
  151.6860  141.8618  157.7679 C   0  0  0  0  0  0  0  0  0  0  0  0
  151.6769  141.2864  159.2007 C   0  0  0  0  0  0  0  0  0  0  0  0
  152.7475  141.9534  160.0798 C   0  0  0  0  0  0  0  0  0  0  0  0
  152.5699  143.4794  160.1087 C   0  0  0  0  0  0  0  0  0  0  0  0
  152.5744  144.0646  158.6880 C   0  0  0  0  0  0  0  0  0  0  0  0
  151.5067  143.3966  157.8061 C   0  0  0  0  0  0  0  0  0  0  0  0
  143.6253  142.5099  154.6514 H   0  0  0  0  0  0  0  0  0  0  0  0
  140.6485  143.1640  155.9445 H   0  0  0  0  0  0  0  0  0  0  0  0
  141.7237  145.7785  155.7148 H   0  0  0  0  0  0  0  0  0  0  0  0
  143.9332  144.8477  154.3331 H   0  0  0  0  0  0  0  0  0  0  0  0
  153.2780  140.2357  154.8072 H   0  0  0  0  0  0  0  0  0  0  0  0
  152.1101  138.1688  155.6704 H   0  0  0  0  0  0  0  0  0  0  0  0
  153.0392  139.2898  156.6552 H   0  0  0  0  0  0  0  0  0  0  0  0
  150.0229  139.1431  156.2635 H   0  0  0  0  0  0  0  0  0  0  0  0
  150.9311  139.1885  157.7514 H   0  0  0  0  0  0  0  0  0  0  0  0
  150.8630  141.5167  155.8139 H   0  0  0  0  0  0  0  0  0  0  0  0
  149.1149  141.4422  158.1861 H   0  0  0  0  0  0  0  0  0  0  0  0
  147.9960  141.9545  153.0132 H   0  0  0  0  0  0  0  0  0  0  0  0
  144.4568  142.8201  158.3213 H   0  0  0  0  0  0  0  0  0  0  0  0
  140.9474  143.3236  158.3871 H   0  0  0  0  0  0  0  0  0  0  0  0
  142.1611  144.5782  158.2119 H   0  0  0  0  0  0  0  0  0  0  0  0
  140.4134  145.7533  157.0787 H   0  0  0  0  0  0  0  0  0  0  0  0
  142.1064  144.2330  153.5253 H   0  0  0  0  0  0  0  0  0  0  0  0
  144.1746  146.3004  155.9667 H   0  0  0  0  0  0  0  0  0  0  0  0
  152.6871  141.6708  157.3782 H   0  0  0  0  0  0  0  0  0  0  0  0
  150.7022  141.4307  159.6661 H   0  0  0  0  0  0  0  0  0  0  0  0
  151.8490  140.2100  159.1717 H   0  0  0  0  0  0  0  0  0  0  0  0
  152.6974  141.5543  161.0932 H   0  0  0  0  0  0  0  0  0  0  0  0
  153.7397  141.7074  159.6995 H   0  0  0  0  0  0  0  0  0  0  0  0
  151.6302  143.7282  160.6037 H   0  0  0  0  0  0  0  0  0  0  0  0
  153.3625  143.9355  160.7023 H   0  0  0  0  0  0  0  0  0  0  0  0
  152.4025  145.1406  158.7288 H   0  0  0  0  0  0  0  0  0  0  0  0
  153.5584  143.9256  158.2384 H   0  0  0  0  0  0  0  0  0  0  0  0
  151.5627  143.8102  156.7988 H   0  0  0  0  0  0  0  0  0  0  0  0
  150.5191  143.6515  158.1913 H   0  0  0  0  0  0  0  0  0  0  0  0
  1  2  1  0  0  0  0
  1 34  1  0  0  0  0
  2  3  1  0  0  0  0
  2 35  1  0  0  0  0
  2 36  1  0  0  0  0
  3  4  1  0  0  0  0
  3 37  1  0  0  0  0
  3 38  1  0  0  0  0
  4  5  1  0  0  0  0
  4 24  1  0  0  0  0
  4 39  1  0  0  0  0
  5  6  1  0  0  0  0
  5 40  1  0  0  0  0
  6 11  1  0  0  0  0
  6  7  2  0  0  0  0
  7  8  1  0  0  0  0
  8  9  2  0  0  0  0
  8 41  1  0  0  0  0
  9 10  1  0  0  0  0
 10 14  1  0  0  0  0
 10 11  2  0  0  0  0
 11 12  1  0  0  0  0
 12 13  2  0  0  0  0
 13 14  1  0  0  0  0
 13 42  1  0  0  0  0
 14 15  1  0  0  0  0
 15 30  1  0  0  0  0
 15 22  1  0  0  0  0
 15 16  1  0  0  0  0
 16 17  1  0  0  0  0
 17 31  1  0  0  0  0
 17 18  1  0  0  0  0
 17 20  1  0  0  0  0
 18 19  1  0  0  0  0
 18 43  1  0  0  0  0
 18 44  1  0  0  0  0
 19 45  1  0  0  0  0
 20 32  1  0  0  0  0
 20 21  1  0  0  0  0
 20 22  1  0  0  0  0
 21 46  1  0  0  0  0
 22 33  1  0  0  0  0
 22 23  1  0  0  0  0
 23 47  1  0  0  0  0
 24 29  1  0  0  0  0
 24 25  1  0  0  0  0
 24 48  1  0  0  0  0
 25 26  1  0  0  0  0
 25 49  1  0  0  0  0
 25 50  1  0  0  0  0
 26 27  1  0  0  0  0
 26 51  1  0  0  0  0
 26 52  1  0  0  0  0
 27 28  1  0  0  0  0
 27 53  1  0  0  0  0
 27 54  1  0  0  0  0
 28 29  1  0  0  0  0
 28 55  1  0  0  0  0
 28 56  1  0  0  0  0
 29 57  1  0  0  0  0
 29 58  1  0  0  0  0
M  END
> <s_m_source_file>
AV-unprocessed.smi

> <i_m_source_file_index>
109

> <i_lp_mmshare_version>
43012

> <i_f3d_flags>
0

> <s_epik_input>
W0NIMl0xW0NIMl1bQ0gyXVtDSDJdW0NIMl1bQ0hdMVtDQEhdKFtDSDJdW0NIMl1bT0hdKVtOSF1jKG5bY0hdbjIpYyhjMjMpbltjSF1uM1tDQEBIXTRPW0NASF0oW0NIMl1bT0hdKVtDQEBIXShbT0hdKVtDQEhdNFtPSF0=

> <s_epik_cmdline>
J2VwaWtfcHl0aG9uJywgJy1waCcsICc3LjAnLCAnLXRuJywgJzgnLCAnLW1hJywgJzIwMCcsICctbWV0YWxfYmluZGluZycsICctaW1hZScsICc8aW5maWxlLm1hZT4nLCAnLW9tYWUnLCAnPG91dGZpbGUubWFlPic=

> <r_lp_tautomer_probability>
1

> <r_epik_Ionization_Penalty>
0.000793976

> <r_epik_Ionization_Penalty_Charging>
0

> <r_epik_Ionization_Penalty_Neutral>
0.000793976

> <r_epik_State_Penalty>
-0

> <r_epik_Charging_Adjusted_Penalty>
0

> <i_epik_Tot_Q>
0

> <i_epik_Tot_abs_Q>
0

> <r_epik_Metal_State_Penalty>
-0

> <b_epik_Metal_Only>
0

> <s_epik_Chemistry_Notes>
This compound contains an acetal/aminal-like group ( X-CH(R)-Y where X, Y are N, S, or O) that may be acid/base labile, releasing an aldehyde.

> <s_lp_Force_Field>
OPLS_2005

> <r_lp_Energy>
52.4563

> <b_lp_Chiralities_Consistent>
1

> <s_lp_Variant>
AV-unprocessed.smi:109-16

> <Gold.Version>
5.8.1

> <Gold.Id.Protein>
6NUR|6NUR_protein|mol2

> <Gold.PLP.Fitness>
47.6021

> <Gold.PLP.PLP>
-42.1990

> <Gold.PLP.part.hbond>
-3.2225

> <Gold.PLP.part.metal>
0.0000

> <Gold.PLP.part.buried>
-7.1957

> <Gold.PLP.part.nonpolar>
-33.4295

> <Gold.PLP.part.repulsive>
0.5640

> <Gold.PLP.ligand.clash>
0.0000

> <Gold.PLP.ligand.torsion>
1.2211

> <Gold.PLP.Chemscore.Hbond>
2.1048

> <Gold.PLP.Chemscore.CHOScore>
0.4573

> <Gold.PLP.Chemscore.Metal>
0.0000

> <Gold.Chemscore.Hbonds>
donor molecule, donor type, donor heavy atom, donor atom, acceptor molecule, acceptor atom, score
      L1  H    21    46       P1 10174  0.33
      P1  H  7989  7998       L1     1  0.62

> <Gold.PLP.Chemscore.Internal.Correction>
0.1591

> <Gold.Rescore>
     Score         DG    S(hbond)    S(metal)    S(lipo)     H(rot)  DE(clash)    DE(int)     intcor
      6.10      -7.63       1.42        0.00      97.30       5.47       0.65       0.88       ----

> <Gold.Chemscore.Fitness>
6.0990

> <Gold.Chemscore.DG>
-7.6257

> <Gold.Chemscore.ZeroCoef>
-5.4800

> <Gold.Chemscore.Hbond>
1.4235

> <Gold.Chemscore.Metal>
0.0000

> <Gold.Chemscore.Lipo>
97.3042

> <Gold.Chemscore.Internal_Hbond>
0.0000

> <Gold.Chemscore.DEClash>
0.6456

> <Gold.Chemscore.DEInternal>
0.8811

> <Gold.Chemscore.Rot>
5.4662

> <Gold.Chemscore.Internal.Correction>
   9.000000E+99

> <Gold.Chemscore.Hbonds>
donor molecule, donor type, donor heavy atom, donor atom, acceptor molecule, acceptor atom, score
      L1  H    21    46       P1 10174  0.32
      P1  H  7989  7998       L1     1  0.22

> <Gold.Chemscore.Hbond.Weighted>
-4.7546

> <Gold.Chemscore.Metal.Weighted>
-0.0000

> <Gold.Chemscore.Lipo.Weighted>
-11.3846

> <Gold.Chemscore.Internal_Hbond.Weighted>
0.0000

> <Gold.Chemscore.DEClash.Weighted>
0.6456

> <Gold.Chemscore.DEInternal.Weighted>
0.8811

> <Gold.Chemscore.Rot.Weighted>
13.9935

> <Gold.Chemscore.Internal.Correction.Weighted>
   9.000000E+99

> <Gold.Protein.RotatedTorsions>
[ 6907 6896 6895 6894 ] final   60.81 input  -60.11 | X-H torsion
[ 7974 7965 7964 7962 ] final  -53.25 input  175.53 | X-H torsion
[ 8008 7997 7996 7995 ] final  -30.04 input   59.86 | X-H torsion
[ 10167 10162 10161 10158 ] final -139.41 input  -65.29 | X-H torsion
[ 10718 10713 10712 10709 ] final  167.79 input   66.30 | X-H torsion
[ 10763 10752 10751 10750 ] final  172.06 input  -60.55 | X-H torsion
[ 11005 11000 10999 10996 ] final  -80.92 input  -57.11 | X-H torsion

> <Gold.Protein.ActiveResidues>
 VAL166  LYS551  ARG553  GLY616  TRP617  ASP618  TYR619  PRO620  LYS621  CYS622 
 ASP623  PHE694  ASN695  SER759  ASP760  ASP761  ALA762  ILE779  LEU786  VAL792 
 PHE793  MET794  SER795  GLU796  ALA797  LYS798  CYS799  TRP800  GLU811  SER814 

> <Gold.Protein.RotatedAtoms>
  152.4035  134.6247  160.0059 H   0  0  0  0  0  0  0  0  0  0  0  0  # atno 6907 bound_to 6896
  151.6445  133.3318  159.3145 H   0  0  0  0  0  0  0  0  0  0  0  0  # atno 6908 bound_to 6896
  150.7932  134.7014  159.6597 H   0  0  0  0  0  0  0  0  0  0  0  0  # atno 6909 bound_to 6896
  145.8989  140.8010  142.9753 H   0  0  0  0  0  0  0  0  0  0  0  0  # atno 7974 bound_to 7965
  154.4266  140.1802  156.1344 H   0  0  0  0  0  0  0  0  0  0  0  0  # atno 8008 bound_to 7997
  156.0042  140.3357  155.6850 H   0  0  0  0  0  0  0  0  0  0  0  0  # atno 8009 bound_to 7997
  155.6201  140.0659  157.2671 H   0  0  0  0  0  0  0  0  0  0  0  0  # atno 8010 bound_to 7997
  139.8382  143.7356  152.2664 H   0  0  0  0  0  0  0  0  0  0  0  0  # atno 10167 bound_to 10162
  157.0465  131.0301  151.2695 H   0  0  0  0  0  0  0  0  0  0  0  0  # atno 10718 bound_to 10713
  154.4207  135.2758  155.1977 H   0  0  0  0  0  0  0  0  0  0  0  0  # atno 10763 bound_to 10752
  154.3924  135.6063  153.5854 H   0  0  0  0  0  0  0  0  0  0  0  0  # atno 10764 bound_to 10752
  152.9833  135.5906  154.4502 H   0  0  0  0  0  0  0  0  0  0  0  0  # atno 10765 bound_to 10752
  141.1667  133.7172  156.8345 H   0  0  0  0  0  0  0  0  0  0  0  0  # atno 11005 bound_to 11000
  144.6734  140.1646  143.7419 LP  0  0  0  0  0  0  0  0  0  0  0  0  # atno 17320 bound_to 7965
  145.8816  139.2326  143.1602 LP  0  0  0  0  0  0  0  0  0  0  0  0  # atno 17321 bound_to 7965
  139.7585  144.7513  151.0399 LP  0  0  0  0  0  0  0  0  0  0  0  0  # atno 17342 bound_to 10162
  140.7800  143.4778  151.0059 LP  0  0  0  0  0  0  0  0  0  0  0  0  # atno 17343 bound_to 10162
  157.5064  130.7911  149.7658 LP  0  0  0  0  0  0  0  0  0  0  0  0  # atno 17370 bound_to 10713
  156.0021  130.3874  150.2566 LP  0  0  0  0  0  0  0  0  0  0  0  0  # atno 17371 bound_to 10713
  140.2027  134.8885  157.3187 LP  0  0  0  0  0  0  0  0  0  0  0  0  # atno 17394 bound_to 11000
  140.2170  134.4069  155.7584 LP  0  0  0  0  0  0  0  0  0  0  0  0  # atno 17395 bound_to 11000

$$$$
