AV-unprocessed.smi:1034|AV-procd|sdf|4514|dock3
  -GOLD-   22720 2523D 1   1.00000     0.00000
 Structure written by MMmdl.
 39 40  0  0  0  0  0  0  0  0  1 V2000
  144.7621  137.0977  152.2912 O   0  0  0  0  0  0  0  0  0  0  0  0
  145.9506  136.8352  152.1050 C   0  0  0  0  0  0  0  0  0  0  0  0
  146.9441  137.7042  152.3403 N   0  0  0  0  0  0  0  0  0  0  0  0
  146.7699  139.0563  152.8571 C   0  0  0  0  0  0  0  0  0  0  0  0
  146.5757  139.0594  154.3823 C   0  0  0  0  0  0  0  0  0  0  0  0
  147.1799  140.6299  155.1471 S   0  0  0  0  0  0  0  0  0  0  0  0
  146.5184  141.7549  154.4685 O   0  0  0  0  0  0  0  0  0  0  0  0
  147.0952  140.5081  156.6110 O   0  0  0  0  0  0  0  0  0  0  0  0
  148.8701  140.6866  154.7250 N   0  0  0  0  0  0  0  0  0  0  0  0
  149.5232  139.5361  154.0647 C   0  0  0  0  0  0  0  0  0  0  0  0
  150.3266  138.6620  155.0413 C   0  0  0  0  0  0  0  0  0  0  0  0
  151.6309  139.6104  155.8644 S   0  0  0  0  0  0  0  0  0  0  0  0
  150.5841  140.9257  156.5341 C   0  0  0  0  0  0  0  0  0  0  0  0
  149.7733  141.6197  155.4265 C   0  0  0  0  0  0  0  0  0  0  0  0
  146.4282  135.6643  151.6476 N   0  0  0  0  0  0  0  0  0  0  0  0
  145.7012  134.4946  151.3005 C   0  0  0  0  0  0  0  0  0  0  0  0
  146.4955  133.3760  150.9614 C   0  0  0  0  0  0  0  0  0  0  0  0
  145.8708  132.1650  150.6057 C   0  0  0  0  0  0  0  0  0  0  0  0
  144.4660  132.1040  150.5963 C   0  0  0  0  0  0  0  0  0  0  0  0
  143.7497  133.2640  150.9449 C   0  0  0  0  0  0  0  0  0  0  0  0
  144.3464  134.4253  151.2874 N   0  0  0  0  0  0  0  0  0  0  0  0
  147.8911  137.4048  152.1595 H   0  0  0  0  0  0  0  0  0  0  0  0
  147.6221  139.6786  152.5785 H   0  0  0  0  0  0  0  0  0  0  0  0
  145.8994  139.4895  152.3657 H   0  0  0  0  0  0  0  0  0  0  0  0
  145.5370  138.9013  154.6598 H   0  0  0  0  0  0  0  0  0  0  0  0
  147.1495  138.2435  154.8224 H   0  0  0  0  0  0  0  0  0  0  0  0
  148.7823  138.9282  153.5474 H   0  0  0  0  0  0  0  0  0  0  0  0
  150.1892  139.9175  153.2897 H   0  0  0  0  0  0  0  0  0  0  0  0
  149.6784  138.2112  155.7902 H   0  0  0  0  0  0  0  0  0  0  0  0
  150.7931  137.8381  154.5013 H   0  0  0  0  0  0  0  0  0  0  0  0
  149.9295  140.5014  157.2934 H   0  0  0  0  0  0  0  0  0  0  0  0
  151.2219  141.6509  157.0392 H   0  0  0  0  0  0  0  0  0  0  0  0
  150.4522  142.0631  154.6973 H   0  0  0  0  0  0  0  0  0  0  0  0
  149.1987  142.4445  155.8475 H   0  0  0  0  0  0  0  0  0  0  0  0
  147.4301  135.5983  151.5449 H   0  0  0  0  0  0  0  0  0  0  0  0
  147.5740  133.4392  150.9744 H   0  0  0  0  0  0  0  0  0  0  0  0
  146.4600  131.2982  150.3457 H   0  0  0  0  0  0  0  0  0  0  0  0
  143.9506  131.1932  150.3294 H   0  0  0  0  0  0  0  0  0  0  0  0
  142.6698  133.2593  150.9501 H   0  0  0  0  0  0  0  0  0  0  0  0
  1  2  2  0  0  0  0
  2  3  1  0  0  0  0
  2 15  1  0  0  0  0
  3  4  1  0  0  0  0
  3 22  1  0  0  0  0
  4  5  1  0  0  0  0
  4 23  1  0  0  0  0
  4 24  1  0  0  0  0
  5  6  1  0  0  0  0
  5 25  1  0  0  0  0
  5 26  1  0  0  0  0
  6  7  2  0  0  0  0
  6  8  2  0  0  0  0
  6  9  1  0  0  0  0
  9 14  1  0  0  0  0
  9 10  1  0  0  0  0
 10 11  1  0  0  0  0
 10 27  1  0  0  0  0
 10 28  1  0  0  0  0
 11 12  1  0  0  0  0
 11 29  1  0  0  0  0
 11 30  1  0  0  0  0
 12 13  1  0  0  0  0
 13 14  1  0  0  0  0
 13 31  1  0  0  0  0
 13 32  1  0  0  0  0
 14 33  1  0  0  0  0
 14 34  1  0  0  0  0
 15 16  1  0  0  0  0
 15 35  1  0  0  0  0
 16 21  1  0  0  0  0
 16 17  2  0  0  0  0
 17 18  1  0  0  0  0
 17 36  1  0  0  0  0
 18 19  2  0  0  0  0
 18 37  1  0  0  0  0
 19 20  1  0  0  0  0
 19 38  1  0  0  0  0
 20 21  2  0  0  0  0
 20 39  1  0  0  0  0
M  END
> <s_m_source_file>
AV-unprocessed.smi

> <i_m_source_file_index>
1034

> <i_lp_mmshare_version>
43012

> <i_f3d_flags>
0

> <s_epik_input>
bjFbY0hdW2NIXVtjSF1bY0hdYzFbTkhdQyg9TylbTkhdW0NIMl1bQ0gyXVMoPU8pKD1PKU4yW0NIMl1bQ0gyXVNbQ0gyXVtDSDJdMg==

> <s_epik_cmdline>
J2VwaWtfcHl0aG9uJywgJy1waCcsICc3LjAnLCAnLXRuJywgJzgnLCAnLW1hJywgJzIwMCcsICctbWV0YWxfYmluZGluZycsICctaW1hZScsICc8aW5maWxlLm1hZT4nLCAnLW9tYWUnLCAnPG91dGZpbGUubWFlPic=

> <r_lp_tautomer_probability>
1

> <r_epik_Ionization_Penalty>
3.90463e-05

> <r_epik_Ionization_Penalty_Charging>
0

> <r_epik_Ionization_Penalty_Neutral>
3.90463e-05

> <r_epik_State_Penalty>
-0

> <r_epik_Charging_Adjusted_Penalty>
0

> <i_epik_Tot_Q>
0

> <i_epik_Tot_abs_Q>
0

> <r_epik_Metal_State_Penalty>
-0

> <b_epik_Metal_Only>
0

> <s_lp_Force_Field>
OPLS_2005

> <r_lp_Energy>
-0.604615

> <b_lp_Chiralities_Consistent>
1

> <s_lp_Variant>
AV-unprocessed.smi:1034-1

> <Gold.Version>
5.8.1

> <Gold.Id.Protein>
6NUR|6NUR_protein|mol2

> <Gold.PLP.Fitness>
43.0293

> <Gold.PLP.PLP>
-35.1596

> <Gold.PLP.part.hbond>
-2.0000

> <Gold.PLP.part.metal>
0.0000

> <Gold.PLP.part.buried>
-2.1806

> <Gold.PLP.part.nonpolar>
-32.3974

> <Gold.PLP.part.repulsive>
1.3184

> <Gold.PLP.ligand.clash>
0.0000

> <Gold.PLP.ligand.torsion>
1.5781

> <Gold.PLP.Chemscore.Hbond>
1.9840

> <Gold.PLP.Chemscore.CHOScore>
0.9834

> <Gold.PLP.Chemscore.Metal>
0.0000

> <Gold.Chemscore.Hbonds>
donor molecule, donor type, donor heavy atom, donor atom, acceptor molecule, acceptor atom, score
      L1  H     3    22       P1  7948  1.00
      L1  H    15    35       P1  7948  1.00
      L1  C    20    39       P1 10186  1.00

> <Gold.PLP.Chemscore.Internal.Correction>
2.1237

> <Gold.Rescore>
     Score         DG    S(hbond)    S(metal)    S(lipo)     H(rot)  DE(clash)    DE(int)     intcor
     13.37     -16.39       1.92        0.00      74.10       1.63       0.12       2.90       ----

> <Gold.Chemscore.Fitness>
13.3703

> <Gold.Chemscore.DG>
-16.3894

> <Gold.Chemscore.ZeroCoef>
-5.4800

> <Gold.Chemscore.Hbond>
1.9210

> <Gold.Chemscore.Metal>
0.0000

> <Gold.Chemscore.Lipo>
74.0979

> <Gold.Chemscore.Internal_Hbond>
0.0000

> <Gold.Chemscore.DEClash>
0.1214

> <Gold.Chemscore.DEInternal>
2.8976

> <Gold.Chemscore.Rot>
1.6313

> <Gold.Chemscore.Internal.Correction>
   9.000000E+99

> <Gold.Chemscore.Hbonds>
donor molecule, donor type, donor heavy atom, donor atom, acceptor molecule, acceptor atom, score
      L1  H     3    22       P1  7948  0.94
      L1  H    15    35       P1  7948  0.93

> <Gold.Chemscore.Hbond.Weighted>
-6.4160

> <Gold.Chemscore.Metal.Weighted>
-0.0000

> <Gold.Chemscore.Lipo.Weighted>
-8.6694

> <Gold.Chemscore.Internal_Hbond.Weighted>
0.0000

> <Gold.Chemscore.DEClash.Weighted>
0.1214

> <Gold.Chemscore.DEInternal.Weighted>
2.8976

> <Gold.Chemscore.Rot.Weighted>
4.1761

> <Gold.Chemscore.Internal.Correction.Weighted>
   9.000000E+99

> <Gold.Protein.RotatedTorsions>
[ 6907 6896 6895 6894 ] final -165.48 input  -60.11 | X-H torsion
[ 7974 7965 7964 7962 ] final   31.78 input  175.53 | X-H torsion
[ 8008 7997 7996 7995 ] final -115.56 input   59.86 | X-H torsion
[ 10167 10162 10161 10158 ] final   94.17 input  -65.29 | X-H torsion
[ 10718 10713 10712 10709 ] final  -65.20 input   66.30 | X-H torsion
[ 10763 10752 10751 10750 ] final   39.13 input  -60.55 | X-H torsion
[ 11005 11000 10999 10996 ] final  124.22 input  -57.11 | X-H torsion

> <Gold.Protein.ActiveResidues>
 VAL166  LYS551  ARG553  GLY616  TRP617  ASP618  TYR619  PRO620  LYS621  CYS622 
 ASP623  PHE694  ASN695  SER759  ASP760  ASP761  ALA762  ILE779  LEU786  VAL792 
 PHE793  MET794  SER795  GLU796  ALA797  LYS798  CYS799  TRP800  GLU811  SER814 

> <Gold.Protein.RotatedAtoms>
  151.4284  133.3677  159.2765 H   0  0  0  0  0  0  0  0  0  0  0  0  # atno 6907 bound_to 6896
  150.9243  134.8661  159.7520 H   0  0  0  0  0  0  0  0  0  0  0  0  # atno 6908 bound_to 6896
  152.4997  134.4224  159.9537 H   0  0  0  0  0  0  0  0  0  0  0  0  # atno 6909 bound_to 6896
  146.1529  139.6612  142.9087 H   0  0  0  0  0  0  0  0  0  0  0  0  # atno 7974 bound_to 7965
  155.0539  140.0393  157.2553 H   0  0  0  0  0  0  0  0  0  0  0  0  # atno 8008 bound_to 7997
  154.7115  140.2693  155.6601 H   0  0  0  0  0  0  0  0  0  0  0  0  # atno 8009 bound_to 7997
  156.2791  140.2721  156.1757 H   0  0  0  0  0  0  0  0  0  0  0  0  # atno 8010 bound_to 7997
  139.8109  144.6774  150.9641 H   0  0  0  0  0  0  0  0  0  0  0  0  # atno 10167 bound_to 10162
  156.0683  130.4244  150.1530 H   0  0  0  0  0  0  0  0  0  0  0  0  # atno 10718 bound_to 10713
  152.9977  135.6229  154.2415 H   0  0  0  0  0  0  0  0  0  0  0  0  # atno 10763 bound_to 10752
  154.2156  135.2798  155.2945 H   0  0  0  0  0  0  0  0  0  0  0  0  # atno 10764 bound_to 10752
  154.5571  135.5716  153.7032 H   0  0  0  0  0  0  0  0  0  0  0  0  # atno 10765 bound_to 10752
  139.9349  134.9640  156.8377 H   0  0  0  0  0  0  0  0  0  0  0  0  # atno 11005 bound_to 11000
  145.4780  141.0437  143.2661 LP  0  0  0  0  0  0  0  0  0  0  0  0  # atno 17320 bound_to 7965
  144.7926  139.6298  143.7107 LP  0  0  0  0  0  0  0  0  0  0  0  0  # atno 17321 bound_to 7965
  140.7818  143.4186  151.0877 LP  0  0  0  0  0  0  0  0  0  0  0  0  # atno 17342 bound_to 10162
  139.7853  143.8297  152.3144 LP  0  0  0  0  0  0  0  0  0  0  0  0  # atno 17343 bound_to 10162
  156.9586  130.9797  151.3484 LP  0  0  0  0  0  0  0  0  0  0  0  0  # atno 17370 bound_to 10713
  157.5739  130.8329  149.8429 LP  0  0  0  0  0  0  0  0  0  0  0  0  # atno 17371 bound_to 10713
  140.6103  134.0088  155.7574 LP  0  0  0  0  0  0  0  0  0  0  0  0  # atno 17394 bound_to 11000
  141.0957  133.9847  157.3164 LP  0  0  0  0  0  0  0  0  0  0  0  0  # atno 17395 bound_to 11000

$$$$
