AV-unprocessed.smi:2216|AV-procd|sdf|8967|dock3
  -GOLD-   2272012183D 1   1.00000     0.00000
 Structure written by MMmdl.
 40 41  0  0  0  0  0  0  0  0  2 V2000
  143.4052  143.1746  162.6665 C   0  0  0  0  0  0  0  0  0  0  0  0
  143.9115  144.0849  161.5605 C   0  0  0  0  0  0  0  0  0  0  0  0
  145.2323  144.1810  161.2658 C   0  0  0  0  0  0  0  0  0  0  0  0
  145.7268  145.0491  160.1973 C   0  0  0  0  0  0  0  0  0  0  0  0
  147.0583  145.2233  159.7980 N   0  0  0  0  0  0  0  0  0  0  0  0
  148.1827  144.9050  160.4634 C   0  0  0  0  0  0  0  0  0  0  0  0
  148.2406  144.4202  161.5931 O   0  0  0  0  0  0  0  0  0  0  0  0
  149.2680  145.1976  159.7329 N   0  0  0  0  0  0  0  0  0  0  0  0
  150.6475  145.0039  160.1643 C   0  0  0  0  0  0  0  0  0  0  0  0
  151.6157  145.0230  158.9694 C   0  0  0  0  0  0  0  0  0  0  0  0
  152.4798  143.7555  158.8791 C   0  0  1  0  0  0  0  0  0  0  0  0
  153.2136  143.4631  160.2025 C   0  0  0  0  0  0  0  0  0  0  0  0
  154.0029  142.1527  160.1041 C   0  0  0  0  0  0  0  0  0  0  0  0
  153.0762  141.0250  159.6379 C   0  0  0  0  0  0  0  0  0  0  0  0
  152.3420  141.4347  158.3513 C   0  0  0  0  0  0  0  0  0  0  0  0
  151.6331  142.6519  158.5626 O   0  0  0  0  0  0  0  0  0  0  0  0
  144.7114  145.7228  159.5494 C   0  0  0  0  0  0  0  0  0  0  0  0
  143.3822  145.6825  159.7853 N   0  5  0  0  0  0  0  0  0  0  0  0
  142.9318  144.8760  160.7889 C   0  0  0  0  0  0  0  0  0  0  0  0
  141.7356  144.7919  161.0645 O   0  0  0  0  0  0  0  0  0  0  0  0
  144.2254  142.6505  163.1579 H   0  0  0  0  0  0  0  0  0  0  0  0
  142.7225  142.4271  162.2614 H   0  0  0  0  0  0  0  0  0  0  0  0
  142.8741  143.7530  163.4230 H   0  0  0  0  0  0  0  0  0  0  0  0
  145.9165  143.5806  161.8429 H   0  0  0  0  0  0  0  0  0  0  0  0
  147.1760  145.6459  158.8889 H   0  0  0  0  0  0  0  0  0  0  0  0
  149.1285  145.5919  158.8143 H   0  0  0  0  0  0  0  0  0  0  0  0
  150.9229  145.7638  160.8975 H   0  0  0  0  0  0  0  0  0  0  0  0
  150.7087  144.0438  160.6771 H   0  0  0  0  0  0  0  0  0  0  0  0
  151.0379  145.1290  158.0505 H   0  0  0  0  0  0  0  0  0  0  0  0
  152.2622  145.8997  159.0280 H   0  0  0  0  0  0  0  0  0  0  0  0
  153.2137  143.8860  158.0816 H   0  0  0  0  0  0  0  0  0  0  0  0
  153.8866  144.2839  160.4519 H   0  0  0  0  0  0  0  0  0  0  0  0
  152.4912  143.3930  161.0168 H   0  0  0  0  0  0  0  0  0  0  0  0
  154.8239  142.2703  159.3957 H   0  0  0  0  0  0  0  0  0  0  0  0
  154.4509  141.9043  161.0667 H   0  0  0  0  0  0  0  0  0  0  0  0
  153.6466  140.1105  159.4738 H   0  0  0  0  0  0  0  0  0  0  0  0
  152.3467  140.8036  160.4180 H   0  0  0  0  0  0  0  0  0  0  0  0
  153.0424  141.5493  157.5227 H   0  0  0  0  0  0  0  0  0  0  0  0
  151.6318  140.6599  158.0624 H   0  0  0  0  0  0  0  0  0  0  0  0
  145.0123  146.3986  158.7199 H   0  0  0  0  0  0  0  0  0  0  0  0
  1  2  1  0  0  0  0
  1 21  1  0  0  0  0
  1 22  1  0  0  0  0
  1 23  1  0  0  0  0
  2 19  1  0  0  0  0
  2  3  2  0  0  0  0
  3  4  1  0  0  0  0
  3 24  1  0  0  0  0
  4  5  1  0  0  0  0
  4 17  2  0  0  0  0
  5  6  1  0  0  0  0
  5 25  1  0  0  0  0
  6  7  2  0  0  0  0
  6  8  1  0  0  0  0
  8  9  1  0  0  0  0
  8 26  1  0  0  0  0
  9 10  1  0  0  0  0
  9 27  1  0  0  0  0
  9 28  1  0  0  0  0
 10 11  1  0  0  0  0
 10 29  1  0  0  0  0
 10 30  1  0  0  0  0
 11 16  1  0  0  0  0
 11 12  1  0  0  0  0
 11 31  1  0  0  0  0
 12 13  1  0  0  0  0
 12 32  1  0  0  0  0
 12 33  1  0  0  0  0
 13 14  1  0  0  0  0
 13 34  1  0  0  0  0
 13 35  1  0  0  0  0
 14 15  1  0  0  0  0
 14 36  1  0  0  0  0
 14 37  1  0  0  0  0
 15 16  1  0  0  0  0
 15 38  1  0  0  0  0
 15 39  1  0  0  0  0
 17 18  1  0  0  0  0
 17 40  1  0  0  0  0
 18 19  1  0  0  0  0
 19 20  2  0  0  0  0
M  CHG  1  18  -1
M  END
> <s_m_source_file>
AV-unprocessed.smi

> <i_m_source_file_index>
2216

> <i_lp_mmshare_version>
43012

> <i_f3d_flags>
0

> <s_epik_input>
Tz1jMVtuSF1bY0hdYyhbY0hdYzFbQ0gzXSlbTkhdQyg9TylbTkhdW0NIMl1bQ0gyXVtDQEBIXTJbQ0gyXVtDSDJdW0NIMl1bQ0gyXU8y

> <s_epik_cmdline>
J2VwaWtfcHl0aG9uJywgJy1waCcsICc3LjAnLCAnLXRuJywgJzgnLCAnLW1hJywgJzIwMCcsICctbWV0YWxfYmluZGluZycsICctaW1hZScsICc8aW5maWxlLm1hZT4nLCAnLW9tYWUnLCAnPG91dGZpbGUubWFlPic=

> <r_lp_tautomer_probability>
1

> <r_epik_Ionization_Penalty>
7.55627

> <r_epik_Ionization_Penalty_Charging>
1.50531

> <r_epik_Ionization_Penalty_Neutral>
6.05097

> <r_epik_State_Penalty>
6.05091

> <r_epik_Charging_Adjusted_Penalty>
7.55622

> <i_epik_Tot_Q>
-1

> <i_epik_Tot_abs_Q>
1

> <r_epik_Metal_State_Penalty>
2.00009

> <b_epik_Metal_Only>
1

> <s_lp_Force_Field>
OPLS_2005

> <r_lp_Energy>
20.9745

> <b_lp_Chiralities_Consistent>
1

> <s_lp_Variant>
AV-unprocessed.smi:2216-4

> <Gold.Version>
5.8.1

> <Gold.Id.Protein>
6NUR|6NUR_protein|mol2

> <Gold.PLP.Fitness>
48.0393

> <Gold.PLP.PLP>
-40.2209

> <Gold.PLP.part.hbond>
-3.0000

> <Gold.PLP.part.metal>
0.0000

> <Gold.PLP.part.buried>
-7.3559

> <Gold.PLP.part.nonpolar>
-31.8488

> <Gold.PLP.part.repulsive>
0.6700

> <Gold.PLP.ligand.clash>
0.0000

> <Gold.PLP.ligand.torsion>
0.5766

> <Gold.PLP.Chemscore.Hbond>
2.9840

> <Gold.PLP.Chemscore.CHOScore>
0.0000

> <Gold.PLP.Chemscore.Metal>
0.0000

> <Gold.Chemscore.Hbonds>
donor molecule, donor type, donor heavy atom, donor atom, acceptor molecule, acceptor atom, score
      L1  H     5    25       P1  8029  1.00
      L1  H     8    26       P1  8029  0.99
      P1  H  6933  6944       L1     7  0.83

> <Gold.PLP.Chemscore.Internal.Correction>
0.0197

> <Gold.Rescore>
     Score         DG    S(hbond)    S(metal)    S(lipo)     H(rot)  DE(clash)    DE(int)     intcor
     22.50     -23.84       2.86        0.00     107.45       1.47       0.03       1.32       ----

> <Gold.Chemscore.Fitness>
22.4959

> <Gold.Chemscore.DG>
-23.8418

> <Gold.Chemscore.ZeroCoef>
-5.4800

> <Gold.Chemscore.Hbond>
2.8611

> <Gold.Chemscore.Metal>
0.0000

> <Gold.Chemscore.Lipo>
107.4463

> <Gold.Chemscore.Internal_Hbond>
0.0000

> <Gold.Chemscore.DEClash>
0.0269

> <Gold.Chemscore.DEInternal>
1.3190

> <Gold.Chemscore.Rot>
1.4709

> <Gold.Chemscore.Internal.Correction>
   9.000000E+99

> <Gold.Chemscore.Hbonds>
donor molecule, donor type, donor heavy atom, donor atom, acceptor molecule, acceptor atom, score
      L1  H     5    25       P1  8029  1.00
      L1  H     8    26       P1  8029  0.90
      P1  H  6933  6944       L1     7  0.58

> <Gold.Chemscore.Hbond.Weighted>
-9.5560

> <Gold.Chemscore.Metal.Weighted>
-0.0000

> <Gold.Chemscore.Lipo.Weighted>
-12.5712

> <Gold.Chemscore.Internal_Hbond.Weighted>
0.0000

> <Gold.Chemscore.DEClash.Weighted>
0.0269

> <Gold.Chemscore.DEInternal.Weighted>
1.3190

> <Gold.Chemscore.Rot.Weighted>
3.7654

> <Gold.Chemscore.Internal.Correction.Weighted>
   9.000000E+99

> <Gold.Protein.RotatedTorsions>
[ 6907 6896 6895 6894 ] final   90.82 input  -60.11 | X-H torsion
[ 7974 7965 7964 7962 ] final   15.95 input  175.53 | X-H torsion
[ 8008 7997 7996 7995 ] final -114.60 input   59.86 | X-H torsion
[ 10167 10162 10161 10158 ] final   97.93 input  -65.29 | X-H torsion
[ 10718 10713 10712 10709 ] final -139.97 input   66.30 | X-H torsion
[ 10763 10752 10751 10750 ] final   46.50 input  -60.55 | X-H torsion
[ 11005 11000 10999 10996 ] final  -76.57 input  -57.11 | X-H torsion

> <Gold.Protein.ActiveResidues>
 VAL166  LYS551  ARG553  GLY616  TRP617  ASP618  TYR619  PRO620  LYS621  CYS622 
 ASP623  PHE694  ASN695  SER759  ASP760  ASP761  ALA762  ILE779  LEU786  VAL792 
 PHE793  MET794  SER795  GLU796  ALA797  LYS798  CYS799  TRP800  GLU811  SER814 

> <Gold.Protein.RotatedAtoms>
  152.5447  134.1752  159.8612 H   0  0  0  0  0  0  0  0  0  0  0  0  # atno 6907 bound_to 6896
  151.1759  133.4748  159.2601 H   0  0  0  0  0  0  0  0  0  0  0  0  # atno 6908 bound_to 6896
  151.1228  135.0100  159.8601 H   0  0  0  0  0  0  0  0  0  0  0  0  # atno 6909 bound_to 6896
  146.2264  139.8819  142.8569 H   0  0  0  0  0  0  0  0  0  0  0  0  # atno 7974 bound_to 7965
  155.0389  140.0392  157.2502 H   0  0  0  0  0  0  0  0  0  0  0  0  # atno 8008 bound_to 7997
  154.7233  140.2716  155.6497 H   0  0  0  0  0  0  0  0  0  0  0  0  # atno 8009 bound_to 7997
  156.2822  140.2698  156.1911 H   0  0  0  0  0  0  0  0  0  0  0  0  # atno 8010 bound_to 7997
  139.7756  144.6907  151.0095 H   0  0  0  0  0  0  0  0  0  0  0  0  # atno 10167 bound_to 10162
  156.3168  130.7512  151.1601 H   0  0  0  0  0  0  0  0  0  0  0  0  # atno 10718 bound_to 10713
  152.9810  135.6006  154.3609 H   0  0  0  0  0  0  0  0  0  0  0  0  # atno 10763 bound_to 10752
  154.3291  135.2769  155.2483 H   0  0  0  0  0  0  0  0  0  0  0  0  # atno 10764 bound_to 10752
  154.4615  135.5964  153.6314 H   0  0  0  0  0  0  0  0  0  0  0  0  # atno 10765 bound_to 10752
  141.1655  133.6988  156.7689 H   0  0  0  0  0  0  0  0  0  0  0  0  # atno 11005 bound_to 11000
  145.2504  141.0042  143.3884 LP  0  0  0  0  0  0  0  0  0  0  0  0  # atno 17320 bound_to 7965
  144.9379  139.4222  143.6463 LP  0  0  0  0  0  0  0  0  0  0  0  0  # atno 17321 bound_to 7965
  140.7816  143.4540  151.0372 LP  0  0  0  0  0  0  0  0  0  0  0  0  # atno 17342 bound_to 10162
  139.8222  143.7804  152.3177 LP  0  0  0  0  0  0  0  0  0  0  0  0  # atno 17343 bound_to 10162
  157.7403  131.0518  150.5173 LP  0  0  0  0  0  0  0  0  0  0  0  0  # atno 17370 bound_to 10713
  156.5320  130.4187  149.6197 LP  0  0  0  0  0  0  0  0  0  0  0  0  # atno 17371 bound_to 10713
  140.2479  134.8563  157.3638 LP  0  0  0  0  0  0  0  0  0  0  0  0  # atno 17394 bound_to 11000
  140.1731  134.4583  155.7819 LP  0  0  0  0  0  0  0  0  0  0  0  0  # atno 17395 bound_to 11000

$$$$
