AV-unprocessed.smi:1207|AV-procd|sdf|5051|dock2
  -GOLD-   22720 4 83D 1   1.00000     0.00000
 Structure written by MMmdl.
 52 54  0  0  0  0  0  0  0  0  2 V2000
  146.2314  129.9119  152.4795 C   0  0  0  0  0  0  0  0  0  0  0  0
  146.1884  131.4029  152.1941 C   0  0  0  0  0  0  0  0  0  0  0  0
  145.0306  131.9557  151.6020 C   0  0  0  0  0  0  0  0  0  0  0  0
  144.9497  133.3372  151.3222 C   0  0  0  0  0  0  0  0  0  0  0  0
  143.9306  134.0797  150.7514 N   0  0  0  0  0  0  0  0  0  0  0  0
  144.4524  135.3024  150.7598 C   0  0  0  0  0  0  0  0  0  0  0  0
  145.6970  135.4385  151.2578 N   0  0  0  0  0  0  0  0  0  0  0  0
  146.4680  136.6648  151.3581 C   0  0  0  0  0  0  0  0  0  0  0  0
  145.9030  137.6481  152.4050 C   0  0  2  0  0  0  0  0  0  0  0  0
  144.6236  138.0505  151.9579 O   0  0  0  0  0  0  0  0  0  0  0  0
  146.7952  138.8939  152.6164 C   0  0  0  0  0  0  0  0  0  0  0  0
  146.2611  139.8646  153.6124 N   0  3  1  0  0  0  0  0  0  0  0  0
  145.9080  139.2347  154.9078 C   0  0  0  0  0  0  0  0  0  0  0  0
  147.1506  141.0386  153.8128 C   0  0  0  0  0  0  0  0  0  0  0  0
  146.6653  141.9451  154.9163 C   0  0  0  0  0  0  0  0  0  0  0  0
  146.9063  141.8235  156.3152 C   0  0  0  0  0  0  0  0  0  0  0  0
  147.6983  140.7747  157.0418 C   0  0  0  0  0  0  0  0  0  0  0  0
  146.3283  142.7933  157.0021 N   0  0  0  0  0  0  0  0  0  0  0  0
  145.6825  143.5987  156.0596 O   0  0  0  0  0  0  0  0  0  0  0  0
  145.8998  143.0766  154.8263 C   0  0  0  0  0  0  0  0  0  0  0  0
  145.2790  143.8043  153.6812 C   0  0  0  0  0  0  0  0  0  0  0  0
  146.0675  134.1578  151.6541 C   0  0  0  0  0  0  0  0  0  0  0  0
  147.2241  133.6196  152.2454 C   0  0  0  0  0  0  0  0  0  0  0  0
  147.2896  132.2367  152.5153 C   0  0  0  0  0  0  0  0  0  0  0  0
  148.5455  131.6636  153.1480 C   0  0  0  0  0  0  0  0  0  0  0  0
  145.3019  129.4233  152.1862 H   0  0  0  0  0  0  0  0  0  0  0  0
  146.3815  129.7308  153.5441 H   0  0  0  0  0  0  0  0  0  0  0  0
  147.0457  129.4403  151.9290 H   0  0  0  0  0  0  0  0  0  0  0  0
  144.1913  131.3208  151.3576 H   0  0  0  0  0  0  0  0  0  0  0  0
  143.9019  136.1472  150.3720 H   0  0  0  0  0  0  0  0  0  0  0  0
  147.4961  136.3987  151.6102 H   0  0  0  0  0  0  0  0  0  0  0  0
  146.5004  137.1325  150.3733 H   0  0  0  0  0  0  0  0  0  0  0  0
  145.7813  137.1068  153.3420 H   0  0  0  0  0  0  0  0  0  0  0  0
  144.4749  138.9465  152.2180 H   0  0  0  0  0  0  0  0  0  0  0  0
  147.7963  138.6000  152.9347 H   0  0  0  0  0  0  0  0  0  0  0  0
  146.9138  139.3778  151.6478 H   0  0  0  0  0  0  0  0  0  0  0  0
  146.7726  138.7364  155.3483 H   0  0  0  0  0  0  0  0  0  0  0  0
  145.1086  138.5035  154.7950 H   0  0  0  0  0  0  0  0  0  0  0  0
  145.5487  139.9795  155.6188 H   0  0  0  0  0  0  0  0  0  0  0  0
  148.1538  140.6854  154.0539 H   0  0  0  0  0  0  0  0  0  0  0  0
  147.2485  141.5751  152.8681 H   0  0  0  0  0  0  0  0  0  0  0  0
  147.6251  139.8086  156.5424 H   0  0  0  0  0  0  0  0  0  0  0  0
  147.3445  140.6427  158.0651 H   0  0  0  0  0  0  0  0  0  0  0  0
  148.7531  141.0468  157.0873 H   0  0  0  0  0  0  0  0  0  0  0  0
  145.6381  143.4214  152.7262 H   0  0  0  0  0  0  0  0  0  0  0  0
  145.5142  144.8679  153.7260 H   0  0  0  0  0  0  0  0  0  0  0  0
  144.1943  143.6966  153.6997 H   0  0  0  0  0  0  0  0  0  0  0  0
  148.0543  134.2652  152.4905 H   0  0  0  0  0  0  0  0  0  0  0  0
  149.2887  132.4399  153.3325 H   0  0  0  0  0  0  0  0  0  0  0  0
  148.9968  130.9178  152.4931 H   0  0  0  0  0  0  0  0  0  0  0  0
  148.3117  131.1911  154.1022 H   0  0  0  0  0  0  0  0  0  0  0  0
  145.4020  140.2297  153.2270 H   0  0  0  0  0  0  0  0  0  0  0  0
  1  2  1  0  0  0  0
  1 26  1  0  0  0  0
  1 27  1  0  0  0  0
  1 28  1  0  0  0  0
  2 24  1  0  0  0  0
  2  3  2  0  0  0  0
  3  4  1  0  0  0  0
  3 29  1  0  0  0  0
  4 22  2  0  0  0  0
  4  5  1  0  0  0  0
  5  6  2  0  0  0  0
  6  7  1  0  0  0  0
  6 30  1  0  0  0  0
  7  8  1  0  0  0  0
  7 22  1  0  0  0  0
  8  9  1  0  0  0  0
  8 31  1  0  0  0  0
  8 32  1  0  0  0  0
  9 10  1  0  0  0  0
  9 11  1  0  0  0  0
  9 33  1  0  0  0  0
 10 34  1  0  0  0  0
 11 12  1  0  0  0  0
 11 35  1  0  0  0  0
 11 36  1  0  0  0  0
 12 13  1  0  0  0  0
 12 14  1  0  0  0  0
 12 52  1  0  0  0  0
 13 37  1  0  0  0  0
 13 38  1  0  0  0  0
 13 39  1  0  0  0  0
 14 15  1  0  0  0  0
 14 40  1  0  0  0  0
 14 41  1  0  0  0  0
 15 20  2  0  0  0  0
 15 16  1  0  0  0  0
 16 17  1  0  0  0  0
 16 18  2  0  0  0  0
 17 42  1  0  0  0  0
 17 43  1  0  0  0  0
 17 44  1  0  0  0  0
 18 19  1  0  0  0  0
 19 20  1  0  0  0  0
 20 21  1  0  0  0  0
 21 45  1  0  0  0  0
 21 46  1  0  0  0  0
 21 47  1  0  0  0  0
 22 23  1  0  0  0  0
 23 24  2  0  0  0  0
 23 48  1  0  0  0  0
 24 25  1  0  0  0  0
 25 49  1  0  0  0  0
 25 50  1  0  0  0  0
 25 51  1  0  0  0  0
M  CHG  1  12   1
M  END
> <s_m_source_file>
AV-unprocessed.smi

> <i_m_source_file_index>
1207

> <i_lp_mmshare_version>
43012

> <i_f3d_flags>
0

> <s_epik_input>
W0NIM11jKFtjSF0xKWMoW0NIM10pW2NIXWMoYzEyKW4oW2NIXW4yKVtDSDJdW0NASF0oW09IXSlbQ0gyXU4oW0NIM10pW0NIMl1jM2MoW0NIM10pbm9jM1tDSDNd

> <s_epik_cmdline>
J2VwaWtfcHl0aG9uJywgJy1waCcsICc3LjAnLCAnLXRuJywgJzgnLCAnLW1hJywgJzIwMCcsICctbWV0YWxfYmluZGluZycsICctaW1hZScsICc8aW5maWxlLm1hZT4nLCAnLW9tYWUnLCAnPG91dGZpbGUubWFlPic=

> <r_epik_Ionization_Penalty>
0.646518

> <r_epik_Ionization_Penalty_Charging>
0.559419

> <r_epik_Ionization_Penalty_Neutral>
0.0870981

> <r_epik_State_Penalty>
0.661677

> <r_epik_Charging_Adjusted_Penalty>
1.2211

> <i_epik_Tot_Q>
1

> <i_epik_Tot_abs_Q>
1

> <r_epik_Metal_State_Penalty>
0.649158

> <b_epik_Metal_Only>
0

> <s_lp_Force_Field>
OPLS_2005

> <r_lp_Energy>
10.0626

> <b_lp_Chiralities_Consistent>
1

> <s_lp_Variant>
AV-unprocessed.smi:1207-3

> <Gold.Version>
5.8.1

> <Gold.Id.Protein>
6NUR|6NUR_protein|mol2

> <Gold.PLP.Fitness>
51.1508

> <Gold.PLP.PLP>
-39.9540

> <Gold.PLP.part.hbond>
-2.0711

> <Gold.PLP.part.metal>
0.0000

> <Gold.PLP.part.buried>
-0.3480

> <Gold.PLP.part.nonpolar>
-39.1496

> <Gold.PLP.part.repulsive>
0.5669

> <Gold.PLP.ligand.clash>
0.0000

> <Gold.PLP.ligand.torsion>
0.5202

> <Gold.PLP.Chemscore.Hbond>
3.0000

> <Gold.PLP.Chemscore.CHOScore>
1.0000

> <Gold.PLP.Chemscore.Metal>
0.0000

> <Gold.Chemscore.Hbonds>
donor molecule, donor type, donor heavy atom, donor atom, acceptor molecule, acceptor atom, score
      L1  H    10    34       P1 10175  1.00
      L1  H    12    52       P1 10175  2.00
      L1  C     6    30       P1 10171  1.00

> <Gold.PLP.Chemscore.Internal.Correction>
0.2373

> <Gold.Rescore>
     Score         DG    S(hbond)    S(metal)    S(lipo)     H(rot)  DE(clash)    DE(int)     intcor
     14.48     -17.63       1.98        0.00     101.05       2.46       1.65       1.50       ----

> <Gold.Chemscore.Fitness>
14.4813

> <Gold.Chemscore.DG>
-17.6310

> <Gold.Chemscore.ZeroCoef>
-5.4800

> <Gold.Chemscore.Hbond>
1.9812

> <Gold.Chemscore.Metal>
0.0000

> <Gold.Chemscore.Lipo>
101.0470

> <Gold.Chemscore.Internal_Hbond>
0.0000

> <Gold.Chemscore.DEClash>
1.6511

> <Gold.Chemscore.DEInternal>
1.4987

> <Gold.Chemscore.Rot>
2.4565

> <Gold.Chemscore.Internal.Correction>
   9.000000E+99

> <Gold.Chemscore.Hbonds>
donor molecule, donor type, donor heavy atom, donor atom, acceptor molecule, acceptor atom, score
      L1  H    10    34       P1 10175  0.99
      L1  H    12    52       P1 10175  0.99

> <Gold.Chemscore.Hbond.Weighted>
-6.6172

> <Gold.Chemscore.Metal.Weighted>
-0.0000

> <Gold.Chemscore.Lipo.Weighted>
-11.8225

> <Gold.Chemscore.Internal_Hbond.Weighted>
0.0000

> <Gold.Chemscore.DEClash.Weighted>
1.6511

> <Gold.Chemscore.DEInternal.Weighted>
1.4987

> <Gold.Chemscore.Rot.Weighted>
6.2887

> <Gold.Chemscore.Internal.Correction.Weighted>
   9.000000E+99

> <Gold.Protein.RotatedTorsions>
[ 6907 6896 6895 6894 ] final   23.49 input  -60.11 | X-H torsion
[ 7974 7965 7964 7962 ] final -118.76 input  175.53 | X-H torsion
[ 8008 7997 7996 7995 ] final -136.54 input   59.86 | X-H torsion
[ 10167 10162 10161 10158 ] final   58.63 input  -65.29 | X-H torsion
[ 10718 10713 10712 10709 ] final   44.15 input   66.30 | X-H torsion
[ 10763 10752 10751 10750 ] final   73.67 input  -60.55 | X-H torsion
[ 11005 11000 10999 10996 ] final  -69.90 input  -57.11 | X-H torsion

> <Gold.Protein.ActiveResidues>
 VAL166  LYS551  ARG553  GLY616  TRP617  ASP618  TYR619  PRO620  LYS621  CYS622 
 ASP623  PHE694  ASN695  SER759  ASP760  ASP761  ALA762  ILE779  LEU786  VAL792 
 PHE793  MET794  SER795  GLU796  ALA797  LYS798  CYS799  TRP800  GLU811  SER814 

> <Gold.Protein.RotatedAtoms>
  151.9432  135.0204  160.0536 H   0  0  0  0  0  0  0  0  0  0  0  0  # atno 6907 bound_to 6896
  152.2018  133.4842  159.5071 H   0  0  0  0  0  0  0  0  0  0  0  0  # atno 6908 bound_to 6896
  150.6956  134.1497  159.4179 H   0  0  0  0  0  0  0  0  0  0  0  0  # atno 6909 bound_to 6896
  145.0702  140.8353  143.4100 H   0  0  0  0  0  0  0  0  0  0  0  0  # atno 7974 bound_to 7965
  155.3969  140.0503  157.3038 H   0  0  0  0  0  0  0  0  0  0  0  0  # atno 8008 bound_to 7997
  154.5009  140.2156  155.9310 H   0  0  0  0  0  0  0  0  0  0  0  0  # atno 8009 bound_to 7997
  156.1466  140.3144  155.8585 H   0  0  0  0  0  0  0  0  0  0  0  0  # atno 8010 bound_to 7997
  140.1851  144.4143  150.6597 H   0  0  0  0  0  0  0  0  0  0  0  0  # atno 10167 bound_to 10162
  157.4237  130.7984  149.7539 H   0  0  0  0  0  0  0  0  0  0  0  0  # atno 10718 bound_to 10713
  153.0536  135.5054  154.7928 H   0  0  0  0  0  0  0  0  0  0  0  0  # atno 10763 bound_to 10752
  154.6771  135.2962  154.9667 H   0  0  0  0  0  0  0  0  0  0  0  0  # atno 10764 bound_to 10752
  154.0465  135.6710  153.4848 H   0  0  0  0  0  0  0  0  0  0  0  0  # atno 10765 bound_to 10752
  141.1563  133.6776  156.6670 H   0  0  0  0  0  0  0  0  0  0  0  0  # atno 11005 bound_to 11000
  145.1302  139.2637  143.5543 LP  0  0  0  0  0  0  0  0  0  0  0  0  # atno 17320 bound_to 7965
  146.3528  140.0951  142.8610 LP  0  0  0  0  0  0  0  0  0  0  0  0  # atno 17321 bound_to 7965
  140.6494  143.2221  151.6113 LP  0  0  0  0  0  0  0  0  0  0  0  0  # atno 17342 bound_to 10162
  139.5279  144.3002  152.1079 LP  0  0  0  0  0  0  0  0  0  0  0  0  # atno 17343 bound_to 10162
  155.9889  130.3955  150.3096 LP  0  0  0  0  0  0  0  0  0  0  0  0  # atno 17370 bound_to 10713
  157.1247  131.0256  151.2994 LP  0  0  0  0  0  0  0  0  0  0  0  0  # atno 17371 bound_to 10713
  140.3204  134.8012  157.4248 LP  0  0  0  0  0  0  0  0  0  0  0  0  # atno 17394 bound_to 11000
  140.1102  134.5356  155.8273 LP  0  0  0  0  0  0  0  0  0  0  0  0  # atno 17395 bound_to 11000

$$$$
