AV-unprocessed.smi:849|AV-procd|sdf|3944|dock7
  -GOLD-   22720 1413D 1   1.00000     0.00000
 Structure written by MMmdl.
 36 38  0  0  0  0  0  0  0  0  1 V2000
  151.3933  136.1591  155.3276 O   0  0  0  0  0  0  0  0  0  0  0  0
  151.7075  137.5144  155.5765 C   0  0  0  0  0  0  0  0  0  0  0  0
  150.6548  138.4818  155.1137 C   0  0  0  0  0  0  0  0  0  0  0  0
  149.5343  138.0941  154.4997 N   0  0  0  0  0  0  0  0  0  0  0  0
  148.8798  139.2875  154.2705 C   0  0  0  0  0  0  0  0  0  0  0  0
  147.6375  139.5494  153.6500 C   0  0  0  0  0  0  0  0  0  0  0  0
  147.1666  140.8730  153.5265 C   0  0  0  0  0  0  0  0  0  0  0  0
  147.9287  141.9508  154.0218 C   0  0  0  0  0  0  0  0  0  0  0  0
  149.1689  141.7112  154.6442 C   0  0  0  0  0  0  0  0  0  0  0  0
  149.6350  140.3882  154.7631 C   0  0  0  0  0  0  0  0  0  0  0  0
  150.7875  139.8206  155.2980 N   0  0  0  0  0  0  0  0  0  0  0  0
  151.8839  140.5491  155.9226 C   0  0  0  0  0  0  0  0  0  0  0  0
  151.7548  140.6132  157.4593 C   0  0  1  0  0  0  0  0  0  0  0  0
  152.7333  139.7563  158.0137 O   0  0  0  0  0  0  0  0  0  0  0  0
  151.8626  142.0393  157.9988 C   0  0  0  0  0  0  0  0  0  0  0  0
  151.1664  143.0797  157.3405 C   0  0  0  0  0  0  0  0  0  0  0  0
  151.2271  144.4018  157.8190 C   0  0  0  0  0  0  0  0  0  0  0  0
  151.9855  144.6993  158.9649 C   0  0  0  0  0  0  0  0  0  0  0  0
  152.6808  143.6732  159.6301 C   0  0  0  0  0  0  0  0  0  0  0  0
  152.6244  142.3471  159.1563 C   0  0  0  0  0  0  0  0  0  0  0  0
  153.4962  141.1343  160.0276 Cl  0  0  0  0  0  0  0  0  0  0  0  0
  150.9853  135.7979  156.0993 H   0  0  0  0  0  0  0  0  0  0  0  0
  151.8633  137.6411  156.6479 H   0  0  0  0  0  0  0  0  0  0  0  0
  152.6485  137.7408  155.0776 H   0  0  0  0  0  0  0  0  0  0  0  0
  147.0469  138.7302  153.2678 H   0  0  0  0  0  0  0  0  0  0  0  0
  146.2162  141.0620  153.0493 H   0  0  0  0  0  0  0  0  0  0  0  0
  147.5613  142.9616  153.9225 H   0  0  0  0  0  0  0  0  0  0  0  0
  149.7567  142.5347  155.0218 H   0  0  0  0  0  0  0  0  0  0  0  0
  152.8068  140.0334  155.6525 H   0  0  0  0  0  0  0  0  0  0  0  0
  151.9633  141.5488  155.4958 H   0  0  0  0  0  0  0  0  0  0  0  0
  150.8028  140.1762  157.7569 H   0  0  0  0  0  0  0  0  0  0  0  0
  152.3214  138.9369  158.2408 H   0  0  0  0  0  0  0  0  0  0  0  0
  150.5718  142.8669  156.4643 H   0  0  0  0  0  0  0  0  0  0  0  0
  150.6898  145.1870  157.3077 H   0  0  0  0  0  0  0  0  0  0  0  0
  152.0335  145.7129  159.3348 H   0  0  0  0  0  0  0  0  0  0  0  0
  153.2606  143.9060  160.5113 H   0  0  0  0  0  0  0  0  0  0  0  0
  1  2  1  0  0  0  0
  1 22  1  0  0  0  0
  2  3  1  0  0  0  0
  2 23  1  0  0  0  0
  2 24  1  0  0  0  0
  3 11  1  0  0  0  0
  3  4  2  0  0  0  0
  4  5  1  0  0  0  0
  5 10  2  0  0  0  0
  5  6  1  0  0  0  0
  6  7  2  0  0  0  0
  6 25  1  0  0  0  0
  7  8  1  0  0  0  0
  7 26  1  0  0  0  0
  8  9  2  0  0  0  0
  8 27  1  0  0  0  0
  9 10  1  0  0  0  0
  9 28  1  0  0  0  0
 10 11  1  0  0  0  0
 11 12  1  0  0  0  0
 12 13  1  0  0  0  0
 12 29  1  0  0  0  0
 12 30  1  0  0  0  0
 13 14  1  0  0  0  0
 13 15  1  0  0  0  0
 13 31  1  0  0  0  0
 14 32  1  0  0  0  0
 15 20  1  0  0  0  0
 15 16  2  0  0  0  0
 16 17  1  0  0  0  0
 16 33  1  0  0  0  0
 17 18  2  0  0  0  0
 17 34  1  0  0  0  0
 18 19  1  0  0  0  0
 18 35  1  0  0  0  0
 19 20  2  0  0  0  0
 19 36  1  0  0  0  0
 20 21  1  0  0  0  0
M  END
> <s_m_source_file>
AV-unprocessed.smi

> <i_m_source_file_index>
849

> <i_lp_mmshare_version>
43012

> <i_f3d_flags>
0

> <s_epik_input>
W2NIXTFbY0hdW2NIXVtjSF1jKGMxMiluKGMobjIpW0NIMl1bT0hdKVtDSDJdW0NASF0oW09IXSljM1tjSF1bY0hdW2NIXVtjSF1jM0Ns

> <s_epik_cmdline>
J2VwaWtfcHl0aG9uJywgJy1waCcsICc3LjAnLCAnLXRuJywgJzgnLCAnLW1hJywgJzIwMCcsICctbWV0YWxfYmluZGluZycsICctaW1hZScsICc8aW5maWxlLm1hZT4nLCAnLW9tYWUnLCAnPG91dGZpbGUubWFlPic=

> <r_epik_Ionization_Penalty>
0.0634742

> <r_epik_Ionization_Penalty_Charging>
0

> <r_epik_Ionization_Penalty_Neutral>
0.0634742

> <r_epik_State_Penalty>
0.0551572

> <r_epik_Charging_Adjusted_Penalty>
0.0551572

> <i_epik_Tot_Q>
0

> <i_epik_Tot_abs_Q>
0

> <r_epik_Metal_State_Penalty>
5.78034e-05

> <b_epik_Metal_Only>
0

> <s_lp_Force_Field>
OPLS_2005

> <r_lp_Energy>
13.628

> <b_lp_Chiralities_Consistent>
1

> <s_lp_Variant>
AV-unprocessed.smi:849-2

> <Gold.Version>
5.8.1

> <Gold.Id.Protein>
6NUR|6NUR_protein|mol2

> <Gold.PLP.Fitness>
52.1672

> <Gold.PLP.PLP>
-49.0432

> <Gold.PLP.part.hbond>
-2.0000

> <Gold.PLP.part.metal>
0.0000

> <Gold.PLP.part.buried>
-0.8697

> <Gold.PLP.part.nonpolar>
-45.1700

> <Gold.PLP.part.repulsive>
0.2140

> <Gold.PLP.ligand.clash>
0.0000

> <Gold.PLP.ligand.torsion>
1.4353

> <Gold.PLP.Chemscore.Hbond>
1.9913

> <Gold.PLP.Chemscore.CHOScore>
0.0000

> <Gold.PLP.Chemscore.Metal>
0.0000

> <Gold.Chemscore.Hbonds>
donor molecule, donor type, donor heavy atom, donor atom, acceptor molecule, acceptor atom, score
      P1  H  7997  8009       L1    14  0.81
      P1  H 10752 10765       L1     1  1.00

> <Gold.PLP.Chemscore.Internal.Correction>
0.0209

> <Gold.Rescore>
     Score         DG    S(hbond)    S(metal)    S(lipo)     H(rot)  DE(clash)    DE(int)     intcor
     16.58     -19.93       1.65        0.00     133.81       2.62       0.46       2.89       ----

> <Gold.Chemscore.Fitness>
16.5779

> <Gold.Chemscore.DG>
-19.9283

> <Gold.Chemscore.ZeroCoef>
-5.4800

> <Gold.Chemscore.Hbond>
1.6492

> <Gold.Chemscore.Metal>
0.0000

> <Gold.Chemscore.Lipo>
133.8058

> <Gold.Chemscore.Internal_Hbond>
0.0000

> <Gold.Chemscore.DEClash>
0.4648

> <Gold.Chemscore.DEInternal>
2.8855

> <Gold.Chemscore.Rot>
2.6232

> <Gold.Chemscore.Internal.Correction>
   9.000000E+99

> <Gold.Chemscore.Hbonds>
donor molecule, donor type, donor heavy atom, donor atom, acceptor molecule, acceptor atom, score
      P1  H  7997  8009       L1    14  0.40
      P1  H 10752 10765       L1     1  0.25

> <Gold.Chemscore.Hbond.Weighted>
-5.5084

> <Gold.Chemscore.Metal.Weighted>
-0.0000

> <Gold.Chemscore.Lipo.Weighted>
-15.6553

> <Gold.Chemscore.Internal_Hbond.Weighted>
0.0000

> <Gold.Chemscore.DEClash.Weighted>
0.4648

> <Gold.Chemscore.DEInternal.Weighted>
2.8855

> <Gold.Chemscore.Rot.Weighted>
6.7154

> <Gold.Chemscore.Internal.Correction.Weighted>
   9.000000E+99

> <Gold.Protein.RotatedTorsions>
[ 6907 6896 6895 6894 ] final  -86.17 input  -60.11 | X-H torsion
[ 7974 7965 7964 7962 ] final -108.57 input  175.53 | X-H torsion
[ 8008 7997 7996 7995 ] final  167.92 input   59.86 | X-H torsion
[ 10167 10162 10161 10158 ] final   20.44 input  -65.29 | X-H torsion
[ 10718 10713 10712 10709 ] final -163.16 input   66.30 | X-H torsion
[ 10763 10752 10751 10750 ] final  170.89 input  -60.55 | X-H torsion
[ 11005 11000 10999 10996 ] final  161.54 input  -57.11 | X-H torsion

> <Gold.Protein.ActiveResidues>
 VAL166  LYS551  ARG553  GLY616  TRP617  ASP618  TYR619  PRO620  LYS621  CYS622 
 ASP623  PHE694  ASN695  SER759  ASP760  ASP761  ALA762  ILE779  LEU786  VAL792 
 PHE793  MET794  SER795  GLU796  ALA797  LYS798  CYS799  TRP800  GLU811  SER814 

> <Gold.Protein.RotatedAtoms>
  150.6867  134.3092  159.4738 H   0  0  0  0  0  0  0  0  0  0  0  0  # atno 6907 bound_to 6896
  152.0979  134.9359  160.0579 H   0  0  0  0  0  0  0  0  0  0  0  0  # atno 6908 bound_to 6896
  152.0650  133.4045  159.4471 H   0  0  0  0  0  0  0  0  0  0  0  0  # atno 6909 bound_to 6896
  145.1912  140.9015  143.3423 H   0  0  0  0  0  0  0  0  0  0  0  0  # atno 7974 bound_to 7965
  156.1592  140.1604  156.8641 H   0  0  0  0  0  0  0  0  0  0  0  0  # atno 8008 bound_to 7997
  154.5144  140.0793  156.8089 H   0  0  0  0  0  0  0  0  0  0  0  0  # atno 8009 bound_to 7997
  155.3741  140.3402  155.4246 H   0  0  0  0  0  0  0  0  0  0  0  0  # atno 8010 bound_to 7997
  140.5503  143.9521  150.6574 H   0  0  0  0  0  0  0  0  0  0  0  0  # atno 10167 bound_to 10162
  156.6207  130.8889  151.2957 H   0  0  0  0  0  0  0  0  0  0  0  0  # atno 10718 bound_to 10713
  154.4040  135.2755  155.2079 H   0  0  0  0  0  0  0  0  0  0  0  0  # atno 10763 bound_to 10752
  154.4092  135.6026  153.5946 H   0  0  0  0  0  0  0  0  0  0  0  0  # atno 10764 bound_to 10752
  152.9831  135.5945  154.4312 H   0  0  0  0  0  0  0  0  0  0  0  0  # atno 10765 bound_to 10752
  140.2168  134.8226  157.3179 H   0  0  0  0  0  0  0  0  0  0  0  0  # atno 11005 bound_to 11000
  145.0039  139.3572  143.6153 LP  0  0  0  0  0  0  0  0  0  0  0  0  # atno 17320 bound_to 7965
  146.3436  139.9274  142.8758 LP  0  0  0  0  0  0  0  0  0  0  0  0  # atno 17321 bound_to 7965
  140.2945  143.3302  152.1031 LP  0  0  0  0  0  0  0  0  0  0  0  0  # atno 17342 bound_to 10162
  139.5024  144.6735  151.6186 LP  0  0  0  0  0  0  0  0  0  0  0  0  # atno 17343 bound_to 10162
  157.7228  130.9582  150.1510 LP  0  0  0  0  0  0  0  0  0  0  0  0  # atno 17370 bound_to 10713
  156.2314  130.3682  149.8441 LP  0  0  0  0  0  0  0  0  0  0  0  0  # atno 17371 bound_to 10713
  140.1892  134.4393  155.7726 LP  0  0  0  0  0  0  0  0  0  0  0  0  # atno 17394 bound_to 11000
  141.2224  133.7019  156.7998 LP  0  0  0  0  0  0  0  0  0  0  0  0  # atno 17395 bound_to 11000

$$$$
