AV-unprocessed.smi:2844|AV-procd|sdf|10942|dock1
  -GOLD-   2272015393D 1   1.00000     0.00000
 Structure written by MMmdl.
 39 41  0  0  0  0  0  0  0  0  2 V2000
  153.3464  143.5327  162.6882 C   0  0  0  0  0  0  0  0  0  0  0  0
  152.8211  142.8950  161.4129 C   0  0  0  0  0  0  0  0  0  0  0  0
  151.8969  143.6203  160.6271 C   0  0  0  0  0  0  0  0  0  0  0  0
  151.4318  143.0087  159.4689 C   0  0  0  0  0  0  0  0  0  0  0  0
  150.5279  143.4496  158.4996 N   0  3  0  0  0  0  0  0  0  0  0  0
  150.3852  142.4919  157.5417 C   0  0  0  0  0  0  0  0  0  0  0  0
  151.1850  141.4462  157.8857 N   0  0  0  0  0  0  0  0  0  0  0  0
  151.4054  140.1601  157.2116 C   0  0  0  0  0  0  0  0  0  0  0  0
  151.6643  140.3191  155.7012 C   0  0  1  0  0  0  0  0  0  0  0  0
  152.8394  139.6133  155.3474 O   0  0  0  0  0  0  0  0  0  0  0  0
  150.4774  139.8215  154.8543 C   0  0  0  0  0  0  0  0  0  0  0  0
  149.2819  140.6239  155.0428 N   0  0  0  0  0  0  0  0  0  0  0  0
  148.5917  141.3650  154.1027 C   0  0  0  0  0  0  0  0  0  0  0  0
  147.5514  141.9271  154.7775 C   0  0  0  0  0  0  0  0  0  0  0  0
  146.3392  142.9667  154.1263 Cl  0  0  0  0  0  0  0  0  0  0  0  0
  147.6613  141.4881  156.1214 C   0  0  0  0  0  0  0  0  0  0  0  0
  148.7121  140.6949  156.2733 N   0  0  0  0  0  0  0  0  0  0  0  0
  151.8564  141.7234  159.0810 C   0  0  0  0  0  0  0  0  0  0  0  0
  152.7674  140.9952  159.8422 C   0  0  0  0  0  0  0  0  0  0  0  0
  153.2505  141.5991  161.0253 C   0  0  0  0  0  0  0  0  0  0  0  0
  154.2437  140.8283  161.8782 C   0  0  0  0  0  0  0  0  0  0  0  0
  152.9351  144.5321  162.8333 H   0  0  0  0  0  0  0  0  0  0  0  0
  154.4324  143.6222  162.6536 H   0  0  0  0  0  0  0  0  0  0  0  0
  153.0752  142.9315  163.5563 H   0  0  0  0  0  0  0  0  0  0  0  0
  151.5653  144.6070  160.9158 H   0  0  0  0  0  0  0  0  0  0  0  0
  149.7487  142.5496  156.6706 H   0  0  0  0  0  0  0  0  0  0  0  0
  152.2546  139.6752  157.6954 H   0  0  0  0  0  0  0  0  0  0  0  0
  150.5391  139.5234  157.3955 H   0  0  0  0  0  0  0  0  0  0  0  0
  151.8365  141.3731  155.4799 H   0  0  0  0  0  0  0  0  0  0  0  0
  152.7999  139.4054  154.4263 H   0  0  0  0  0  0  0  0  0  0  0  0
  150.7361  139.8257  153.7945 H   0  0  0  0  0  0  0  0  0  0  0  0
  150.2381  138.7888  155.1119 H   0  0  0  0  0  0  0  0  0  0  0  0
  148.8940  141.4270  153.0678 H   0  0  0  0  0  0  0  0  0  0  0  0
  147.0306  141.7111  156.9693 H   0  0  0  0  0  0  0  0  0  0  0  0
  153.0922  140.0082  159.5475 H   0  0  0  0  0  0  0  0  0  0  0  0
  154.4726  139.8549  161.4436 H   0  0  0  0  0  0  0  0  0  0  0  0
  153.8411  140.6603  162.8774 H   0  0  0  0  0  0  0  0  0  0  0  0
  155.1795  141.3803  161.9690 H   0  0  0  0  0  0  0  0  0  0  0  0
  150.0406  144.3365  158.4915 H   0  0  0  0  0  0  0  0  0  0  0  0
  1  2  1  0  0  0  0
  1 22  1  0  0  0  0
  1 23  1  0  0  0  0
  1 24  1  0  0  0  0
  2 20  1  0  0  0  0
  2  3  2  0  0  0  0
  3  4  1  0  0  0  0
  3 25  1  0  0  0  0
  4 18  2  0  0  0  0
  4  5  1  0  0  0  0
  5  6  2  0  0  0  0
  5 39  1  0  0  0  0
  6  7  1  0  0  0  0
  6 26  1  0  0  0  0
  7  8  1  0  0  0  0
  7 18  1  0  0  0  0
  8  9  1  0  0  0  0
  8 27  1  0  0  0  0
  8 28  1  0  0  0  0
  9 10  1  0  0  0  0
  9 11  1  0  0  0  0
  9 29  1  0  0  0  0
 10 30  1  0  0  0  0
 11 12  1  0  0  0  0
 11 31  1  0  0  0  0
 11 32  1  0  0  0  0
 12 17  1  0  0  0  0
 12 13  1  0  0  0  0
 13 14  2  0  0  0  0
 13 33  1  0  0  0  0
 14 15  1  0  0  0  0
 14 16  1  0  0  0  0
 16 17  2  0  0  0  0
 16 34  1  0  0  0  0
 18 19  1  0  0  0  0
 19 20  2  0  0  0  0
 19 35  1  0  0  0  0
 20 21  1  0  0  0  0
 21 36  1  0  0  0  0
 21 37  1  0  0  0  0
 21 38  1  0  0  0  0
M  CHG  1   5   1
M  END
> <s_m_source_file>
AV-unprocessed.smi

> <i_m_source_file_index>
2844

> <i_lp_mmshare_version>
43012

> <i_f3d_flags>
0

> <s_epik_input>
W0NIM11jKFtjSF0xKWMoW0NIM10pW2NIXWMoYzEyKW4oW2NIXW4yKVtDSDJdW0NASF0oW09IXSlbQ0gyXW4zW2NIXWMoQ2wpW2NIXW4z

> <s_epik_cmdline>
J2VwaWtfcHl0aG9uJywgJy1waCcsICc3LjAnLCAnLXRuJywgJzgnLCAnLW1hJywgJzIwMCcsICctbWV0YWxfYmluZGluZycsICctaW1hZScsICc8aW5maWxlLm1hZT4nLCAnLW9tYWUnLCAnPG91dGZpbGUubWFlPic=

> <r_lp_tautomer_probability>
1

> <r_epik_Ionization_Penalty>
1.09214

> <r_epik_Ionization_Penalty_Charging>
1.09214

> <r_epik_Ionization_Penalty_Neutral>
2.93683e-06

> <r_epik_State_Penalty>
1.14852

> <r_epik_Charging_Adjusted_Penalty>
2.24066

> <i_epik_Tot_Q>
1

> <i_epik_Tot_abs_Q>
1

> <r_epik_Metal_State_Penalty>
1.23687

> <b_epik_Metal_Only>
0

> <s_lp_Force_Field>
OPLS_2005

> <r_lp_Energy>
15.1146

> <b_lp_Chiralities_Consistent>
1

> <s_lp_Variant>
AV-unprocessed.smi:2844-4

> <Gold.Version>
5.8.1

> <Gold.Id.Protein>
6NUR|6NUR_protein|mol2

> <Gold.PLP.Fitness>
52.9775

> <Gold.PLP.PLP>
-46.0906

> <Gold.PLP.part.hbond>
-1.3505

> <Gold.PLP.part.metal>
0.0000

> <Gold.PLP.part.buried>
-2.2614

> <Gold.PLP.part.nonpolar>
-41.0827

> <Gold.PLP.part.repulsive>
0.0998

> <Gold.PLP.ligand.clash>
0.0000

> <Gold.PLP.ligand.torsion>
0.8670

> <Gold.PLP.Chemscore.Hbond>
1.0000

> <Gold.PLP.Chemscore.CHOScore>
1.8532

> <Gold.PLP.Chemscore.Metal>
0.0000

> <Gold.Chemscore.Hbonds>
donor molecule, donor type, donor heavy atom, donor atom, acceptor molecule, acceptor atom, score
      P1  H  7997  8008       L1    10  1.00
      L1  C     6    26       P1  8028  0.85
      L1  C    13    33       P1  7957  1.00

> <Gold.PLP.Chemscore.Internal.Correction>
0.0614

> <Gold.Rescore>
     Score         DG    S(hbond)    S(metal)    S(lipo)     H(rot)  DE(clash)    DE(int)     intcor
     14.88     -17.75       0.97        0.00     125.61       2.21       1.71       1.16       ----

> <Gold.Chemscore.Fitness>
14.8780

> <Gold.Chemscore.DG>
-17.7496

> <Gold.Chemscore.ZeroCoef>
-5.4800

> <Gold.Chemscore.Hbond>
0.9695

> <Gold.Chemscore.Metal>
0.0000

> <Gold.Chemscore.Lipo>
125.6086

> <Gold.Chemscore.Internal_Hbond>
0.0000

> <Gold.Chemscore.DEClash>
1.7086

> <Gold.Chemscore.DEInternal>
1.1630

> <Gold.Chemscore.Rot>
2.2129

> <Gold.Chemscore.Internal.Correction>
   9.000000E+99

> <Gold.Chemscore.Hbonds>
donor molecule, donor type, donor heavy atom, donor atom, acceptor molecule, acceptor atom, score
      P1  H  7997  8008       L1    10  0.90

> <Gold.Chemscore.Hbond.Weighted>
-3.2383

> <Gold.Chemscore.Metal.Weighted>
-0.0000

> <Gold.Chemscore.Lipo.Weighted>
-14.6962

> <Gold.Chemscore.Internal_Hbond.Weighted>
0.0000

> <Gold.Chemscore.DEClash.Weighted>
1.7086

> <Gold.Chemscore.DEInternal.Weighted>
1.1630

> <Gold.Chemscore.Rot.Weighted>
5.6649

> <Gold.Chemscore.Internal.Correction.Weighted>
   9.000000E+99

> <Gold.Protein.RotatedTorsions>
[ 6907 6896 6895 6894 ] final -136.79 input  -60.11 | X-H torsion
[ 7974 7965 7964 7962 ] final   22.05 input  175.53 | X-H torsion
[ 8008 7997 7996 7995 ] final  -37.87 input   59.86 | X-H torsion
[ 10167 10162 10161 10158 ] final -134.66 input  -65.29 | X-H torsion
[ 10718 10713 10712 10709 ] final   36.86 input   66.30 | X-H torsion
[ 10763 10752 10751 10750 ] final  157.63 input  -60.55 | X-H torsion
[ 11005 11000 10999 10996 ] final  -58.93 input  -57.11 | X-H torsion

> <Gold.Protein.ActiveResidues>
 VAL166  LYS551  ARG553  GLY616  TRP617  ASP618  TYR619  PRO620  LYS621  CYS622 
 ASP623  PHE694  ASN695  SER759  ASP760  ASP761  ALA762  ILE779  LEU786  VAL792 
 PHE793  MET794  SER795  GLU796  ALA797  LYS798  CYS799  TRP800  GLU811  SER814 

> <Gold.Protein.RotatedAtoms>
  151.0144  133.5935  159.2678 H   0  0  0  0  0  0  0  0  0  0  0  0  # atno 6907 bound_to 6896
  151.3075  135.0784  159.9270 H   0  0  0  0  0  0  0  0  0  0  0  0  # atno 6908 bound_to 6896
  152.5307  133.9814  159.7862 H   0  0  0  0  0  0  0  0  0  0  0  0  # atno 6909 bound_to 6896
  146.2045  139.7940  142.8736 H   0  0  0  0  0  0  0  0  0  0  0  0  # atno 7974 bound_to 7965
  154.4046  140.1593  156.2607 H   0  0  0  0  0  0  0  0  0  0  0  0  # atno 8008 bound_to 7997
  155.9039  140.3431  155.6025 H   0  0  0  0  0  0  0  0  0  0  0  0  # atno 8009 bound_to 7997
  155.7415  140.0793  157.2234 H   0  0  0  0  0  0  0  0  0  0  0  0  # atno 8010 bound_to 7997
  139.8857  143.6783  152.2620 H   0  0  0  0  0  0  0  0  0  0  0  0  # atno 10167 bound_to 10162
  157.3400  130.7542  149.6905 H   0  0  0  0  0  0  0  0  0  0  0  0  # atno 10718 bound_to 10713
  154.2033  135.2789  155.2983 H   0  0  0  0  0  0  0  0  0  0  0  0  # atno 10763 bound_to 10752
  154.5836  135.5581  153.7213 H   0  0  0  0  0  0  0  0  0  0  0  0  # atno 10764 bound_to 10752
  153.0082  135.6351  154.2172 H   0  0  0  0  0  0  0  0  0  0  0  0  # atno 10765 bound_to 10752
  141.1227  133.6614  156.4994 H   0  0  0  0  0  0  0  0  0  0  0  0  # atno 11005 bound_to 11000
  145.3367  141.0278  143.3416 LP  0  0  0  0  0  0  0  0  0  0  0  0  # atno 17320 bound_to 7965
  144.8761  139.4970  143.6745 LP  0  0  0  0  0  0  0  0  0  0  0  0  # atno 17321 bound_to 7965
  139.7155  144.7612  151.1041 LP  0  0  0  0  0  0  0  0  0  0  0  0  # atno 17342 bound_to 10162
  140.7736  143.5275  150.9462 LP  0  0  0  0  0  0  0  0  0  0  0  0  # atno 17343 bound_to 10162
  155.9706  130.4170  150.4260 LP  0  0  0  0  0  0  0  0  0  0  0  0  # atno 17370 bound_to 10713
  157.2306  131.0503  151.2494 LP  0  0  0  0  0  0  0  0  0  0  0  0  # atno 17371 bound_to 10713
  140.4458  134.6974  157.5015 LP  0  0  0  0  0  0  0  0  0  0  0  0  # atno 17394 bound_to 11000
  140.0199  134.6563  155.9255 LP  0  0  0  0  0  0  0  0  0  0  0  0  # atno 17395 bound_to 11000

$$$$
