AV-unprocessed.smi:287|AV-procd|sdf|2207|dock2
  -GOLD-   2262022 33D 1   1.00000     0.00000
 Structure written by MMmdl.
 55 58  0  0  0  0  0  0  0  0  1 V2000
  136.4390  135.9576  158.8172 C   0  0  0  0  0  0  0  0  0  0  0  0
  136.8014  136.6198  157.5324 C   0  0  0  0  0  0  0  0  0  0  0  0
  137.9800  137.0314  156.9821 C   0  0  0  0  0  0  0  0  0  0  0  0
  137.6781  137.6173  155.7161 C   0  0  0  0  0  0  0  0  0  0  0  0
  138.6794  138.2161  154.7376 C   0  0  1  0  0  0  0  0  0  0  0  0
  138.6196  137.4525  153.4047 C   0  0  0  0  0  0  0  0  0  0  0  0
  138.3897  139.5631  154.4164 O   0  0  0  0  0  0  0  0  0  0  0  0
  140.1241  138.2101  155.2881 C   0  0  0  0  0  0  0  0  0  0  0  0
  140.6359  136.8649  155.5203 N   0  0  0  0  0  0  0  0  0  0  0  0
  141.3089  136.2107  154.5511 C   0  0  0  0  0  0  0  0  0  0  0  0
  140.7397  135.0605  154.1190 N   0  0  0  0  0  0  0  0  0  0  0  0
  141.3202  134.3473  153.1509 C   0  0  0  0  0  0  0  0  0  0  0  0
  142.4511  134.6025  152.4916 N   0  0  0  0  0  0  0  0  0  0  0  0
  143.0384  135.7550  152.9263 C   0  0  0  0  0  0  0  0  0  0  0  0
  142.5386  136.6120  153.9493 C   0  0  0  0  0  0  0  0  0  0  0  0
  143.4136  137.6793  154.1215 N   0  0  0  0  0  0  0  0  0  0  0  0
  144.3597  137.4671  153.2482 C   0  0  0  0  0  0  0  0  0  0  0  0
  144.2091  136.3353  152.4809 N   0  0  0  0  0  0  0  0  0  0  0  0
  145.1157  135.8456  151.3982 C   0  0  1  0  0  0  0  0  0  0  0  0
  145.8071  134.7321  151.8759 O   0  0  0  0  0  0  0  0  0  0  0  0
  145.8544  133.7284  150.8678 C   0  0  1  0  0  0  0  0  0  0  0  0
  146.0488  132.3493  151.5172 C   0  0  0  0  0  0  0  0  0  0  0  0
  147.3618  132.2304  152.0215 O   0  0  0  0  0  0  0  0  0  0  0  0
  144.5003  133.8951  150.1757 C   0  0  2  0  0  0  0  0  0  0  0  0
  144.4575  133.3171  148.8837 O   0  0  0  0  0  0  0  0  0  0  0  0
  144.3062  135.4093  150.1664 C   0  0  2  0  0  0  0  0  0  0  0  0
  144.8209  136.0083  148.9911 O   0  0  0  0  0  0  0  0  0  0  0  0
  136.3157  137.4916  155.5886 C   0  0  0  0  0  0  0  0  0  0  0  0
  135.3374  137.8594  154.5222 C   0  0  0  0  0  0  0  0  0  0  0  0
  135.7758  136.8951  156.6881 O   0  0  0  0  0  0  0  0  0  0  0  0
  145.7976  136.6757  151.2070 H   0  0  0  0  0  0  0  0  0  0  0  0
  146.6582  133.9574  150.1648 H   0  0  0  0  0  0  0  0  0  0  0  0
  143.7197  133.4372  150.7835 H   0  0  0  0  0  0  0  0  0  0  0  0
  143.2537  135.6796  150.2652 H   0  0  0  0  0  0  0  0  0  0  0  0
  137.3312  135.7078  159.3915 H   0  0  0  0  0  0  0  0  0  0  0  0
  135.8848  135.0367  158.6353 H   0  0  0  0  0  0  0  0  0  0  0  0
  135.8174  136.6131  159.4273 H   0  0  0  0  0  0  0  0  0  0  0  0
  138.9526  136.9318  157.4410 H   0  0  0  0  0  0  0  0  0  0  0  0
  138.8643  136.3987  153.5432 H   0  0  0  0  0  0  0  0  0  0  0  0
  139.3238  137.8587  152.6774 H   0  0  0  0  0  0  0  0  0  0  0  0
  137.6232  137.5018  152.9635 H   0  0  0  0  0  0  0  0  0  0  0  0
  137.4536  139.6549  154.3247 H   0  0  0  0  0  0  0  0  0  0  0  0
  140.7703  138.6871  154.5502 H   0  0  0  0  0  0  0  0  0  0  0  0
  140.1960  138.8021  156.2014 H   0  0  0  0  0  0  0  0  0  0  0  0
  140.2804  136.4057  156.3467 H   0  0  0  0  0  0  0  0  0  0  0  0
  140.8031  133.4448  152.8607 H   0  0  0  0  0  0  0  0  0  0  0  0
  145.1967  138.1406  153.1341 H   0  0  0  0  0  0  0  0  0  0  0  0
  145.3188  132.1769  152.3090 H   0  0  0  0  0  0  0  0  0  0  0  0
  145.9132  131.5620  150.7754 H   0  0  0  0  0  0  0  0  0  0  0  0
  147.8578  131.6735  151.4410 H   0  0  0  0  0  0  0  0  0  0  0  0
  145.0822  133.7648  148.3341 H   0  0  0  0  0  0  0  0  0  0  0  0
  144.7619  136.9469  149.0878 H   0  0  0  0  0  0  0  0  0  0  0  0
  135.6661  137.4876  153.5517 H   0  0  0  0  0  0  0  0  0  0  0  0
  135.2316  138.9420  154.4528 H   0  0  0  0  0  0  0  0  0  0  0  0
  134.3531  137.4374  154.7263 H   0  0  0  0  0  0  0  0  0  0  0  0
  1  2  1  0  0  0  0
  1 35  1  0  0  0  0
  1 36  1  0  0  0  0
  1 37  1  0  0  0  0
  2 30  1  0  0  0  0
  2  3  2  0  0  0  0
  3  4  1  0  0  0  0
  3 38  1  0  0  0  0
  4  5  1  0  0  0  0
  4 28  2  0  0  0  0
  5  6  1  0  0  0  0
  5  7  1  0  0  0  0
  5  8  1  0  0  0  0
  6 39  1  0  0  0  0
  6 40  1  0  0  0  0
  6 41  1  0  0  0  0
  7 42  1  0  0  0  0
  8  9  1  0  0  0  0
  8 43  1  0  0  0  0
  8 44  1  0  0  0  0
  9 10  1  0  0  0  0
  9 45  1  0  0  0  0
 10 15  1  0  0  0  0
 10 11  2  0  0  0  0
 11 12  1  0  0  0  0
 12 13  2  0  0  0  0
 12 46  1  0  0  0  0
 13 14  1  0  0  0  0
 14 18  1  0  0  0  0
 14 15  2  0  0  0  0
 15 16  1  0  0  0  0
 16 17  2  0  0  0  0
 17 18  1  0  0  0  0
 17 47  1  0  0  0  0
 18 19  1  0  0  0  0
 19 31  1  0  0  0  0
 19 26  1  0  0  0  0
 19 20  1  0  0  0  0
 20 21  1  0  0  0  0
 21 32  1  0  0  0  0
 21 22  1  0  0  0  0
 21 24  1  0  0  0  0
 22 23  1  0  0  0  0
 22 48  1  0  0  0  0
 22 49  1  0  0  0  0
 23 50  1  0  0  0  0
 24 33  1  0  0  0  0
 24 25  1  0  0  0  0
 24 26  1  0  0  0  0
 25 51  1  0  0  0  0
 26 34  1  0  0  0  0
 26 27  1  0  0  0  0
 27 52  1  0  0  0  0
 28 29  1  0  0  0  0
 28 30  1  0  0  0  0
 29 53  1  0  0  0  0
 29 54  1  0  0  0  0
 29 55  1  0  0  0  0
M  END
> <s_m_source_file>
AV-unprocessed.smi

> <i_m_source_file_index>
287

> <i_lp_mmshare_version>
43012

> <i_f3d_flags>
0

> <s_epik_input>
W0NIM11jMVtjSF1jKGMobzEpW0NIM10pW0NAQF0oW0NIM10pKFtPSF0pW0NIMl1bTkhdYyhuW2NIXW4yKWMoYzIzKW5bY0hdbjNbQ0BASF00T1tDQEhdKFtDSDJdW09IXSlbQ0BASF0oW09IXSlbQ0BIXTRbT0hd

> <s_epik_cmdline>
J2VwaWtfcHl0aG9uJywgJy1waCcsICc3LjAnLCAnLXRuJywgJzgnLCAnLW1hJywgJzIwMCcsICctbWV0YWxfYmluZGluZycsICctaW1hZScsICc8aW5maWxlLm1hZT4nLCAnLW9tYWUnLCAnPG91dGZpbGUubWFlPic=

> <r_lp_tautomer_probability>
1

> <r_epik_Ionization_Penalty>
0.000992612

> <r_epik_Ionization_Penalty_Charging>
0

> <r_epik_Ionization_Penalty_Neutral>
0.000992612

> <r_epik_State_Penalty>
-0

> <r_epik_Charging_Adjusted_Penalty>
0

> <i_epik_Tot_Q>
0

> <i_epik_Tot_abs_Q>
0

> <r_epik_Metal_State_Penalty>
-0

> <b_epik_Metal_Only>
0

> <s_epik_Chemistry_Notes>
This compound contains an acetal/aminal-like group ( X-CH(R)-Y where X, Y are N, S, or O) that may be acid/base labile, releasing an aldehyde.

> <s_lp_Force_Field>
OPLS_2005

> <r_lp_Energy>
44.3809

> <b_lp_Chiralities_Consistent>
1

> <s_lp_Variant>
AV-unprocessed.smi:287-31

> <Gold.Version>
5.8.1

> <Gold.Id.Protein>
6NUR|6NUR_protein|mol2

> <Gold.PLP.Fitness>
55.1178

> <Gold.PLP.PLP>
-44.6055

> <Gold.PLP.part.hbond>
-5.5460

> <Gold.PLP.part.metal>
0.0000

> <Gold.PLP.part.buried>
-4.6224

> <Gold.PLP.part.nonpolar>
-35.3665

> <Gold.PLP.part.repulsive>
0.7806

> <Gold.PLP.ligand.clash>
0.0000

> <Gold.PLP.ligand.torsion>
1.1790

> <Gold.PLP.Chemscore.Hbond>
4.0000

> <Gold.PLP.Chemscore.CHOScore>
0.2609

> <Gold.PLP.Chemscore.Metal>
0.0000

> <Gold.Chemscore.Hbonds>
donor molecule, donor type, donor heavy atom, donor atom, acceptor molecule, acceptor atom, score
      L1  H    23    50       P1 10747  1.00
      L1  H    25    51       P1  7921  1.00
      L1  H    27    52       P1 10171  1.00
      P1  H 11000 11005       L1    11  1.00
      L1  C    17    47       P1 10175  0.07

> <Gold.PLP.Chemscore.Internal.Correction>
0.0877

> <Gold.Rescore>
     Score         DG    S(hbond)    S(metal)    S(lipo)     H(rot)  DE(clash)    DE(int)     intcor
     10.29     -11.70       3.41        0.00      70.99       5.27       0.21       1.20       ----

> <Gold.Chemscore.Fitness>
10.2919

> <Gold.Chemscore.DG>
-11.6994

> <Gold.Chemscore.ZeroCoef>
-5.4800

> <Gold.Chemscore.Hbond>
3.4126

> <Gold.Chemscore.Metal>
0.0000

> <Gold.Chemscore.Lipo>
70.9863

> <Gold.Chemscore.Internal_Hbond>
0.0000

> <Gold.Chemscore.DEClash>
0.2107

> <Gold.Chemscore.DEInternal>
1.1968

> <Gold.Chemscore.Rot>
5.2672

> <Gold.Chemscore.Internal.Correction>
   9.000000E+99

> <Gold.Chemscore.Hbonds>
donor molecule, donor type, donor heavy atom, donor atom, acceptor molecule, acceptor atom, score
      L1  H    23    50       P1 10747  1.00
      L1  H    25    51       P1  7921  0.88
      L1  H    27    52       P1 10171  0.95
      P1  H 11000 11005       L1    11  0.28

> <Gold.Chemscore.Hbond.Weighted>
-11.3979

> <Gold.Chemscore.Metal.Weighted>
-0.0000

> <Gold.Chemscore.Lipo.Weighted>
-8.3054

> <Gold.Chemscore.Internal_Hbond.Weighted>
0.0000

> <Gold.Chemscore.DEClash.Weighted>
0.2107

> <Gold.Chemscore.DEInternal.Weighted>
1.1968

> <Gold.Chemscore.Rot.Weighted>
13.4839

> <Gold.Chemscore.Internal.Correction.Weighted>
   9.000000E+99

> <Gold.Protein.RotatedTorsions>
[ 6907 6896 6895 6894 ] final  134.20 input  -60.11 | X-H torsion
[ 7974 7965 7964 7962 ] final  179.10 input  175.53 | X-H torsion
[ 8008 7997 7996 7995 ] final  -55.90 input   59.86 | X-H torsion
[ 10167 10162 10161 10158 ] final  153.52 input  -65.29 | X-H torsion
[ 10718 10713 10712 10709 ] final  131.29 input   66.30 | X-H torsion
[ 10763 10752 10751 10750 ] final -131.87 input  -60.55 | X-H torsion
[ 11005 11000 10999 10996 ] final   23.55 input  -57.11 | X-H torsion

> <Gold.Protein.ActiveResidues>
 VAL166  LYS551  ARG553  GLY616  TRP617  ASP618  TYR619  PRO620  LYS621  CYS622 
 ASP623  PHE694  ASN695  SER759  ASP760  ASP761  ALA762  ILE779  LEU786  VAL792 
 PHE793  MET794  SER795  GLU796  ALA797  LYS798  CYS799  TRP800  GLU811  SER814 

> <Gold.Protein.RotatedAtoms>
  152.3139  133.5781  159.5698 H   0  0  0  0  0  0  0  0  0  0  0  0  # atno 6907 bound_to 6896
  150.7336  134.0112  159.3679 H   0  0  0  0  0  0  0  0  0  0  0  0  # atno 6908 bound_to 6896
  151.8002  135.0711  160.0450 H   0  0  0  0  0  0  0  0  0  0  0  0  # atno 6909 bound_to 6896
  144.7149  140.0497  143.6435 H   0  0  0  0  0  0  0  0  0  0  0  0  # atno 7974 bound_to 7965
  154.4211  140.1142  156.5551 H   0  0  0  0  0  0  0  0  0  0  0  0  # atno 8008 bound_to 7997
  155.6370  140.3496  155.4683 H   0  0  0  0  0  0  0  0  0  0  0  0  # atno 8009 bound_to 7997
  155.9902  140.1178  157.0635 H   0  0  0  0  0  0  0  0  0  0  0  0  # atno 8010 bound_to 7997
  139.4827  144.5266  151.7791 H   0  0  0  0  0  0  0  0  0  0  0  0  # atno 10167 bound_to 10162
  157.4981  131.1093  150.9465 H   0  0  0  0  0  0  0  0  0  0  0  0  # atno 10718 bound_to 10713
  154.8748  135.3816  154.4316 H   0  0  0  0  0  0  0  0  0  0  0  0  # atno 10763 bound_to 10752
  153.5010  135.7030  153.5837 H   0  0  0  0  0  0  0  0  0  0  0  0  # atno 10764 bound_to 10752
  153.4169  135.3911  155.2053 H   0  0  0  0  0  0  0  0  0  0  0  0  # atno 10765 bound_to 10752
  140.3684  134.2050  155.7668 H   0  0  0  0  0  0  0  0  0  0  0  0  # atno 11005 bound_to 11000
  145.9954  139.3048  143.0959 LP  0  0  0  0  0  0  0  0  0  0  0  0  # atno 17320 bound_to 7965
  145.8854  140.9337  143.0579 LP  0  0  0  0  0  0  0  0  0  0  0  0  # atno 17321 bound_to 7965
  140.4787  144.1482  150.5929 LP  0  0  0  0  0  0  0  0  0  0  0  0  # atno 17342 bound_to 10162
  140.4302  143.2571  151.9605 LP  0  0  0  0  0  0  0  0  0  0  0  0  # atno 17343 bound_to 10162
  157.0144  130.5649  149.5324 LP  0  0  0  0  0  0  0  0  0  0  0  0  # atno 17370 bound_to 10713
  156.0213  130.5307  150.8282 LP  0  0  0  0  0  0  0  0  0  0  0  0  # atno 17371 bound_to 10713
  141.1962  133.8087  157.0680 LP  0  0  0  0  0  0  0  0  0  0  0  0  # atno 17394 bound_to 11000
  140.0571  134.9774  157.1240 LP  0  0  0  0  0  0  0  0  0  0  0  0  # atno 17395 bound_to 11000

$$$$
