AV-unprocessed.smi:771|AV-procd|sdf|3683|dock7
  -GOLD-   22720 1103D 1   1.00000     0.00000
 Structure written by MMmdl.
 41 42  0  0  0  0  0  0  0  0  3 V2000
  145.8788  138.1650  154.8317 O   0  0  0  0  0  0  0  0  0  0  0  0
  146.6889  137.9150  153.9378 C   0  0  0  0  0  0  0  0  0  0  0  0
  147.4576  139.0405  153.2305 C   0  0  0  0  0  0  0  0  0  0  0  0
  148.5596  139.5943  154.0356 N   0  0  0  0  0  0  0  0  0  0  0  0
  149.7271  138.8132  154.1441 C   0  0  0  0  0  0  0  0  0  0  0  0
  150.7948  139.2171  154.8602 C   0  0  0  0  0  0  0  0  0  0  0  0
  151.9841  138.4005  154.9638 N   0  3  0  0  0  0  0  0  0  0  0  0
  151.9293  137.2323  154.5934 O   0  0  0  0  0  0  0  0  0  0  0  0
  153.0103  138.8972  155.4183 O   0  5  0  0  0  0  0  0  0  0  0  0
  150.7114  140.5014  155.5285 C   0  0  0  0  0  0  0  0  0  0  0  0
  149.5959  141.2512  155.4322 C   0  0  0  0  0  0  0  0  0  0  0  0
  148.4335  140.8074  154.6558 C   0  0  0  0  0  0  0  0  0  0  0  0
  147.4090  141.4845  154.5696 O   0  0  0  0  0  0  0  0  0  0  0  0
  146.9755  136.6682  153.5328 N   0  0  0  0  0  0  0  0  0  0  0  0
  146.3805  135.4443  154.0626 C   0  0  0  0  0  0  0  0  0  0  0  0
  145.7375  134.5735  152.9592 C   0  0  2  0  0  0  0  0  0  0  0  0
  146.7196  133.4922  152.4603 C   0  0  0  0  0  0  0  0  0  0  0  0
  146.0691  132.5684  151.4181 C   0  0  0  0  0  0  0  0  0  0  0  0
  145.5133  133.3702  150.2326 C   0  0  0  0  0  0  0  0  0  0  0  0
  144.5311  134.4551  150.7056 C   0  0  0  0  0  0  0  0  0  0  0  0
  145.1520  135.3808  151.7701 C   0  0  2  0  0  0  0  0  0  0  0  0
  146.1444  136.1874  151.1639 O   0  0  0  0  0  0  0  0  0  0  0  0
  147.8372  138.6510  152.2847 H   0  0  0  0  0  0  0  0  0  0  0  0
  146.7582  139.8309  152.9517 H   0  0  0  0  0  0  0  0  0  0  0  0
  149.6868  137.8718  153.6152 H   0  0  0  0  0  0  0  0  0  0  0  0
  151.5417  140.8709  156.1120 H   0  0  0  0  0  0  0  0  0  0  0  0
  149.5549  142.2039  155.9393 H   0  0  0  0  0  0  0  0  0  0  0  0
  147.6574  136.5573  152.7960 H   0  0  0  0  0  0  0  0  0  0  0  0
  147.1081  134.8663  154.6348 H   0  0  0  0  0  0  0  0  0  0  0  0
  145.6143  135.7455  154.7776 H   0  0  0  0  0  0  0  0  0  0  0  0
  144.9026  134.0464  153.4240 H   0  0  0  0  0  0  0  0  0  0  0  0
  147.6039  133.9634  152.0288 H   0  0  0  0  0  0  0  0  0  0  0  0
  147.0721  132.8936  153.3008 H   0  0  0  0  0  0  0  0  0  0  0  0
  146.7971  131.8384  151.0632 H   0  0  0  0  0  0  0  0  0  0  0  0
  145.2640  131.9998  151.8849 H   0  0  0  0  0  0  0  0  0  0  0  0
  146.3367  133.8308  149.6853 H   0  0  0  0  0  0  0  0  0  0  0  0
  145.0157  132.6999  149.5311 H   0  0  0  0  0  0  0  0  0  0  0  0
  144.1803  135.0395  149.8542 H   0  0  0  0  0  0  0  0  0  0  0  0
  143.6477  133.9726  151.1259 H   0  0  0  0  0  0  0  0  0  0  0  0
  144.3716  136.0513  152.1302 H   0  0  0  0  0  0  0  0  0  0  0  0
  146.9703  136.0199  151.5932 H   0  0  0  0  0  0  0  0  0  0  0  0
  1  2  2  0  0  0  0
  2  3  1  0  0  0  0
  2 14  1  0  0  0  0
  3  4  1  0  0  0  0
  3 23  1  0  0  0  0
  3 24  1  0  0  0  0
  4 12  1  0  0  0  0
  4  5  1  0  0  0  0
  5  6  2  0  0  0  0
  5 25  1  0  0  0  0
  6  7  1  0  0  0  0
  6 10  1  0  0  0  0
  7  8  2  0  0  0  0
  7  9  1  0  0  0  0
 10 11  2  0  0  0  0
 10 26  1  0  0  0  0
 11 12  1  0  0  0  0
 11 27  1  0  0  0  0
 12 13  2  0  0  0  0
 14 15  1  0  0  0  0
 14 28  1  0  0  0  0
 15 16  1  0  0  0  0
 15 29  1  0  0  0  0
 15 30  1  0  0  0  0
 16 21  1  0  0  0  0
 16 17  1  0  0  0  0
 16 31  1  0  0  0  0
 17 18  1  0  0  0  0
 17 32  1  0  0  0  0
 17 33  1  0  0  0  0
 18 19  1  0  0  0  0
 18 34  1  0  0  0  0
 18 35  1  0  0  0  0
 19 20  1  0  0  0  0
 19 36  1  0  0  0  0
 19 37  1  0  0  0  0
 20 21  1  0  0  0  0
 20 38  1  0  0  0  0
 20 39  1  0  0  0  0
 21 22  1  0  0  0  0
 21 40  1  0  0  0  0
 22 41  1  0  0  0  0
M  CHG  1   7   1
M  CHG  1   9  -1
M  END
> <s_m_source_file>
AV-unprocessed.smi

> <i_m_source_file_index>
771

> <i_lp_mmshare_version>
43012

> <i_f3d_flags>
0

> <s_epik_input>
Tz1jMVtjSF1bY0hdYyhbTitdKD1PKVtPLV0pW2NIXW4xW0NIMl1DKD1PKVtOSF1bQ0gyXVtDQEBIXTJbQ0gyXVtDSDJdW0NIMl1bQ0gyXVtDQEhdMltPSF0=

> <s_epik_cmdline>
J2VwaWtfcHl0aG9uJywgJy1waCcsICc3LjAnLCAnLXRuJywgJzgnLCAnLW1hJywgJzIwMCcsICctbWV0YWxfYmluZGluZycsICctaW1hZScsICc8aW5maWxlLm1hZT4nLCAnLW9tYWUnLCAnPG91dGZpbGUubWFlPic=

> <r_lp_tautomer_probability>
1

> <r_epik_Ionization_Penalty>
3.77175e-07

> <r_epik_Ionization_Penalty_Charging>
7.70067e-11

> <r_epik_Ionization_Penalty_Neutral>
3.77098e-07

> <r_epik_State_Penalty>
-0

> <r_epik_Charging_Adjusted_Penalty>
7.70067e-11

> <i_epik_Tot_Q>
0

> <i_epik_Tot_abs_Q>
2

> <r_epik_Metal_State_Penalty>
-0

> <b_epik_Metal_Only>
0

> <s_lp_Force_Field>
OPLS_2005

> <r_lp_Energy>
25.3676

> <b_lp_Chiralities_Consistent>
1

> <s_lp_Variant>
AV-unprocessed.smi:771-3

> <Gold.Version>
5.8.1

> <Gold.Id.Protein>
6NUR|6NUR_protein|mol2

> <Gold.PLP.Fitness>
50.2579

> <Gold.PLP.PLP>
-37.2716

> <Gold.PLP.part.hbond>
-4.0000

> <Gold.PLP.part.metal>
0.0000

> <Gold.PLP.part.buried>
-0.7730

> <Gold.PLP.part.nonpolar>
-31.7199

> <Gold.PLP.part.repulsive>
0.3313

> <Gold.PLP.ligand.clash>
0.0000

> <Gold.PLP.ligand.torsion>
0.9113

> <Gold.PLP.Chemscore.Hbond>
3.9280

> <Gold.PLP.Chemscore.CHOScore>
1.0000

> <Gold.PLP.Chemscore.Metal>
0.0000

> <Gold.Chemscore.Hbonds>
donor molecule, donor type, donor heavy atom, donor atom, acceptor molecule, acceptor atom, score
      L1  H    14    28       P1  7948  1.00
      L1  H    22    41       P1  7948  1.00
      P1  H  7997  8009       L1     9  1.00
      P1  H 10752 10765       L1     8  0.96
      L1  C     5    25       P1  7948  1.00

> <Gold.PLP.Chemscore.Internal.Correction>
0.0250

> <Gold.Rescore>
     Score         DG    S(hbond)    S(metal)    S(lipo)     H(rot)  DE(clash)    DE(int)     intcor
     17.22     -19.89       3.84        0.00      67.86       2.48       0.00       2.68       ----

> <Gold.Chemscore.Fitness>
17.2157

> <Gold.Chemscore.DG>
-19.8924

> <Gold.Chemscore.ZeroCoef>
-5.4800

> <Gold.Chemscore.Hbond>
3.8352

> <Gold.Chemscore.Metal>
0.0000

> <Gold.Chemscore.Lipo>
67.8596

> <Gold.Chemscore.Internal_Hbond>
0.0000

> <Gold.Chemscore.DEClash>
0.0000

> <Gold.Chemscore.DEInternal>
2.6767

> <Gold.Chemscore.Rot>
2.4753

> <Gold.Chemscore.Internal.Correction>
   9.000000E+99

> <Gold.Chemscore.Hbonds>
donor molecule, donor type, donor heavy atom, donor atom, acceptor molecule, acceptor atom, score
      L1  H    14    28       P1  7948  0.99
      L1  H    22    41       P1  7948  0.95
      P1  H  7997  8009       L1     9  0.94
      P1  H 10752 10765       L1     8  0.92

> <Gold.Chemscore.Hbond.Weighted>
-12.8097

> <Gold.Chemscore.Metal.Weighted>
-0.0000

> <Gold.Chemscore.Lipo.Weighted>
-7.9396

> <Gold.Chemscore.Internal_Hbond.Weighted>
0.0000

> <Gold.Chemscore.DEClash.Weighted>
0.0000

> <Gold.Chemscore.DEInternal.Weighted>
2.6767

> <Gold.Chemscore.Rot.Weighted>
6.3369

> <Gold.Chemscore.Internal.Correction.Weighted>
   9.000000E+99

> <Gold.Protein.RotatedTorsions>
[ 6907 6896 6895 6894 ] final   82.00 input  -60.11 | X-H torsion
[ 7974 7965 7964 7962 ] final -144.97 input  175.53 | X-H torsion
[ 8008 7997 7996 7995 ] final -133.95 input   59.86 | X-H torsion
[ 10167 10162 10161 10158 ] final -119.55 input  -65.29 | X-H torsion
[ 10718 10713 10712 10709 ] final  167.04 input   66.30 | X-H torsion
[ 10763 10752 10751 10750 ] final  162.33 input  -60.55 | X-H torsion
[ 11005 11000 10999 10996 ] final   69.68 input  -57.11 | X-H torsion

> <Gold.Protein.ActiveResidues>
 VAL166  LYS551  ARG553  GLY616  TRP617  ASP618  TYR619  PRO620  LYS621  CYS622 
 ASP623  PHE694  ASN695  SER759  ASP760  ASP761  ALA762  ILE779  LEU786  VAL792 
 PHE793  MET794  SER795  GLU796  ALA797  LYS798  CYS799  TRP800  GLU811  SER814 

> <Gold.Protein.RotatedAtoms>
  152.5286  134.3116  159.9115 H   0  0  0  0  0  0  0  0  0  0  0  0  # atno 6907 bound_to 6896
  151.3066  133.4092  159.2651 H   0  0  0  0  0  0  0  0  0  0  0  0  # atno 6908 bound_to 6896
  151.0074  134.9386  159.8045 H   0  0  0  0  0  0  0  0  0  0  0  0  # atno 6909 bound_to 6896
  144.8260  140.5643  143.5547 H   0  0  0  0  0  0  0  0  0  0  0  0  # atno 7974 bound_to 7965
  155.3539  140.0479  157.3046 H   0  0  0  0  0  0  0  0  0  0  0  0  # atno 8008 bound_to 7997
  154.5213  140.2226  155.8936 H   0  0  0  0  0  0  0  0  0  0  0  0  # atno 8009 bound_to 7997
  156.1692  140.3099  155.8949 H   0  0  0  0  0  0  0  0  0  0  0  0  # atno 8010 bound_to 7997
  140.0455  143.5111  152.2109 H   0  0  0  0  0  0  0  0  0  0  0  0  # atno 10167 bound_to 10162
  157.0573  131.0330  151.2659 H   0  0  0  0  0  0  0  0  0  0  0  0  # atno 10718 bound_to 10713
  154.2768  135.2764  155.2714 H   0  0  0  0  0  0  0  0  0  0  0  0  # atno 10763 bound_to 10752
  154.5253  135.5745  153.6718 H   0  0  0  0  0  0  0  0  0  0  0  0  # atno 10764 bound_to 10752
  152.9936  135.6214  154.2925 H   0  0  0  0  0  0  0  0  0  0  0  0  # atno 10765 bound_to 10752
  139.9640  134.7012  156.0585 H   0  0  0  0  0  0  0  0  0  0  0  0  # atno 11005 bound_to 11000
  145.4999  139.1484  143.3663 LP  0  0  0  0  0  0  0  0  0  0  0  0  # atno 17320 bound_to 7965
  146.2565  140.5139  142.8871 LP  0  0  0  0  0  0  0  0  0  0  0  0  # atno 17321 bound_to 7965
  139.5986  144.7575  151.3225 LP  0  0  0  0  0  0  0  0  0  0  0  0  # atno 17342 bound_to 10162
  140.7241  143.7054  150.7811 LP  0  0  0  0  0  0  0  0  0  0  0  0  # atno 17343 bound_to 10162
  157.4983  130.7864  149.7578 LP  0  0  0  0  0  0  0  0  0  0  0  0  # atno 17370 bound_to 10713
  155.9989  130.3891  150.2684 LP  0  0  0  0  0  0  0  0  0  0  0  0  # atno 17371 bound_to 10713
  141.1319  133.6584  156.3487 LP  0  0  0  0  0  0  0  0  0  0  0  0  # atno 17394 bound_to 11000
  140.5437  134.6095  157.5387 LP  0  0  0  0  0  0  0  0  0  0  0  0  # atno 17395 bound_to 11000

$$$$
