AV-unprocessed.smi:101|AV-procd|sdf|913|dock6
  -GOLD-   2262017413D 1   1.00000     0.00000
 Structure written by MMmdl.
 44 46  0  0  0  0  0  0  0  0  1 V2000
  146.6585  143.5526  159.9797 C   0  0  0  0  0  0  0  0  0  0  0  0
  146.3305  143.2073  158.5359 C   0  0  0  0  0  0  0  0  0  0  0  0
  147.0487  142.3021  157.8231 C   0  0  0  0  0  0  0  0  0  0  0  0
  146.7773  141.9660  156.4996 N   0  0  0  0  0  0  0  0  0  0  0  0
  147.5782  140.9226  155.7345 C   0  0  2  0  0  0  0  0  0  0  0  0
  148.7177  140.5897  156.4684 O   0  0  0  0  0  0  0  0  0  0  0  0
  149.8042  141.3949  156.0282 C   0  0  1  0  0  0  0  0  0  0  0  0
  151.1366  140.8711  156.5772 C   0  0  0  0  0  0  0  0  0  0  0  0
  151.3249  141.4539  157.8554 O   0  0  0  0  0  0  0  0  0  0  0  0
  152.3274  141.0481  158.6530 C   0  0  0  0  0  0  0  0  0  0  0  0
  153.0532  140.0841  158.4022 O   0  0  0  0  0  0  0  0  0  0  0  0
  152.4640  141.8922  159.8752 C   0  0  0  0  0  0  0  0  0  0  0  0
  153.2094  141.4073  160.9748 C   0  0  0  0  0  0  0  0  0  0  0  0
  153.3527  142.1828  162.1419 C   0  0  0  0  0  0  0  0  0  0  0  0
  152.7518  143.4527  162.2236 C   0  0  0  0  0  0  0  0  0  0  0  0
  152.0072  143.9465  161.1367 C   0  0  0  0  0  0  0  0  0  0  0  0
  151.8633  143.1727  159.9689 C   0  0  0  0  0  0  0  0  0  0  0  0
  149.6175  141.3634  154.5117 C   0  0  1  0  0  0  0  0  0  0  0  0
  150.1330  140.1541  153.9776 O   0  0  0  0  0  0  0  0  0  0  0  0
  148.0957  141.4806  154.3845 C   0  0  1  0  0  0  0  0  0  0  0  0
  147.5834  140.7948  153.2573 O   0  0  0  0  0  0  0  0  0  0  0  0
  145.6572  142.5441  155.8657 C   0  0  0  0  0  0  0  0  0  0  0  0
  145.3170  142.2528  154.7197 O   0  0  0  0  0  0  0  0  0  0  0  0
  144.9253  143.4798  156.5936 N   0  0  0  0  0  0  0  0  0  0  0  0
  145.1881  143.8744  157.9071 C   0  0  0  0  0  0  0  0  0  0  0  0
  144.4723  144.7188  158.4428 O   0  0  0  0  0  0  0  0  0  0  0  0
  144.1326  143.9046  156.1349 H   0  0  0  0  0  0  0  0  0  0  0  0
  147.5170  142.9903  160.3480 H   0  0  0  0  0  0  0  0  0  0  0  0
  145.8104  143.3274  160.6271 H   0  0  0  0  0  0  0  0  0  0  0  0
  146.8897  144.6141  160.0747 H   0  0  0  0  0  0  0  0  0  0  0  0
  147.8699  141.8260  158.3370 H   0  0  0  0  0  0  0  0  0  0  0  0
  146.9182  140.0569  155.6527 H   0  0  0  0  0  0  0  0  0  0  0  0
  149.6560  142.4219  156.3685 H   0  0  0  0  0  0  0  0  0  0  0  0
  151.1321  139.7821  156.6408 H   0  0  0  0  0  0  0  0  0  0  0  0
  151.9582  141.1678  155.9239 H   0  0  0  0  0  0  0  0  0  0  0  0
  153.6793  140.4349  160.9354 H   0  0  0  0  0  0  0  0  0  0  0  0
  153.9242  141.8023  162.9755 H   0  0  0  0  0  0  0  0  0  0  0  0
  152.8619  144.0468  163.1187 H   0  0  0  0  0  0  0  0  0  0  0  0
  151.5450  144.9208  161.1978 H   0  0  0  0  0  0  0  0  0  0  0  0
  151.2847  143.5824  159.1538 H   0  0  0  0  0  0  0  0  0  0  0  0
  150.1266  142.1953  154.0239 H   0  0  0  0  0  0  0  0  0  0  0  0
  149.7051  139.9807  153.1533 H   0  0  0  0  0  0  0  0  0  0  0  0
  147.8325  142.5363  154.3024 H   0  0  0  0  0  0  0  0  0  0  0  0
  148.2952  140.6373  152.6556 H   0  0  0  0  0  0  0  0  0  0  0  0
  1  2  1  0  0  0  0
  1 28  1  0  0  0  0
  1 29  1  0  0  0  0
  1 30  1  0  0  0  0
  2 25  1  0  0  0  0
  2  3  2  0  0  0  0
  3  4  1  0  0  0  0
  3 31  1  0  0  0  0
  4  5  1  0  0  0  0
  4 22  1  0  0  0  0
  5 20  1  0  0  0  0
  5  6  1  0  0  0  0
  5 32  1  0  0  0  0
  6  7  1  0  0  0  0
  7  8  1  0  0  0  0
  7 18  1  0  0  0  0
  7 33  1  0  0  0  0
  8  9  1  0  0  0  0
  8 34  1  0  0  0  0
  8 35  1  0  0  0  0
  9 10  1  0  0  0  0
 10 11  2  0  0  0  0
 10 12  1  0  0  0  0
 12 17  1  0  0  0  0
 12 13  2  0  0  0  0
 13 14  1  0  0  0  0
 13 36  1  0  0  0  0
 14 15  2  0  0  0  0
 14 37  1  0  0  0  0
 15 16  1  0  0  0  0
 15 38  1  0  0  0  0
 16 17  2  0  0  0  0
 16 39  1  0  0  0  0
 17 40  1  0  0  0  0
 18 19  1  0  0  0  0
 18 20  1  0  0  0  0
 18 41  1  0  0  0  0
 19 42  1  0  0  0  0
 20 21  1  0  0  0  0
 20 43  1  0  0  0  0
 21 44  1  0  0  0  0
 22 23  2  0  0  0  0
 22 24  1  0  0  0  0
 24 27  1  0  0  0  0
 24 25  1  0  0  0  0
 25 26  2  0  0  0  0
M  END
> <s_m_source_file>
AV-unprocessed.smi

> <i_m_source_file_index>
101

> <i_lp_mmshare_version>
43012

> <i_f3d_flags>
0

> <s_epik_input>
Tz1jMVtuSF1jKD1PKW4oW2NIXWMxW0NIM10pW0NAQEhdMk9bQ0BIXShbQ0BASF0oW09IXSlbQ0BIXTJbT0hdKVtDSDJdT0MoPU8pYzNbY0hdW2NIXVtjSF1bY0hdW2NIXTM=

> <s_epik_cmdline>
J2VwaWtfcHl0aG9uJywgJy1waCcsICc3LjAnLCAnLXRuJywgJzgnLCAnLW1hJywgJzIwMCcsICctbWV0YWxfYmluZGluZycsICctaW1hZScsICc8aW5maWxlLm1hZT4nLCAnLW9tYWUnLCAnPG91dGZpbGUubWFlPic=

> <r_lp_tautomer_probability>
0.999537

> <r_epik_Ionization_Penalty>
0.00263537

> <r_epik_Ionization_Penalty_Charging>
0.00263428

> <r_epik_Ionization_Penalty_Neutral>
1.09111e-06

> <r_epik_State_Penalty>
0.00183335

> <r_epik_Charging_Adjusted_Penalty>
0.00446763

> <i_epik_Tot_Q>
0

> <i_epik_Tot_abs_Q>
0

> <r_epik_Metal_State_Penalty>
1.00528

> <b_epik_Metal_Only>
0

> <s_epik_Chemistry_Notes>
This compound has an ester and may undergo hydrolysis at high or low pH. This compound contains an acetal/aminal-like group ( X-CH(R)-Y where X, Y are N, S, or O) that may be acid/base labile, releasing an aldehyde.

> <s_lp_Force_Field>
OPLS_2005

> <r_lp_Energy>
35.8118

> <b_lp_Chiralities_Consistent>
1

> <s_lp_Variant>
AV-unprocessed.smi:101-1

> <Gold.Version>
5.8.1

> <Gold.Id.Protein>
6NUR|6NUR_protein|mol2

> <Gold.PLP.Fitness>
56.1511

> <Gold.PLP.PLP>
-46.2825

> <Gold.PLP.part.hbond>
-4.0000

> <Gold.PLP.part.metal>
0.0000

> <Gold.PLP.part.buried>
-4.6216

> <Gold.PLP.part.nonpolar>
-36.1065

> <Gold.PLP.part.repulsive>
0.3187

> <Gold.PLP.ligand.clash>
0.0000

> <Gold.PLP.ligand.torsion>
0.5792

> <Gold.PLP.Chemscore.Hbond>
3.6433

> <Gold.PLP.Chemscore.CHOScore>
0.0000

> <Gold.PLP.Chemscore.Metal>
0.0000

> <Gold.Chemscore.Hbonds>
donor molecule, donor type, donor heavy atom, donor atom, acceptor molecule, acceptor atom, score
      L1  H    19    42       P1  7957  1.00
      L1  H    21    44       P1  7957  0.91
      P1  H  7989  7998       L1    19  0.63
      P1  H  7997  8009       L1    11  0.93

> <Gold.PLP.Chemscore.Internal.Correction>
0.0971

> <Gold.Rescore>
     Score         DG    S(hbond)    S(metal)    S(lipo)     H(rot)  DE(clash)    DE(int)     intcor
     15.88     -18.26       2.85        0.00     100.54       3.32       0.86       1.52       ----

> <Gold.Chemscore.Fitness>
15.8775

> <Gold.Chemscore.DG>
-18.2562

> <Gold.Chemscore.ZeroCoef>
-5.4800

> <Gold.Chemscore.Hbond>
2.8459

> <Gold.Chemscore.Metal>
0.0000

> <Gold.Chemscore.Lipo>
100.5380

> <Gold.Chemscore.Internal_Hbond>
0.0000

> <Gold.Chemscore.DEClash>
0.8561

> <Gold.Chemscore.DEInternal>
1.5226

> <Gold.Chemscore.Rot>
3.3172

> <Gold.Chemscore.Internal.Correction>
   9.000000E+99

> <Gold.Chemscore.Hbonds>
donor molecule, donor type, donor heavy atom, donor atom, acceptor molecule, acceptor atom, score
      L1  H    19    42       P1  7957  0.93
      L1  H    21    44       P1  7957  0.87
      P1  H  7989  7998       L1    19  0.02
      P1  H  7997  8009       L1    11  0.85

> <Gold.Chemscore.Hbond.Weighted>
-9.5053

> <Gold.Chemscore.Metal.Weighted>
-0.0000

> <Gold.Chemscore.Lipo.Weighted>
-11.7629

> <Gold.Chemscore.Internal_Hbond.Weighted>
0.0000

> <Gold.Chemscore.DEClash.Weighted>
0.8561

> <Gold.Chemscore.DEInternal.Weighted>
1.5226

> <Gold.Chemscore.Rot.Weighted>
8.4920

> <Gold.Chemscore.Internal.Correction.Weighted>
   9.000000E+99

> <Gold.Protein.RotatedTorsions>
[ 6907 6896 6895 6894 ] final  -32.28 input  -60.11 | X-H torsion
[ 7974 7965 7964 7962 ] final  109.62 input  175.53 | X-H torsion
[ 8008 7997 7996 7995 ] final  157.08 input   59.86 | X-H torsion
[ 10167 10162 10161 10158 ] final   29.96 input  -65.29 | X-H torsion
[ 10718 10713 10712 10709 ] final   27.02 input   66.30 | X-H torsion
[ 10763 10752 10751 10750 ] final   79.40 input  -60.55 | X-H torsion
[ 11005 11000 10999 10996 ] final   12.93 input  -57.11 | X-H torsion

> <Gold.Protein.ActiveResidues>
 VAL166  LYS551  ARG553  GLY616  TRP617  ASP618  TYR619  PRO620  LYS621  CYS622 
 ASP623  PHE694  ASN695  SER759  ASP760  ASP761  ALA762  ILE779  LEU786  VAL792 
 PHE793  MET794  SER795  GLU796  ALA797  LYS798  CYS799  TRP800  GLU811  SER814 

> <Gold.Protein.RotatedAtoms>
  151.0808  134.9857  159.8354 H   0  0  0  0  0  0  0  0  0  0  0  0  # atno 6907 bound_to 6896
  152.5419  134.2183  159.8787 H   0  0  0  0  0  0  0  0  0  0  0  0  # atno 6908 bound_to 6896
  151.2214  133.4457  159.2634 H   0  0  0  0  0  0  0  0  0  0  0  0  # atno 6909 bound_to 6896
  145.2655  139.2686  143.3994 H   0  0  0  0  0  0  0  0  0  0  0  0  # atno 7974 bound_to 7965
  156.2385  140.1895  156.7054 H   0  0  0  0  0  0  0  0  0  0  0  0  # atno 8008 bound_to 7997
  154.6151  140.0616  156.9571 H   0  0  0  0  0  0  0  0  0  0  0  0  # atno 8009 bound_to 7997
  155.1952  140.3287  155.4354 H   0  0  0  0  0  0  0  0  0  0  0  0  # atno 8010 bound_to 7997
  140.4720  144.0748  150.6240 H   0  0  0  0  0  0  0  0  0  0  0  0  # atno 10167 bound_to 10162
  157.2147  130.6950  149.6243 H   0  0  0  0  0  0  0  0  0  0  0  0  # atno 10718 bound_to 10713
  153.0950  135.4841  154.8761 H   0  0  0  0  0  0  0  0  0  0  0  0  # atno 10763 bound_to 10752
  154.7313  135.3061  154.8888 H   0  0  0  0  0  0  0  0  0  0  0  0  # atno 10764 bound_to 10752
  153.9523  135.6822  153.4797 H   0  0  0  0  0  0  0  0  0  0  0  0  # atno 10765 bound_to 10752
  140.4865  134.0883  155.7762 H   0  0  0  0  0  0  0  0  0  0  0  0  # atno 11005 bound_to 11000
  146.3262  140.3083  142.8625 LP  0  0  0  0  0  0  0  0  0  0  0  0  # atno 17320 bound_to 7965
  144.9381  140.8048  143.5648 LP  0  0  0  0  0  0  0  0  0  0  0  0  # atno 17321 bound_to 7965
  140.3965  143.2725  151.9998 LP  0  0  0  0  0  0  0  0  0  0  0  0  # atno 17342 bound_to 10162
  139.4820  144.6033  151.7566 LP  0  0  0  0  0  0  0  0  0  0  0  0  # atno 17343 bound_to 10162
  155.9687  130.4540  150.5832 LP  0  0  0  0  0  0  0  0  0  0  0  0  # atno 17370 bound_to 10713
  157.3637  131.0754  151.1615 LP  0  0  0  0  0  0  0  0  0  0  0  0  # atno 17371 bound_to 10713
  141.1505  133.8977  157.2109 LP  0  0  0  0  0  0  0  0  0  0  0  0  # atno 17394 bound_to 11000
  139.9795  135.0103  156.9714 LP  0  0  0  0  0  0  0  0  0  0  0  0  # atno 17395 bound_to 11000

$$$$
