AV-unprocessed.smi:3330|AV-procd|sdf|12806|dock7
  -GOLD-   2272019173D 1   1.00000     0.00000
 Structure written by MMmdl.
 38 39  0  0  0  0  0  0  0  0  1 V2000
  150.8828  135.5257  155.5519 C   0  0  0  0  0  0  0  0  0  0  0  0
  150.0905  136.8514  155.5619 C   0  0  1  0  0  0  0  0  0  0  0  0
  149.9659  137.3138  156.9401 N   0  0  0  0  0  0  0  0  0  0  0  0
  148.8388  136.6956  157.6248 C   0  0  0  0  0  0  0  0  0  0  0  0
  149.0096  136.8215  159.1491 C   0  0  0  0  0  0  0  0  0  0  0  0
  148.3821  135.7055  159.8665 N   0  0  0  0  0  0  0  0  0  0  0  0
  147.6893  135.8320  161.0064 C   0  0  0  0  0  0  0  0  0  0  0  0
  147.4484  136.8667  161.6277 O   0  0  0  0  0  0  0  0  0  0  0  0
  147.2291  134.4582  161.4429 C   0  0  0  0  0  0  0  0  0  0  0  0
  147.7917  133.6695  160.3681 N   0  0  0  0  0  0  0  0  0  0  0  0
  148.4530  134.4193  159.4767 C   0  0  0  0  0  0  0  0  0  0  0  0
  149.0258  133.9890  158.4767 O   0  0  0  0  0  0  0  0  0  0  0  0
  150.7645  137.9757  154.7301 C   0  0  2  0  0  0  0  0  0  0  0  0
  152.1352  138.3903  155.3007 C   0  0  0  0  0  0  0  0  0  0  0  0
  149.9059  139.1461  154.5899 N   0  0  0  0  0  0  0  0  0  0  0  0
  148.6230  139.2062  154.0849 C   0  0  0  0  0  0  0  0  0  0  0  0
  148.2139  140.5067  154.1600 C   0  0  0  0  0  0  0  0  0  0  0  0
  149.3291  141.1789  154.7328 C   0  0  0  0  0  0  0  0  0  0  0  0
  150.3392  140.3640  154.9892 N   0  0  0  0  0  0  0  0  0  0  0  0
  150.9545  135.1090  154.5475 H   0  0  0  0  0  0  0  0  0  0  0  0
  150.4130  134.7616  156.1700 H   0  0  0  0  0  0  0  0  0  0  0  0
  151.8979  135.6711  155.9231 H   0  0  0  0  0  0  0  0  0  0  0  0
  149.0964  136.6738  155.1486 H   0  0  0  0  0  0  0  0  0  0  0  0
  149.8356  138.3156  156.9449 H   0  0  0  0  0  0  0  0  0  0  0  0
  147.9238  137.2044  157.3196 H   0  0  0  0  0  0  0  0  0  0  0  0
  148.7302  135.6487  157.3432 H   0  0  0  0  0  0  0  0  0  0  0  0
  150.0665  136.9096  159.4077 H   0  0  0  0  0  0  0  0  0  0  0  0
  148.5522  137.7539  159.4839 H   0  0  0  0  0  0  0  0  0  0  0  0
  147.6508  134.1800  162.4092 H   0  0  0  0  0  0  0  0  0  0  0  0
  146.1414  134.3863  161.4690 H   0  0  0  0  0  0  0  0  0  0  0  0
  147.6936  132.6661  160.3117 H   0  0  0  0  0  0  0  0  0  0  0  0
  150.9308  137.5957  153.7204 H   0  0  0  0  0  0  0  0  0  0  0  0
  152.8393  137.5583  155.2960 H   0  0  0  0  0  0  0  0  0  0  0  0
  152.0511  138.7447  156.3285 H   0  0  0  0  0  0  0  0  0  0  0  0
  152.5783  139.1914  154.7083 H   0  0  0  0  0  0  0  0  0  0  0  0
  148.1122  138.3270  153.7204 H   0  0  0  0  0  0  0  0  0  0  0  0
  147.2624  140.9152  153.8536 H   0  0  0  0  0  0  0  0  0  0  0  0
  149.4335  142.2275  154.9693 H   0  0  0  0  0  0  0  0  0  0  0  0
  1  2  1  0  0  0  0
  1 20  1  0  0  0  0
  1 21  1  0  0  0  0
  1 22  1  0  0  0  0
  2  3  1  0  0  0  0
  2 13  1  0  0  0  0
  2 23  1  0  0  0  0
  3  4  1  0  0  0  0
  3 24  1  0  0  0  0
  4  5  1  0  0  0  0
  4 25  1  0  0  0  0
  4 26  1  0  0  0  0
  5  6  1  0  0  0  0
  5 27  1  0  0  0  0
  5 28  1  0  0  0  0
  6 11  1  0  0  0  0
  6  7  1  0  0  0  0
  7  8  2  0  0  0  0
  7  9  1  0  0  0  0
  9 10  1  0  0  0  0
  9 29  1  0  0  0  0
  9 30  1  0  0  0  0
 10 11  1  0  0  0  0
 10 31  1  0  0  0  0
 11 12  2  0  0  0  0
 13 14  1  0  0  0  0
 13 15  1  0  0  0  0
 13 32  1  0  0  0  0
 14 33  1  0  0  0  0
 14 34  1  0  0  0  0
 14 35  1  0  0  0  0
 15 19  1  0  0  0  0
 15 16  1  0  0  0  0
 16 17  2  0  0  0  0
 16 36  1  0  0  0  0
 17 18  1  0  0  0  0
 17 37  1  0  0  0  0
 18 19  2  0  0  0  0
 18 38  1  0  0  0  0
M  END
> <s_m_source_file>
AV-unprocessed.smi

> <i_m_source_file_index>
3330

> <i_lp_mmshare_version>
43012

> <i_f3d_flags>
0

> <s_epik_input>
bjFbY0hdW2NIXVtjSF1uMVtDQEBIXShbQ0gzXSlbQ0BIXShbQ0gzXSlbTkhdW0NIMl1bQ0gyXU4yQyg9TylbQ0gyXVtOSF1DMj1P

> <s_epik_cmdline>
J2VwaWtfcHl0aG9uJywgJy1waCcsICc3LjAnLCAnLXRuJywgJzgnLCAnLW1hJywgJzIwMCcsICctbWV0YWxfYmluZGluZycsICctaW1hZScsICc8aW5maWxlLm1hZT4nLCAnLW9tYWUnLCAnPG91dGZpbGUubWFlPic=

> <r_lp_tautomer_probability>
1

> <r_epik_Ionization_Penalty>
2.2997

> <r_epik_Ionization_Penalty_Charging>
0

> <r_epik_Ionization_Penalty_Neutral>
2.2997

> <r_epik_State_Penalty>
2.44917

> <r_epik_Charging_Adjusted_Penalty>
2.44917

> <i_epik_Tot_Q>
0

> <i_epik_Tot_abs_Q>
0

> <r_epik_Metal_State_Penalty>
2.52438

> <b_epik_Metal_Only>
0

> <s_lp_Force_Field>
OPLS_2005

> <r_lp_Energy>
29.8527

> <b_lp_Chiralities_Consistent>
1

> <s_lp_Variant>
AV-unprocessed.smi:3330-6

> <Gold.Version>
5.8.1

> <Gold.Id.Protein>
6NUR|6NUR_protein|mol2

> <Gold.PLP.Fitness>
45.4954

> <Gold.PLP.PLP>
-33.0731

> <Gold.PLP.part.hbond>
-4.0000

> <Gold.PLP.part.metal>
0.0000

> <Gold.PLP.part.buried>
-3.1397

> <Gold.PLP.part.nonpolar>
-25.6617

> <Gold.PLP.part.repulsive>
0.1355

> <Gold.PLP.ligand.clash>
0.0000

> <Gold.PLP.ligand.torsion>
0.8904

> <Gold.PLP.Chemscore.Hbond>
3.6720

> <Gold.PLP.Chemscore.CHOScore>
1.0000

> <Gold.PLP.Chemscore.Metal>
0.0000

> <Gold.Chemscore.Hbonds>
donor molecule, donor type, donor heavy atom, donor atom, acceptor molecule, acceptor atom, score
      P1  H  6896  6909       L1    12  0.65
      P1  H  6931  6943       L1     8  0.78
      P1  H  6934  6947       L1     8  0.34
      P1  H  7989  7998       L1    19  0.99
      L1  C    16    36       P1  7948  0.05
      L1  C    18    38       P1  8028  0.74

> <Gold.PLP.Chemscore.Internal.Correction>
0.1870

> <Gold.Rescore>
     Score         DG    S(hbond)    S(metal)    S(lipo)     H(rot)  DE(clash)    DE(int)     intcor
     11.53     -14.01       2.51        0.00      58.10       2.60       0.11       2.36       ----

> <Gold.Chemscore.Fitness>
11.5318

> <Gold.Chemscore.DG>
-14.0056

> <Gold.Chemscore.ZeroCoef>
-5.4800

> <Gold.Chemscore.Hbond>
2.5065

> <Gold.Chemscore.Metal>
0.0000

> <Gold.Chemscore.Lipo>
58.0987

> <Gold.Chemscore.Internal_Hbond>
0.0000

> <Gold.Chemscore.DEClash>
0.1096

> <Gold.Chemscore.DEInternal>
2.3642

> <Gold.Chemscore.Rot>
2.5952

> <Gold.Chemscore.Internal.Correction>
   9.000000E+99

> <Gold.Chemscore.Hbonds>
donor molecule, donor type, donor heavy atom, donor atom, acceptor molecule, acceptor atom, score
      P1  H  6896  6909       L1    12  0.06
      P1  H  6931  6943       L1     8  0.72
      P1  H  6934  6947       L1     8  0.34
      P1  H  7989  7998       L1    19  0.08

> <Gold.Chemscore.Hbond.Weighted>
-8.3717

> <Gold.Chemscore.Metal.Weighted>
-0.0000

> <Gold.Chemscore.Lipo.Weighted>
-6.7976

> <Gold.Chemscore.Internal_Hbond.Weighted>
0.0000

> <Gold.Chemscore.DEClash.Weighted>
0.1096

> <Gold.Chemscore.DEInternal.Weighted>
2.3642

> <Gold.Chemscore.Rot.Weighted>
6.6437

> <Gold.Chemscore.Internal.Correction.Weighted>
   9.000000E+99

> <Gold.Protein.RotatedTorsions>
[ 6907 6896 6895 6894 ] final   11.93 input  -60.11 | X-H torsion
[ 7974 7965 7964 7962 ] final  -64.48 input  175.53 | X-H torsion
[ 8008 7997 7996 7995 ] final   67.28 input   59.86 | X-H torsion
[ 10167 10162 10161 10158 ] final  -70.95 input  -65.29 | X-H torsion
[ 10718 10713 10712 10709 ] final -120.99 input   66.30 | X-H torsion
[ 10763 10752 10751 10750 ] final   44.31 input  -60.55 | X-H torsion
[ 11005 11000 10999 10996 ] final   49.25 input  -57.11 | X-H torsion

> <Gold.Protein.ActiveResidues>
 VAL166  LYS551  ARG553  GLY616  TRP617  ASP618  TYR619  PRO620  LYS621  CYS622 
 ASP623  PHE694  ASN695  SER759  ASP760  ASP761  ALA762  ILE779  LEU786  VAL792 
 PHE793  MET794  SER795  GLU796  ALA797  LYS798  CYS799  TRP800  GLU811  SER814 

> <Gold.Protein.RotatedAtoms>
  151.7622  135.0807  160.0347 H   0  0  0  0  0  0  0  0  0  0  0  0  # atno 6907 bound_to 6896
  152.3345  133.5991  159.5841 H   0  0  0  0  0  0  0  0  0  0  0  0  # atno 6908 bound_to 6896
  150.7442  133.9733  159.3594 H   0  0  0  0  0  0  0  0  0  0  0  0  # atno 6909 bound_to 6896
  145.7662  140.8836  143.0404 H   0  0  0  0  0  0  0  0  0  0  0  0  # atno 7974 bound_to 7965
  155.6904  140.3496  155.4891 H   0  0  0  0  0  0  0  0  0  0  0  0  # atno 8008 bound_to 7997
  155.9529  140.1122  157.0984 H   0  0  0  0  0  0  0  0  0  0  0  0  # atno 8009 bound_to 7997
  154.4126  140.1190  156.5063 H   0  0  0  0  0  0  0  0  0  0  0  0  # atno 8010 bound_to 7997
  140.5312  143.2321  151.7259 H   0  0  0  0  0  0  0  0  0  0  0  0  # atno 10167 bound_to 10162
  156.1301  130.6389  150.9607 H   0  0  0  0  0  0  0  0  0  0  0  0  # atno 10718 bound_to 10713
  152.9843  135.6074  154.3253 H   0  0  0  0  0  0  0  0  0  0  0  0  # atno 10763 bound_to 10752
  154.2960  135.2774  155.2635 H   0  0  0  0  0  0  0  0  0  0  0  0  # atno 10764 bound_to 10752
  154.4909  135.5892  153.6515 H   0  0  0  0  0  0  0  0  0  0  0  0  # atno 10765 bound_to 10752
  140.1120  134.4942  155.8670 H   0  0  0  0  0  0  0  0  0  0  0  0  # atno 11005 bound_to 11000
  144.6821  139.9792  143.7483 LP  0  0  0  0  0  0  0  0  0  0  0  0  # atno 17320 bound_to 7965
  146.0215  139.3255  143.0810 LP  0  0  0  0  0  0  0  0  0  0  0  0  # atno 17321 bound_to 7965
  139.4955  144.4112  152.0079 LP  0  0  0  0  0  0  0  0  0  0  0  0  # atno 17342 bound_to 10162
  140.3214  144.3423  150.6009 LP  0  0  0  0  0  0  0  0  0  0  0  0  # atno 17343 bound_to 10162
  157.6480  131.0901  150.8112 LP  0  0  0  0  0  0  0  0  0  0  0  0  # atno 17370 bound_to 10713
  156.8198  130.4980  149.5344 LP  0  0  0  0  0  0  0  0  0  0  0  0  # atno 17371 bound_to 10713
  141.2132  133.6730  156.6723 LP  0  0  0  0  0  0  0  0  0  0  0  0  # atno 17394 bound_to 11000
  140.3079  134.8110  157.4152 LP  0  0  0  0  0  0  0  0  0  0  0  0  # atno 17395 bound_to 11000

$$$$
