AV-unprocessed.smi:438|AV-procd|sdf|2571|dock4
  -GOLD-   2262022553D 1   1.00000     0.00000
 Structure written by MMmdl.
 47 48  0  0  0  0  0  0  0  0  2 V2000
  147.6684  136.6093  154.5295 C   0  0  0  0  0  0  0  0  0  0  0  0
  149.0428  136.2419  155.0597 C   0  0  0  0  0  0  0  0  0  0  0  0
  149.9309  137.3134  155.2540 N   0  0  0  0  0  0  0  0  0  0  0  0
  151.1063  137.0859  155.6993 C   0  0  0  0  0  0  0  0  0  0  0  0
  152.1879  138.5086  155.9365 S   0  0  0  0  0  0  0  0  0  0  0  0
  151.2393  139.9124  155.2767 C   0  0  0  0  0  0  0  0  0  0  0  0
  150.7720  140.8582  156.3790 C   0  0  0  0  0  0  0  0  0  0  0  0
  149.5729  141.1011  156.5127 O   0  0  0  0  0  0  0  0  0  0  0  0
  151.7354  141.3867  157.1537 N   0  0  0  0  0  0  0  0  0  0  0  0
  151.5763  142.3531  158.2438 C   0  0  2  0  0  0  0  0  0  0  0  0
  151.3990  143.7937  157.7153 C   0  0  0  0  0  0  0  0  0  0  0  0
  151.1421  144.7793  158.8646 C   0  0  0  0  0  0  0  0  0  0  0  0
  152.2637  144.7068  159.9111 C   0  0  0  0  0  0  0  0  0  0  0  0
  152.4337  143.2762  160.4469 C   0  0  0  0  0  0  0  0  0  0  0  0
  152.6997  142.2648  159.3129 C   0  0  1  0  0  0  0  0  0  0  0  0
  152.8672  140.8451  159.8835 C   0  0  0  0  0  0  0  0  0  0  0  0
  151.5809  135.8289  156.0032 N   0  5  0  0  0  0  0  0  0  0  0  0
  150.7801  134.7372  155.8424 C   0  0  0  0  0  0  0  0  0  0  0  0
  151.1672  133.5981  156.1008 O   0  0  0  0  0  0  0  0  0  0  0  0
  149.4149  134.9593  155.3347 C   0  0  0  0  0  0  0  0  0  0  0  0
  148.4884  133.7580  155.1617 C   0  0  0  0  0  0  0  0  0  0  0  0
  148.7554  133.0052  153.8507 C   0  0  0  0  0  0  0  0  0  0  0  0
  148.3112  133.7761  152.7551 O   0  0  0  0  0  0  0  0  0  0  0  0
  147.4202  136.0094  153.6538 H   0  0  0  0  0  0  0  0  0  0  0  0
  147.6255  137.6591  154.2371 H   0  0  0  0  0  0  0  0  0  0  0  0
  146.9099  136.4413  155.2941 H   0  0  0  0  0  0  0  0  0  0  0  0
  150.3703  139.5416  154.7317 H   0  0  0  0  0  0  0  0  0  0  0  0
  151.8584  140.4620  154.5662 H   0  0  0  0  0  0  0  0  0  0  0  0
  152.6842  141.1090  156.9477 H   0  0  0  0  0  0  0  0  0  0  0  0
  150.6414  142.0730  158.7311 H   0  0  0  0  0  0  0  0  0  0  0  0
  152.2868  144.1131  157.1690 H   0  0  0  0  0  0  0  0  0  0  0  0
  150.5701  143.8334  157.0078 H   0  0  0  0  0  0  0  0  0  0  0  0
  151.0631  145.7940  158.4736 H   0  0  0  0  0  0  0  0  0  0  0  0
  150.1849  144.5534  159.3361 H   0  0  0  0  0  0  0  0  0  0  0  0
  153.2009  145.0452  159.4675 H   0  0  0  0  0  0  0  0  0  0  0  0
  152.0475  145.3882  160.7345 H   0  0  0  0  0  0  0  0  0  0  0  0
  153.2533  143.2545  161.1659 H   0  0  0  0  0  0  0  0  0  0  0  0
  151.5364  142.9871  160.9959 H   0  0  0  0  0  0  0  0  0  0  0  0
  153.6461  142.5434  158.8481 H   0  0  0  0  0  0  0  0  0  0  0  0
  151.9432  140.4911  160.3416 H   0  0  0  0  0  0  0  0  0  0  0  0
  153.6467  140.8196  160.6453 H   0  0  0  0  0  0  0  0  0  0  0  0
  153.1510  140.1305  159.1108 H   0  0  0  0  0  0  0  0  0  0  0  0
  147.4483  134.0816  155.1906 H   0  0  0  0  0  0  0  0  0  0  0  0
  148.6001  133.0847  156.0128 H   0  0  0  0  0  0  0  0  0  0  0  0
  149.8201  132.8029  153.7332 H   0  0  0  0  0  0  0  0  0  0  0  0
  148.2374  132.0458  153.8416 H   0  0  0  0  0  0  0  0  0  0  0  0
  148.6864  134.6402  152.8260 H   0  0  0  0  0  0  0  0  0  0  0  0
  1 24  1  0  0  0  0
  1 25  1  0  0  0  0
  1 26  1  0  0  0  0
  1  2  1  0  0  0  0
  2 20  2  0  0  0  0
  2  3  1  0  0  0  0
  3  4  2  0  0  0  0
  4  5  1  0  0  0  0
  4 17  1  0  0  0  0
  5  6  1  0  0  0  0
  6  7  1  0  0  0  0
  6 27  1  0  0  0  0
  6 28  1  0  0  0  0
  7  8  2  0  0  0  0
  7  9  1  0  0  0  0
  9 10  1  0  0  0  0
  9 29  1  0  0  0  0
 10 15  1  0  0  0  0
 10 11  1  0  0  0  0
 10 30  1  0  0  0  0
 11 12  1  0  0  0  0
 11 31  1  0  0  0  0
 11 32  1  0  0  0  0
 12 13  1  0  0  0  0
 12 33  1  0  0  0  0
 12 34  1  0  0  0  0
 13 14  1  0  0  0  0
 13 35  1  0  0  0  0
 13 36  1  0  0  0  0
 14 15  1  0  0  0  0
 14 37  1  0  0  0  0
 14 38  1  0  0  0  0
 15 16  1  0  0  0  0
 15 39  1  0  0  0  0
 16 40  1  0  0  0  0
 16 41  1  0  0  0  0
 16 42  1  0  0  0  0
 17 18  1  0  0  0  0
 18 19  2  0  0  0  0
 18 20  1  0  0  0  0
 20 21  1  0  0  0  0
 21 22  1  0  0  0  0
 21 43  1  0  0  0  0
 21 44  1  0  0  0  0
 22 23  1  0  0  0  0
 22 45  1  0  0  0  0
 22 46  1  0  0  0  0
 23 47  1  0  0  0  0
M  CHG  1  17  -1
M  END
> <s_m_source_file>
AV-unprocessed.smi

> <i_m_source_file_index>
438

> <i_lp_mmshare_version>
43012

> <i_f3d_flags>
0

> <s_epik_input>
W09IXVtDSDJdW0NIMl1jMWMoW09IXSluYyhuYzFbQ0gzXSlTW0NIMl1DKD1PKVtOSF1bQ0BASF0yW0NIMl1bQ0gyXVtDSDJdW0NIMl1bQ0BIXTJbQ0gzXQ==

> <s_epik_cmdline>
J2VwaWtfcHl0aG9uJywgJy1waCcsICc3LjAnLCAnLXRuJywgJzgnLCAnLW1hJywgJzIwMCcsICctbWV0YWxfYmluZGluZycsICctaW1hZScsICc8aW5maWxlLm1hZT4nLCAnLW9tYWUnLCAnPG91dGZpbGUubWFlPic=

> <r_lp_tautomer_probability>
1

> <r_epik_Ionization_Penalty>
3.69231

> <r_epik_Ionization_Penalty_Charging>
0.00434774

> <r_epik_Ionization_Penalty_Neutral>
3.68796

> <r_epik_State_Penalty>
2.13826

> <r_epik_Charging_Adjusted_Penalty>
2.14261

> <i_epik_Tot_Q>
-1

> <i_epik_Tot_abs_Q>
1

> <r_epik_Metal_State_Penalty>
0.260979

> <b_epik_Metal_Only>
0

> <s_lp_Force_Field>
OPLS_2005

> <r_lp_Energy>
19.4347

> <b_lp_Chiralities_Consistent>
1

> <s_lp_Variant>
AV-unprocessed.smi:438-9

> <Gold.Version>
5.8.1

> <Gold.Id.Protein>
6NUR|6NUR_protein|mol2

> <Gold.PLP.Fitness>
45.9042

> <Gold.PLP.PLP>
-39.3769

> <Gold.PLP.part.hbond>
-2.0000

> <Gold.PLP.part.metal>
0.0000

> <Gold.PLP.part.buried>
-1.3892

> <Gold.PLP.part.nonpolar>
-35.5364

> <Gold.PLP.part.repulsive>
0.2870

> <Gold.PLP.ligand.clash>
0.0000

> <Gold.PLP.ligand.torsion>
1.0265

> <Gold.PLP.Chemscore.Hbond>
2.8320

> <Gold.PLP.Chemscore.CHOScore>
0.0000

> <Gold.PLP.Chemscore.Metal>
0.0000

> <Gold.Chemscore.Hbonds>
donor molecule, donor type, donor heavy atom, donor atom, acceptor molecule, acceptor atom, score
      L1  H    23    47       P1  7948  0.67
      P1  H 10752 10765       L1    17  2.00

> <Gold.PLP.Chemscore.Internal.Correction>
0.0842

> <Gold.Rescore>
     Score         DG    S(hbond)    S(metal)    S(lipo)     H(rot)  DE(clash)    DE(int)     intcor
     14.35     -15.41       1.52        0.00     102.62       2.79       0.00       1.06       ----

> <Gold.Chemscore.Fitness>
14.3506

> <Gold.Chemscore.DG>
-15.4145

> <Gold.Chemscore.ZeroCoef>
-5.4800

> <Gold.Chemscore.Hbond>
1.5202

> <Gold.Chemscore.Metal>
0.0000

> <Gold.Chemscore.Lipo>
102.6163

> <Gold.Chemscore.Internal_Hbond>
0.0000

> <Gold.Chemscore.DEClash>
0.0009

> <Gold.Chemscore.DEInternal>
1.0629

> <Gold.Chemscore.Rot>
2.7927

> <Gold.Chemscore.Internal.Correction>
   9.000000E+99

> <Gold.Chemscore.Hbonds>
donor molecule, donor type, donor heavy atom, donor atom, acceptor molecule, acceptor atom, score
      L1  H    23    47       P1  7948  0.10
      P1  H 10752 10765       L1    17  0.33

> <Gold.Chemscore.Hbond.Weighted>
-5.0776

> <Gold.Chemscore.Metal.Weighted>
-0.0000

> <Gold.Chemscore.Lipo.Weighted>
-12.0061

> <Gold.Chemscore.Internal_Hbond.Weighted>
0.0000

> <Gold.Chemscore.DEClash.Weighted>
0.0009

> <Gold.Chemscore.DEInternal.Weighted>
1.0629

> <Gold.Chemscore.Rot.Weighted>
7.1492

> <Gold.Chemscore.Internal.Correction.Weighted>
   9.000000E+99

> <Gold.Protein.RotatedTorsions>
[ 6907 6896 6895 6894 ] final   23.40 input  -60.11 | X-H torsion
[ 7974 7965 7964 7962 ] final   43.52 input  175.53 | X-H torsion
[ 8008 7997 7996 7995 ] final   90.74 input   59.86 | X-H torsion
[ 10167 10162 10161 10158 ] final -132.85 input  -65.29 | X-H torsion
[ 10718 10713 10712 10709 ] final  -11.14 input   66.30 | X-H torsion
[ 10763 10752 10751 10750 ] final -160.50 input  -60.55 | X-H torsion
[ 11005 11000 10999 10996 ] final   86.80 input  -57.11 | X-H torsion

> <Gold.Protein.ActiveResidues>
 VAL166  LYS551  ARG553  GLY616  TRP617  ASP618  TYR619  PRO620  LYS621  CYS622 
 ASP623  PHE694  ASN695  SER759  ASP760  ASP761  ALA762  ILE779  LEU786  VAL792 
 PHE793  MET794  SER795  GLU796  ALA797  LYS798  CYS799  TRP800  GLU811  SER814 

> <Gold.Protein.RotatedAtoms>
  151.9418  135.0210  160.0536 H   0  0  0  0  0  0  0  0  0  0  0  0  # atno 6907 bound_to 6896
  152.2030  133.4850  159.5077 H   0  0  0  0  0  0  0  0  0  0  0  0  # atno 6908 bound_to 6896
  150.6959  134.1483  159.4173 H   0  0  0  0  0  0  0  0  0  0  0  0  # atno 6909 bound_to 6896
  146.0648  139.5177  142.9635 H   0  0  0  0  0  0  0  0  0  0  0  0  # atno 7974 bound_to 7965
  156.0155  140.3346  155.6985 H   0  0  0  0  0  0  0  0  0  0  0  0  # atno 8008 bound_to 7997
  155.6097  140.0664  157.2727 H   0  0  0  0  0  0  0  0  0  0  0  0  # atno 8009 bound_to 7997
  154.4297  140.1796  156.1246 H   0  0  0  0  0  0  0  0  0  0  0  0  # atno 8010 bound_to 7997
  139.9043  143.6570  152.2588 H   0  0  0  0  0  0  0  0  0  0  0  0  # atno 10167 bound_to 10162
  156.6633  130.4988  149.6023 H   0  0  0  0  0  0  0  0  0  0  0  0  # atno 10718 bound_to 10713
  154.7384  135.3063  154.8770 H   0  0  0  0  0  0  0  0  0  0  0  0  # atno 10763 bound_to 10752
  153.9592  135.6755  153.4749 H   0  0  0  0  0  0  0  0  0  0  0  0  # atno 10764 bound_to 10752
  153.0985  135.4923  154.8747 H   0  0  0  0  0  0  0  0  0  0  0  0  # atno 10765 bound_to 10752
  139.8935  134.8380  156.2772 H   0  0  0  0  0  0  0  0  0  0  0  0  # atno 11005 bound_to 11000
  145.6496  141.0266  143.1767 LP  0  0  0  0  0  0  0  0  0  0  0  0  # atno 17320 bound_to 7965
  144.7196  139.8076  143.7386 LP  0  0  0  0  0  0  0  0  0  0  0  0  # atno 17321 bound_to 7965
  139.6998  144.7636  151.1293 LP  0  0  0  0  0  0  0  0  0  0  0  0  # atno 17342 bound_to 10162
  140.7700  143.5474  150.9243 LP  0  0  0  0  0  0  0  0  0  0  0  0  # atno 17343 bound_to 10162
  156.1994  130.6610  151.1150 LP  0  0  0  0  0  0  0  0  0  0  0  0  # atno 17370 bound_to 10713
  157.7102  131.0738  150.6527 LP  0  0  0  0  0  0  0  0  0  0  0  0  # atno 17371 bound_to 10713
  141.0062  133.7122  156.1039 LP  0  0  0  0  0  0  0  0  0  0  0  0  # atno 17394 bound_to 11000
  140.7430  134.4129  157.5552 LP  0  0  0  0  0  0  0  0  0  0  0  0  # atno 17395 bound_to 11000

$$$$
