AV-unprocessed.smi:1094|AV-procd|sdf|4746|dock9
  -GOLD-   22720 3283D 1   1.00000     0.00000
 Structure written by MMmdl.
 45 46  0  0  0  0  0  0  0  0  1 V2000
  151.7907  145.8030  159.9527 C   0  0  0  0  0  0  0  0  0  0  0  0
  151.0725  144.5325  160.4299 C   0  0  0  0  0  0  0  0  0  0  0  0
  151.9714  143.3701  160.4181 N   0  0  0  0  0  0  0  0  0  0  0  0
  152.0096  142.6059  159.2351 C   0  0  0  0  0  0  0  0  0  0  0  0
  152.7935  141.5130  159.1030 C   0  0  0  0  0  0  0  0  0  0  0  0
  152.8858  140.7058  157.9587 N   0  0  0  0  0  0  0  0  0  0  0  0
  152.4911  139.4319  157.7743 C   0  0  0  0  0  0  0  0  0  0  0  0
  151.9753  138.7037  158.6221 O   0  0  0  0  0  0  0  0  0  0  0  0
  152.7267  139.0387  156.5141 N   0  0  0  0  0  0  0  0  0  0  0  0
  152.4190  137.7207  155.9588 C   0  0  0  0  0  0  0  0  0  0  0  0
  150.9267  137.5286  155.5607 C   0  0  0  0  0  0  0  0  0  0  0  0
  150.6481  138.5536  154.4264 C   0  0  0  0  0  0  0  0  0  0  0  0
  150.1690  138.1078  153.2602 N   0  0  0  0  0  0  0  0  0  0  0  0
  150.8837  139.7492  154.5939 O   0  0  0  0  0  0  0  0  0  0  0  0
  150.6287  136.0642  155.1248 C   0  0  0  0  0  0  0  0  0  0  0  0
  149.1247  135.8100  154.8958 C   0  0  0  0  0  0  0  0  0  0  0  0
  148.3966  136.1213  156.0780 O   0  0  0  0  0  0  0  0  0  0  0  0
  148.5204  137.4844  156.4676 C   0  0  0  0  0  0  0  0  0  0  0  0
  149.9961  137.8081  156.7743 C   0  0  0  0  0  0  0  0  0  0  0  0
  153.6102  141.1543  160.2428 C   0  0  0  0  0  0  0  0  0  0  0  0
  153.5741  141.8722  161.3819 C   0  0  0  0  0  0  0  0  0  0  0  0
  152.7121  143.0481  161.5202 C   0  0  0  0  0  0  0  0  0  0  0  0
  152.6601  143.7009  162.5629 O   0  0  0  0  0  0  0  0  0  0  0  0
  151.1172  146.6599  159.9765 H   0  0  0  0  0  0  0  0  0  0  0  0
  152.1520  145.6943  158.9296 H   0  0  0  0  0  0  0  0  0  0  0  0
  152.6459  146.0351  160.5877 H   0  0  0  0  0  0  0  0  0  0  0  0
  150.6790  144.6935  161.4348 H   0  0  0  0  0  0  0  0  0  0  0  0
  150.1922  144.3506  159.8107 H   0  0  0  0  0  0  0  0  0  0  0  0
  151.3545  142.9836  158.4666 H   0  0  0  0  0  0  0  0  0  0  0  0
  153.3057  141.1584  157.1601 H   0  0  0  0  0  0  0  0  0  0  0  0
  153.1527  139.7029  155.8847 H   0  0  0  0  0  0  0  0  0  0  0  0
  153.0545  137.5994  155.0802 H   0  0  0  0  0  0  0  0  0  0  0  0
  152.7297  136.9370  156.6530 H   0  0  0  0  0  0  0  0  0  0  0  0
  149.9809  138.7575  152.5108 H   0  0  0  0  0  0  0  0  0  0  0  0
  149.9965  137.1209  153.1339 H   0  0  0  0  0  0  0  0  0  0  0  0
  151.2005  135.7884  154.2380 H   0  0  0  0  0  0  0  0  0  0  0  0
  150.9545  135.3732  155.9018 H   0  0  0  0  0  0  0  0  0  0  0  0
  148.7376  136.3871  154.0555 H   0  0  0  0  0  0  0  0  0  0  0  0
  148.9596  134.7600  154.6540 H   0  0  0  0  0  0  0  0  0  0  0  0
  148.1170  138.1358  155.6912 H   0  0  0  0  0  0  0  0  0  0  0  0
  147.9128  137.6467  157.3578 H   0  0  0  0  0  0  0  0  0  0  0  0
  150.2974  137.1979  157.6260 H   0  0  0  0  0  0  0  0  0  0  0  0
  150.0874  138.8418  157.1108 H   0  0  0  0  0  0  0  0  0  0  0  0
  154.2619  140.2943  160.1848 H   0  0  0  0  0  0  0  0  0  0  0  0
  154.1960  141.5758  162.2140 H   0  0  0  0  0  0  0  0  0  0  0  0
  1  2  1  0  0  0  0
  1 24  1  0  0  0  0
  1 25  1  0  0  0  0
  1 26  1  0  0  0  0
  2  3  1  0  0  0  0
  2 27  1  0  0  0  0
  2 28  1  0  0  0  0
  3 22  1  0  0  0  0
  3  4  1  0  0  0  0
  4  5  2  0  0  0  0
  4 29  1  0  0  0  0
  5  6  1  0  0  0  0
  5 20  1  0  0  0  0
  6  7  1  0  0  0  0
  6 30  1  0  0  0  0
  7  8  2  0  0  0  0
  7  9  1  0  0  0  0
  9 10  1  0  0  0  0
  9 31  1  0  0  0  0
 10 11  1  0  0  0  0
 10 32  1  0  0  0  0
 10 33  1  0  0  0  0
 11 19  1  0  0  0  0
 11 12  1  0  0  0  0
 11 15  1  0  0  0  0
 12 13  1  0  0  0  0
 12 14  2  0  0  0  0
 13 34  1  0  0  0  0
 13 35  1  0  0  0  0
 15 16  1  0  0  0  0
 15 36  1  0  0  0  0
 15 37  1  0  0  0  0
 16 17  1  0  0  0  0
 16 38  1  0  0  0  0
 16 39  1  0  0  0  0
 17 18  1  0  0  0  0
 18 19  1  0  0  0  0
 18 40  1  0  0  0  0
 18 41  1  0  0  0  0
 19 42  1  0  0  0  0
 19 43  1  0  0  0  0
 20 21  2  0  0  0  0
 20 44  1  0  0  0  0
 21 22  1  0  0  0  0
 21 45  1  0  0  0  0
 22 23  2  0  0  0  0
M  END
> <s_m_source_file>
AV-unprocessed.smi

> <i_m_source_file_index>
1094

> <i_lp_mmshare_version>
43012

> <i_f3d_flags>
0

> <s_epik_input>
W0NIM11bQ0gyXW4xW2NIXWMoW2NIXVtjSF1jMT1PKVtOSF1DKD1PKVtOSF1bQ0gyXUMyKEMoPU8pW05IMl0pW0NIMl1bQ0gyXU9bQ0gyXVtDSDJdMg==

> <s_epik_cmdline>
J2VwaWtfcHl0aG9uJywgJy1waCcsICc3LjAnLCAnLXRuJywgJzgnLCAnLW1hJywgJzIwMCcsICctbWV0YWxfYmluZGluZycsICctaW1hZScsICc8aW5maWxlLm1hZT4nLCAnLW9tYWUnLCAnPG91dGZpbGUubWFlPic=

> <r_lp_tautomer_probability>
1

> <r_epik_Ionization_Penalty>
2.3227e-05

> <r_epik_Ionization_Penalty_Charging>
4.44262e-06

> <r_epik_Ionization_Penalty_Neutral>
1.87844e-05

> <r_epik_State_Penalty>
-0

> <r_epik_Charging_Adjusted_Penalty>
4.44262e-06

> <i_epik_Tot_Q>
0

> <i_epik_Tot_abs_Q>
0

> <r_epik_Metal_State_Penalty>
-0

> <b_epik_Metal_Only>
0

> <s_lp_Force_Field>
OPLS_2005

> <r_lp_Energy>
26.2071

> <b_lp_Chiralities_Consistent>
1

> <s_lp_Variant>
AV-unprocessed.smi:1094-1

> <Gold.Version>
5.8.1

> <Gold.Id.Protein>
6NUR|6NUR_protein|mol2

> <Gold.PLP.Fitness>
44.0153

> <Gold.PLP.PLP>
-38.0546

> <Gold.PLP.part.hbond>
-3.0000

> <Gold.PLP.part.metal>
0.0000

> <Gold.PLP.part.buried>
-2.2227

> <Gold.PLP.part.nonpolar>
-31.7828

> <Gold.PLP.part.repulsive>
1.7977

> <Gold.PLP.ligand.clash>
0.0000

> <Gold.PLP.ligand.torsion>
1.2237

> <Gold.PLP.Chemscore.Hbond>
2.7840

> <Gold.PLP.Chemscore.CHOScore>
0.0000

> <Gold.PLP.Chemscore.Metal>
0.0000

> <Gold.Chemscore.Hbonds>
donor molecule, donor type, donor heavy atom, donor atom, acceptor molecule, acceptor atom, score
      L1  H    13    34       P1  7957  1.00
      L1  H    13    35       P1  7948  0.52
      P1  H  7989  7998       L1    14  1.00

> <Gold.PLP.Chemscore.Internal.Correction>
0.0561

> <Gold.Rescore>
     Score         DG    S(hbond)    S(metal)    S(lipo)     H(rot)  DE(clash)    DE(int)     intcor
     13.36     -18.51       2.74        0.00      79.28       2.11       0.31       4.84       ----

> <Gold.Chemscore.Fitness>
13.3561

> <Gold.Chemscore.DG>
-18.5059

> <Gold.Chemscore.ZeroCoef>
-5.4800

> <Gold.Chemscore.Hbond>
2.7433

> <Gold.Chemscore.Metal>
0.0000

> <Gold.Chemscore.Lipo>
79.2758

> <Gold.Chemscore.Internal_Hbond>
0.0000

> <Gold.Chemscore.DEClash>
0.3138

> <Gold.Chemscore.DEInternal>
4.8359

> <Gold.Chemscore.Rot>
2.1140

> <Gold.Chemscore.Internal.Correction>
   9.000000E+99

> <Gold.Chemscore.Hbonds>
donor molecule, donor type, donor heavy atom, donor atom, acceptor molecule, acceptor atom, score
      L1  H    13    34       P1  7957  0.35
      L1  H    13    35       P1  7948  0.09
      P1  H  7989  7998       L1    14  1.00

> <Gold.Chemscore.Hbond.Weighted>
-9.1625

> <Gold.Chemscore.Metal.Weighted>
-0.0000

> <Gold.Chemscore.Lipo.Weighted>
-9.2753

> <Gold.Chemscore.Internal_Hbond.Weighted>
0.0000

> <Gold.Chemscore.DEClash.Weighted>
0.3138

> <Gold.Chemscore.DEInternal.Weighted>
4.8359

> <Gold.Chemscore.Rot.Weighted>
5.4119

> <Gold.Chemscore.Internal.Correction.Weighted>
   9.000000E+99

> <Gold.Protein.RotatedTorsions>
[ 6907 6896 6895 6894 ] final  116.43 input  -60.11 | X-H torsion
[ 7974 7965 7964 7962 ] final    1.21 input  175.53 | X-H torsion
[ 8008 7997 7996 7995 ] final  -34.02 input   59.86 | X-H torsion
[ 10167 10162 10161 10158 ] final   44.75 input  -65.29 | X-H torsion
[ 10718 10713 10712 10709 ] final  -29.55 input   66.30 | X-H torsion
[ 10763 10752 10751 10750 ] final  110.11 input  -60.55 | X-H torsion
[ 11005 11000 10999 10996 ] final  111.12 input  -57.11 | X-H torsion

> <Gold.Protein.ActiveResidues>
 VAL166  LYS551  ARG553  GLY616  TRP617  ASP618  TYR619  PRO620  LYS621  CYS622 
 ASP623  PHE694  ASN695  SER759  ASP760  ASP761  ALA762  ILE779  LEU786  VAL792 
 PHE793  MET794  SER795  GLU796  ALA797  LYS798  CYS799  TRP800  GLU811  SER814 

> <Gold.Protein.RotatedAtoms>
  152.4678  133.7962  159.6928 H   0  0  0  0  0  0  0  0  0  0  0  0  # atno 6907 bound_to 6896
  150.8652  133.7576  159.2985 H   0  0  0  0  0  0  0  0  0  0  0  0  # atno 6908 bound_to 6896
  151.5129  135.1068  159.9910 H   0  0  0  0  0  0  0  0  0  0  0  0  # atno 6909 bound_to 6896
  146.2439  140.1021  142.8347 H   0  0  0  0  0  0  0  0  0  0  0  0  # atno 7974 bound_to 7965
  154.4132  140.1695  156.1982 H   0  0  0  0  0  0  0  0  0  0  0  0  # atno 8008 bound_to 7997
  155.9546  140.3398  155.6414 H   0  0  0  0  0  0  0  0  0  0  0  0  # atno 8009 bound_to 7997
  155.6826  140.0724  157.2469 H   0  0  0  0  0  0  0  0  0  0  0  0  # atno 8010 bound_to 7997
  140.3311  144.2587  150.6168 H   0  0  0  0  0  0  0  0  0  0  0  0  # atno 10167 bound_to 10162
  156.4110  130.4408  149.7252 H   0  0  0  0  0  0  0  0  0  0  0  0  # atno 10718 bound_to 10713
  153.4442  135.3759  155.2246 H   0  0  0  0  0  0  0  0  0  0  0  0  # atno 10763 bound_to 10752
  154.8755  135.3870  154.4116 H   0  0  0  0  0  0  0  0  0  0  0  0  # atno 10764 bound_to 10752
  153.4666  135.7087  153.6082 H   0  0  0  0  0  0  0  0  0  0  0  0  # atno 10765 bound_to 10752
  139.8896  134.9500  156.6383 H   0  0  0  0  0  0  0  0  0  0  0  0  # atno 11005 bound_to 11000
  145.0560  140.9053  143.4967 LP  0  0  0  0  0  0  0  0  0  0  0  0  # atno 17320 bound_to 7965
  145.1127  139.2746  143.5629 LP  0  0  0  0  0  0  0  0  0  0  0  0  # atno 17321 bound_to 7965
  140.5396  143.2226  151.8107 LP  0  0  0  0  0  0  0  0  0  0  0  0  # atno 17342 bound_to 10162
  139.4856  144.4617  151.9532 LP  0  0  0  0  0  0  0  0  0  0  0  0  # atno 17343 bound_to 10162
  156.4231  130.7778  151.2796 LP  0  0  0  0  0  0  0  0  0  0  0  0  # atno 17370 bound_to 10713
  157.7507  131.0177  150.3595 LP  0  0  0  0  0  0  0  0  0  0  0  0  # atno 17371 bound_to 10713
  140.7613  133.8815  155.8421 LP  0  0  0  0  0  0  0  0  0  0  0  0  # atno 17394 bound_to 11000
  140.9919  134.1267  157.4400 LP  0  0  0  0  0  0  0  0  0  0  0  0  # atno 17395 bound_to 11000

$$$$
