AV-unprocessed.smi:3331|AV-procd|sdf|12828|dock9
  -GOLD-   2272019203D 1   1.00000     0.00000
 Structure written by MMmdl.
 46 47  0  0  0  0  0  0  0  0  1 V2000
  145.6706  141.8315  157.2528 C   0  0  0  0  0  0  0  0  0  0  0  0
  146.6331  141.1879  156.2451 C   0  0  1  0  0  0  0  0  0  0  0  0
  145.9089  140.8163  154.9304 C   0  0  0  0  0  0  0  0  0  0  0  0
  146.8708  140.2960  153.8381 C   0  0  2  0  0  0  0  0  0  0  0  0
  147.3028  138.8404  154.0905 C   0  0  0  0  0  0  0  0  0  0  0  0
  148.0681  141.2607  153.6932 C   0  0  0  0  0  0  0  0  0  0  0  0
  148.7303  141.4263  154.9953 N   0  0  0  0  0  0  0  0  0  0  0  0
  149.9594  140.9655  155.3426 C   0  0  0  0  0  0  0  0  0  0  0  0
  150.6520  140.3103  154.5608 O   0  0  0  0  0  0  0  0  0  0  0  0
  150.5348  141.2547  156.7498 C   0  0  1  0  0  0  0  0  0  0  0  0
  151.8908  140.5506  156.9145 C   0  0  0  0  0  0  0  0  0  0  0  0
  150.6894  142.6932  157.0377 N   0  0  0  0  0  0  0  0  0  0  0  0
  150.6713  143.0103  158.4617 C   0  0  0  0  0  0  0  0  0  0  0  0
  151.9094  143.8470  158.8133 C   0  0  0  0  0  0  0  0  0  0  0  0
  152.4395  143.4935  160.1161 N   0  0  0  0  0  0  0  0  0  0  0  0
  153.1310  142.3574  160.4808 C   0  0  0  0  0  0  0  0  0  0  0  0
  153.4270  142.4711  161.8091 C   0  0  0  0  0  0  0  0  0  0  0  0
  152.8678  143.7278  162.1732 C   0  0  0  0  0  0  0  0  0  0  0  0
  152.2763  144.3369  161.1581 N   0  0  0  0  0  0  0  0  0  0  0  0
  147.8432  142.1004  155.9533 C   0  0  0  0  0  0  0  0  0  0  0  0
  145.2636  142.7681  156.8707 H   0  0  0  0  0  0  0  0  0  0  0  0
  146.1757  142.0474  158.1946 H   0  0  0  0  0  0  0  0  0  0  0  0
  144.8332  141.1690  157.4730 H   0  0  0  0  0  0  0  0  0  0  0  0
  147.0087  140.2690  156.6976 H   0  0  0  0  0  0  0  0  0  0  0  0
  145.1235  140.0843  155.1232 H   0  0  0  0  0  0  0  0  0  0  0  0
  145.4032  141.7039  154.5475 H   0  0  0  0  0  0  0  0  0  0  0  0
  146.3274  140.3000  152.8925 H   0  0  0  0  0  0  0  0  0  0  0  0
  147.8476  138.7317  155.0282 H   0  0  0  0  0  0  0  0  0  0  0  0
  147.9483  138.4797  153.2897 H   0  0  0  0  0  0  0  0  0  0  0  0
  146.4375  138.1788  154.1350 H   0  0  0  0  0  0  0  0  0  0  0  0
  148.7303  140.9404  152.8916 H   0  0  0  0  0  0  0  0  0  0  0  0
  147.7055  142.2362  153.3655 H   0  0  0  0  0  0  0  0  0  0  0  0
  149.8597  140.8722  157.5125 H   0  0  0  0  0  0  0  0  0  0  0  0
  151.8043  139.4751  156.7563 H   0  0  0  0  0  0  0  0  0  0  0  0
  152.2896  140.6995  157.9186 H   0  0  0  0  0  0  0  0  0  0  0  0
  152.6277  140.9313  156.2058 H   0  0  0  0  0  0  0  0  0  0  0  0
  149.9966  143.2449  156.5519 H   0  0  0  0  0  0  0  0  0  0  0  0
  149.7714  143.5668  158.7250 H   0  0  0  0  0  0  0  0  0  0  0  0
  150.6664  142.0875  159.0436 H   0  0  0  0  0  0  0  0  0  0  0  0
  152.6943  143.7071  158.0680 H   0  0  0  0  0  0  0  0  0  0  0  0
  151.6622  144.9097  158.8183 H   0  0  0  0  0  0  0  0  0  0  0  0
  153.3536  141.5723  159.7733 H   0  0  0  0  0  0  0  0  0  0  0  0
  153.9617  141.7647  162.4265 H   0  0  0  0  0  0  0  0  0  0  0  0
  152.8731  144.2121  163.1386 H   0  0  0  0  0  0  0  0  0  0  0  0
  147.5094  143.0500  155.5323 H   0  0  0  0  0  0  0  0  0  0  0  0
  148.3456  142.3566  156.8870 H   0  0  0  0  0  0  0  0  0  0  0  0
  1  2  1  0  0  0  0
  1 21  1  0  0  0  0
  1 22  1  0  0  0  0
  1 23  1  0  0  0  0
  2 20  1  0  0  0  0
  2  3  1  0  0  0  0
  2 24  1  0  0  0  0
  3  4  1  0  0  0  0
  3 25  1  0  0  0  0
  3 26  1  0  0  0  0
  4  5  1  0  0  0  0
  4  6  1  0  0  0  0
  4 27  1  0  0  0  0
  5 28  1  0  0  0  0
  5 29  1  0  0  0  0
  5 30  1  0  0  0  0
  6  7  1  0  0  0  0
  6 31  1  0  0  0  0
  6 32  1  0  0  0  0
  7  8  1  0  0  0  0
  7 20  1  0  0  0  0
  8  9  2  0  0  0  0
  8 10  1  0  0  0  0
 10 11  1  0  0  0  0
 10 12  1  0  0  0  0
 10 33  1  0  0  0  0
 11 34  1  0  0  0  0
 11 35  1  0  0  0  0
 11 36  1  0  0  0  0
 12 13  1  0  0  0  0
 12 37  1  0  0  0  0
 13 14  1  0  0  0  0
 13 38  1  0  0  0  0
 13 39  1  0  0  0  0
 14 15  1  0  0  0  0
 14 40  1  0  0  0  0
 14 41  1  0  0  0  0
 15 19  1  0  0  0  0
 15 16  1  0  0  0  0
 16 17  2  0  0  0  0
 16 42  1  0  0  0  0
 17 18  1  0  0  0  0
 17 43  1  0  0  0  0
 18 19  2  0  0  0  0
 18 44  1  0  0  0  0
 20 45  1  0  0  0  0
 20 46  1  0  0  0  0
M  END
> <s_m_source_file>
AV-unprocessed.smi

> <i_m_source_file_index>
3331

> <i_lp_mmshare_version>
43012

> <i_f3d_flags>
0

> <s_epik_input>
W0NIM11bQ0BASF0xW0NIMl1bQ0BASF0oW0NIM10pW0NIMl1OKFtDSDJdMSlDKD1PKVtDQEhdKFtDSDNdKVtOSF1bQ0gyXVtDSDJdbjJbY0hdW2NIXVtjSF1uMg==

> <s_epik_cmdline>
J2VwaWtfcHl0aG9uJywgJy1waCcsICc3LjAnLCAnLXRuJywgJzgnLCAnLW1hJywgJzIwMCcsICctbWV0YWxfYmluZGluZycsICctaW1hZScsICc8aW5maWxlLm1hZT4nLCAnLW9tYWUnLCAnPG91dGZpbGUubWFlPic=

> <r_lp_tautomer_probability>
1

> <r_epik_Ionization_Penalty>
0.767994

> <r_epik_Ionization_Penalty_Charging>
0

> <r_epik_Ionization_Penalty_Neutral>
0.767994

> <r_epik_State_Penalty>
0.795453

> <r_epik_Charging_Adjusted_Penalty>
0.795453

> <i_epik_Tot_Q>
0

> <i_epik_Tot_abs_Q>
0

> <r_epik_Metal_State_Penalty>
0.794784

> <b_epik_Metal_Only>
0

> <s_lp_Force_Field>
OPLS_2005

> <r_lp_Energy>
29.1639

> <b_lp_Chiralities_Consistent>
1

> <s_lp_Variant>
AV-unprocessed.smi:3331-12

> <Gold.Version>
5.8.1

> <Gold.Id.Protein>
6NUR|6NUR_protein|mol2

> <Gold.PLP.Fitness>
43.5064

> <Gold.PLP.PLP>
-39.7385

> <Gold.PLP.part.hbond>
-1.8664

> <Gold.PLP.part.metal>
0.0000

> <Gold.PLP.part.buried>
-3.4392

> <Gold.PLP.part.nonpolar>
-34.0688

> <Gold.PLP.part.repulsive>
0.2401

> <Gold.PLP.ligand.clash>
0.0000

> <Gold.PLP.ligand.torsion>
1.0298

> <Gold.PLP.Chemscore.Hbond>
1.9263

> <Gold.PLP.Chemscore.CHOScore>
0.0000

> <Gold.PLP.Chemscore.Metal>
0.0000

> <Gold.Chemscore.Hbonds>
donor molecule, donor type, donor heavy atom, donor atom, acceptor molecule, acceptor atom, score
      L1  H    12    37       P1  8028  0.96
      P1  H  7989  7998       L1     9  1.00

> <Gold.PLP.Chemscore.Internal.Correction>
0.0487

> <Gold.Rescore>
     Score         DG    S(hbond)    S(metal)    S(lipo)     H(rot)  DE(clash)    DE(int)     intcor
     17.10     -18.75       1.94        0.00      94.53       1.66       0.48       1.17       ----

> <Gold.Chemscore.Fitness>
17.0959

> <Gold.Chemscore.DG>
-18.7469

> <Gold.Chemscore.ZeroCoef>
-5.4800

> <Gold.Chemscore.Hbond>
1.9367

> <Gold.Chemscore.Metal>
0.0000

> <Gold.Chemscore.Lipo>
94.5318

> <Gold.Chemscore.Internal_Hbond>
0.0000

> <Gold.Chemscore.DEClash>
0.4794

> <Gold.Chemscore.DEInternal>
1.1715

> <Gold.Chemscore.Rot>
1.6649

> <Gold.Chemscore.Internal.Correction>
   9.000000E+99

> <Gold.Chemscore.Hbonds>
donor molecule, donor type, donor heavy atom, donor atom, acceptor molecule, acceptor atom, score
      L1  H    12    37       P1  8028  0.91
      P1  H  7989  7998       L1     9  0.95

> <Gold.Chemscore.Hbond.Weighted>
-6.4687

> <Gold.Chemscore.Metal.Weighted>
-0.0000

> <Gold.Chemscore.Lipo.Weighted>
-11.0602

> <Gold.Chemscore.Internal_Hbond.Weighted>
0.0000

> <Gold.Chemscore.DEClash.Weighted>
0.4794

> <Gold.Chemscore.DEInternal.Weighted>
1.1715

> <Gold.Chemscore.Rot.Weighted>
4.2621

> <Gold.Chemscore.Internal.Correction.Weighted>
   9.000000E+99

> <Gold.Protein.RotatedTorsions>
[ 6907 6896 6895 6894 ] final  136.48 input  -60.11 | X-H torsion
[ 7974 7965 7964 7962 ] final   10.88 input  175.53 | X-H torsion
[ 8008 7997 7996 7995 ] final -136.40 input   59.86 | X-H torsion
[ 10167 10162 10161 10158 ] final  -97.63 input  -65.29 | X-H torsion
[ 10718 10713 10712 10709 ] final   94.71 input   66.30 | X-H torsion
[ 10763 10752 10751 10750 ] final  -97.13 input  -60.55 | X-H torsion
[ 11005 11000 10999 10996 ] final  -75.59 input  -57.11 | X-H torsion

> <Gold.Protein.ActiveResidues>
 VAL166  LYS551  ARG553  GLY616  TRP617  ASP618  TYR619  PRO620  LYS621  CYS622 
 ASP623  PHE694  ASN695  SER759  ASP760  ASP761  ALA762  ILE779  LEU786  VAL792 
 PHE793  MET794  SER795  GLU796  ALA797  LYS798  CYS799  TRP800  GLU811  SER814 

> <Gold.Protein.RotatedAtoms>
  152.2888  133.5541  159.5544 H   0  0  0  0  0  0  0  0  0  0  0  0  # atno 6907 bound_to 6896
  150.7226  134.0458  159.3790 H   0  0  0  0  0  0  0  0  0  0  0  0  # atno 6908 bound_to 6896
  151.8365  135.0605  160.0494 H   0  0  0  0  0  0  0  0  0  0  0  0  # atno 6909 bound_to 6896
  146.2381  139.9568  142.8463 H   0  0  0  0  0  0  0  0  0  0  0  0  # atno 7974 bound_to 7965
  155.3945  140.0502  157.3039 H   0  0  0  0  0  0  0  0  0  0  0  0  # atno 8008 bound_to 7997
  154.5020  140.2160  155.9288 H   0  0  0  0  0  0  0  0  0  0  0  0  # atno 8009 bound_to 7997
  156.1479  140.3141  155.8605 H   0  0  0  0  0  0  0  0  0  0  0  0  # atno 8010 bound_to 7997
  140.2814  143.3279  152.0437 H   0  0  0  0  0  0  0  0  0  0  0  0  # atno 10167 bound_to 10162
  157.6945  131.0521  150.4228 H   0  0  0  0  0  0  0  0  0  0  0  0  # atno 10718 bound_to 10713
  154.7301  135.5058  153.8950 H   0  0  0  0  0  0  0  0  0  0  0  0  # atno 10763 bound_to 10752
  153.0942  135.6667  153.9804 H   0  0  0  0  0  0  0  0  0  0  0  0  # atno 10764 bound_to 10752
  153.9607  135.3048  155.3413 H   0  0  0  0  0  0  0  0  0  0  0  0  # atno 10765 bound_to 10752
  141.1647  133.6952  156.7540 H   0  0  0  0  0  0  0  0  0  0  0  0  # atno 11005 bound_to 11000
  145.1809  140.9766  143.4267 LP  0  0  0  0  0  0  0  0  0  0  0  0  # atno 17320 bound_to 7965
  144.9943  139.3659  143.6199 LP  0  0  0  0  0  0  0  0  0  0  0  0  # atno 17321 bound_to 7965
  139.4961  144.6589  151.6510 LP  0  0  0  0  0  0  0  0  0  0  0  0  # atno 17342 bound_to 10162
  140.5808  143.9949  150.6267 LP  0  0  0  0  0  0  0  0  0  0  0  0  # atno 17343 bound_to 10162
  156.4601  130.4030  149.6581 LP  0  0  0  0  0  0  0  0  0  0  0  0  # atno 17370 bound_to 10713
  156.3699  130.7525  151.2507 LP  0  0  0  0  0  0  0  0  0  0  0  0  # atno 17371 bound_to 10713
  140.2583  134.8487  157.3734 LP  0  0  0  0  0  0  0  0  0  0  0  0  # atno 17394 bound_to 11000
  140.1636  134.4697  155.7878 LP  0  0  0  0  0  0  0  0  0  0  0  0  # atno 17395 bound_to 11000

$$$$
