AV-unprocessed.smi:2133|AV-procd|sdf|8693|dock5
  -GOLD-   2272011453D 1   1.00000     0.00000
 Structure written by MMmdl.
 45 47  0  0  0  0  0  0  0  0  1 V2000
  147.1566  136.7671  162.7620 C   0  0  0  0  0  0  0  0  0  0  0  0
  147.5027  135.7811  161.7214 N   0  0  0  0  0  0  0  0  0  0  0  0
  147.8671  136.2444  160.4845 C   0  0  0  0  0  0  0  0  0  0  0  0
  147.9476  137.4327  160.1717 O   0  0  0  0  0  0  0  0  0  0  0  0
  148.1662  135.1837  159.5184 C   0  0  0  0  0  0  0  0  0  0  0  0
  148.1276  133.8654  159.8315 C   0  0  0  0  0  0  0  0  0  0  0  0
  148.4603  133.0767  158.7357 N   0  0  0  0  0  0  0  0  0  0  0  0
  148.6892  133.9917  157.7935 C   0  0  0  0  0  0  0  0  0  0  0  0
  148.5211  135.2748  158.1741 N   0  0  0  0  0  0  0  0  0  0  0  0
  148.6868  136.4515  157.3335 C   0  0  0  0  0  0  0  0  0  0  0  0
  149.7817  137.4163  157.8412 C   0  0  1  0  0  0  0  0  0  0  0  0
  151.0042  136.7251  157.9896 O   0  0  0  0  0  0  0  0  0  0  0  0
  150.0025  138.6796  156.9882 C   0  0  0  0  0  0  0  0  0  0  0  0
  150.3062  139.7891  157.8184 O   0  0  0  0  0  0  0  0  0  0  0  0
  150.6637  140.9446  157.0799 C   0  0  0  0  0  0  0  0  0  0  0  0
  151.3597  141.9645  157.9570 C   0  0  0  0  0  0  0  0  0  0  0  0
  151.4196  143.3177  157.5632 C   0  0  0  0  0  0  0  0  0  0  0  0
  152.0669  144.2639  158.3816 C   0  0  0  0  0  0  0  0  0  0  0  0
  152.6524  143.8610  159.5976 C   0  0  0  0  0  0  0  0  0  0  0  0
  152.5925  142.5109  159.9943 C   0  0  0  0  0  0  0  0  0  0  0  0
  151.9479  141.5639  159.1749 C   0  0  0  0  0  0  0  0  0  0  0  0
  147.7704  133.4954  161.1537 N   0  0  0  0  0  0  0  0  0  0  0  0
  147.7258  132.0723  161.5023 C   0  0  0  0  0  0  0  0  0  0  0  0
  147.4399  134.4470  162.0865 C   0  0  0  0  0  0  0  0  0  0  0  0
  147.0954  134.1123  163.2238 O   0  0  0  0  0  0  0  0  0  0  0  0
  147.1342  137.8030  162.4221 H   0  0  0  0  0  0  0  0  0  0  0  0
  147.8769  136.7191  163.5802 H   0  0  0  0  0  0  0  0  0  0  0  0
  146.1670  136.5621  163.1739 H   0  0  0  0  0  0  0  0  0  0  0  0
  148.9766  133.7198  156.7883 H   0  0  0  0  0  0  0  0  0  0  0  0
  148.8962  136.1314  156.3126 H   0  0  0  0  0  0  0  0  0  0  0  0
  147.7283  136.9717  157.2971 H   0  0  0  0  0  0  0  0  0  0  0  0
  149.5110  137.7509  158.8423 H   0  0  0  0  0  0  0  0  0  0  0  0
  151.0111  135.9942  157.3907 H   0  0  0  0  0  0  0  0  0  0  0  0
  150.8385  138.5047  156.3086 H   0  0  0  0  0  0  0  0  0  0  0  0
  149.1295  138.8889  156.3677 H   0  0  0  0  0  0  0  0  0  0  0  0
  151.3328  140.6731  156.2615 H   0  0  0  0  0  0  0  0  0  0  0  0
  149.7746  141.3921  156.6327 H   0  0  0  0  0  0  0  0  0  0  0  0
  150.9696  143.6336  156.6334 H   0  0  0  0  0  0  0  0  0  0  0  0
  152.1133  145.2990  158.0768 H   0  0  0  0  0  0  0  0  0  0  0  0
  153.1474  144.5872  160.2255 H   0  0  0  0  0  0  0  0  0  0  0  0
  153.0413  142.2019  160.9268 H   0  0  0  0  0  0  0  0  0  0  0  0
  151.9063  140.5295  159.4834 H   0  0  0  0  0  0  0  0  0  0  0  0
  148.2036  131.8829  162.4649 H   0  0  0  0  0  0  0  0  0  0  0  0
  148.2399  131.4497  160.7702 H   0  0  0  0  0  0  0  0  0  0  0  0
  146.6918  131.7312  161.5611 H   0  0  0  0  0  0  0  0  0  0  0  0
  1  2  1  0  0  0  0
  1 26  1  0  0  0  0
  1 27  1  0  0  0  0
  1 28  1  0  0  0  0
  2 24  1  0  0  0  0
  2  3  1  0  0  0  0
  3  4  2  0  0  0  0
  3  5  1  0  0  0  0
  5  9  1  0  0  0  0
  5  6  2  0  0  0  0
  6  7  1  0  0  0  0
  6 22  1  0  0  0  0
  7  8  2  0  0  0  0
  8  9  1  0  0  0  0
  8 29  1  0  0  0  0
  9 10  1  0  0  0  0
 10 11  1  0  0  0  0
 10 30  1  0  0  0  0
 10 31  1  0  0  0  0
 11 12  1  0  0  0  0
 11 13  1  0  0  0  0
 11 32  1  0  0  0  0
 12 33  1  0  0  0  0
 13 14  1  0  0  0  0
 13 34  1  0  0  0  0
 13 35  1  0  0  0  0
 14 15  1  0  0  0  0
 15 16  1  0  0  0  0
 15 36  1  0  0  0  0
 15 37  1  0  0  0  0
 16 21  1  0  0  0  0
 16 17  2  0  0  0  0
 17 18  1  0  0  0  0
 17 38  1  0  0  0  0
 18 19  2  0  0  0  0
 18 39  1  0  0  0  0
 19 20  1  0  0  0  0
 19 40  1  0  0  0  0
 20 21  2  0  0  0  0
 20 41  1  0  0  0  0
 21 42  1  0  0  0  0
 22 23  1  0  0  0  0
 22 24  1  0  0  0  0
 23 43  1  0  0  0  0
 23 44  1  0  0  0  0
 23 45  1  0  0  0  0
 24 25  2  0  0  0  0
M  END
> <s_m_source_file>
AV-unprocessed.smi

> <i_m_source_file_index>
2133

> <i_lp_mmshare_version>
43012

> <i_f3d_flags>
0

> <s_epik_input>
Tz1jMW4oW0NIM10pYyg9TyluKFtDSDNdKWMoYzEyKW5bY0hdbjJbQ0gyXVtDQEhdKFtPSF0pW0NIMl1PW0NIMl1jM1tjSF1bY0hdW2NIXVtjSF1bY0hdMw==

> <s_epik_cmdline>
J2VwaWtfcHl0aG9uJywgJy1waCcsICc3LjAnLCAnLXRuJywgJzgnLCAnLW1hJywgJzIwMCcsICctbWV0YWxfYmluZGluZycsICctaW1hZScsICc8aW5maWxlLm1hZT4nLCAnLW9tYWUnLCAnPG91dGZpbGUubWFlPic=

> <r_lp_tautomer_probability>
1

> <r_epik_Ionization_Penalty>
1.52174e-06

> <r_epik_Ionization_Penalty_Charging>
3.83535e-09

> <r_epik_Ionization_Penalty_Neutral>
1.5179e-06

> <r_epik_State_Penalty>
-0

> <r_epik_Charging_Adjusted_Penalty>
3.83535e-09

> <i_epik_Tot_Q>
0

> <i_epik_Tot_abs_Q>
0

> <r_epik_Metal_State_Penalty>
-0

> <b_epik_Metal_Only>
0

> <s_lp_Force_Field>
OPLS_2005

> <r_lp_Energy>
39.5783

> <b_lp_Chiralities_Consistent>
1

> <s_lp_Variant>
AV-unprocessed.smi:2133-2

> <Gold.Version>
5.8.1

> <Gold.Id.Protein>
6NUR|6NUR_protein|mol2

> <Gold.PLP.Fitness>
49.3236

> <Gold.PLP.PLP>
-47.4491

> <Gold.PLP.part.hbond>
-3.2285

> <Gold.PLP.part.metal>
0.0000

> <Gold.PLP.part.buried>
-5.1216

> <Gold.PLP.part.nonpolar>
-39.7283

> <Gold.PLP.part.repulsive>
0.0208

> <Gold.PLP.ligand.clash>
0.0000

> <Gold.PLP.ligand.torsion>
0.8125

> <Gold.PLP.Chemscore.Hbond>
1.1427

> <Gold.PLP.Chemscore.CHOScore>
0.0000

> <Gold.PLP.Chemscore.Metal>
0.0000

> <Gold.Chemscore.Hbonds>
donor molecule, donor type, donor heavy atom, donor atom, acceptor molecule, acceptor atom, score
      P1  H  6931  6943       L1     4  0.34
      P1  H  6934  6947       L1     4  0.70

> <Gold.PLP.Chemscore.Internal.Correction>
0.0712

> <Gold.Rescore>
     Score         DG    S(hbond)    S(metal)    S(lipo)     H(rot)  DE(clash)    DE(int)     intcor
     11.57     -12.31       0.91        0.00      96.15       2.91       0.05       0.69       ----

> <Gold.Chemscore.Fitness>
11.5724

> <Gold.Chemscore.DG>
-12.3106

> <Gold.Chemscore.ZeroCoef>
-5.4800

> <Gold.Chemscore.Hbond>
0.9097

> <Gold.Chemscore.Metal>
0.0000

> <Gold.Chemscore.Lipo>
96.1528

> <Gold.Chemscore.Internal_Hbond>
0.0000

> <Gold.Chemscore.DEClash>
0.0473

> <Gold.Chemscore.DEInternal>
0.6909

> <Gold.Chemscore.Rot>
2.9132

> <Gold.Chemscore.Internal.Correction>
   9.000000E+99

> <Gold.Chemscore.Hbonds>
donor molecule, donor type, donor heavy atom, donor atom, acceptor molecule, acceptor atom, score
      P1  H  6931  6943       L1     4  0.12
      P1  H  6934  6947       L1     4  0.70

> <Gold.Chemscore.Hbond.Weighted>
-3.0385

> <Gold.Chemscore.Metal.Weighted>
-0.0000

> <Gold.Chemscore.Lipo.Weighted>
-11.2499

> <Gold.Chemscore.Internal_Hbond.Weighted>
0.0000

> <Gold.Chemscore.DEClash.Weighted>
0.0473

> <Gold.Chemscore.DEInternal.Weighted>
0.6909

> <Gold.Chemscore.Rot.Weighted>
7.4578

> <Gold.Chemscore.Internal.Correction.Weighted>
   9.000000E+99

> <Gold.Protein.RotatedTorsions>
[ 6907 6896 6895 6894 ] final -103.37 input  -60.11 | X-H torsion
[ 7974 7965 7964 7962 ] final   38.96 input  175.53 | X-H torsion
[ 8008 7997 7996 7995 ] final   56.89 input   59.86 | X-H torsion
[ 10167 10162 10161 10158 ] final   32.47 input  -65.29 | X-H torsion
[ 10718 10713 10712 10709 ] final  126.92 input   66.30 | X-H torsion
[ 10763 10752 10751 10750 ] final    3.81 input  -60.55 | X-H torsion
[ 11005 11000 10999 10996 ] final  123.46 input  -57.11 | X-H torsion

> <Gold.Protein.ActiveResidues>
 VAL166  LYS551  ARG553  GLY616  TRP617  ASP618  TYR619  PRO620  LYS621  CYS622 
 ASP623  PHE694  ASN695  SER759  ASP760  ASP761  ALA762  ILE779  LEU786  VAL792 
 PHE793  MET794  SER795  GLU796  ALA797  LYS798  CYS799  TRP800  GLU811  SER814 

> <Gold.Protein.RotatedAtoms>
  150.7237  134.0440  159.3775 H   0  0  0  0  0  0  0  0  0  0  0  0  # atno 6907 bound_to 6896
  151.8414  135.0586  160.0458 H   0  0  0  0  0  0  0  0  0  0  0  0  # atno 6908 bound_to 6896
  152.2859  133.5479  159.5563 H   0  0  0  0  0  0  0  0  0  0  0  0  # atno 6909 bound_to 6896
  146.1022  139.5709  142.9407 H   0  0  0  0  0  0  0  0  0  0  0  0  # atno 7974 bound_to 7965
  155.5249  140.3480  155.4414 H   0  0  0  0  0  0  0  0  0  0  0  0  # atno 8008 bound_to 7997
  156.0759  140.1374  156.9799 H   0  0  0  0  0  0  0  0  0  0  0  0  # atno 8009 bound_to 7997
  154.4553  140.0956  156.6714 H   0  0  0  0  0  0  0  0  0  0  0  0  # atno 8010 bound_to 7997
  140.4496  144.1068  150.6189 H   0  0  0  0  0  0  0  0  0  0  0  0  # atno 10167 bound_to 10162
  157.5377  131.1097  150.8908 H   0  0  0  0  0  0  0  0  0  0  0  0  # atno 10718 bound_to 10713
  153.2788  135.6939  153.7407 H   0  0  0  0  0  0  0  0  0  0  0  0  # atno 10763 bound_to 10752
  153.6402  135.3394  155.3070 H   0  0  0  0  0  0  0  0  0  0  0  0  # atno 10764 bound_to 10752
  154.8488  135.4430  154.1834 H   0  0  0  0  0  0  0  0  0  0  0  0  # atno 10765 bound_to 10752
  139.9314  134.9641  156.8263 H   0  0  0  0  0  0  0  0  0  0  0  0  # atno 11005 bound_to 11000
  145.5832  141.0379  143.2110 LP  0  0  0  0  0  0  0  0  0  0  0  0  # atno 17320 bound_to 7965
  144.7441  139.7367  143.7299 LP  0  0  0  0  0  0  0  0  0  0  0  0  # atno 17321 bound_to 7965
  140.4223  143.2606  151.9700 LP  0  0  0  0  0  0  0  0  0  0  0  0  # atno 17342 bound_to 10162
  139.4795  144.5820  151.7917 LP  0  0  0  0  0  0  0  0  0  0  0  0  # atno 17343 bound_to 10162
  156.9470  130.5406  149.5281 LP  0  0  0  0  0  0  0  0  0  0  0  0  # atno 17370 bound_to 10713
  156.0472  130.5547  150.8907 LP  0  0  0  0  0  0  0  0  0  0  0  0  # atno 17371 bound_to 10713
  140.6193  134.0009  155.7611 LP  0  0  0  0  0  0  0  0  0  0  0  0  # atno 17394 bound_to 11000
  141.0904  133.9925  157.3246 LP  0  0  0  0  0  0  0  0  0  0  0  0  # atno 17395 bound_to 11000

$$$$
