AV-unprocessed.smi:2035|AV-procd|sdf|8271|dock2
  -GOLD-   2272010543D 1   1.00000     0.00000
 Structure written by MMmdl.
 35 36  0  0  0  0  0  0  0  0  2 V2000
  149.7845  140.6043  157.0471 O   0  0  0  0  0  0  0  0  0  0  0  0
  149.6384  141.6868  156.4797 C   0  0  0  0  0  0  0  0  0  0  0  0
  150.2355  142.8363  156.8393 N   0  0  0  0  0  0  0  0  0  0  0  0
  151.1420  143.0563  157.9111 C   0  0  0  0  0  0  0  0  0  0  0  0
  151.5155  141.9422  158.6950 C   0  0  0  0  0  0  0  0  0  0  0  0
  152.4216  142.1149  159.7612 C   0  0  0  0  0  0  0  0  0  0  0  0
  152.9336  143.3380  160.0171 N   0  3  0  0  0  0  0  0  0  0  0  0
  152.6203  144.4286  159.2849 C   0  0  0  0  0  0  0  0  0  0  0  0
  151.7188  144.3175  158.2065 C   0  0  0  0  0  0  0  0  0  0  0  0
  148.8702  141.8571  155.3941 N   0  0  0  0  0  0  0  0  0  0  0  0
  148.0942  140.8125  154.7254 C   0  0  2  0  0  0  0  0  0  0  0  0
  146.9621  140.2978  155.6519 C   0  0  0  0  0  0  0  0  0  0  0  0
  146.4568  138.8663  155.3756 C   0  0  0  0  0  0  0  0  0  0  0  0
  146.0127  138.5877  153.9253 C   0  0  0  0  0  0  0  0  0  0  0  0
  147.0476  138.8819  152.8131 C   0  0  0  0  0  0  0  0  0  0  0  0
  148.4399  138.8525  153.2597 N   0  0  0  0  0  0  0  0  0  0  0  0
  148.9988  139.7224  154.1189 C   0  0  0  0  0  0  0  0  0  0  0  0
  150.1862  139.6439  154.4311 O   0  0  0  0  0  0  0  0  0  0  0  0
  150.0861  143.6240  156.2257 H   0  0  0  0  0  0  0  0  0  0  0  0
  151.1062  140.9635  158.4894 H   0  0  0  0  0  0  0  0  0  0  0  0
  152.7503  141.3172  160.4112 H   0  0  0  0  0  0  0  0  0  0  0  0
  153.1011  145.3506  159.5777 H   0  0  0  0  0  0  0  0  0  0  0  0
  151.4958  145.1966  157.6209 H   0  0  0  0  0  0  0  0  0  0  0  0
  148.8052  142.7825  154.9952 H   0  0  0  0  0  0  0  0  0  0  0  0
  147.6204  141.2931  153.8684 H   0  0  0  0  0  0  0  0  0  0  0  0
  147.3019  140.3286  156.6881 H   0  0  0  0  0  0  0  0  0  0  0  0
  146.1214  140.9907  155.5994 H   0  0  0  0  0  0  0  0  0  0  0  0
  147.2277  138.1491  155.6603 H   0  0  0  0  0  0  0  0  0  0  0  0
  145.6197  138.6586  156.0426 H   0  0  0  0  0  0  0  0  0  0  0  0
  145.7340  137.5351  153.8647 H   0  0  0  0  0  0  0  0  0  0  0  0
  145.0985  139.1422  153.7113 H   0  0  0  0  0  0  0  0  0  0  0  0
  146.9298  138.1576  152.0068 H   0  0  0  0  0  0  0  0  0  0  0  0
  146.8407  139.8511  152.3580 H   0  0  0  0  0  0  0  0  0  0  0  0
  149.0279  138.1278  152.8736 H   0  0  0  0  0  0  0  0  0  0  0  0
  153.5886  143.4419  160.7928 H   0  0  0  0  0  0  0  0  0  0  0  0
  1  2  2  0  0  0  0
  2  3  1  0  0  0  0
  2 10  1  0  0  0  0
  3  4  1  0  0  0  0
  3 19  1  0  0  0  0
  4  9  1  0  0  0  0
  4  5  2  0  0  0  0
  5  6  1  0  0  0  0
  5 20  1  0  0  0  0
  6  7  2  0  0  0  0
  6 21  1  0  0  0  0
  7  8  1  0  0  0  0
  7 35  1  0  0  0  0
  8  9  2  0  0  0  0
  8 22  1  0  0  0  0
  9 23  1  0  0  0  0
 10 11  1  0  0  0  0
 10 24  1  0  0  0  0
 11 17  1  0  0  0  0
 11 12  1  0  0  0  0
 11 25  1  0  0  0  0
 12 13  1  0  0  0  0
 12 26  1  0  0  0  0
 12 27  1  0  0  0  0
 13 14  1  0  0  0  0
 13 28  1  0  0  0  0
 13 29  1  0  0  0  0
 14 15  1  0  0  0  0
 14 30  1  0  0  0  0
 14 31  1  0  0  0  0
 15 16  1  0  0  0  0
 15 32  1  0  0  0  0
 15 33  1  0  0  0  0
 16 17  1  0  0  0  0
 16 34  1  0  0  0  0
 17 18  2  0  0  0  0
M  CHG  1   7   1
M  END
> <s_m_source_file>
AV-unprocessed.smi

> <i_m_source_file_index>
2035

> <i_lp_mmshare_version>
43012

> <i_f3d_flags>
0

> <s_epik_input>
W2NIXTFbY0hdbltjSF1bY0hdYzFbTkhdQyg9TylbTkhdW0NAQEhdMltDSDJdW0NIMl1bQ0gyXVtDSDJdW05IXUMyPU8=

> <s_epik_cmdline>
J2VwaWtfcHl0aG9uJywgJy1waCcsICc3LjAnLCAnLXRuJywgJzgnLCAnLW1hJywgJzIwMCcsICctbWV0YWxfYmluZGluZycsICctaW1hZScsICc8aW5maWxlLm1hZT4nLCAnLW9tYWUnLCAnPG91dGZpbGUubWFlPic=

> <r_epik_Ionization_Penalty>
1.10339

> <r_epik_Ionization_Penalty_Charging>
1.10337

> <r_epik_Ionization_Penalty_Neutral>
1.85869e-05

> <r_epik_State_Penalty>
1.16071

> <r_epik_Charging_Adjusted_Penalty>
2.26408

> <i_epik_Tot_Q>
1

> <i_epik_Tot_abs_Q>
1

> <r_epik_Metal_State_Penalty>
1.24751

> <b_epik_Metal_Only>
0

> <s_lp_Force_Field>
OPLS_2005

> <r_lp_Energy>
25.3939

> <b_lp_Chiralities_Consistent>
1

> <s_lp_Variant>
AV-unprocessed.smi:2035-3

> <Gold.Version>
5.8.1

> <Gold.Id.Protein>
6NUR|6NUR_protein|mol2

> <Gold.PLP.Fitness>
41.2897

> <Gold.PLP.PLP>
-31.4990

> <Gold.PLP.part.hbond>
-4.9152

> <Gold.PLP.part.metal>
0.0000

> <Gold.PLP.part.buried>
-4.0965

> <Gold.PLP.part.nonpolar>
-23.6424

> <Gold.PLP.part.repulsive>
0.7528

> <Gold.PLP.ligand.clash>
0.3993

> <Gold.PLP.ligand.torsion>
0.0268

> <Gold.PLP.Chemscore.Hbond>
3.3970

> <Gold.PLP.Chemscore.CHOScore>
0.0000

> <Gold.PLP.Chemscore.Metal>
0.0000

> <Gold.Chemscore.Hbonds>
donor molecule, donor type, donor heavy atom, donor atom, acceptor molecule, acceptor atom, score
      L1  H     3    19       P1  8028  0.88
      L1  H    10    24       P1  8028  0.76
      L1  H    16    34       P1  7948  0.67
      P1  H  7989  7998       L1    18  0.81

> <Gold.PLP.Chemscore.Internal.Correction>
0.0527

> <Gold.Rescore>
     Score         DG    S(hbond)    S(metal)    S(lipo)     H(rot)  DE(clash)    DE(int)     intcor
     18.06     -22.16       3.17        0.00      73.79       1.00       0.13       3.97       ----

> <Gold.Chemscore.Fitness>
18.0592

> <Gold.Chemscore.DG>
-22.1553

> <Gold.Chemscore.ZeroCoef>
-5.4800

> <Gold.Chemscore.Hbond>
3.1742

> <Gold.Chemscore.Metal>
0.0000

> <Gold.Chemscore.Lipo>
73.7916

> <Gold.Chemscore.Internal_Hbond>
0.0000

> <Gold.Chemscore.DEClash>
0.1292

> <Gold.Chemscore.DEInternal>
3.9670

> <Gold.Chemscore.Rot>
1.0000

> <Gold.Chemscore.Internal.Correction>
   9.000000E+99

> <Gold.Chemscore.Hbonds>
donor molecule, donor type, donor heavy atom, donor atom, acceptor molecule, acceptor atom, score
      L1  H     3    19       P1  8028  0.86
      L1  H    10    24       P1  8028  0.70
      L1  H    16    34       P1  7948  0.66
      P1  H  7989  7998       L1    18  0.78

> <Gold.Chemscore.Hbond.Weighted>
-10.6017

> <Gold.Chemscore.Metal.Weighted>
-0.0000

> <Gold.Chemscore.Lipo.Weighted>
-8.6336

> <Gold.Chemscore.Internal_Hbond.Weighted>
0.0000

> <Gold.Chemscore.DEClash.Weighted>
0.1292

> <Gold.Chemscore.DEInternal.Weighted>
3.9670

> <Gold.Chemscore.Rot.Weighted>
2.5600

> <Gold.Chemscore.Internal.Correction.Weighted>
   9.000000E+99

> <Gold.Protein.RotatedTorsions>
[ 6907 6896 6895 6894 ] final -157.79 input  -60.11 | X-H torsion
[ 7974 7965 7964 7962 ] final  -69.38 input  175.53 | X-H torsion
[ 8008 7997 7996 7995 ] final -168.58 input   59.86 | X-H torsion
[ 10167 10162 10161 10158 ] final   83.58 input  -65.29 | X-H torsion
[ 10718 10713 10712 10709 ] final -163.98 input   66.30 | X-H torsion
[ 10763 10752 10751 10750 ] final  100.29 input  -60.55 | X-H torsion
[ 11005 11000 10999 10996 ] final  151.23 input  -57.11 | X-H torsion

> <Gold.Protein.ActiveResidues>
 VAL166  LYS551  ARG553  GLY616  TRP617  ASP618  TYR619  PRO620  LYS621  CYS622 
 ASP623  PHE694  ASN695  SER759  ASP760  ASP761  ALA762  ILE779  LEU786  VAL792 
 PHE793  MET794  SER795  GLU796  ALA797  LYS798  CYS799  TRP800  GLU811  SER814 

> <Gold.Protein.RotatedAtoms>
  151.3082  133.4092  159.2644 H   0  0  0  0  0  0  0  0  0  0  0  0  # atno 6907 bound_to 6896
  151.0137  134.9417  159.8031 H   0  0  0  0  0  0  0  0  0  0  0  0  # atno 6908 bound_to 6896
  152.5307  134.3046  159.9143 H   0  0  0  0  0  0  0  0  0  0  0  0  # atno 6909 bound_to 6896
  145.7045  140.9103  143.0713 H   0  0  0  0  0  0  0  0  0  0  0  0  # atno 7974 bound_to 7965
  155.8933  140.1028  157.1403 H   0  0  0  0  0  0  0  0  0  0  0  0  # atno 8008 bound_to 7997
  154.4017  140.1306  156.4407 H   0  0  0  0  0  0  0  0  0  0  0  0  # atno 8009 bound_to 7997
  155.7508  140.3465  155.5152 H   0  0  0  0  0  0  0  0  0  0  0  0  # atno 8010 bound_to 7997
  139.9169  144.6237  150.8479 H   0  0  0  0  0  0  0  0  0  0  0  0  # atno 10167 bound_to 10162
  156.6325  130.8935  151.2980 H   0  0  0  0  0  0  0  0  0  0  0  0  # atno 10718 bound_to 10713
  153.3121  135.4084  155.1345 H   0  0  0  0  0  0  0  0  0  0  0  0  # atno 10763 bound_to 10752
  154.8578  135.3567  154.5709 H   0  0  0  0  0  0  0  0  0  0  0  0  # atno 10764 bound_to 10752
  153.6139  135.7067  153.5395 H   0  0  0  0  0  0  0  0  0  0  0  0  # atno 10765 bound_to 10752
  140.1200  134.8870  157.2059 H   0  0  0  0  0  0  0  0  0  0  0  0  # atno 11005 bound_to 11000
  144.6959  139.8992  143.7457 LP  0  0  0  0  0  0  0  0  0  0  0  0  # atno 17320 bound_to 7965
  146.0768  139.3756  143.0489 LP  0  0  0  0  0  0  0  0  0  0  0  0  # atno 17321 bound_to 7965
  140.7672  143.3325  151.2380 LP  0  0  0  0  0  0  0  0  0  0  0  0  # atno 17342 bound_to 10162
  139.6894  143.9717  152.2851 LP  0  0  0  0  0  0  0  0  0  0  0  0  # atno 17343 bound_to 10162
  157.7195  130.9540  150.1385 LP  0  0  0  0  0  0  0  0  0  0  0  0  # atno 17370 bound_to 10713
  156.2223  130.3675  149.8541 LP  0  0  0  0  0  0  0  0  0  0  0  0  # atno 17371 bound_to 10713
  140.2977  134.3167  155.7298 LP  0  0  0  0  0  0  0  0  0  0  0  0  # atno 17394 bound_to 11000
  141.2149  133.7573  156.9596 LP  0  0  0  0  0  0  0  0  0  0  0  0  # atno 17395 bound_to 11000

$$$$
