AV-unprocessed.smi:69|AV-procd|sdf|653|dock2
  -GOLD-   2262016553D 1   1.00000     0.00000
 Structure written by MMmdl.
 32 34  0  0  0  0  0  0  0  0  1 V2000
  152.8339  143.0555  162.8504 N   0  0  0  0  0  0  0  0  0  0  0  0
  153.1220  142.4253  161.7033 C   0  0  0  0  0  0  0  0  0  0  0  0
  154.2631  141.7003  161.6377 N   0  0  0  0  0  0  0  0  0  0  0  0
  154.5724  141.0628  160.5042 C   0  0  0  0  0  0  0  0  0  0  0  0
  153.8930  141.0254  159.3552 N   0  0  0  0  0  0  0  0  0  0  0  0
  152.7421  141.7566  159.4216 C   0  0  0  0  0  0  0  0  0  0  0  0
  152.2891  142.4839  160.5574 C   0  0  0  0  0  0  0  0  0  0  0  0
  151.0850  143.1111  160.2692 N   0  0  0  0  0  0  0  0  0  0  0  0
  150.8440  142.7720  159.0314 C   0  0  0  0  0  0  0  0  0  0  0  0
  151.7899  141.9620  158.4411 N   0  0  0  0  0  0  0  0  0  0  0  0
  151.7733  141.4249  157.0401 C   0  0  2  0  0  0  0  0  0  0  0  0
  150.6749  141.9464  156.3529 O   0  0  0  0  0  0  0  0  0  0  0  0
  149.8089  140.8998  155.9170 C   0  0  1  0  0  0  0  0  0  0  0  0
  149.0813  141.2915  154.6189 C   0  0  0  0  0  0  0  0  0  0  0  0
  148.1285  142.2993  154.8815 O   0  0  0  0  0  0  0  0  0  0  0  0
  150.7259  139.6721  155.8194 C   0  0  1  0  0  0  0  0  0  0  0  0
  151.4265  139.6469  154.5885 O   0  0  0  0  0  0  0  0  0  0  0  0
  151.6929  139.8860  156.9728 C   0  0  2  0  0  0  0  0  0  0  0  0
  151.2018  139.2804  158.1559 O   0  0  0  0  0  0  0  0  0  0  0  0
  152.6829  141.8167  156.5827 H   0  0  0  0  0  0  0  0  0  0  0  0
  149.0779  140.7009  156.7017 H   0  0  0  0  0  0  0  0  0  0  0  0
  150.1681  138.7386  155.9083 H   0  0  0  0  0  0  0  0  0  0  0  0
  152.6828  139.4746  156.7712 H   0  0  0  0  0  0  0  0  0  0  0  0
  151.9889  143.6035  162.9239 H   0  0  0  0  0  0  0  0  0  0  0  0
  153.4603  142.9781  163.6384 H   0  0  0  0  0  0  0  0  0  0  0  0
  155.4961  140.5036  160.5187 H   0  0  0  0  0  0  0  0  0  0  0  0
  149.9608  143.1090  158.5085 H   0  0  0  0  0  0  0  0  0  0  0  0
  149.7829  141.6255  153.8539 H   0  0  0  0  0  0  0  0  0  0  0  0
  148.5430  140.4327  154.2167 H   0  0  0  0  0  0  0  0  0  0  0  0
  148.5576  143.0089  155.3345 H   0  0  0  0  0  0  0  0  0  0  0  0
  151.0068  139.0224  154.0169 H   0  0  0  0  0  0  0  0  0  0  0  0
  151.2079  139.9255  158.8465 H   0  0  0  0  0  0  0  0  0  0  0  0
  1  2  1  0  0  0  0
  1 24  1  0  0  0  0
  1 25  1  0  0  0  0
  2  7  1  0  0  0  0
  2  3  2  0  0  0  0
  3  4  1  0  0  0  0
  4  5  2  0  0  0  0
  4 26  1  0  0  0  0
  5  6  1  0  0  0  0
  6 10  1  0  0  0  0
  6  7  2  0  0  0  0
  7  8  1  0  0  0  0
  8  9  2  0  0  0  0
  9 10  1  0  0  0  0
  9 27  1  0  0  0  0
 10 11  1  0  0  0  0
 11 20  1  0  0  0  0
 11 18  1  0  0  0  0
 11 12  1  0  0  0  0
 12 13  1  0  0  0  0
 13 21  1  0  0  0  0
 13 14  1  0  0  0  0
 13 16  1  0  0  0  0
 14 15  1  0  0  0  0
 14 28  1  0  0  0  0
 14 29  1  0  0  0  0
 15 30  1  0  0  0  0
 16 22  1  0  0  0  0
 16 17  1  0  0  0  0
 16 18  1  0  0  0  0
 17 31  1  0  0  0  0
 18 23  1  0  0  0  0
 18 19  1  0  0  0  0
 19 32  1  0  0  0  0
M  END
> <s_m_source_file>
AV-unprocessed.smi

> <i_m_source_file_index>
69

> <i_lp_mmshare_version>
43012

> <i_f3d_flags>
0

> <s_epik_input>
bjFbY0hdbmMoW05IMl0pYyhjMTIpbltjSF1uMltDQEBIXTNPW0NASF0oW0NIMl1bT0hdKVtDQEBIXShbT0hdKVtDQEhdM1tPSF0=

> <s_epik_cmdline>
J2VwaWtfcHl0aG9uJywgJy1waCcsICc3LjAnLCAnLXRuJywgJzgnLCAnLW1hJywgJzIwMCcsICctbWV0YWxfYmluZGluZycsICctaW1hZScsICc8aW5maWxlLm1hZT4nLCAnLW9tYWUnLCAnPG91dGZpbGUubWFlPic=

> <r_lp_tautomer_probability>
1

> <r_epik_Ionization_Penalty>
0.000428445

> <r_epik_Ionization_Penalty_Charging>
0

> <r_epik_Ionization_Penalty_Neutral>
0.000428445

> <r_epik_State_Penalty>
-0

> <r_epik_Charging_Adjusted_Penalty>
0

> <i_epik_Tot_Q>
0

> <i_epik_Tot_abs_Q>
0

> <r_epik_Metal_State_Penalty>
-0

> <b_epik_Metal_Only>
0

> <s_epik_Chemistry_Notes>
This compound contains an acetal/aminal-like group ( X-CH(R)-Y where X, Y are N, S, or O) that may be acid/base labile, releasing an aldehyde.

> <s_lp_Force_Field>
OPLS_2005

> <r_lp_Energy>
40.109

> <b_lp_Chiralities_Consistent>
1

> <s_lp_Variant>
AV-unprocessed.smi:69-11

> <Gold.Version>
5.8.1

> <Gold.Id.Protein>
6NUR|6NUR_protein|mol2

> <Gold.PLP.Fitness>
40.8441

> <Gold.PLP.PLP>
-35.0144

> <Gold.PLP.part.hbond>
-5.2649

> <Gold.PLP.part.metal>
0.0000

> <Gold.PLP.part.buried>
-7.0436

> <Gold.PLP.part.nonpolar>
-23.1537

> <Gold.PLP.part.repulsive>
0.2479

> <Gold.PLP.ligand.clash>
0.0000

> <Gold.PLP.ligand.torsion>
0.0741

> <Gold.PLP.Chemscore.Hbond>
1.9920

> <Gold.PLP.Chemscore.CHOScore>
0.0000

> <Gold.PLP.Chemscore.Metal>
0.0000

> <Gold.Chemscore.Hbonds>
donor molecule, donor type, donor heavy atom, donor atom, acceptor molecule, acceptor atom, score
      L1  H    15    30       P1  8028  1.00
      P1  H  7989  7998       L1    17  0.90

> <Gold.PLP.Chemscore.Internal.Correction>
0.0019

> <Gold.Rescore>
     Score         DG    S(hbond)    S(metal)    S(lipo)     H(rot)  DE(clash)    DE(int)     intcor
      5.42      -5.51       1.91        0.00      33.81       4.03       0.00       0.09       ----

> <Gold.Chemscore.Fitness>
5.4201

> <Gold.Chemscore.DG>
-5.5134

> <Gold.Chemscore.ZeroCoef>
-5.4800

> <Gold.Chemscore.Hbond>
1.9127

> <Gold.Chemscore.Metal>
0.0000

> <Gold.Chemscore.Lipo>
33.8103

> <Gold.Chemscore.Internal_Hbond>
0.0000

> <Gold.Chemscore.DEClash>
0.0021

> <Gold.Chemscore.DEInternal>
0.0912

> <Gold.Chemscore.Rot>
4.0277

> <Gold.Chemscore.Internal.Correction>
   9.000000E+99

> <Gold.Chemscore.Hbonds>
donor molecule, donor type, donor heavy atom, donor atom, acceptor molecule, acceptor atom, score
      L1  H    15    30       P1  8028  0.96
      P1  H  7989  7998       L1    17  0.18

> <Gold.Chemscore.Hbond.Weighted>
-6.3885

> <Gold.Chemscore.Metal.Weighted>
-0.0000

> <Gold.Chemscore.Lipo.Weighted>
-3.9558

> <Gold.Chemscore.Internal_Hbond.Weighted>
0.0000

> <Gold.Chemscore.DEClash.Weighted>
0.0021

> <Gold.Chemscore.DEInternal.Weighted>
0.0912

> <Gold.Chemscore.Rot.Weighted>
10.3110

> <Gold.Chemscore.Internal.Correction.Weighted>
   9.000000E+99

> <Gold.Protein.RotatedTorsions>
[ 6907 6896 6895 6894 ] final  136.10 input  -60.11 | X-H torsion
[ 7974 7965 7964 7962 ] final -117.99 input  175.53 | X-H torsion
[ 8008 7997 7996 7995 ] final   95.37 input   59.86 | X-H torsion
[ 10167 10162 10161 10158 ] final    5.65 input  -65.29 | X-H torsion
[ 10718 10713 10712 10709 ] final    5.69 input   66.30 | X-H torsion
[ 10763 10752 10751 10750 ] final  -66.75 input  -60.55 | X-H torsion
[ 11005 11000 10999 10996 ] final  -50.44 input  -57.11 | X-H torsion

> <Gold.Protein.ActiveResidues>
 VAL166  LYS551  ARG553  GLY616  TRP617  ASP618  TYR619  PRO620  LYS621  CYS622 
 ASP623  PHE694  ASN695  SER759  ASP760  ASP761  ALA762  ILE779  LEU786  VAL792 
 PHE793  MET794  SER795  GLU796  ALA797  LYS798  CYS799  TRP800  GLU811  SER814 

> <Gold.Protein.RotatedAtoms>
  152.2931  133.5580  159.5569 H   0  0  0  0  0  0  0  0  0  0  0  0  # atno 6907 bound_to 6896
  150.7244  134.0400  159.3771 H   0  0  0  0  0  0  0  0  0  0  0  0  # atno 6908 bound_to 6896
  151.8305  135.0623  160.0487 H   0  0  0  0  0  0  0  0  0  0  0  0  # atno 6909 bound_to 6896
  145.0789  140.8412  143.4051 H   0  0  0  0  0  0  0  0  0  0  0  0  # atno 7974 bound_to 7965
  156.0681  140.3287  155.7543 H   0  0  0  0  0  0  0  0  0  0  0  0  # atno 8008 bound_to 7997
  155.5348  140.0596  157.2899 H   0  0  0  0  0  0  0  0  0  0  0  0  # atno 8009 bound_to 7997
  154.4516  140.1921  156.0520 H   0  0  0  0  0  0  0  0  0  0  0  0  # atno 8010 bound_to 7997
  140.6471  143.7636  150.7515 H   0  0  0  0  0  0  0  0  0  0  0  0  # atno 10167 bound_to 10162
  156.9112  130.5757  149.5647 H   0  0  0  0  0  0  0  0  0  0  0  0  # atno 10718 bound_to 10713
  154.3643  135.6109  153.5707 H   0  0  0  0  0  0  0  0  0  0  0  0  # atno 10763 bound_to 10752
  152.9792  135.5823  154.4596 H   0  0  0  0  0  0  0  0  0  0  0  0  # atno 10764 bound_to 10752
  154.4339  135.2848  155.1871 H   0  0  0  0  0  0  0  0  0  0  0  0  # atno 10765 bound_to 10752
  141.0816  133.6652  156.3731 H   0  0  0  0  0  0  0  0  0  0  0  0  # atno 11005 bound_to 11000
  145.1202  139.2699  143.5592 LP  0  0  0  0  0  0  0  0  0  0  0  0  # atno 17320 bound_to 7965
  146.3530  140.0823  142.8617 LP  0  0  0  0  0  0  0  0  0  0  0  0  # atno 17321 bound_to 7965
  140.1279  143.4552  152.2272 LP  0  0  0  0  0  0  0  0  0  0  0  0  # atno 17342 bound_to 10162
  139.5682  144.7448  151.3963 LP  0  0  0  0  0  0  0  0  0  0  0  0  # atno 17343 bound_to 10162
  156.0535  130.5600  150.9041 LP  0  0  0  0  0  0  0  0  0  0  0  0  # atno 17370 bound_to 10713
  157.5966  131.0943  150.9030 LP  0  0  0  0  0  0  0  0  0  0  0  0  # atno 17371 bound_to 10713
  140.5456  134.6077  157.5393 LP  0  0  0  0  0  0  0  0  0  0  0  0  # atno 17394 bound_to 11000
  139.9630  134.7420  156.0197 LP  0  0  0  0  0  0  0  0  0  0  0  0  # atno 17395 bound_to 11000

$$$$
