AV-unprocessed.smi:720|AV-procd|sdf|3500|dock8
  -GOLD-   22720 0493D 1   1.00000     0.00000
 Structure written by MMmdl.
 46 48  0  0  0  0  0  0  0  0  1 V2000
  143.4884  137.0929  152.7809 C   0  0  0  0  0  0  0  0  0  0  0  0
  144.8930  137.4627  152.6474 N   0  0  0  0  0  0  0  0  0  0  0  0
  145.5472  136.4544  151.8234 C   0  0  0  0  0  0  0  0  0  0  0  0
  145.5692  137.5257  153.9448 C   0  0  0  0  0  0  0  0  0  0  0  0
  147.0706  137.8708  153.8455 C   0  0  0  0  0  0  0  0  0  0  0  0
  147.3375  139.2985  153.8148 N   0  0  0  0  0  0  0  0  0  0  0  0
  146.7878  140.2564  152.9861 C   0  0  0  0  0  0  0  0  0  0  0  0
  147.3262  141.4618  153.3350 C   0  0  0  0  0  0  0  0  0  0  0  0
  148.2012  141.1280  154.4115 C   0  0  0  0  0  0  0  0  0  0  0  0
  149.0115  142.0345  155.1407 N   0  0  0  0  0  0  0  0  0  0  0  0
  150.0059  141.7621  156.0079 C   0  0  0  0  0  0  0  0  0  0  0  0
  150.4038  140.6330  156.2875 O   0  0  0  0  0  0  0  0  0  0  0  0
  150.5494  142.8519  156.5793 N   0  0  0  0  0  0  0  0  0  0  0  0
  151.6388  142.9074  157.5571 C   0  0  1  0  0  0  0  0  0  0  0  0
  152.1774  144.3394  157.7911 C   0  0  0  0  0  0  0  0  0  0  0  0
  151.9862  144.5341  159.3062 C   0  0  2  0  0  0  0  0  0  0  0  0
  152.9613  143.6182  160.0716 C   0  0  0  0  0  0  0  0  0  0  0  0
  152.3548  142.2171  159.8581 C   0  0  0  0  0  0  0  0  0  0  0  0
  151.1368  142.5124  158.9634 C   0  0  1  0  0  0  0  0  0  0  0  0
  150.6515  143.8400  159.5384 C   0  0  0  0  0  0  0  0  0  0  0  0
  148.1907  139.8409  154.7110 N   0  0  0  0  0  0  0  0  0  0  0  0
  142.9219  137.8660  153.2959 H   0  0  0  0  0  0  0  0  0  0  0  0
  143.3722  136.1564  153.3283 H   0  0  0  0  0  0  0  0  0  0  0  0
  143.0309  136.9706  151.7984 H   0  0  0  0  0  0  0  0  0  0  0  0
  146.5960  136.7071  151.6634 H   0  0  0  0  0  0  0  0  0  0  0  0
  145.0734  136.3922  150.8431 H   0  0  0  0  0  0  0  0  0  0  0  0
  145.5001  135.4689  152.2891 H   0  0  0  0  0  0  0  0  0  0  0  0
  145.0465  138.1990  154.6260 H   0  0  0  0  0  0  0  0  0  0  0  0
  145.5064  136.5342  154.3952 H   0  0  0  0  0  0  0  0  0  0  0  0
  147.5849  137.4714  154.7201 H   0  0  0  0  0  0  0  0  0  0  0  0
  147.5233  137.3872  152.9779 H   0  0  0  0  0  0  0  0  0  0  0  0
  146.0685  140.0024  152.2218 H   0  0  0  0  0  0  0  0  0  0  0  0
  147.1147  142.4195  152.8840 H   0  0  0  0  0  0  0  0  0  0  0  0
  148.7778  143.0097  155.0255 H   0  0  0  0  0  0  0  0  0  0  0  0
  150.1544  143.7424  156.3135 H   0  0  0  0  0  0  0  0  0  0  0  0
  152.4349  142.2306  157.2410 H   0  0  0  0  0  0  0  0  0  0  0  0
  153.2204  144.4429  157.4893 H   0  0  0  0  0  0  0  0  0  0  0  0
  151.5991  145.0822  157.2392 H   0  0  0  0  0  0  0  0  0  0  0  0
  152.0250  145.5772  159.6212 H   0  0  0  0  0  0  0  0  0  0  0  0
  153.9802  143.6926  159.6900 H   0  0  0  0  0  0  0  0  0  0  0  0
  152.9817  143.8692  161.1328 H   0  0  0  0  0  0  0  0  0  0  0  0
  153.0571  141.5225  159.3958 H   0  0  0  0  0  0  0  0  0  0  0  0
  152.0396  141.7879  160.8100 H   0  0  0  0  0  0  0  0  0  0  0  0
  150.3976  141.7104  158.9644 H   0  0  0  0  0  0  0  0  0  0  0  0
  150.3721  143.7797  160.5917 H   0  0  0  0  0  0  0  0  0  0  0  0
  149.8288  144.2838  158.9747 H   0  0  0  0  0  0  0  0  0  0  0  0
  1  2  1  0  0  0  0
  1 22  1  0  0  0  0
  1 23  1  0  0  0  0
  1 24  1  0  0  0  0
  2  3  1  0  0  0  0
  2  4  1  0  0  0  0
  3 25  1  0  0  0  0
  3 26  1  0  0  0  0
  3 27  1  0  0  0  0
  4  5  1  0  0  0  0
  4 28  1  0  0  0  0
  4 29  1  0  0  0  0
  5  6  1  0  0  0  0
  5 30  1  0  0  0  0
  5 31  1  0  0  0  0
  6 21  1  0  0  0  0
  6  7  1  0  0  0  0
  7  8  2  0  0  0  0
  7 32  1  0  0  0  0
  8  9  1  0  0  0  0
  8 33  1  0  0  0  0
  9 10  1  0  0  0  0
  9 21  2  0  0  0  0
 10 11  1  0  0  0  0
 10 34  1  0  0  0  0
 11 12  2  0  0  0  0
 11 13  1  0  0  0  0
 13 14  1  0  0  0  0
 13 35  1  0  0  0  0
 14 19  1  0  0  0  0
 14 15  1  0  0  0  0
 14 36  1  0  0  0  0
 15 16  1  0  0  0  0
 15 37  1  0  0  0  0
 15 38  1  0  0  0  0
 16 20  1  0  0  0  0
 16 17  1  0  0  0  0
 16 39  1  0  0  0  0
 17 18  1  0  0  0  0
 17 40  1  0  0  0  0
 17 41  1  0  0  0  0
 18 19  1  0  0  0  0
 18 42  1  0  0  0  0
 18 43  1  0  0  0  0
 19 20  1  0  0  0  0
 19 44  1  0  0  0  0
 20 45  1  0  0  0  0
 20 46  1  0  0  0  0
M  END
> <s_m_source_file>
AV-unprocessed.smi

> <i_m_source_file_index>
720

> <i_lp_mmshare_version>
43012

> <i_f3d_flags>
0

> <s_epik_input>
W0NIM11OKFtDSDNdKVtDSDJdW0NIMl1uMVtjSF1bY0hdYyhuMSlbTkhdQyg9TylbTkhdW0NASF0oW0NIMl1bQ0BIXTIzKVtDQEhdKFtDSDJdMylbQ0gyXVtDSDJdMg==

> <s_epik_cmdline>
J2VwaWtfcHl0aG9uJywgJy1waCcsICc3LjAnLCAnLXRuJywgJzgnLCAnLW1hJywgJzIwMCcsICctbWV0YWxfYmluZGluZycsICctaW1hZScsICc8aW5maWxlLm1hZT4nLCAnLW9tYWUnLCAnPG91dGZpbGUubWFlPic=

> <r_lp_tautomer_probability>
1

> <r_epik_Ionization_Penalty>
1.83819

> <r_epik_Ionization_Penalty_Charging>
0

> <r_epik_Ionization_Penalty_Neutral>
1.83819

> <r_epik_State_Penalty>
1.95467

> <r_epik_Charging_Adjusted_Penalty>
1.95467

> <i_epik_Tot_Q>
0

> <i_epik_Tot_abs_Q>
0

> <r_epik_Metal_State_Penalty>
1.95467

> <b_epik_Metal_Only>
0

> <s_lp_Force_Field>
OPLS_2005

> <r_lp_Energy>
64.3951

> <b_lp_Chiralities_Consistent>
1

> <s_lp_Variant>
AV-unprocessed.smi:720-6

> <Gold.Version>
5.8.1

> <Gold.Id.Protein>
6NUR|6NUR_protein|mol2

> <Gold.PLP.Fitness>
46.7769

> <Gold.PLP.PLP>
-38.9888

> <Gold.PLP.part.hbond>
-2.0000

> <Gold.PLP.part.metal>
0.0000

> <Gold.PLP.part.buried>
-5.2635

> <Gold.PLP.part.nonpolar>
-32.7438

> <Gold.PLP.part.repulsive>
0.5989

> <Gold.PLP.ligand.clash>
0.0000

> <Gold.PLP.ligand.torsion>
0.3994

> <Gold.PLP.Chemscore.Hbond>
1.9920

> <Gold.PLP.Chemscore.CHOScore>
0.8522

> <Gold.PLP.Chemscore.Metal>
0.0000

> <Gold.Chemscore.Hbonds>
donor molecule, donor type, donor heavy atom, donor atom, acceptor molecule, acceptor atom, score
      L1  H    10    34       P1  8028  0.99
      L1  H    13    35       P1  8028  1.00
      L1  C     7    32       P1 10175  0.86

> <Gold.PLP.Chemscore.Internal.Correction>
0.0544

> <Gold.Rescore>
     Score         DG    S(hbond)    S(metal)    S(lipo)     H(rot)  DE(clash)    DE(int)     intcor
     18.33     -20.05       1.92        0.00     103.10       1.53       0.04       1.67       ----

> <Gold.Chemscore.Fitness>
18.3286

> <Gold.Chemscore.DG>
-20.0453

> <Gold.Chemscore.ZeroCoef>
-5.4800

> <Gold.Chemscore.Hbond>
1.9229

> <Gold.Chemscore.Metal>
0.0000

> <Gold.Chemscore.Lipo>
103.0988

> <Gold.Chemscore.Internal_Hbond>
0.0000

> <Gold.Chemscore.DEClash>
0.0427

> <Gold.Chemscore.DEInternal>
1.6740

> <Gold.Chemscore.Rot>
1.5312

> <Gold.Chemscore.Internal.Correction>
   9.000000E+99

> <Gold.Chemscore.Hbonds>
donor molecule, donor type, donor heavy atom, donor atom, acceptor molecule, acceptor atom, score
      L1  H    10    34       P1  8028  0.94
      L1  H    13    35       P1  8028  0.97

> <Gold.Chemscore.Hbond.Weighted>
-6.4226

> <Gold.Chemscore.Metal.Weighted>
-0.0000

> <Gold.Chemscore.Lipo.Weighted>
-12.0626

> <Gold.Chemscore.Internal_Hbond.Weighted>
0.0000

> <Gold.Chemscore.DEClash.Weighted>
0.0427

> <Gold.Chemscore.DEInternal.Weighted>
1.6740

> <Gold.Chemscore.Rot.Weighted>
3.9199

> <Gold.Chemscore.Internal.Correction.Weighted>
   9.000000E+99

> <Gold.Protein.RotatedTorsions>
[ 6907 6896 6895 6894 ] final  179.29 input  -60.11 | X-H torsion
[ 7974 7965 7964 7962 ] final    1.13 input  175.53 | X-H torsion
[ 8008 7997 7996 7995 ] final  -61.54 input   59.86 | X-H torsion
[ 10167 10162 10161 10158 ] final   85.15 input  -65.29 | X-H torsion
[ 10718 10713 10712 10709 ] final -175.59 input   66.30 | X-H torsion
[ 10763 10752 10751 10750 ] final  140.32 input  -60.55 | X-H torsion
[ 11005 11000 10999 10996 ] final   90.42 input  -57.11 | X-H torsion

> <Gold.Protein.ActiveResidues>
 VAL166  LYS551  ARG553  GLY616  TRP617  ASP618  TYR619  PRO620  LYS621  CYS622 
 ASP623  PHE694  ASN695  SER759  ASP760  ASP761  ALA762  ILE779  LEU786  VAL792 
 PHE793  MET794  SER795  GLU796  ALA797  LYS798  CYS799  TRP800  GLU811  SER814 

> <Gold.Protein.RotatedAtoms>
  151.6741  133.3313  159.3203 H   0  0  0  0  0  0  0  0  0  0  0  0  # atno 6907 bound_to 6896
  150.7854  134.6837  159.6468 H   0  0  0  0  0  0  0  0  0  0  0  0  # atno 6908 bound_to 6896
  152.3922  134.6426  160.0155 H   0  0  0  0  0  0  0  0  0  0  0  0  # atno 6909 bound_to 6896
  146.2438  140.1034  142.8347 H   0  0  0  0  0  0  0  0  0  0  0  0  # atno 7974 bound_to 7965
  154.4453  140.1015  156.6447 H   0  0  0  0  0  0  0  0  0  0  0  0  # atno 8008 bound_to 7997
  155.5463  140.3484  155.4439 H   0  0  0  0  0  0  0  0  0  0  0  0  # atno 8009 bound_to 7997
  156.0561  140.1315  156.9984 H   0  0  0  0  0  0  0  0  0  0  0  0  # atno 8010 bound_to 7997
  139.9007  144.6331  150.8640 H   0  0  0  0  0  0  0  0  0  0  0  0  # atno 10167 bound_to 10162
  156.8021  130.9556  151.3118 H   0  0  0  0  0  0  0  0  0  0  0  0  # atno 10718 bound_to 10713
  153.9208  135.3001  155.3447 H   0  0  0  0  0  0  0  0  0  0  0  0  # atno 10763 bound_to 10752
  154.7576  135.4950  153.9407 H   0  0  0  0  0  0  0  0  0  0  0  0  # atno 10764 bound_to 10752
  153.1143  135.6767  153.9549 H   0  0  0  0  0  0  0  0  0  0  0  0  # atno 10765 bound_to 10752
  139.8856  134.8612  156.3282 H   0  0  0  0  0  0  0  0  0  0  0  0  # atno 11005 bound_to 11000
  145.0549  140.9045  143.4973 LP  0  0  0  0  0  0  0  0  0  0  0  0  # atno 17320 bound_to 7965
  145.1138  139.2739  143.5623 LP  0  0  0  0  0  0  0  0  0  0  0  0  # atno 17321 bound_to 7965
  140.7707  143.3439  151.2151 LP  0  0  0  0  0  0  0  0  0  0  0  0  # atno 17342 bound_to 10162
  139.7028  143.9505  152.2913 LP  0  0  0  0  0  0  0  0  0  0  0  0  # atno 17343 bound_to 10162
  157.6548  130.8915  149.9707 LP  0  0  0  0  0  0  0  0  0  0  0  0  # atno 17370 bound_to 10713
  156.1095  130.3651  150.0075 LP  0  0  0  0  0  0  0  0  0  0  0  0  # atno 17371 bound_to 10713
  140.9741  133.7309  156.0577 LP  0  0  0  0  0  0  0  0  0  0  0  0  # atno 17394 bound_to 11000
  140.7833  134.3700  157.5482 LP  0  0  0  0  0  0  0  0  0  0  0  0  # atno 17395 bound_to 11000

$$$$
