AV-unprocessed.smi:1628|AV-procd|sdf|6520|dock1
  -GOLD-   22720 7193D 1   1.00000     0.00000
 Structure written by MMmdl.
 55 57  0  0  0  0  0  0  0  0  2 V2000
  147.5453  140.2144  154.2168 O   0  0  0  0  0  0  0  0  0  0  0  0
  148.3614  139.4939  153.6427 C   0  0  0  0  0  0  0  0  0  0  0  0
  148.0646  138.7681  152.5564 N   0  0  0  0  0  0  0  0  0  0  0  0
  146.7481  138.7266  151.9339 C   0  0  0  0  0  0  0  0  0  0  0  0
  145.7930  137.8308  152.7471 C   0  0  0  0  0  0  0  0  0  0  0  0
  145.9955  136.3751  152.5198 N   0  3  0  0  0  0  0  0  0  0  0  0
  145.2233  135.8538  151.3608 C   0  0  0  0  0  0  0  0  0  0  0  0
  145.8563  134.6035  150.7303 C   0  0  0  0  0  0  0  0  0  0  0  0
  146.0198  133.4068  151.6833 C   0  0  0  0  0  0  0  0  0  0  0  0
  147.1807  133.5965  152.6732 C   0  0  0  0  0  0  0  0  0  0  0  0
  146.8733  134.4599  153.9114 C   0  0  0  0  0  0  0  0  0  0  0  0
  145.8085  135.5586  153.7479 C   0  0  0  0  0  0  0  0  0  0  0  0
  149.6499  139.3434  153.9945 N   0  0  0  0  0  0  0  0  0  0  0  0
  150.3276  139.8950  155.1154 C   0  0  0  0  0  0  0  0  0  0  0  0
  149.6755  140.8971  155.8595 C   0  0  0  0  0  0  0  0  0  0  0  0
  150.3347  141.4776  156.9595 C   0  0  0  0  0  0  0  0  0  0  0  0
  151.6412  141.0458  157.2880 C   0  0  0  0  0  0  0  0  0  0  0  0
  152.3236  141.6136  158.3861 N   0  0  0  0  0  0  0  0  0  0  0  0
  151.7079  142.8026  158.9702 C   0  0  0  0  0  0  0  0  0  0  0  0
  152.6874  143.4950  159.9338 C   0  0  0  0  0  0  0  0  0  0  0  0
  153.1383  142.5670  160.9147 O   0  0  0  0  0  0  0  0  0  0  0  0
  153.8346  141.4732  160.3274 C   0  0  0  0  0  0  0  0  0  0  0  0
  152.8937  140.7078  159.3820 C   0  0  0  0  0  0  0  0  0  0  0  0
  152.2757  140.0953  156.5591 N   0  0  0  0  0  0  0  0  0  0  0  0
  151.6396  139.5388  155.5069 C   0  0  0  0  0  0  0  0  0  0  0  0
  148.7934  138.2081  152.1387 H   0  0  0  0  0  0  0  0  0  0  0  0
  146.3532  139.7413  151.8626 H   0  0  0  0  0  0  0  0  0  0  0  0
  146.8593  138.3525  150.9156 H   0  0  0  0  0  0  0  0  0  0  0  0
  145.9088  138.0382  153.8118 H   0  0  0  0  0  0  0  0  0  0  0  0
  144.7579  138.0789  152.5074 H   0  0  0  0  0  0  0  0  0  0  0  0
  144.1900  135.6541  151.6481 H   0  0  0  0  0  0  0  0  0  0  0  0
  145.1757  136.6219  150.5877 H   0  0  0  0  0  0  0  0  0  0  0  0
  145.2276  134.2940  149.8947 H   0  0  0  0  0  0  0  0  0  0  0  0
  146.8208  134.8604  150.2901 H   0  0  0  0  0  0  0  0  0  0  0  0
  145.0878  133.1838  152.2040 H   0  0  0  0  0  0  0  0  0  0  0  0
  146.2385  132.5275  151.0763 H   0  0  0  0  0  0  0  0  0  0  0  0
  147.5169  132.6182  153.0188 H   0  0  0  0  0  0  0  0  0  0  0  0
  148.0350  134.0185  152.1424 H   0  0  0  0  0  0  0  0  0  0  0  0
  146.5505  133.8061  154.7222 H   0  0  0  0  0  0  0  0  0  0  0  0
  147.8054  134.9088  154.2566 H   0  0  0  0  0  0  0  0  0  0  0  0
  145.8638  136.1933  154.6336 H   0  0  0  0  0  0  0  0  0  0  0  0
  144.8071  135.1261  153.7671 H   0  0  0  0  0  0  0  0  0  0  0  0
  150.2232  138.7962  153.3693 H   0  0  0  0  0  0  0  0  0  0  0  0
  148.6800  141.2214  155.5935 H   0  0  0  0  0  0  0  0  0  0  0  0
  149.8398  142.2541  157.5233 H   0  0  0  0  0  0  0  0  0  0  0  0
  151.4001  143.5156  158.2068 H   0  0  0  0  0  0  0  0  0  0  0  0
  150.8063  142.5033  159.5063 H   0  0  0  0  0  0  0  0  0  0  0  0
  153.5386  143.9097  159.3911 H   0  0  0  0  0  0  0  0  0  0  0  0
  152.1940  144.3279  160.4350 H   0  0  0  0  0  0  0  0  0  0  0  0
  154.7152  141.8329  159.7929 H   0  0  0  0  0  0  0  0  0  0  0  0
  154.1903  140.8126  161.1182 H   0  0  0  0  0  0  0  0  0  0  0  0
  152.0877  140.2439  159.9523 H   0  0  0  0  0  0  0  0  0  0  0  0
  153.4494  139.9080  158.8910 H   0  0  0  0  0  0  0  0  0  0  0  0
  152.2208  138.8102  154.9636 H   0  0  0  0  0  0  0  0  0  0  0  0
  146.9708  136.2884  152.2718 H   0  0  0  0  0  0  0  0  0  0  0  0
  1  2  2  0  0  0  0
  2  3  1  0  0  0  0
  2 13  1  0  0  0  0
  3  4  1  0  0  0  0
  3 26  1  0  0  0  0
  4  5  1  0  0  0  0
  4 27  1  0  0  0  0
  4 28  1  0  0  0  0
  5  6  1  0  0  0  0
  5 29  1  0  0  0  0
  5 30  1  0  0  0  0
  6 12  1  0  0  0  0
  6  7  1  0  0  0  0
  6 55  1  0  0  0  0
  7  8  1  0  0  0  0
  7 31  1  0  0  0  0
  7 32  1  0  0  0  0
  8  9  1  0  0  0  0
  8 33  1  0  0  0  0
  8 34  1  0  0  0  0
  9 10  1  0  0  0  0
  9 35  1  0  0  0  0
  9 36  1  0  0  0  0
 10 11  1  0  0  0  0
 10 37  1  0  0  0  0
 10 38  1  0  0  0  0
 11 12  1  0  0  0  0
 11 39  1  0  0  0  0
 11 40  1  0  0  0  0
 12 41  1  0  0  0  0
 12 42  1  0  0  0  0
 13 14  1  0  0  0  0
 13 43  1  0  0  0  0
 14 25  1  0  0  0  0
 14 15  2  0  0  0  0
 15 16  1  0  0  0  0
 15 44  1  0  0  0  0
 16 17  2  0  0  0  0
 16 45  1  0  0  0  0
 17 18  1  0  0  0  0
 17 24  1  0  0  0  0
 18 23  1  0  0  0  0
 18 19  1  0  0  0  0
 19 20  1  0  0  0  0
 19 46  1  0  0  0  0
 19 47  1  0  0  0  0
 20 21  1  0  0  0  0
 20 48  1  0  0  0  0
 20 49  1  0  0  0  0
 21 22  1  0  0  0  0
 22 23  1  0  0  0  0
 22 50  1  0  0  0  0
 22 51  1  0  0  0  0
 23 52  1  0  0  0  0
 23 53  1  0  0  0  0
 24 25  2  0  0  0  0
 25 54  1  0  0  0  0
M  CHG  1   6   1
M  END
> <s_m_source_file>
AV-unprocessed.smi

> <i_m_source_file_index>
1628

> <i_lp_mmshare_version>
43012

> <i_f3d_flags>
0

> <s_epik_input>
W0NIMl0xW0NIMl1bQ0gyXVtDSDJdW0NIMl1bQ0gyXU4xW0NIMl1bQ0gyXVtOSF1DKD1PKVtOSF1jMltjSF1bY0hdYyhuW2NIXTIpTjNbQ0gyXVtDSDJdT1tDSDJdW0NIMl0z

> <s_epik_cmdline>
J2VwaWtfcHl0aG9uJywgJy1waCcsICc3LjAnLCAnLXRuJywgJzgnLCAnLW1hJywgJzIwMCcsICctbWV0YWxfYmluZGluZycsICctaW1hZScsICc8aW5maWxlLm1hZT4nLCAnLW9tYWUnLCAnPG91dGZpbGUubWFlPic=

> <r_lp_tautomer_probability>
1

> <r_epik_Ionization_Penalty>
0.00380107

> <r_epik_Ionization_Penalty_Charging>
0.00211816

> <r_epik_Ionization_Penalty_Neutral>
0.00168291

> <r_epik_State_Penalty>
-0

> <r_epik_Charging_Adjusted_Penalty>
0.00211816

> <i_epik_Tot_Q>
1

> <i_epik_Tot_abs_Q>
1

> <r_epik_Metal_State_Penalty>
-0

> <b_epik_Metal_Only>
0

> <s_lp_Force_Field>
OPLS_2005

> <r_lp_Energy>
41.9459

> <b_lp_Chiralities_Consistent>
1

> <s_lp_Variant>
AV-unprocessed.smi:1628-1

> <Gold.Version>
5.8.1

> <Gold.Id.Protein>
6NUR|6NUR_protein|mol2

> <Gold.PLP.Fitness>
55.1099

> <Gold.PLP.PLP>
-45.2890

> <Gold.PLP.part.hbond>
-4.6803

> <Gold.PLP.part.metal>
0.0000

> <Gold.PLP.part.buried>
-2.4190

> <Gold.PLP.part.nonpolar>
-37.7183

> <Gold.PLP.part.repulsive>
0.3261

> <Gold.PLP.ligand.clash>
0.0000

> <Gold.PLP.ligand.torsion>
0.8061

> <Gold.PLP.Chemscore.Hbond>
3.6560

> <Gold.PLP.Chemscore.CHOScore>
0.0000

> <Gold.PLP.Chemscore.Metal>
0.0000

> <Gold.Chemscore.Hbonds>
donor molecule, donor type, donor heavy atom, donor atom, acceptor molecule, acceptor atom, score
      L1  H     3    26       P1  7948  0.66
      L1  H     6    55       P1  7948  2.00
      P1  H  7997  8009       L1    24  0.93

> <Gold.PLP.Chemscore.Internal.Correction>
0.4650

> <Gold.Rescore>
     Score         DG    S(hbond)    S(metal)    S(lipo)     H(rot)  DE(clash)    DE(int)     intcor
     19.88     -22.53       2.53        0.00     108.52       1.60       0.41       2.23       ----

> <Gold.Chemscore.Fitness>
19.8839

> <Gold.Chemscore.DG>
-22.5267

> <Gold.Chemscore.ZeroCoef>
-5.4800

> <Gold.Chemscore.Hbond>
2.5271

> <Gold.Chemscore.Metal>
0.0000

> <Gold.Chemscore.Lipo>
108.5153

> <Gold.Chemscore.Internal_Hbond>
0.0000

> <Gold.Chemscore.DEClash>
0.4083

> <Gold.Chemscore.DEInternal>
2.2346

> <Gold.Chemscore.Rot>
1.5976

> <Gold.Chemscore.Internal.Correction>
   9.000000E+99

> <Gold.Chemscore.Hbonds>
donor molecule, donor type, donor heavy atom, donor atom, acceptor molecule, acceptor atom, score
      L1  H     3    26       P1  7948  0.64
      L1  H     6    55       P1  7948  0.95
      P1  H  7997  8009       L1    24  0.77

> <Gold.Chemscore.Hbond.Weighted>
-8.4404

> <Gold.Chemscore.Metal.Weighted>
-0.0000

> <Gold.Chemscore.Lipo.Weighted>
-12.6963

> <Gold.Chemscore.Internal_Hbond.Weighted>
0.0000

> <Gold.Chemscore.DEClash.Weighted>
0.4083

> <Gold.Chemscore.DEInternal.Weighted>
2.2346

> <Gold.Chemscore.Rot.Weighted>
4.0899

> <Gold.Chemscore.Internal.Correction.Weighted>
   9.000000E+99

> <Gold.Protein.RotatedTorsions>
[ 6907 6896 6895 6894 ] final  -75.08 input  -60.11 | X-H torsion
[ 7974 7965 7964 7962 ] final  -29.13 input  175.53 | X-H torsion
[ 8008 7997 7996 7995 ] final -167.50 input   59.86 | X-H torsion
[ 10167 10162 10161 10158 ] final  -19.35 input  -65.29 | X-H torsion
[ 10718 10713 10712 10709 ] final   98.96 input   66.30 | X-H torsion
[ 10763 10752 10751 10750 ] final   69.43 input  -60.55 | X-H torsion
[ 11005 11000 10999 10996 ] final   90.19 input  -57.11 | X-H torsion

> <Gold.Protein.ActiveResidues>
 VAL166  LYS551  ARG553  GLY616  TRP617  ASP618  TYR619  PRO620  LYS621  CYS622 
 ASP623  PHE694  ASN695  SER759  ASP760  ASP761  ALA762  ILE779  LEU786  VAL792 
 PHE793  MET794  SER795  GLU796  ALA797  LYS798  CYS799  TRP800  GLU811  SER814 

> <Gold.Protein.RotatedAtoms>
  150.7071  134.4774  159.5453 H   0  0  0  0  0  0  0  0  0  0  0  0  # atno 6907 bound_to 6896
  152.2418  134.8218  160.0468 H   0  0  0  0  0  0  0  0  0  0  0  0  # atno 6908 bound_to 6896
  151.8996  133.3500  159.3863 H   0  0  0  0  0  0  0  0  0  0  0  0  # atno 6909 bound_to 6896
  146.1238  140.5373  142.8723 H   0  0  0  0  0  0  0  0  0  0  0  0  # atno 7974 bound_to 7965
  155.8785  140.1005  157.1501 H   0  0  0  0  0  0  0  0  0  0  0  0  # atno 8008 bound_to 7997
  154.4003  140.1333  156.4230 H   0  0  0  0  0  0  0  0  0  0  0  0  # atno 8009 bound_to 7997
  155.7670  140.3462  155.5229 H   0  0  0  0  0  0  0  0  0  0  0  0  # atno 8010 bound_to 7997
  140.7267  143.4827  151.0096 H   0  0  0  0  0  0  0  0  0  0  0  0  # atno 10167 bound_to 10162
  157.6885  131.0655  150.4875 H   0  0  0  0  0  0  0  0  0  0  0  0  # atno 10718 bound_to 10713
  153.0287  135.5211  154.7287 H   0  0  0  0  0  0  0  0  0  0  0  0  # atno 10763 bound_to 10752
  154.6321  135.2901  155.0206 H   0  0  0  0  0  0  0  0  0  0  0  0  # atno 10764 bound_to 10752
  154.1154  135.6615  153.4945 H   0  0  0  0  0  0  0  0  0  0  0  0  # atno 10765 bound_to 10752
  139.8860  134.8598  156.3250 H   0  0  0  0  0  0  0  0  0  0  0  0  # atno 11005 bound_to 11000
  144.7623  140.5450  143.6727 LP  0  0  0  0  0  0  0  0  0  0  0  0  # atno 17320 bound_to 7965
  145.5409  139.1475  143.3448 LP  0  0  0  0  0  0  0  0  0  0  0  0  # atno 17321 bound_to 7965
  139.8526  143.7418  152.3177 LP  0  0  0  0  0  0  0  0  0  0  0  0  # atno 17342 bound_to 10162
  139.7605  144.7508  151.0371 LP  0  0  0  0  0  0  0  0  0  0  0  0  # atno 17343 bound_to 10162
  156.5203  130.4160  149.6254 LP  0  0  0  0  0  0  0  0  0  0  0  0  # atno 17370 bound_to 10713
  156.3160  130.7255  151.2157 LP  0  0  0  0  0  0  0  0  0  0  0  0  # atno 17371 bound_to 10713
  140.9761  133.7296  156.0605 LP  0  0  0  0  0  0  0  0  0  0  0  0  # atno 17394 bound_to 11000
  140.7809  134.3727  157.5487 LP  0  0  0  0  0  0  0  0  0  0  0  0  # atno 17395 bound_to 11000

$$$$
