AV-unprocessed.smi:2324|AV-procd|sdf|9294|dock6
  -GOLD-   2272012513D 1   1.00000     0.00000
 Structure written by MMmdl.
 37 39  0  0  0  0  0  0  0  0  1 V2000
  146.8140  138.1119  155.1817 O   0  0  0  0  0  0  0  0  0  0  0  0
  147.3535  137.5895  154.2078 C   0  0  0  0  0  0  0  0  0  0  0  0
  146.6310  136.8904  153.3067 N   0  0  0  0  0  0  0  0  0  0  0  0
  145.2381  136.5955  153.2340 C   0  0  0  0  0  0  0  0  0  0  0  0
  144.8596  135.8052  152.1274 C   0  0  0  0  0  0  0  0  0  0  0  0
  143.5037  135.4679  151.9772 C   0  0  0  0  0  0  0  0  0  0  0  0
  142.6102  135.9466  152.9502 C   0  0  0  0  0  0  0  0  0  0  0  0
  143.0140  136.7009  153.9948 N   0  0  0  0  0  0  0  0  0  0  0  0
  144.3061  137.0171  154.1298 N   0  0  0  0  0  0  0  0  0  0  0  0
  148.6737  137.6787  153.9758 N   0  0  0  0  0  0  0  0  0  0  0  0
  149.6356  138.3846  154.8161 C   0  0  1  0  0  0  0  0  0  0  0  0
  151.0626  138.0877  154.3370 C   0  0  0  0  0  0  0  0  0  0  0  0
  152.0842  138.9106  155.1363 C   0  0  0  0  0  0  0  0  0  0  0  0
  151.7872  140.3025  155.0428 O   0  0  0  0  0  0  0  0  0  0  0  0
  150.4934  140.6848  155.5138 C   0  0  2  0  0  0  0  0  0  0  0  0
  150.3848  140.5782  157.0291 C   0  0  0  0  0  0  0  0  0  0  0  0
  149.6080  141.6051  157.8192 C   0  0  0  0  0  0  0  0  0  0  0  0
  151.1135  141.5531  157.9238 C   0  0  0  0  0  0  0  0  0  0  0  0
  149.3938  139.9033  154.7681 C   0  0  0  0  0  0  0  0  0  0  0  0
  147.1756  136.5080  152.5473 H   0  0  0  0  0  0  0  0  0  0  0  0
  145.5892  135.4640  151.4073 H   0  0  0  0  0  0  0  0  0  0  0  0
  143.1619  134.8661  151.1482 H   0  0  0  0  0  0  0  0  0  0  0  0
  141.5554  135.7232  152.8907 H   0  0  0  0  0  0  0  0  0  0  0  0
  149.0384  137.2224  153.1513 H   0  0  0  0  0  0  0  0  0  0  0  0
  149.5357  138.0301  155.8434 H   0  0  0  0  0  0  0  0  0  0  0  0
  151.2821  137.0240  154.4351 H   0  0  0  0  0  0  0  0  0  0  0  0
  151.1574  138.3297  153.2774 H   0  0  0  0  0  0  0  0  0  0  0  0
  152.1101  138.5915  156.1783 H   0  0  0  0  0  0  0  0  0  0  0  0
  153.0852  138.7442  154.7384 H   0  0  0  0  0  0  0  0  0  0  0  0
  150.3794  141.7389  155.2581 H   0  0  0  0  0  0  0  0  0  0  0  0
  150.3146  139.5601  157.4049 H   0  0  0  0  0  0  0  0  0  0  0  0
  149.1700  142.4394  157.2748 H   0  0  0  0  0  0  0  0  0  0  0  0
  149.0307  141.2495  158.6700 H   0  0  0  0  0  0  0  0  0  0  0  0
  151.5416  141.1641  158.8454 H   0  0  0  0  0  0  0  0  0  0  0  0
  151.6775  142.3535  157.4490 H   0  0  0  0  0  0  0  0  0  0  0  0
  149.3795  140.2304  153.7274 H   0  0  0  0  0  0  0  0  0  0  0  0
  148.4145  140.1511  155.1794 H   0  0  0  0  0  0  0  0  0  0  0  0
  1  2  2  0  0  0  0
  2  3  1  0  0  0  0
  2 10  1  0  0  0  0
  3  4  1  0  0  0  0
  3 20  1  0  0  0  0
  4  9  1  0  0  0  0
  4  5  2  0  0  0  0
  5  6  1  0  0  0  0
  5 21  1  0  0  0  0
  6  7  2  0  0  0  0
  6 22  1  0  0  0  0
  7  8  1  0  0  0  0
  7 23  1  0  0  0  0
  8  9  2  0  0  0  0
 10 11  1  0  0  0  0
 10 24  1  0  0  0  0
 11 19  1  0  0  0  0
 11 12  1  0  0  0  0
 11 25  1  0  0  0  0
 12 13  1  0  0  0  0
 12 26  1  0  0  0  0
 12 27  1  0  0  0  0
 13 14  1  0  0  0  0
 13 28  1  0  0  0  0
 13 29  1  0  0  0  0
 14 15  1  0  0  0  0
 15 16  1  0  0  0  0
 15 19  1  0  0  0  0
 15 30  1  0  0  0  0
 16 18  1  0  0  0  0
 16 17  1  0  0  0  0
 16 31  1  0  0  0  0
 17 18  1  0  0  0  0
 17 32  1  0  0  0  0
 17 33  1  0  0  0  0
 18 34  1  0  0  0  0
 18 35  1  0  0  0  0
 19 36  1  0  0  0  0
 19 37  1  0  0  0  0
M  END
> <s_m_source_file>
AV-unprocessed.smi

> <i_m_source_file_index>
2324

> <i_lp_mmshare_version>
43012

> <i_f3d_flags>
0

> <s_epik_input>
bjFuW2NIXVtjSF1bY0hdYzFbTkhdQyg9TylbTkhdW0NAQEhdMltDSDJdW0NIMl1PW0NASF0oW0NIMl0yKVtDSF0zW0NIMl1bQ0gyXTM=

> <s_epik_cmdline>
J2VwaWtfcHl0aG9uJywgJy1waCcsICc3LjAnLCAnLXRuJywgJzgnLCAnLW1hJywgJzIwMCcsICctbWV0YWxfYmluZGluZycsICctaW1hZScsICc8aW5maWxlLm1hZT4nLCAnLW9tYWUnLCAnPG91dGZpbGUubWFlPic=

> <r_lp_tautomer_probability>
1

> <r_epik_Ionization_Penalty>
0.00521499

> <r_epik_Ionization_Penalty_Charging>
0

> <r_epik_Ionization_Penalty_Neutral>
0.00521499

> <r_epik_State_Penalty>
-0

> <r_epik_Charging_Adjusted_Penalty>
0

> <i_epik_Tot_Q>
0

> <i_epik_Tot_abs_Q>
0

> <r_epik_Metal_State_Penalty>
-0

> <b_epik_Metal_Only>
0

> <s_lp_Force_Field>
OPLS_2005

> <r_lp_Energy>
28.1305

> <b_lp_Chiralities_Consistent>
1

> <s_lp_Variant>
AV-unprocessed.smi:2324-4

> <Gold.Version>
5.8.1

> <Gold.Id.Protein>
6NUR|6NUR_protein|mol2

> <Gold.PLP.Fitness>
34.7129

> <Gold.PLP.PLP>
-26.5182

> <Gold.PLP.part.hbond>
-2.9597

> <Gold.PLP.part.metal>
0.0000

> <Gold.PLP.part.buried>
-3.9842

> <Gold.PLP.part.nonpolar>
-20.4165

> <Gold.PLP.part.repulsive>
0.2307

> <Gold.PLP.ligand.clash>
0.0000

> <Gold.PLP.ligand.torsion>
0.6304

> <Gold.PLP.Chemscore.Hbond>
2.7920

> <Gold.PLP.Chemscore.CHOScore>
0.0000

> <Gold.PLP.Chemscore.Metal>
0.0000

> <Gold.Chemscore.Hbonds>
donor molecule, donor type, donor heavy atom, donor atom, acceptor molecule, acceptor atom, score
      L1  H     3    20       P1  7948  0.93
      L1  H    10    24       P1  7948  1.00
      P1  H  7989  7998       L1    14  0.81

> <Gold.PLP.Chemscore.Internal.Correction>
1.0794

> <Gold.Rescore>
     Score         DG    S(hbond)    S(metal)    S(lipo)     H(rot)  DE(clash)    DE(int)     intcor
     15.16     -17.03       2.40        0.00      57.54       1.25       0.00       1.87       ----

> <Gold.Chemscore.Fitness>
15.1602

> <Gold.Chemscore.DG>
-17.0343

> <Gold.Chemscore.ZeroCoef>
-5.4800

> <Gold.Chemscore.Hbond>
2.4000

> <Gold.Chemscore.Metal>
0.0000

> <Gold.Chemscore.Lipo>
57.5392

> <Gold.Chemscore.Internal_Hbond>
0.0000

> <Gold.Chemscore.DEClash>
0.0000

> <Gold.Chemscore.DEInternal>
1.8740

> <Gold.Chemscore.Rot>
1.2476

> <Gold.Chemscore.Internal.Correction>
   9.000000E+99

> <Gold.Chemscore.Hbonds>
donor molecule, donor type, donor heavy atom, donor atom, acceptor molecule, acceptor atom, score
      L1  H     3    20       P1  7948  0.89
      L1  H    10    24       P1  7948  0.97
      P1  H  7989  7998       L1    14  0.16

> <Gold.Chemscore.Hbond.Weighted>
-8.0160

> <Gold.Chemscore.Metal.Weighted>
-0.0000

> <Gold.Chemscore.Lipo.Weighted>
-6.7321

> <Gold.Chemscore.Internal_Hbond.Weighted>
0.0000

> <Gold.Chemscore.DEClash.Weighted>
0.0000

> <Gold.Chemscore.DEInternal.Weighted>
1.8740

> <Gold.Chemscore.Rot.Weighted>
3.1938

> <Gold.Chemscore.Internal.Correction.Weighted>
   9.000000E+99

> <Gold.Protein.RotatedTorsions>
[ 6907 6896 6895 6894 ] final -172.49 input  -60.11 | X-H torsion
[ 7974 7965 7964 7962 ] final  114.75 input  175.53 | X-H torsion
[ 8008 7997 7996 7995 ] final -105.87 input   59.86 | X-H torsion
[ 10167 10162 10161 10158 ] final   41.92 input  -65.29 | X-H torsion
[ 10718 10713 10712 10709 ] final  -34.94 input   66.30 | X-H torsion
[ 10763 10752 10751 10750 ] final  109.53 input  -60.55 | X-H torsion
[ 11005 11000 10999 10996 ] final  -26.95 input  -57.11 | X-H torsion

> <Gold.Protein.ActiveResidues>
 VAL166  LYS551  ARG553  GLY616  TRP617  ASP618  TYR619  PRO620  LYS621  CYS622 
 ASP623  PHE694  ASN695  SER759  ASP760  ASP761  ALA762  ILE779  LEU786  VAL792 
 PHE793  MET794  SER795  GLU796  ALA797  LYS798  CYS799  TRP800  GLU811  SER814 

> <Gold.Protein.RotatedAtoms>
  151.5408  133.3433  159.2934 H   0  0  0  0  0  0  0  0  0  0  0  0  # atno 6907 bound_to 6896
  150.8537  134.7872  159.7040 H   0  0  0  0  0  0  0  0  0  0  0  0  # atno 6908 bound_to 6896
  152.4576  134.5265  159.9850 H   0  0  0  0  0  0  0  0  0  0  0  0  # atno 6909 bound_to 6896
  145.2005  139.2955  143.4321 H   0  0  0  0  0  0  0  0  0  0  0  0  # atno 7974 bound_to 7965
  154.9062  140.0411  157.1921 H   0  0  0  0  0  0  0  0  0  0  0  0  # atno 8008 bound_to 7997
  154.8394  140.2912  155.5648 H   0  0  0  0  0  0  0  0  0  0  0  0  # atno 8009 bound_to 7997
  156.2991  140.2485  156.3333 H   0  0  0  0  0  0  0  0  0  0  0  0  # atno 8010 bound_to 7997
  140.3595  144.2246  150.6139 H   0  0  0  0  0  0  0  0  0  0  0  0  # atno 10167 bound_to 10162
  156.3445  130.4299  149.7758 H   0  0  0  0  0  0  0  0  0  0  0  0  # atno 10718 bound_to 10713
  153.4360  135.3777  155.2199 H   0  0  0  0  0  0  0  0  0  0  0  0  # atno 10763 bound_to 10752
  154.8752  135.3851  154.4210 H   0  0  0  0  0  0  0  0  0  0  0  0  # atno 10764 bound_to 10752
  153.4749  135.7087  153.6035 H   0  0  0  0  0  0  0  0  0  0  0  0  # atno 10765 bound_to 10752
  140.9075  133.7482  156.0626 H   0  0  0  0  0  0  0  0  0  0  0  0  # atno 11005 bound_to 11000
  146.3418  140.2248  142.8592 LP  0  0  0  0  0  0  0  0  0  0  0  0  # atno 17320 bound_to 7965
  144.9952  140.8583  143.5315 LP  0  0  0  0  0  0  0  0  0  0  0  0  # atno 17321 bound_to 7965
  140.5141  143.2283  151.8491 LP  0  0  0  0  0  0  0  0  0  0  0  0  # atno 17342 bound_to 10162
  139.4816  144.4915  151.9178 LP  0  0  0  0  0  0  0  0  0  0  0  0  # atno 17343 bound_to 10162
  156.4981  130.8116  151.3122 LP  0  0  0  0  0  0  0  0  0  0  0  0  # atno 17370 bound_to 10713
  157.7452  130.9953  150.2740 LP  0  0  0  0  0  0  0  0  0  0  0  0  # atno 17371 bound_to 10713
  140.8152  134.3353  157.5399 LP  0  0  0  0  0  0  0  0  0  0  0  0  # atno 17394 bound_to 11000
  139.8752  134.9277  156.3432 LP  0  0  0  0  0  0  0  0  0  0  0  0  # atno 17395 bound_to 11000

$$$$
