AV-unprocessed.smi:102|AV-procd|sdf|966|dock7
  -GOLD-   2262017513D 1   1.00000     0.00000
 Structure written by MMmdl.
 43 44  0  0  0  0  0  0  0  0  2 V2000
  146.4731  129.7004  153.0299 C   0  0  0  0  0  0  0  0  0  0  0  0
  147.5564  130.5999  153.6102 C   0  0  0  0  0  0  0  0  0  0  0  0
  148.2263  130.2552  154.5838 O   0  0  0  0  0  0  0  0  0  0  0  0
  147.6673  131.7574  152.9462 O   0  0  0  0  0  0  0  0  0  0  0  0
  148.7348  132.6461  153.2388 C   0  0  0  0  0  0  0  0  0  0  0  0
  148.4148  133.4739  154.4941 C   0  0  1  0  0  0  0  0  0  0  0  0
  149.4718  134.3639  154.8062 O   0  0  0  0  0  0  0  0  0  0  0  0
  148.9795  135.3475  155.6585 C   0  0  1  0  0  0  0  0  0  0  0  0
  149.7542  136.6216  155.4142 N   0  0  0  0  0  0  0  0  0  0  0  0
  149.0766  137.7464  154.9801 C   0  0  0  0  0  0  0  0  0  0  0  0
  149.7152  138.9182  154.7855 C   0  0  0  0  0  0  0  0  0  0  0  0
  149.0285  139.9922  154.3588 F   0  0  0  0  0  0  0  0  0  0  0  0
  151.1505  139.0106  155.0455 C   0  0  0  0  0  0  0  0  0  0  0  0
  151.7310  140.0779  154.8539 O   0  0  0  0  0  0  0  0  0  0  0  0
  151.7895  137.8936  155.4984 N   0  5  0  0  0  0  0  0  0  0  0  0
  151.1451  136.7082  155.7085 C   0  0  0  0  0  0  0  0  0  0  0  0
  151.7137  135.7093  156.1475 O   0  0  0  0  0  0  0  0  0  0  0  0
  147.4677  135.5029  155.4014 C   0  0  2  0  0  0  0  0  0  0  0  0
  146.7549  135.4174  156.6287 O   0  0  0  0  0  0  0  0  0  0  0  0
  146.9583  136.3329  157.5924 C   0  0  0  0  0  0  0  0  0  0  0  0
  146.0907  136.0862  158.8194 C   0  0  0  0  0  0  0  0  0  0  0  0
  147.7356  137.2859  157.5359 O   0  0  0  0  0  0  0  0  0  0  0  0
  147.1330  134.3256  154.4872 C   0  0  1  0  0  0  0  0  0  0  0  0
  146.7691  134.8424  153.2117 O   0  0  0  0  0  0  0  0  0  0  0  0
  145.6590  135.5835  153.0557 C   0  0  0  0  0  0  0  0  0  0  0  0
  145.4308  135.9839  151.6045 C   0  0  0  0  0  0  0  0  0  0  0  0
  144.8763  135.9185  153.9448 O   0  0  0  0  0  0  0  0  0  0  0  0
  145.6581  130.2978  152.6202 H   0  0  0  0  0  0  0  0  0  0  0  0
  146.0669  129.0469  153.8018 H   0  0  0  0  0  0  0  0  0  0  0  0
  146.8842  129.0821  152.2318 H   0  0  0  0  0  0  0  0  0  0  0  0
  149.6623  132.0926  153.3914 H   0  0  0  0  0  0  0  0  0  0  0  0
  148.8871  133.3071  152.3850 H   0  0  0  0  0  0  0  0  0  0  0  0
  148.3366  132.7858  155.3373 H   0  0  0  0  0  0  0  0  0  0  0  0
  149.1952  135.0528  156.6869 H   0  0  0  0  0  0  0  0  0  0  0  0
  148.0150  137.6926  154.7888 H   0  0  0  0  0  0  0  0  0  0  0  0
  147.2691  136.4590  154.9149 H   0  0  0  0  0  0  0  0  0  0  0  0
  146.1525  135.0419  159.1261 H   0  0  0  0  0  0  0  0  0  0  0  0
  145.0496  136.3230  158.5989 H   0  0  0  0  0  0  0  0  0  0  0  0
  146.4186  136.7100  159.6510 H   0  0  0  0  0  0  0  0  0  0  0  0
  146.3080  133.7474  154.9062 H   0  0  0  0  0  0  0  0  0  0  0  0
  145.7921  135.2059  150.9313 H   0  0  0  0  0  0  0  0  0  0  0  0
  145.9616  136.9094  151.3815 H   0  0  0  0  0  0  0  0  0  0  0  0
  144.3686  136.1378  151.4143 H   0  0  0  0  0  0  0  0  0  0  0  0
  1  2  1  0  0  0  0
  1 28  1  0  0  0  0
  1 29  1  0  0  0  0
  1 30  1  0  0  0  0
  2  3  2  0  0  0  0
  2  4  1  0  0  0  0
  4  5  1  0  0  0  0
  5  6  1  0  0  0  0
  5 31  1  0  0  0  0
  5 32  1  0  0  0  0
  6 23  1  0  0  0  0
  6  7  1  0  0  0  0
  6 33  1  0  0  0  0
  7  8  1  0  0  0  0
  8  9  1  0  0  0  0
  8 18  1  0  0  0  0
  8 34  1  0  0  0  0
  9 16  1  0  0  0  0
  9 10  1  0  0  0  0
 10 11  2  0  0  0  0
 10 35  1  0  0  0  0
 11 12  1  0  0  0  0
 11 13  1  0  0  0  0
 13 14  2  0  0  0  0
 13 15  1  0  0  0  0
 15 16  1  0  0  0  0
 16 17  2  0  0  0  0
 18 19  1  0  0  0  0
 18 23  1  0  0  0  0
 18 36  1  0  0  0  0
 19 20  1  0  0  0  0
 20 21  1  0  0  0  0
 20 22  2  0  0  0  0
 21 37  1  0  0  0  0
 21 38  1  0  0  0  0
 21 39  1  0  0  0  0
 23 24  1  0  0  0  0
 23 40  1  0  0  0  0
 24 25  1  0  0  0  0
 25 26  1  0  0  0  0
 25 27  2  0  0  0  0
 26 41  1  0  0  0  0
 26 42  1  0  0  0  0
 26 43  1  0  0  0  0
M  CHG  1  15  -1
M  END
> <s_m_source_file>
AV-unprocessed.smi

> <i_m_source_file_index>
102

> <i_lp_mmshare_version>
43012

> <i_f3d_flags>
0

> <s_epik_input>
W0NIM11DKD1PKU9bQ0gyXVtDQEBIXTFPW0NASF0oW0NAQEhdKE9DKD1PKVtDSDNdKVtDQEhdMU9DKD1PKVtDSDNdKW4yW2NIXWMoRiljKD1PKVtuSF1jMj1P

> <s_epik_cmdline>
J2VwaWtfcHl0aG9uJywgJy1waCcsICc3LjAnLCAnLXRuJywgJzgnLCAnLW1hJywgJzIwMCcsICctbWV0YWxfYmluZGluZycsICctaW1hZScsICc8aW5maWxlLm1hZT4nLCAnLW9tYWUnLCAnPG91dGZpbGUubWFlPic=

> <r_epik_Ionization_Penalty>
1.40304

> <r_epik_Ionization_Penalty_Charging>
1.43915e-08

> <r_epik_Ionization_Penalty_Neutral>
1.40304

> <r_epik_State_Penalty>
1.48536

> <r_epik_Charging_Adjusted_Penalty>
1.48536

> <i_epik_Tot_Q>
-1

> <i_epik_Tot_abs_Q>
1

> <r_epik_Metal_State_Penalty>
0.00663881

> <b_epik_Metal_Only>
0

> <s_epik_Chemistry_Notes>
This compound has an ester and may undergo hydrolysis at high or low pH. This compound contains an acetal/aminal-like group ( X-CH(R)-Y where X, Y are N, S, or O) that may be acid/base labile, releasing an aldehyde.

> <s_lp_Force_Field>
OPLS_2005

> <r_lp_Energy>
16.3749

> <b_lp_Chiralities_Consistent>
1

> <s_lp_Variant>
AV-unprocessed.smi:102-22

> <Gold.Version>
5.8.1

> <Gold.Id.Protein>
6NUR|6NUR_protein|mol2

> <Gold.PLP.Fitness>
32.5186

> <Gold.PLP.PLP>
-26.8678

> <Gold.PLP.part.hbond>
-1.8951

> <Gold.PLP.part.metal>
0.0000

> <Gold.PLP.part.buried>
-6.5649

> <Gold.PLP.part.nonpolar>
-21.6614

> <Gold.PLP.part.repulsive>
2.6596

> <Gold.PLP.ligand.clash>
0.0000

> <Gold.PLP.ligand.torsion>
0.2113

> <Gold.PLP.Chemscore.Hbond>
1.9760

> <Gold.PLP.Chemscore.CHOScore>
0.0000

> <Gold.PLP.Chemscore.Metal>
0.0000

> <Gold.Chemscore.Hbonds>
donor molecule, donor type, donor heavy atom, donor atom, acceptor molecule, acceptor atom, score
      P1  H  7989  7998       L1    14  0.99
      P1  H 10752 10763       L1    17  1.00

> <Gold.PLP.Chemscore.Internal.Correction>
0.1453

> <Gold.Rescore>
     Score         DG    S(hbond)    S(metal)    S(lipo)     H(rot)  DE(clash)    DE(int)     intcor
      2.12      -5.80       1.97        0.00      33.76       4.00       0.01       3.66       ----

> <Gold.Chemscore.Fitness>
2.1210

> <Gold.Chemscore.DG>
-5.7977

> <Gold.Chemscore.ZeroCoef>
-5.4800

> <Gold.Chemscore.Hbond>
1.9746

> <Gold.Chemscore.Metal>
0.0000

> <Gold.Chemscore.Lipo>
33.7596

> <Gold.Chemscore.Internal_Hbond>
0.0000

> <Gold.Chemscore.DEClash>
0.0126

> <Gold.Chemscore.DEInternal>
3.6641

> <Gold.Chemscore.Rot>
3.9951

> <Gold.Chemscore.Internal.Correction>
   9.000000E+99

> <Gold.Chemscore.Hbonds>
donor molecule, donor type, donor heavy atom, donor atom, acceptor molecule, acceptor atom, score
      P1  H  7989  7998       L1    14  0.89
      P1  H 10752 10763       L1    17  0.55

> <Gold.Chemscore.Hbond.Weighted>
-6.5953

> <Gold.Chemscore.Metal.Weighted>
-0.0000

> <Gold.Chemscore.Lipo.Weighted>
-3.9499

> <Gold.Chemscore.Internal_Hbond.Weighted>
0.0000

> <Gold.Chemscore.DEClash.Weighted>
0.0126

> <Gold.Chemscore.DEInternal.Weighted>
3.6641

> <Gold.Chemscore.Rot.Weighted>
10.2274

> <Gold.Chemscore.Internal.Correction.Weighted>
   9.000000E+99

> <Gold.Protein.RotatedTorsions>
[ 6907 6896 6895 6894 ] final  -58.71 input  -60.11 | X-H torsion
[ 7974 7965 7964 7962 ] final  -21.81 input  175.53 | X-H torsion
[ 8008 7997 7996 7995 ] final   66.00 input   59.86 | X-H torsion
[ 10167 10162 10161 10158 ] final  161.81 input  -65.29 | X-H torsion
[ 10718 10713 10712 10709 ] final   29.86 input   66.30 | X-H torsion
[ 10763 10752 10751 10750 ] final   92.61 input  -60.55 | X-H torsion
[ 11005 11000 10999 10996 ] final  -91.42 input  -57.11 | X-H torsion

> <Gold.Protein.ActiveResidues>
 VAL166  LYS551  ARG553  GLY616  TRP617  ASP618  TYR619  PRO620  LYS621  CYS622 
 ASP623  PHE694  ASN695  SER759  ASP760  ASP761  ALA762  ILE779  LEU786  VAL792 
 PHE793  MET794  SER795  GLU796  ALA797  LYS798  CYS799  TRP800  GLU811  SER814 

> <Gold.Protein.RotatedAtoms>
  150.7986  134.7064  159.6578 H   0  0  0  0  0  0  0  0  0  0  0  0  # atno 6907 bound_to 6896
  152.4101  134.6136  160.0042 H   0  0  0  0  0  0  0  0  0  0  0  0  # atno 6908 bound_to 6896
  151.6382  133.3290  159.3160 H   0  0  0  0  0  0  0  0  0  0  0  0  # atno 6909 bound_to 6896
  146.1712  140.4392  142.8532 H   0  0  0  0  0  0  0  0  0  0  0  0  # atno 7974 bound_to 7965
  155.6706  140.3497  155.4817 H   0  0  0  0  0  0  0  0  0  0  0  0  # atno 8008 bound_to 7997
  155.9692  140.1152  157.0850 H   0  0  0  0  0  0  0  0  0  0  0  0  # atno 8009 bound_to 7997
  154.4162  140.1160  156.5269 H   0  0  0  0  0  0  0  0  0  0  0  0  # atno 8010 bound_to 7997
  139.4853  144.4500  151.8842 H   0  0  0  0  0  0  0  0  0  0  0  0  # atno 10167 bound_to 10162
  157.2521  130.7120  149.6411 H   0  0  0  0  0  0  0  0  0  0  0  0  # atno 10718 bound_to 10713
  153.2211  135.4355  155.0490 H   0  0  0  0  0  0  0  0  0  0  0  0  # atno 10763 bound_to 10752
  154.8250  135.3356  154.6925 H   0  0  0  0  0  0  0  0  0  0  0  0  # atno 10764 bound_to 10752
  153.7357  135.7008  153.5034 H   0  0  0  0  0  0  0  0  0  0  0  0  # atno 10765 bound_to 10752
  141.1545  133.7754  156.9877 H   0  0  0  0  0  0  0  0  0  0  0  0  # atno 11005 bound_to 11000
  144.8166  140.6478  143.6380 LP  0  0  0  0  0  0  0  0  0  0  0  0  # atno 17320 bound_to 7965
  145.4335  139.1545  143.4009 LP  0  0  0  0  0  0  0  0  0  0  0  0  # atno 17321 bound_to 7965
  140.3956  144.2559  150.5896 LP  0  0  0  0  0  0  0  0  0  0  0  0  # atno 17342 bound_to 10162
  140.5105  143.2292  151.8542 LP  0  0  0  0  0  0  0  0  0  0  0  0  # atno 17343 bound_to 10162
  155.9666  130.4424  150.5380 LP  0  0  0  0  0  0  0  0  0  0  0  0  # atno 17370 bound_to 10713
  157.3266  131.0692  151.1892 LP  0  0  0  0  0  0  0  0  0  0  0  0  # atno 17371 bound_to 10713
  140.1024  134.9527  157.1943 LP  0  0  0  0  0  0  0  0  0  0  0  0  # atno 17394 bound_to 11000
  140.3301  134.2819  155.7229 LP  0  0  0  0  0  0  0  0  0  0  0  0  # atno 17395 bound_to 11000

$$$$
