AV-unprocessed.smi:1006|AV-procd|sdf|4396|dock4
  -GOLD-   22720 2333D 1   1.00000     0.00000
 Structure written by MMmdl.
 47 49  0  0  0  0  0  0  0  0  3 V2000
  148.0380  133.3181  152.5665 C   0  0  0  0  0  0  0  0  0  0  0  0
  148.9635  133.3581  153.7639 C   0  0  0  0  0  0  0  0  0  0  0  0
  149.5864  132.1975  154.2663 C   0  0  0  0  0  0  0  0  0  0  0  0
  150.4257  132.3605  155.3821 C   0  0  0  0  0  0  0  0  0  0  0  0
  151.0845  131.2708  155.9458 N   0  0  0  0  0  0  0  0  0  0  0  0
  150.6238  133.5697  155.9439 N   0  0  0  0  0  0  0  0  0  0  0  0
  150.0016  134.6324  155.4159 C   0  0  0  0  0  0  0  0  0  0  0  0
  150.2588  136.2486  156.1273 S   0  0  0  0  0  0  0  0  0  0  0  0
  150.7160  137.2552  154.6810 C   0  0  0  0  0  0  0  0  0  0  0  0
  150.4449  138.7506  154.9145 C   0  0  2  0  0  0  0  0  0  0  0  0
  150.3237  139.3986  153.6629 O   0  0  0  0  0  0  0  0  0  0  0  0
  151.5590  139.4185  155.7439 C   0  0  0  0  0  0  0  0  0  0  0  0
  151.1850  140.7553  156.2293 N   0  0  0  0  0  0  0  0  0  0  0  0
  150.4032  141.7029  155.6437 C   0  0  0  0  0  0  0  0  0  0  0  0
  150.3536  142.7727  156.4844 N   0  3  0  0  0  0  0  0  0  0  0  0
  151.1148  142.5054  157.6242 C   0  0  0  0  0  0  0  0  0  0  0  0
  151.3665  143.2788  158.7512 C   0  0  0  0  0  0  0  0  0  0  0  0
  152.1947  142.7158  159.7480 C   0  0  0  0  0  0  0  0  0  0  0  0
  152.4895  143.5345  160.9933 C   0  0  0  0  0  0  0  0  0  0  0  0
  152.7419  141.4157  159.5936 C   0  0  0  0  0  0  0  0  0  0  0  0
  153.6345  140.8214  160.6698 C   0  0  0  0  0  0  0  0  0  0  0  0
  152.4730  140.6449  158.4400 C   0  0  0  0  0  0  0  0  0  0  0  0
  151.6529  141.2130  157.4675 C   0  0  0  0  0  0  0  0  0  0  0  0
  149.1887  134.5597  154.3521 N   0  3  0  0  0  0  0  0  0  0  0  0
  147.7298  132.2960  152.3439 H   0  0  0  0  0  0  0  0  0  0  0  0
  148.5401  133.7229  151.6875 H   0  0  0  0  0  0  0  0  0  0  0  0
  147.1404  133.9084  152.7542 H   0  0  0  0  0  0  0  0  0  0  0  0
  149.4266  131.2293  153.8140 H   0  0  0  0  0  0  0  0  0  0  0  0
  150.9806  130.3379  155.5736 H   0  0  0  0  0  0  0  0  0  0  0  0
  151.7123  131.3824  156.7291 H   0  0  0  0  0  0  0  0  0  0  0  0
  151.7771  137.0996  154.4830 H   0  0  0  0  0  0  0  0  0  0  0  0
  150.1700  136.9072  153.8031 H   0  0  0  0  0  0  0  0  0  0  0  0
  149.4977  138.8631  155.4441 H   0  0  0  0  0  0  0  0  0  0  0  0
  149.8959  138.8099  153.0596 H   0  0  0  0  0  0  0  0  0  0  0  0
  151.7787  138.8120  156.6234 H   0  0  0  0  0  0  0  0  0  0  0  0
  152.4898  139.4839  155.1804 H   0  0  0  0  0  0  0  0  0  0  0  0
  149.9109  141.6219  154.6852 H   0  0  0  0  0  0  0  0  0  0  0  0
  150.9482  144.2688  158.8607 H   0  0  0  0  0  0  0  0  0  0  0  0
  152.1143  143.0266  161.8819 H   0  0  0  0  0  0  0  0  0  0  0  0
  152.0173  144.5163  160.9461 H   0  0  0  0  0  0  0  0  0  0  0  0
  153.5628  143.6870  161.1077 H   0  0  0  0  0  0  0  0  0  0  0  0
  153.9582  139.8137  160.4082 H   0  0  0  0  0  0  0  0  0  0  0  0
  153.1036  140.7642  161.6205 H   0  0  0  0  0  0  0  0  0  0  0  0
  154.5269  141.4322  160.8070 H   0  0  0  0  0  0  0  0  0  0  0  0
  152.8956  139.6584  158.3215 H   0  0  0  0  0  0  0  0  0  0  0  0
  148.7384  135.3971  153.9824 H   0  0  0  0  0  0  0  0  0  0  0  0
  149.8382  143.6220  156.2915 H   0  0  0  0  0  0  0  0  0  0  0  0
  1  2  1  0  0  0  0
  1 25  1  0  0  0  0
  1 26  1  0  0  0  0
  1 27  1  0  0  0  0
  2 24  1  0  0  0  0
  2  3  2  0  0  0  0
  3  4  1  0  0  0  0
  3 28  1  0  0  0  0
  4  5  1  0  0  0  0
  4  6  2  0  0  0  0
  5 29  1  0  0  0  0
  5 30  1  0  0  0  0
  6  7  1  0  0  0  0
  7  8  1  0  0  0  0
  7 24  2  0  0  0  0
  8  9  1  0  0  0  0
  9 10  1  0  0  0  0
  9 31  1  0  0  0  0
  9 32  1  0  0  0  0
 10 11  1  0  0  0  0
 10 12  1  0  0  0  0
 10 33  1  0  0  0  0
 11 34  1  0  0  0  0
 12 13  1  0  0  0  0
 12 35  1  0  0  0  0
 12 36  1  0  0  0  0
 13 23  1  0  0  0  0
 13 14  1  0  0  0  0
 14 15  2  0  0  0  0
 14 37  1  0  0  0  0
 15 16  1  0  0  0  0
 15 47  1  0  0  0  0
 16 23  2  0  0  0  0
 16 17  1  0  0  0  0
 17 18  2  0  0  0  0
 17 38  1  0  0  0  0
 18 19  1  0  0  0  0
 18 20  1  0  0  0  0
 19 39  1  0  0  0  0
 19 40  1  0  0  0  0
 19 41  1  0  0  0  0
 20 21  1  0  0  0  0
 20 22  2  0  0  0  0
 21 42  1  0  0  0  0
 21 43  1  0  0  0  0
 21 44  1  0  0  0  0
 22 23  1  0  0  0  0
 22 45  1  0  0  0  0
 24 46  1  0  0  0  0
M  CHG  1  15   1
M  CHG  1  24   1
M  END
> <s_m_source_file>
AV-unprocessed.smi

> <i_m_source_file_index>
1006

> <i_lp_mmshare_version>
43012

> <i_f3d_flags>
0

> <s_epik_input>
W0NIM11jMVtjSF1jKFtOSDJdKW5jKG4xKVNbQ0gyXVtDQEhdKFtPSF0pW0NIMl1uKFtjSF1uMiljKGMyMylbY0hdYyhbQ0gzXSljKFtjSF0zKVtDSDNd

> <s_epik_cmdline>
J2VwaWtfcHl0aG9uJywgJy1waCcsICc3LjAnLCAnLXRuJywgJzgnLCAnLW1hJywgJzIwMCcsICctbWV0YWxfYmluZGluZycsICctaW1hZScsICc8aW5maWxlLm1hZT4nLCAnLW9tYWUnLCAnPG91dGZpbGUubWFlPic=

> <r_lp_tautomer_probability>
0.999762

> <r_epik_Ionization_Penalty>
1.50932

> <r_epik_Ionization_Penalty_Charging>
1.50929

> <r_epik_Ionization_Penalty_Neutral>
3.48853e-05

> <r_epik_State_Penalty>
1.56619

> <r_epik_Charging_Adjusted_Penalty>
3.07548

> <i_epik_Tot_Q>
2

> <i_epik_Tot_abs_Q>
2

> <r_epik_Metal_State_Penalty>
1.82892

> <b_epik_Metal_Only>
0

> <s_lp_Force_Field>
OPLS_2005

> <r_lp_Energy>
18.0663

> <b_lp_Chiralities_Consistent>
1

> <s_lp_Variant>
AV-unprocessed.smi:1006-7

> <Gold.Version>
5.8.1

> <Gold.Id.Protein>
6NUR|6NUR_protein|mol2

> <Gold.PLP.Fitness>
59.7672

> <Gold.PLP.PLP>
-51.3991

> <Gold.PLP.part.hbond>
-4.0000

> <Gold.PLP.part.metal>
0.0000

> <Gold.PLP.part.buried>
-5.1305

> <Gold.PLP.part.nonpolar>
-41.7086

> <Gold.PLP.part.repulsive>
0.0842

> <Gold.PLP.ligand.clash>
0.0000

> <Gold.PLP.ligand.torsion>
0.8320

> <Gold.PLP.Chemscore.Hbond>
3.3346

> <Gold.PLP.Chemscore.CHOScore>
0.0000

> <Gold.PLP.Chemscore.Metal>
0.0000

> <Gold.Chemscore.Hbonds>
donor molecule, donor type, donor heavy atom, donor atom, acceptor molecule, acceptor atom, score
      L1  H    11    34       P1  7957  0.04
      L1  H    15    47       P1  8028  2.00
      L1  H    24    46       P1  7948  0.40
      P1  H  7989  7998       L1    11  0.91

> <Gold.PLP.Chemscore.Internal.Correction>
0.0280

> <Gold.Rescore>
     Score         DG    S(hbond)    S(metal)    S(lipo)     H(rot)  DE(clash)    DE(int)     intcor
     16.37     -17.87       2.00        0.00     113.63       2.96       0.62       0.88       ----

> <Gold.Chemscore.Fitness>
16.3676

> <Gold.Chemscore.DG>
-17.8685

> <Gold.Chemscore.ZeroCoef>
-5.4800

> <Gold.Chemscore.Hbond>
1.9973

> <Gold.Chemscore.Metal>
0.0000

> <Gold.Chemscore.Lipo>
113.6310

> <Gold.Chemscore.Internal_Hbond>
0.0000

> <Gold.Chemscore.DEClash>
0.6179

> <Gold.Chemscore.DEInternal>
0.8830

> <Gold.Chemscore.Rot>
2.9599

> <Gold.Chemscore.Internal.Correction>
   9.000000E+99

> <Gold.Chemscore.Hbonds>
donor molecule, donor type, donor heavy atom, donor atom, acceptor molecule, acceptor atom, score
      L1  H    11    34       P1  7957  0.04
      L1  H    15    47       P1  8028  0.97
      L1  H    24    46       P1  7948  0.19
      P1  H  7989  7998       L1    11  0.73

> <Gold.Chemscore.Hbond.Weighted>
-6.6709

> <Gold.Chemscore.Metal.Weighted>
-0.0000

> <Gold.Chemscore.Lipo.Weighted>
-13.2948

> <Gold.Chemscore.Internal_Hbond.Weighted>
0.0000

> <Gold.Chemscore.DEClash.Weighted>
0.6179

> <Gold.Chemscore.DEInternal.Weighted>
0.8830

> <Gold.Chemscore.Rot.Weighted>
7.5772

> <Gold.Chemscore.Internal.Correction.Weighted>
   9.000000E+99

> <Gold.Protein.RotatedTorsions>
[ 6907 6896 6895 6894 ] final  -93.70 input  -60.11 | X-H torsion
[ 7974 7965 7964 7962 ] final    2.51 input  175.53 | X-H torsion
[ 8008 7997 7996 7995 ] final -171.83 input   59.86 | X-H torsion
[ 10167 10162 10161 10158 ] final -124.61 input  -65.29 | X-H torsion
[ 10718 10713 10712 10709 ] final -111.18 input   66.30 | X-H torsion
[ 10763 10752 10751 10750 ] final  -77.81 input  -60.55 | X-H torsion
[ 11005 11000 10999 10996 ] final  140.46 input  -57.11 | X-H torsion

> <Gold.Protein.ActiveResidues>
 VAL166  LYS551  ARG553  GLY616  TRP617  ASP618  TYR619  PRO620  LYS621  CYS622 
 ASP623  PHE694  ASN695  SER759  ASP760  ASP761  ALA762  ILE779  LEU786  VAL792 
 PHE793  MET794  SER795  GLU796  ALA797  LYS798  CYS799  TRP800  GLU811  SER814 

> <Gold.Protein.RotatedAtoms>
  150.6927  134.1926  159.4290 H   0  0  0  0  0  0  0  0  0  0  0  0  # atno 6907 bound_to 6896
  151.9896  134.9983  160.0570 H   0  0  0  0  0  0  0  0  0  0  0  0  # atno 6908 bound_to 6896
  152.1680  133.4589  159.4931 H   0  0  0  0  0  0  0  0  0  0  0  0  # atno 6909 bound_to 6896
  146.2444  140.0825  142.8356 H   0  0  0  0  0  0  0  0  0  0  0  0  # atno 7974 bound_to 7965
  155.9367  140.1101  157.1089 H   0  0  0  0  0  0  0  0  0  0  0  0  # atno 8008 bound_to 7997
  154.4081  140.1227  156.4939 H   0  0  0  0  0  0  0  0  0  0  0  0  # atno 8009 bound_to 7997
  155.7013  140.3472  155.4936 H   0  0  0  0  0  0  0  0  0  0  0  0  # atno 8010 bound_to 7997
  139.9909  143.5642  152.2342 H   0  0  0  0  0  0  0  0  0  0  0  0  # atno 10167 bound_to 10162
  156.0632  130.5854  150.8338 H   0  0  0  0  0  0  0  0  0  0  0  0  # atno 10718 bound_to 10713
  154.5178  135.5751  153.6656 H   0  0  0  0  0  0  0  0  0  0  0  0  # atno 10763 bound_to 10752
  152.9910  135.6174  154.2794 H   0  0  0  0  0  0  0  0  0  0  0  0  # atno 10764 bound_to 10752
  154.2713  135.2853  155.2716 H   0  0  0  0  0  0  0  0  0  0  0  0  # atno 10765 bound_to 10752
  140.0329  134.9343  157.0697 H   0  0  0  0  0  0  0  0  0  0  0  0  # atno 11005 bound_to 11000
  145.0721  140.9162  143.4876 LP  0  0  0  0  0  0  0  0  0  0  0  0  # atno 17320 bound_to 7965
  145.0961  139.2856  143.5710 LP  0  0  0  0  0  0  0  0  0  0  0  0  # atno 17321 bound_to 7965
  139.6341  144.7648  151.2475 LP  0  0  0  0  0  0  0  0  0  0  0  0  # atno 17342 bound_to 10162
  140.7455  143.6429  150.8318 LP  0  0  0  0  0  0  0  0  0  0  0  0  # atno 17343 bound_to 10162
  157.5656  131.0946  150.9494 LP  0  0  0  0  0  0  0  0  0  0  0  0  # atno 17370 bound_to 10713
  156.9722  130.5495  149.5291 LP  0  0  0  0  0  0  0  0  0  0  0  0  # atno 17371 bound_to 10713
  140.4195  134.1895  155.7164 LP  0  0  0  0  0  0  0  0  0  0  0  0  # atno 17394 bound_to 11000
  141.1841  133.8350  157.1151 LP  0  0  0  0  0  0  0  0  0  0  0  0  # atno 17395 bound_to 11000

$$$$
