AV-unprocessed.smi:1570|AV-procd|sdf|6315|dock1
  -GOLD-   22720 6523D 1   1.00000     0.00000
 Structure written by MMmdl.
 51 53  0  0  0  0  0  0  0  0  1 V2000
  151.3609  139.7039  156.3620 C   0  0  0  0  0  0  0  0  0  0  0  0
  150.5291  140.0007  157.6158 C   0  0  0  0  0  0  0  0  0  0  0  0
  151.3307  140.6726  158.6358 N   0  0  0  0  0  0  0  0  0  0  0  0
  152.4057  140.1632  159.2825 C   0  0  0  0  0  0  0  0  0  0  0  0
  152.8949  139.0476  159.1056 O   0  0  0  0  0  0  0  0  0  0  0  0
  152.8514  141.0961  160.1566 N   0  0  0  0  0  0  0  0  0  0  0  0
  154.0026  140.9731  161.0490 C   0  0  0  0  0  0  0  0  0  0  0  0
  155.2256  140.3705  160.3224 C   0  0  1  0  0  0  0  0  0  0  0  0
  156.3367  141.2384  160.4296 O   0  0  0  0  0  0  0  0  0  0  0  0
  155.6456  138.9589  160.7971 C   0  0  0  0  0  0  0  0  0  0  0  0
  155.5583  138.6709  162.2345 N   0  0  0  0  0  0  0  0  0  0  0  0
  156.2798  139.6806  163.0013 C   0  0  0  0  0  0  0  0  0  0  0  0
  156.1703  139.4480  164.5184 C   0  0  2  0  0  0  0  0  0  0  0  0
  156.9928  140.4637  165.3183 C   0  0  0  0  0  0  0  0  0  0  0  0
  156.6530  138.1432  164.8301 O   0  0  0  0  0  0  0  0  0  0  0  0
  156.0302  137.0790  164.1103 C   0  0  1  0  0  0  0  0  0  0  0  0
  154.6116  136.7918  164.6312 C   0  0  0  0  0  0  0  0  0  0  0  0
  156.0780  137.3528  162.5934 C   0  0  0  0  0  0  0  0  0  0  0  0
  152.0415  142.2369  160.0637 C   0  0  0  0  0  0  0  0  0  0  0  0
  152.0918  143.4660  160.7443 C   0  0  0  0  0  0  0  0  0  0  0  0
  151.1073  144.4274  160.4162 C   0  0  0  0  0  0  0  0  0  0  0  0
  150.1166  144.1494  159.4390 C   0  0  0  0  0  0  0  0  0  0  0  0
  150.0908  142.9049  158.7669 C   0  0  0  0  0  0  0  0  0  0  0  0
  151.0816  141.9685  159.1101 C   0  0  0  0  0  0  0  0  0  0  0  0
  150.7561  139.2016  155.6070 H   0  0  0  0  0  0  0  0  0  0  0  0
  152.2078  139.0575  156.5936 H   0  0  0  0  0  0  0  0  0  0  0  0
  151.7494  140.6218  155.9198 H   0  0  0  0  0  0  0  0  0  0  0  0
  149.6702  140.6194  157.3515 H   0  0  0  0  0  0  0  0  0  0  0  0
  150.1198  139.0751  158.0212 H   0  0  0  0  0  0  0  0  0  0  0  0
  154.2345  141.9424  161.4908 H   0  0  0  0  0  0  0  0  0  0  0  0
  153.7119  140.3297  161.8812 H   0  0  0  0  0  0  0  0  0  0  0  0
  154.9904  140.2815  159.2607 H   0  0  0  0  0  0  0  0  0  0  0  0
  156.6771  141.3925  159.5613 H   0  0  0  0  0  0  0  0  0  0  0  0
  155.1003  138.2018  160.2315 H   0  0  0  0  0  0  0  0  0  0  0  0
  156.6878  138.8411  160.4961 H   0  0  0  0  0  0  0  0  0  0  0  0
  157.3306  139.6854  162.7071 H   0  0  0  0  0  0  0  0  0  0  0  0
  155.8872  140.6709  162.7670 H   0  0  0  0  0  0  0  0  0  0  0  0
  155.1278  139.5335  164.8265 H   0  0  0  0  0  0  0  0  0  0  0  0
  156.6556  141.4821  165.1238 H   0  0  0  0  0  0  0  0  0  0  0  0
  158.0507  140.4058  165.0605 H   0  0  0  0  0  0  0  0  0  0  0  0
  156.8999  140.2818  166.3893 H   0  0  0  0  0  0  0  0  0  0  0  0
  156.6264  136.1876  164.3074 H   0  0  0  0  0  0  0  0  0  0  0  0
  154.1925  135.9090  164.1482 H   0  0  0  0  0  0  0  0  0  0  0  0
  153.9293  137.6200  164.4413 H   0  0  0  0  0  0  0  0  0  0  0  0
  154.6221  136.6065  165.7054 H   0  0  0  0  0  0  0  0  0  0  0  0
  155.5165  136.5687  162.0927 H   0  0  0  0  0  0  0  0  0  0  0  0
  157.1099  137.2647  162.2498 H   0  0  0  0  0  0  0  0  0  0  0  0
  152.8488  143.6731  161.4860 H   0  0  0  0  0  0  0  0  0  0  0  0
  151.1100  145.3850  160.9158 H   0  0  0  0  0  0  0  0  0  0  0  0
  149.3736  144.8972  159.2044 H   0  0  0  0  0  0  0  0  0  0  0  0
  149.3397  142.6880  158.0220 H   0  0  0  0  0  0  0  0  0  0  0  0
  1  2  1  0  0  0  0
  1 25  1  0  0  0  0
  1 26  1  0  0  0  0
  1 27  1  0  0  0  0
  2  3  1  0  0  0  0
  2 28  1  0  0  0  0
  2 29  1  0  0  0  0
  3 24  1  0  0  0  0
  3  4  1  0  0  0  0
  4  5  2  0  0  0  0
  4  6  1  0  0  0  0
  6  7  1  0  0  0  0
  6 19  1  0  0  0  0
  7  8  1  0  0  0  0
  7 30  1  0  0  0  0
  7 31  1  0  0  0  0
  8  9  1  0  0  0  0
  8 10  1  0  0  0  0
  8 32  1  0  0  0  0
  9 33  1  0  0  0  0
 10 11  1  0  0  0  0
 10 34  1  0  0  0  0
 10 35  1  0  0  0  0
 11 18  1  0  0  0  0
 11 12  1  0  0  0  0
 12 13  1  0  0  0  0
 12 36  1  0  0  0  0
 12 37  1  0  0  0  0
 13 14  1  0  0  0  0
 13 15  1  0  0  0  0
 13 38  1  0  0  0  0
 14 39  1  0  0  0  0
 14 40  1  0  0  0  0
 14 41  1  0  0  0  0
 15 16  1  0  0  0  0
 16 17  1  0  0  0  0
 16 18  1  0  0  0  0
 16 42  1  0  0  0  0
 17 43  1  0  0  0  0
 17 44  1  0  0  0  0
 17 45  1  0  0  0  0
 18 46  1  0  0  0  0
 18 47  1  0  0  0  0
 19 24  2  0  0  0  0
 19 20  1  0  0  0  0
 20 21  2  0  0  0  0
 20 48  1  0  0  0  0
 21 22  1  0  0  0  0
 21 49  1  0  0  0  0
 22 23  2  0  0  0  0
 22 50  1  0  0  0  0
 23 24  1  0  0  0  0
 23 51  1  0  0  0  0
M  END
> <s_m_source_file>
AV-unprocessed.smi

> <i_m_source_file_index>
1570

> <i_lp_mmshare_version>
43012

> <i_f3d_flags>
0

> <s_epik_input>
W2NIXTFbY0hdW2NIXVtjSF1jKGMxMiluKFtDSDJdW0NIM10pYyg9TyluMltDSDJdW0NASF0oW09IXSlbQ0gyXU4zW0NIMl1bQ0BASF0oW0NIM10pT1tDQEBIXShbQ0gzXSlbQ0gyXTM=

> <s_epik_cmdline>
J2VwaWtfcHl0aG9uJywgJy1waCcsICc3LjAnLCAnLXRuJywgJzgnLCAnLW1hJywgJzIwMCcsICctbWV0YWxfYmluZGluZycsICctaW1hZScsICc8aW5maWxlLm1hZT4nLCAnLW9tYWUnLCAnPG91dGZpbGUubWFlPic=

> <r_epik_Ionization_Penalty>
0.214359

> <r_epik_Ionization_Penalty_Charging>
2.30976e-09

> <r_epik_Ionization_Penalty_Neutral>
0.214359

> <r_epik_State_Penalty>
0.204533

> <r_epik_Charging_Adjusted_Penalty>
0.204533

> <i_epik_Tot_Q>
0

> <i_epik_Tot_abs_Q>
0

> <r_epik_Metal_State_Penalty>
0.204533

> <b_epik_Metal_Only>
0

> <s_lp_Force_Field>
OPLS_2005

> <r_lp_Energy>
68.4361

> <b_lp_Chiralities_Consistent>
1

> <s_lp_Variant>
AV-unprocessed.smi:1570-4

> <Gold.Version>
5.8.1

> <Gold.Id.Protein>
6NUR|6NUR_protein|mol2

> <Gold.PLP.Fitness>
47.7104

> <Gold.PLP.PLP>
-49.9903

> <Gold.PLP.part.hbond>
-1.0000

> <Gold.PLP.part.metal>
0.0000

> <Gold.PLP.part.buried>
-7.5301

> <Gold.PLP.part.nonpolar>
-41.1381

> <Gold.PLP.part.repulsive>
0.0750

> <Gold.PLP.ligand.clash>
0.0000

> <Gold.PLP.ligand.torsion>
1.1984

> <Gold.PLP.Chemscore.Hbond>
0.0000

> <Gold.PLP.Chemscore.CHOScore>
0.0000

> <Gold.PLP.Chemscore.Metal>
0.0000

> <Gold.PLP.Chemscore.Internal.Correction>
0.1170

> <Gold.Rescore>
     Score         DG    S(hbond)    S(metal)    S(lipo)     H(rot)  DE(clash)    DE(int)     intcor
     11.10     -15.78       0.00        0.00     133.01       2.06       0.07       4.60       ----

> <Gold.Chemscore.Fitness>
11.0988

> <Gold.Chemscore.DG>
-15.7752

> <Gold.Chemscore.ZeroCoef>
-5.4800

> <Gold.Chemscore.Hbond>
0.0000

> <Gold.Chemscore.Metal>
0.0000

> <Gold.Chemscore.Lipo>
133.0092

> <Gold.Chemscore.Internal_Hbond>
0.0000

> <Gold.Chemscore.DEClash>
0.0726

> <Gold.Chemscore.DEInternal>
4.6038

> <Gold.Chemscore.Rot>
2.0574

> <Gold.Chemscore.Internal.Correction>
   9.000000E+99

> <Gold.Chemscore.Hbond.Weighted>
-0.0000

> <Gold.Chemscore.Metal.Weighted>
-0.0000

> <Gold.Chemscore.Lipo.Weighted>
-15.5621

> <Gold.Chemscore.Internal_Hbond.Weighted>
0.0000

> <Gold.Chemscore.DEClash.Weighted>
0.0726

> <Gold.Chemscore.DEInternal.Weighted>
4.6038

> <Gold.Chemscore.Rot.Weighted>
5.2669

> <Gold.Chemscore.Internal.Correction.Weighted>
   9.000000E+99

> <Gold.Protein.RotatedTorsions>
[ 6907 6896 6895 6894 ] final  -11.86 input  -60.11 | X-H torsion
[ 7974 7965 7964 7962 ] final  144.73 input  175.53 | X-H torsion
[ 8008 7997 7996 7995 ] final -163.05 input   59.86 | X-H torsion
[ 10167 10162 10161 10158 ] final -111.90 input  -65.29 | X-H torsion
[ 10718 10713 10712 10709 ] final  -13.88 input   66.30 | X-H torsion
[ 10763 10752 10751 10750 ] final   67.00 input  -60.55 | X-H torsion
[ 11005 11000 10999 10996 ] final  124.93 input  -57.11 | X-H torsion

> <Gold.Protein.ActiveResidues>
 VAL166  LYS551  ARG553  GLY616  TRP617  ASP618  TYR619  PRO620  LYS621  CYS622 
 ASP623  PHE694  ASN695  SER759  ASP760  ASP761  ALA762  ILE779  LEU786  VAL792 
 PHE793  MET794  SER795  GLU796  ALA797  LYS798  CYS799  TRP800  GLU811  SER814 

> <Gold.Protein.RotatedAtoms>
  151.3796  135.0937  159.9491 H   0  0  0  0  0  0  0  0  0  0  0  0  # atno 6907 bound_to 6896
  152.5112  133.9085  159.7487 H   0  0  0  0  0  0  0  0  0  0  0  0  # atno 6908 bound_to 6896
  150.9516  133.6488  159.2800 H   0  0  0  0  0  0  0  0  0  0  0  0  # atno 6909 bound_to 6896
  144.8811  139.5698  143.5842 H   0  0  0  0  0  0  0  0  0  0  0  0  # atno 7974 bound_to 7965
  155.8157  140.0912  157.1878 H   0  0  0  0  0  0  0  0  0  0  0  0  # atno 8008 bound_to 7997
  154.3979  140.1446  156.3499 H   0  0  0  0  0  0  0  0  0  0  0  0  # atno 8009 bound_to 7997
  155.8319  140.3442  155.5580 H   0  0  0  0  0  0  0  0  0  0  0  0  # atno 8010 bound_to 7997
  140.1286  143.4380  152.1643 H   0  0  0  0  0  0  0  0  0  0  0  0  # atno 10167 bound_to 10162
  156.6240  130.4883  149.6154 H   0  0  0  0  0  0  0  0  0  0  0  0  # atno 10718 bound_to 10713
  153.0165  135.5300  154.6911 H   0  0  0  0  0  0  0  0  0  0  0  0  # atno 10763 bound_to 10752
  154.6045  135.2872  155.0501 H   0  0  0  0  0  0  0  0  0  0  0  0  # atno 10764 bound_to 10752
  154.1546  135.6557  153.5024 H   0  0  0  0  0  0  0  0  0  0  0  0  # atno 10765 bound_to 10752
  139.9382  134.9638  156.8483 H   0  0  0  0  0  0  0  0  0  0  0  0  # atno 11005 bound_to 11000
  146.2995  139.7381  142.9102 LP  0  0  0  0  0  0  0  0  0  0  0  0  # atno 17320 bound_to 7965
  145.3953  141.0378  143.3101 LP  0  0  0  0  0  0  0  0  0  0  0  0  # atno 17321 bound_to 7965
  139.5531  144.7353  151.4374 LP  0  0  0  0  0  0  0  0  0  0  0  0  # atno 17342 bound_to 10162
  140.6830  143.8038  150.7147 LP  0  0  0  0  0  0  0  0  0  0  0  0  # atno 17343 bound_to 10162
  156.2288  130.6782  151.1443 LP  0  0  0  0  0  0  0  0  0  0  0  0  # atno 17370 bound_to 10713
  157.7219  131.0676  150.6098 LP  0  0  0  0  0  0  0  0  0  0  0  0  # atno 17371 bound_to 10713
  140.6020  134.0163  155.7541 LP  0  0  0  0  0  0  0  0  0  0  0  0  # atno 17394 bound_to 11000
  141.1005  133.9775  157.3086 LP  0  0  0  0  0  0  0  0  0  0  0  0  # atno 17395 bound_to 11000

$$$$
