AV-unprocessed.smi:558|AV-procd|sdf|2923|dock4
  -GOLD-   2262023413D 1   1.00000     0.00000
 Structure written by MMmdl.
 36 37  0  0  0  0  0  0  0  0  1 V2000
  151.8350  144.9763  159.1549 C   0  0  0  0  0  0  0  0  0  0  0  0
  152.3194  143.5776  159.3983 C   0  0  0  0  0  0  0  0  0  0  0  0
  153.4626  143.1544  160.1320 C   0  0  0  0  0  0  0  0  0  0  0  0
  153.4380  141.7912  160.0399 C   0  0  0  0  0  0  0  0  0  0  0  0
  154.3760  140.7757  160.6062 C   0  0  0  0  0  0  0  0  0  0  0  0
  152.3247  141.4596  159.2860 N   0  0  0  0  0  0  0  0  0  0  0  0
  151.8334  140.1481  158.8924 C   0  0  0  0  0  0  0  0  0  0  0  0
  151.4813  140.1091  157.4041 C   0  0  0  0  0  0  0  0  0  0  0  0
  152.2414  139.5616  156.6061 O   0  0  0  0  0  0  0  0  0  0  0  0
  150.3255  140.6906  157.0473 N   0  0  0  0  0  0  0  0  0  0  0  0
  149.7998  140.7725  155.6886 C   0  0  0  0  0  0  0  0  0  0  0  0
  148.6173  141.7539  155.5929 C   0  0  1  0  0  0  0  0  0  0  0  0
  147.6994  141.4935  154.4164 C   0  0  0  0  0  0  0  0  0  0  0  0
  146.4438  142.2609  154.8194 C   0  0  0  0  0  0  0  0  0  0  0  0
  146.4004  142.2171  156.2429 O   0  0  0  0  0  0  0  0  0  0  0  0
  147.6221  141.6909  156.7532 C   0  0  0  0  0  0  0  0  0  0  0  0
  151.6433  142.5588  158.8946 N   0  0  0  0  0  0  0  0  0  0  0  0
  152.5219  145.7102  159.5768 H   0  0  0  0  0  0  0  0  0  0  0  0
  150.8574  145.1373  159.6098 H   0  0  0  0  0  0  0  0  0  0  0  0
  151.7454  145.1813  158.0879 H   0  0  0  0  0  0  0  0  0  0  0  0
  154.1914  143.7611  160.6487 H   0  0  0  0  0  0  0  0  0  0  0  0
  155.2679  141.2548  161.0103 H   0  0  0  0  0  0  0  0  0  0  0  0
  154.6975  140.0665  159.8436 H   0  0  0  0  0  0  0  0  0  0  0  0
  153.9022  140.2182  161.4140 H   0  0  0  0  0  0  0  0  0  0  0  0
  152.5973  139.3981  159.1050 H   0  0  0  0  0  0  0  0  0  0  0  0
  150.9657  139.8915  159.5010 H   0  0  0  0  0  0  0  0  0  0  0  0
  149.7674  141.1137  157.7744 H   0  0  0  0  0  0  0  0  0  0  0  0
  150.6091  141.1148  155.0432 H   0  0  0  0  0  0  0  0  0  0  0  0
  149.5142  139.7860  155.3195 H   0  0  0  0  0  0  0  0  0  0  0  0
  148.9978  142.7737  155.5126 H   0  0  0  0  0  0  0  0  0  0  0  0
  148.1142  141.8290  153.4655 H   0  0  0  0  0  0  0  0  0  0  0  0
  147.4761  140.4286  154.3352 H   0  0  0  0  0  0  0  0  0  0  0  0
  146.5195  143.3032  154.5075 H   0  0  0  0  0  0  0  0  0  0  0  0
  145.5394  141.8405  154.3788 H   0  0  0  0  0  0  0  0  0  0  0  0
  147.4492  140.6580  157.0586 H   0  0  0  0  0  0  0  0  0  0  0  0
  147.9606  142.2488  157.6267 H   0  0  0  0  0  0  0  0  0  0  0  0
  1  2  1  0  0  0  0
  1 18  1  0  0  0  0
  1 19  1  0  0  0  0
  1 20  1  0  0  0  0
  2 17  2  0  0  0  0
  2  3  1  0  0  0  0
  3  4  2  0  0  0  0
  3 21  1  0  0  0  0
  4  5  1  0  0  0  0
  4  6  1  0  0  0  0
  5 22  1  0  0  0  0
  5 23  1  0  0  0  0
  5 24  1  0  0  0  0
  6  7  1  0  0  0  0
  6 17  1  0  0  0  0
  7  8  1  0  0  0  0
  7 25  1  0  0  0  0
  7 26  1  0  0  0  0
  8  9  2  0  0  0  0
  8 10  1  0  0  0  0
 10 11  1  0  0  0  0
 10 27  1  0  0  0  0
 11 12  1  0  0  0  0
 11 28  1  0  0  0  0
 11 29  1  0  0  0  0
 12 16  1  0  0  0  0
 12 13  1  0  0  0  0
 12 30  1  0  0  0  0
 13 14  1  0  0  0  0
 13 31  1  0  0  0  0
 13 32  1  0  0  0  0
 14 15  1  0  0  0  0
 14 33  1  0  0  0  0
 14 34  1  0  0  0  0
 15 16  1  0  0  0  0
 16 35  1  0  0  0  0
 16 36  1  0  0  0  0
M  END
> <s_m_source_file>
AV-unprocessed.smi

> <i_m_source_file_index>
558

> <i_lp_mmshare_version>
43012

> <i_f3d_flags>
0

> <s_epik_input>
W0NIM11jMVtjSF1jKFtDSDNdKW4objEpW0NIMl1DKD1PKVtOSF1bQ0gyXVtDQEBIXTJbQ0gyXVtDSDJdT1tDSDJdMg==

> <s_epik_cmdline>
J2VwaWtfcHl0aG9uJywgJy1waCcsICc3LjAnLCAnLXRuJywgJzgnLCAnLW1hJywgJzIwMCcsICctbWV0YWxfYmluZGluZycsICctaW1hZScsICc8aW5maWxlLm1hZT4nLCAnLW9tYWUnLCAnPG91dGZpbGUubWFlPic=

> <r_lp_tautomer_probability>
1

> <r_epik_Ionization_Penalty>
0.000376629

> <r_epik_Ionization_Penalty_Charging>
0

> <r_epik_Ionization_Penalty_Neutral>
0.000376629

> <r_epik_State_Penalty>
-0

> <r_epik_Charging_Adjusted_Penalty>
0

> <i_epik_Tot_Q>
0

> <i_epik_Tot_abs_Q>
0

> <r_epik_Metal_State_Penalty>
-0

> <b_epik_Metal_Only>
0

> <s_lp_Force_Field>
OPLS_2005

> <r_lp_Energy>
17.6381

> <b_lp_Chiralities_Consistent>
1

> <s_lp_Variant>
AV-unprocessed.smi:558-2

> <Gold.Version>
5.8.1

> <Gold.Id.Protein>
6NUR|6NUR_protein|mol2

> <Gold.PLP.Fitness>
40.2178

> <Gold.PLP.PLP>
-38.4687

> <Gold.PLP.part.hbond>
-1.0000

> <Gold.PLP.part.metal>
0.0000

> <Gold.PLP.part.buried>
-3.1254

> <Gold.PLP.part.nonpolar>
-34.0860

> <Gold.PLP.part.repulsive>
0.2001

> <Gold.PLP.ligand.clash>
0.0000

> <Gold.PLP.ligand.torsion>
0.6347

> <Gold.PLP.Chemscore.Hbond>
1.0000

> <Gold.PLP.Chemscore.CHOScore>
0.0000

> <Gold.PLP.Chemscore.Metal>
0.0000

> <Gold.Chemscore.Hbonds>
donor molecule, donor type, donor heavy atom, donor atom, acceptor molecule, acceptor atom, score
      P1  H  7997  8009       L1     9  0.65

> <Gold.PLP.Chemscore.Internal.Correction>
0.0186

> <Gold.Rescore>
     Score         DG    S(hbond)    S(metal)    S(lipo)     H(rot)  DE(clash)    DE(int)     intcor
     15.46     -16.05       1.00        0.00      95.45       1.54       0.08       0.51       ----

> <Gold.Chemscore.Fitness>
15.4597

> <Gold.Chemscore.DG>
-16.0484

> <Gold.Chemscore.ZeroCoef>
-5.4800

> <Gold.Chemscore.Hbond>
1.0000

> <Gold.Chemscore.Metal>
0.0000

> <Gold.Chemscore.Lipo>
95.4496

> <Gold.Chemscore.Internal_Hbond>
0.0000

> <Gold.Chemscore.DEClash>
0.0798

> <Gold.Chemscore.DEInternal>
0.5089

> <Gold.Chemscore.Rot>
1.5387

> <Gold.Chemscore.Internal.Correction>
   9.000000E+99

> <Gold.Chemscore.Hbonds>
donor molecule, donor type, donor heavy atom, donor atom, acceptor molecule, acceptor atom, score
      P1  H  7997  8009       L1     9  0.64

> <Gold.Chemscore.Hbond.Weighted>
-3.3400

> <Gold.Chemscore.Metal.Weighted>
-0.0000

> <Gold.Chemscore.Lipo.Weighted>
-11.1676

> <Gold.Chemscore.Internal_Hbond.Weighted>
0.0000

> <Gold.Chemscore.DEClash.Weighted>
0.0798

> <Gold.Chemscore.DEInternal.Weighted>
0.5089

> <Gold.Chemscore.Rot.Weighted>
3.9392

> <Gold.Chemscore.Internal.Correction.Weighted>
   9.000000E+99

> <Gold.Protein.RotatedTorsions>
[ 6907 6896 6895 6894 ] final   27.76 input  -60.11 | X-H torsion
[ 7974 7965 7964 7962 ] final  -98.52 input  175.53 | X-H torsion
[ 8008 7997 7996 7995 ] final -167.48 input   59.86 | X-H torsion
[ 10167 10162 10161 10158 ] final  111.46 input  -65.29 | X-H torsion
[ 10718 10713 10712 10709 ] final  -28.27 input   66.30 | X-H torsion
[ 10763 10752 10751 10750 ] final  126.26 input  -60.55 | X-H torsion
[ 11005 11000 10999 10996 ] final   44.47 input  -57.11 | X-H torsion

> <Gold.Protein.ActiveResidues>
 VAL166  LYS551  ARG553  GLY616  TRP617  ASP618  TYR619  PRO620  LYS621  CYS622 
 ASP623  PHE694  ASN695  SER759  ASP760  ASP761  ALA762  ILE779  LEU786  VAL792 
 PHE793  MET794  SER795  GLU796  ALA797  LYS798  CYS799  TRP800  GLU811  SER814 

> <Gold.Protein.RotatedAtoms>
  152.0071  134.9897  160.0566 H   0  0  0  0  0  0  0  0  0  0  0  0  # atno 6907 bound_to 6896
  152.1464  133.4490  159.4800 H   0  0  0  0  0  0  0  0  0  0  0  0  # atno 6908 bound_to 6896
  150.6870  134.2160  159.4421 H   0  0  0  0  0  0  0  0  0  0  0  0  # atno 6909 bound_to 6896
  145.3196  140.9418  143.2723 H   0  0  0  0  0  0  0  0  0  0  0  0  # atno 7974 bound_to 7965
  155.8782  140.1004  157.1503 H   0  0  0  0  0  0  0  0  0  0  0  0  # atno 8008 bound_to 7997
  154.4003  140.1334  156.4227 H   0  0  0  0  0  0  0  0  0  0  0  0  # atno 8009 bound_to 7997
  155.7673  140.3461  155.5231 H   0  0  0  0  0  0  0  0  0  0  0  0  # atno 8010 bound_to 7997
  139.6609  144.7128  151.1867 H   0  0  0  0  0  0  0  0  0  0  0  0  # atno 10167 bound_to 10162
  156.4274  130.4438  149.7141 H   0  0  0  0  0  0  0  0  0  0  0  0  # atno 10718 bound_to 10713
  153.6904  135.3300  155.3200 H   0  0  0  0  0  0  0  0  0  0  0  0  # atno 10763 bound_to 10752
  154.8441  135.4430  154.1514 H   0  0  0  0  0  0  0  0  0  0  0  0  # atno 10764 bound_to 10752
  153.2554  135.6985  153.7712 H   0  0  0  0  0  0  0  0  0  0  0  0  # atno 10765 bound_to 10752
  140.1549  134.4415  155.8356 H   0  0  0  0  0  0  0  0  0  0  0  0  # atno 11005 bound_to 11000
  144.8950  139.4724  143.6660 LP  0  0  0  0  0  0  0  0  0  0  0  0  # atno 17320 bound_to 7965
  146.3087  139.7671  142.9036 LP  0  0  0  0  0  0  0  0  0  0  0  0  # atno 17321 bound_to 7965
  140.7579  143.5996  150.8714 LP  0  0  0  0  0  0  0  0  0  0  0  0  # atno 17342 bound_to 10162
  139.9653  143.6118  152.2990 LP  0  0  0  0  0  0  0  0  0  0  0  0  # atno 17343 bound_to 10162
  156.4058  130.7697  151.2707 LP  0  0  0  0  0  0  0  0  0  0  0  0  # atno 17370 bound_to 10713
  157.7508  131.0226  150.3800 LP  0  0  0  0  0  0  0  0  0  0  0  0  # atno 17371 bound_to 10713
  141.2203  133.6888  156.7489 LP  0  0  0  0  0  0  0  0  0  0  0  0  # atno 17394 bound_to 11000
  140.2560  134.8504  157.3713 LP  0  0  0  0  0  0  0  0  0  0  0  0  # atno 17395 bound_to 11000

$$$$
