AV-unprocessed.smi:2628|AV-procd|sdf|10243|dock8
  -GOLD-   2272014253D 1   1.00000     0.00000
 Structure written by MMmdl.
 38 38  0  0  0  0  0  0  0  0  1 V2000
  152.1163  144.7163  157.8191 C   0  0  0  0  0  0  0  0  0  0  0  0
  152.4410  144.4830  159.2984 C   0  0  0  0  0  0  0  0  0  0  0  0
  152.8517  143.0303  159.5894 C   0  0  0  0  0  0  0  0  0  0  0  0
  151.6925  142.0139  159.5340 C   0  0  0  0  0  0  0  0  0  0  0  0
  151.3710  141.5546  158.1937 N   0  0  0  0  0  0  0  0  0  0  0  0
  150.3349  142.0971  157.4283 C   0  0  0  0  0  0  0  0  0  0  0  0
  149.5814  143.1183  157.9895 N   0  0  0  0  0  0  0  0  0  0  0  0
  150.0429  141.6539  156.1700 C   0  0  0  0  0  0  0  0  0  0  0  0
  148.9954  142.2229  155.4438 N   0  0  0  0  0  0  0  0  0  0  0  0
  148.4919  141.9346  154.1092 C   0  0  0  0  0  0  0  0  0  0  0  0
  147.7924  140.5719  154.0614 C   0  0  0  0  0  0  0  0  0  0  0  0
  147.1019  140.4430  152.8293 O   0  0  0  0  0  0  0  0  0  0  0  0
  146.7671  139.0986  152.5332 C   0  0  0  0  0  0  0  0  0  0  0  0
  150.8320  140.5592  155.5781 C   0  0  0  0  0  0  0  0  0  0  0  0
  150.6795  140.0602  154.4643 O   0  0  0  0  0  0  0  0  0  0  0  0
  151.8431  140.0556  156.3926 N   0  0  0  0  0  0  0  0  0  0  0  0
  152.1507  140.4942  157.6740 C   0  0  0  0  0  0  0  0  0  0  0  0
  153.0641  139.9476  158.2933 O   0  0  0  0  0  0  0  0  0  0  0  0
  152.3988  139.2999  156.0194 H   0  0  0  0  0  0  0  0  0  0  0  0
  151.8286  145.7532  157.6443 H   0  0  0  0  0  0  0  0  0  0  0  0
  151.2912  144.0828  157.4925 H   0  0  0  0  0  0  0  0  0  0  0  0
  152.9776  144.4986  157.1871 H   0  0  0  0  0  0  0  0  0  0  0  0
  153.2422  145.1576  159.6020 H   0  0  0  0  0  0  0  0  0  0  0  0
  151.5681  144.7491  159.8949 H   0  0  0  0  0  0  0  0  0  0  0  0
  153.6363  142.7320  158.8934 H   0  0  0  0  0  0  0  0  0  0  0  0
  153.3003  142.9836  160.5822 H   0  0  0  0  0  0  0  0  0  0  0  0
  151.9368  141.1174  160.1042 H   0  0  0  0  0  0  0  0  0  0  0  0
  150.7904  142.4044  160.0066 H   0  0  0  0  0  0  0  0  0  0  0  0
  149.7658  143.4664  158.9191 H   0  0  0  0  0  0  0  0  0  0  0  0
  148.8770  143.6108  157.4592 H   0  0  0  0  0  0  0  0  0  0  0  0
  148.4987  142.9690  155.9080 H   0  0  0  0  0  0  0  0  0  0  0  0
  147.7750  142.7068  153.8292 H   0  0  0  0  0  0  0  0  0  0  0  0
  149.3089  141.9670  153.3876 H   0  0  0  0  0  0  0  0  0  0  0  0
  148.5176  139.7660  154.1861 H   0  0  0  0  0  0  0  0  0  0  0  0
  147.0794  140.4997  154.8841 H   0  0  0  0  0  0  0  0  0  0  0  0
  146.2442  139.0527  151.5778 H   0  0  0  0  0  0  0  0  0  0  0  0
  146.1113  138.6786  153.2969 H   0  0  0  0  0  0  0  0  0  0  0  0
  147.6605  138.4774  152.4578 H   0  0  0  0  0  0  0  0  0  0  0  0
  1  2  1  0  0  0  0
  1 20  1  0  0  0  0
  1 21  1  0  0  0  0
  1 22  1  0  0  0  0
  2  3  1  0  0  0  0
  2 23  1  0  0  0  0
  2 24  1  0  0  0  0
  3  4  1  0  0  0  0
  3 25  1  0  0  0  0
  3 26  1  0  0  0  0
  4  5  1  0  0  0  0
  4 27  1  0  0  0  0
  4 28  1  0  0  0  0
  5 17  1  0  0  0  0
  5  6  1  0  0  0  0
  6  7  1  0  0  0  0
  6  8  2  0  0  0  0
  7 29  1  0  0  0  0
  7 30  1  0  0  0  0
  8  9  1  0  0  0  0
  8 14  1  0  0  0  0
  9 10  1  0  0  0  0
  9 31  1  0  0  0  0
 10 11  1  0  0  0  0
 10 32  1  0  0  0  0
 10 33  1  0  0  0  0
 11 12  1  0  0  0  0
 11 34  1  0  0  0  0
 11 35  1  0  0  0  0
 12 13  1  0  0  0  0
 13 36  1  0  0  0  0
 13 37  1  0  0  0  0
 13 38  1  0  0  0  0
 14 15  2  0  0  0  0
 14 16  1  0  0  0  0
 16 19  1  0  0  0  0
 16 17  1  0  0  0  0
 17 18  2  0  0  0  0
M  END
> <s_m_source_file>
AV-unprocessed.smi

> <i_m_source_file_index>
2628

> <i_lp_mmshare_version>
43012

> <i_f3d_flags>
0

> <s_epik_input>
W0NIM11bQ0gyXVtDSDJdW0NIMl1uMWMoW05IMl0pYyhjKD1PKVtuSF1jMT1PKVtOSF1bQ0gyXVtDSDJdT1tDSDNd

> <s_epik_cmdline>
J2VwaWtfcHl0aG9uJywgJy1waCcsICc3LjAnLCAnLXRuJywgJzgnLCAnLW1hJywgJzIwMCcsICctbWV0YWxfYmluZGluZycsICctaW1hZScsICc8aW5maWxlLm1hZT4nLCAnLW9tYWUnLCAnPG91dGZpbGUubWFlPic=

> <r_lp_tautomer_probability>
1

> <r_epik_Ionization_Penalty>
1.09794e-05

> <r_epik_Ionization_Penalty_Charging>
2.75876e-06

> <r_epik_Ionization_Penalty_Neutral>
8.2206e-06

> <r_epik_State_Penalty>
-0

> <r_epik_Charging_Adjusted_Penalty>
2.75876e-06

> <i_epik_Tot_Q>
0

> <i_epik_Tot_abs_Q>
0

> <r_epik_Metal_State_Penalty>
-0

> <b_epik_Metal_Only>
0

> <s_epik_Chemistry_Notes>
This compound has an imine and may undergo hydrolysis.

> <s_lp_Force_Field>
OPLS_2005

> <r_lp_Energy>
18.1798

> <b_lp_Chiralities_Consistent>
1

> <s_lp_Variant>
AV-unprocessed.smi:2628-1

> <Gold.Version>
5.8.1

> <Gold.Id.Protein>
6NUR|6NUR_protein|mol2

> <Gold.PLP.Fitness>
46.9120

> <Gold.PLP.PLP>
-38.0775

> <Gold.PLP.part.hbond>
-4.0000

> <Gold.PLP.part.metal>
0.0000

> <Gold.PLP.part.buried>
-4.1393

> <Gold.PLP.part.nonpolar>
-30.8256

> <Gold.PLP.part.repulsive>
1.6717

> <Gold.PLP.ligand.clash>
0.0000

> <Gold.PLP.ligand.torsion>
0.6355

> <Gold.PLP.Chemscore.Hbond>
3.3600

> <Gold.PLP.Chemscore.CHOScore>
0.0000

> <Gold.PLP.Chemscore.Metal>
0.0000

> <Gold.Chemscore.Hbonds>
donor molecule, donor type, donor heavy atom, donor atom, acceptor molecule, acceptor atom, score
      L1  H     7    30       P1  8028  0.51
      L1  H     9    31       P1  8028  0.48
      P1  H  7989  7998       L1    15  1.00
      P1  H  7997  8010       L1    18  1.00

> <Gold.PLP.Chemscore.Internal.Correction>
0.0254

> <Gold.Rescore>
     Score         DG    S(hbond)    S(metal)    S(lipo)     H(rot)  DE(clash)    DE(int)     intcor
     11.84     -14.43       1.73        0.00      78.40       2.35       0.55       2.03       ----

> <Gold.Chemscore.Fitness>
11.8387

> <Gold.Chemscore.DG>
-14.4285

> <Gold.Chemscore.ZeroCoef>
-5.4800

> <Gold.Chemscore.Hbond>
1.7327

> <Gold.Chemscore.Metal>
0.0000

> <Gold.Chemscore.Lipo>
78.4028

> <Gold.Chemscore.Internal_Hbond>
0.0000

> <Gold.Chemscore.DEClash>
0.5549

> <Gold.Chemscore.DEInternal>
2.0349

> <Gold.Chemscore.Rot>
2.3484

> <Gold.Chemscore.Internal.Correction>
   9.000000E+99

> <Gold.Chemscore.Hbonds>
donor molecule, donor type, donor heavy atom, donor atom, acceptor molecule, acceptor atom, score
      L1  H     7    30       P1  8028  0.08
      L1  H     9    31       P1  8028  0.47
      P1  H  7989  7998       L1    15  0.54
      P1  H  7997  8010       L1    18  0.38

> <Gold.Chemscore.Hbond.Weighted>
-5.7873

> <Gold.Chemscore.Metal.Weighted>
-0.0000

> <Gold.Chemscore.Lipo.Weighted>
-9.1731

> <Gold.Chemscore.Internal_Hbond.Weighted>
0.0000

> <Gold.Chemscore.DEClash.Weighted>
0.5549

> <Gold.Chemscore.DEInternal.Weighted>
2.0349

> <Gold.Chemscore.Rot.Weighted>
6.0120

> <Gold.Chemscore.Internal.Correction.Weighted>
   9.000000E+99

> <Gold.Protein.RotatedTorsions>
[ 6907 6896 6895 6894 ] final   63.85 input  -60.11 | X-H torsion
[ 7974 7965 7964 7962 ] final   73.78 input  175.53 | X-H torsion
[ 8008 7997 7996 7995 ] final   35.56 input   59.86 | X-H torsion
[ 10167 10162 10161 10158 ] final  -85.45 input  -65.29 | X-H torsion
[ 10718 10713 10712 10709 ] final  -43.07 input   66.30 | X-H torsion
[ 10763 10752 10751 10750 ] final   14.21 input  -60.55 | X-H torsion
[ 11005 11000 10999 10996 ] final -167.30 input  -57.11 | X-H torsion

> <Gold.Protein.ActiveResidues>
 VAL166  LYS551  ARG553  GLY616  TRP617  ASP618  TYR619  PRO620  LYS621  CYS622 
 ASP623  PHE694  ASN695  SER759  ASP760  ASP761  ALA762  ILE779  LEU786  VAL792 
 PHE793  MET794  SER795  GLU796  ALA797  LYS798  CYS799  TRP800  GLU811  SER814 

> <Gold.Protein.RotatedAtoms>
  152.4286  134.5821  159.9950 H   0  0  0  0  0  0  0  0  0  0  0  0  # atno 6907 bound_to 6896
  151.5951  133.3356  159.3043 H   0  0  0  0  0  0  0  0  0  0  0  0  # atno 6908 bound_to 6896
  150.8177  134.7404  159.6809 H   0  0  0  0  0  0  0  0  0  0  0  0  # atno 6909 bound_to 6896
  145.7366  139.2704  143.1511 H   0  0  0  0  0  0  0  0  0  0  0  0  # atno 7974 bound_to 7965
  155.1730  140.3293  155.4389 H   0  0  0  0  0  0  0  0  0  0  0  0  # atno 8008 bound_to 7997
  156.2503  140.1940  156.6783 H   0  0  0  0  0  0  0  0  0  0  0  0  # atno 8009 bound_to 7997
  154.6324  140.0581  156.9734 H   0  0  0  0  0  0  0  0  0  0  0  0  # atno 8010 bound_to 7997
  140.4036  143.2652  151.9110 H   0  0  0  0  0  0  0  0  0  0  0  0  # atno 10167 bound_to 10162
  156.2528  130.4189  149.8630 H   0  0  0  0  0  0  0  0  0  0  0  0  # atno 10718 bound_to 10713
  153.1644  135.6801  153.8696 H   0  0  0  0  0  0  0  0  0  0  0  0  # atno 10763 bound_to 10752
  153.8081  135.3146  155.3399 H   0  0  0  0  0  0  0  0  0  0  0  0  # atno 10764 bound_to 10752
  154.7955  135.4809  154.0241 H   0  0  0  0  0  0  0  0  0  0  0  0  # atno 10765 bound_to 10752
  140.5548  134.5392  157.5130 H   0  0  0  0  0  0  0  0  0  0  0  0  # atno 11005 bound_to 11000
  146.0488  140.8091  142.9792 LP  0  0  0  0  0  0  0  0  0  0  0  0  # atno 17320 bound_to 7965
  144.6880  140.3021  143.7261 LP  0  0  0  0  0  0  0  0  0  0  0  0  # atno 17321 bound_to 7965
  139.4784  144.5609  151.8241 LP  0  0  0  0  0  0  0  0  0  0  0  0  # atno 17342 bound_to 10162
  140.4713  144.1582  150.5918 LP  0  0  0  0  0  0  0  0  0  0  0  0  # atno 17343 bound_to 10162
  156.6172  130.8611  151.3467 LP  0  0  0  0  0  0  0  0  0  0  0  0  # atno 17370 bound_to 10713
  157.7221  130.9572  150.1481 LP  0  0  0  0  0  0  0  0  0  0  0  0  # atno 17371 bound_to 10713
  139.9437  134.7740  156.0614 LP  0  0  0  0  0  0  0  0  0  0  0  0  # atno 17394 bound_to 11000
  141.1150  133.6630  156.3072 LP  0  0  0  0  0  0  0  0  0  0  0  0  # atno 17395 bound_to 11000

$$$$
