AV-unprocessed.smi:3056|AV-procd|sdf|11654|dock6
  -GOLD-   2272017 53D 1   1.00000     0.00000
 Structure written by MMmdl.
 47 48  0  0  0  0  0  0  0  0  1 V2000
  146.6819  129.5049  152.0486 C   0  0  0  0  0  0  0  0  0  0  0  0
  146.9172  130.9385  152.4283 C   0  0  0  0  0  0  0  0  0  0  0  0
  148.0944  131.5106  152.9871 C   0  0  0  0  0  0  0  0  0  0  0  0
  147.9820  132.8106  153.2029 N   0  0  0  0  0  0  0  0  0  0  0  0
  146.7288  133.1166  152.7970 N   0  0  0  0  0  0  0  0  0  0  0  0
  146.2454  134.4931  152.8612 C   0  0  1  0  0  0  0  0  0  0  0  0
  144.7111  134.5194  152.7173 C   0  0  0  0  0  0  0  0  0  0  0  0
  146.7527  135.2060  154.1441 C   0  0  2  0  0  0  0  0  0  0  0  0
  146.1725  136.6226  154.3202 C   0  0  0  0  0  0  0  0  0  0  0  0
  148.2073  135.3192  154.0662 N   0  0  0  0  0  0  0  0  0  0  0  0
  148.7708  136.1841  155.1119 C   0  0  0  0  0  0  0  0  0  0  0  0
  150.2773  136.4374  154.9346 C   0  0  0  0  0  0  0  0  0  0  0  0
  151.0735  135.5400  155.2187 O   0  0  0  0  0  0  0  0  0  0  0  0
  150.6874  137.6427  154.4722 N   0  0  0  0  0  0  0  0  0  0  0  0
  152.0976  138.0220  154.3566 C   0  0  0  0  0  0  0  0  0  0  0  0
  152.3686  139.1565  155.3606 C   0  0  0  0  0  0  0  0  0  0  0  0
  151.4932  140.2519  155.0978 O   0  0  0  0  0  0  0  0  0  0  0  0
  150.1100  139.9049  155.1649 C   0  0  1  0  0  0  0  0  0  0  0  0
  149.2847  141.1655  154.8860 C   0  0  0  0  0  0  0  0  0  0  0  0
  149.8257  138.7828  154.1461 C   0  0  0  0  0  0  0  0  0  0  0  0
  146.0679  132.0032  152.3208 C   0  0  0  0  0  0  0  0  0  0  0  0
  146.6947  128.8513  152.9208 H   0  0  0  0  0  0  0  0  0  0  0  0
  147.4457  129.1407  151.3614 H   0  0  0  0  0  0  0  0  0  0  0  0
  145.7178  129.3673  151.5582 H   0  0  0  0  0  0  0  0  0  0  0  0
  149.0239  131.0216  153.2387 H   0  0  0  0  0  0  0  0  0  0  0  0
  146.6567  135.0133  151.9944 H   0  0  0  0  0  0  0  0  0  0  0  0
  144.3388  135.5329  152.5721 H   0  0  0  0  0  0  0  0  0  0  0  0
  144.2186  134.1062  153.5980 H   0  0  0  0  0  0  0  0  0  0  0  0
  144.3907  133.9369  151.8527 H   0  0  0  0  0  0  0  0  0  0  0  0
  146.4707  134.5983  155.0058 H   0  0  0  0  0  0  0  0  0  0  0  0
  145.0927  136.5968  154.4632 H   0  0  0  0  0  0  0  0  0  0  0  0
  146.3784  137.2478  153.4508 H   0  0  0  0  0  0  0  0  0  0  0  0
  146.5890  137.1238  155.1939 H   0  0  0  0  0  0  0  0  0  0  0  0
  148.4790  135.6187  153.1406 H   0  0  0  0  0  0  0  0  0  0  0  0
  148.2511  137.1424  155.1182 H   0  0  0  0  0  0  0  0  0  0  0  0
  148.6112  135.7071  156.0802 H   0  0  0  0  0  0  0  0  0  0  0  0
  152.7801  137.1920  154.5432 H   0  0  0  0  0  0  0  0  0  0  0  0
  152.3026  138.3599  153.3397 H   0  0  0  0  0  0  0  0  0  0  0  0
  152.2306  138.8085  156.3855 H   0  0  0  0  0  0  0  0  0  0  0  0
  153.3997  139.4998  155.2757 H   0  0  0  0  0  0  0  0  0  0  0  0
  149.8802  139.5532  156.1724 H   0  0  0  0  0  0  0  0  0  0  0  0
  148.2163  140.9545  154.9394 H   0  0  0  0  0  0  0  0  0  0  0  0
  149.4984  141.5664  153.8949 H   0  0  0  0  0  0  0  0  0  0  0  0
  149.5056  141.9447  155.6157 H   0  0  0  0  0  0  0  0  0  0  0  0
  150.0547  139.1259  153.1360 H   0  0  0  0  0  0  0  0  0  0  0  0
  148.7638  138.5421  154.1387 H   0  0  0  0  0  0  0  0  0  0  0  0
  145.0577  132.0611  151.9434 H   0  0  0  0  0  0  0  0  0  0  0  0
  1  2  1  0  0  0  0
  1 22  1  0  0  0  0
  1 23  1  0  0  0  0
  1 24  1  0  0  0  0
  2 21  2  0  0  0  0
  2  3  1  0  0  0  0
  3  4  2  0  0  0  0
  3 25  1  0  0  0  0
  4  5  1  0  0  0  0
  5  6  1  0  0  0  0
  5 21  1  0  0  0  0
  6  7  1  0  0  0  0
  6  8  1  0  0  0  0
  6 26  1  0  0  0  0
  7 27  1  0  0  0  0
  7 28  1  0  0  0  0
  7 29  1  0  0  0  0
  8  9  1  0  0  0  0
  8 10  1  0  0  0  0
  8 30  1  0  0  0  0
  9 31  1  0  0  0  0
  9 32  1  0  0  0  0
  9 33  1  0  0  0  0
 10 11  1  0  0  0  0
 10 34  1  0  0  0  0
 11 12  1  0  0  0  0
 11 35  1  0  0  0  0
 11 36  1  0  0  0  0
 12 13  2  0  0  0  0
 12 14  1  0  0  0  0
 14 20  1  0  0  0  0
 14 15  1  0  0  0  0
 15 16  1  0  0  0  0
 15 37  1  0  0  0  0
 15 38  1  0  0  0  0
 16 17  1  0  0  0  0
 16 39  1  0  0  0  0
 16 40  1  0  0  0  0
 17 18  1  0  0  0  0
 18 19  1  0  0  0  0
 18 20  1  0  0  0  0
 18 41  1  0  0  0  0
 19 42  1  0  0  0  0
 19 43  1  0  0  0  0
 19 44  1  0  0  0  0
 20 45  1  0  0  0  0
 20 46  1  0  0  0  0
 21 47  1  0  0  0  0
M  END
> <s_m_source_file>
AV-unprocessed.smi

> <i_m_source_file_index>
3056

> <i_lp_mmshare_version>
43012

> <i_f3d_flags>
0

> <s_epik_input>
W0NIM11jMVtjSF1ubihbY0hdMSlbQ0BIXShbQ0gzXSlbQ0BIXShbQ0gzXSlbTkhdW0NIMl1DKD1PKU4yW0NIMl1bQ0gyXU9bQ0BASF0oW0NIM10pW0NIMl0y

> <s_epik_cmdline>
J2VwaWtfcHl0aG9uJywgJy1waCcsICc3LjAnLCAnLXRuJywgJzgnLCAnLW1hJywgJzIwMCcsICctbWV0YWxfYmluZGluZycsICctaW1hZScsICc8aW5maWxlLm1hZT4nLCAnLW9tYWUnLCAnPG91dGZpbGUubWFlPic=

> <r_lp_tautomer_probability>
1

> <r_epik_Ionization_Penalty>
0.667689

> <r_epik_Ionization_Penalty_Charging>
0

> <r_epik_Ionization_Penalty_Neutral>
0.667689

> <r_epik_State_Penalty>
0.684601

> <r_epik_Charging_Adjusted_Penalty>
0.684601

> <i_epik_Tot_Q>
0

> <i_epik_Tot_abs_Q>
0

> <r_epik_Metal_State_Penalty>
0.681448

> <b_epik_Metal_Only>
0

> <s_lp_Force_Field>
OPLS_2005

> <r_lp_Energy>
29.4013

> <b_lp_Chiralities_Consistent>
1

> <s_lp_Variant>
AV-unprocessed.smi:3056-10

> <Gold.Version>
5.8.1

> <Gold.Id.Protein>
6NUR|6NUR_protein|mol2

> <Gold.PLP.Fitness>
41.7308

> <Gold.PLP.PLP>
-34.3837

> <Gold.PLP.part.hbond>
-3.0000

> <Gold.PLP.part.metal>
0.0000

> <Gold.PLP.part.buried>
-2.3710

> <Gold.PLP.part.nonpolar>
-29.4537

> <Gold.PLP.part.repulsive>
0.2819

> <Gold.PLP.ligand.clash>
0.0000

> <Gold.PLP.ligand.torsion>
0.8657

> <Gold.PLP.Chemscore.Hbond>
2.9920

> <Gold.PLP.Chemscore.CHOScore>
0.0000

> <Gold.PLP.Chemscore.Metal>
0.0000

> <Gold.Chemscore.Hbonds>
donor molecule, donor type, donor heavy atom, donor atom, acceptor molecule, acceptor atom, score
      L1  H    10    34       P1  7948  0.88
      P1  H  7989  7998       L1    17  0.99
      P1  H 10752 10764       L1    13  1.00

> <Gold.PLP.Chemscore.Internal.Correction>
0.1026

> <Gold.Rescore>
     Score         DG    S(hbond)    S(metal)    S(lipo)     H(rot)  DE(clash)    DE(int)     intcor
     17.88     -18.80       2.59        0.00      76.64       1.68       0.06       0.87       ----

> <Gold.Chemscore.Fitness>
17.8756

> <Gold.Chemscore.DG>
-18.8013

> <Gold.Chemscore.ZeroCoef>
-5.4800

> <Gold.Chemscore.Hbond>
2.5910

> <Gold.Chemscore.Metal>
0.0000

> <Gold.Chemscore.Lipo>
76.6354

> <Gold.Chemscore.Internal_Hbond>
0.0000

> <Gold.Chemscore.DEClash>
0.0573

> <Gold.Chemscore.DEInternal>
0.8685

> <Gold.Chemscore.Rot>
1.6793

> <Gold.Chemscore.Internal.Correction>
   9.000000E+99

> <Gold.Chemscore.Hbonds>
donor molecule, donor type, donor heavy atom, donor atom, acceptor molecule, acceptor atom, score
      L1  H    10    34       P1  7948  0.85
      P1  H  7989  7998       L1    17  0.32
      P1  H 10752 10764       L1    13  0.98

> <Gold.Chemscore.Hbond.Weighted>
-8.6540

> <Gold.Chemscore.Metal.Weighted>
-0.0000

> <Gold.Chemscore.Lipo.Weighted>
-8.9663

> <Gold.Chemscore.Internal_Hbond.Weighted>
0.0000

> <Gold.Chemscore.DEClash.Weighted>
0.0573

> <Gold.Chemscore.DEInternal.Weighted>
0.8685

> <Gold.Chemscore.Rot.Weighted>
4.2990

> <Gold.Chemscore.Internal.Correction.Weighted>
   9.000000E+99

> <Gold.Protein.RotatedTorsions>
[ 6907 6896 6895 6894 ] final  -89.30 input  -60.11 | X-H torsion
[ 7974 7965 7964 7962 ] final -150.60 input  175.53 | X-H torsion
[ 8008 7997 7996 7995 ] final   69.63 input   59.86 | X-H torsion
[ 10167 10162 10161 10158 ] final  -33.49 input  -65.29 | X-H torsion
[ 10718 10713 10712 10709 ] final  -40.11 input   66.30 | X-H torsion
[ 10763 10752 10751 10750 ] final  -55.57 input  -60.55 | X-H torsion
[ 11005 11000 10999 10996 ] final  121.26 input  -57.11 | X-H torsion

> <Gold.Protein.ActiveResidues>
 VAL166  LYS551  ARG553  GLY616  TRP617  ASP618  TYR619  PRO620  LYS621  CYS622 
 ASP623  PHE694  ASN695  SER759  ASP760  ASP761  ALA762  ILE779  LEU786  VAL792 
 PHE793  MET794  SER795  GLU796  ALA797  LYS798  CYS799  TRP800  GLU811  SER814 

> <Gold.Protein.RotatedAtoms>
  150.6873  134.2608  159.4548 H   0  0  0  0  0  0  0  0  0  0  0  0  # atno 6907 bound_to 6896
  152.0538  134.9634  160.0584 H   0  0  0  0  0  0  0  0  0  0  0  0  # atno 6908 bound_to 6896
  152.1088  133.4255  159.4658 H   0  0  0  0  0  0  0  0  0  0  0  0  # atno 6909 bound_to 6896
  144.7898  140.4910  143.5780 H   0  0  0  0  0  0  0  0  0  0  0  0  # atno 7974 bound_to 7965
  155.7266  140.3492  155.5040 H   0  0  0  0  0  0  0  0  0  0  0  0  # atno 8008 bound_to 7997
  155.9221  140.1069  157.1220 H   0  0  0  0  0  0  0  0  0  0  0  0  # atno 8009 bound_to 7997
  154.4071  140.1247  156.4680 H   0  0  0  0  0  0  0  0  0  0  0  0  # atno 8010 bound_to 7997
  140.7203  143.3616  151.1951 H   0  0  0  0  0  0  0  0  0  0  0  0  # atno 10167 bound_to 10162
  156.2850  130.4221  149.8298 H   0  0  0  0  0  0  0  0  0  0  0  0  # atno 10718 bound_to 10713
  154.1929  135.6424  153.5065 H   0  0  0  0  0  0  0  0  0  0  0  0  # atno 10763 bound_to 10752
  153.0030  135.5433  154.6396 H   0  0  0  0  0  0  0  0  0  0  0  0  # atno 10764 bound_to 10752
  154.5789  135.2923  155.0725 H   0  0  0  0  0  0  0  0  0  0  0  0  # atno 10765 bound_to 10752
  139.9218  134.9638  156.7931 H   0  0  0  0  0  0  0  0  0  0  0  0  # atno 11005 bound_to 11000
  145.5824  139.1490  143.3228 LP  0  0  0  0  0  0  0  0  0  0  0  0  # atno 17320 bound_to 7965
  146.2146  140.5953  142.9044 LP  0  0  0  0  0  0  0  0  0  0  0  0  # atno 17321 bound_to 7965
  139.7170  143.9285  152.2970 LP  0  0  0  0  0  0  0  0  0  0  0  0  # atno 17342 bound_to 10162
  139.9029  144.6901  150.8645 LP  0  0  0  0  0  0  0  0  0  0  0  0  # atno 17343 bound_to 10162
  156.5731  130.8433  151.3362 LP  0  0  0  0  0  0  0  0  0  0  0  0  # atno 17370 bound_to 10713
  157.7326  130.9717  150.1935 LP  0  0  0  0  0  0  0  0  0  0  0  0  # atno 17371 bound_to 10713
  140.6451  133.9783  155.7726 LP  0  0  0  0  0  0  0  0  0  0  0  0  # atno 17394 bound_to 11000
  141.0746  134.0155  157.3477 LP  0  0  0  0  0  0  0  0  0  0  0  0  # atno 17395 bound_to 11000

$$$$
