AV-unprocessed.smi:1759|AV-procd|sdf|7087|dock1
  -GOLD-   22720 8303D 1   1.00000     0.00000
 Structure written by MMmdl.
 31 32  0  0  0  0  0  0  0  0  1 V2000
  146.5248  138.0734  152.4829 C   0  0  0  0  0  0  0  0  0  0  0  0
  147.0214  139.3880  152.9775 C   0  0  0  0  0  0  0  0  0  0  0  0
  147.8138  139.7466  154.0315 C   0  0  0  0  0  0  0  0  0  0  0  0
  147.8854  141.1598  153.9112 C   0  0  0  0  0  0  0  0  0  0  0  0
  148.6369  141.9312  154.8335 N   0  0  0  0  0  0  0  0  0  0  0  0
  149.8151  141.6148  155.3967 C   0  0  0  0  0  0  0  0  0  0  0  0
  150.4556  140.5873  155.1726 O   0  0  0  0  0  0  0  0  0  0  0  0
  150.2223  142.5707  156.2437 N   0  0  0  0  0  0  0  0  0  0  0  0
  151.4724  142.5438  156.9939 C   0  0  0  0  0  0  0  0  0  0  0  0
  151.2738  143.0472  158.4328 C   0  0  2  0  0  0  0  0  0  0  0  0
  151.5048  144.5493  158.5929 C   0  0  0  0  0  0  0  0  0  0  0  0
  151.9227  144.6452  160.0421 C   0  0  0  0  0  0  0  0  0  0  0  0
  152.7778  143.3925  160.1947 C   0  0  0  0  0  0  0  0  0  0  0  0
  152.2113  142.4277  159.3126 O   0  0  0  0  0  0  0  0  0  0  0  0
  147.1981  141.6223  152.8779 N   0  0  0  0  0  0  0  0  0  0  0  0
  146.6407  140.4890  152.2742 O   0  0  0  0  0  0  0  0  0  0  0  0
  146.8823  137.2593  153.1136 H   0  0  0  0  0  0  0  0  0  0  0  0
  146.8691  137.8891  151.4652 H   0  0  0  0  0  0  0  0  0  0  0  0
  145.4351  138.0478  152.4822 H   0  0  0  0  0  0  0  0  0  0  0  0
  148.2683  139.1000  154.7675 H   0  0  0  0  0  0  0  0  0  0  0  0
  148.2306  142.8162  155.0981 H   0  0  0  0  0  0  0  0  0  0  0  0
  149.6375  143.3847  156.3645 H   0  0  0  0  0  0  0  0  0  0  0  0
  151.8477  141.5202  157.0031 H   0  0  0  0  0  0  0  0  0  0  0  0
  152.2274  143.1447  156.4836 H   0  0  0  0  0  0  0  0  0  0  0  0
  150.2709  142.8062  158.7891 H   0  0  0  0  0  0  0  0  0  0  0  0
  152.3186  144.8865  157.9490 H   0  0  0  0  0  0  0  0  0  0  0  0
  150.6188  145.1414  158.3624 H   0  0  0  0  0  0  0  0  0  0  0  0
  152.4632  145.5630  160.2747 H   0  0  0  0  0  0  0  0  0  0  0  0
  151.0476  144.5866  160.6907 H   0  0  0  0  0  0  0  0  0  0  0  0
  153.8019  143.5914  159.8764 H   0  0  0  0  0  0  0  0  0  0  0  0
  152.8070  143.0286  161.2220 H   0  0  0  0  0  0  0  0  0  0  0  0
  1  2  1  0  0  0  0
  1 17  1  0  0  0  0
  1 18  1  0  0  0  0
  1 19  1  0  0  0  0
  2 16  1  0  0  0  0
  2  3  2  0  0  0  0
  3  4  1  0  0  0  0
  3 20  1  0  0  0  0
  4  5  1  0  0  0  0
  4 15  2  0  0  0  0
  5  6  1  0  0  0  0
  5 21  1  0  0  0  0
  6  7  2  0  0  0  0
  6  8  1  0  0  0  0
  8  9  1  0  0  0  0
  8 22  1  0  0  0  0
  9 10  1  0  0  0  0
  9 23  1  0  0  0  0
  9 24  1  0  0  0  0
 10 14  1  0  0  0  0
 10 11  1  0  0  0  0
 10 25  1  0  0  0  0
 11 12  1  0  0  0  0
 11 26  1  0  0  0  0
 11 27  1  0  0  0  0
 12 13  1  0  0  0  0
 12 28  1  0  0  0  0
 12 29  1  0  0  0  0
 13 14  1  0  0  0  0
 13 30  1  0  0  0  0
 13 31  1  0  0  0  0
 15 16  1  0  0  0  0
M  END
> <s_m_source_file>
AV-unprocessed.smi

> <i_m_source_file_index>
1759

> <i_lp_mmshare_version>
43012

> <i_f3d_flags>
0

> <s_epik_input>
W0NIM11jMVtjSF1jKG5vMSlbTkhdQyg9TylbTkhdW0NIMl1bQ0BASF0yW0NIMl1bQ0gyXVtDSDJdTzI=

> <s_epik_cmdline>
J2VwaWtfcHl0aG9uJywgJy1waCcsICc3LjAnLCAnLXRuJywgJzgnLCAnLW1hJywgJzIwMCcsICctbWV0YWxfYmluZGluZycsICctaW1hZScsICc8aW5maWxlLm1hZT4nLCAnLW9tYWUnLCAnPG91dGZpbGUubWFlPic=

> <r_lp_tautomer_probability>
1

> <r_epik_Ionization_Penalty>
2.1743e-05

> <r_epik_Ionization_Penalty_Charging>
0

> <r_epik_Ionization_Penalty_Neutral>
2.1743e-05

> <r_epik_State_Penalty>
-0

> <r_epik_Charging_Adjusted_Penalty>
0

> <i_epik_Tot_Q>
0

> <i_epik_Tot_abs_Q>
0

> <r_epik_Metal_State_Penalty>
-0

> <b_epik_Metal_Only>
0

> <s_lp_Force_Field>
OPLS_2005

> <r_lp_Energy>
14.3546

> <b_lp_Chiralities_Consistent>
1

> <s_lp_Variant>
AV-unprocessed.smi:1759-1

> <Gold.Version>
5.8.1

> <Gold.Id.Protein>
6NUR|6NUR_protein|mol2

> <Gold.PLP.Fitness>
32.9586

> <Gold.PLP.PLP>
-26.0481

> <Gold.PLP.part.hbond>
-3.3628

> <Gold.PLP.part.metal>
0.0000

> <Gold.PLP.part.buried>
1.8874

> <Gold.PLP.part.nonpolar>
-24.8033

> <Gold.PLP.part.repulsive>
1.8612

> <Gold.PLP.ligand.clash>
0.0000

> <Gold.PLP.ligand.torsion>
0.7982

> <Gold.PLP.Chemscore.Hbond>
2.8316

> <Gold.PLP.Chemscore.CHOScore>
0.0000

> <Gold.PLP.Chemscore.Metal>
0.0000

> <Gold.Chemscore.Hbonds>
donor molecule, donor type, donor heavy atom, donor atom, acceptor molecule, acceptor atom, score
      L1  H     5    21       P1  8028  0.71
      L1  H     8    22       P1  8028  0.96
      P1  H  7989  7998       L1     7  0.87

> <Gold.PLP.Chemscore.Internal.Correction>
0.0121

> <Gold.Rescore>
     Score         DG    S(hbond)    S(metal)    S(lipo)     H(rot)  DE(clash)    DE(int)     intcor
     13.63     -19.15       2.38        0.00      77.42       1.30       3.87       1.66       ----

> <Gold.Chemscore.Fitness>
13.6250

> <Gold.Chemscore.DG>
-19.1549

> <Gold.Chemscore.ZeroCoef>
-5.4800

> <Gold.Chemscore.Hbond>
2.3760

> <Gold.Chemscore.Metal>
0.0000

> <Gold.Chemscore.Lipo>
77.4198

> <Gold.Chemscore.Internal_Hbond>
0.0000

> <Gold.Chemscore.DEClash>
3.8656

> <Gold.Chemscore.DEInternal>
1.6643

> <Gold.Chemscore.Rot>
1.2965

> <Gold.Chemscore.Internal.Correction>
   9.000000E+99

> <Gold.Chemscore.Hbonds>
donor molecule, donor type, donor heavy atom, donor atom, acceptor molecule, acceptor atom, score
      L1  H     5    21       P1  8028  0.67
      L1  H     8    22       P1  8028  0.92
      P1  H  7989  7998       L1     7  0.56

> <Gold.Chemscore.Hbond.Weighted>
-7.9359

> <Gold.Chemscore.Metal.Weighted>
-0.0000

> <Gold.Chemscore.Lipo.Weighted>
-9.0581

> <Gold.Chemscore.Internal_Hbond.Weighted>
0.0000

> <Gold.Chemscore.DEClash.Weighted>
3.8656

> <Gold.Chemscore.DEInternal.Weighted>
1.6643

> <Gold.Chemscore.Rot.Weighted>
3.3192

> <Gold.Chemscore.Internal.Correction.Weighted>
   9.000000E+99

> <Gold.Protein.RotatedTorsions>
[ 6907 6896 6895 6894 ] final  -28.83 input  -60.11 | X-H torsion
[ 7974 7965 7964 7962 ] final  -39.37 input  175.53 | X-H torsion
[ 8008 7997 7996 7995 ] final  106.01 input   59.86 | X-H torsion
[ 10167 10162 10161 10158 ] final -125.03 input  -65.29 | X-H torsion
[ 10718 10713 10712 10709 ] final  -53.91 input   66.30 | X-H torsion
[ 10763 10752 10751 10750 ] final   73.32 input  -60.55 | X-H torsion
[ 11005 11000 10999 10996 ] final  -64.28 input  -57.11 | X-H torsion

> <Gold.Protein.ActiveResidues>
 VAL166  LYS551  ARG553  GLY616  TRP617  ASP618  TYR619  PRO620  LYS621  CYS622 
 ASP623  PHE694  ASN695  SER759  ASP760  ASP761  ALA762  ILE779  LEU786  VAL792 
 PHE793  MET794  SER795  GLU796  ALA797  LYS798  CYS799  TRP800  GLU811  SER814 

> <Gold.Protein.RotatedAtoms>
  151.1275  135.0112  159.8566 H   0  0  0  0  0  0  0  0  0  0  0  0  # atno 6907 bound_to 6896
  152.5450  134.1649  159.8583 H   0  0  0  0  0  0  0  0  0  0  0  0  # atno 6908 bound_to 6896
  151.1713  133.4737  159.2627 H   0  0  0  0  0  0  0  0  0  0  0  0  # atno 6909 bound_to 6896
  146.0403  140.6618  142.9090 H   0  0  0  0  0  0  0  0  0  0  0  0  # atno 7974 bound_to 7965
  156.1708  140.3120  155.8970 H   0  0  0  0  0  0  0  0  0  0  0  0  # atno 8008 bound_to 7997
  155.3591  140.0475  157.3063 H   0  0  0  0  0  0  0  0  0  0  0  0  # atno 8009 bound_to 7997
  154.5239  140.2207  155.8937 H   0  0  0  0  0  0  0  0  0  0  0  0  # atno 8010 bound_to 7997
  139.9865  143.5687  152.2358 H   0  0  0  0  0  0  0  0  0  0  0  0  # atno 10167 bound_to 10162
  156.1495  130.4152  149.9969 H   0  0  0  0  0  0  0  0  0  0  0  0  # atno 10718 bound_to 10713
  153.0514  135.5067  154.7876 H   0  0  0  0  0  0  0  0  0  0  0  0  # atno 10763 bound_to 10752
  154.6735  135.2957  154.9712 H   0  0  0  0  0  0  0  0  0  0  0  0  # atno 10764 bound_to 10752
  154.0522  135.6702  153.4854 H   0  0  0  0  0  0  0  0  0  0  0  0  # atno 10765 bound_to 10752
  141.1420  133.6663  156.5809 H   0  0  0  0  0  0  0  0  0  0  0  0  # atno 11005 bound_to 11000
  144.7071  140.3895  143.7109 LP  0  0  0  0  0  0  0  0  0  0  0  0  # atno 17320 bound_to 7965
  145.6896  139.1636  143.2654 LP  0  0  0  0  0  0  0  0  0  0  0  0  # atno 17321 bound_to 7965
  139.6371  144.7651  151.2414 LP  0  0  0  0  0  0  0  0  0  0  0  0  # atno 17342 bound_to 10162
  140.7470  143.6379  150.8362 LP  0  0  0  0  0  0  0  0  0  0  0  0  # atno 17343 bound_to 10162
  156.7831  130.9228  151.3646 LP  0  0  0  0  0  0  0  0  0  0  0  0  # atno 17370 bound_to 10713
  157.6645  130.8995  149.9901 LP  0  0  0  0  0  0  0  0  0  0  0  0  # atno 17371 bound_to 10713
  140.3838  134.7500  157.4678 LP  0  0  0  0  0  0  0  0  0  0  0  0  # atno 17394 bound_to 11000
  140.0617  134.5986  155.8741 LP  0  0  0  0  0  0  0  0  0  0  0  0  # atno 17395 bound_to 11000

$$$$
