AV-unprocessed.smi:753|AV-procd|sdf|3600|dock4
  -GOLD-   22720 0593D 1   1.00000     0.00000
 Structure written by MMmdl.
 43 45  0  0  0  0  0  0  0  0  1 V2000
  145.8694  136.5182  150.9377 C   0  0  0  0  0  0  0  0  0  0  0  0
  146.3214  137.6915  151.7817 C   0  0  0  0  0  0  0  0  0  0  0  0
  146.1598  137.6805  153.1832 C   0  0  0  0  0  0  0  0  0  0  0  0
  146.5964  138.8000  153.9173 C   0  0  0  0  0  0  0  0  0  0  0  0
  147.1777  139.8820  153.2251 C   0  0  0  0  0  0  0  0  0  0  0  0
  147.6597  141.1116  153.9686 C   0  0  0  0  0  0  0  0  0  0  0  0
  148.3916  140.7491  155.2701 C   0  0  0  0  0  0  0  0  0  0  0  0
  148.8363  141.9412  155.9800 N   0  0  0  0  0  0  0  0  0  0  0  0
  149.3882  141.9495  157.2049 C   0  0  0  0  0  0  0  0  0  0  0  0
  149.5681  140.9342  157.8746 O   0  0  0  0  0  0  0  0  0  0  0  0
  149.7402  143.1673  157.6529 N   0  0  0  0  0  0  0  0  0  0  0  0
  150.3595  143.5076  158.9366 C   0  0  1  0  0  0  0  0  0  0  0  0
  151.6678  142.7154  159.1537 C   0  0  0  0  0  0  0  0  0  0  0  0
  152.7183  143.8230  159.3557 C   0  0  1  0  0  0  0  0  0  0  0  0
  152.9848  144.5318  158.0142 C   0  0  0  0  0  0  0  0  0  0  0  0
  151.7059  145.3652  157.8090 C   0  0  0  0  0  0  0  0  0  0  0  0
  150.8496  144.9760  159.0334 C   0  0  2  0  0  0  0  0  0  0  0  0
  151.9195  144.8736  160.1153 C   0  0  0  0  0  0  0  0  0  0  0  0
  147.2931  139.7933  151.8220 C   0  0  0  0  0  0  0  0  0  0  0  0
  146.8755  138.7248  151.1095 N   0  0  0  0  0  0  0  0  0  0  0  0
  145.4725  135.7142  151.5582 H   0  0  0  0  0  0  0  0  0  0  0  0
  146.7049  136.1209  150.3609 H   0  0  0  0  0  0  0  0  0  0  0  0
  145.0886  136.8294  150.2434 H   0  0  0  0  0  0  0  0  0  0  0  0
  145.7113  136.8366  153.6868 H   0  0  0  0  0  0  0  0  0  0  0  0
  146.4851  138.8260  154.9916 H   0  0  0  0  0  0  0  0  0  0  0  0
  148.3149  141.6870  153.3131 H   0  0  0  0  0  0  0  0  0  0  0  0
  146.8032  141.7515  154.1859 H   0  0  0  0  0  0  0  0  0  0  0  0
  147.7250  140.1926  155.9295 H   0  0  0  0  0  0  0  0  0  0  0  0
  149.2416  140.0964  155.0631 H   0  0  0  0  0  0  0  0  0  0  0  0
  148.7270  142.8245  155.5032 H   0  0  0  0  0  0  0  0  0  0  0  0
  149.5492  143.9451  157.0380 H   0  0  0  0  0  0  0  0  0  0  0  0
  149.6711  143.2838  159.7537 H   0  0  0  0  0  0  0  0  0  0  0  0
  151.5896  142.0915  160.0450 H   0  0  0  0  0  0  0  0  0  0  0  0
  151.9227  142.0616  158.3180 H   0  0  0  0  0  0  0  0  0  0  0  0
  153.6236  143.4800  159.8572 H   0  0  0  0  0  0  0  0  0  0  0  0
  153.8586  145.1809  158.0817 H   0  0  0  0  0  0  0  0  0  0  0  0
  153.1546  143.8245  157.2015 H   0  0  0  0  0  0  0  0  0  0  0  0
  151.9417  146.4299  157.8343 H   0  0  0  0  0  0  0  0  0  0  0  0
  151.2212  145.1651  156.8535 H   0  0  0  0  0  0  0  0  0  0  0  0
  150.0538  145.6895  159.2492 H   0  0  0  0  0  0  0  0  0  0  0  0
  151.5348  144.5170  161.0726 H   0  0  0  0  0  0  0  0  0  0  0  0
  152.4680  145.8038  160.2748 H   0  0  0  0  0  0  0  0  0  0  0  0
  147.7288  140.6025  151.2544 H   0  0  0  0  0  0  0  0  0  0  0  0
  1  2  1  0  0  0  0
  1 21  1  0  0  0  0
  1 22  1  0  0  0  0
  1 23  1  0  0  0  0
  2 20  1  0  0  0  0
  2  3  2  0  0  0  0
  3  4  1  0  0  0  0
  3 24  1  0  0  0  0
  4  5  2  0  0  0  0
  4 25  1  0  0  0  0
  5  6  1  0  0  0  0
  5 19  1  0  0  0  0
  6  7  1  0  0  0  0
  6 26  1  0  0  0  0
  6 27  1  0  0  0  0
  7  8  1  0  0  0  0
  7 28  1  0  0  0  0
  7 29  1  0  0  0  0
  8  9  1  0  0  0  0
  8 30  1  0  0  0  0
  9 10  2  0  0  0  0
  9 11  1  0  0  0  0
 11 12  1  0  0  0  0
 11 31  1  0  0  0  0
 12 17  1  0  0  0  0
 12 13  1  0  0  0  0
 12 32  1  0  0  0  0
 13 14  1  0  0  0  0
 13 33  1  0  0  0  0
 13 34  1  0  0  0  0
 14 18  1  0  0  0  0
 14 15  1  0  0  0  0
 14 35  1  0  0  0  0
 15 16  1  0  0  0  0
 15 36  1  0  0  0  0
 15 37  1  0  0  0  0
 16 17  1  0  0  0  0
 16 38  1  0  0  0  0
 16 39  1  0  0  0  0
 17 18  1  0  0  0  0
 17 40  1  0  0  0  0
 18 41  1  0  0  0  0
 18 42  1  0  0  0  0
 19 20  2  0  0  0  0
 19 43  1  0  0  0  0
M  END
> <s_m_source_file>
AV-unprocessed.smi

> <i_m_source_file_index>
753

> <i_lp_mmshare_version>
43012

> <i_f3d_flags>
0

> <s_epik_input>
W0NIM11jMVtjSF1bY0hdYyhbY0hdbjEpW0NIMl1bQ0gyXVtOSF1DKD1PKVtOSF1bQ0BIXShbQ0gyXVtDQEBIXTIzKVtDQEBIXShbQ0gyXTMpW0NIMl1bQ0gyXTI=

> <s_epik_cmdline>
J2VwaWtfcHl0aG9uJywgJy1waCcsICc3LjAnLCAnLXRuJywgJzgnLCAnLW1hJywgJzIwMCcsICctbWV0YWxfYmluZGluZycsICctaW1hZScsICc8aW5maWxlLm1hZT4nLCAnLW9tYWUnLCAnPG91dGZpbGUubWFlPic=

> <r_epik_Ionization_Penalty>
0.0569047

> <r_epik_Ionization_Penalty_Charging>
0

> <r_epik_Ionization_Penalty_Neutral>
0.0569047

> <r_epik_State_Penalty>
0.0490541

> <r_epik_Charging_Adjusted_Penalty>
0.0490541

> <i_epik_Tot_Q>
0

> <i_epik_Tot_abs_Q>
0

> <r_epik_Metal_State_Penalty>
0.0447357

> <b_epik_Metal_Only>
0

> <s_lp_Force_Field>
OPLS_2005

> <r_lp_Energy>
50.4095

> <b_lp_Chiralities_Consistent>
1

> <s_lp_Variant>
AV-unprocessed.smi:753-2

> <Gold.Version>
5.8.1

> <Gold.Id.Protein>
6NUR|6NUR_protein|mol2

> <Gold.PLP.Fitness>
46.3500

> <Gold.PLP.PLP>
-37.1840

> <Gold.PLP.part.hbond>
-3.0000

> <Gold.PLP.part.metal>
0.0000

> <Gold.PLP.part.buried>
1.5381

> <Gold.PLP.part.nonpolar>
-36.1825

> <Gold.PLP.part.repulsive>
0.9435

> <Gold.PLP.ligand.clash>
0.0000

> <Gold.PLP.ligand.torsion>
0.3300

> <Gold.PLP.Chemscore.Hbond>
2.9040

> <Gold.PLP.Chemscore.CHOScore>
0.3656

> <Gold.PLP.Chemscore.Metal>
0.0000

> <Gold.Chemscore.Hbonds>
donor molecule, donor type, donor heavy atom, donor atom, acceptor molecule, acceptor atom, score
      L1  H     8    30       P1  8028  0.93
      L1  H    11    31       P1  8028  1.00
      P1  H  7954  7966       L1    20  0.96
      L1  C    19    43       P1  7957  0.32

> <Gold.PLP.Chemscore.Internal.Correction>
0.0172

> <Gold.Rescore>
     Score         DG    S(hbond)    S(metal)    S(lipo)     H(rot)  DE(clash)    DE(int)     intcor
     21.76     -25.53       2.41        0.00     133.89       1.43       3.62       0.15       ----

> <Gold.Chemscore.Fitness>
21.7594

> <Gold.Chemscore.DG>
-25.5322

> <Gold.Chemscore.ZeroCoef>
-5.4800

> <Gold.Chemscore.Hbond>
2.4087

> <Gold.Chemscore.Metal>
0.0000

> <Gold.Chemscore.Lipo>
133.8943

> <Gold.Chemscore.Internal_Hbond>
0.0000

> <Gold.Chemscore.DEClash>
3.6198

> <Gold.Chemscore.DEInternal>
0.1529

> <Gold.Chemscore.Rot>
1.4291

> <Gold.Chemscore.Internal.Correction>
   9.000000E+99

> <Gold.Chemscore.Hbonds>
donor molecule, donor type, donor heavy atom, donor atom, acceptor molecule, acceptor atom, score
      L1  H     8    30       P1  8028  0.89
      L1  H    11    31       P1  8028  0.74
      P1  H  7954  7966       L1    20  0.43

> <Gold.Chemscore.Hbond.Weighted>
-8.0450

> <Gold.Chemscore.Metal.Weighted>
-0.0000

> <Gold.Chemscore.Lipo.Weighted>
-15.6656

> <Gold.Chemscore.Internal_Hbond.Weighted>
0.0000

> <Gold.Chemscore.DEClash.Weighted>
3.6198

> <Gold.Chemscore.DEInternal.Weighted>
0.1529

> <Gold.Chemscore.Rot.Weighted>
3.6585

> <Gold.Chemscore.Internal.Correction.Weighted>
   9.000000E+99

> <Gold.Protein.RotatedTorsions>
[ 6907 6896 6895 6894 ] final   14.52 input  -60.11 | X-H torsion
[ 7974 7965 7964 7962 ] final -174.69 input  175.53 | X-H torsion
[ 8008 7997 7996 7995 ] final  -26.94 input   59.86 | X-H torsion
[ 10167 10162 10161 10158 ] final  177.37 input  -65.29 | X-H torsion
[ 10718 10713 10712 10709 ] final -137.26 input   66.30 | X-H torsion
[ 10763 10752 10751 10750 ] final  -62.79 input  -60.55 | X-H torsion
[ 11005 11000 10999 10996 ] final  136.00 input  -57.11 | X-H torsion

> <Gold.Protein.ActiveResidues>
 VAL166  LYS551  ARG553  GLY616  TRP617  ASP618  TYR619  PRO620  LYS621  CYS622 
 ASP623  PHE694  ASN695  SER759  ASP760  ASP761  ALA762  ILE779  LEU786  VAL792 
 PHE793  MET794  SER795  GLU796  ALA797  LYS798  CYS799  TRP800  GLU811  SER814 

> <Gold.Protein.RotatedAtoms>
  151.8035  135.0702  160.0403 H   0  0  0  0  0  0  0  0  0  0  0  0  # atno 6907 bound_to 6896
  152.3072  133.5710  159.5665 H   0  0  0  0  0  0  0  0  0  0  0  0  # atno 6908 bound_to 6896
  150.7302  134.0122  159.3715 H   0  0  0  0  0  0  0  0  0  0  0  0  # atno 6909 bound_to 6896
  144.7131  140.1433  143.6390 H   0  0  0  0  0  0  0  0  0  0  0  0  # atno 7974 bound_to 7965
  154.4401  140.1886  156.0854 H   0  0  0  0  0  0  0  0  0  0  0  0  # atno 8008 bound_to 7997
  156.0406  140.3320  155.7214 H   0  0  0  0  0  0  0  0  0  0  0  0  # atno 8009 bound_to 7997
  155.5704  140.0612  157.2798 H   0  0  0  0  0  0  0  0  0  0  0  0  # atno 8010 bound_to 7997
  139.5251  144.2805  152.0550 H   0  0  0  0  0  0  0  0  0  0  0  0  # atno 10167 bound_to 10162
  156.2862  130.7349  151.1361 H   0  0  0  0  0  0  0  0  0  0  0  0  # atno 10718 bound_to 10713
  154.3053  135.6226  153.5442 H   0  0  0  0  0  0  0  0  0  0  0  0  # atno 10763 bound_to 10752
  152.9836  135.5688  154.5238 H   0  0  0  0  0  0  0  0  0  0  0  0  # atno 10764 bound_to 10752
  154.4877  135.2866  155.1497 H   0  0  0  0  0  0  0  0  0  0  0  0  # atno 10765 bound_to 10752
  140.0017  134.9476  157.0087 H   0  0  0  0  0  0  0  0  0  0  0  0  # atno 11005 bound_to 11000
  145.9182  139.2529  143.1397 LP  0  0  0  0  0  0  0  0  0  0  0  0  # atno 17320 bound_to 7965
  145.9647  140.8808  143.0193 LP  0  0  0  0  0  0  0  0  0  0  0  0  # atno 17321 bound_to 7965
  140.2261  144.4417  150.6320 LP  0  0  0  0  0  0  0  0  0  0  0  0  # atno 17342 bound_to 10162
  140.6386  143.2199  151.6339 LP  0  0  0  0  0  0  0  0  0  0  0  0  # atno 17343 bound_to 10162
  157.7329  131.0595  150.5604 LP  0  0  0  0  0  0  0  0  0  0  0  0  # atno 17370 bound_to 10713
  156.5715  130.4281  149.6017 LP  0  0  0  0  0  0  0  0  0  0  0  0  # atno 17371 bound_to 10713
  140.4715  134.1381  155.7204 LP  0  0  0  0  0  0  0  0  0  0  0  0  # atno 17394 bound_to 11000
  141.1647  133.8726  157.1749 LP  0  0  0  0  0  0  0  0  0  0  0  0  # atno 17395 bound_to 11000

$$$$
