AV-unprocessed.smi:840|AV-procd|sdf|3912|dock2
  -GOLD-   22720 1373D 1   1.00000     0.00000
 Structure written by MMmdl.
 37 38  0  0  0  0  0  0  0  0  1 V2000
  147.3903  141.4291  153.6833 C   0  0  0  0  0  0  0  0  0  0  0  0
  148.5942  140.8106  154.4129 C   0  0  1  0  0  0  0  0  0  0  0  0
  149.1913  141.8417  155.2600 N   0  0  0  0  0  0  0  0  0  0  0  0
  150.1314  141.6248  156.1923 C   0  0  0  0  0  0  0  0  0  0  0  0
  150.6102  140.5143  156.4264 O   0  0  0  0  0  0  0  0  0  0  0  0
  150.4653  142.7646  156.8225 N   0  0  0  0  0  0  0  0  0  0  0  0
  151.4286  142.9498  157.8487 C   0  0  0  0  0  0  0  0  0  0  0  0
  151.9142  141.9658  158.6146 N   0  0  0  0  0  0  0  0  0  0  0  0
  152.8523  142.4343  159.5380 C   0  0  0  0  0  0  0  0  0  0  0  0
  153.0703  143.7873  159.4608 C   0  0  0  0  0  0  0  0  0  0  0  0
  152.1009  144.5314  158.2172 S   0  0  0  0  0  0  0  0  0  0  0  0
  148.0914  139.6395  155.2713 C   0  0  0  0  0  0  0  0  0  0  0  0
  147.2857  139.8318  156.1835 O   0  0  0  0  0  0  0  0  0  0  0  0
  148.5756  138.4280  154.9601 N   0  0  0  0  0  0  0  0  0  0  0  0
  148.2456  137.1861  155.6536 C   0  0  0  0  0  0  0  0  0  0  0  0
  149.5151  136.3989  156.0363 C   0  0  0  0  0  0  0  0  0  0  0  0
  149.5650  135.1982  155.0915 C   0  0  0  0  0  0  0  0  0  0  0  0
  148.0986  134.8833  154.8144 C   0  0  0  0  0  0  0  0  0  0  0  0
  147.4226  136.2541  154.7430 C   0  0  0  0  0  0  0  0  0  0  0  0
  146.8984  140.6978  153.0406 H   0  0  0  0  0  0  0  0  0  0  0  0
  147.7053  142.2572  153.0479 H   0  0  0  0  0  0  0  0  0  0  0  0
  146.6444  141.8147  154.3803 H   0  0  0  0  0  0  0  0  0  0  0  0
  149.3242  140.4602  153.6802 H   0  0  0  0  0  0  0  0  0  0  0  0
  148.8486  142.7832  155.1377 H   0  0  0  0  0  0  0  0  0  0  0  0
  149.9761  143.5983  156.5319 H   0  0  0  0  0  0  0  0  0  0  0  0
  153.3173  141.7329  160.2150 H   0  0  0  0  0  0  0  0  0  0  0  0
  153.7401  144.3885  160.0576 H   0  0  0  0  0  0  0  0  0  0  0  0
  149.2360  138.3641  154.1990 H   0  0  0  0  0  0  0  0  0  0  0  0
  147.6719  137.4132  156.5542 H   0  0  0  0  0  0  0  0  0  0  0  0
  150.4289  136.9931  155.9899 H   0  0  0  0  0  0  0  0  0  0  0  0
  149.4187  136.0432  157.0630 H   0  0  0  0  0  0  0  0  0  0  0  0
  150.0624  135.4809  154.1627 H   0  0  0  0  0  0  0  0  0  0  0  0
  150.1052  134.3512  155.5156 H   0  0  0  0  0  0  0  0  0  0  0  0
  147.9590  134.2984  153.9049 H   0  0  0  0  0  0  0  0  0  0  0  0
  147.6843  134.3118  155.6459 H   0  0  0  0  0  0  0  0  0  0  0  0
  146.3753  136.2061  155.0432 H   0  0  0  0  0  0  0  0  0  0  0  0
  147.4443  136.6062  153.7100 H   0  0  0  0  0  0  0  0  0  0  0  0
  1  2  1  0  0  0  0
  1 20  1  0  0  0  0
  1 21  1  0  0  0  0
  1 22  1  0  0  0  0
  2  3  1  0  0  0  0
  2 12  1  0  0  0  0
  2 23  1  0  0  0  0
  3  4  1  0  0  0  0
  3 24  1  0  0  0  0
  4  5  2  0  0  0  0
  4  6  1  0  0  0  0
  6  7  1  0  0  0  0
  6 25  1  0  0  0  0
  7 11  1  0  0  0  0
  7  8  2  0  0  0  0
  8  9  1  0  0  0  0
  9 10  2  0  0  0  0
  9 26  1  0  0  0  0
 10 11  1  0  0  0  0
 10 27  1  0  0  0  0
 12 13  2  0  0  0  0
 12 14  1  0  0  0  0
 14 15  1  0  0  0  0
 14 28  1  0  0  0  0
 15 19  1  0  0  0  0
 15 16  1  0  0  0  0
 15 29  1  0  0  0  0
 16 17  1  0  0  0  0
 16 30  1  0  0  0  0
 16 31  1  0  0  0  0
 17 18  1  0  0  0  0
 17 32  1  0  0  0  0
 17 33  1  0  0  0  0
 18 19  1  0  0  0  0
 18 34  1  0  0  0  0
 18 35  1  0  0  0  0
 19 36  1  0  0  0  0
 19 37  1  0  0  0  0
M  END
> <s_m_source_file>
AV-unprocessed.smi

> <i_m_source_file_index>
840

> <i_lp_mmshare_version>
43012

> <i_f3d_flags>
0

> <s_epik_input>
W0NIMl0xW0NIMl1bQ0gyXVtDSDJdW0NIXTFbTkhdQyg9TylbQ0BIXShbQ0gzXSlbTkhdQyg9TylbTkhdYzJuW2NIXVtjSF1zMg==

> <s_epik_cmdline>
J2VwaWtfcHl0aG9uJywgJy1waCcsICc3LjAnLCAnLXRuJywgJzgnLCAnLW1hJywgJzIwMCcsICctbWV0YWxfYmluZGluZycsICctaW1hZScsICc8aW5maWxlLm1hZT4nLCAnLW9tYWUnLCAnPG91dGZpbGUubWFlPic=

> <r_lp_tautomer_probability>
1

> <r_epik_Ionization_Penalty>
0.000138928

> <r_epik_Ionization_Penalty_Charging>
0

> <r_epik_Ionization_Penalty_Neutral>
0.000138928

> <r_epik_State_Penalty>
-0

> <r_epik_Charging_Adjusted_Penalty>
0

> <i_epik_Tot_Q>
0

> <i_epik_Tot_abs_Q>
0

> <r_epik_Metal_State_Penalty>
0.0502858

> <b_epik_Metal_Only>
0

> <s_lp_Force_Field>
OPLS_2005

> <r_lp_Energy>
16.0697

> <b_lp_Chiralities_Consistent>
1

> <s_lp_Variant>
AV-unprocessed.smi:840-2

> <Gold.Version>
5.8.1

> <Gold.Id.Protein>
6NUR|6NUR_protein|mol2

> <Gold.PLP.Fitness>
36.0661

> <Gold.PLP.PLP>
-30.5954

> <Gold.PLP.part.hbond>
-2.0000

> <Gold.PLP.part.metal>
0.0000

> <Gold.PLP.part.buried>
-4.7060

> <Gold.PLP.part.nonpolar>
-23.9229

> <Gold.PLP.part.repulsive>
0.2271

> <Gold.PLP.ligand.clash>
0.0000

> <Gold.PLP.ligand.torsion>
0.2704

> <Gold.PLP.Chemscore.Hbond>
2.0000

> <Gold.PLP.Chemscore.CHOScore>
0.0000

> <Gold.PLP.Chemscore.Metal>
0.0000

> <Gold.Chemscore.Hbonds>
donor molecule, donor type, donor heavy atom, donor atom, acceptor molecule, acceptor atom, score
      L1  H     3    24       P1  8028  1.00
      L1  H     6    25       P1  8028  1.00

> <Gold.PLP.Chemscore.Internal.Correction>
0.0114

> <Gold.Rescore>
     Score         DG    S(hbond)    S(metal)    S(lipo)     H(rot)  DE(clash)    DE(int)     intcor
     13.40     -15.76       1.94        0.00      68.67       1.65       0.05       2.31       ----

> <Gold.Chemscore.Fitness>
13.3993

> <Gold.Chemscore.DG>
-15.7627

> <Gold.Chemscore.ZeroCoef>
-5.4800

> <Gold.Chemscore.Hbond>
1.9370

> <Gold.Chemscore.Metal>
0.0000

> <Gold.Chemscore.Lipo>
68.6710

> <Gold.Chemscore.Internal_Hbond>
0.0000

> <Gold.Chemscore.DEClash>
0.0514

> <Gold.Chemscore.DEInternal>
2.3120

> <Gold.Chemscore.Rot>
1.6490

> <Gold.Chemscore.Internal.Correction>
   9.000000E+99

> <Gold.Chemscore.Hbonds>
donor molecule, donor type, donor heavy atom, donor atom, acceptor molecule, acceptor atom, score
      L1  H     3    24       P1  8028  0.92
      L1  H     6    25       P1  8028  1.00

> <Gold.Chemscore.Hbond.Weighted>
-6.4697

> <Gold.Chemscore.Metal.Weighted>
-0.0000

> <Gold.Chemscore.Lipo.Weighted>
-8.0345

> <Gold.Chemscore.Internal_Hbond.Weighted>
0.0000

> <Gold.Chemscore.DEClash.Weighted>
0.0514

> <Gold.Chemscore.DEInternal.Weighted>
2.3120

> <Gold.Chemscore.Rot.Weighted>
4.2215

> <Gold.Chemscore.Internal.Correction.Weighted>
   9.000000E+99

> <Gold.Protein.RotatedTorsions>
[ 6907 6896 6895 6894 ] final   -2.03 input  -60.11 | X-H torsion
[ 7974 7965 7964 7962 ] final -149.31 input  175.53 | X-H torsion
[ 8008 7997 7996 7995 ] final   84.76 input   59.86 | X-H torsion
[ 10167 10162 10161 10158 ] final   86.74 input  -65.29 | X-H torsion
[ 10718 10713 10712 10709 ] final  158.08 input   66.30 | X-H torsion
[ 10763 10752 10751 10750 ] final  155.40 input  -60.55 | X-H torsion
[ 11005 11000 10999 10996 ] final -135.36 input  -57.11 | X-H torsion

> <Gold.Protein.ActiveResidues>
 VAL166  LYS551  ARG553  GLY616  TRP617  ASP618  TYR619  PRO620  LYS621  CYS622 
 ASP623  PHE694  ASN695  SER759  ASP760  ASP761  ALA762  ILE779  LEU786  VAL792 
 PHE793  MET794  SER795  GLU796  ALA797  LYS798  CYS799  TRP800  GLU811  SER814 

> <Gold.Protein.RotatedAtoms>
  151.5366  135.1068  159.9915 H   0  0  0  0  0  0  0  0  0  0  0  0  # atno 6907 bound_to 6896
  152.4554  133.7709  159.6809 H   0  0  0  0  0  0  0  0  0  0  0  0  # atno 6908 bound_to 6896
  150.8497  133.7741  159.3055 H   0  0  0  0  0  0  0  0  0  0  0  0  # atno 6909 bound_to 6896
  144.7975  140.5082  143.5730 H   0  0  0  0  0  0  0  0  0  0  0  0  # atno 7974 bound_to 7965
  155.9412  140.3408  155.6329 H   0  0  0  0  0  0  0  0  0  0  0  0  # atno 8008 bound_to 7997
  155.7037  140.0763  157.2418 H   0  0  0  0  0  0  0  0  0  0  0  0  # atno 8009 bound_to 7997
  154.4103  140.1635  156.2206 H   0  0  0  0  0  0  0  0  0  0  0  0  # atno 8010 bound_to 7997
  139.8844  144.6421  150.8807 H   0  0  0  0  0  0  0  0  0  0  0  0  # atno 10167 bound_to 10162
  157.1827  131.0636  151.2123 H   0  0  0  0  0  0  0  0  0  0  0  0  # atno 10718 bound_to 10713
  154.1678  135.2806  155.3090 H   0  0  0  0  0  0  0  0  0  0  0  0  # atno 10763 bound_to 10752
  154.6098  135.5502  153.7465 H   0  0  0  0  0  0  0  0  0  0  0  0  # atno 10764 bound_to 10752
  153.0173  135.6412  154.1818 H   0  0  0  0  0  0  0  0  0  0  0  0  # atno 10765 bound_to 10752
  140.8905  134.1818  157.4531 H   0  0  0  0  0  0  0  0  0  0  0  0  # atno 11005 bound_to 11000
  145.5635  139.1480  143.3328 LP  0  0  0  0  0  0  0  0  0  0  0  0  # atno 17320 bound_to 7965
  146.2248  140.5770  142.9001 LP  0  0  0  0  0  0  0  0  0  0  0  0  # atno 17321 bound_to 7965
  140.7738  143.3560  151.1921 LP  0  0  0  0  0  0  0  0  0  0  0  0  # atno 17342 bound_to 10162
  139.7166  143.9290  152.2969 LP  0  0  0  0  0  0  0  0  0  0  0  0  # atno 17343 bound_to 10162
  157.3937  130.7296  149.6716 LP  0  0  0  0  0  0  0  0  0  0  0  0  # atno 17370 bound_to 10713
  155.9722  130.4139  150.4108 LP  0  0  0  0  0  0  0  0  0  0  0  0  # atno 17371 bound_to 10713
  139.8729  134.9856  156.5290 LP  0  0  0  0  0  0  0  0  0  0  0  0  # atno 17394 bound_to 11000
  140.8353  133.8247  155.9022 LP  0  0  0  0  0  0  0  0  0  0  0  0  # atno 17395 bound_to 11000

$$$$
