AV-unprocessed.smi:101|AV-procd|sdf|942|dock7
  -GOLD-   2262017463D 1   1.00000     0.00000
 Structure written by MMmdl.
 43 45  0  0  0  0  0  0  0  0  2 V2000
  147.4142  141.9629  153.7809 C   0  0  0  0  0  0  0  0  0  0  0  0
  148.1721  141.1381  154.8063 C   0  0  0  0  0  0  0  0  0  0  0  0
  149.3932  140.6178  154.5529 C   0  0  0  0  0  0  0  0  0  0  0  0
  150.0808  139.8687  155.4919 N   0  0  0  0  0  0  0  0  0  0  0  0
  151.4532  139.3114  155.1868 C   0  0  1  0  0  0  0  0  0  0  0  0
  152.3126  139.6046  156.2513 O   0  0  0  0  0  0  0  0  0  0  0  0
  152.9293  138.4154  156.7324 C   0  0  1  0  0  0  0  0  0  0  0  0
  153.2089  138.5613  158.2336 C   0  0  0  0  0  0  0  0  0  0  0  0
  153.0775  139.9216  158.6122 O   0  0  0  0  0  0  0  0  0  0  0  0
  153.4360  140.3169  159.8485 C   0  0  0  0  0  0  0  0  0  0  0  0
  154.0402  139.5977  160.6468 O   0  0  0  0  0  0  0  0  0  0  0  0
  153.0240  141.7180  160.1509 C   0  0  0  0  0  0  0  0  0  0  0  0
  152.9397  142.1403  161.4982 C   0  0  0  0  0  0  0  0  0  0  0  0
  152.5536  143.4574  161.8144 C   0  0  0  0  0  0  0  0  0  0  0  0
  152.2491  144.3691  160.7868 C   0  0  0  0  0  0  0  0  0  0  0  0
  152.3307  143.9619  159.4423 C   0  0  0  0  0  0  0  0  0  0  0  0
  152.7153  142.6447  159.1242 C   0  0  0  0  0  0  0  0  0  0  0  0
  151.9314  137.3132  156.3771 C   0  0  2  0  0  0  0  0  0  0  0  0
  152.5122  136.0246  156.3093 O   0  0  0  0  0  0  0  0  0  0  0  0
  151.3814  137.7838  155.0370 C   0  0  2  0  0  0  0  0  0  0  0  0
  152.1621  137.3511  153.9376 O   0  0  0  0  0  0  0  0  0  0  0  0
  149.5149  139.6629  156.7768 C   0  0  0  0  0  0  0  0  0  0  0  0
  150.1744  139.0355  157.6061 O   0  0  0  0  0  0  0  0  0  0  0  0
  148.2787  140.1752  157.0382 N   0  5  0  0  0  0  0  0  0  0  0  0
  147.5697  140.8970  156.1231 C   0  0  0  0  0  0  0  0  0  0  0  0
  146.4522  141.3491  156.3707 O   0  0  0  0  0  0  0  0  0  0  0  0
  147.9791  142.0590  152.8536 H   0  0  0  0  0  0  0  0  0  0  0  0
  147.2222  142.9650  154.1653 H   0  0  0  0  0  0  0  0  0  0  0  0
  146.4579  141.4944  153.5466 H   0  0  0  0  0  0  0  0  0  0  0  0
  149.8425  140.8023  153.5888 H   0  0  0  0  0  0  0  0  0  0  0  0
  151.8027  139.8350  154.2954 H   0  0  0  0  0  0  0  0  0  0  0  0
  153.8600  138.2800  156.1785 H   0  0  0  0  0  0  0  0  0  0  0  0
  152.4955  137.9642  158.8029 H   0  0  0  0  0  0  0  0  0  0  0  0
  154.2076  138.1919  158.4710 H   0  0  0  0  0  0  0  0  0  0  0  0
  153.1693  141.4584  162.3044 H   0  0  0  0  0  0  0  0  0  0  0  0
  152.4919  143.7679  162.8470 H   0  0  0  0  0  0  0  0  0  0  0  0
  151.9540  145.3794  161.0294 H   0  0  0  0  0  0  0  0  0  0  0  0
  152.0980  144.6608  158.6526 H   0  0  0  0  0  0  0  0  0  0  0  0
  152.7687  142.3653  158.0821 H   0  0  0  0  0  0  0  0  0  0  0  0
  151.1245  137.3013  157.1114 H   0  0  0  0  0  0  0  0  0  0  0  0
  151.9893  135.4389  156.8357 H   0  0  0  0  0  0  0  0  0  0  0  0
  150.3551  137.4477  154.8801 H   0  0  0  0  0  0  0  0  0  0  0  0
  151.5802  136.9843  153.2888 H   0  0  0  0  0  0  0  0  0  0  0  0
  1  2  1  0  0  0  0
  1 27  1  0  0  0  0
  1 28  1  0  0  0  0
  1 29  1  0  0  0  0
  2 25  1  0  0  0  0
  2  3  2  0  0  0  0
  3  4  1  0  0  0  0
  3 30  1  0  0  0  0
  4  5  1  0  0  0  0
  4 22  1  0  0  0  0
  5 20  1  0  0  0  0
  5  6  1  0  0  0  0
  5 31  1  0  0  0  0
  6  7  1  0  0  0  0
  7  8  1  0  0  0  0
  7 18  1  0  0  0  0
  7 32  1  0  0  0  0
  8  9  1  0  0  0  0
  8 33  1  0  0  0  0
  8 34  1  0  0  0  0
  9 10  1  0  0  0  0
 10 11  2  0  0  0  0
 10 12  1  0  0  0  0
 12 17  1  0  0  0  0
 12 13  2  0  0  0  0
 13 14  1  0  0  0  0
 13 35  1  0  0  0  0
 14 15  2  0  0  0  0
 14 36  1  0  0  0  0
 15 16  1  0  0  0  0
 15 37  1  0  0  0  0
 16 17  2  0  0  0  0
 16 38  1  0  0  0  0
 17 39  1  0  0  0  0
 18 19  1  0  0  0  0
 18 20  1  0  0  0  0
 18 40  1  0  0  0  0
 19 41  1  0  0  0  0
 20 21  1  0  0  0  0
 20 42  1  0  0  0  0
 21 43  1  0  0  0  0
 22 23  2  0  0  0  0
 22 24  1  0  0  0  0
 24 25  1  0  0  0  0
 25 26  2  0  0  0  0
M  CHG  1  24  -1
M  END
> <s_m_source_file>
AV-unprocessed.smi

> <i_m_source_file_index>
101

> <i_lp_mmshare_version>
43012

> <i_f3d_flags>
0

> <s_epik_input>
Tz1jMVtuSF1jKD1PKW4oW2NIXWMxW0NIM10pW0NAQEhdMk9bQ0BIXShbQ0BASF0oW09IXSlbQ0BIXTJbT0hdKVtDSDJdT0MoPU8pYzNbY0hdW2NIXVtjSF1bY0hdW2NIXTM=

> <s_epik_cmdline>
J2VwaWtfcHl0aG9uJywgJy1waCcsICc3LjAnLCAnLXRuJywgJzgnLCAnLW1hJywgJzIwMCcsICctbWV0YWxfYmluZGluZycsICctaW1hZScsICc8aW5maWxlLm1hZT4nLCAnLW9tYWUnLCAnPG91dGZpbGUubWFlPic=

> <r_lp_tautomer_probability>
0.999537

> <r_epik_Ionization_Penalty>
3.21006

> <r_epik_Ionization_Penalty_Charging>
5.75142e-08

> <r_epik_Ionization_Penalty_Neutral>
3.21006

> <r_epik_State_Penalty>
3.20925

> <r_epik_Charging_Adjusted_Penalty>
3.20925

> <i_epik_Tot_Q>
-1

> <i_epik_Tot_abs_Q>
1

> <r_epik_Metal_State_Penalty>
0.119957

> <b_epik_Metal_Only>
1

> <s_epik_Chemistry_Notes>
This compound has an ester and may undergo hydrolysis at high or low pH. This compound contains an acetal/aminal-like group ( X-CH(R)-Y where X, Y are N, S, or O) that may be acid/base labile, releasing an aldehyde.

> <s_lp_Force_Field>
OPLS_2005

> <r_lp_Energy>
44.5591

> <b_lp_Chiralities_Consistent>
1

> <s_lp_Variant>
AV-unprocessed.smi:101-30

> <Gold.Version>
5.8.1

> <Gold.Id.Protein>
6NUR|6NUR_protein|mol2

> <Gold.PLP.Fitness>
56.2917

> <Gold.PLP.PLP>
-49.7536

> <Gold.PLP.part.hbond>
-4.2492

> <Gold.PLP.part.metal>
0.0000

> <Gold.PLP.part.buried>
-5.3793

> <Gold.PLP.part.nonpolar>
-39.4339

> <Gold.PLP.part.repulsive>
0.0748

> <Gold.PLP.ligand.clash>
0.0000

> <Gold.PLP.ligand.torsion>
1.2218

> <Gold.PLP.Chemscore.Hbond>
1.9760

> <Gold.PLP.Chemscore.CHOScore>
1.0000

> <Gold.PLP.Chemscore.Metal>
0.0000

> <Gold.Chemscore.Hbonds>
donor molecule, donor type, donor heavy atom, donor atom, acceptor molecule, acceptor atom, score
      L1  H    21    43       P1  7949  0.84
      P1  H 10752 10765       L1    19  1.00
      L1  C     3    30       P1  7957  0.95

> <Gold.PLP.Chemscore.Internal.Correction>
0.0536

> <Gold.Rescore>
     Score         DG    S(hbond)    S(metal)    S(lipo)     H(rot)  DE(clash)    DE(int)     intcor
     10.30     -16.36       1.76        0.00     114.05       3.27       0.59       5.47       ----

> <Gold.Chemscore.Fitness>
10.2985

> <Gold.Chemscore.DG>
-16.3550

> <Gold.Chemscore.ZeroCoef>
-5.4800

> <Gold.Chemscore.Hbond>
1.7636

> <Gold.Chemscore.Metal>
0.0000

> <Gold.Chemscore.Lipo>
114.0537

> <Gold.Chemscore.Internal_Hbond>
0.0000

> <Gold.Chemscore.DEClash>
0.5883

> <Gold.Chemscore.DEInternal>
5.4682

> <Gold.Chemscore.Rot>
3.2656

> <Gold.Chemscore.Internal.Correction>
   9.000000E+99

> <Gold.Chemscore.Hbonds>
donor molecule, donor type, donor heavy atom, donor atom, acceptor molecule, acceptor atom, score
      L1  H    21    43       P1  7949  0.74
      P1  H 10752 10765       L1    19  0.87

> <Gold.Chemscore.Hbond.Weighted>
-5.8906

> <Gold.Chemscore.Metal.Weighted>
-0.0000

> <Gold.Chemscore.Lipo.Weighted>
-13.3443

> <Gold.Chemscore.Internal_Hbond.Weighted>
0.0000

> <Gold.Chemscore.DEClash.Weighted>
0.5883

> <Gold.Chemscore.DEInternal.Weighted>
5.4682

> <Gold.Chemscore.Rot.Weighted>
8.3598

> <Gold.Chemscore.Internal.Correction.Weighted>
   9.000000E+99

> <Gold.Protein.RotatedTorsions>
[ 6907 6896 6895 6894 ] final   -3.46 input  -60.11 | X-H torsion
[ 7974 7965 7964 7962 ] final  132.49 input  175.53 | X-H torsion
[ 8008 7997 7996 7995 ] final  -47.57 input   59.86 | X-H torsion
[ 10167 10162 10161 10158 ] final   34.26 input  -65.29 | X-H torsion
[ 10718 10713 10712 10709 ] final  -59.29 input   66.30 | X-H torsion
[ 10763 10752 10751 10750 ] final -155.40 input  -60.55 | X-H torsion
[ 11005 11000 10999 10996 ] final  134.06 input  -57.11 | X-H torsion

> <Gold.Protein.ActiveResidues>
 VAL166  LYS551  ARG553  GLY616  TRP617  ASP618  TYR619  PRO620  LYS621  CYS622 
 ASP623  PHE694  ASN695  SER759  ASP760  ASP761  ALA762  ILE779  LEU786  VAL792 
 PHE793  MET794  SER795  GLU796  ALA797  LYS798  CYS799  TRP800  GLU811  SER814 

> <Gold.Protein.RotatedAtoms>
  151.5134  135.1065  159.9859 H   0  0  0  0  0  0  0  0  0  0  0  0  # atno 6907 bound_to 6896
  152.4652  133.7903  159.6909 H   0  0  0  0  0  0  0  0  0  0  0  0  # atno 6908 bound_to 6896
  150.8632  133.7549  159.3011 H   0  0  0  0  0  0  0  0  0  0  0  0  # atno 6909 bound_to 6896
  144.9963  139.4356  143.5314 H   0  0  0  0  0  0  0  0  0  0  0  0  # atno 7974 bound_to 7965
  154.4018  140.1343  156.4197 H   0  0  0  0  0  0  0  0  0  0  0  0  # atno 8008 bound_to 7997
  155.7654  140.3485  155.5199 H   0  0  0  0  0  0  0  0  0  0  0  0  # atno 8009 bound_to 7997
  155.8818  140.0988  157.1470 H   0  0  0  0  0  0  0  0  0  0  0  0  # atno 8010 bound_to 7997
  140.4332  144.1295  150.6162 H   0  0  0  0  0  0  0  0  0  0  0  0  # atno 10167 bound_to 10162
  156.1072  130.4179  150.0695 H   0  0  0  0  0  0  0  0  0  0  0  0  # atno 10718 bound_to 10713
  154.7789  135.3168  154.8032 H   0  0  0  0  0  0  0  0  0  0  0  0  # atno 10763 bound_to 10752
  153.8748  135.6840  153.4775 H   0  0  0  0  0  0  0  0  0  0  0  0  # atno 10764 bound_to 10752
  153.1420  135.4735  154.9447 H   0  0  0  0  0  0  0  0  0  0  0  0  # atno 10765 bound_to 10752
  139.9891  134.9521  156.9813 H   0  0  0  0  0  0  0  0  0  0  0  0  # atno 11005 bound_to 11000
  146.3442  139.9324  142.8752 LP  0  0  0  0  0  0  0  0  0  0  0  0  # atno 17320 bound_to 7965
  145.2215  140.9937  143.4042 LP  0  0  0  0  0  0  0  0  0  0  0  0  # atno 17321 bound_to 7965
  140.4404  143.2529  151.9481 LP  0  0  0  0  0  0  0  0  0  0  0  0  # atno 17342 bound_to 10162
  139.4786  144.5660  151.8164 LP  0  0  0  0  0  0  0  0  0  0  0  0  # atno 17343 bound_to 10162
  156.8668  130.9510  151.3613 LP  0  0  0  0  0  0  0  0  0  0  0  0  # atno 17370 bound_to 10713
  157.6250  130.8684  149.9174 LP  0  0  0  0  0  0  0  0  0  0  0  0  # atno 17371 bound_to 10713
  140.4944  134.1160  155.7238 LP  0  0  0  0  0  0  0  0  0  0  0  0  # atno 17394 bound_to 11000
  141.1550  133.8899  157.2000 LP  0  0  0  0  0  0  0  0  0  0  0  0  # atno 17395 bound_to 11000

$$$$
