AV-unprocessed.smi:2542|AV-procd|sdf|9991|dock5
  -GOLD-   2272014 43D 1   1.00000     0.00000
 Structure written by MMmdl.
 41 42  0  0  0  0  0  0  0  0  1 V2000
  150.2282  137.3474  158.9322 C   0  0  0  0  0  0  0  0  0  0  0  0
  149.4059  137.0485  157.6613 C   0  0  0  0  0  0  0  0  0  0  0  0
  149.5315  135.5312  157.3812 C   0  0  0  0  0  0  0  0  0  0  0  0
  147.9148  137.3708  157.9389 C   0  0  0  0  0  0  0  0  0  0  0  0
  147.2929  136.3698  158.7994 N   0  0  0  0  0  0  0  0  0  0  0  0
  147.1378  136.4771  160.1275 C   0  0  0  0  0  0  0  0  0  0  0  0
  147.5356  137.4567  160.7598 O   0  0  0  0  0  0  0  0  0  0  0  0
  146.4309  135.3111  160.8601 C   0  0  0  0  0  0  0  0  0  0  0  0
  145.0832  135.0594  160.3091 C   0  0  0  0  0  0  0  0  0  0  0  0
  144.0269  134.8628  159.8781 N   0  0  0  0  0  0  0  0  0  0  0  0
  147.2963  134.0243  160.7892 C   0  0  0  0  0  0  0  0  0  0  0  0
  147.6823  133.6488  162.2254 C   0  0  0  0  0  0  0  0  0  0  0  0
  147.5222  134.9330  163.0300 C   0  0  0  0  0  0  0  0  0  0  0  0
  146.3251  135.6174  162.3725 C   0  0  0  0  0  0  0  0  0  0  0  0
  149.9292  137.9096  156.4946 C   0  0  0  0  0  0  0  0  0  0  0  0
  149.5137  137.7202  155.1534 C   0  0  0  0  0  0  0  0  0  0  0  0
  150.0281  138.5669  154.1515 C   0  0  0  0  0  0  0  0  0  0  0  0
  150.9066  139.5607  154.3959 N   0  0  0  0  0  0  0  0  0  0  0  0
  151.3044  139.7443  155.6712 C   0  0  0  0  0  0  0  0  0  0  0  0
  150.8492  138.9548  156.7454 C   0  0  0  0  0  0  0  0  0  0  0  0
  149.8954  136.7370  159.7725 H   0  0  0  0  0  0  0  0  0  0  0  0
  150.1416  138.3891  159.2416 H   0  0  0  0  0  0  0  0  0  0  0  0
  151.2871  137.1393  158.7750 H   0  0  0  0  0  0  0  0  0  0  0  0
  149.1603  134.9436  158.2216 H   0  0  0  0  0  0  0  0  0  0  0  0
  150.5694  135.2367  157.2214 H   0  0  0  0  0  0  0  0  0  0  0  0
  148.9582  135.2264  156.5049 H   0  0  0  0  0  0  0  0  0  0  0  0
  147.8211  138.3608  158.3890 H   0  0  0  0  0  0  0  0  0  0  0  0
  147.3508  137.4048  157.0056 H   0  0  0  0  0  0  0  0  0  0  0  0
  146.9404  135.5390  158.3452 H   0  0  0  0  0  0  0  0  0  0  0  0
  146.7609  133.2018  160.3134 H   0  0  0  0  0  0  0  0  0  0  0  0
  148.2021  134.1743  160.1990 H   0  0  0  0  0  0  0  0  0  0  0  0
  146.9895  132.8958  162.6036 H   0  0  0  0  0  0  0  0  0  0  0  0
  148.6887  133.2348  162.2941 H   0  0  0  0  0  0  0  0  0  0  0  0
  147.3683  134.7466  164.0932 H   0  0  0  0  0  0  0  0  0  0  0  0
  148.4138  135.5522  162.9252 H   0  0  0  0  0  0  0  0  0  0  0  0
  146.2962  136.6845  162.5986 H   0  0  0  0  0  0  0  0  0  0  0  0
  145.4058  135.1892  162.7753 H   0  0  0  0  0  0  0  0  0  0  0  0
  148.8115  136.9521  154.8686 H   0  0  0  0  0  0  0  0  0  0  0  0
  149.7228  138.4417  153.1230 H   0  0  0  0  0  0  0  0  0  0  0  0
  152.0056  140.5474  155.8432 H   0  0  0  0  0  0  0  0  0  0  0  0
  151.2030  139.1595  157.7448 H   0  0  0  0  0  0  0  0  0  0  0  0
  1  2  1  0  0  0  0
  1 21  1  0  0  0  0
  1 22  1  0  0  0  0
  1 23  1  0  0  0  0
  2  3  1  0  0  0  0
  2  4  1  0  0  0  0
  2 15  1  0  0  0  0
  3 24  1  0  0  0  0
  3 25  1  0  0  0  0
  3 26  1  0  0  0  0
  4  5  1  0  0  0  0
  4 27  1  0  0  0  0
  4 28  1  0  0  0  0
  5  6  1  0  0  0  0
  5 29  1  0  0  0  0
  6  7  2  0  0  0  0
  6  8  1  0  0  0  0
  8 14  1  0  0  0  0
  8  9  1  0  0  0  0
  8 11  1  0  0  0  0
  9 10  3  0  0  0  0
 11 12  1  0  0  0  0
 11 30  1  0  0  0  0
 11 31  1  0  0  0  0
 12 13  1  0  0  0  0
 12 32  1  0  0  0  0
 12 33  1  0  0  0  0
 13 14  1  0  0  0  0
 13 34  1  0  0  0  0
 13 35  1  0  0  0  0
 14 36  1  0  0  0  0
 14 37  1  0  0  0  0
 15 20  1  0  0  0  0
 15 16  2  0  0  0  0
 16 17  1  0  0  0  0
 16 38  1  0  0  0  0
 17 18  2  0  0  0  0
 17 39  1  0  0  0  0
 18 19  1  0  0  0  0
 19 20  2  0  0  0  0
 19 40  1  0  0  0  0
 20 41  1  0  0  0  0
M  END
> <s_m_source_file>
AV-unprocessed.smi

> <i_m_source_file_index>
2542

> <i_lp_mmshare_version>
43012

> <i_f3d_flags>
0

> <s_epik_input>
W2NIXTFbY0hdbltjSF1bY0hdYzFDKFtDSDNdKShbQ0gzXSlbQ0gyXVtOSF1DKD1PKUMyKEMjTilbQ0gyXVtDSDJdW0NIMl1bQ0gyXTI=

> <s_epik_cmdline>
J2VwaWtfcHl0aG9uJywgJy1waCcsICc3LjAnLCAnLXRuJywgJzgnLCAnLW1hJywgJzIwMCcsICctbWV0YWxfYmluZGluZycsICctaW1hZScsICc8aW5maWxlLm1hZT4nLCAnLW9tYWUnLCAnPG91dGZpbGUubWFlPic=

> <r_epik_Ionization_Penalty>
0.0480096

> <r_epik_Ionization_Penalty_Charging>
0

> <r_epik_Ionization_Penalty_Neutral>
0.0480096

> <r_epik_State_Penalty>
0.04092

> <r_epik_Charging_Adjusted_Penalty>
0.04092

> <i_epik_Tot_Q>
0

> <i_epik_Tot_abs_Q>
0

> <r_epik_Metal_State_Penalty>
0.0377989

> <b_epik_Metal_Only>
0

> <s_lp_Force_Field>
OPLS_2005

> <r_lp_Energy>
29.6926

> <b_lp_Chiralities_Consistent>
1

> <s_lp_Variant>
AV-unprocessed.smi:2542-1

> <Gold.Version>
5.8.1

> <Gold.Id.Protein>
6NUR|6NUR_protein|mol2

> <Gold.PLP.Fitness>
38.0763

> <Gold.PLP.PLP>
-25.8067

> <Gold.PLP.part.hbond>
-2.8634

> <Gold.PLP.part.metal>
0.0000

> <Gold.PLP.part.buried>
-2.5813

> <Gold.PLP.part.nonpolar>
-20.8837

> <Gold.PLP.part.repulsive>
0.1853

> <Gold.PLP.ligand.clash>
0.0000

> <Gold.PLP.ligand.torsion>
0.6547

> <Gold.PLP.Chemscore.Hbond>
2.5756

> <Gold.PLP.Chemscore.CHOScore>
1.9374

> <Gold.PLP.Chemscore.Metal>
0.0000

> <Gold.Chemscore.Hbonds>
donor molecule, donor type, donor heavy atom, donor atom, acceptor molecule, acceptor atom, score
      P1  H  6931  6943       L1     7  0.67
      P1  H  6934  6947       L1     7  0.98
      P1  H  7989  7998       L1    18  1.00
      L1  C    17    39       P1  7948  0.78
      L1  C    17    39       P1  7957  1.00

> <Gold.PLP.Chemscore.Internal.Correction>
0.0400

> <Gold.Rescore>
     Score         DG    S(hbond)    S(metal)    S(lipo)     H(rot)  DE(clash)    DE(int)     intcor
     18.40     -18.78       2.72        0.00      68.69       1.49       0.00       0.38       ----

> <Gold.Chemscore.Fitness>
18.3980

> <Gold.Chemscore.DG>
-18.7776

> <Gold.Chemscore.ZeroCoef>
-5.4800

> <Gold.Chemscore.Hbond>
2.7170

> <Gold.Chemscore.Metal>
0.0000

> <Gold.Chemscore.Lipo>
68.6879

> <Gold.Chemscore.Internal_Hbond>
0.0000

> <Gold.Chemscore.DEClash>
0.0000

> <Gold.Chemscore.DEInternal>
0.3796

> <Gold.Chemscore.Rot>
1.4897

> <Gold.Chemscore.Internal.Correction>
   9.000000E+99

> <Gold.Chemscore.Hbonds>
donor molecule, donor type, donor heavy atom, donor atom, acceptor molecule, acceptor atom, score
      P1  H  6931  6943       L1     7  0.63
      P1  H  6934  6947       L1     7  0.92
      P1  H  7989  7998       L1    18  0.55

> <Gold.Chemscore.Hbond.Weighted>
-9.0747

> <Gold.Chemscore.Metal.Weighted>
-0.0000

> <Gold.Chemscore.Lipo.Weighted>
-8.0365

> <Gold.Chemscore.Internal_Hbond.Weighted>
0.0000

> <Gold.Chemscore.DEClash.Weighted>
0.0000

> <Gold.Chemscore.DEInternal.Weighted>
0.3796

> <Gold.Chemscore.Rot.Weighted>
3.8136

> <Gold.Chemscore.Internal.Correction.Weighted>
   9.000000E+99

> <Gold.Protein.RotatedTorsions>
[ 6907 6896 6895 6894 ] final   96.05 input  -60.11 | X-H torsion
[ 7974 7965 7964 7962 ] final -148.26 input  175.53 | X-H torsion
[ 8008 7997 7996 7995 ] final  -59.72 input   59.86 | X-H torsion
[ 10167 10162 10161 10158 ] final -117.32 input  -65.29 | X-H torsion
[ 10718 10713 10712 10709 ] final  -89.78 input   66.30 | X-H torsion
[ 10763 10752 10751 10750 ] final   12.09 input  -60.55 | X-H torsion
[ 11005 11000 10999 10996 ] final  -97.94 input  -57.11 | X-H torsion

> <Gold.Protein.ActiveResidues>
 VAL166  LYS551  ARG553  GLY616  TRP617  ASP618  TYR619  PRO620  LYS621  CYS622 
 ASP623  PHE694  ASN695  SER759  ASP760  ASP761  ALA762  ILE779  LEU786  VAL792 
 PHE793  MET794  SER795  GLU796  ALA797  LYS798  CYS799  TRP800  GLU811  SER814 

> <Gold.Protein.RotatedAtoms>
  152.5438  134.0946  159.8291 H   0  0  0  0  0  0  0  0  0  0  0  0  # atno 6907 bound_to 6896
  151.1031  133.5221  159.2616 H   0  0  0  0  0  0  0  0  0  0  0  0  # atno 6908 bound_to 6896
  151.1968  135.0435  159.8910 H   0  0  0  0  0  0  0  0  0  0  0  0  # atno 6909 bound_to 6896
  144.8041  140.5219  143.5687 H   0  0  0  0  0  0  0  0  0  0  0  0  # atno 7974 bound_to 7965
  154.4365  140.1055  156.6160 H   0  0  0  0  0  0  0  0  0  0  0  0  # atno 8008 bound_to 7997
  155.5759  140.3490  155.4508 H   0  0  0  0  0  0  0  0  0  0  0  0  # atno 8009 bound_to 7997
  156.0355  140.1270  157.0202 H   0  0  0  0  0  0  0  0  0  0  0  0  # atno 8010 bound_to 7997
  140.0697  143.4889  152.1987 H   0  0  0  0  0  0  0  0  0  0  0  0  # atno 10167 bound_to 10162
  155.9985  130.4885  150.5223 H   0  0  0  0  0  0  0  0  0  0  0  0  # atno 10718 bound_to 10713
  153.1859  135.6835  153.8416 H   0  0  0  0  0  0  0  0  0  0  0  0  # atno 10763 bound_to 10752
  153.7732  135.3193  155.3356 H   0  0  0  0  0  0  0  0  0  0  0  0  # atno 10764 bound_to 10752
  154.8088  135.4731  154.0558 H   0  0  0  0  0  0  0  0  0  0  0  0  # atno 10765 bound_to 10752
  141.1362  133.8208  157.0773 H   0  0  0  0  0  0  0  0  0  0  0  0  # atno 11005 bound_to 11000
  145.5482  139.1476  143.3409 LP  0  0  0  0  0  0  0  0  0  0  0  0  # atno 17320 bound_to 7965
  146.2328  140.5621  142.8968 LP  0  0  0  0  0  0  0  0  0  0  0  0  # atno 17321 bound_to 7965
  139.5843  144.7524  151.3559 LP  0  0  0  0  0  0  0  0  0  0  0  0  # atno 17342 bound_to 10162
  140.7132  143.7336  150.7605 LP  0  0  0  0  0  0  0  0  0  0  0  0  # atno 17343 bound_to 10162
  157.3182  131.0677  151.1951 LP  0  0  0  0  0  0  0  0  0  0  0  0  # atno 17370 bound_to 10713
  157.2873  130.6779  149.6096 LP  0  0  0  0  0  0  0  0  0  0  0  0  # atno 17371 bound_to 10713
  140.0474  134.9823  157.1073 LP  0  0  0  0  0  0  0  0  0  0  0  0  # atno 17394 bound_to 11000
  140.4042  134.2050  155.7163 LP  0  0  0  0  0  0  0  0  0  0  0  0  # atno 17395 bound_to 11000

$$$$
