AV-unprocessed.smi:1758|AV-procd|sdf|7080|dock3
  -GOLD-   22720 8303D 1   1.00000     0.00000
 Structure written by MMmdl.
 44 46  0  0  0  0  0  0  0  0  2 V2000
  150.8741  142.1279  156.5056 C   0  0  0  0  0  0  0  0  0  0  0  0
  149.5336  141.3916  156.6127 C   0  0  0  0  0  0  0  0  0  0  0  0
  149.4332  140.3191  155.6426 N   0  0  0  0  0  0  0  0  0  0  0  0
  148.4400  139.3676  155.5236 C   0  0  0  0  0  0  0  0  0  0  0  0
  148.8048  138.5832  154.4659 C   0  0  0  0  0  0  0  0  0  0  0  0
  148.1413  137.4614  153.9082 N   0  0  0  0  0  0  0  0  0  0  0  0
  146.9456  136.9644  154.2641 C   0  0  0  0  0  0  0  0  0  0  0  0
  146.2284  137.4129  155.1586 O   0  0  0  0  0  0  0  0  0  0  0  0
  146.6211  135.8923  153.5279 N   0  0  0  0  0  0  0  0  0  0  0  0
  145.3912  135.1209  153.6873 C   0  0  1  0  0  0  0  0  0  0  0  0
  144.1315  135.9094  153.3530 C   0  0  0  0  0  0  0  0  0  0  0  0
  143.0861  134.8110  153.1313 C   0  0  0  0  0  0  0  0  0  0  0  0
  143.8216  133.5973  152.6973 N   0  3  1  0  0  0  0  0  0  0  0  0
  143.3477  133.0326  151.4052 C   0  0  0  0  0  0  0  0  0  0  0  0
  144.3772  132.0533  150.8224 C   0  0  0  0  0  0  0  0  0  0  0  0
  145.7150  132.7548  150.5206 C   0  0  0  0  0  0  0  0  0  0  0  0
  145.9204  134.0239  151.3702 C   0  0  0  0  0  0  0  0  0  0  0  0
  145.2825  133.8841  152.7744 C   0  0  1  0  0  0  0  0  0  0  0  0
  150.0297  139.1197  153.9904 C   0  0  0  0  0  0  0  0  0  0  0  0
  150.4051  140.1668  154.7091 N   0  0  0  0  0  0  0  0  0  0  0  0
  150.9349  142.9303  157.2410 H   0  0  0  0  0  0  0  0  0  0  0  0
  151.0027  142.5713  155.5177 H   0  0  0  0  0  0  0  0  0  0  0  0
  151.7105  141.4508  156.6818 H   0  0  0  0  0  0  0  0  0  0  0  0
  149.4144  140.9700  157.6113 H   0  0  0  0  0  0  0  0  0  0  0  0
  148.7058  142.0855  156.4605 H   0  0  0  0  0  0  0  0  0  0  0  0
  147.5890  139.3413  156.1879 H   0  0  0  0  0  0  0  0  0  0  0  0
  148.6337  136.9835  153.1674 H   0  0  0  0  0  0  0  0  0  0  0  0
  147.2658  135.5893  152.8123 H   0  0  0  0  0  0  0  0  0  0  0  0
  145.3115  134.7966  154.7272 H   0  0  0  0  0  0  0  0  0  0  0  0
  143.8466  136.6093  154.1394 H   0  0  0  0  0  0  0  0  0  0  0  0
  144.2724  136.4768  152.4318 H   0  0  0  0  0  0  0  0  0  0  0  0
  142.5829  134.5779  154.0703 H   0  0  0  0  0  0  0  0  0  0  0  0
  142.3192  135.1259  152.4224 H   0  0  0  0  0  0  0  0  0  0  0  0
  142.3911  132.5344  151.5656 H   0  0  0  0  0  0  0  0  0  0  0  0
  143.1697  133.8337  150.6855 H   0  0  0  0  0  0  0  0  0  0  0  0
  144.5421  131.2457  151.5370 H   0  0  0  0  0  0  0  0  0  0  0  0
  143.9900  131.5841  149.9174 H   0  0  0  0  0  0  0  0  0  0  0  0
  146.5308  132.0523  150.6952 H   0  0  0  0  0  0  0  0  0  0  0  0
  145.7673  133.0239  149.4652 H   0  0  0  0  0  0  0  0  0  0  0  0
  146.9881  134.2333  151.4395 H   0  0  0  0  0  0  0  0  0  0  0  0
  145.4771  134.8783  150.8567 H   0  0  0  0  0  0  0  0  0  0  0  0
  145.7643  133.0397  153.2699 H   0  0  0  0  0  0  0  0  0  0  0  0
  150.6474  138.7908  153.1677 H   0  0  0  0  0  0  0  0  0  0  0  0
  143.6448  132.8941  153.4006 H   0  0  0  0  0  0  0  0  0  0  0  0
  1  2  1  0  0  0  0
  1 21  1  0  0  0  0
  1 22  1  0  0  0  0
  1 23  1  0  0  0  0
  2  3  1  0  0  0  0
  2 24  1  0  0  0  0
  2 25  1  0  0  0  0
  3 20  1  0  0  0  0
  3  4  1  0  0  0  0
  4  5  2  0  0  0  0
  4 26  1  0  0  0  0
  5  6  1  0  0  0  0
  5 19  1  0  0  0  0
  6  7  1  0  0  0  0
  6 27  1  0  0  0  0
  7  8  2  0  0  0  0
  7  9  1  0  0  0  0
  9 10  1  0  0  0  0
  9 28  1  0  0  0  0
 10 18  1  0  0  0  0
 10 11  1  0  0  0  0
 10 29  1  0  0  0  0
 11 12  1  0  0  0  0
 11 30  1  0  0  0  0
 11 31  1  0  0  0  0
 12 13  1  0  0  0  0
 12 32  1  0  0  0  0
 12 33  1  0  0  0  0
 13 18  1  0  0  0  0
 13 14  1  0  0  0  0
 13 44  1  0  0  0  0
 14 15  1  0  0  0  0
 14 34  1  0  0  0  0
 14 35  1  0  0  0  0
 15 16  1  0  0  0  0
 15 36  1  0  0  0  0
 15 37  1  0  0  0  0
 16 17  1  0  0  0  0
 16 38  1  0  0  0  0
 16 39  1  0  0  0  0
 17 18  1  0  0  0  0
 17 40  1  0  0  0  0
 17 41  1  0  0  0  0
 18 42  1  0  0  0  0
 19 20  2  0  0  0  0
 19 43  1  0  0  0  0
M  CHG  1  13   1
M  END
> <s_m_source_file>
AV-unprocessed.smi

> <i_m_source_file_index>
1758

> <i_lp_mmshare_version>
43012

> <i_f3d_flags>
0

> <s_epik_input>
W0NIM11bQ0gyXW4xW2NIXWMoW2NIXW4xKVtOSF1DKD1PKVtOSF1bQ0BIXShbQ0gyXVtDSDJdMilbQ0BASF0oTjIzKVtDSDJdW0NIMl1bQ0gyXVtDSDJdMw==

> <s_epik_cmdline>
J2VwaWtfcHl0aG9uJywgJy1waCcsICc3LjAnLCAnLXRuJywgJzgnLCAnLW1hJywgJzIwMCcsICctbWV0YWxfYmluZGluZycsICctaW1hZScsICc8aW5maWxlLm1hZT4nLCAnLW9tYWUnLCAnPG91dGZpbGUubWFlPic=

> <r_lp_tautomer_probability>
1

> <r_epik_Ionization_Penalty>
0.00111541

> <r_epik_Ionization_Penalty_Charging>
0.000974069

> <r_epik_Ionization_Penalty_Neutral>
0.000141346

> <r_epik_State_Penalty>
0.000633842

> <r_epik_Charging_Adjusted_Penalty>
0.00160791

> <i_epik_Tot_Q>
1

> <i_epik_Tot_abs_Q>
1

> <r_epik_Metal_State_Penalty>
-0

> <b_epik_Metal_Only>
0

> <s_lp_Force_Field>
OPLS_2005

> <r_lp_Energy>
44.5039

> <b_lp_Chiralities_Consistent>
1

> <s_lp_Variant>
AV-unprocessed.smi:1758-2

> <Gold.Version>
5.8.1

> <Gold.Id.Protein>
6NUR|6NUR_protein|mol2

> <Gold.PLP.Fitness>
43.7447

> <Gold.PLP.PLP>
-28.3152

> <Gold.PLP.part.hbond>
-3.9552

> <Gold.PLP.part.metal>
0.0000

> <Gold.PLP.part.buried>
-4.1241

> <Gold.PLP.part.nonpolar>
-21.2603

> <Gold.PLP.part.repulsive>
0.1139

> <Gold.PLP.ligand.clash>
0.0000

> <Gold.PLP.ligand.torsion>
0.0639

> <Gold.PLP.Chemscore.Hbond>
4.7160

> <Gold.PLP.Chemscore.CHOScore>
0.4688

> <Gold.PLP.Chemscore.Metal>
0.0000

> <Gold.Chemscore.Hbonds>
donor molecule, donor type, donor heavy atom, donor atom, acceptor molecule, acceptor atom, score
      L1  H     6    27       P1  7948  1.00
      L1  H     9    28       P1  7948  0.82
      L1  H    13    44       P1 10957  2.00
      P1  H  7989  7998       L1    20  0.90
      L1  C    19    43       P1  7957  0.43

> <Gold.PLP.Chemscore.Internal.Correction>
0.0027

> <Gold.Rescore>
     Score         DG    S(hbond)    S(metal)    S(lipo)     H(rot)  DE(clash)    DE(int)     intcor
     18.66     -20.32       2.90        0.00      70.15       1.19       0.46       1.20       ----

> <Gold.Chemscore.Fitness>
18.6629

> <Gold.Chemscore.DG>
-20.3210

> <Gold.Chemscore.ZeroCoef>
-5.4800

> <Gold.Chemscore.Hbond>
2.8968

> <Gold.Chemscore.Metal>
0.0000

> <Gold.Chemscore.Lipo>
70.1548

> <Gold.Chemscore.Internal_Hbond>
0.0000

> <Gold.Chemscore.DEClash>
0.4628

> <Gold.Chemscore.DEInternal>
1.1953

> <Gold.Chemscore.Rot>
1.1884

> <Gold.Chemscore.Internal.Correction>
   9.000000E+99

> <Gold.Chemscore.Hbonds>
donor molecule, donor type, donor heavy atom, donor atom, acceptor molecule, acceptor atom, score
      L1  H     6    27       P1  7948  0.93
      L1  H     9    28       P1  7948  0.76
      L1  H    13    44       P1 10957  0.65
      P1  H  7989  7998       L1    20  0.18

> <Gold.Chemscore.Hbond.Weighted>
-9.6752

> <Gold.Chemscore.Metal.Weighted>
-0.0000

> <Gold.Chemscore.Lipo.Weighted>
-8.2081

> <Gold.Chemscore.Internal_Hbond.Weighted>
0.0000

> <Gold.Chemscore.DEClash.Weighted>
0.4628

> <Gold.Chemscore.DEInternal.Weighted>
1.1953

> <Gold.Chemscore.Rot.Weighted>
3.0423

> <Gold.Chemscore.Internal.Correction.Weighted>
   9.000000E+99

> <Gold.Protein.RotatedTorsions>
[ 6907 6896 6895 6894 ] final   -7.39 input  -60.11 | X-H torsion
[ 7974 7965 7964 7962 ] final -112.72 input  175.53 | X-H torsion
[ 8008 7997 7996 7995 ] final -159.44 input   59.86 | X-H torsion
[ 10167 10162 10161 10158 ] final   65.56 input  -65.29 | X-H torsion
[ 10718 10713 10712 10709 ] final   31.03 input   66.30 | X-H torsion
[ 10763 10752 10751 10750 ] final  109.18 input  -60.55 | X-H torsion
[ 11005 11000 10999 10996 ] final   -5.47 input  -57.11 | X-H torsion

> <Gold.Protein.ActiveResidues>
 VAL166  LYS551  ARG553  GLY616  TRP617  ASP618  TYR619  PRO620  LYS621  CYS622 
 ASP623  PHE694  ASN695  SER759  ASP760  ASP761  ALA762  ILE779  LEU786  VAL792 
 PHE793  MET794  SER795  GLU796  ALA797  LYS798  CYS799  TRP800  GLU811  SER814 

> <Gold.Protein.RotatedAtoms>
  151.4503  135.1029  159.9695 H   0  0  0  0  0  0  0  0  0  0  0  0  # atno 6907 bound_to 6896
  152.4890  133.8446  159.7180 H   0  0  0  0  0  0  0  0  0  0  0  0  # atno 6908 bound_to 6896
  150.9026  133.7039  159.2902 H   0  0  0  0  0  0  0  0  0  0  0  0  # atno 6909 bound_to 6896
  145.1406  140.8775  143.3704 H   0  0  0  0  0  0  0  0  0  0  0  0  # atno 7974 bound_to 7965
  155.7626  140.0841  157.2147 H   0  0  0  0  0  0  0  0  0  0  0  0  # atno 8008 bound_to 7997
  154.4002  140.1540  156.2907 H   0  0  0  0  0  0  0  0  0  0  0  0  # atno 8009 bound_to 7997
  155.8824  140.3420  155.5900 H   0  0  0  0  0  0  0  0  0  0  0  0  # atno 8010 bound_to 7997
  140.1100  144.4827  150.6984 H   0  0  0  0  0  0  0  0  0  0  0  0  # atno 10167 bound_to 10162
  157.2672  130.7190  149.6485 H   0  0  0  0  0  0  0  0  0  0  0  0  # atno 10718 bound_to 10713
  153.4311  135.3788  155.2171 H   0  0  0  0  0  0  0  0  0  0  0  0  # atno 10763 bound_to 10752
  154.8750  135.3840  154.4267 H   0  0  0  0  0  0  0  0  0  0  0  0  # atno 10764 bound_to 10752
  153.4800  135.7088  153.6007 H   0  0  0  0  0  0  0  0  0  0  0  0  # atno 10765 bound_to 10752
  140.6915  133.9067  155.8621 H   0  0  0  0  0  0  0  0  0  0  0  0  # atno 11005 bound_to 11000
  145.0537  139.3161  143.5916 LP  0  0  0  0  0  0  0  0  0  0  0  0  # atno 17320 bound_to 7965
  146.3505  139.9954  142.8681 LP  0  0  0  0  0  0  0  0  0  0  0  0  # atno 17321 bound_to 7965
  140.6931  143.2387  151.5077 LP  0  0  0  0  0  0  0  0  0  0  0  0  # atno 17342 bound_to 10162
  139.5624  144.2123  152.1713 LP  0  0  0  0  0  0  0  0  0  0  0  0  # atno 17343 bound_to 10162
  155.9663  130.4379  150.5194 LP  0  0  0  0  0  0  0  0  0  0  0  0  # atno 17370 bound_to 10713
  157.3111  131.0664  151.2000 LP  0  0  0  0  0  0  0  0  0  0  0  0  # atno 17371 bound_to 10713
  141.0237  134.0853  157.4092 LP  0  0  0  0  0  0  0  0  0  0  0  0  # atno 17394 bound_to 11000
  139.8922  135.0123  156.6833 LP  0  0  0  0  0  0  0  0  0  0  0  0  # atno 17395 bound_to 11000

$$$$
