AV-unprocessed.smi:2100|AV-procd|sdf|8574|dock4
  -GOLD-   2272011303D 1   1.00000     0.00000
 Structure written by MMmdl.
 41 42  0  0  0  0  0  0  0  0  1 V2000
  147.0378  137.1892  155.5904 C   0  0  0  0  0  0  0  0  0  0  0  0
  148.0083  138.3540  155.8134 C   0  0  1  0  0  0  0  0  0  0  0  0
  149.4753  137.9321  155.6141 C   0  0  0  0  0  0  0  0  0  0  0  0
  150.3779  139.0928  155.7090 N   0  0  0  0  0  0  0  0  0  0  0  0
  152.0784  138.7770  155.7794 S   0  0  0  0  0  0  0  0  0  0  0  0
  152.2918  137.3288  155.6360 O   0  0  0  0  0  0  0  0  0  0  0  0
  152.7765  139.7332  154.9064 O   0  0  0  0  0  0  0  0  0  0  0  0
  152.3854  139.2279  157.4177 N   0  0  0  0  0  0  0  0  0  0  0  0
  152.0695  140.5819  157.8773 C   0  0  0  0  0  0  0  0  0  0  0  0
  152.7261  140.8863  159.2334 C   0  0  0  0  0  0  0  0  0  0  0  0
  152.3988  142.2824  159.7281 C   0  0  0  0  0  0  0  0  0  0  0  0
  152.4318  143.3848  158.8477 C   0  0  0  0  0  0  0  0  0  0  0  0
  152.1224  144.6606  159.3580 C   0  0  0  0  0  0  0  0  0  0  0  0
  151.7960  144.7845  160.7222 C   0  0  0  0  0  0  0  0  0  0  0  0
  151.7938  143.6223  161.5189 C   0  0  0  0  0  0  0  0  0  0  0  0
  152.0882  142.3945  161.0393 N   0  0  0  0  0  0  0  0  0  0  0  0
  149.9512  140.2263  154.8734 C   0  0  0  0  0  0  0  0  0  0  0  0
  148.4635  140.5539  155.0989 C   0  0  1  0  0  0  0  0  0  0  0  0
  147.9613  141.6405  154.1417 C   0  0  0  0  0  0  0  0  0  0  0  0
  147.6828  139.3850  154.8916 O   0  0  0  0  0  0  0  0  0  0  0  0
  147.2428  136.3698  156.2798 H   0  0  0  0  0  0  0  0  0  0  0  0
  147.1145  136.7999  154.5749 H   0  0  0  0  0  0  0  0  0  0  0  0
  146.0067  137.5060  155.7487 H   0  0  0  0  0  0  0  0  0  0  0  0
  147.8706  138.7251  156.8307 H   0  0  0  0  0  0  0  0  0  0  0  0
  149.7474  137.1849  156.3591 H   0  0  0  0  0  0  0  0  0  0  0  0
  149.6053  137.4674  154.6357 H   0  0  0  0  0  0  0  0  0  0  0  0
  152.1073  138.5028  158.0784 H   0  0  0  0  0  0  0  0  0  0  0  0
  152.3841  141.3024  157.1212 H   0  0  0  0  0  0  0  0  0  0  0  0
  150.9863  140.6677  157.9669 H   0  0  0  0  0  0  0  0  0  0  0  0
  152.4044  140.1561  159.9771 H   0  0  0  0  0  0  0  0  0  0  0  0
  153.8103  140.7956  159.1620 H   0  0  0  0  0  0  0  0  0  0  0  0
  152.6879  143.2584  157.8062 H   0  0  0  0  0  0  0  0  0  0  0  0
  152.1364  145.5280  158.7149 H   0  0  0  0  0  0  0  0  0  0  0  0
  151.5539  145.7470  161.1479 H   0  0  0  0  0  0  0  0  0  0  0  0
  151.5497  143.6804  162.5693 H   0  0  0  0  0  0  0  0  0  0  0  0
  150.5603  141.1008  155.1033 H   0  0  0  0  0  0  0  0  0  0  0  0
  150.1321  139.9766  153.8270 H   0  0  0  0  0  0  0  0  0  0  0  0
  148.3183  140.9044  156.1223 H   0  0  0  0  0  0  0  0  0  0  0  0
  148.5187  142.5681  154.2741 H   0  0  0  0  0  0  0  0  0  0  0  0
  146.9078  141.8584  154.3182 H   0  0  0  0  0  0  0  0  0  0  0  0
  148.0680  141.3310  153.1017 H   0  0  0  0  0  0  0  0  0  0  0  0
  1  2  1  0  0  0  0
  1 21  1  0  0  0  0
  1 22  1  0  0  0  0
  1 23  1  0  0  0  0
  2 20  1  0  0  0  0
  2  3  1  0  0  0  0
  2 24  1  0  0  0  0
  3  4  1  0  0  0  0
  3 25  1  0  0  0  0
  3 26  1  0  0  0  0
  4  5  1  0  0  0  0
  4 17  1  0  0  0  0
  5  6  2  0  0  0  0
  5  7  2  0  0  0  0
  5  8  1  0  0  0  0
  8  9  1  0  0  0  0
  8 27  1  0  0  0  0
  9 10  1  0  0  0  0
  9 28  1  0  0  0  0
  9 29  1  0  0  0  0
 10 11  1  0  0  0  0
 10 30  1  0  0  0  0
 10 31  1  0  0  0  0
 11 16  1  0  0  0  0
 11 12  2  0  0  0  0
 12 13  1  0  0  0  0
 12 32  1  0  0  0  0
 13 14  2  0  0  0  0
 13 33  1  0  0  0  0
 14 15  1  0  0  0  0
 14 34  1  0  0  0  0
 15 16  2  0  0  0  0
 15 35  1  0  0  0  0
 17 18  1  0  0  0  0
 17 36  1  0  0  0  0
 17 37  1  0  0  0  0
 18 19  1  0  0  0  0
 18 20  1  0  0  0  0
 18 38  1  0  0  0  0
 19 39  1  0  0  0  0
 19 40  1  0  0  0  0
 19 41  1  0  0  0  0
M  END
> <s_m_source_file>
AV-unprocessed.smi

> <i_m_source_file_index>
2100

> <i_lp_mmshare_version>
43012

> <i_f3d_flags>
0

> <s_epik_input>
W0NIM11bQ0BASF0xW0NIMl1OKFtDSDJdW0NASF0oTzEpW0NIM10pUyg9TykoPU8pW05IXVtDSDJdW0NIMl1jMltjSF1bY0hdW2NIXVtjSF1uMg==

> <s_epik_cmdline>
J2VwaWtfcHl0aG9uJywgJy1waCcsICc3LjAnLCAnLXRuJywgJzgnLCAnLW1hJywgJzIwMCcsICctbWV0YWxfYmluZGluZycsICctaW1hZScsICc8aW5maWxlLm1hZT4nLCAnLW9tYWUnLCAnPG91dGZpbGUubWFlPic=

> <r_epik_Ionization_Penalty>
0.085378

> <r_epik_Ionization_Penalty_Charging>
0

> <r_epik_Ionization_Penalty_Neutral>
0.085378

> <r_epik_State_Penalty>
0.0441186

> <r_epik_Charging_Adjusted_Penalty>
0.0441186

> <i_epik_Tot_Q>
0

> <i_epik_Tot_abs_Q>
0

> <r_epik_Metal_State_Penalty>
0.24397

> <b_epik_Metal_Only>
0

> <s_lp_Force_Field>
OPLS_2005

> <r_lp_Energy>
5.36855

> <b_lp_Chiralities_Consistent>
1

> <s_lp_Variant>
AV-unprocessed.smi:2100-2

> <Gold.Version>
5.8.1

> <Gold.Id.Protein>
6NUR|6NUR_protein|mol2

> <Gold.PLP.Fitness>
45.0791

> <Gold.PLP.PLP>
-39.3673

> <Gold.PLP.part.hbond>
-3.6728

> <Gold.PLP.part.metal>
0.0000

> <Gold.PLP.part.buried>
-4.8956

> <Gold.PLP.part.nonpolar>
-31.8571

> <Gold.PLP.part.repulsive>
0.1838

> <Gold.PLP.ligand.clash>
0.0000

> <Gold.PLP.ligand.torsion>
0.6219

> <Gold.PLP.Chemscore.Hbond>
2.0681

> <Gold.PLP.Chemscore.CHOScore>
0.0000

> <Gold.PLP.Chemscore.Metal>
0.0000

> <Gold.Chemscore.Hbonds>
donor molecule, donor type, donor heavy atom, donor atom, acceptor molecule, acceptor atom, score
      P1  H  7989  7998       L1     7  0.40
      P1  H  7997  8010       L1     7  1.00
      P1  H 10752 10763       L1     6  0.69

> <Gold.PLP.Chemscore.Internal.Correction>
0.7512

> <Gold.Rescore>
     Score         DG    S(hbond)    S(metal)    S(lipo)     H(rot)  DE(clash)    DE(int)     intcor
     18.08     -18.97       1.96        0.00      96.74       1.71       0.11       0.78       ----

> <Gold.Chemscore.Fitness>
18.0758

> <Gold.Chemscore.DG>
-18.9662

> <Gold.Chemscore.ZeroCoef>
-5.4800

> <Gold.Chemscore.Hbond>
1.9565

> <Gold.Chemscore.Metal>
0.0000

> <Gold.Chemscore.Lipo>
96.7412

> <Gold.Chemscore.Internal_Hbond>
0.0000

> <Gold.Chemscore.DEClash>
0.1128

> <Gold.Chemscore.DEInternal>
0.7776

> <Gold.Chemscore.Rot>
1.7060

> <Gold.Chemscore.Internal.Correction>
   9.000000E+99

> <Gold.Chemscore.Hbonds>
donor molecule, donor type, donor heavy atom, donor atom, acceptor molecule, acceptor atom, score
      P1  H  7989  7998       L1     7  0.39
      P1  H  7997  8010       L1     7  0.58
      P1  H 10752 10763       L1     6  0.66

> <Gold.Chemscore.Hbond.Weighted>
-6.5349

> <Gold.Chemscore.Metal.Weighted>
-0.0000

> <Gold.Chemscore.Lipo.Weighted>
-11.3187

> <Gold.Chemscore.Internal_Hbond.Weighted>
0.0000

> <Gold.Chemscore.DEClash.Weighted>
0.1128

> <Gold.Chemscore.DEInternal.Weighted>
0.7776

> <Gold.Chemscore.Rot.Weighted>
4.3674

> <Gold.Chemscore.Internal.Correction.Weighted>
   9.000000E+99

> <Gold.Protein.RotatedTorsions>
[ 6907 6896 6895 6894 ] final  -20.82 input  -60.11 | X-H torsion
[ 7974 7965 7964 7962 ] final  111.77 input  175.53 | X-H torsion
[ 8008 7997 7996 7995 ] final  109.13 input   59.86 | X-H torsion
[ 10167 10162 10161 10158 ] final   76.00 input  -65.29 | X-H torsion
[ 10718 10713 10712 10709 ] final  103.02 input   66.30 | X-H torsion
[ 10763 10752 10751 10750 ] final   73.09 input  -60.55 | X-H torsion
[ 11005 11000 10999 10996 ] final  -65.51 input  -57.11 | X-H torsion

> <Gold.Protein.ActiveResidues>
 VAL166  LYS551  ARG553  GLY616  TRP617  ASP618  TYR619  PRO620  LYS621  CYS622 
 ASP623  PHE694  ASN695  SER759  ASP760  ASP761  ALA762  ILE779  LEU786  VAL792 
 PHE793  MET794  SER795  GLU796  ALA797  LYS798  CYS799  TRP800  GLU811  SER814 

> <Gold.Protein.RotatedAtoms>
  151.2425  135.0594  159.9030 H   0  0  0  0  0  0  0  0  0  0  0  0  # atno 6907 bound_to 6896
  152.5391  134.0419  159.8081 H   0  0  0  0  0  0  0  0  0  0  0  0  # atno 6908 bound_to 6896
  151.0615  133.5491  159.2665 H   0  0  0  0  0  0  0  0  0  0  0  0  # atno 6909 bound_to 6896
  145.2380  139.2791  143.4133 H   0  0  0  0  0  0  0  0  0  0  0  0  # atno 7974 bound_to 7965
  156.1956  140.3063  155.9420 H   0  0  0  0  0  0  0  0  0  0  0  0  # atno 8008 bound_to 7997
  155.3074  140.0449  157.3050 H   0  0  0  0  0  0  0  0  0  0  0  0  # atno 8009 bound_to 7997
  154.5505  140.2290  155.8502 H   0  0  0  0  0  0  0  0  0  0  0  0  # atno 8010 bound_to 7997
  139.9970  144.5715  150.7769 H   0  0  0  0  0  0  0  0  0  0  0  0  # atno 10167 bound_to 10162
  157.6785  131.0768  150.5492 H   0  0  0  0  0  0  0  0  0  0  0  0  # atno 10718 bound_to 10713
  153.0499  135.5076  154.7841 H   0  0  0  0  0  0  0  0  0  0  0  0  # atno 10763 bound_to 10752
  154.6712  135.2953  154.9742 H   0  0  0  0  0  0  0  0  0  0  0  0  # atno 10764 bound_to 10752
  154.0560  135.6697  153.4858 H   0  0  0  0  0  0  0  0  0  0  0  0  # atno 10765 bound_to 10752
  141.1456  133.6683  156.5997 H   0  0  0  0  0  0  0  0  0  0  0  0  # atno 11005 bound_to 11000
  146.3336  140.2735  142.8607 LP  0  0  0  0  0  0  0  0  0  0  0  0  # atno 17320 bound_to 7965
  144.9615  140.8279  143.5511 LP  0  0  0  0  0  0  0  0  0  0  0  0  # atno 17321 bound_to 7965
  140.7433  143.2845  151.3504 LP  0  0  0  0  0  0  0  0  0  0  0  0  # atno 17342 bound_to 10162
  139.6299  144.0741  152.2467 LP  0  0  0  0  0  0  0  0  0  0  0  0  # atno 17343 bound_to 10162
  156.5797  130.4301  149.5982 LP  0  0  0  0  0  0  0  0  0  0  0  0  # atno 17370 bound_to 10713
  156.2671  130.6996  151.1782 LP  0  0  0  0  0  0  0  0  0  0  0  0  # atno 17371 bound_to 10713
  140.3698  134.7615  157.4591 LP  0  0  0  0  0  0  0  0  0  0  0  0  # atno 17394 bound_to 11000
  140.0719  134.5850  155.8632 LP  0  0  0  0  0  0  0  0  0  0  0  0  # atno 17395 bound_to 11000

$$$$
