AV-unprocessed.smi:1510|AV-procd|sdf|6097|dock1
  -GOLD-   22720 6223D 1   1.00000     0.00000
 Structure written by MMmdl.
 33 34  0  0  0  0  0  0  0  0  1 V2000
  152.7787  139.5306  156.1173 O   0  0  0  0  0  0  0  0  0  0  0  0
  151.6277  139.9679  156.1598 C   0  0  0  0  0  0  0  0  0  0  0  0
  150.6354  139.6996  155.0183 C   0  0  0  0  0  0  0  0  0  0  0  0
  149.2517  140.0738  155.3445 N   0  0  0  0  0  0  0  0  0  0  0  0
  148.6765  139.3009  156.3418 N   0  0  0  0  0  0  0  0  0  0  0  0
  147.4703  139.5430  156.7299 C   0  0  0  0  0  0  0  0  0  0  0  0
  146.9417  138.7563  157.7234 O   0  0  0  0  0  0  0  0  0  0  0  0
  146.6934  140.6103  156.1390 C   0  0  0  0  0  0  0  0  0  0  0  0
  147.2607  141.3550  155.1651 C   0  0  0  0  0  0  0  0  0  0  0  0
  148.6281  141.1094  154.7028 C   0  0  0  0  0  0  0  0  0  0  0  0
  149.1704  141.7729  153.8193 O   0  0  0  0  0  0  0  0  0  0  0  0
  151.1662  140.7125  157.1739 N   0  0  0  0  0  0  0  0  0  0  0  0
  151.9527  141.0964  158.3376 C   0  0  0  0  0  0  0  0  0  0  0  0
  151.4947  142.4595  158.8736 C   0  0  1  0  0  0  0  0  0  0  0  0
  152.4354  143.0585  159.9163 C   0  0  0  0  0  0  0  0  0  0  0  0
  152.0941  144.5281  159.8211 C   0  0  0  0  0  0  0  0  0  0  0  0
  151.8591  144.7041  158.3225 C   0  0  0  0  0  0  0  0  0  0  0  0
  151.4578  143.4278  157.8285 O   0  0  0  0  0  0  0  0  0  0  0  0
  147.6750  138.5159  158.2689 H   0  0  0  0  0  0  0  0  0  0  0  0
  150.9646  140.2265  154.1207 H   0  0  0  0  0  0  0  0  0  0  0  0
  150.6873  138.6385  154.7680 H   0  0  0  0  0  0  0  0  0  0  0  0
  145.6845  140.7988  156.4755 H   0  0  0  0  0  0  0  0  0  0  0  0
  146.6922  142.1552  154.7145 H   0  0  0  0  0  0  0  0  0  0  0  0
  150.2133  141.0441  157.1338 H   0  0  0  0  0  0  0  0  0  0  0  0
  151.8384  140.3373  159.1131 H   0  0  0  0  0  0  0  0  0  0  0  0
  153.0101  141.1297  158.0704 H   0  0  0  0  0  0  0  0  0  0  0  0
  150.4927  142.3823  159.2996 H   0  0  0  0  0  0  0  0  0  0  0  0
  152.2833  142.6464  160.9142 H   0  0  0  0  0  0  0  0  0  0  0  0
  153.4769  142.8984  159.6334 H   0  0  0  0  0  0  0  0  0  0  0  0
  151.1754  144.7331  160.3727 H   0  0  0  0  0  0  0  0  0  0  0  0
  152.8782  145.1786  160.2097 H   0  0  0  0  0  0  0  0  0  0  0  0
  151.1069  145.4647  158.1116 H   0  0  0  0  0  0  0  0  0  0  0  0
  152.7827  144.9940  157.8203 H   0  0  0  0  0  0  0  0  0  0  0  0
  1  2  2  0  0  0  0
  2  3  1  0  0  0  0
  2 12  1  0  0  0  0
  3 20  1  0  0  0  0
  3 21  1  0  0  0  0
  3  4  1  0  0  0  0
  4  5  1  0  0  0  0
  4 10  1  0  0  0  0
  5  6  2  0  0  0  0
  6  7  1  0  0  0  0
  6  8  1  0  0  0  0
  7 19  1  0  0  0  0
  8 22  1  0  0  0  0
  8  9  2  0  0  0  0
  9 23  1  0  0  0  0
  9 10  1  0  0  0  0
 10 11  2  0  0  0  0
 12 13  1  0  0  0  0
 12 24  1  0  0  0  0
 13 14  1  0  0  0  0
 13 25  1  0  0  0  0
 13 26  1  0  0  0  0
 14 18  1  0  0  0  0
 14 15  1  0  0  0  0
 14 27  1  0  0  0  0
 15 16  1  0  0  0  0
 15 28  1  0  0  0  0
 15 29  1  0  0  0  0
 16 17  1  0  0  0  0
 16 30  1  0  0  0  0
 16 31  1  0  0  0  0
 17 18  1  0  0  0  0
 17 32  1  0  0  0  0
 17 33  1  0  0  0  0
M  END
> <s_m_source_file>
AV-unprocessed.smi

> <i_m_source_file_index>
1510

> <i_lp_mmshare_version>
43012

> <i_f3d_flags>
0

> <s_epik_input>
TzFbQ0gyXVtDSDJdW0NIMl1bQ0BIXTFbQ0gyXVtOSF1DKD1PKVtDSDJdbjJbbkhdYyg9TylbY0hdW2NIXWMyPU8=

> <s_epik_cmdline>
J2VwaWtfcHl0aG9uJywgJy1waCcsICc3LjAnLCAnLXRuJywgJzgnLCAnLW1hJywgJzIwMCcsICctbWV0YWxfYmluZGluZycsICctaW1hZScsICc8aW5maWxlLm1hZT4nLCAnLW9tYWUnLCAnPG91dGZpbGUubWFlPic=

> <r_lp_tautomer_probability>
0.9996

> <r_epik_Ionization_Penalty>
2.13037

> <r_epik_Ionization_Penalty_Charging>
3.76e-08

> <r_epik_Ionization_Penalty_Neutral>
2.13037

> <r_epik_State_Penalty>
1.70753

> <r_epik_Charging_Adjusted_Penalty>
1.70753

> <i_epik_Tot_Q>
0

> <i_epik_Tot_abs_Q>
0

> <r_epik_Metal_State_Penalty>
1.70753

> <b_epik_Metal_Only>
0

> <s_lp_Force_Field>
OPLS_2005

> <r_lp_Energy>
28.362

> <b_lp_Chiralities_Consistent>
1

> <s_lp_Variant>
AV-unprocessed.smi:1510-4

> <Gold.Version>
5.8.1

> <Gold.Id.Protein>
6NUR|6NUR_protein|mol2

> <Gold.PLP.Fitness>
36.3968

> <Gold.PLP.PLP>
-32.2222

> <Gold.PLP.part.hbond>
-2.8978

> <Gold.PLP.part.metal>
0.0000

> <Gold.PLP.part.buried>
-3.9934

> <Gold.PLP.part.nonpolar>
-25.0017

> <Gold.PLP.part.repulsive>
0.5639

> <Gold.PLP.ligand.clash>
0.0000

> <Gold.PLP.ligand.torsion>
0.4004

> <Gold.PLP.Chemscore.Hbond>
1.6560

> <Gold.PLP.Chemscore.CHOScore>
0.0000

> <Gold.PLP.Chemscore.Metal>
0.0000

> <Gold.Chemscore.Hbonds>
donor molecule, donor type, donor heavy atom, donor atom, acceptor molecule, acceptor atom, score
      P1  H  7997  8008       L1     1  1.00
      P1  H  8011  8017       L1    11  0.59

> <Gold.PLP.Chemscore.Internal.Correction>
0.0073

> <Gold.Rescore>
     Score         DG    S(hbond)    S(metal)    S(lipo)     H(rot)  DE(clash)    DE(int)     intcor
     12.02     -12.60       1.72        0.00      70.70       2.69       0.23       0.34       ----

> <Gold.Chemscore.Fitness>
12.0228

> <Gold.Chemscore.DG>
-12.5981

> <Gold.Chemscore.ZeroCoef>
-5.4800

> <Gold.Chemscore.Hbond>
1.7190

> <Gold.Chemscore.Metal>
0.0000

> <Gold.Chemscore.Lipo>
70.7049

> <Gold.Chemscore.Internal_Hbond>
0.0000

> <Gold.Chemscore.DEClash>
0.2336

> <Gold.Chemscore.DEInternal>
0.3417

> <Gold.Chemscore.Rot>
2.6937

> <Gold.Chemscore.Internal.Correction>
   9.000000E+99

> <Gold.Chemscore.Hbonds>
donor molecule, donor type, donor heavy atom, donor atom, acceptor molecule, acceptor atom, score
      P1  H  7997  8008       L1     1  1.00
      P1  H  8011  8017       L1    11  0.60

> <Gold.Chemscore.Hbond.Weighted>
-5.7416

> <Gold.Chemscore.Metal.Weighted>
-0.0000

> <Gold.Chemscore.Lipo.Weighted>
-8.2725

> <Gold.Chemscore.Internal_Hbond.Weighted>
0.0000

> <Gold.Chemscore.DEClash.Weighted>
0.2336

> <Gold.Chemscore.DEInternal.Weighted>
0.3417

> <Gold.Chemscore.Rot.Weighted>
6.8959

> <Gold.Chemscore.Internal.Correction.Weighted>
   9.000000E+99

> <Gold.Protein.RotatedTorsions>
[ 6907 6896 6895 6894 ] final  134.04 input  -60.11 | X-H torsion
[ 7974 7965 7964 7962 ] final -170.05 input  175.53 | X-H torsion
[ 8008 7997 7996 7995 ] final  -39.24 input   59.86 | X-H torsion
[ 10167 10162 10161 10158 ] final   75.40 input  -65.29 | X-H torsion
[ 10718 10713 10712 10709 ] final  -34.06 input   66.30 | X-H torsion
[ 10763 10752 10751 10750 ] final  -12.29 input  -60.55 | X-H torsion
[ 11005 11000 10999 10996 ] final  -13.33 input  -57.11 | X-H torsion

> <Gold.Protein.ActiveResidues>
 VAL166  LYS551  ARG553  GLY616  TRP617  ASP618  TYR619  PRO620  LYS621  CYS622 
 ASP623  PHE694  ASN695  SER759  ASP760  ASP761  ALA762  ILE779  LEU786  VAL792 
 PHE793  MET794  SER795  GLU796  ALA797  LYS798  CYS799  TRP800  GLU811  SER814 

> <Gold.Protein.RotatedAtoms>
  152.3156  133.5799  159.5709 H   0  0  0  0  0  0  0  0  0  0  0  0  # atno 6907 bound_to 6896
  150.7345  134.0088  159.3671 H   0  0  0  0  0  0  0  0  0  0  0  0  # atno 6908 bound_to 6896
  151.7977  135.0718  160.0447 H   0  0  0  0  0  0  0  0  0  0  0  0  # atno 6909 bound_to 6896
  144.7176  140.2130  143.6325 H   0  0  0  0  0  0  0  0  0  0  0  0  # atno 7974 bound_to 7965
  154.4025  140.1556  156.2832 H   0  0  0  0  0  0  0  0  0  0  0  0  # atno 8008 bound_to 7997
  155.8851  140.3441  155.5894 H   0  0  0  0  0  0  0  0  0  0  0  0  # atno 8009 bound_to 7997
  155.7622  140.0819  157.2140 H   0  0  0  0  0  0  0  0  0  0  0  0  # atno 8010 bound_to 7997
  140.0034  144.5669  150.7718 H   0  0  0  0  0  0  0  0  0  0  0  0  # atno 10167 bound_to 10162
  156.3551  130.4314  149.7671 H   0  0  0  0  0  0  0  0  0  0  0  0  # atno 10718 bound_to 10713
  153.4963  135.7017  153.5856 H   0  0  0  0  0  0  0  0  0  0  0  0  # atno 10763 bound_to 10752
  153.4006  135.3873  155.1985 H   0  0  0  0  0  0  0  0  0  0  0  0  # atno 10764 bound_to 10752
  154.8713  135.3880  154.4429 H   0  0  0  0  0  0  0  0  0  0  0  0  # atno 10765 bound_to 10752
  140.7750  133.8408  155.9241 H   0  0  0  0  0  0  0  0  0  0  0  0  # atno 11005 bound_to 11000
  145.8572  139.2205  143.1737 LP  0  0  0  0  0  0  0  0  0  0  0  0  # atno 17320 bound_to 7965
  146.0206  140.8351  142.9925 LP  0  0  0  0  0  0  0  0  0  0  0  0  # atno 17321 bound_to 7965
  140.7410  143.2812  151.3593 LP  0  0  0  0  0  0  0  0  0  0  0  0  # atno 17342 bound_to 10162
  139.6256  144.0821  152.2431 LP  0  0  0  0  0  0  0  0  0  0  0  0  # atno 17343 bound_to 10162
  156.4857  130.8061  151.3074 LP  0  0  0  0  0  0  0  0  0  0  0  0  # atno 17370 bound_to 10713
  157.7466  130.9991  150.2879 LP  0  0  0  0  0  0  0  0  0  0  0  0  # atno 17371 bound_to 10713
  140.9537  134.1745  157.4708 LP  0  0  0  0  0  0  0  0  0  0  0  0  # atno 17394 bound_to 11000
  139.8750  134.9919  156.5570 LP  0  0  0  0  0  0  0  0  0  0  0  0  # atno 17395 bound_to 11000

$$$$
