AV-unprocessed.smi:1726|AV-procd|sdf|6961|dock6
  -GOLD-   22720 8173D 1   1.00000     0.00000
 Structure written by MMmdl.
 42 43  0  0  0  0  0  0  0  0  3 V2000
  147.6857  127.9050  151.9928 C   0  0  0  0  0  0  0  0  0  0  0  0
  146.5330  128.7682  151.4593 C   0  0  0  0  0  0  0  0  0  0  0  0
  146.6359  130.1868  151.8859 N   0  3  1  0  0  0  0  0  0  0  0  0
  145.5491  131.0228  151.3125 C   0  0  0  0  0  0  0  0  0  0  0  0
  145.7489  132.5088  151.6534 C   0  0  0  0  0  0  0  0  0  0  0  0
  145.8542  132.7176  153.1695 C   0  0  0  0  0  0  0  0  0  0  0  0
  146.9661  131.8273  153.7448 C   0  0  1  0  0  0  0  0  0  0  0  0
  147.0277  131.9825  155.1948 N   0  0  0  0  0  0  0  0  0  0  0  0
  147.4070  133.0979  155.8349 C   0  0  0  0  0  0  0  0  0  0  0  0
  147.7524  134.1241  155.2488 O   0  0  0  0  0  0  0  0  0  0  0  0
  147.3784  132.9200  157.1676 N   0  0  0  0  0  0  0  0  0  0  0  0
  147.6795  133.8338  158.1914 C   0  0  0  0  0  0  0  0  0  0  0  0
  146.9585  133.9786  159.3376 C   0  0  0  0  0  0  0  0  0  0  0  0
  147.3278  134.9325  160.3757 C   0  0  0  0  0  0  0  0  0  0  0  0
  146.4942  135.1896  161.6184 C   0  0  0  0  0  0  0  0  0  0  0  0
  146.4446  134.0888  162.3672 F   0  0  0  0  0  0  0  0  0  0  0  0
  147.0190  136.1697  162.3546 F   0  0  0  0  0  0  0  0  0  0  0  0
  145.2463  135.5288  161.2943 F   0  0  0  0  0  0  0  0  0  0  0  0
  148.4615  135.6509  160.0483 C   0  0  0  0  0  0  0  0  0  0  0  0
  149.2460  135.5495  158.9529 N   0  5  0  0  0  0  0  0  0  0  0  0
  148.8926  134.6526  157.9895 C   0  0  0  0  0  0  0  0  0  0  0  0
  149.5587  134.5124  156.9631 O   0  0  0  0  0  0  0  0  0  0  0  0
  146.7287  130.3512  153.3612 C   0  0  0  0  0  0  0  0  0  0  0  0
  147.6317  126.8981  151.5783 H   0  0  0  0  0  0  0  0  0  0  0  0
  147.6591  127.8069  153.0776 H   0  0  0  0  0  0  0  0  0  0  0  0
  148.6534  128.3237  151.7151 H   0  0  0  0  0  0  0  0  0  0  0  0
  146.5614  128.7193  150.3700 H   0  0  0  0  0  0  0  0  0  0  0  0
  145.5697  128.3545  151.7613 H   0  0  0  0  0  0  0  0  0  0  0  0
  145.5266  130.9068  150.2283 H   0  0  0  0  0  0  0  0  0  0  0  0
  144.5851  130.6764  151.6889 H   0  0  0  0  0  0  0  0  0  0  0  0
  146.6541  132.8772  151.1688 H   0  0  0  0  0  0  0  0  0  0  0  0
  144.9229  133.0974  151.2533 H   0  0  0  0  0  0  0  0  0  0  0  0
  146.0558  133.7669  153.3882 H   0  0  0  0  0  0  0  0  0  0  0  0
  144.8994  132.4771  153.6398 H   0  0  0  0  0  0  0  0  0  0  0  0
  147.9169  132.1542  153.3181 H   0  0  0  0  0  0  0  0  0  0  0  0
  146.7637  131.1835  155.7529 H   0  0  0  0  0  0  0  0  0  0  0  0
  147.1481  131.9932  157.4954 H   0  0  0  0  0  0  0  0  0  0  0  0
  146.0919  133.3664  159.5259 H   0  0  0  0  0  0  0  0  0  0  0  0
  148.7851  136.4267  160.7746 H   0  0  0  0  0  0  0  0  0  0  0  0
  145.8137  129.9807  153.8267 H   0  0  0  0  0  0  0  0  0  0  0  0
  147.5461  129.7452  153.7501 H   0  0  0  0  0  0  0  0  0  0  0  0
  147.4987  130.5402  151.4971 H   0  0  0  0  0  0  0  0  0  0  0  0
  1  2  1  0  0  0  0
  1 24  1  0  0  0  0
  1 25  1  0  0  0  0
  1 26  1  0  0  0  0
  2  3  1  0  0  0  0
  2 27  1  0  0  0  0
  2 28  1  0  0  0  0
  3 23  1  0  0  0  0
  3  4  1  0  0  0  0
  3 42  1  0  0  0  0
  4  5  1  0  0  0  0
  4 29  1  0  0  0  0
  4 30  1  0  0  0  0
  5  6  1  0  0  0  0
  5 31  1  0  0  0  0
  5 32  1  0  0  0  0
  6  7  1  0  0  0  0
  6 33  1  0  0  0  0
  6 34  1  0  0  0  0
  7  8  1  0  0  0  0
  7 23  1  0  0  0  0
  7 35  1  0  0  0  0
  8  9  1  0  0  0  0
  8 36  1  0  0  0  0
  9 10  2  0  0  0  0
  9 11  1  0  0  0  0
 11 12  1  0  0  0  0
 11 37  1  0  0  0  0
 12 21  1  0  0  0  0
 12 13  2  0  0  0  0
 13 14  1  0  0  0  0
 13 38  1  0  0  0  0
 14 15  1  0  0  0  0
 14 19  2  0  0  0  0
 15 16  1  0  0  0  0
 15 17  1  0  0  0  0
 15 18  1  0  0  0  0
 19 20  1  0  0  0  0
 19 39  1  0  0  0  0
 20 21  1  0  0  0  0
 21 22  2  0  0  0  0
 23 40  1  0  0  0  0
 23 41  1  0  0  0  0
M  CHG  1   3   1
M  CHG  1  20  -1
M  END
> <s_m_source_file>
AV-unprocessed.smi

> <i_m_source_file_index>
1726

> <i_lp_mmshare_version>
43012

> <i_f3d_flags>
0

> <s_epik_input>
W0NIM11bQ0gyXU4xW0NIMl1bQ0gyXVtDSDJdW0NASF0oW0NIMl0xKVtOSF1DKD1PKVtOSF1jMltjSF1jKEMoRikoRilGKVtjSF1bbkhdYzI9Tw==

> <s_epik_cmdline>
J2VwaWtfcHl0aG9uJywgJy1waCcsICc3LjAnLCAnLXRuJywgJzgnLCAnLW1hJywgJzIwMCcsICctbWV0YWxfYmluZGluZycsICctaW1hZScsICc8aW5maWxlLm1hZT4nLCAnLW9tYWUnLCAnPG91dGZpbGUubWFlPic=

> <r_lp_tautomer_probability>
1

> <r_epik_Ionization_Penalty>
3.01007

> <r_epik_Ionization_Penalty_Charging>
0.14897

> <r_epik_Ionization_Penalty_Neutral>
2.8611

> <r_epik_State_Penalty>
2.85632

> <r_epik_Charging_Adjusted_Penalty>
3.00529

> <i_epik_Tot_Q>
0

> <i_epik_Tot_abs_Q>
2

> <r_epik_Metal_State_Penalty>
0.443826

> <b_epik_Metal_Only>
1

> <s_lp_Force_Field>
OPLS_2005

> <r_lp_Energy>
27.5117

> <b_lp_Chiralities_Consistent>
1

> <s_lp_Variant>
AV-unprocessed.smi:1726-5

> <Gold.Version>
5.8.1

> <Gold.Id.Protein>
6NUR|6NUR_protein|mol2

> <Gold.PLP.Fitness>
39.9867

> <Gold.PLP.PLP>
-32.4357

> <Gold.PLP.part.hbond>
-2.0000

> <Gold.PLP.part.metal>
0.0000

> <Gold.PLP.part.buried>
-4.7351

> <Gold.PLP.part.nonpolar>
-26.5309

> <Gold.PLP.part.repulsive>
0.0602

> <Gold.PLP.ligand.clash>
0.0000

> <Gold.PLP.ligand.torsion>
0.4609

> <Gold.PLP.Chemscore.Hbond>
2.8000

> <Gold.PLP.Chemscore.CHOScore>
0.0000

> <Gold.PLP.Chemscore.Metal>
0.0000

> <Gold.Chemscore.Hbonds>
donor molecule, donor type, donor heavy atom, donor atom, acceptor molecule, acceptor atom, score
      L1  H     3    42       P1 10747  1.00
      P1  H  6896  6909       L1    20  1.70

> <Gold.PLP.Chemscore.Internal.Correction>
0.0728

> <Gold.Rescore>
     Score         DG    S(hbond)    S(metal)    S(lipo)     H(rot)  DE(clash)    DE(int)     intcor
     13.60     -16.42       1.85        0.00      68.71       1.28       0.12       2.70       ----

> <Gold.Chemscore.Fitness>
13.6016

> <Gold.Chemscore.DG>
-16.4249

> <Gold.Chemscore.ZeroCoef>
-5.4800

> <Gold.Chemscore.Hbond>
1.8507

> <Gold.Chemscore.Metal>
0.0000

> <Gold.Chemscore.Lipo>
68.7146

> <Gold.Chemscore.Internal_Hbond>
0.0000

> <Gold.Chemscore.DEClash>
0.1214

> <Gold.Chemscore.DEInternal>
2.7019

> <Gold.Chemscore.Rot>
1.2796

> <Gold.Chemscore.Internal.Correction>
   9.000000E+99

> <Gold.Chemscore.Hbonds>
donor molecule, donor type, donor heavy atom, donor atom, acceptor molecule, acceptor atom, score
      L1  H     3    42       P1 10747  0.99
      P1  H  6896  6909       L1    20  0.06

> <Gold.Chemscore.Hbond.Weighted>
-6.1812

> <Gold.Chemscore.Metal.Weighted>
-0.0000

> <Gold.Chemscore.Lipo.Weighted>
-8.0396

> <Gold.Chemscore.Internal_Hbond.Weighted>
0.0000

> <Gold.Chemscore.DEClash.Weighted>
0.1214

> <Gold.Chemscore.DEInternal.Weighted>
2.7019

> <Gold.Chemscore.Rot.Weighted>
3.2759

> <Gold.Chemscore.Internal.Correction.Weighted>
   9.000000E+99

> <Gold.Protein.RotatedTorsions>
[ 6907 6896 6895 6894 ] final   53.47 input  -60.11 | X-H torsion
[ 7974 7965 7964 7962 ] final  -38.38 input  175.53 | X-H torsion
[ 8008 7997 7996 7995 ] final -149.49 input   59.86 | X-H torsion
[ 10167 10162 10161 10158 ] final -143.73 input  -65.29 | X-H torsion
[ 10718 10713 10712 10709 ] final -158.91 input   66.30 | X-H torsion
[ 10763 10752 10751 10750 ] final   92.15 input  -60.55 | X-H torsion
[ 11005 11000 10999 10996 ] final   45.81 input  -57.11 | X-H torsion

> <Gold.Protein.ActiveResidues>
 VAL166  LYS551  ARG553  GLY616  TRP617  ASP618  TYR619  PRO620  LYS621  CYS622 
 ASP623  PHE694  ASN695  SER759  ASP760  ASP761  ALA762  ILE779  LEU786  VAL792 
 PHE793  MET794  SER795  GLU796  ALA797  LYS798  CYS799  TRP800  GLU811  SER814 

> <Gold.Protein.RotatedAtoms>
  152.3340  134.7222  160.0281 H   0  0  0  0  0  0  0  0  0  0  0  0  # atno 6907 bound_to 6896
  151.7629  133.3330  159.3431 H   0  0  0  0  0  0  0  0  0  0  0  0  # atno 6908 bound_to 6896
  150.7440  134.6021  159.6086 H   0  0  0  0  0  0  0  0  0  0  0  0  # atno 6909 bound_to 6896
  146.0492  140.6505  142.9050 H   0  0  0  0  0  0  0  0  0  0  0  0  # atno 7974 bound_to 7965
  155.6084  140.0669  157.2713 H   0  0  0  0  0  0  0  0  0  0  0  0  # atno 8008 bound_to 7997
  154.4260  140.1806  156.1294 H   0  0  0  0  0  0  0  0  0  0  0  0  # atno 8009 bound_to 7997
  156.0104  140.3327  155.6939 H   0  0  0  0  0  0  0  0  0  0  0  0  # atno 8010 bound_to 7997
  139.7965  143.7893  152.2654 H   0  0  0  0  0  0  0  0  0  0  0  0  # atno 10167 bound_to 10162
  156.5607  130.8645  151.2808 H   0  0  0  0  0  0  0  0  0  0  0  0  # atno 10718 bound_to 10713
  153.2161  135.4372  155.0435 H   0  0  0  0  0  0  0  0  0  0  0  0  # atno 10763 bound_to 10752
  154.8225  135.3345  154.6997 H   0  0  0  0  0  0  0  0  0  0  0  0  # atno 10764 bound_to 10752
  153.7432  135.7003  153.5018 H   0  0  0  0  0  0  0  0  0  0  0  0  # atno 10765 bound_to 10752
  140.1426  134.4564  155.8439 H   0  0  0  0  0  0  0  0  0  0  0  0  # atno 11005 bound_to 11000
  144.7113  140.4050  143.7078 LP  0  0  0  0  0  0  0  0  0  0  0  0  # atno 17320 bound_to 7965
  145.6754  139.1607  143.2731 LP  0  0  0  0  0  0  0  0  0  0  0  0  # atno 17321 bound_to 7965
  139.8000  144.7378  150.9838 LP  0  0  0  0  0  0  0  0  0  0  0  0  # atno 17342 bound_to 10162
  140.7820  143.4355  151.0630 LP  0  0  0  0  0  0  0  0  0  0  0  0  # atno 17343 bound_to 10162
  157.7369  130.9787  150.2163 LP  0  0  0  0  0  0  0  0  0  0  0  0  # atno 17370 bound_to 10713
  156.2802  130.3732  149.7943 LP  0  0  0  0  0  0  0  0  0  0  0  0  # atno 17371 bound_to 10713
  141.2188  133.6839  156.7274 LP  0  0  0  0  0  0  0  0  0  0  0  0  # atno 17394 bound_to 11000
  140.2704  134.8397  157.3841 LP  0  0  0  0  0  0  0  0  0  0  0  0  # atno 17395 bound_to 11000

$$$$
