AV-unprocessed.smi:1441|AV-procd|sdf|5875|dock4
  -GOLD-   22720 5553D 1   1.00000     0.00000
 Structure written by MMmdl.
 45 46  0  0  0  0  0  0  0  0  1 V2000
  148.4590  135.6748  163.6066 C   0  0  0  0  0  0  0  0  0  0  0  0
  148.7571  135.4471  162.1540 C   0  0  0  0  0  0  0  0  0  0  0  0
  149.0825  134.2248  161.5028 C   0  0  0  0  0  0  0  0  0  0  0  0
  149.2541  134.5752  160.1933 C   0  0  0  0  0  0  0  0  0  0  0  0
  149.6047  133.7354  159.0093 C   0  0  0  0  0  0  0  0  0  0  0  0
  149.0350  135.9391  160.1108 N   0  0  0  0  0  0  0  0  0  0  0  0
  149.0834  136.8095  158.9446 C   0  0  0  0  0  0  0  0  0  0  0  0
  150.5131  137.0188  158.4317 C   0  0  0  0  0  0  0  0  0  0  0  0
  151.4560  136.3915  158.9168 O   0  0  0  0  0  0  0  0  0  0  0  0
  150.6598  137.9157  157.4448 N   0  0  0  0  0  0  0  0  0  0  0  0
  151.9253  138.2532  156.8050 C   0  0  0  0  0  0  0  0  0  0  0  0
  152.0341  139.7671  156.5442 C   0  0  0  0  0  0  0  0  0  0  0  0
  151.9458  140.5356  157.7951 N   0  0  0  0  0  0  0  0  0  0  0  0
  150.7190  141.3281  157.9742 C   0  0  0  0  0  0  0  0  0  0  0  0
  150.9900  142.8446  158.0088 C   0  0  0  0  0  0  0  0  0  0  0  0
  151.4668  143.3630  159.3737 C   0  0  0  0  0  0  0  0  0  0  0  0
  152.8163  142.7921  159.8318 C   0  0  0  0  0  0  0  0  0  0  0  0
  152.7958  141.2665  160.0237 C   0  0  0  0  0  0  0  0  0  0  0  0
  152.9506  140.5010  158.7031 C   0  0  0  0  0  0  0  0  0  0  0  0
  153.9879  139.8621  158.5209 O   0  0  0  0  0  0  0  0  0  0  0  0
  148.7318  136.4700  161.3157 N   0  0  0  0  0  0  0  0  0  0  0  0
  148.5328  134.7469  164.1740 H   0  0  0  0  0  0  0  0  0  0  0  0
  147.4514  136.0679  163.7438 H   0  0  0  0  0  0  0  0  0  0  0  0
  149.1587  136.3875  164.0437 H   0  0  0  0  0  0  0  0  0  0  0  0
  149.1742  133.2383  161.9326 H   0  0  0  0  0  0  0  0  0  0  0  0
  149.6481  132.6803  159.2798 H   0  0  0  0  0  0  0  0  0  0  0  0
  150.5772  134.0192  158.6069 H   0  0  0  0  0  0  0  0  0  0  0  0
  148.8631  133.8477  158.2182 H   0  0  0  0  0  0  0  0  0  0  0  0
  148.4609  136.3788  158.1581 H   0  0  0  0  0  0  0  0  0  0  0  0
  148.6466  137.7751  159.1998 H   0  0  0  0  0  0  0  0  0  0  0  0
  149.8350  138.3883  157.1042 H   0  0  0  0  0  0  0  0  0  0  0  0
  152.7329  137.9215  157.4577 H   0  0  0  0  0  0  0  0  0  0  0  0
  152.0341  137.6956  155.8729 H   0  0  0  0  0  0  0  0  0  0  0  0
  152.9643  139.9890  156.0201 H   0  0  0  0  0  0  0  0  0  0  0  0
  151.2489  140.0801  155.8536 H   0  0  0  0  0  0  0  0  0  0  0  0
  150.0227  141.1378  157.1571 H   0  0  0  0  0  0  0  0  0  0  0  0
  150.1928  141.0074  158.8742 H   0  0  0  0  0  0  0  0  0  0  0  0
  151.6993  143.1204  157.2274 H   0  0  0  0  0  0  0  0  0  0  0  0
  150.0626  143.3627  157.7625 H   0  0  0  0  0  0  0  0  0  0  0  0
  151.5444  144.4497  159.3281 H   0  0  0  0  0  0  0  0  0  0  0  0
  150.7077  143.1507  160.1275 H   0  0  0  0  0  0  0  0  0  0  0  0
  153.6001  143.0768  159.1277 H   0  0  0  0  0  0  0  0  0  0  0  0
  153.0856  143.2600  160.7793 H   0  0  0  0  0  0  0  0  0  0  0  0
  153.6280  140.9869  160.6712 H   0  0  0  0  0  0  0  0  0  0  0  0
  151.8944  140.9454  160.5468 H   0  0  0  0  0  0  0  0  0  0  0  0
  1  2  1  0  0  0  0
  1 22  1  0  0  0  0
  1 23  1  0  0  0  0
  1 24  1  0  0  0  0
  2 21  2  0  0  0  0
  2  3  1  0  0  0  0
  3  4  2  0  0  0  0
  3 25  1  0  0  0  0
  4  5  1  0  0  0  0
  4  6  1  0  0  0  0
  5 26  1  0  0  0  0
  5 27  1  0  0  0  0
  5 28  1  0  0  0  0
  6  7  1  0  0  0  0
  6 21  1  0  0  0  0
  7  8  1  0  0  0  0
  7 29  1  0  0  0  0
  7 30  1  0  0  0  0
  8  9  2  0  0  0  0
  8 10  1  0  0  0  0
 10 11  1  0  0  0  0
 10 31  1  0  0  0  0
 11 12  1  0  0  0  0
 11 32  1  0  0  0  0
 11 33  1  0  0  0  0
 12 13  1  0  0  0  0
 12 34  1  0  0  0  0
 12 35  1  0  0  0  0
 13 19  1  0  0  0  0
 13 14  1  0  0  0  0
 14 15  1  0  0  0  0
 14 36  1  0  0  0  0
 14 37  1  0  0  0  0
 15 16  1  0  0  0  0
 15 38  1  0  0  0  0
 15 39  1  0  0  0  0
 16 17  1  0  0  0  0
 16 40  1  0  0  0  0
 16 41  1  0  0  0  0
 17 18  1  0  0  0  0
 17 42  1  0  0  0  0
 17 43  1  0  0  0  0
 18 19  1  0  0  0  0
 18 44  1  0  0  0  0
 18 45  1  0  0  0  0
 19 20  2  0  0  0  0
M  END
> <s_m_source_file>
AV-unprocessed.smi

> <i_m_source_file_index>
1441

> <i_lp_mmshare_version>
43012

> <i_f3d_flags>
0

> <s_epik_input>
W0NIM11jMVtjSF1jKFtDSDNdKW4objEpW0NIMl1DKD1PKVtOSF1bQ0gyXVtDSDJdTjJbQ0gyXVtDSDJdW0NIMl1bQ0gyXVtDSDJdQzI9Tw==

> <s_epik_cmdline>
J2VwaWtfcHl0aG9uJywgJy1waCcsICc3LjAnLCAnLXRuJywgJzgnLCAnLW1hJywgJzIwMCcsICctbWV0YWxfYmluZGluZycsICctaW1hZScsICc8aW5maWxlLm1hZT4nLCAnLW9tYWUnLCAnPG91dGZpbGUubWFlPic=

> <r_lp_tautomer_probability>
1

> <r_epik_Ionization_Penalty>
0.000341945

> <r_epik_Ionization_Penalty_Charging>
0

> <r_epik_Ionization_Penalty_Neutral>
0.000341945

> <r_epik_State_Penalty>
-0

> <r_epik_Charging_Adjusted_Penalty>
0

> <i_epik_Tot_Q>
0

> <i_epik_Tot_abs_Q>
0

> <r_epik_Metal_State_Penalty>
-0

> <b_epik_Metal_Only>
0

> <s_lp_Force_Field>
OPLS_2005

> <r_lp_Energy>
16.3244

> <b_lp_Chiralities_Consistent>
1

> <s_lp_Variant>
AV-unprocessed.smi:1441-1

> <Gold.Version>
5.8.1

> <Gold.Id.Protein>
6NUR|6NUR_protein|mol2

> <Gold.PLP.Fitness>
50.1532

> <Gold.PLP.PLP>
-39.6444

> <Gold.PLP.part.hbond>
-4.0000

> <Gold.PLP.part.metal>
0.0000

> <Gold.PLP.part.buried>
-3.9889

> <Gold.PLP.part.nonpolar>
-31.8032

> <Gold.PLP.part.repulsive>
0.0107

> <Gold.PLP.ligand.clash>
0.0000

> <Gold.PLP.ligand.torsion>
0.3749

> <Gold.PLP.Chemscore.Hbond>
3.7440

> <Gold.PLP.Chemscore.CHOScore>
0.0000

> <Gold.PLP.Chemscore.Metal>
0.0000

> <Gold.Chemscore.Hbonds>
donor molecule, donor type, donor heavy atom, donor atom, acceptor molecule, acceptor atom, score
      P1  H  6896  6908       L1     9  0.59
      P1  H  6931  6943       L1    21  1.00
      P1  H  7997  8009       L1    20  1.00

> <Gold.PLP.Chemscore.Internal.Correction>
0.0266

> <Gold.Rescore>
     Score         DG    S(hbond)    S(metal)    S(lipo)     H(rot)  DE(clash)    DE(int)     intcor
     21.59     -22.29       3.21        0.00      90.88       1.77       0.01       0.70       ----

> <Gold.Chemscore.Fitness>
21.5878

> <Gold.Chemscore.DG>
-22.2929

> <Gold.Chemscore.ZeroCoef>
-5.4800

> <Gold.Chemscore.Hbond>
3.2079

> <Gold.Chemscore.Metal>
0.0000

> <Gold.Chemscore.Lipo>
90.8844

> <Gold.Chemscore.Internal_Hbond>
0.0000

> <Gold.Chemscore.DEClash>
0.0095

> <Gold.Chemscore.DEInternal>
0.6957

> <Gold.Chemscore.Rot>
1.7715

> <Gold.Chemscore.Internal.Correction>
   9.000000E+99

> <Gold.Chemscore.Hbonds>
donor molecule, donor type, donor heavy atom, donor atom, acceptor molecule, acceptor atom, score
      P1  H  6896  6908       L1     9  0.54
      P1  H  6931  6943       L1    21  0.98
      P1  H  7997  8009       L1    20  0.92

> <Gold.Chemscore.Hbond.Weighted>
-10.7145

> <Gold.Chemscore.Metal.Weighted>
-0.0000

> <Gold.Chemscore.Lipo.Weighted>
-10.6335

> <Gold.Chemscore.Internal_Hbond.Weighted>
0.0000

> <Gold.Chemscore.DEClash.Weighted>
0.0095

> <Gold.Chemscore.DEInternal.Weighted>
0.6957

> <Gold.Chemscore.Rot.Weighted>
4.5351

> <Gold.Chemscore.Internal.Correction.Weighted>
   9.000000E+99

> <Gold.Protein.RotatedTorsions>
[ 6907 6896 6895 6894 ] final -158.04 input  -60.11 | X-H torsion
[ 7974 7965 7964 7962 ] final  162.64 input  175.53 | X-H torsion
[ 8008 7997 7996 7995 ] final  139.66 input   59.86 | X-H torsion
[ 10167 10162 10161 10158 ] final  -80.06 input  -65.29 | X-H torsion
[ 10718 10713 10712 10709 ] final  -90.48 input   66.30 | X-H torsion
[ 10763 10752 10751 10750 ] final -163.41 input  -60.55 | X-H torsion
[ 11005 11000 10999 10996 ] final  -37.12 input  -57.11 | X-H torsion

> <Gold.Protein.ActiveResidues>
 VAL166  LYS551  ARG553  GLY616  TRP617  ASP618  TYR619  PRO620  LYS621  CYS622 
 ASP623  PHE694  ASN695  SER759  ASP760  ASP761  ALA762  ILE779  LEU786  VAL792 
 PHE793  MET794  SER795  GLU796  ALA797  LYS798  CYS799  TRP800  GLU811  SER814 

> <Gold.Protein.RotatedAtoms>
  151.3120  133.4076  159.2647 H   0  0  0  0  0  0  0  0  0  0  0  0  # atno 6907 bound_to 6896
  151.0106  134.9394  159.8015 H   0  0  0  0  0  0  0  0  0  0  0  0  # atno 6908 bound_to 6896
  152.5299  134.3085  159.9157 H   0  0  0  0  0  0  0  0  0  0  0  0  # atno 6909 bound_to 6896
  144.7627  139.8068  143.6326 H   0  0  0  0  0  0  0  0  0  0  0  0  # atno 7974 bound_to 7965
  156.2987  140.2362  156.4274 H   0  0  0  0  0  0  0  0  0  0  0  0  # atno 8008 bound_to 7997
  154.8301  140.0433  157.1491 H   0  0  0  0  0  0  0  0  0  0  0  0  # atno 8009 bound_to 7997
  154.9218  140.3004  155.5216 H   0  0  0  0  0  0  0  0  0  0  0  0  # atno 8010 bound_to 7997
  140.4537  143.2475  151.8451 H   0  0  0  0  0  0  0  0  0  0  0  0  # atno 10167 bound_to 10162
  155.9988  130.4911  150.5329 H   0  0  0  0  0  0  0  0  0  0  0  0  # atno 10718 bound_to 10713
  154.7124  135.3009  154.9176 H   0  0  0  0  0  0  0  0  0  0  0  0  # atno 10763 bound_to 10752
  154.0073  135.6699  153.4767 H   0  0  0  0  0  0  0  0  0  0  0  0  # atno 10764 bound_to 10752
  153.0766  135.5031  154.8331 H   0  0  0  0  0  0  0  0  0  0  0  0  # atno 10765 bound_to 10752
  140.9927  133.6996  156.1879 H   0  0  0  0  0  0  0  0  0  0  0  0  # atno 11005 bound_to 11000
  146.1706  139.4855  142.9930 LP  0  0  0  0  0  0  0  0  0  0  0  0  # atno 17320 bound_to 7965
  145.6567  141.0250  143.1731 LP  0  0  0  0  0  0  0  0  0  0  0  0  # atno 17321 bound_to 7965
  139.4799  144.5090  151.8958 LP  0  0  0  0  0  0  0  0  0  0  0  0  # atno 17342 bound_to 10162
  140.4177  144.2285  150.5887 LP  0  0  0  0  0  0  0  0  0  0  0  0  # atno 17343 bound_to 10162
  157.3276  131.0693  151.1885 LP  0  0  0  0  0  0  0  0  0  0  0  0  # atno 17370 bound_to 10713
  157.2777  130.6735  149.6050 LP  0  0  0  0  0  0  0  0  0  0  0  0  # atno 17371 bound_to 10713
  140.7014  134.4559  157.5586 LP  0  0  0  0  0  0  0  0  0  0  0  0  # atno 17394 bound_to 11000
  139.9000  134.8579  156.1938 LP  0  0  0  0  0  0  0  0  0  0  0  0  # atno 17395 bound_to 11000

$$$$
