AV-unprocessed.smi:747|AV-procd|sdf|3581|dock2
  -GOLD-   22720 0573D 1   1.00000     0.00000
 Structure written by MMmdl.
 48 49  0  0  0  0  0  0  0  0  1 V2000
  155.9475  135.6353  162.9284 C   0  0  0  0  0  0  0  0  0  0  0  0
  155.5019  136.9046  162.3930 N   0  0  0  0  0  0  0  0  0  0  0  0
  155.8428  138.1005  163.0705 C   0  0  0  0  0  0  0  0  0  0  0  0
  156.5039  138.1117  164.1092 O   0  0  0  0  0  0  0  0  0  0  0  0
  155.3460  139.3155  162.4351 C   0  0  0  0  0  0  0  0  0  0  0  0
  154.6253  139.2583  161.2937 C   0  0  0  0  0  0  0  0  0  0  0  0
  154.3072  138.0753  160.6520 N   0  0  0  0  0  0  0  0  0  0  0  0
  153.5374  138.1056  159.4027 C   0  0  0  0  0  0  0  0  0  0  0  0
  153.5193  139.5037  158.7754 C   0  0  0  0  0  0  0  0  0  0  0  0
  154.5752  140.0991  158.5591 O   0  0  0  0  0  0  0  0  0  0  0  0
  152.3080  140.0109  158.4969 N   0  0  0  0  0  0  0  0  0  0  0  0
  152.0377  141.2881  157.8278 C   0  0  1  0  0  0  0  0  0  0  0  0
  150.9515  141.0737  156.7387 C   0  0  0  0  0  0  0  0  0  0  0  0
  151.1840  139.8475  155.8439 C   0  0  0  0  0  0  0  0  0  0  0  0
  151.2309  138.6556  156.4437 N   0  0  0  0  0  0  0  0  0  0  0  0
  151.3170  139.9732  154.6283 O   0  0  0  0  0  0  0  0  0  0  0  0
  151.6529  142.3657  158.8821 C   0  0  0  0  0  0  0  0  0  0  0  0
  151.4471  143.7658  158.2527 C   0  0  0  0  0  0  0  0  0  0  0  0
  151.0841  144.8321  159.2989 C   0  0  0  0  0  0  0  0  0  0  0  0
  152.1376  144.9076  160.4106 C   0  0  0  0  0  0  0  0  0  0  0  0
  152.3316  143.5345  161.0649 C   0  0  0  0  0  0  0  0  0  0  0  0
  152.6992  142.4670  160.0221 C   0  0  0  0  0  0  0  0  0  0  0  0
  154.7475  136.8515  161.2009 C   0  0  0  0  0  0  0  0  0  0  0  0
  154.4788  135.7800  160.6507 O   0  0  0  0  0  0  0  0  0  0  0  0
  156.5042  135.7673  163.8554 H   0  0  0  0  0  0  0  0  0  0  0  0
  156.5875  135.1746  162.1736 H   0  0  0  0  0  0  0  0  0  0  0  0
  155.0570  135.0329  163.1170 H   0  0  0  0  0  0  0  0  0  0  0  0
  155.5607  140.2745  162.8836 H   0  0  0  0  0  0  0  0  0  0  0  0
  154.2851  140.1875  160.8600 H   0  0  0  0  0  0  0  0  0  0  0  0
  153.9400  137.3755  158.6977 H   0  0  0  0  0  0  0  0  0  0  0  0
  152.5063  137.8011  159.5871 H   0  0  0  0  0  0  0  0  0  0  0  0
  151.5032  139.4461  158.7268 H   0  0  0  0  0  0  0  0  0  0  0  0
  152.9422  141.6383  157.3266 H   0  0  0  0  0  0  0  0  0  0  0  0
  149.9696  141.0019  157.2091 H   0  0  0  0  0  0  0  0  0  0  0  0
  150.9092  141.9301  156.0675 H   0  0  0  0  0  0  0  0  0  0  0  0
  151.3731  137.8187  155.8975 H   0  0  0  0  0  0  0  0  0  0  0  0
  151.1148  138.5961  157.4452 H   0  0  0  0  0  0  0  0  0  0  0  0
  150.7057  142.0649  159.3331 H   0  0  0  0  0  0  0  0  0  0  0  0
  152.3524  144.0678  157.7244 H   0  0  0  0  0  0  0  0  0  0  0  0
  150.6493  143.7439  157.5119 H   0  0  0  0  0  0  0  0  0  0  0  0
  150.9842  145.8052  158.8172 H   0  0  0  0  0  0  0  0  0  0  0  0
  150.1103  144.6010  159.7325 H   0  0  0  0  0  0  0  0  0  0  0  0
  153.0849  145.2558  159.9969 H   0  0  0  0  0  0  0  0  0  0  0  0
  151.8371  145.6397  161.1604 H   0  0  0  0  0  0  0  0  0  0  0  0
  153.1106  143.5931  161.8256 H   0  0  0  0  0  0  0  0  0  0  0  0
  151.4163  143.2416  161.5811 H   0  0  0  0  0  0  0  0  0  0  0  0
  152.8049  141.5130  160.5384 H   0  0  0  0  0  0  0  0  0  0  0  0
  153.6786  142.6954  159.5993 H   0  0  0  0  0  0  0  0  0  0  0  0
  1  2  1  0  0  0  0
  1 25  1  0  0  0  0
  1 26  1  0  0  0  0
  1 27  1  0  0  0  0
  2 23  1  0  0  0  0
  2  3  1  0  0  0  0
  3  4  2  0  0  0  0
  3  5  1  0  0  0  0
  5  6  2  0  0  0  0
  5 28  1  0  0  0  0
  6  7  1  0  0  0  0
  6 29  1  0  0  0  0
  7  8  1  0  0  0  0
  7 23  1  0  0  0  0
  8  9  1  0  0  0  0
  8 30  1  0  0  0  0
  8 31  1  0  0  0  0
  9 10  2  0  0  0  0
  9 11  1  0  0  0  0
 11 12  1  0  0  0  0
 11 32  1  0  0  0  0
 12 13  1  0  0  0  0
 12 17  1  0  0  0  0
 12 33  1  0  0  0  0
 13 14  1  0  0  0  0
 13 34  1  0  0  0  0
 13 35  1  0  0  0  0
 14 15  1  0  0  0  0
 14 16  2  0  0  0  0
 15 36  1  0  0  0  0
 15 37  1  0  0  0  0
 17 22  1  0  0  0  0
 17 18  1  0  0  0  0
 17 38  1  0  0  0  0
 18 19  1  0  0  0  0
 18 39  1  0  0  0  0
 18 40  1  0  0  0  0
 19 20  1  0  0  0  0
 19 41  1  0  0  0  0
 19 42  1  0  0  0  0
 20 21  1  0  0  0  0
 20 43  1  0  0  0  0
 20 44  1  0  0  0  0
 21 22  1  0  0  0  0
 21 45  1  0  0  0  0
 21 46  1  0  0  0  0
 22 47  1  0  0  0  0
 22 48  1  0  0  0  0
 23 24  2  0  0  0  0
M  END
> <s_m_source_file>
AV-unprocessed.smi

> <i_m_source_file_index>
747

> <i_lp_mmshare_version>
43012

> <i_f3d_flags>
0

> <s_epik_input>
W0NIM11uMWMoPU8pW2NIXVtjSF1uKGMxPU8pW0NIMl1DKD1PKVtOSF1bQ0BIXShbQ0gyXUMoPU8pW05IMl0pW0NIXTJbQ0gyXVtDSDJdW0NIMl1bQ0gyXVtDSDJdMg==

> <s_epik_cmdline>
J2VwaWtfcHl0aG9uJywgJy1waCcsICc3LjAnLCAnLXRuJywgJzgnLCAnLW1hJywgJzIwMCcsICctbWV0YWxfYmluZGluZycsICctaW1hZScsICc8aW5maWxlLm1hZT4nLCAnLW9tYWUnLCAnPG91dGZpbGUubWFlPic=

> <r_lp_tautomer_probability>
1

> <r_epik_Ionization_Penalty>
6.11221e-08

> <r_epik_Ionization_Penalty_Charging>
1.14855e-08

> <r_epik_Ionization_Penalty_Neutral>
4.96365e-08

> <r_epik_State_Penalty>
-0

> <r_epik_Charging_Adjusted_Penalty>
1.14855e-08

> <i_epik_Tot_Q>
0

> <i_epik_Tot_abs_Q>
0

> <r_epik_Metal_State_Penalty>
-0

> <b_epik_Metal_Only>
0

> <s_lp_Force_Field>
OPLS_2005

> <r_lp_Energy>
16.3445

> <b_lp_Chiralities_Consistent>
1

> <s_lp_Variant>
AV-unprocessed.smi:747-2

> <Gold.Version>
5.8.1

> <Gold.Id.Protein>
6NUR|6NUR_protein|mol2

> <Gold.PLP.Fitness>
50.9993

> <Gold.PLP.PLP>
-43.0155

> <Gold.PLP.part.hbond>
-2.9462

> <Gold.PLP.part.metal>
0.0000

> <Gold.PLP.part.buried>
-5.0232

> <Gold.PLP.part.nonpolar>
-35.4188

> <Gold.PLP.part.repulsive>
0.2673

> <Gold.PLP.ligand.clash>
0.0000

> <Gold.PLP.ligand.torsion>
0.5742

> <Gold.PLP.Chemscore.Hbond>
3.0000

> <Gold.PLP.Chemscore.CHOScore>
0.0000

> <Gold.PLP.Chemscore.Metal>
0.0000

> <Gold.Chemscore.Hbonds>
donor molecule, donor type, donor heavy atom, donor atom, acceptor molecule, acceptor atom, score
      P1  H  6896  6909       L1    24  0.08
      P1  H  7989  7998       L1    16  0.86
      P1  H  7997  8008       L1    10  0.48

> <Gold.PLP.Chemscore.Internal.Correction>
0.1322

> <Gold.Rescore>
     Score         DG    S(hbond)    S(metal)    S(lipo)     H(rot)  DE(clash)    DE(int)     intcor
     16.13     -19.67       2.88        0.00     102.87       2.91       0.42       3.12       ----

> <Gold.Chemscore.Fitness>
16.1263

> <Gold.Chemscore.DG>
-19.6683

> <Gold.Chemscore.ZeroCoef>
-5.4800

> <Gold.Chemscore.Hbond>
2.8766

> <Gold.Chemscore.Metal>
0.0000

> <Gold.Chemscore.Lipo>
102.8707

> <Gold.Chemscore.Internal_Hbond>
0.0000

> <Gold.Chemscore.DEClash>
0.4205

> <Gold.Chemscore.DEInternal>
3.1216

> <Gold.Chemscore.Rot>
2.9122

> <Gold.Chemscore.Internal.Correction>
   9.000000E+99

> <Gold.Chemscore.Hbonds>
donor molecule, donor type, donor heavy atom, donor atom, acceptor molecule, acceptor atom, score
      P1  H  6896  6909       L1    24  0.11
      P1  H  7989  7998       L1    16  0.84
      P1  H  7997  8008       L1    10  0.35

> <Gold.Chemscore.Hbond.Weighted>
-9.6078

> <Gold.Chemscore.Metal.Weighted>
-0.0000

> <Gold.Chemscore.Lipo.Weighted>
-12.0359

> <Gold.Chemscore.Internal_Hbond.Weighted>
0.0000

> <Gold.Chemscore.DEClash.Weighted>
0.4205

> <Gold.Chemscore.DEInternal.Weighted>
3.1216

> <Gold.Chemscore.Rot.Weighted>
7.4553

> <Gold.Chemscore.Internal.Correction.Weighted>
   9.000000E+99

> <Gold.Protein.RotatedTorsions>
[ 6907 6896 6895 6894 ] final  173.86 input  -60.11 | X-H torsion
[ 7974 7965 7964 7962 ] final   89.43 input  175.53 | X-H torsion
[ 8008 7997 7996 7995 ] final -104.80 input   59.86 | X-H torsion
[ 10167 10162 10161 10158 ] final  163.04 input  -65.29 | X-H torsion
[ 10718 10713 10712 10709 ] final  -93.10 input   66.30 | X-H torsion
[ 10763 10752 10751 10750 ] final  110.46 input  -60.55 | X-H torsion
[ 11005 11000 10999 10996 ] final  -20.51 input  -57.11 | X-H torsion

> <Gold.Protein.ActiveResidues>
 VAL166  LYS551  ARG553  GLY616  TRP617  ASP618  TYR619  PRO620  LYS621  CYS622 
 ASP623  PHE694  ASN695  SER759  ASP760  ASP761  ALA762  ILE779  LEU786  VAL792 
 PHE793  MET794  SER795  GLU796  ALA797  LYS798  CYS799  TRP800  GLU811  SER814 

> <Gold.Protein.RotatedAtoms>
  151.7616  133.3334  159.3419 H   0  0  0  0  0  0  0  0  0  0  0  0  # atno 6907 bound_to 6896
  150.7496  134.6101  159.6091 H   0  0  0  0  0  0  0  0  0  0  0  0  # atno 6908 bound_to 6896
  152.3402  134.7147  160.0317 H   0  0  0  0  0  0  0  0  0  0  0  0  # atno 6909 bound_to 6896
  145.5324  139.2284  143.2611 H   0  0  0  0  0  0  0  0  0  0  0  0  # atno 7974 bound_to 7965
  154.8906  140.0416  157.1836 H   0  0  0  0  0  0  0  0  0  0  0  0  # atno 8008 bound_to 7997
  154.8545  140.2934  155.5557 H   0  0  0  0  0  0  0  0  0  0  0  0  # atno 8009 bound_to 7997
  156.2997  140.2458  156.3509 H   0  0  0  0  0  0  0  0  0  0  0  0  # atno 8010 bound_to 7997
  139.4868  144.4377  151.8991 H   0  0  0  0  0  0  0  0  0  0  0  0  # atno 10167 bound_to 10162
  156.0009  130.5013  150.5726 H   0  0  0  0  0  0  0  0  0  0  0  0  # atno 10718 bound_to 10713
  153.4492  135.3748  155.2274 H   0  0  0  0  0  0  0  0  0  0  0  0  # atno 10763 bound_to 10752
  154.8756  135.3881  154.4059 H   0  0  0  0  0  0  0  0  0  0  0  0  # atno 10764 bound_to 10752
  153.4615  135.7086  153.6111 H   0  0  0  0  0  0  0  0  0  0  0  0  # atno 10765 bound_to 10752
  140.8471  133.7883  155.9925 H   0  0  0  0  0  0  0  0  0  0  0  0  # atno 11005 bound_to 11000
  146.2035  140.6141  142.9091 LP  0  0  0  0  0  0  0  0  0  0  0  0  # atno 17320 bound_to 7965
  144.7619  140.5441  143.6730 LP  0  0  0  0  0  0  0  0  0  0  0  0  # atno 17321 bound_to 7965
  140.3828  144.2715  150.5907 LP  0  0  0  0  0  0  0  0  0  0  0  0  # atno 17342 bound_to 10162
  140.5218  143.2264  151.8377 LP  0  0  0  0  0  0  0  0  0  0  0  0  # atno 17343 bound_to 10162
  157.3618  131.0751  151.1630 LP  0  0  0  0  0  0  0  0  0  0  0  0  # atno 17370 bound_to 10713
  157.2412  130.6570  149.5890 LP  0  0  0  0  0  0  0  0  0  0  0  0  # atno 17371 bound_to 10713
  140.8831  134.2587  157.5134 LP  0  0  0  0  0  0  0  0  0  0  0  0  # atno 17394 bound_to 11000
  139.8703  134.9625  156.4430 LP  0  0  0  0  0  0  0  0  0  0  0  0  # atno 17395 bound_to 11000

$$$$
