AV-unprocessed.smi:1701|AV-procd|sdf|6827|dock1
  -GOLD-   22720 8 03D 1   1.00000     0.00000
 Structure written by MMmdl.
 55 57  0  0  0  0  0  0  0  0  3 V2000
  150.6785  143.3419  158.1438 C   0  0  0  0  0  0  0  0  0  0  0  0
  149.7805  142.2744  157.5020 C   0  0  0  0  0  0  0  0  0  0  0  0
  150.5328  141.2275  156.8107 N   0  0  0  0  0  0  0  0  0  0  0  0
  151.9147  140.9516  157.2105 C   0  0  0  0  0  0  0  0  0  0  0  0
  152.0748  140.7328  158.7230 C   0  0  0  0  0  0  0  0  0  0  0  0
  149.8779  140.3629  155.9004 C   0  0  0  0  0  0  0  0  0  0  0  0
  150.5544  139.4101  155.0977 C   0  0  0  0  0  0  0  0  0  0  0  0
  149.8254  138.5879  154.2146 C   0  0  0  0  0  0  0  0  0  0  0  0
  148.4226  138.7077  154.1380 C   0  0  0  0  0  0  0  0  0  0  0  0
  147.7361  137.8672  153.2206 N   0  0  0  0  0  0  0  0  0  0  0  0
  146.4222  137.5717  153.1666 C   0  0  0  0  0  0  0  0  0  0  0  0
  145.5778  137.9880  153.9556 O   0  0  0  0  0  0  0  0  0  0  0  0
  146.0876  136.7296  152.1721 N   0  0  0  0  0  0  0  0  0  0  0  0
  144.7602  136.2094  151.8341 C   0  0  2  0  0  0  0  0  0  0  0  0
  143.9568  135.7874  153.0580 C   0  0  0  0  0  0  0  0  0  0  0  0
  142.8769  134.8764  152.4667 C   0  0  0  0  0  0  0  0  0  0  0  0
  143.4431  134.2900  151.2273 N   0  3  2  0  0  0  0  0  0  0  0  0
  143.4443  132.8028  151.2087 C   0  0  0  0  0  0  0  0  0  0  0  0
  144.3658  132.2685  150.1021 C   0  0  0  0  0  0  0  0  0  0  0  0
  145.8279  132.6980  150.3277 C   0  0  0  0  0  0  0  0  0  0  0  0
  145.9437  133.9618  151.2012 C   0  0  0  0  0  0  0  0  0  0  0  0
  144.7623  134.9345  150.9658 C   0  0  2  0  0  0  0  0  0  0  0  0
  147.7909  139.6772  154.9518 C   0  0  0  0  0  0  0  0  0  0  0  0
  148.5293  140.4444  155.7821 N   0  3  0  0  0  0  0  0  0  0  0  0
  150.0771  144.0659  158.6936 H   0  0  0  0  0  0  0  0  0  0  0  0
  151.2423  143.8945  157.3933 H   0  0  0  0  0  0  0  0  0  0  0  0
  151.3894  142.9033  158.8442 H   0  0  0  0  0  0  0  0  0  0  0  0
  149.1189  141.8335  158.2475 H   0  0  0  0  0  0  0  0  0  0  0  0
  149.1157  142.7574  156.7853 H   0  0  0  0  0  0  0  0  0  0  0  0
  152.2957  140.0888  156.6632 H   0  0  0  0  0  0  0  0  0  0  0  0
  152.5438  141.7883  156.9059 H   0  0  0  0  0  0  0  0  0  0  0  0
  153.1158  140.5237  158.9704 H   0  0  0  0  0  0  0  0  0  0  0  0
  151.4798  139.8893  159.0733 H   0  0  0  0  0  0  0  0  0  0  0  0
  151.7753  141.6110  159.2932 H   0  0  0  0  0  0  0  0  0  0  0  0
  151.6271  139.2972  155.1326 H   0  0  0  0  0  0  0  0  0  0  0  0
  150.3470  137.8674  153.6014 H   0  0  0  0  0  0  0  0  0  0  0  0
  148.3209  137.3955  152.5471 H   0  0  0  0  0  0  0  0  0  0  0  0
  146.8490  136.3888  151.6023 H   0  0  0  0  0  0  0  0  0  0  0  0
  144.1885  136.9872  151.3232 H   0  0  0  0  0  0  0  0  0  0  0  0
  144.5839  135.2171  153.7452 H   0  0  0  0  0  0  0  0  0  0  0  0
  143.5404  136.6329  153.6066 H   0  0  0  0  0  0  0  0  0  0  0  0
  142.5439  134.1268  153.1858 H   0  0  0  0  0  0  0  0  0  0  0  0
  142.0039  135.4668  152.1869 H   0  0  0  0  0  0  0  0  0  0  0  0
  143.7781  132.4142  152.1725 H   0  0  0  0  0  0  0  0  0  0  0  0
  142.4235  132.4485  151.0625 H   0  0  0  0  0  0  0  0  0  0  0  0
  144.3014  131.1816  150.0426 H   0  0  0  0  0  0  0  0  0  0  0  0
  144.0189  132.6466  149.1394 H   0  0  0  0  0  0  0  0  0  0  0  0
  146.3873  131.8899  150.8004 H   0  0  0  0  0  0  0  0  0  0  0  0
  146.3017  132.8671  149.3600 H   0  0  0  0  0  0  0  0  0  0  0  0
  145.9684  133.6727  152.2529 H   0  0  0  0  0  0  0  0  0  0  0  0
  146.8999  134.4445  150.9982 H   0  0  0  0  0  0  0  0  0  0  0  0
  144.7856  135.2260  149.9146 H   0  0  0  0  0  0  0  0  0  0  0  0
  146.7317  139.8851  154.9690 H   0  0  0  0  0  0  0  0  0  0  0  0
  142.8373  134.5850  150.4745 H   0  0  0  0  0  0  0  0  0  0  0  0
  148.0395  141.1329  156.3539 H   0  0  0  0  0  0  0  0  0  0  0  0
  1  2  1  0  0  0  0
  1 25  1  0  0  0  0
  1 26  1  0  0  0  0
  1 27  1  0  0  0  0
  2  3  1  0  0  0  0
  2 28  1  0  0  0  0
  2 29  1  0  0  0  0
  3  4  1  0  0  0  0
  3  6  1  0  0  0  0
  4  5  1  0  0  0  0
  4 30  1  0  0  0  0
  4 31  1  0  0  0  0
  5 32  1  0  0  0  0
  5 33  1  0  0  0  0
  5 34  1  0  0  0  0
  6 24  1  0  0  0  0
  6  7  2  0  0  0  0
  7  8  1  0  0  0  0
  7 35  1  0  0  0  0
  8  9  2  0  0  0  0
  8 36  1  0  0  0  0
  9 10  1  0  0  0  0
  9 23  1  0  0  0  0
 10 11  1  0  0  0  0
 10 37  1  0  0  0  0
 11 12  2  0  0  0  0
 11 13  1  0  0  0  0
 13 14  1  0  0  0  0
 13 38  1  0  0  0  0
 14 22  1  0  0  0  0
 14 15  1  0  0  0  0
 14 39  1  0  0  0  0
 15 16  1  0  0  0  0
 15 40  1  0  0  0  0
 15 41  1  0  0  0  0
 16 17  1  0  0  0  0
 16 42  1  0  0  0  0
 16 43  1  0  0  0  0
 17 22  1  0  0  0  0
 17 18  1  0  0  0  0
 17 54  1  0  0  0  0
 18 19  1  0  0  0  0
 18 44  1  0  0  0  0
 18 45  1  0  0  0  0
 19 20  1  0  0  0  0
 19 46  1  0  0  0  0
 19 47  1  0  0  0  0
 20 21  1  0  0  0  0
 20 48  1  0  0  0  0
 20 49  1  0  0  0  0
 21 22  1  0  0  0  0
 21 50  1  0  0  0  0
 21 51  1  0  0  0  0
 22 52  1  0  0  0  0
 23 24  2  0  0  0  0
 23 53  1  0  0  0  0
 24 55  1  0  0  0  0
M  CHG  1  17   1
M  CHG  1  24   1
M  END
> <s_m_source_file>
AV-unprocessed.smi

> <i_m_source_file_index>
1701

> <i_lp_mmshare_version>
43012

> <i_f3d_flags>
0

> <s_epik_input>
W0NIM11bQ0gyXU4oW0NIMl1bQ0gzXSljMVtjSF1bY0hdYyhbY0hdbjEpW05IXUMoPU8pW05IXVtDQEhdKFtDSDJdW0NIMl0yKVtDQEBIXShOMjMpW0NIMl1bQ0gyXVtDSDJdW0NIMl0z

> <s_epik_cmdline>
J2VwaWtfcHl0aG9uJywgJy1waCcsICc3LjAnLCAnLXRuJywgJzgnLCAnLW1hJywgJzIwMCcsICctbWV0YWxfYmluZGluZycsICctaW1hZScsICc8aW5maWxlLm1hZT4nLCAnLW9tYWUnLCAnPG91dGZpbGUubWFlPic=

> <r_lp_tautomer_probability>
0.999994

> <r_epik_Ionization_Penalty>
0.302862

> <r_epik_Ionization_Penalty_Charging>
0.302842

> <r_epik_Ionization_Penalty_Neutral>
1.95166e-05

> <r_epik_State_Penalty>
0.019791

> <r_epik_Charging_Adjusted_Penalty>
0.322633

> <i_epik_Tot_Q>
2

> <i_epik_Tot_abs_Q>
2

> <r_epik_Metal_State_Penalty>
0.0536763

> <b_epik_Metal_Only>
0

> <s_lp_Force_Field>
OPLS_2005

> <r_lp_Energy>
67.6643

> <b_lp_Chiralities_Consistent>
1

> <s_lp_Variant>
AV-unprocessed.smi:1701-7

> <Gold.Version>
5.8.1

> <Gold.Id.Protein>
6NUR|6NUR_protein|mol2

> <Gold.PLP.Fitness>
48.8423

> <Gold.PLP.PLP>
-39.5465

> <Gold.PLP.part.hbond>
-2.7810

> <Gold.PLP.part.metal>
0.0000

> <Gold.PLP.part.buried>
-6.2342

> <Gold.PLP.part.nonpolar>
-31.3996

> <Gold.PLP.part.repulsive>
0.2144

> <Gold.PLP.ligand.clash>
0.0000

> <Gold.PLP.ligand.torsion>
0.6857

> <Gold.PLP.Chemscore.Hbond>
3.4696

> <Gold.PLP.Chemscore.CHOScore>
0.0000

> <Gold.PLP.Chemscore.Metal>
0.0000

> <Gold.Chemscore.Hbonds>
donor molecule, donor type, donor heavy atom, donor atom, acceptor molecule, acceptor atom, score
      L1  H    10    37       P1  7948  0.86
      L1  H    13    38       P1  7948  0.61
      L1  H    17    54       P1 10186  1.84

> <Gold.PLP.Chemscore.Internal.Correction>
0.2586

> <Gold.Rescore>
     Score         DG    S(hbond)    S(metal)    S(lipo)     H(rot)  DE(clash)    DE(int)     intcor
     17.35     -20.48       2.00        0.00      99.53       1.30       0.03       3.10       ----

> <Gold.Chemscore.Fitness>
17.3478

> <Gold.Chemscore.DG>
-20.4821

> <Gold.Chemscore.ZeroCoef>
-5.4800

> <Gold.Chemscore.Hbond>
2.0029

> <Gold.Chemscore.Metal>
0.0000

> <Gold.Chemscore.Lipo>
99.5344

> <Gold.Chemscore.Internal_Hbond>
0.0000

> <Gold.Chemscore.DEClash>
0.0309

> <Gold.Chemscore.DEInternal>
3.1034

> <Gold.Chemscore.Rot>
1.3020

> <Gold.Chemscore.Internal.Correction>
   9.000000E+99

> <Gold.Chemscore.Hbonds>
donor molecule, donor type, donor heavy atom, donor atom, acceptor molecule, acceptor atom, score
      L1  H    10    37       P1  7948  0.83
      L1  H    13    38       P1  7948  0.59
      L1  H    17    54       P1 10186  0.33

> <Gold.Chemscore.Hbond.Weighted>
-6.6896

> <Gold.Chemscore.Metal.Weighted>
-0.0000

> <Gold.Chemscore.Lipo.Weighted>
-11.6455

> <Gold.Chemscore.Internal_Hbond.Weighted>
0.0000

> <Gold.Chemscore.DEClash.Weighted>
0.0309

> <Gold.Chemscore.DEInternal.Weighted>
3.1034

> <Gold.Chemscore.Rot.Weighted>
3.3330

> <Gold.Chemscore.Internal.Correction.Weighted>
   9.000000E+99

> <Gold.Protein.RotatedTorsions>
[ 6907 6896 6895 6894 ] final  135.61 input  -60.11 | X-H torsion
[ 7974 7965 7964 7962 ] final  166.42 input  175.53 | X-H torsion
[ 8008 7997 7996 7995 ] final  -33.25 input   59.86 | X-H torsion
[ 10167 10162 10161 10158 ] final    0.26 input  -65.29 | X-H torsion
[ 10718 10713 10712 10709 ] final   23.32 input   66.30 | X-H torsion
[ 10763 10752 10751 10750 ] final -174.96 input  -60.55 | X-H torsion
[ 11005 11000 10999 10996 ] final  155.47 input  -57.11 | X-H torsion

> <Gold.Protein.ActiveResidues>
 VAL166  LYS551  ARG553  GLY616  TRP617  ASP618  TYR619  PRO620  LYS621  CYS622 
 ASP623  PHE694  ASN695  SER759  ASP760  ASP761  ALA762  ILE779  LEU786  VAL792 
 PHE793  MET794  SER795  GLU796  ALA797  LYS798  CYS799  TRP800  GLU811  SER814 

> <Gold.Protein.RotatedAtoms>
  152.2985  133.5632  159.5603 H   0  0  0  0  0  0  0  0  0  0  0  0  # atno 6907 bound_to 6896
  150.7267  134.0325  159.3747 H   0  0  0  0  0  0  0  0  0  0  0  0  # atno 6908 bound_to 6896
  151.8226  135.0647  160.0478 H   0  0  0  0  0  0  0  0  0  0  0  0  # atno 6909 bound_to 6896
  144.7463  139.8613  143.6381 H   0  0  0  0  0  0  0  0  0  0  0  0  # atno 7974 bound_to 7965
  154.4154  140.1715  156.1858 H   0  0  0  0  0  0  0  0  0  0  0  0  # atno 8008 bound_to 7997
  155.9644  140.3391  155.6496 H   0  0  0  0  0  0  0  0  0  0  0  0  # atno 8009 bound_to 7997
  155.6706  140.0711  157.2512 H   0  0  0  0  0  0  0  0  0  0  0  0  # atno 8010 bound_to 7997
  140.6736  143.6978  150.7976 H   0  0  0  0  0  0  0  0  0  0  0  0  # atno 10167 bound_to 10162
  157.1645  130.6732  149.6056 H   0  0  0  0  0  0  0  0  0  0  0  0  # atno 10718 bound_to 10713
  154.5900  135.2844  155.0645 H   0  0  0  0  0  0  0  0  0  0  0  0  # atno 10763 bound_to 10752
  154.1949  135.6434  153.5074 H   0  0  0  0  0  0  0  0  0  0  0  0  # atno 10764 bound_to 10752
  153.0118  135.5455  154.6583 H   0  0  0  0  0  0  0  0  0  0  0  0  # atno 10765 bound_to 10752
  140.1585  134.8626  157.2544 H   0  0  0  0  0  0  0  0  0  0  0  0  # atno 11005 bound_to 11000
  146.1346  139.4389  143.0147 LP  0  0  0  0  0  0  0  0  0  0  0  0  # atno 17320 bound_to 7965
  145.7110  141.0106  143.1453 LP  0  0  0  0  0  0  0  0  0  0  0  0  # atno 17321 bound_to 7965
  140.0668  143.5101  152.2600 LP  0  0  0  0  0  0  0  0  0  0  0  0  # atno 17342 bound_to 10162
  139.6017  144.7584  151.3156 LP  0  0  0  0  0  0  0  0  0  0  0  0  # atno 17343 bound_to 10162
  155.9748  130.4700  150.6415 LP  0  0  0  0  0  0  0  0  0  0  0  0  # atno 17370 bound_to 10713
  157.4101  131.0822  151.1228 LP  0  0  0  0  0  0  0  0  0  0  0  0  # atno 17371 bound_to 10713
  140.2518  134.3673  155.7439 LP  0  0  0  0  0  0  0  0  0  0  0  0  # atno 17394 bound_to 11000
  141.2207  133.7321  156.8947 LP  0  0  0  0  0  0  0  0  0  0  0  0  # atno 17395 bound_to 11000

$$$$
