AV-unprocessed.smi:1572|AV-procd|sdf|6331|dock1
  -GOLD-   22720 6543D 1   1.00000     0.00000
 Structure written by MMmdl.
 42 43  0  0  0  0  0  0  0  0  3 V2000
  152.3618  144.0109  158.2950 C   0  0  0  0  0  0  0  0  0  0  0  0
  151.3702  143.3357  159.1253 N   0  0  0  0  0  0  0  0  0  0  0  0
  150.1484  142.9919  158.3984 C   0  0  0  0  0  0  0  0  0  0  0  0
  150.3664  141.8382  157.3968 C   0  0  0  0  0  0  0  0  0  0  0  0
  150.8860  140.6263  158.0932 N   0  3  0  0  0  0  0  0  0  0  0  0
  150.9346  139.3646  157.2701 C   0  0  0  0  0  0  0  0  0  0  0  0
  149.7101  139.3082  156.3222 C   0  0  0  0  0  0  0  0  0  0  0  0
  152.1829  139.3962  156.3521 C   0  0  0  0  0  0  0  0  0  0  0  0
  150.9525  138.0979  158.1781 C   0  0  0  0  0  0  0  0  0  0  0  0
  149.8456  138.0542  159.1325 N   0  0  0  0  0  0  0  0  0  0  0  0
  149.0796  136.9911  159.4166 C   0  0  0  0  0  0  0  0  0  0  0  0
  149.2832  135.9144  158.8511 O   0  0  0  0  0  0  0  0  0  0  0  0
  148.1185  137.2465  160.3319 N   0  5  0  0  0  0  0  0  0  0  0  0
  147.5651  136.2362  161.0228 C   0  0  0  0  0  0  0  0  0  0  0  0
  147.1353  135.1111  160.4296 N   0  0  0  0  0  0  0  0  0  0  0  0
  146.5972  134.1945  161.3226 N   0  0  0  0  0  0  0  0  0  0  0  0
  146.6455  134.6499  162.5743 C   0  0  0  0  0  0  0  0  0  0  0  0
  147.3521  136.2391  162.7757 S   0  0  0  0  0  0  0  0  0  0  0  0
  152.1401  140.9808  158.8171 C   0  0  0  0  0  0  0  0  0  0  0  0
  151.8935  142.1468  159.7968 C   0  0  0  0  0  0  0  0  0  0  0  0
  151.9395  144.9224  157.8710 H   0  0  0  0  0  0  0  0  0  0  0  0
  152.7156  143.3902  157.4727 H   0  0  0  0  0  0  0  0  0  0  0  0
  153.2251  144.2967  158.8968 H   0  0  0  0  0  0  0  0  0  0  0  0
  149.3835  142.7060  159.1216 H   0  0  0  0  0  0  0  0  0  0  0  0
  149.7694  143.8756  157.8833 H   0  0  0  0  0  0  0  0  0  0  0  0
  149.4062  141.6402  156.9254 H   0  0  0  0  0  0  0  0  0  0  0  0
  151.0439  142.1476  156.6016 H   0  0  0  0  0  0  0  0  0  0  0  0
  149.8144  138.5198  155.5758 H   0  0  0  0  0  0  0  0  0  0  0  0
  149.5823  140.2456  155.7797 H   0  0  0  0  0  0  0  0  0  0  0  0
  148.7824  139.0961  156.8532 H   0  0  0  0  0  0  0  0  0  0  0  0
  152.1464  138.6159  155.5912 H   0  0  0  0  0  0  0  0  0  0  0  0
  153.1084  139.2339  156.9041 H   0  0  0  0  0  0  0  0  0  0  0  0
  152.2663  140.3476  155.8257 H   0  0  0  0  0  0  0  0  0  0  0  0
  150.9612  137.1850  157.5827 H   0  0  0  0  0  0  0  0  0  0  0  0
  151.8645  138.0701  158.7732 H   0  0  0  0  0  0  0  0  0  0  0  0
  149.6368  138.9107  159.6243 H   0  0  0  0  0  0  0  0  0  0  0  0
  146.2635  134.0464  163.3839 H   0  0  0  0  0  0  0  0  0  0  0  0
  152.5039  140.1424  159.4070 H   0  0  0  0  0  0  0  0  0  0  0  0
  152.9338  141.2343  158.1147 H   0  0  0  0  0  0  0  0  0  0  0  0
  152.8134  142.4007  160.3248 H   0  0  0  0  0  0  0  0  0  0  0  0
  151.1775  141.8353  160.5587 H   0  0  0  0  0  0  0  0  0  0  0  0
  150.2106  140.4306  158.8178 H   0  0  0  0  0  0  0  0  0  0  0  0
  1  2  1  0  0  0  0
  1 21  1  0  0  0  0
  1 22  1  0  0  0  0
  1 23  1  0  0  0  0
  2 20  1  0  0  0  0
  2  3  1  0  0  0  0
  3  4  1  0  0  0  0
  3 24  1  0  0  0  0
  3 25  1  0  0  0  0
  4  5  1  0  0  0  0
  4 26  1  0  0  0  0
  4 27  1  0  0  0  0
  5  6  1  0  0  0  0
  5 19  1  0  0  0  0
  5 42  1  0  0  0  0
  6  7  1  0  0  0  0
  6  8  1  0  0  0  0
  6  9  1  0  0  0  0
  7 28  1  0  0  0  0
  7 29  1  0  0  0  0
  7 30  1  0  0  0  0
  8 31  1  0  0  0  0
  8 32  1  0  0  0  0
  8 33  1  0  0  0  0
  9 10  1  0  0  0  0
  9 34  1  0  0  0  0
  9 35  1  0  0  0  0
 10 11  1  0  0  0  0
 10 36  1  0  0  0  0
 11 12  2  0  0  0  0
 11 13  1  0  0  0  0
 13 14  1  0  0  0  0
 14 18  1  0  0  0  0
 14 15  2  0  0  0  0
 15 16  1  0  0  0  0
 16 17  2  0  0  0  0
 17 18  1  0  0  0  0
 17 37  1  0  0  0  0
 19 20  1  0  0  0  0
 19 38  1  0  0  0  0
 19 39  1  0  0  0  0
 20 40  1  0  0  0  0
 20 41  1  0  0  0  0
M  CHG  1   5   1
M  CHG  1  13  -1
M  END
> <s_m_source_file>
AV-unprocessed.smi

> <i_m_source_file_index>
1572

> <i_lp_mmshare_version>
43012

> <i_f3d_flags>
0

> <s_epik_input>
W0NIM11OMVtDSDJdW0NIMl1OKFtDSDJdW0NIMl0xKUMoW0NIM10pKFtDSDNdKVtDSDJdW05IXUMoPU8pW05IXWMybm5bY0hdczI=

> <s_epik_cmdline>
J2VwaWtfcHl0aG9uJywgJy1waCcsICc3LjAnLCAnLXRuJywgJzgnLCAnLW1hJywgJzIwMCcsICctbWV0YWxfYmluZGluZycsICctaW1hZScsICc8aW5maWxlLm1hZT4nLCAnLW9tYWUnLCAnPG91dGZpbGUubWFlPic=

> <r_epik_Ionization_Penalty>
3.12043

> <r_epik_Ionization_Penalty_Charging>
3.08547

> <r_epik_Ionization_Penalty_Neutral>
0.0349584

> <r_epik_State_Penalty>
4.04075

> <r_epik_Charging_Adjusted_Penalty>
7.12622

> <i_epik_Tot_Q>
0

> <i_epik_Tot_abs_Q>
2

> <r_epik_Metal_State_Penalty>
1.47091

> <b_epik_Metal_Only>
1

> <s_lp_Force_Field>
OPLS_2005

> <r_lp_Energy>
19.1563

> <b_lp_Chiralities_Consistent>
1

> <s_lp_Variant>
AV-unprocessed.smi:1572-5

> <Gold.Version>
5.8.1

> <Gold.Id.Protein>
6NUR|6NUR_protein|mol2

> <Gold.PLP.Fitness>
41.5228

> <Gold.PLP.PLP>
-32.8558

> <Gold.PLP.part.hbond>
-3.0000

> <Gold.PLP.part.metal>
0.0000

> <Gold.PLP.part.buried>
-5.4683

> <Gold.PLP.part.nonpolar>
-27.3173

> <Gold.PLP.part.repulsive>
0.8930

> <Gold.PLP.ligand.clash>
0.0000

> <Gold.PLP.ligand.torsion>
1.0604

> <Gold.PLP.Chemscore.Hbond>
3.5335

> <Gold.PLP.Chemscore.CHOScore>
0.0000

> <Gold.PLP.Chemscore.Metal>
0.0000

> <Gold.Chemscore.Hbonds>
donor molecule, donor type, donor heavy atom, donor atom, acceptor molecule, acceptor atom, score
      P1  H  6896  6908       L1    12  0.96
      P1  H  6931  6943       L1    13  1.22
      P1  H  6934  6947       L1    13  1.19

> <Gold.PLP.Chemscore.Internal.Correction>
0.1872

> <Gold.Rescore>
     Score         DG    S(hbond)    S(metal)    S(lipo)     H(rot)  DE(clash)    DE(int)     intcor
     13.58     -16.04       1.71        0.00      77.91       1.67       0.34       2.11       ----

> <Gold.Chemscore.Fitness>
13.5842

> <Gold.Chemscore.DG>
-16.0350

> <Gold.Chemscore.ZeroCoef>
-5.4800

> <Gold.Chemscore.Hbond>
1.7104

> <Gold.Chemscore.Metal>
0.0000

> <Gold.Chemscore.Lipo>
77.9137

> <Gold.Chemscore.Internal_Hbond>
0.0000

> <Gold.Chemscore.DEClash>
0.3393

> <Gold.Chemscore.DEInternal>
2.1114

> <Gold.Chemscore.Rot>
1.6694

> <Gold.Chemscore.Internal.Correction>
   9.000000E+99

> <Gold.Chemscore.Hbonds>
donor molecule, donor type, donor heavy atom, donor atom, acceptor molecule, acceptor atom, score
      P1  H  6896  6908       L1    12  0.90
      P1  H  6931  6943       L1    13  0.08
      P1  H  6934  6947       L1    13  0.40

> <Gold.Chemscore.Hbond.Weighted>
-5.7129

> <Gold.Chemscore.Metal.Weighted>
-0.0000

> <Gold.Chemscore.Lipo.Weighted>
-9.1159

> <Gold.Chemscore.Internal_Hbond.Weighted>
0.0000

> <Gold.Chemscore.DEClash.Weighted>
0.3393

> <Gold.Chemscore.DEInternal.Weighted>
2.1114

> <Gold.Chemscore.Rot.Weighted>
4.2738

> <Gold.Chemscore.Internal.Correction.Weighted>
   9.000000E+99

> <Gold.Protein.RotatedTorsions>
[ 6907 6896 6895 6894 ] final  169.93 input  -60.11 | X-H torsion
[ 7974 7965 7964 7962 ] final   18.03 input  175.53 | X-H torsion
[ 8008 7997 7996 7995 ] final   93.13 input   59.86 | X-H torsion
[ 10167 10162 10161 10158 ] final  106.69 input  -65.29 | X-H torsion
[ 10718 10713 10712 10709 ] final -176.61 input   66.30 | X-H torsion
[ 10763 10752 10751 10750 ] final  173.32 input  -60.55 | X-H torsion
[ 11005 11000 10999 10996 ] final -163.96 input  -57.11 | X-H torsion

> <Gold.Protein.ActiveResidues>
 VAL166  LYS551  ARG553  GLY616  TRP617  ASP618  TYR619  PRO620  LYS621  CYS622 
 ASP623  PHE694  ASN695  SER759  ASP760  ASP761  ALA762  ILE779  LEU786  VAL792 
 PHE793  MET794  SER795  GLU796  ALA797  LYS798  CYS799  TRP800  GLU811  SER814 

> <Gold.Protein.RotatedAtoms>
  151.8241  133.3399  159.3593 H   0  0  0  0  0  0  0  0  0  0  0  0  # atno 6907 bound_to 6896
  150.7285  134.5545  159.5820 H   0  0  0  0  0  0  0  0  0  0  0  0  # atno 6908 bound_to 6896
  152.2984  134.7641  160.0414 H   0  0  0  0  0  0  0  0  0  0  0  0  # atno 6909 bound_to 6896
  146.2199  139.8517  142.8621 H   0  0  0  0  0  0  0  0  0  0  0  0  # atno 7974 bound_to 7965
  156.0432  140.3317  155.7268 H   0  0  0  0  0  0  0  0  0  0  0  0  # atno 8008 bound_to 7997
  155.5712  140.0628  157.2823 H   0  0  0  0  0  0  0  0  0  0  0  0  # atno 8009 bound_to 7997
  154.4402  140.1860  156.0870 H   0  0  0  0  0  0  0  0  0  0  0  0  # atno 8010 bound_to 7997
  139.6988  144.7097  151.1220 H   0  0  0  0  0  0  0  0  0  0  0  0  # atno 10167 bound_to 10162
  156.8172  130.9607  151.3113 H   0  0  0  0  0  0  0  0  0  0  0  0  # atno 10718 bound_to 10713
  154.4384  135.2761  155.1864 H   0  0  0  0  0  0  0  0  0  0  0  0  # atno 10763 bound_to 10752
  154.3741  135.6102  153.5759 H   0  0  0  0  0  0  0  0  0  0  0  0  # atno 10764 bound_to 10752
  152.9839  135.5864  154.4708 H   0  0  0  0  0  0  0  0  0  0  0  0  # atno 10765 bound_to 10752
  140.5922  134.5032  157.5194 H   0  0  0  0  0  0  0  0  0  0  0  0  # atno 11005 bound_to 11000
  145.2795  141.0134  143.3726 LP  0  0  0  0  0  0  0  0  0  0  0  0  # atno 17320 bound_to 7965
  144.9161  139.4469  143.6563 LP  0  0  0  0  0  0  0  0  0  0  0  0  # atno 17321 bound_to 7965
  140.7704  143.5453  150.9266 LP  0  0  0  0  0  0  0  0  0  0  0  0  # atno 17342 bound_to 10162
  139.9134  143.6693  152.3111 LP  0  0  0  0  0  0  0  0  0  0  0  0  # atno 17343 bound_to 10162
  157.6475  130.8857  149.9568 LP  0  0  0  0  0  0  0  0  0  0  0  0  # atno 17370 bound_to 10713
  156.1010  130.3656  150.0219 LP  0  0  0  0  0  0  0  0  0  0  0  0  # atno 17371 bound_to 10713
  139.9269  134.8039  156.1043 LP  0  0  0  0  0  0  0  0  0  0  0  0  # atno 17394 bound_to 11000
  141.0927  133.6708  156.2576 LP  0  0  0  0  0  0  0  0  0  0  0  0  # atno 17395 bound_to 11000

$$$$
