AV-unprocessed.smi:2566|AV-procd|sdf|10073|dock6
  -GOLD-   2272014103D 1   1.00000     0.00000
 Structure written by MMmdl.
 21 22  0  0  0  0  0  0  0  0  2 V2000
  151.7869  138.1084  154.3336 C   0  0  0  0  0  0  0  0  0  0  0  0
  151.2247  139.2589  154.6909 N   0  0  0  0  0  0  0  0  0  0  0  0
  151.9621  139.5746  155.7934 C   0  0  0  0  0  0  0  0  0  0  0  0
  151.7685  140.8334  156.5807 C   0  0  1  0  0  0  0  0  0  0  0  0
  150.6456  141.7157  156.0026 C   0  0  0  0  0  0  0  0  0  0  0  0
  150.4319  142.8897  156.8712 N   0  3  0  0  0  0  0  0  0  0  0  0
  150.1651  142.4877  158.2667 C   0  0  0  0  0  0  0  0  0  0  0  0
  151.2880  141.5677  158.7792 C   0  0  0  0  0  0  0  0  0  0  0  0
  151.4293  140.4475  157.9113 O   0  0  0  0  0  0  0  0  0  0  0  0
  152.9356  138.7242  156.1003 N   0  0  0  0  0  0  0  0  0  0  0  0
  152.8148  137.7236  155.1249 O   0  0  0  0  0  0  0  0  0  0  0  0
  151.4768  137.5153  153.4859 H   0  0  0  0  0  0  0  0  0  0  0  0
  152.7108  141.3852  156.5969 H   0  0  0  0  0  0  0  0  0  0  0  0
  150.8964  142.0513  154.9959 H   0  0  0  0  0  0  0  0  0  0  0  0
  149.7148  141.1507  155.9326 H   0  0  0  0  0  0  0  0  0  0  0  0
  151.2639  143.4624  156.8525 H   0  0  0  0  0  0  0  0  0  0  0  0
  150.0824  143.3778  158.8907 H   0  0  0  0  0  0  0  0  0  0  0  0
  149.2054  141.9715  158.3132 H   0  0  0  0  0  0  0  0  0  0  0  0
  152.2332  142.1085  158.8484 H   0  0  0  0  0  0  0  0  0  0  0  0
  151.0521  141.2099  159.7816 H   0  0  0  0  0  0  0  0  0  0  0  0
  149.6531  143.4300  156.5215 H   0  0  0  0  0  0  0  0  0  0  0  0
  1 11  1  0  0  0  0
  1  2  2  0  0  0  0
  1 12  1  0  0  0  0
  2  3  1  0  0  0  0
  3  4  1  0  0  0  0
  3 10  2  0  0  0  0
  4  9  1  0  0  0  0
  4  5  1  0  0  0  0
  4 13  1  0  0  0  0
  5  6  1  0  0  0  0
  5 14  1  0  0  0  0
  5 15  1  0  0  0  0
  6  7  1  0  0  0  0
  6 16  1  0  0  0  0
  6 21  1  0  0  0  0
  7  8  1  0  0  0  0
  7 17  1  0  0  0  0
  7 18  1  0  0  0  0
  8  9  1  0  0  0  0
  8 19  1  0  0  0  0
  8 20  1  0  0  0  0
 10 11  1  0  0  0  0
M  CHG  1   6   1
M  END
> <s_m_source_file>
AV-unprocessed.smi

> <i_m_source_file_index>
2566

> <i_lp_mmshare_version>
43012

> <i_f3d_flags>
0

> <s_epik_input>
bjFvW2NIXW5jMVtDQEBIXTJbQ0gyXVtOSF1bQ0gyXVtDSDJdTzI=

> <s_epik_cmdline>
J2VwaWtfcHl0aG9uJywgJy1waCcsICc3LjAnLCAnLXRuJywgJzgnLCAnLW1hJywgJzIwMCcsICctbWV0YWxfYmluZGluZycsICctaW1hZScsICc8aW5maWxlLm1hZT4nLCAnLW9tYWUnLCAnPG91dGZpbGUubWFlPic=

> <r_lp_tautomer_probability>
1

> <r_epik_Ionization_Penalty>
0.157575

> <r_epik_Ionization_Penalty_Charging>
0.157575

> <r_epik_Ionization_Penalty_Neutral>
8.82756e-14

> <r_epik_State_Penalty>
0.146877

> <r_epik_Charging_Adjusted_Penalty>
0.304452

> <i_epik_Tot_Q>
1

> <i_epik_Tot_abs_Q>
1

> <r_epik_Metal_State_Penalty>
0.146877

> <b_epik_Metal_Only>
0

> <s_lp_Force_Field>
OPLS_2005

> <r_lp_Energy>
9.76896

> <b_lp_Chiralities_Consistent>
1

> <s_lp_Variant>
AV-unprocessed.smi:2566-2

> <Gold.Version>
5.8.1

> <Gold.Id.Protein>
6NUR|6NUR_protein|mol2

> <Gold.PLP.Fitness>
35.5294

> <Gold.PLP.PLP>
-19.8993

> <Gold.PLP.part.hbond>
-4.0000

> <Gold.PLP.part.metal>
0.0000

> <Gold.PLP.part.buried>
-5.3296

> <Gold.PLP.part.nonpolar>
-10.9364

> <Gold.PLP.part.repulsive>
0.1564

> <Gold.PLP.ligand.clash>
0.0000

> <Gold.PLP.ligand.torsion>
0.0130

> <Gold.PLP.Chemscore.Hbond>
4.2136

> <Gold.PLP.Chemscore.CHOScore>
1.0000

> <Gold.PLP.Chemscore.Metal>
0.0000

> <Gold.Chemscore.Hbonds>
donor molecule, donor type, donor heavy atom, donor atom, acceptor molecule, acceptor atom, score
      L1  H     6    21       P1  8028  2.00
      P1  H  7989  7998       L1     2  0.98
      P1  H  7997  8010       L1    10  0.85
      P1  H 10752 10765       L1    11  0.27
      L1  C     1    12       P1  7949  1.00

> <Gold.PLP.Chemscore.Internal.Correction>
0.0151

> <Gold.Rescore>
     Score         DG    S(hbond)    S(metal)    S(lipo)     H(rot)  DE(clash)    DE(int)     intcor
     12.39     -12.49       1.94        0.00      26.44       1.00       0.08       0.01       ----

> <Gold.Chemscore.Fitness>
12.3917

> <Gold.Chemscore.DG>
-12.4872

> <Gold.Chemscore.ZeroCoef>
-5.4800

> <Gold.Chemscore.Hbond>
1.9381

> <Gold.Chemscore.Metal>
0.0000

> <Gold.Chemscore.Lipo>
26.4450

> <Gold.Chemscore.Internal_Hbond>
0.0000

> <Gold.Chemscore.DEClash>
0.0811

> <Gold.Chemscore.DEInternal>
0.0144

> <Gold.Chemscore.Rot>
1.0000

> <Gold.Chemscore.Internal.Correction>
   9.000000E+99

> <Gold.Chemscore.Hbonds>
donor molecule, donor type, donor heavy atom, donor atom, acceptor molecule, acceptor atom, score
      L1  H     6    21       P1  8028  0.99
      P1  H  7989  7998       L1     2  0.25
      P1  H  7997  8010       L1    10  0.14
      P1  H 10752 10765       L1    11  0.07

> <Gold.Chemscore.Hbond.Weighted>
-6.4732

> <Gold.Chemscore.Metal.Weighted>
-0.0000

> <Gold.Chemscore.Lipo.Weighted>
-3.0941

> <Gold.Chemscore.Internal_Hbond.Weighted>
0.0000

> <Gold.Chemscore.DEClash.Weighted>
0.0811

> <Gold.Chemscore.DEInternal.Weighted>
0.0144

> <Gold.Chemscore.Rot.Weighted>
2.5600

> <Gold.Chemscore.Internal.Correction.Weighted>
   9.000000E+99

> <Gold.Protein.RotatedTorsions>
[ 6907 6896 6895 6894 ] final -140.10 input  -60.11 | X-H torsion
[ 7974 7965 7964 7962 ] final   83.96 input  175.53 | X-H torsion
[ 8008 7997 7996 7995 ] final   69.44 input   59.86 | X-H torsion
[ 10167 10162 10161 10158 ] final -110.99 input  -65.29 | X-H torsion
[ 10718 10713 10712 10709 ] final  104.26 input   66.30 | X-H torsion
[ 10763 10752 10751 10750 ] final  175.41 input  -60.55 | X-H torsion
[ 11005 11000 10999 10996 ] final   62.17 input  -57.11 | X-H torsion

> <Gold.Protein.ActiveResidues>
 VAL166  LYS551  ARG553  GLY616  TRP617  ASP618  TYR619  PRO620  LYS621  CYS622 
 ASP623  PHE694  ASN695  SER759  ASP760  ASP761  ALA762  ILE779  LEU786  VAL792 
 PHE793  MET794  SER795  GLU796  ALA797  LYS798  CYS799  TRP800  GLU811  SER814 

> <Gold.Protein.RotatedAtoms>
  151.0564  133.5581  159.2637 H   0  0  0  0  0  0  0  0  0  0  0  0  # atno 6907 bound_to 6896
  151.2573  135.0641  159.9094 H   0  0  0  0  0  0  0  0  0  0  0  0  # atno 6908 bound_to 6896
  152.5390  134.0315  159.8080 H   0  0  0  0  0  0  0  0  0  0  0  0  # atno 6909 bound_to 6896
  145.6051  139.2359  143.2224 H   0  0  0  0  0  0  0  0  0  0  0  0  # atno 7974 bound_to 7965
  155.7237  140.3493  155.5027 H   0  0  0  0  0  0  0  0  0  0  0  0  # atno 8008 bound_to 7997
  155.9246  140.1073  157.1201 H   0  0  0  0  0  0  0  0  0  0  0  0  # atno 8009 bound_to 7997
  154.4075  140.1243  156.4711 H   0  0  0  0  0  0  0  0  0  0  0  0  # atno 8010 bound_to 7997
  140.1384  143.4300  152.1579 H   0  0  0  0  0  0  0  0  0  0  0  0  # atno 10167 bound_to 10162
  157.6746  131.0799  150.5679 H   0  0  0  0  0  0  0  0  0  0  0  0  # atno 10718 bound_to 10713
  154.4672  135.2770  155.1669 H   0  0  0  0  0  0  0  0  0  0  0  0  # atno 10763 bound_to 10752
  154.3433  135.6165  153.5610 H   0  0  0  0  0  0  0  0  0  0  0  0  # atno 10764 bound_to 10752
  152.9860  135.5793  154.5046 H   0  0  0  0  0  0  0  0  0  0  0  0  # atno 10765 bound_to 10752
  140.0110  134.6296  155.9780 H   0  0  0  0  0  0  0  0  0  0  0  0  # atno 11005 bound_to 11000
  146.1547  140.6875  142.9305 LP  0  0  0  0  0  0  0  0  0  0  0  0  # atno 17320 bound_to 7965
  144.7293  140.4623  143.6949 LP  0  0  0  0  0  0  0  0  0  0  0  0  # atno 17321 bound_to 7965
  139.5484  144.7317  151.4511 LP  0  0  0  0  0  0  0  0  0  0  0  0  # atno 17342 bound_to 10162
  140.6775  143.8157  150.7077 LP  0  0  0  0  0  0  0  0  0  0  0  0  # atno 17343 bound_to 10162
  156.5981  130.4347  149.5908 LP  0  0  0  0  0  0  0  0  0  0  0  0  # atno 17370 bound_to 10713
  156.2528  130.6917  151.1661 LP  0  0  0  0  0  0  0  0  0  0  0  0  # atno 17371 bound_to 10713
  141.1711  133.6537  156.4655 LP  0  0  0  0  0  0  0  0  0  0  0  0  # atno 17394 bound_to 11000
  140.4554  134.6890  157.5060 LP  0  0  0  0  0  0  0  0  0  0  0  0  # atno 17395 bound_to 11000

$$$$
