AV-unprocessed.smi:3031|AV-procd|sdf|11541|dock7
  -GOLD-   2272016493D 1   1.00000     0.00000
 Structure written by MMmdl.
 47 48  0  0  0  0  0  0  0  0  2 V2000
  151.9208  141.6604  158.2870 C   0  0  0  0  0  0  0  0  0  0  0  0
  151.4641  141.0247  157.0057 C   0  0  0  0  0  0  0  0  0  0  0  0
  150.6180  141.5815  156.0046 C   0  0  0  0  0  0  0  0  0  0  0  0
  150.4062  140.7552  154.9933 N   0  0  0  0  0  0  0  0  0  0  0  0
  151.1072  139.6465  155.3114 N   0  0  0  0  0  0  0  0  0  0  0  0
  151.0955  138.5041  154.4164 C   0  0  0  0  0  0  0  0  0  0  0  0
  150.5673  137.2200  155.0900 C   0  0  2  0  0  0  0  0  0  0  0  0
  151.4973  136.7838  156.2300 C   0  0  0  0  0  0  0  0  0  0  0  0
  150.4383  136.1156  154.1120 N   0  3  0  0  0  0  0  0  0  0  0  0
  150.4068  134.7581  154.6987 C   0  0  0  0  0  0  0  0  0  0  0  0
  149.0929  134.0300  154.3600 C   0  0  2  0  0  0  0  0  0  0  0  0
  148.0499  134.7091  155.0323 O   0  0  0  0  0  0  0  0  0  0  0  0
  149.0106  132.5543  154.8147 C   0  0  0  0  0  0  0  0  0  0  0  0
  150.2893  131.8760  155.0463 N   0  0  0  0  0  0  0  0  0  0  0  0
  150.8124  132.1015  156.3946 C   0  0  0  0  0  0  0  0  0  0  0  0
  152.1455  131.3682  156.6255 C   0  0  0  0  0  0  0  0  0  0  0  0
  151.9692  129.9753  156.3931 O   0  0  0  0  0  0  0  0  0  0  0  0
  151.4903  129.6955  155.0824 C   0  0  0  0  0  0  0  0  0  0  0  0
  150.1597  130.4332  154.8520 C   0  0  0  0  0  0  0  0  0  0  0  0
  151.7567  139.7821  156.5196 C   0  0  0  0  0  0  0  0  0  0  0  0
  151.6367  142.7116  158.3428 H   0  0  0  0  0  0  0  0  0  0  0  0
  153.0049  141.6157  158.3940 H   0  0  0  0  0  0  0  0  0  0  0  0
  151.4899  141.1650  159.1572 H   0  0  0  0  0  0  0  0  0  0  0  0
  150.1527  142.5562  155.9842 H   0  0  0  0  0  0  0  0  0  0  0  0
  150.5017  138.7479  153.5334 H   0  0  0  0  0  0  0  0  0  0  0  0
  152.1168  138.3483  154.0667 H   0  0  0  0  0  0  0  0  0  0  0  0
  149.5904  137.4260  155.5311 H   0  0  0  0  0  0  0  0  0  0  0  0
  151.5875  137.5663  156.9842 H   0  0  0  0  0  0  0  0  0  0  0  0
  152.4997  136.5592  155.8633 H   0  0  0  0  0  0  0  0  0  0  0  0
  151.1166  135.8919  156.7287 H   0  0  0  0  0  0  0  0  0  0  0  0
  149.5925  136.2567  153.5771 H   0  0  0  0  0  0  0  0  0  0  0  0
  151.2561  134.2238  154.2795 H   0  0  0  0  0  0  0  0  0  0  0  0
  150.5468  134.8032  155.7788 H   0  0  0  0  0  0  0  0  0  0  0  0
  148.8979  134.0922  153.2887 H   0  0  0  0  0  0  0  0  0  0  0  0
  147.4791  135.0990  154.3873 H   0  0  0  0  0  0  0  0  0  0  0  0
  148.3625  132.4545  155.6869 H   0  0  0  0  0  0  0  0  0  0  0  0
  148.4893  132.0243  154.0155 H   0  0  0  0  0  0  0  0  0  0  0  0
  150.9647  133.1589  156.5870 H   0  0  0  0  0  0  0  0  0  0  0  0
  150.0867  131.7586  157.1339 H   0  0  0  0  0  0  0  0  0  0  0  0
  152.9220  131.7602  155.9669 H   0  0  0  0  0  0  0  0  0  0  0  0
  152.4882  131.5171  157.6498 H   0  0  0  0  0  0  0  0  0  0  0  0
  152.2334  129.9986  154.3433 H   0  0  0  0  0  0  0  0  0  0  0  0
  151.3516  128.6195  154.9752 H   0  0  0  0  0  0  0  0  0  0  0  0
  149.4028  130.0341  155.5294 H   0  0  0  0  0  0  0  0  0  0  0  0
  149.8128  130.2249  153.8392 H   0  0  0  0  0  0  0  0  0  0  0  0
  152.3645  138.9897  156.9312 H   0  0  0  0  0  0  0  0  0  0  0  0
  151.2259  136.1555  153.4814 H   0  0  0  0  0  0  0  0  0  0  0  0
  1  2  1  0  0  0  0
  1 21  1  0  0  0  0
  1 22  1  0  0  0  0
  1 23  1  0  0  0  0
  2 20  2  0  0  0  0
  2  3  1  0  0  0  0
  3  4  2  0  0  0  0
  3 24  1  0  0  0  0
  4  5  1  0  0  0  0
  5  6  1  0  0  0  0
  5 20  1  0  0  0  0
  6  7  1  0  0  0  0
  6 25  1  0  0  0  0
  6 26  1  0  0  0  0
  7  8  1  0  0  0  0
  7  9  1  0  0  0  0
  7 27  1  0  0  0  0
  8 28  1  0  0  0  0
  8 29  1  0  0  0  0
  8 30  1  0  0  0  0
  9 10  1  0  0  0  0
  9 31  1  0  0  0  0
  9 47  1  0  0  0  0
 10 11  1  0  0  0  0
 10 32  1  0  0  0  0
 10 33  1  0  0  0  0
 11 12  1  0  0  0  0
 11 13  1  0  0  0  0
 11 34  1  0  0  0  0
 12 35  1  0  0  0  0
 13 14  1  0  0  0  0
 13 36  1  0  0  0  0
 13 37  1  0  0  0  0
 14 19  1  0  0  0  0
 14 15  1  0  0  0  0
 15 16  1  0  0  0  0
 15 38  1  0  0  0  0
 15 39  1  0  0  0  0
 16 17  1  0  0  0  0
 16 40  1  0  0  0  0
 16 41  1  0  0  0  0
 17 18  1  0  0  0  0
 18 19  1  0  0  0  0
 18 42  1  0  0  0  0
 18 43  1  0  0  0  0
 19 44  1  0  0  0  0
 19 45  1  0  0  0  0
 20 46  1  0  0  0  0
M  CHG  1   9   1
M  END
> <s_m_source_file>
AV-unprocessed.smi

> <i_m_source_file_index>
3031

> <i_lp_mmshare_version>
43012

> <i_f3d_flags>
0

> <s_epik_input>
W0NIM11jMVtjSF1ubihbY0hdMSlbQ0gyXVtDQEhdKFtDSDNdKVtOSF1bQ0gyXVtDQEhdKFtPSF0pW0NIMl1OMltDSDJdW0NIMl1PW0NIMl1bQ0gyXTI=

> <s_epik_cmdline>
J2VwaWtfcHl0aG9uJywgJy1waCcsICc3LjAnLCAnLXRuJywgJzgnLCAnLW1hJywgJzIwMCcsICctbWV0YWxfYmluZGluZycsICctaW1hZScsICc8aW5maWxlLm1hZT4nLCAnLW9tYWUnLCAnPG91dGZpbGUubWFlPic=

> <r_lp_tautomer_probability>
1

> <r_epik_Ionization_Penalty>
0.108564

> <r_epik_Ionization_Penalty_Charging>
0.01811

> <r_epik_Ionization_Penalty_Neutral>
0.0904541

> <r_epik_State_Penalty>
0.141043

> <r_epik_Charging_Adjusted_Penalty>
0.159153

> <i_epik_Tot_Q>
1

> <i_epik_Tot_abs_Q>
1

> <r_epik_Metal_State_Penalty>
0.141052

> <b_epik_Metal_Only>
0

> <s_lp_Force_Field>
OPLS_2005

> <r_lp_Energy>
31.5788

> <b_lp_Chiralities_Consistent>
1

> <s_lp_Variant>
AV-unprocessed.smi:3031-1

> <Gold.Version>
5.8.1

> <Gold.Id.Protein>
6NUR|6NUR_protein|mol2

> <Gold.PLP.Fitness>
42.6524

> <Gold.PLP.PLP>
-33.6561

> <Gold.PLP.part.hbond>
-3.0000

> <Gold.PLP.part.metal>
0.0000

> <Gold.PLP.part.buried>
-2.3564

> <Gold.PLP.part.nonpolar>
-27.8639

> <Gold.PLP.part.repulsive>
0.1679

> <Gold.PLP.ligand.clash>
0.0000

> <Gold.PLP.ligand.torsion>
1.4647

> <Gold.PLP.Chemscore.Hbond>
2.9000

> <Gold.PLP.Chemscore.CHOScore>
1.0000

> <Gold.PLP.Chemscore.Metal>
0.0000

> <Gold.Chemscore.Hbonds>
donor molecule, donor type, donor heavy atom, donor atom, acceptor molecule, acceptor atom, score
      L1  H     9    31       P1  7948  1.60
      L1  H     9    47       P1  7949  1.06
      P1  H  7989  7998       L1     4  0.21
      L1  C     3    24       P1  8028  1.00

> <Gold.PLP.Chemscore.Internal.Correction>
0.2257

> <Gold.Rescore>
     Score         DG    S(hbond)    S(metal)    S(lipo)     H(rot)  DE(clash)    DE(int)     intcor
      9.11     -10.92       0.73        0.00      83.24       2.63       0.35       1.45       ----

> <Gold.Chemscore.Fitness>
9.1109

> <Gold.Chemscore.DG>
-10.9172

> <Gold.Chemscore.ZeroCoef>
-5.4800

> <Gold.Chemscore.Hbond>
0.7254

> <Gold.Chemscore.Metal>
0.0000

> <Gold.Chemscore.Lipo>
83.2432

> <Gold.Chemscore.Internal_Hbond>
0.0000

> <Gold.Chemscore.DEClash>
0.3526

> <Gold.Chemscore.DEInternal>
1.4537

> <Gold.Chemscore.Rot>
2.6270

> <Gold.Chemscore.Internal.Correction>
   9.000000E+99

> <Gold.Chemscore.Hbonds>
donor molecule, donor type, donor heavy atom, donor atom, acceptor molecule, acceptor atom, score
      L1  H     9    31       P1  7948  0.40
      L1  H     9    47       P1  7949  0.26

> <Gold.Chemscore.Hbond.Weighted>
-2.4229

> <Gold.Chemscore.Metal.Weighted>
-0.0000

> <Gold.Chemscore.Lipo.Weighted>
-9.7395

> <Gold.Chemscore.Internal_Hbond.Weighted>
0.0000

> <Gold.Chemscore.DEClash.Weighted>
0.3526

> <Gold.Chemscore.DEInternal.Weighted>
1.4537

> <Gold.Chemscore.Rot.Weighted>
6.7251

> <Gold.Chemscore.Internal.Correction.Weighted>
   9.000000E+99

> <Gold.Protein.RotatedTorsions>
[ 6907 6896 6895 6894 ] final -118.88 input  -60.11 | X-H torsion
[ 7974 7965 7964 7962 ] final   47.65 input  175.53 | X-H torsion
[ 8008 7997 7996 7995 ] final  -48.61 input   59.86 | X-H torsion
[ 10167 10162 10161 10158 ] final  135.70 input  -65.29 | X-H torsion
[ 10718 10713 10712 10709 ] final    0.96 input   66.30 | X-H torsion
[ 10763 10752 10751 10750 ] final  141.54 input  -60.55 | X-H torsion
[ 11005 11000 10999 10996 ] final  118.49 input  -57.11 | X-H torsion

> <Gold.Protein.ActiveResidues>
 VAL166  LYS551  ARG553  GLY616  TRP617  ASP618  TYR619  PRO620  LYS621  CYS622 
 ASP623  PHE694  ASN695  SER759  ASP760  ASP761  ALA762  ILE779  LEU786  VAL792 
 PHE793  MET794  SER795  GLU796  ALA797  LYS798  CYS799  TRP800  GLU811  SER814 

> <Gold.Protein.RotatedAtoms>
  150.8257  133.8176  159.3119 H   0  0  0  0  0  0  0  0  0  0  0  0  # atno 6907 bound_to 6896
  151.5920  135.1051  160.0050 H   0  0  0  0  0  0  0  0  0  0  0  0  # atno 6908 bound_to 6896
  152.4342  133.7291  159.6633 H   0  0  0  0  0  0  0  0  0  0  0  0  # atno 6909 bound_to 6896
  146.0278  139.4727  142.9857 H   0  0  0  0  0  0  0  0  0  0  0  0  # atno 7974 bound_to 7965
  154.4031  140.1317  156.4367 H   0  0  0  0  0  0  0  0  0  0  0  0  # atno 8008 bound_to 7997
  155.7499  140.3488  155.5125 H   0  0  0  0  0  0  0  0  0  0  0  0  # atno 8009 bound_to 7997
  155.8960  140.1011  157.1375 H   0  0  0  0  0  0  0  0  0  0  0  0  # atno 8010 bound_to 7997
  139.5207  144.6503  151.5321 H   0  0  0  0  0  0  0  0  0  0  0  0  # atno 10167 bound_to 10162
  156.8411  130.5521  149.5677 H   0  0  0  0  0  0  0  0  0  0  0  0  # atno 10718 bound_to 10713
  153.9409  135.2980  155.3442 H   0  0  0  0  0  0  0  0  0  0  0  0  # atno 10763 bound_to 10752
  154.7478  135.4995  153.9237 H   0  0  0  0  0  0  0  0  0  0  0  0  # atno 10764 bound_to 10752
  153.1043  135.6742  153.9722 H   0  0  0  0  0  0  0  0  0  0  0  0  # atno 10765 bound_to 10752
  139.9111  134.9620  156.7511 H   0  0  0  0  0  0  0  0  0  0  0  0  # atno 11005 bound_to 11000
  145.7089  141.0112  143.1464 LP  0  0  0  0  0  0  0  0  0  0  0  0  # atno 17320 bound_to 7965
  144.7017  139.8734  143.7442 LP  0  0  0  0  0  0  0  0  0  0  0  0  # atno 17321 bound_to 7965
  140.6305  143.9085  150.6601 LP  0  0  0  0  0  0  0  0  0  0  0  0  # atno 17342 bound_to 10162
  140.2388  143.3680  152.1504 LP  0  0  0  0  0  0  0  0  0  0  0  0  # atno 17343 bound_to 10162
  156.0880  130.5873  150.9682 LP  0  0  0  0  0  0  0  0  0  0  0  0  # atno 17370 bound_to 10713
  157.6355  131.0916  150.8357 LP  0  0  0  0  0  0  0  0  0  0  0  0  # atno 17371 bound_to 10713
  140.6773  133.9506  155.7890 LP  0  0  0  0  0  0  0  0  0  0  0  0  # atno 17394 bound_to 11000
  141.0535  134.0450  157.3753 LP  0  0  0  0  0  0  0  0  0  0  0  0  # atno 17395 bound_to 11000

$$$$
