AV-unprocessed.smi:1780|AV-procd|sdf|7185|dock3
  -GOLD-   22720 8423D 1   1.00000     0.00000
 Structure written by MMmdl.
 44 45  0  0  0  0  0  0  0  0  2 V2000
  151.5728  144.2510  157.6379 C   0  0  0  0  0  0  0  0  0  0  0  0
  151.4433  144.7314  159.0882 C   0  0  0  0  0  0  0  0  0  0  0  0
  152.0788  143.8167  160.0165 N   0  0  0  0  0  0  0  0  0  0  0  0
  152.8534  142.7105  159.7287 C   0  0  0  0  0  0  0  0  0  0  0  0
  153.2121  142.1858  160.9381 C   0  0  0  0  0  0  0  0  0  0  0  0
  154.0080  141.0479  161.2250 N   0  0  0  0  0  0  0  0  0  0  0  0
  154.3530  140.0611  160.3820 C   0  0  0  0  0  0  0  0  0  0  0  0
  153.9988  139.9762  159.2058 O   0  0  0  0  0  0  0  0  0  0  0  0
  155.1434  139.1600  160.9824 N   0  0  0  0  0  0  0  0  0  0  0  0
  155.7095  137.9798  160.3344 C   0  0  0  0  0  0  0  0  0  0  0  0
  154.8441  136.7008  160.5203 C   0  0  2  0  0  0  0  0  0  0  0  0
  153.3788  136.9856  160.1155 C   0  0  0  0  0  0  0  0  0  0  0  0
  154.9026  136.1347  161.9091 N   0  3  0  0  0  0  0  0  0  0  0  0
  154.2742  137.0286  162.9210 C   0  0  0  0  0  0  0  0  0  0  0  0
  154.4167  136.4540  164.3397 C   0  0  0  0  0  0  0  0  0  0  0  0
  153.8279  135.1637  164.3899 O   0  0  0  0  0  0  0  0  0  0  0  0
  154.4822  134.2612  163.5114 C   0  0  0  0  0  0  0  0  0  0  0  0
  154.3573  134.7566  162.0603 C   0  0  0  0  0  0  0  0  0  0  0  0
  152.6177  143.0254  161.9158 C   0  0  0  0  0  0  0  0  0  0  0  0
  151.9345  144.0095  161.3511 N   0  0  0  0  0  0  0  0  0  0  0  0
  151.1057  144.9579  156.9522 H   0  0  0  0  0  0  0  0  0  0  0  0
  151.0906  143.2834  157.4970 H   0  0  0  0  0  0  0  0  0  0  0  0
  152.6194  144.1495  157.3496 H   0  0  0  0  0  0  0  0  0  0  0  0
  151.9003  145.7152  159.2003 H   0  0  0  0  0  0  0  0  0  0  0  0
  150.3925  144.8371  159.3615 H   0  0  0  0  0  0  0  0  0  0  0  0
  153.0693  142.4102  158.7140 H   0  0  0  0  0  0  0  0  0  0  0  0
  154.3664  140.9902  162.1669 H   0  0  0  0  0  0  0  0  0  0  0  0
  155.3824  139.3075  161.9522 H   0  0  0  0  0  0  0  0  0  0  0  0
  155.8369  138.2266  159.2797 H   0  0  0  0  0  0  0  0  0  0  0  0
  156.7079  137.8193  160.7427 H   0  0  0  0  0  0  0  0  0  0  0  0
  155.2426  135.9415  159.8455 H   0  0  0  0  0  0  0  0  0  0  0  0
  153.3072  137.3826  159.1030 H   0  0  0  0  0  0  0  0  0  0  0  0
  152.9209  137.7139  160.7855 H   0  0  0  0  0  0  0  0  0  0  0  0
  152.7577  136.0920  160.1230 H   0  0  0  0  0  0  0  0  0  0  0  0
  154.7269  138.0179  162.9103 H   0  0  0  0  0  0  0  0  0  0  0  0
  153.2174  137.1615  162.6835 H   0  0  0  0  0  0  0  0  0  0  0  0
  155.4648  136.4065  164.6397 H   0  0  0  0  0  0  0  0  0  0  0  0
  153.9094  137.0988  165.0576 H   0  0  0  0  0  0  0  0  0  0  0  0
  155.5299  134.1517  163.7960 H   0  0  0  0  0  0  0  0  0  0  0  0
  154.0228  133.2776  163.6118 H   0  0  0  0  0  0  0  0  0  0  0  0
  153.3126  134.7392  161.7457 H   0  0  0  0  0  0  0  0  0  0  0  0
  154.9024  134.0508  161.4348 H   0  0  0  0  0  0  0  0  0  0  0  0
  152.6591  142.9568  162.9928 H   0  0  0  0  0  0  0  0  0  0  0  0
  155.8824  136.0686  162.1459 H   0  0  0  0  0  0  0  0  0  0  0  0
  1  2  1  0  0  0  0
  1 21  1  0  0  0  0
  1 22  1  0  0  0  0
  1 23  1  0  0  0  0
  2  3  1  0  0  0  0
  2 24  1  0  0  0  0
  2 25  1  0  0  0  0
  3 20  1  0  0  0  0
  3  4  1  0  0  0  0
  4  5  2  0  0  0  0
  4 26  1  0  0  0  0
  5  6  1  0  0  0  0
  5 19  1  0  0  0  0
  6  7  1  0  0  0  0
  6 27  1  0  0  0  0
  7  8  2  0  0  0  0
  7  9  1  0  0  0  0
  9 10  1  0  0  0  0
  9 28  1  0  0  0  0
 10 11  1  0  0  0  0
 10 29  1  0  0  0  0
 10 30  1  0  0  0  0
 11 12  1  0  0  0  0
 11 13  1  0  0  0  0
 11 31  1  0  0  0  0
 12 32  1  0  0  0  0
 12 33  1  0  0  0  0
 12 34  1  0  0  0  0
 13 18  1  0  0  0  0
 13 14  1  0  0  0  0
 13 44  1  0  0  0  0
 14 15  1  0  0  0  0
 14 35  1  0  0  0  0
 14 36  1  0  0  0  0
 15 16  1  0  0  0  0
 15 37  1  0  0  0  0
 15 38  1  0  0  0  0
 16 17  1  0  0  0  0
 17 18  1  0  0  0  0
 17 39  1  0  0  0  0
 17 40  1  0  0  0  0
 18 41  1  0  0  0  0
 18 42  1  0  0  0  0
 19 20  2  0  0  0  0
 19 43  1  0  0  0  0
M  CHG  1  13   1
M  END
> <s_m_source_file>
AV-unprocessed.smi

> <i_m_source_file_index>
1780

> <i_lp_mmshare_version>
43012

> <i_f3d_flags>
0

> <s_epik_input>
W0NIM11bQ0gyXW4xW2NIXWMoW2NIXW4xKVtOSF1DKD1PKVtOSF1bQ0gyXVtDQEhdKFtDSDNdKU4yW0NIMl1bQ0gyXU9bQ0gyXVtDSDJdMg==

> <s_epik_cmdline>
J2VwaWtfcHl0aG9uJywgJy1waCcsICc3LjAnLCAnLXRuJywgJzgnLCAnLW1hJywgJzIwMCcsICctbWV0YWxfYmluZGluZycsICctaW1hZScsICc8aW5maWxlLm1hZT4nLCAnLW9tYWUnLCAnPG91dGZpbGUubWFlPic=

> <r_lp_tautomer_probability>
1

> <r_epik_Ionization_Penalty>
0.64612

> <r_epik_Ionization_Penalty_Charging>
0.645968

> <r_epik_Ionization_Penalty_Neutral>
0.000152026

> <r_epik_State_Penalty>
0.664063

> <r_epik_Charging_Adjusted_Penalty>
1.31003

> <i_epik_Tot_Q>
1

> <i_epik_Tot_abs_Q>
1

> <r_epik_Metal_State_Penalty>
0.664075

> <b_epik_Metal_Only>
0

> <s_lp_Force_Field>
OPLS_2005

> <r_lp_Energy>
24.4997

> <b_lp_Chiralities_Consistent>
1

> <s_lp_Variant>
AV-unprocessed.smi:1780-3

> <Gold.Version>
5.8.1

> <Gold.Id.Protein>
6NUR|6NUR_protein|mol2

> <Gold.PLP.Fitness>
45.8808

> <Gold.PLP.PLP>
-43.7815

> <Gold.PLP.part.hbond>
-1.0920

> <Gold.PLP.part.metal>
0.0000

> <Gold.PLP.part.buried>
-6.2297

> <Gold.PLP.part.nonpolar>
-35.2855

> <Gold.PLP.part.repulsive>
0.2642

> <Gold.PLP.ligand.clash>
0.0000

> <Gold.PLP.ligand.torsion>
0.4239

> <Gold.PLP.Chemscore.Hbond>
0.9600

> <Gold.PLP.Chemscore.CHOScore>
0.0000

> <Gold.PLP.Chemscore.Metal>
0.0000

> <Gold.Chemscore.Hbonds>
donor molecule, donor type, donor heavy atom, donor atom, acceptor molecule, acceptor atom, score
      P1  H  7997  8009       L1     8  0.70

> <Gold.PLP.Chemscore.Internal.Correction>
0.0671

> <Gold.Rescore>
     Score         DG    S(hbond)    S(metal)    S(lipo)     H(rot)  DE(clash)    DE(int)     intcor
     14.49     -16.07       0.91        0.00     101.21       1.67       0.02       1.55       ----

> <Gold.Chemscore.Fitness>
14.4945

> <Gold.Chemscore.DG>
-16.0711

> <Gold.Chemscore.ZeroCoef>
-5.4800

> <Gold.Chemscore.Hbond>
0.9061

> <Gold.Chemscore.Metal>
0.0000

> <Gold.Chemscore.Lipo>
101.2126

> <Gold.Chemscore.Internal_Hbond>
0.0000

> <Gold.Chemscore.DEClash>
0.0236

> <Gold.Chemscore.DEInternal>
1.5530

> <Gold.Chemscore.Rot>
1.6708

> <Gold.Chemscore.Internal.Correction>
   9.000000E+99

> <Gold.Chemscore.Hbonds>
donor molecule, donor type, donor heavy atom, donor atom, acceptor molecule, acceptor atom, score
      P1  H  7997  8009       L1     8  0.65

> <Gold.Chemscore.Hbond.Weighted>
-3.0265

> <Gold.Chemscore.Metal.Weighted>
-0.0000

> <Gold.Chemscore.Lipo.Weighted>
-11.8419

> <Gold.Chemscore.Internal_Hbond.Weighted>
0.0000

> <Gold.Chemscore.DEClash.Weighted>
0.0236

> <Gold.Chemscore.DEInternal.Weighted>
1.5530

> <Gold.Chemscore.Rot.Weighted>
4.2773

> <Gold.Chemscore.Internal.Correction.Weighted>
   9.000000E+99

> <Gold.Protein.RotatedTorsions>
[ 6907 6896 6895 6894 ] final  101.19 input  -60.11 | X-H torsion
[ 7974 7965 7964 7962 ] final -131.28 input  175.53 | X-H torsion
[ 8008 7997 7996 7995 ] final  123.16 input   59.86 | X-H torsion
[ 10167 10162 10161 10158 ] final -138.24 input  -65.29 | X-H torsion
[ 10718 10713 10712 10709 ] final  -36.27 input   66.30 | X-H torsion
[ 10763 10752 10751 10750 ] final   75.07 input  -60.55 | X-H torsion
[ 11005 11000 10999 10996 ] final   43.32 input  -57.11 | X-H torsion

> <Gold.Protein.ActiveResidues>
 VAL166  LYS551  ARG553  GLY616  TRP617  ASP618  TYR619  PRO620  LYS621  CYS622 
 ASP623  PHE694  ASN695  SER759  ASP760  ASP761  ALA762  ILE779  LEU786  VAL792 
 PHE793  MET794  SER795  GLU796  ALA797  LYS798  CYS799  TRP800  GLU811  SER814 

> <Gold.Protein.RotatedAtoms>
  152.5355  134.0164  159.7961 H   0  0  0  0  0  0  0  0  0  0  0  0  # atno 6907 bound_to 6896
  151.0357  133.5742  159.2663 H   0  0  0  0  0  0  0  0  0  0  0  0  # atno 6908 bound_to 6896
  151.2730  135.0698  159.9195 H   0  0  0  0  0  0  0  0  0  0  0  0  # atno 6909 bound_to 6896
  144.9394  140.7221  143.4856 H   0  0  0  0  0  0  0  0  0  0  0  0  # atno 7974 bound_to 7965
  156.2755  140.2769  156.1583 H   0  0  0  0  0  0  0  0  0  0  0  0  # atno 8008 bound_to 7997
  155.0781  140.0387  157.2648 H   0  0  0  0  0  0  0  0  0  0  0  0  # atno 8009 bound_to 7997
  154.6986  140.2644  155.6747 H   0  0  0  0  0  0  0  0  0  0  0  0  # atno 8010 bound_to 7997
  139.8498  143.7214  152.2658 H   0  0  0  0  0  0  0  0  0  0  0  0  # atno 10167 bound_to 10162
  156.3288  130.4276  149.7892 H   0  0  0  0  0  0  0  0  0  0  0  0  # atno 10718 bound_to 10713
  153.0630  135.5002  154.8136 H   0  0  0  0  0  0  0  0  0  0  0  0  # atno 10763 bound_to 10752
  154.6911  135.2984  154.9480 H   0  0  0  0  0  0  0  0  0  0  0  0  # atno 10764 bound_to 10752
  154.0235  135.6739  153.4827 H   0  0  0  0  0  0  0  0  0  0  0  0  # atno 10765 bound_to 10752
  140.1655  134.4287  155.8290 H   0  0  0  0  0  0  0  0  0  0  0  0  # atno 11005 bound_to 11000
  145.3015  139.1849  143.4687 LP  0  0  0  0  0  0  0  0  0  0  0  0  # atno 17320 bound_to 7965
  146.3279  140.3007  142.8620 LP  0  0  0  0  0  0  0  0  0  0  0  0  # atno 17321 bound_to 7965
  139.7477  144.7543  151.0555 LP  0  0  0  0  0  0  0  0  0  0  0  0  # atno 17342 bound_to 10162
  140.7789  143.4897  150.9909 LP  0  0  0  0  0  0  0  0  0  0  0  0  # atno 17343 bound_to 10162
  156.5172  130.8198  151.3190 LP  0  0  0  0  0  0  0  0  0  0  0  0  # atno 17370 bound_to 10713
  157.7426  130.9894  150.2531 LP  0  0  0  0  0  0  0  0  0  0  0  0  # atno 17371 bound_to 10713
  141.2213  133.6932  156.7671 LP  0  0  0  0  0  0  0  0  0  0  0  0  # atno 17394 bound_to 11000
  140.2438  134.8593  157.3600 LP  0  0  0  0  0  0  0  0  0  0  0  0  # atno 17395 bound_to 11000

$$$$
