AV-unprocessed.smi:1033|AV-procd|sdf|4509|dock1
  -GOLD-   22720 2513D 1   1.00000     0.00000
 Structure written by MMmdl.
 57 59  0  0  0  0  0  0  0  0  3 V2000
  153.6015  142.4569  161.5024 C   0  0  0  0  0  0  0  0  0  0  0  0
  152.8540  142.2727  160.1934 C   0  0  0  0  0  0  0  0  0  0  0  0
  152.8137  140.9909  159.5998 C   0  0  0  0  0  0  0  0  0  0  0  0
  152.1288  140.7772  158.3836 C   0  0  0  0  0  0  0  0  0  0  0  0
  151.9601  139.6238  157.6370 N   0  0  0  0  0  0  0  0  0  0  0  0
  151.2298  140.0675  156.6183 C   0  0  0  0  0  0  0  0  0  0  0  0
  150.8999  141.3734  156.6183 N   0  0  0  0  0  0  0  0  0  0  0  0
  150.1106  142.0754  155.6214 C   0  0  0  0  0  0  0  0  0  0  0  0
  148.8214  141.3177  155.2486 C   0  0  1  0  0  0  0  0  0  0  0  0
  147.7043  142.1641  155.4450 O   0  0  0  0  0  0  0  0  0  0  0  0
  148.8349  140.8595  153.7766 C   0  0  0  0  0  0  0  0  0  0  0  0
  147.7359  139.9097  153.4625 N   0  3  2  0  0  0  0  0  0  0  0  0
  147.8638  138.5986  154.1479 C   0  0  0  0  0  0  0  0  0  0  0  0
  146.6449  137.7028  153.8611 C   0  0  0  0  0  0  0  0  0  0  0  0
  146.4371  137.5231  152.4005 N   0  3  1  0  0  0  0  0  0  0  0  0
  145.3068  136.6168  152.0698 C   0  0  0  0  0  0  0  0  0  0  0  0
  145.4980  135.8905  150.7237 C   0  0  1  0  0  0  0  0  0  0  0  0
  144.4366  134.8048  150.5048 C   0  0  0  0  0  0  0  0  0  0  0  0
  145.3889  136.8315  149.6753 O   0  0  0  0  0  0  0  0  0  0  0  0
  146.3244  138.8334  151.7129 C   0  0  0  0  0  0  0  0  0  0  0  0
  147.5441  139.7256  152.0033 C   0  0  0  0  0  0  0  0  0  0  0  0
  151.4798  141.8900  157.7725 C   0  0  0  0  0  0  0  0  0  0  0  0
  151.5140  143.1703  158.3528 C   0  0  0  0  0  0  0  0  0  0  0  0
  152.2031  143.3663  159.5679 C   0  0  0  0  0  0  0  0  0  0  0  0
  152.2336  144.7527  160.1866 C   0  0  0  0  0  0  0  0  0  0  0  0
  153.9939  141.5099  161.8742 H   0  0  0  0  0  0  0  0  0  0  0  0
  152.9413  142.8669  162.2667 H   0  0  0  0  0  0  0  0  0  0  0  0
  154.4421  143.1379  161.3679 H   0  0  0  0  0  0  0  0  0  0  0  0
  153.3097  140.1576  160.0758 H   0  0  0  0  0  0  0  0  0  0  0  0
  150.9129  139.4033  155.8274 H   0  0  0  0  0  0  0  0  0  0  0  0
  149.8765  143.0710  156.0011 H   0  0  0  0  0  0  0  0  0  0  0  0
  150.7309  142.2197  154.7357 H   0  0  0  0  0  0  0  0  0  0  0  0
  148.7203  140.4602  155.9135 H   0  0  0  0  0  0  0  0  0  0  0  0
  147.9778  143.0596  155.3087 H   0  0  0  0  0  0  0  0  0  0  0  0
  148.7437  141.7438  153.1436 H   0  0  0  0  0  0  0  0  0  0  0  0
  149.7934  140.4036  153.5238 H   0  0  0  0  0  0  0  0  0  0  0  0
  148.7776  138.1018  153.8173 H   0  0  0  0  0  0  0  0  0  0  0  0
  147.9542  138.7390  155.2244 H   0  0  0  0  0  0  0  0  0  0  0  0
  146.7934  136.7383  154.3455 H   0  0  0  0  0  0  0  0  0  0  0  0
  145.7498  138.1432  154.3038 H   0  0  0  0  0  0  0  0  0  0  0  0
  145.1740  135.8963  152.8784 H   0  0  0  0  0  0  0  0  0  0  0  0
  144.3794  137.1904  152.0212 H   0  0  0  0  0  0  0  0  0  0  0  0
  146.4813  135.4247  150.6681 H   0  0  0  0  0  0  0  0  0  0  0  0
  144.4916  134.0423  151.2822 H   0  0  0  0  0  0  0  0  0  0  0  0
  144.5751  134.3051  149.5455 H   0  0  0  0  0  0  0  0  0  0  0  0
  143.4290  135.2219  150.5201 H   0  0  0  0  0  0  0  0  0  0  0  0
  145.2592  136.3648  148.8628 H   0  0  0  0  0  0  0  0  0  0  0  0
  146.2413  138.6784  150.6364 H   0  0  0  0  0  0  0  0  0  0  0  0
  145.4092  139.3345  152.0332 H   0  0  0  0  0  0  0  0  0  0  0  0
  147.4009  140.6951  151.5242 H   0  0  0  0  0  0  0  0  0  0  0  0
  148.4444  139.2863  151.5699 H   0  0  0  0  0  0  0  0  0  0  0  0
  151.0121  143.9945  157.8680 H   0  0  0  0  0  0  0  0  0  0  0  0
  151.7221  145.4812  159.5569 H   0  0  0  0  0  0  0  0  0  0  0  0
  153.2615  145.0905  160.3198 H   0  0  0  0  0  0  0  0  0  0  0  0
  151.7417  144.7471  161.1594 H   0  0  0  0  0  0  0  0  0  0  0  0
  147.2667  137.0791  152.0314 H   0  0  0  0  0  0  0  0  0  0  0  0
  146.8905  140.3446  153.8060 H   0  0  0  0  0  0  0  0  0  0  0  0
  1  2  1  0  0  0  0
  1 26  1  0  0  0  0
  1 27  1  0  0  0  0
  1 28  1  0  0  0  0
  2 24  1  0  0  0  0
  2  3  2  0  0  0  0
  3  4  1  0  0  0  0
  3 29  1  0  0  0  0
  4 22  2  0  0  0  0
  4  5  1  0  0  0  0
  5  6  2  0  0  0  0
  6  7  1  0  0  0  0
  6 30  1  0  0  0  0
  7  8  1  0  0  0  0
  7 22  1  0  0  0  0
  8  9  1  0  0  0  0
  8 31  1  0  0  0  0
  8 32  1  0  0  0  0
  9 10  1  0  0  0  0
  9 11  1  0  0  0  0
  9 33  1  0  0  0  0
 10 34  1  0  0  0  0
 11 12  1  0  0  0  0
 11 35  1  0  0  0  0
 11 36  1  0  0  0  0
 12 21  1  0  0  0  0
 12 13  1  0  0  0  0
 12 57  1  0  0  0  0
 13 14  1  0  0  0  0
 13 37  1  0  0  0  0
 13 38  1  0  0  0  0
 14 15  1  0  0  0  0
 14 39  1  0  0  0  0
 14 40  1  0  0  0  0
 15 16  1  0  0  0  0
 15 20  1  0  0  0  0
 15 56  1  0  0  0  0
 16 17  1  0  0  0  0
 16 41  1  0  0  0  0
 16 42  1  0  0  0  0
 17 18  1  0  0  0  0
 17 19  1  0  0  0  0
 17 43  1  0  0  0  0
 18 44  1  0  0  0  0
 18 45  1  0  0  0  0
 18 46  1  0  0  0  0
 19 47  1  0  0  0  0
 20 21  1  0  0  0  0
 20 48  1  0  0  0  0
 20 49  1  0  0  0  0
 21 50  1  0  0  0  0
 21 51  1  0  0  0  0
 22 23  1  0  0  0  0
 23 24  2  0  0  0  0
 23 52  1  0  0  0  0
 24 25  1  0  0  0  0
 25 53  1  0  0  0  0
 25 54  1  0  0  0  0
 25 55  1  0  0  0  0
M  CHG  1  12   1
M  CHG  1  15   1
M  END
> <s_m_source_file>
AV-unprocessed.smi

> <i_m_source_file_index>
1033

> <i_lp_mmshare_version>
43012

> <i_f3d_flags>
0

> <s_epik_input>
W0NIM11jKFtjSF0xKWMoW0NIM10pW2NIXWMoYzEyKW4oW2NIXW4yKVtDSDJdW0NASF0oW09IXSlbQ0gyXU4zW0NIMl1bQ0gyXU4oW0NIMl1bQ0gyXTMpW0NIMl1bQ0BIXShbQ0gzXSlbT0hd

> <s_epik_cmdline>
J2VwaWtfcHl0aG9uJywgJy1waCcsICc3LjAnLCAnLXRuJywgJzgnLCAnLW1hJywgJzIwMCcsICctbWV0YWxfYmluZGluZycsICctaW1hZScsICc8aW5maWxlLm1hZT4nLCAnLW9tYWUnLCAnPG91dGZpbGUubWFlPic=

> <r_epik_Ionization_Penalty>
3.16016

> <r_epik_Ionization_Penalty_Charging>
3.07679

> <r_epik_Ionization_Penalty_Neutral>
0.083365

> <r_epik_State_Penalty>
2.09701

> <r_epik_Charging_Adjusted_Penalty>
5.1738

> <i_epik_Tot_Q>
2

> <i_epik_Tot_abs_Q>
2

> <r_epik_Metal_State_Penalty>
2.02534

> <b_epik_Metal_Only>
0

> <s_lp_Force_Field>
OPLS_2005

> <r_lp_Energy>
27.8385

> <b_lp_Chiralities_Consistent>
1

> <s_lp_Variant>
AV-unprocessed.smi:1033-20

> <Gold.Version>
5.8.1

> <Gold.Id.Protein>
6NUR|6NUR_protein|mol2

> <Gold.PLP.Fitness>
59.4162

> <Gold.PLP.PLP>
-49.5110

> <Gold.PLP.part.hbond>
-5.0000

> <Gold.PLP.part.metal>
0.0000

> <Gold.PLP.part.buried>
3.9766

> <Gold.PLP.part.nonpolar>
-47.9357

> <Gold.PLP.part.repulsive>
0.0954

> <Gold.PLP.ligand.clash>
0.0000

> <Gold.PLP.ligand.torsion>
1.3224

> <Gold.PLP.Chemscore.Hbond>
4.0000

> <Gold.PLP.Chemscore.CHOScore>
0.0000

> <Gold.PLP.Chemscore.Metal>
0.0000

> <Gold.Chemscore.Hbonds>
donor molecule, donor type, donor heavy atom, donor atom, acceptor molecule, acceptor atom, score
      L1  H    10    34       P1  8028  1.00
      L1  H    15    56       P1  7948  2.00
      L1  H    19    47       P1  7921  0.62

> <Gold.PLP.Chemscore.Internal.Correction>
0.5499

> <Gold.Rescore>
     Score         DG    S(hbond)    S(metal)    S(lipo)     H(rot)  DE(clash)    DE(int)     intcor
     18.72     -23.68       2.85        0.00     142.90       3.14       3.34       1.63       ----

> <Gold.Chemscore.Fitness>
18.7177

> <Gold.Chemscore.DG>
-23.6823

> <Gold.Chemscore.ZeroCoef>
-5.4800

> <Gold.Chemscore.Hbond>
2.8492

> <Gold.Chemscore.Metal>
0.0000

> <Gold.Chemscore.Lipo>
142.8979

> <Gold.Chemscore.Internal_Hbond>
0.0000

> <Gold.Chemscore.DEClash>
3.3385

> <Gold.Chemscore.DEInternal>
1.6261

> <Gold.Chemscore.Rot>
3.1380

> <Gold.Chemscore.Internal.Correction>
   9.000000E+99

> <Gold.Chemscore.Hbonds>
donor molecule, donor type, donor heavy atom, donor atom, acceptor molecule, acceptor atom, score
      L1  H    10    34       P1  8028  0.81
      L1  H    15    56       P1  7948  1.00
      L1  H    19    47       P1  7921  0.61

> <Gold.Chemscore.Hbond.Weighted>
-9.5164

> <Gold.Chemscore.Metal.Weighted>
-0.0000

> <Gold.Chemscore.Lipo.Weighted>
-16.7191

> <Gold.Chemscore.Internal_Hbond.Weighted>
0.0000

> <Gold.Chemscore.DEClash.Weighted>
3.3385

> <Gold.Chemscore.DEInternal.Weighted>
1.6261

> <Gold.Chemscore.Rot.Weighted>
8.0332

> <Gold.Chemscore.Internal.Correction.Weighted>
   9.000000E+99

> <Gold.Protein.RotatedTorsions>
[ 6907 6896 6895 6894 ] final  -77.12 input  -60.11 | X-H torsion
[ 7974 7965 7964 7962 ] final   66.05 input  175.53 | X-H torsion
[ 8008 7997 7996 7995 ] final -140.87 input   59.86 | X-H torsion
[ 10167 10162 10161 10158 ] final   58.57 input  -65.29 | X-H torsion
[ 10718 10713 10712 10709 ] final -150.16 input   66.30 | X-H torsion
[ 10763 10752 10751 10750 ] final   95.60 input  -60.55 | X-H torsion
[ 11005 11000 10999 10996 ] final -110.62 input  -57.11 | X-H torsion

> <Gold.Protein.ActiveResidues>
 VAL166  LYS551  ARG553  GLY616  TRP617  ASP618  TYR619  PRO620  LYS621  CYS622 
 ASP623  PHE694  ASN695  SER759  ASP760  ASP761  ALA762  ILE779  LEU786  VAL792 
 PHE793  MET794  SER795  GLU796  ALA797  LYS798  CYS799  TRP800  GLU811  SER814 

> <Gold.Protein.RotatedAtoms>
  150.7008  134.4471  159.5318 H   0  0  0  0  0  0  0  0  0  0  0  0  # atno 6907 bound_to 6896
  152.2170  134.8446  160.0500 H   0  0  0  0  0  0  0  0  0  0  0  0  # atno 6908 bound_to 6896
  151.9310  133.3576  159.3967 H   0  0  0  0  0  0  0  0  0  0  0  0  # atno 6909 bound_to 6896
  145.8313  139.3140  143.0986 H   0  0  0  0  0  0  0  0  0  0  0  0  # atno 7974 bound_to 7965
  155.4684  140.0551  157.2982 H   0  0  0  0  0  0  0  0  0  0  0  0  # atno 8008 bound_to 7997
  154.4708  140.2039  155.9953 H   0  0  0  0  0  0  0  0  0  0  0  0  # atno 8009 bound_to 7997
  156.1053  140.3213  155.8002 H   0  0  0  0  0  0  0  0  0  0  0  0  # atno 8010 bound_to 7997
  140.1858  144.4136  150.6594 H   0  0  0  0  0  0  0  0  0  0  0  0  # atno 10167 bound_to 10162
  156.4425  130.8129  151.2358 H   0  0  0  0  0  0  0  0  0  0  0  0  # atno 10718 bound_to 10713
  153.2551  135.4248  155.0837 H   0  0  0  0  0  0  0  0  0  0  0  0  # atno 10763 bound_to 10752
  154.8397  135.3435  154.6457 H   0  0  0  0  0  0  0  0  0  0  0  0  # atno 10764 bound_to 10752
  153.6878  135.7035  153.5156 H   0  0  0  0  0  0  0  0  0  0  0  0  # atno 10765 bound_to 10752
  141.0781  133.9266  157.2346 H   0  0  0  0  0  0  0  0  0  0  0  0  # atno 11005 bound_to 11000
  145.9568  140.8866  143.0231 LP  0  0  0  0  0  0  0  0  0  0  0  0  # atno 17320 bound_to 7965
  144.6739  140.1757  143.7410 LP  0  0  0  0  0  0  0  0  0  0  0  0  # atno 17321 bound_to 7965
  140.6489  143.2220  151.6122 LP  0  0  0  0  0  0  0  0  0  0  0  0  # atno 17342 bound_to 10162
  139.5277  144.3010  152.1073 LP  0  0  0  0  0  0  0  0  0  0  0  0  # atno 17343 bound_to 10162
  157.7506  131.0164  150.3542 LP  0  0  0  0  0  0  0  0  0  0  0  0  # atno 17370 bound_to 10713
  156.3902  130.3896  149.7035 LP  0  0  0  0  0  0  0  0  0  0  0  0  # atno 17371 bound_to 10713
  139.9594  135.0158  156.9219 LP  0  0  0  0  0  0  0  0  0  0  0  0  # atno 17394 bound_to 11000
  140.5528  134.0610  155.7374 LP  0  0  0  0  0  0  0  0  0  0  0  0  # atno 17395 bound_to 11000

$$$$
