AV-unprocessed.smi:1205|AV-procd|sdf|5046|dock7
  -GOLD-   22720 4 73D 1   1.00000     0.00000
 Structure written by MMmdl.
 49 50  0  0  0  0  0  0  0  0  2 V2000
  151.8827  141.1266  158.1415 C   0  0  0  0  0  0  0  0  0  0  0  0
  151.4417  140.3851  156.9141 C   0  0  0  0  0  0  0  0  0  0  0  0
  150.2521  140.5764  156.1522 C   0  0  0  0  0  0  0  0  0  0  0  0
  150.3742  139.6384  155.1638 C   0  0  0  0  0  0  0  0  0  0  0  0
  149.5211  139.3550  154.1439 N   0  0  0  0  0  0  0  0  0  0  0  0
  148.2395  138.9549  154.2075 C   0  0  0  0  0  0  0  0  0  0  0  0
  147.5954  138.7741  155.2412 O   0  0  0  0  0  0  0  0  0  0  0  0
  147.7255  138.7802  152.9818 N   0  0  0  0  0  0  0  0  0  0  0  0
  146.3569  138.3574  152.7027 C   0  0  0  0  0  0  0  0  0  0  0  0
  145.9657  137.0668  153.4680 C   0  0  1  0  0  0  0  0  0  0  0  0
  144.5062  137.0868  153.9612 C   0  0  0  0  0  0  0  0  0  0  0  0
  146.2441  135.8199  152.6970 N   0  3  2  0  0  0  0  0  0  0  0  0
  145.2798  135.5795  151.5910 C   0  0  0  0  0  0  0  0  0  0  0  0
  145.7684  134.4407  150.6814 C   0  0  0  0  0  0  0  0  0  0  0  0
  146.0174  133.1589  151.4878 C   0  0  0  0  0  0  0  0  0  0  0  0
  146.9861  133.4347  152.6511 C   0  0  2  0  0  0  0  0  0  0  0  0
  147.2278  132.1726  153.4909 C   0  0  0  0  0  0  0  0  0  0  0  0
  146.4587  134.5958  153.5171 C   0  0  0  0  0  0  0  0  0  0  0  0
  151.5530  138.9500  155.3461 N   0  0  0  0  0  0  0  0  0  0  0  0
  152.1174  137.8653  154.5667 C   0  0  0  0  0  0  0  0  0  0  0  0
  152.2106  139.4164  156.4293 N   0  0  0  0  0  0  0  0  0  0  0  0
  151.1678  141.9041  158.4107 H   0  0  0  0  0  0  0  0  0  0  0  0
  152.8497  141.6055  157.9851 H   0  0  0  0  0  0  0  0  0  0  0  0
  151.9771  140.4533  158.9938 H   0  0  0  0  0  0  0  0  0  0  0  0
  149.4562  141.2855  156.3228 H   0  0  0  0  0  0  0  0  0  0  0  0
  149.9045  139.4781  153.2185 H   0  0  0  0  0  0  0  0  0  0  0  0
  148.3234  138.9482  152.1855 H   0  0  0  0  0  0  0  0  0  0  0  0
  145.7065  139.1839  152.9885 H   0  0  0  0  0  0  0  0  0  0  0  0
  146.2357  138.2267  151.6265 H   0  0  0  0  0  0  0  0  0  0  0  0
  146.5772  137.0131  154.3698 H   0  0  0  0  0  0  0  0  0  0  0  0
  144.3414  137.8942  154.6753 H   0  0  0  0  0  0  0  0  0  0  0  0
  144.2505  136.1556  154.4676 H   0  0  0  0  0  0  0  0  0  0  0  0
  143.7995  137.2282  153.1437 H   0  0  0  0  0  0  0  0  0  0  0  0
  144.2979  135.3358  151.9980 H   0  0  0  0  0  0  0  0  0  0  0  0
  145.1606  136.4845  150.9940 H   0  0  0  0  0  0  0  0  0  0  0  0
  145.0361  134.2501  149.8963 H   0  0  0  0  0  0  0  0  0  0  0  0
  146.6887  134.7422  150.1792 H   0  0  0  0  0  0  0  0  0  0  0  0
  145.0700  132.7803  151.8744 H   0  0  0  0  0  0  0  0  0  0  0  0
  146.4198  132.3832  150.8353 H   0  0  0  0  0  0  0  0  0  0  0  0
  147.9458  133.7371  152.2289 H   0  0  0  0  0  0  0  0  0  0  0  0
  146.3037  131.8164  153.9475 H   0  0  0  0  0  0  0  0  0  0  0  0
  147.9422  132.3635  154.2921 H   0  0  0  0  0  0  0  0  0  0  0  0
  147.6291  131.3647  152.8783 H   0  0  0  0  0  0  0  0  0  0  0  0
  147.1731  134.7992  154.3144 H   0  0  0  0  0  0  0  0  0  0  0  0
  145.5242  134.2994  153.9955 H   0  0  0  0  0  0  0  0  0  0  0  0
  152.0875  138.1188  153.5067 H   0  0  0  0  0  0  0  0  0  0  0  0
  151.5387  136.9566  154.7333 H   0  0  0  0  0  0  0  0  0  0  0  0
  153.1538  137.6846  154.8551 H   0  0  0  0  0  0  0  0  0  0  0  0
  147.1256  135.9957  152.2363 H   0  0  0  0  0  0  0  0  0  0  0  0
  1  2  1  0  0  0  0
  1 22  1  0  0  0  0
  1 23  1  0  0  0  0
  1 24  1  0  0  0  0
  2 21  2  0  0  0  0
  2  3  1  0  0  0  0
  3  4  2  0  0  0  0
  3 25  1  0  0  0  0
  4  5  1  0  0  0  0
  4 19  1  0  0  0  0
  5  6  1  0  0  0  0
  5 26  1  0  0  0  0
  6  7  2  0  0  0  0
  6  8  1  0  0  0  0
  8  9  1  0  0  0  0
  8 27  1  0  0  0  0
  9 10  1  0  0  0  0
  9 28  1  0  0  0  0
  9 29  1  0  0  0  0
 10 11  1  0  0  0  0
 10 12  1  0  0  0  0
 10 30  1  0  0  0  0
 11 31  1  0  0  0  0
 11 32  1  0  0  0  0
 11 33  1  0  0  0  0
 12 18  1  0  0  0  0
 12 13  1  0  0  0  0
 12 49  1  0  0  0  0
 13 14  1  0  0  0  0
 13 34  1  0  0  0  0
 13 35  1  0  0  0  0
 14 15  1  0  0  0  0
 14 36  1  0  0  0  0
 14 37  1  0  0  0  0
 15 16  1  0  0  0  0
 15 38  1  0  0  0  0
 15 39  1  0  0  0  0
 16 17  1  0  0  0  0
 16 18  1  0  0  0  0
 16 40  1  0  0  0  0
 17 41  1  0  0  0  0
 17 42  1  0  0  0  0
 17 43  1  0  0  0  0
 18 44  1  0  0  0  0
 18 45  1  0  0  0  0
 19 20  1  0  0  0  0
 19 21  1  0  0  0  0
 20 46  1  0  0  0  0
 20 47  1  0  0  0  0
 20 48  1  0  0  0  0
M  CHG  1  12   1
M  END
> <s_m_source_file>
AV-unprocessed.smi

> <i_m_source_file_index>
1205

> <i_lp_mmshare_version>
43012

> <i_f3d_flags>
0

> <s_epik_input>
W0NIM11jMVtjSF1jKG4objEpW0NIM10pW05IXUMoPU8pW05IXVtDSDJdW0NASF0oW0NIM10pTjJbQ0gyXVtDSDJdW0NIMl1bQ0BASF0oW0NIM10pW0NIMl0y

> <s_epik_cmdline>
J2VwaWtfcHl0aG9uJywgJy1waCcsICc3LjAnLCAnLXRuJywgJzgnLCAnLW1hJywgJzIwMCcsICctbWV0YWxfYmluZGluZycsICctaW1hZScsICc8aW5maWxlLm1hZT4nLCAnLW9tYWUnLCAnPG91dGZpbGUubWFlPic=

> <r_lp_tautomer_probability>
1

> <r_epik_Ionization_Penalty>
0.0020309

> <r_epik_Ionization_Penalty_Charging>
0.00195276

> <r_epik_Ionization_Penalty_Neutral>
7.81448e-05

> <r_epik_State_Penalty>
0.00133177

> <r_epik_Charging_Adjusted_Penalty>
0.00328452

> <i_epik_Tot_Q>
1

> <i_epik_Tot_abs_Q>
1

> <r_epik_Metal_State_Penalty>
-0

> <b_epik_Metal_Only>
0

> <s_lp_Force_Field>
OPLS_2005

> <r_lp_Energy>
21.2667

> <b_lp_Chiralities_Consistent>
1

> <s_lp_Variant>
AV-unprocessed.smi:1205-8

> <Gold.Version>
5.8.1

> <Gold.Id.Protein>
6NUR|6NUR_protein|mol2

> <Gold.PLP.Fitness>
49.1671

> <Gold.PLP.PLP>
-36.7299

> <Gold.PLP.part.hbond>
-5.0000

> <Gold.PLP.part.metal>
0.0000

> <Gold.PLP.part.buried>
-2.8917

> <Gold.PLP.part.nonpolar>
-28.0151

> <Gold.PLP.part.repulsive>
0.2301

> <Gold.PLP.ligand.clash>
0.0000

> <Gold.PLP.ligand.torsion>
1.3281

> <Gold.PLP.Chemscore.Hbond>
4.9913

> <Gold.PLP.Chemscore.CHOScore>
0.0000

> <Gold.PLP.Chemscore.Metal>
0.0000

> <Gold.Chemscore.Hbonds>
donor molecule, donor type, donor heavy atom, donor atom, acceptor molecule, acceptor atom, score
      L1  H     5    26       P1  7957  0.69
      L1  H     8    27       P1  7957  1.00
      L1  H    12    49       P1  7948  2.00
      P1  H  7997  8008       L1    21  0.47

> <Gold.PLP.Chemscore.Internal.Correction>
0.1197

> <Gold.Rescore>
     Score         DG    S(hbond)    S(metal)    S(lipo)     H(rot)  DE(clash)    DE(int)     intcor
     20.06     -22.77       3.89        0.00      68.94       1.47       0.02       2.69       ----

> <Gold.Chemscore.Fitness>
20.0631

> <Gold.Chemscore.DG>
-22.7723

> <Gold.Chemscore.ZeroCoef>
-5.4800

> <Gold.Chemscore.Hbond>
3.8860

> <Gold.Chemscore.Metal>
0.0000

> <Gold.Chemscore.Lipo>
68.9361

> <Gold.Chemscore.Internal_Hbond>
0.0000

> <Gold.Chemscore.DEClash>
0.0241

> <Gold.Chemscore.DEInternal>
2.6850

> <Gold.Chemscore.Rot>
1.4658

> <Gold.Chemscore.Internal.Correction>
   9.000000E+99

> <Gold.Chemscore.Hbonds>
donor molecule, donor type, donor heavy atom, donor atom, acceptor molecule, acceptor atom, score
      L1  H     5    26       P1  7957  0.67
      L1  H     8    27       P1  7957  0.95
      L1  H    12    49       P1  7948  1.00
      P1  H  7997  8008       L1    21  0.34

> <Gold.Chemscore.Hbond.Weighted>
-12.9793

> <Gold.Chemscore.Metal.Weighted>
-0.0000

> <Gold.Chemscore.Lipo.Weighted>
-8.0655

> <Gold.Chemscore.Internal_Hbond.Weighted>
0.0000

> <Gold.Chemscore.DEClash.Weighted>
0.0241

> <Gold.Chemscore.DEInternal.Weighted>
2.6850

> <Gold.Chemscore.Rot.Weighted>
3.7526

> <Gold.Chemscore.Internal.Correction.Weighted>
   9.000000E+99

> <Gold.Protein.RotatedTorsions>
[ 6907 6896 6895 6894 ] final  -68.00 input  -60.11 | X-H torsion
[ 7974 7965 7964 7962 ] final  102.54 input  175.53 | X-H torsion
[ 8008 7997 7996 7995 ] final  -40.67 input   59.86 | X-H torsion
[ 10167 10162 10161 10158 ] final -113.38 input  -65.29 | X-H torsion
[ 10718 10713 10712 10709 ] final  -54.54 input   66.30 | X-H torsion
[ 10763 10752 10751 10750 ] final  -65.89 input  -60.55 | X-H torsion
[ 11005 11000 10999 10996 ] final    8.26 input  -57.11 | X-H torsion

> <Gold.Protein.ActiveResidues>
 VAL166  LYS551  ARG553  GLY616  TRP617  ASP618  TYR619  PRO620  LYS621  CYS622 
 ASP623  PHE694  ASN695  SER759  ASP760  ASP761  ALA762  ILE779  LEU786  VAL792 
 PHE793  MET794  SER795  GLU796  ALA797  LYS798  CYS799  TRP800  GLU811  SER814 

> <Gold.Protein.RotatedAtoms>
  150.7379  134.5801  159.5934 H   0  0  0  0  0  0  0  0  0  0  0  0  # atno 6907 bound_to 6896
  152.3217  134.7368  160.0321 H   0  0  0  0  0  0  0  0  0  0  0  0  # atno 6908 bound_to 6896
  151.7882  133.3321  159.3528 H   0  0  0  0  0  0  0  0  0  0  0  0  # atno 6909 bound_to 6896
  145.3577  139.2425  143.3523 H   0  0  0  0  0  0  0  0  0  0  0  0  # atno 7974 bound_to 7965
  154.4010  140.1519  156.3065 H   0  0  0  0  0  0  0  0  0  0  0  0  # atno 8008 bound_to 7997
  155.8654  140.3451  155.5763 H   0  0  0  0  0  0  0  0  0  0  0  0  # atno 8009 bound_to 7997
  155.7834  140.0846  157.2038 H   0  0  0  0  0  0  0  0  0  0  0  0  # atno 8010 bound_to 7997
  140.1125  143.4515  152.1743 H   0  0  0  0  0  0  0  0  0  0  0  0  # atno 10167 bound_to 10162
  156.1442  130.4153  150.0052 H   0  0  0  0  0  0  0  0  0  0  0  0  # atno 10718 bound_to 10713
  154.3517  135.6135  153.5646 H   0  0  0  0  0  0  0  0  0  0  0  0  # atno 10763 bound_to 10752
  152.9798  135.5794  154.4736 H   0  0  0  0  0  0  0  0  0  0  0  0  # atno 10764 bound_to 10752
  154.4458  135.2851  155.1793 H   0  0  0  0  0  0  0  0  0  0  0  0  # atno 10765 bound_to 10752
  140.5389  134.0393  155.7897 H   0  0  0  0  0  0  0  0  0  0  0  0  # atno 11005 bound_to 11000
  146.2941  140.4205  142.8728 LP  0  0  0  0  0  0  0  0  0  0  0  0  # atno 17320 bound_to 7965
  144.8670  140.7219  143.6071 LP  0  0  0  0  0  0  0  0  0  0  0  0  # atno 17321 bound_to 7965
  139.5612  144.7406  151.4151 LP  0  0  0  0  0  0  0  0  0  0  0  0  # atno 17342 bound_to 10162
  140.6918  143.7844  150.7266 LP  0  0  0  0  0  0  0  0  0  0  0  0  # atno 17343 bound_to 10162
  156.7928  130.9262  151.3646 LP  0  0  0  0  0  0  0  0  0  0  0  0  # atno 17370 bound_to 10713
  157.6602  130.8959  149.9814 LP  0  0  0  0  0  0  0  0  0  0  0  0  # atno 17371 bound_to 10713
  141.1238  133.9417  157.2676 LP  0  0  0  0  0  0  0  0  0  0  0  0  # atno 17394 bound_to 11000
  139.9514  135.0174  156.9005 LP  0  0  0  0  0  0  0  0  0  0  0  0  # atno 17395 bound_to 11000

$$$$
