AV-unprocessed.smi:2058|AV-procd|sdf|8344|dock1
  -GOLD-   2272011 13D 1   1.00000     0.00000
 Structure written by MMmdl.
 42 43  0  0  0  0  0  0  0  0  1 V2000
  149.4532  132.7041  154.9656 C   0  0  0  0  0  0  0  0  0  0  0  0
  148.3585  133.5757  154.3305 C   0  0  2  0  0  0  0  0  0  0  0  0
  147.7802  132.9869  153.0269 C   0  0  0  0  0  0  0  0  0  0  0  0
  147.0648  133.9584  152.2906 O   0  0  0  0  0  0  0  0  0  0  0  0
  148.8472  134.9364  154.1183 N   0  0  0  0  0  0  0  0  0  0  0  0
  149.2735  135.7699  155.0780 C   0  0  0  0  0  0  0  0  0  0  0  0
  149.3239  135.4630  156.2687 O   0  0  0  0  0  0  0  0  0  0  0  0
  149.6386  136.9556  154.5604 N   0  0  0  0  0  0  0  0  0  0  0  0
  150.1185  138.1142  155.2304 C   0  0  0  0  0  0  0  0  0  0  0  0
  150.3351  138.0273  156.6191 C   0  0  0  0  0  0  0  0  0  0  0  0
  150.8245  139.1497  157.3130 C   0  0  0  0  0  0  0  0  0  0  0  0
  151.0935  140.3394  156.5970 C   0  0  0  0  0  0  0  0  0  0  0  0
  151.5812  141.4795  157.2727 N   0  0  0  0  0  0  0  0  0  0  0  0
  151.9140  141.2770  158.6844 C   0  0  0  0  0  0  0  0  0  0  0  0
  152.8008  142.4165  159.2149 C   0  0  0  0  0  0  0  0  0  0  0  0
  152.1545  143.7850  158.9549 C   0  0  0  0  0  0  0  0  0  0  0  0
  151.8354  143.9394  157.4607 C   0  0  0  0  0  0  0  0  0  0  0  0
  150.9688  142.7728  156.9559 C   0  0  0  0  0  0  0  0  0  0  0  0
  150.9020  140.4179  155.2575 N   0  0  0  0  0  0  0  0  0  0  0  0
  150.4311  139.3399  154.5956 C   0  0  0  0  0  0  0  0  0  0  0  0
  149.0917  131.6908  155.1419 H   0  0  0  0  0  0  0  0  0  0  0  0
  149.7687  133.1121  155.9264 H   0  0  0  0  0  0  0  0  0  0  0  0
  150.3364  132.6370  154.3295 H   0  0  0  0  0  0  0  0  0  0  0  0
  147.5418  133.6255  155.0530 H   0  0  0  0  0  0  0  0  0  0  0  0
  148.5898  132.6163  152.3979 H   0  0  0  0  0  0  0  0  0  0  0  0
  147.1287  132.1369  153.2327 H   0  0  0  0  0  0  0  0  0  0  0  0
  147.6762  134.6077  151.9787 H   0  0  0  0  0  0  0  0  0  0  0  0
  148.8406  135.2732  153.1669 H   0  0  0  0  0  0  0  0  0  0  0  0
  149.5977  137.0276  153.5542 H   0  0  0  0  0  0  0  0  0  0  0  0
  150.1298  137.1103  157.1519 H   0  0  0  0  0  0  0  0  0  0  0  0
  151.0012  139.0820  158.3761 H   0  0  0  0  0  0  0  0  0  0  0  0
  150.9858  141.2338  159.2557 H   0  0  0  0  0  0  0  0  0  0  0  0
  152.4234  140.3285  158.8484 H   0  0  0  0  0  0  0  0  0  0  0  0
  152.9805  142.2840  160.2820 H   0  0  0  0  0  0  0  0  0  0  0  0
  153.7765  142.3751  158.7288 H   0  0  0  0  0  0  0  0  0  0  0  0
  151.2379  143.8768  159.5389 H   0  0  0  0  0  0  0  0  0  0  0  0
  152.8184  144.5847  159.2841 H   0  0  0  0  0  0  0  0  0  0  0  0
  151.3261  144.8863  157.2816 H   0  0  0  0  0  0  0  0  0  0  0  0
  152.7653  143.9750  156.8916 H   0  0  0  0  0  0  0  0  0  0  0  0
  150.8347  142.8720  155.8778 H   0  0  0  0  0  0  0  0  0  0  0  0
  149.9780  142.8201  157.4101 H   0  0  0  0  0  0  0  0  0  0  0  0
  150.3286  139.4813  153.5316 H   0  0  0  0  0  0  0  0  0  0  0  0
  1  2  1  0  0  0  0
  1 21  1  0  0  0  0
  1 22  1  0  0  0  0
  1 23  1  0  0  0  0
  2  3  1  0  0  0  0
  2  5  1  0  0  0  0
  2 24  1  0  0  0  0
  3  4  1  0  0  0  0
  3 25  1  0  0  0  0
  3 26  1  0  0  0  0
  4 27  1  0  0  0  0
  5  6  1  0  0  0  0
  5 28  1  0  0  0  0
  6  7  2  0  0  0  0
  6  8  1  0  0  0  0
  8  9  1  0  0  0  0
  8 29  1  0  0  0  0
  9 20  1  0  0  0  0
  9 10  2  0  0  0  0
 10 11  1  0  0  0  0
 10 30  1  0  0  0  0
 11 12  2  0  0  0  0
 11 31  1  0  0  0  0
 12 13  1  0  0  0  0
 12 19  1  0  0  0  0
 13 18  1  0  0  0  0
 13 14  1  0  0  0  0
 14 15  1  0  0  0  0
 14 32  1  0  0  0  0
 14 33  1  0  0  0  0
 15 16  1  0  0  0  0
 15 34  1  0  0  0  0
 15 35  1  0  0  0  0
 16 17  1  0  0  0  0
 16 36  1  0  0  0  0
 16 37  1  0  0  0  0
 17 18  1  0  0  0  0
 17 38  1  0  0  0  0
 17 39  1  0  0  0  0
 18 40  1  0  0  0  0
 18 41  1  0  0  0  0
 19 20  2  0  0  0  0
 20 42  1  0  0  0  0
M  END
> <s_m_source_file>
AV-unprocessed.smi

> <i_m_source_file_index>
2058

> <i_lp_mmshare_version>
43012

> <i_f3d_flags>
0

> <s_epik_input>
W09IXVtDSDJdW0NAQEhdKFtDSDNdKVtOSF1DKD1PKVtOSF1jMVtjSF1bY0hdYyhuW2NIXTEpTjJbQ0gyXVtDSDJdW0NIMl1bQ0gyXVtDSDJdMg==

> <s_epik_cmdline>
J2VwaWtfcHl0aG9uJywgJy1waCcsICc3LjAnLCAnLXRuJywgJzgnLCAnLW1hJywgJzIwMCcsICctbWV0YWxfYmluZGluZycsICctaW1hZScsICc8aW5maWxlLm1hZT4nLCAnLW9tYWUnLCAnPG91dGZpbGUubWFlPic=

> <r_lp_tautomer_probability>
1

> <r_epik_Ionization_Penalty>
0.104828

> <r_epik_Ionization_Penalty_Charging>
0

> <r_epik_Ionization_Penalty_Neutral>
0.104828

> <r_epik_State_Penalty>
0.0887547

> <r_epik_Charging_Adjusted_Penalty>
0.0887547

> <i_epik_Tot_Q>
0

> <i_epik_Tot_abs_Q>
0

> <r_epik_Metal_State_Penalty>
0.0759464

> <b_epik_Metal_Only>
0

> <s_lp_Force_Field>
OPLS_2005

> <r_lp_Energy>
20.4208

> <b_lp_Chiralities_Consistent>
1

> <s_lp_Variant>
AV-unprocessed.smi:2058-1

> <Gold.Version>
5.8.1

> <Gold.Id.Protein>
6NUR|6NUR_protein|mol2

> <Gold.PLP.Fitness>
47.7547

> <Gold.PLP.PLP>
-35.8228

> <Gold.PLP.part.hbond>
-4.0000

> <Gold.PLP.part.metal>
0.0000

> <Gold.PLP.part.buried>
-1.8569

> <Gold.PLP.part.nonpolar>
-29.9085

> <Gold.PLP.part.repulsive>
0.1363

> <Gold.PLP.ligand.clash>
0.0000

> <Gold.PLP.ligand.torsion>
0.4216

> <Gold.PLP.Chemscore.Hbond>
3.1100

> <Gold.PLP.Chemscore.CHOScore>
0.9959

> <Gold.PLP.Chemscore.Metal>
0.0000

> <Gold.Chemscore.Hbonds>
donor molecule, donor type, donor heavy atom, donor atom, acceptor molecule, acceptor atom, score
      L1  H     4    27       P1  7948  1.00
      L1  H     5    28       P1  7948  1.00
      L1  H     8    29       P1  7948  0.96
      P1  H  7989  7998       L1    19  0.15
      L1  C    20    42       P1  7957  1.00

> <Gold.PLP.Chemscore.Internal.Correction>
0.4573

> <Gold.Rescore>
     Score         DG    S(hbond)    S(metal)    S(lipo)     H(rot)  DE(clash)    DE(int)     intcor
     16.78     -18.70       2.47        0.00      87.26       2.05       0.00       1.91       ----

> <Gold.Chemscore.Fitness>
16.7846

> <Gold.Chemscore.DG>
-18.6953

> <Gold.Chemscore.ZeroCoef>
-5.4800

> <Gold.Chemscore.Hbond>
2.4677

> <Gold.Chemscore.Metal>
0.0000

> <Gold.Chemscore.Lipo>
87.2574

> <Gold.Chemscore.Internal_Hbond>
0.0000

> <Gold.Chemscore.DEClash>
0.0048

> <Gold.Chemscore.DEInternal>
1.9059

> <Gold.Chemscore.Rot>
2.0453

> <Gold.Chemscore.Internal.Correction>
   9.000000E+99

> <Gold.Chemscore.Hbonds>
donor molecule, donor type, donor heavy atom, donor atom, acceptor molecule, acceptor atom, score
      L1  H     4    27       P1  7948  0.47
      L1  H     5    28       P1  7948  0.59
      L1  H     8    29       P1  7948  0.72

> <Gold.Chemscore.Hbond.Weighted>
-8.2421

> <Gold.Chemscore.Metal.Weighted>
-0.0000

> <Gold.Chemscore.Lipo.Weighted>
-10.2091

> <Gold.Chemscore.Internal_Hbond.Weighted>
0.0000

> <Gold.Chemscore.DEClash.Weighted>
0.0048

> <Gold.Chemscore.DEInternal.Weighted>
1.9059

> <Gold.Chemscore.Rot.Weighted>
5.2360

> <Gold.Chemscore.Internal.Correction.Weighted>
   9.000000E+99

> <Gold.Protein.RotatedTorsions>
[ 6907 6896 6895 6894 ] final -144.88 input  -60.11 | X-H torsion
[ 7974 7965 7964 7962 ] final   36.70 input  175.53 | X-H torsion
[ 8008 7997 7996 7995 ] final  167.14 input   59.86 | X-H torsion
[ 10167 10162 10161 10158 ] final   -5.13 input  -65.29 | X-H torsion
[ 10718 10713 10712 10709 ] final   28.11 input   66.30 | X-H torsion
[ 10763 10752 10751 10750 ] final  -86.03 input  -60.55 | X-H torsion
[ 11005 11000 10999 10996 ] final   -1.20 input  -57.11 | X-H torsion

> <Gold.Protein.ActiveResidues>
 VAL166  LYS551  ARG553  GLY616  TRP617  ASP618  TYR619  PRO620  LYS621  CYS622 
 ASP623  PHE694  ASN695  SER759  ASP760  ASP761  ALA762  ILE779  LEU786  VAL792 
 PHE793  MET794  SER795  GLU796  ALA797  LYS798  CYS799  TRP800  GLU811  SER814 

> <Gold.Protein.RotatedAtoms>
  151.1200  133.5110  159.2602 H   0  0  0  0  0  0  0  0  0  0  0  0  # atno 6907 bound_to 6896
  151.1872  135.0386  159.8827 H   0  0  0  0  0  0  0  0  0  0  0  0  # atno 6908 bound_to 6896
  152.5455  134.1045  159.8385 H   0  0  0  0  0  0  0  0  0  0  0  0  # atno 6909 bound_to 6896
  146.1192  139.5984  142.9301 H   0  0  0  0  0  0  0  0  0  0  0  0  # atno 7974 bound_to 7965
  156.1659  140.1625  156.8532 H   0  0  0  0  0  0  0  0  0  0  0  0  # atno 8008 bound_to 7997
  154.5207  140.0779  156.8201 H   0  0  0  0  0  0  0  0  0  0  0  0  # atno 8009 bound_to 7997
  155.3612  140.3395  155.4243 H   0  0  0  0  0  0  0  0  0  0  0  0  # atno 8010 bound_to 7997
  140.6952  143.6343  150.8494 H   0  0  0  0  0  0  0  0  0  0  0  0  # atno 10167 bound_to 10162
  157.2290  130.7015  149.6305 H   0  0  0  0  0  0  0  0  0  0  0  0  # atno 10718 bound_to 10713
  154.6178  135.5464  153.7542 H   0  0  0  0  0  0  0  0  0  0  0  0  # atno 10763 bound_to 10752
  153.0224  135.6405  154.1485 H   0  0  0  0  0  0  0  0  0  0  0  0  # atno 10764 bound_to 10752
  154.1420  135.2908  155.3138 H   0  0  0  0  0  0  0  0  0  0  0  0  # atno 10765 bound_to 10752
  140.6447  133.9458  155.8346 H   0  0  0  0  0  0  0  0  0  0  0  0  # atno 11005 bound_to 11000
  145.5503  141.0414  143.2282 LP  0  0  0  0  0  0  0  0  0  0  0  0  # atno 17320 bound_to 7965
  144.7581  139.7025  143.7246 LP  0  0  0  0  0  0  0  0  0  0  0  0  # atno 17321 bound_to 7965
  140.0060  143.5693  152.2857 LP  0  0  0  0  0  0  0  0  0  0  0  0  # atno 17342 bound_to 10162
  139.6399  144.7653  151.2359 LP  0  0  0  0  0  0  0  0  0  0  0  0  # atno 17343 bound_to 10162
  155.9676  130.4495  150.5660 LP  0  0  0  0  0  0  0  0  0  0  0  0  # atno 17370 bound_to 10713
  157.3497  131.0731  151.1723 LP  0  0  0  0  0  0  0  0  0  0  0  0  # atno 17371 bound_to 10713
  141.0581  134.0387  157.3695 LP  0  0  0  0  0  0  0  0  0  0  0  0  # atno 17394 bound_to 11000
  139.9067  135.0181  156.7517 LP  0  0  0  0  0  0  0  0  0  0  0  0  # atno 17395 bound_to 11000

$$$$
