AV-unprocessed.smi:1766|AV-procd|sdf|7137|dock3
  -GOLD-   22720 8373D 1   1.00000     0.00000
 Structure written by MMmdl.
 40 42  0  0  0  0  0  0  0  0  2 V2000
  151.3487  137.7823  157.1701 N   0  0  0  0  0  0  0  0  0  0  0  0
  152.2372  138.3023  156.3194 C   0  0  0  0  0  0  0  0  0  0  0  0
  153.2737  138.8424  156.7005 O   0  0  0  0  0  0  0  0  0  0  0  0
  151.9193  138.2072  154.8254 C   0  0  0  0  0  0  0  0  0  0  0  0
  150.6584  138.9501  154.4967 C   0  0  0  0  0  0  0  0  0  0  0  0
  149.6526  138.4922  153.6956 N   0  3  0  0  0  0  0  0  0  0  0  0
  148.6397  139.4465  153.6091 C   0  0  0  0  0  0  0  0  0  0  0  0
  147.4349  139.4361  152.9131 C   0  0  0  0  0  0  0  0  0  0  0  0
  146.6230  140.5827  153.0369 C   0  0  0  0  0  0  0  0  0  0  0  0
  147.0189  141.6801  153.8288 C   0  0  0  0  0  0  0  0  0  0  0  0
  148.2419  141.6773  154.5319 C   0  0  0  0  0  0  0  0  0  0  0  0
  149.0387  140.5396  154.4039 C   0  0  0  0  0  0  0  0  0  0  0  0
  150.2829  140.1876  154.9403 N   0  0  0  0  0  0  0  0  0  0  0  0
  150.9570  141.1354  155.8434 C   0  0  0  0  0  0  0  0  0  0  0  0
  150.8125  140.7601  157.3313 C   0  0  2  0  0  0  0  0  0  0  0  0
  149.5175  140.2467  157.5749 O   0  0  0  0  0  0  0  0  0  0  0  0
  151.1423  141.9417  158.2296 C   0  0  0  0  0  0  0  0  0  0  0  0
  152.2105  141.8513  159.1479 C   0  0  0  0  0  0  0  0  0  0  0  0
  152.5285  142.9448  159.9769 C   0  0  0  0  0  0  0  0  0  0  0  0
  151.7818  144.1354  159.8911 C   0  0  0  0  0  0  0  0  0  0  0  0
  152.0876  145.1862  160.6883 F   0  0  0  0  0  0  0  0  0  0  0  0
  150.7176  144.2331  158.9744 C   0  0  0  0  0  0  0  0  0  0  0  0
  150.3994  143.1403  158.1447 C   0  0  0  0  0  0  0  0  0  0  0  0
  151.5197  137.8303  158.1643 H   0  0  0  0  0  0  0  0  0  0  0  0
  150.5066  137.3481  156.8198 H   0  0  0  0  0  0  0  0  0  0  0  0
  152.7430  138.6338  154.2521 H   0  0  0  0  0  0  0  0  0  0  0  0
  151.8390  137.1613  154.5309 H   0  0  0  0  0  0  0  0  0  0  0  0
  147.1304  138.5962  152.3056 H   0  0  0  0  0  0  0  0  0  0  0  0
  145.6785  140.6212  152.5136 H   0  0  0  0  0  0  0  0  0  0  0  0
  146.3709  142.5419  153.8986 H   0  0  0  0  0  0  0  0  0  0  0  0
  148.5354  142.5241  155.1346 H   0  0  0  0  0  0  0  0  0  0  0  0
  152.0089  141.1882  155.5603 H   0  0  0  0  0  0  0  0  0  0  0  0
  150.5512  142.1296  155.6569 H   0  0  0  0  0  0  0  0  0  0  0  0
  151.5108  139.9545  157.5613 H   0  0  0  0  0  0  0  0  0  0  0  0
  149.3690  139.5218  156.9866 H   0  0  0  0  0  0  0  0  0  0  0  0
  152.7915  140.9435  159.2199 H   0  0  0  0  0  0  0  0  0  0  0  0
  153.3461  142.8704  160.6787 H   0  0  0  0  0  0  0  0  0  0  0  0
  150.1457  145.1470  158.9072 H   0  0  0  0  0  0  0  0  0  0  0  0
  149.5842  143.2265  157.4412 H   0  0  0  0  0  0  0  0  0  0  0  0
  149.6683  137.5912  153.2347 H   0  0  0  0  0  0  0  0  0  0  0  0
  1  2  1  0  0  0  0
  1 24  1  0  0  0  0
  1 25  1  0  0  0  0
  2  3  2  0  0  0  0
  2  4  1  0  0  0  0
  4  5  1  0  0  0  0
  4 26  1  0  0  0  0
  4 27  1  0  0  0  0
  5 13  1  0  0  0  0
  5  6  2  0  0  0  0
  6  7  1  0  0  0  0
  6 40  1  0  0  0  0
  7 12  2  0  0  0  0
  7  8  1  0  0  0  0
  8  9  2  0  0  0  0
  8 28  1  0  0  0  0
  9 10  1  0  0  0  0
  9 29  1  0  0  0  0
 10 11  2  0  0  0  0
 10 30  1  0  0  0  0
 11 12  1  0  0  0  0
 11 31  1  0  0  0  0
 12 13  1  0  0  0  0
 13 14  1  0  0  0  0
 14 15  1  0  0  0  0
 14 32  1  0  0  0  0
 14 33  1  0  0  0  0
 15 16  1  0  0  0  0
 15 17  1  0  0  0  0
 15 34  1  0  0  0  0
 16 35  1  0  0  0  0
 17 23  1  0  0  0  0
 17 18  2  0  0  0  0
 18 19  1  0  0  0  0
 18 36  1  0  0  0  0
 19 20  2  0  0  0  0
 19 37  1  0  0  0  0
 20 21  1  0  0  0  0
 20 22  1  0  0  0  0
 22 23  2  0  0  0  0
 22 38  1  0  0  0  0
 23 39  1  0  0  0  0
M  CHG  1   6   1
M  END
> <s_m_source_file>
AV-unprocessed.smi

> <i_m_source_file_index>
1766

> <i_lp_mmshare_version>
43012

> <i_f3d_flags>
0

> <s_epik_input>
W2NIXTFbY0hdW2NIXVtjSF1jKGMxMiluKGMobjIpW0NIMl1DKD1PKVtOSDJdKVtDSDJdW0NASF0oW09IXSljM1tjSF1bY0hdYyhGKVtjSF1bY0hdMw==

> <s_epik_cmdline>
J2VwaWtfcHl0aG9uJywgJy1waCcsICc3LjAnLCAnLXRuJywgJzgnLCAnLW1hJywgJzIwMCcsICctbWV0YWxfYmluZGluZycsICctaW1hZScsICc8aW5maWxlLm1hZT4nLCAnLW9tYWUnLCAnPG91dGZpbGUubWFlPic=

> <r_epik_Ionization_Penalty>
1.66646

> <r_epik_Ionization_Penalty_Charging>
1.66645

> <r_epik_Ionization_Penalty_Neutral>
2.12833e-06

> <r_epik_State_Penalty>
1.76975

> <r_epik_Charging_Adjusted_Penalty>
3.43621

> <i_epik_Tot_Q>
1

> <i_epik_Tot_abs_Q>
1

> <r_epik_Metal_State_Penalty>
1.80493

> <b_epik_Metal_Only>
0

> <s_lp_Force_Field>
OPLS_2005

> <r_lp_Energy>
14.4919

> <b_lp_Chiralities_Consistent>
1

> <s_lp_Variant>
AV-unprocessed.smi:1766-3

> <Gold.Version>
5.8.1

> <Gold.Id.Protein>
6NUR|6NUR_protein|mol2

> <Gold.PLP.Fitness>
54.5543

> <Gold.PLP.PLP>
-46.7678

> <Gold.PLP.part.hbond>
-3.0000

> <Gold.PLP.part.metal>
0.0000

> <Gold.PLP.part.buried>
2.3738

> <Gold.PLP.part.nonpolar>
-46.8243

> <Gold.PLP.part.repulsive>
0.1185

> <Gold.PLP.ligand.clash>
0.0000

> <Gold.PLP.ligand.torsion>
0.6491

> <Gold.PLP.Chemscore.Hbond>
3.0000

> <Gold.PLP.Chemscore.CHOScore>
0.0000

> <Gold.PLP.Chemscore.Metal>
0.0000

> <Gold.Chemscore.Hbonds>
donor molecule, donor type, donor heavy atom, donor atom, acceptor molecule, acceptor atom, score
      L1  H     6    40       P1  7948  2.00
      P1  H  7997  8009       L1     3  1.00

> <Gold.PLP.Chemscore.Internal.Correction>
0.0846

> <Gold.Rescore>
     Score         DG    S(hbond)    S(metal)    S(lipo)     H(rot)  DE(clash)    DE(int)     intcor
     15.07     -17.70       1.97        0.00     114.75       3.05       1.83       0.80       ----

> <Gold.Chemscore.Fitness>
15.0672

> <Gold.Chemscore.DG>
-17.6993

> <Gold.Chemscore.ZeroCoef>
-5.4800

> <Gold.Chemscore.Hbond>
1.9741

> <Gold.Chemscore.Metal>
0.0000

> <Gold.Chemscore.Lipo>
114.7530

> <Gold.Chemscore.Internal_Hbond>
0.0000

> <Gold.Chemscore.DEClash>
1.8334

> <Gold.Chemscore.DEInternal>
0.7987

> <Gold.Chemscore.Rot>
3.0470

> <Gold.Chemscore.Internal.Correction>
   9.000000E+99

> <Gold.Chemscore.Hbonds>
donor molecule, donor type, donor heavy atom, donor atom, acceptor molecule, acceptor atom, score
      L1  H     6    40       P1  7948  0.68
      P1  H  7997  8009       L1     3  0.95

> <Gold.Chemscore.Hbond.Weighted>
-6.5936

> <Gold.Chemscore.Metal.Weighted>
-0.0000

> <Gold.Chemscore.Lipo.Weighted>
-13.4261

> <Gold.Chemscore.Internal_Hbond.Weighted>
0.0000

> <Gold.Chemscore.DEClash.Weighted>
1.8334

> <Gold.Chemscore.DEInternal.Weighted>
0.7987

> <Gold.Chemscore.Rot.Weighted>
7.8004

> <Gold.Chemscore.Internal.Correction.Weighted>
   9.000000E+99

> <Gold.Protein.RotatedTorsions>
[ 6907 6896 6895 6894 ] final  -20.97 input  -60.11 | X-H torsion
[ 7974 7965 7964 7962 ] final  141.62 input  175.53 | X-H torsion
[ 8008 7997 7996 7995 ] final -165.52 input   59.86 | X-H torsion
[ 10167 10162 10161 10158 ] final -123.84 input  -65.29 | X-H torsion
[ 10718 10713 10712 10709 ] final  -44.79 input   66.30 | X-H torsion
[ 10763 10752 10751 10750 ] final  -14.11 input  -60.55 | X-H torsion
[ 11005 11000 10999 10996 ] final   78.21 input  -57.11 | X-H torsion

> <Gold.Protein.ActiveResidues>
 VAL166  LYS551  ARG553  GLY616  TRP617  ASP618  TYR619  PRO620  LYS621  CYS622 
 ASP623  PHE694  ASN695  SER759  ASP760  ASP761  ALA762  ILE779  LEU786  VAL792 
 PHE793  MET794  SER795  GLU796  ALA797  LYS798  CYS799  TRP800  GLU811  SER814 

> <Gold.Protein.RotatedAtoms>
  151.2402  135.0586  159.9021 H   0  0  0  0  0  0  0  0  0  0  0  0  # atno 6907 bound_to 6896
  152.5394  134.0442  159.8091 H   0  0  0  0  0  0  0  0  0  0  0  0  # atno 6908 bound_to 6896
  151.0635  133.5476  159.2664 H   0  0  0  0  0  0  0  0  0  0  0  0  # atno 6909 bound_to 6896
  144.9080  139.5332  143.5722 H   0  0  0  0  0  0  0  0  0  0  0  0  # atno 7974 bound_to 7965
  155.8509  140.0963  157.1675 H   0  0  0  0  0  0  0  0  0  0  0  0  # atno 8008 bound_to 7997
  154.3985  140.1383  156.3905 H   0  0  0  0  0  0  0  0  0  0  0  0  # atno 8009 bound_to 7997
  155.7962  140.3454  155.5379 H   0  0  0  0  0  0  0  0  0  0  0  0  # atno 8010 bound_to 7997
  139.9992  143.5559  152.2310 H   0  0  0  0  0  0  0  0  0  0  0  0  # atno 10167 bound_to 10162
  156.2350  130.4175  149.8829 H   0  0  0  0  0  0  0  0  0  0  0  0  # atno 10718 bound_to 10713
  153.5233  135.7015  153.5720 H   0  0  0  0  0  0  0  0  0  0  0  0  # atno 10763 bound_to 10752
  153.3760  135.3932  155.1822 H   0  0  0  0  0  0  0  0  0  0  0  0  # atno 10764 bound_to 10752
  154.8692  135.3823  154.4724 H   0  0  0  0  0  0  0  0  0  0  0  0  # atno 10765 bound_to 10752
  139.9222  134.7745  156.1620 H   0  0  0  0  0  0  0  0  0  0  0  0  # atno 11005 bound_to 11000
  146.3143  139.7863  142.8995 LP  0  0  0  0  0  0  0  0  0  0  0  0  # atno 17320 bound_to 7965
  145.3503  141.0306  143.3342 LP  0  0  0  0  0  0  0  0  0  0  0  0  # atno 17321 bound_to 7965
  139.6284  144.7641  151.2588 LP  0  0  0  0  0  0  0  0  0  0  0  0  # atno 17342 bound_to 10162
  140.7425  143.6522  150.8238 LP  0  0  0  0  0  0  0  0  0  0  0  0  # atno 17343 bound_to 10162
  156.6431  130.8713  151.3517 LP  0  0  0  0  0  0  0  0  0  0  0  0  # atno 17370 bound_to 10713
  157.7150  130.9486  150.1223 LP  0  0  0  0  0  0  0  0  0  0  0  0  # atno 17371 bound_to 10713
  141.0752  133.6779  156.2222 LP  0  0  0  0  0  0  0  0  0  0  0  0  # atno 17394 bound_to 11000
  140.6440  134.5136  157.5572 LP  0  0  0  0  0  0  0  0  0  0  0  0  # atno 17395 bound_to 11000

$$$$
