AV-unprocessed.smi:2648|AV-procd|sdf|10288|dock2
  -GOLD-   2272014303D 1   1.00000     0.00000
 Structure written by MMmdl.
 32 33  0  0  0  0  0  0  0  0  3 V2000
  146.5547  131.9898  153.7790 O   0  0  0  0  0  0  0  0  0  0  0  0
  147.2640  131.6758  152.8235 C   0  0  0  0  0  0  0  0  0  0  0  0
  148.5054  131.1865  152.9521 N   0  0  0  0  0  0  0  0  0  0  0  0
  149.1831  130.9567  154.2220 C   0  0  0  0  0  0  0  0  0  0  0  0
  149.6634  132.2773  154.8500 C   0  0  0  0  0  0  0  0  0  0  0  0
  150.6443  132.0327  155.9110 N   0  0  0  0  0  0  0  0  0  0  0  0
  151.5387  131.0398  155.8946 C   0  0  0  0  0  0  0  0  0  0  0  0
  151.6951  130.1764  155.0309 O   0  0  0  0  0  0  0  0  0  0  0  0
  152.3695  131.1554  157.1513 C   0  0  0  0  0  0  0  0  0  0  0  0
  151.8011  132.3203  157.7913 N   0  5  0  0  0  0  0  0  0  0  0  0
  150.7982  132.7909  157.0133 C   0  0  0  0  0  0  0  0  0  0  0  0
  150.0956  133.7766  157.2355 O   0  0  0  0  0  0  0  0  0  0  0  0
  146.9014  131.7531  151.5313 N   0  0  0  0  0  0  0  0  0  0  0  0
  145.6778  132.2267  150.9846 C   0  0  0  0  0  0  0  0  0  0  0  0
  144.6451  132.5663  151.8870 C   0  0  0  0  0  0  0  0  0  0  0  0
  143.4088  133.0257  151.3890 C   0  0  0  0  0  0  0  0  0  0  0  0
  143.2168  133.1278  150.0563 N   0  3  0  0  0  0  0  0  0  0  0  0
  144.1675  132.8011  149.1548 C   0  0  0  0  0  0  0  0  0  0  0  0
  145.4243  132.3361  149.5933 C   0  0  0  0  0  0  0  0  0  0  0  0
  149.0187  130.9493  152.1159 H   0  0  0  0  0  0  0  0  0  0  0  0
  148.4819  130.4586  154.8923 H   0  0  0  0  0  0  0  0  0  0  0  0
  150.0199  130.2697  154.0831 H   0  0  0  0  0  0  0  0  0  0  0  0
  150.0996  132.9235  154.0867 H   0  0  0  0  0  0  0  0  0  0  0  0
  148.8124  132.8305  155.2510 H   0  0  0  0  0  0  0  0  0  0  0  0
  152.2716  130.2464  157.7456 H   0  0  0  0  0  0  0  0  0  0  0  0
  153.4216  131.2775  156.8911 H   0  0  0  0  0  0  0  0  0  0  0  0
  147.5580  131.3739  150.8648 H   0  0  0  0  0  0  0  0  0  0  0  0
  144.7975  132.4828  152.9535 H   0  0  0  0  0  0  0  0  0  0  0  0
  142.5737  133.3105  152.0125 H   0  0  0  0  0  0  0  0  0  0  0  0
  143.8952  132.9144  148.1154 H   0  0  0  0  0  0  0  0  0  0  0  0
  146.1624  132.0617  148.8550 H   0  0  0  0  0  0  0  0  0  0  0  0
  142.3140  133.4608  149.7161 H   0  0  0  0  0  0  0  0  0  0  0  0
  1  2  2  0  0  0  0
  2  3  1  0  0  0  0
  2 13  1  0  0  0  0
  3  4  1  0  0  0  0
  3 20  1  0  0  0  0
  4  5  1  0  0  0  0
  4 21  1  0  0  0  0
  4 22  1  0  0  0  0
  5  6  1  0  0  0  0
  5 23  1  0  0  0  0
  5 24  1  0  0  0  0
  6 11  1  0  0  0  0
  6  7  1  0  0  0  0
  7  8  2  0  0  0  0
  7  9  1  0  0  0  0
  9 10  1  0  0  0  0
  9 25  1  0  0  0  0
  9 26  1  0  0  0  0
 10 11  1  0  0  0  0
 11 12  2  0  0  0  0
 13 14  1  0  0  0  0
 13 27  1  0  0  0  0
 14 19  1  0  0  0  0
 14 15  2  0  0  0  0
 15 16  1  0  0  0  0
 15 28  1  0  0  0  0
 16 17  2  0  0  0  0
 16 29  1  0  0  0  0
 17 18  1  0  0  0  0
 17 32  1  0  0  0  0
 18 19  2  0  0  0  0
 18 30  1  0  0  0  0
 19 31  1  0  0  0  0
M  CHG  1  10  -1
M  CHG  1  17   1
M  END
> <s_m_source_file>
AV-unprocessed.smi

> <i_m_source_file_index>
2648

> <i_lp_mmshare_version>
43012

> <i_f3d_flags>
0

> <s_epik_input>
W2NIXTFbY0hdbltjSF1bY0hdYzFbTkhdQyg9TylbTkhdW0NIMl1bQ0gyXU4yQyg9TylbQ0gyXVtOSF1DMj1P

> <s_epik_cmdline>
J2VwaWtfcHl0aG9uJywgJy1waCcsICc3LjAnLCAnLXRuJywgJzgnLCAnLW1hJywgJzIwMCcsICctbWV0YWxfYmluZGluZycsICctaW1hZScsICc8aW5maWxlLm1hZT4nLCAnLW9tYWUnLCAnPG91dGZpbGUubWFlPic=

> <r_lp_tautomer_probability>
1

> <r_epik_Ionization_Penalty>
6.85559

> <r_epik_Ionization_Penalty_Charging>
6.85558

> <r_epik_Ionization_Penalty_Neutral>
1.85947e-05

> <r_epik_State_Penalty>
6.90892

> <r_epik_Charging_Adjusted_Penalty>
13.7645

> <i_epik_Tot_Q>
0

> <i_epik_Tot_abs_Q>
2

> <r_epik_Metal_State_Penalty>
2.96744

> <b_epik_Metal_Only>
1

> <s_lp_Force_Field>
OPLS_2005

> <r_lp_Energy>
20.2927

> <b_lp_Chiralities_Consistent>
1

> <s_lp_Variant>
AV-unprocessed.smi:2648-4

> <Gold.Version>
5.8.1

> <Gold.Id.Protein>
6NUR|6NUR_protein|mol2

> <Gold.PLP.Fitness>
50.3256

> <Gold.PLP.PLP>
-33.4949

> <Gold.PLP.part.hbond>
-4.6586

> <Gold.PLP.part.metal>
0.0000

> <Gold.PLP.part.buried>
-3.5903

> <Gold.PLP.part.nonpolar>
-25.1223

> <Gold.PLP.part.repulsive>
0.2489

> <Gold.PLP.ligand.clash>
0.0276

> <Gold.PLP.ligand.torsion>
0.5237

> <Gold.PLP.Chemscore.Hbond>
5.9600

> <Gold.PLP.Chemscore.CHOScore>
0.0000

> <Gold.PLP.Chemscore.Metal>
0.0000

> <Gold.Chemscore.Hbonds>
donor molecule, donor type, donor heavy atom, donor atom, acceptor molecule, acceptor atom, score
      L1  H     3    20       P1 10747  0.96
      L1  H    13    27       P1 10747  1.00
      L1  H    17    32       P1 10186  2.00
      P1  H  6896  6909       L1    10  2.00

> <Gold.PLP.Chemscore.Internal.Correction>
0.0258

> <Gold.Rescore>
     Score         DG    S(hbond)    S(metal)    S(lipo)     H(rot)  DE(clash)    DE(int)     intcor
     15.73     -19.15       3.46        0.00      60.26       1.93       0.01       3.42       ----

> <Gold.Chemscore.Fitness>
15.7251

> <Gold.Chemscore.DG>
-19.1507

> <Gold.Chemscore.ZeroCoef>
-5.4800

> <Gold.Chemscore.Hbond>
3.4602

> <Gold.Chemscore.Metal>
0.0000

> <Gold.Chemscore.Lipo>
60.2585

> <Gold.Chemscore.Internal_Hbond>
0.0000

> <Gold.Chemscore.DEClash>
0.0073

> <Gold.Chemscore.DEInternal>
3.4182

> <Gold.Chemscore.Rot>
1.9284

> <Gold.Chemscore.Internal.Correction>
   9.000000E+99

> <Gold.Chemscore.Hbonds>
donor molecule, donor type, donor heavy atom, donor atom, acceptor molecule, acceptor atom, score
      L1  H     3    20       P1 10747  0.41
      L1  H    13    27       P1 10747  0.99
      L1  H    17    32       P1 10186  0.99
      P1  H  6896  6909       L1    10  0.30

> <Gold.Chemscore.Hbond.Weighted>
-11.5570

> <Gold.Chemscore.Metal.Weighted>
-0.0000

> <Gold.Chemscore.Lipo.Weighted>
-7.0502

> <Gold.Chemscore.Internal_Hbond.Weighted>
0.0000

> <Gold.Chemscore.DEClash.Weighted>
0.0073

> <Gold.Chemscore.DEInternal.Weighted>
3.4182

> <Gold.Chemscore.Rot.Weighted>
4.9366

> <Gold.Chemscore.Internal.Correction.Weighted>
   9.000000E+99

> <Gold.Protein.RotatedTorsions>
[ 6907 6896 6895 6894 ] final  -55.12 input  -60.11 | X-H torsion
[ 7974 7965 7964 7962 ] final  142.29 input  175.53 | X-H torsion
[ 8008 7997 7996 7995 ] final   30.19 input   59.86 | X-H torsion
[ 10167 10162 10161 10158 ] final   73.21 input  -65.29 | X-H torsion
[ 10718 10713 10712 10709 ] final -162.17 input   66.30 | X-H torsion
[ 10763 10752 10751 10750 ] final  -48.63 input  -60.55 | X-H torsion
[ 11005 11000 10999 10996 ] final   17.50 input  -57.11 | X-H torsion

> <Gold.Protein.ActiveResidues>
 VAL166  LYS551  ARG553  GLY616  TRP617  ASP618  TYR619  PRO620  LYS621  CYS622 
 ASP623  PHE694  ASN695  SER759  ASP760  ASP761  ALA762  ILE779  LEU786  VAL792 
 PHE793  MET794  SER795  GLU796  ALA797  LYS798  CYS799  TRP800  GLU811  SER814 

> <Gold.Protein.RotatedAtoms>
  150.8279  134.7518  159.6827 H   0  0  0  0  0  0  0  0  0  0  0  0  # atno 6907 bound_to 6896
  152.4387  134.5631  159.9909 H   0  0  0  0  0  0  0  0  0  0  0  0  # atno 6908 bound_to 6896
  151.5799  133.3341  159.3042 H   0  0  0  0  0  0  0  0  0  0  0  0  # atno 6909 bound_to 6896
  144.9020  139.5409  143.5749 H   0  0  0  0  0  0  0  0  0  0  0  0  # atno 7974 bound_to 7965
  155.0865  140.3215  155.4586 H   0  0  0  0  0  0  0  0  0  0  0  0  # atno 8008 bound_to 7997
  156.2754  140.2085  156.5939 H   0  0  0  0  0  0  0  0  0  0  0  0  # atno 8009 bound_to 7997
  154.6937  140.0514  157.0376 H   0  0  0  0  0  0  0  0  0  0  0  0  # atno 8010 bound_to 7997
  140.0270  144.5496  150.7537 H   0  0  0  0  0  0  0  0  0  0  0  0  # atno 10167 bound_to 10162
  156.6066  130.8833  151.2926 H   0  0  0  0  0  0  0  0  0  0  0  0  # atno 10718 bound_to 10713
  154.0809  135.6591  153.4838 H   0  0  0  0  0  0  0  0  0  0  0  0  # atno 10763 bound_to 10752
  153.0356  135.5179  154.7475 H   0  0  0  0  0  0  0  0  0  0  0  0  # atno 10764 bound_to 10752
  154.6569  135.3009  154.9884 H   0  0  0  0  0  0  0  0  0  0  0  0  # atno 10765 bound_to 10752
  140.4353  134.1378  155.7684 H   0  0  0  0  0  0  0  0  0  0  0  0  # atno 11005 bound_to 11000
  146.3113  139.7758  142.9017 LP  0  0  0  0  0  0  0  0  0  0  0  0  # atno 17320 bound_to 7965
  145.3600  141.0324  143.3290 LP  0  0  0  0  0  0  0  0  0  0  0  0  # atno 17321 bound_to 7965
  140.7318  143.2699  151.3923 LP  0  0  0  0  0  0  0  0  0  0  0  0  # atno 17342 bound_to 10162
  139.6102  144.1115  152.2290 LP  0  0  0  0  0  0  0  0  0  0  0  0  # atno 17343 bound_to 10162
  157.7265  130.9630  150.1660 LP  0  0  0  0  0  0  0  0  0  0  0  0  # atno 17370 bound_to 10713
  156.2424  130.3692  149.8322 LP  0  0  0  0  0  0  0  0  0  0  0  0  # atno 17371 bound_to 10713
  141.1728  133.8574  157.1516 LP  0  0  0  0  0  0  0  0  0  0  0  0  # atno 17394 bound_to 11000
  140.0106  134.9989  157.0388 LP  0  0  0  0  0  0  0  0  0  0  0  0  # atno 17395 bound_to 11000

$$$$
