AV-unprocessed.smi:2130|AV-procd|sdf|8685|dock3
  -GOLD-   2272011433D 1   1.00000     0.00000
 Structure written by MMmdl.
 32 33  0  0  0  0  0  0  0  0  1 V2000
  148.4952  140.9181  154.2457 C   0  0  0  0  0  0  0  0  0  0  0  0
  149.7610  140.0983  154.4272 C   0  0  0  0  0  0  0  0  0  0  0  0
  149.9849  138.8877  153.9052 C   0  0  0  0  0  0  0  0  0  0  0  0
  151.5702  138.2659  154.2946 S   0  0  0  0  0  0  0  0  0  0  0  0
  151.9385  139.7633  155.2232 C   0  0  0  0  0  0  0  0  0  0  0  0
  153.0128  139.9476  155.7933 O   0  0  0  0  0  0  0  0  0  0  0  0
  150.8324  140.6114  155.1720 N   0  0  0  0  0  0  0  0  0  0  0  0
  150.8050  141.9152  155.8481 C   0  0  0  0  0  0  0  0  0  0  0  0
  151.2467  141.8385  157.3153 C   0  0  0  0  0  0  0  0  0  0  0  0
  151.6183  140.7725  157.8083 O   0  0  0  0  0  0  0  0  0  0  0  0
  151.2155  142.9940  157.9973 N   0  0  0  0  0  0  0  0  0  0  0  0
  151.5994  143.1677  159.3948 C   0  0  2  0  0  0  0  0  0  0  0  0
  151.3942  144.6324  159.8153 C   0  0  0  0  0  0  0  0  0  0  0  0
  153.0262  142.7253  159.6596 C   0  0  0  0  0  0  0  0  0  0  0  0
  153.3441  141.2962  160.0288 C   0  0  0  0  0  0  0  0  0  0  0  0
  153.4951  142.3954  161.0565 C   0  0  0  0  0  0  0  0  0  0  0  0
  147.9087  140.5313  153.4121 H   0  0  0  0  0  0  0  0  0  0  0  0
  148.7201  141.9625  154.0296 H   0  0  0  0  0  0  0  0  0  0  0  0
  147.8796  140.8689  155.1441 H   0  0  0  0  0  0  0  0  0  0  0  0
  149.3013  138.3177  153.2933 H   0  0  0  0  0  0  0  0  0  0  0  0
  151.4213  142.6470  155.3269 H   0  0  0  0  0  0  0  0  0  0  0  0
  149.7900  142.3146  155.8065 H   0  0  0  0  0  0  0  0  0  0  0  0
  150.9006  143.8203  157.5097 H   0  0  0  0  0  0  0  0  0  0  0  0
  150.9479  142.5460  160.0124 H   0  0  0  0  0  0  0  0  0  0  0  0
  151.6395  144.7749  160.8681 H   0  0  0  0  0  0  0  0  0  0  0  0
  150.3586  144.9448  159.6777 H   0  0  0  0  0  0  0  0  0  0  0  0
  152.0250  145.3052  159.2334 H   0  0  0  0  0  0  0  0  0  0  0  0
  153.7590  143.2243  159.0275 H   0  0  0  0  0  0  0  0  0  0  0  0
  152.5117  140.6060  160.1512 H   0  0  0  0  0  0  0  0  0  0  0  0
  154.2533  140.8624  159.6173 H   0  0  0  0  0  0  0  0  0  0  0  0
  154.5049  142.6938  161.3304 H   0  0  0  0  0  0  0  0  0  0  0  0
  152.7631  142.4337  161.8608 H   0  0  0  0  0  0  0  0  0  0  0  0
  1  2  1  0  0  0  0
  1 17  1  0  0  0  0
  1 18  1  0  0  0  0
  1 19  1  0  0  0  0
  2  7  1  0  0  0  0
  2  3  2  0  0  0  0
  3  4  1  0  0  0  0
  3 20  1  0  0  0  0
  4  5  1  0  0  0  0
  5  6  2  0  0  0  0
  5  7  1  0  0  0  0
  7  8  1  0  0  0  0
  8  9  1  0  0  0  0
  8 21  1  0  0  0  0
  8 22  1  0  0  0  0
  9 10  2  0  0  0  0
  9 11  1  0  0  0  0
 11 12  1  0  0  0  0
 11 23  1  0  0  0  0
 12 13  1  0  0  0  0
 12 14  1  0  0  0  0
 12 24  1  0  0  0  0
 13 25  1  0  0  0  0
 13 26  1  0  0  0  0
 13 27  1  0  0  0  0
 14 16  1  0  0  0  0
 14 15  1  0  0  0  0
 14 28  1  0  0  0  0
 15 16  1  0  0  0  0
 15 29  1  0  0  0  0
 15 30  1  0  0  0  0
 16 31  1  0  0  0  0
 16 32  1  0  0  0  0
M  END
> <s_m_source_file>
AV-unprocessed.smi

> <i_m_source_file_index>
2130

> <i_lp_mmshare_version>
43012

> <i_f3d_flags>
0

> <s_epik_input>
W0NIM11jMVtjSF1zYyg9TyluMVtDSDJdQyg9TylbTkhdW0NASF0oW0NIM10pW0NIXTJbQ0gyXVtDSDJdMg==

> <s_epik_cmdline>
J2VwaWtfcHl0aG9uJywgJy1waCcsICc3LjAnLCAnLXRuJywgJzgnLCAnLW1hJywgJzIwMCcsICctbWV0YWxfYmluZGluZycsICctaW1hZScsICc8aW5maWxlLm1hZT4nLCAnLW9tYWUnLCAnPG91dGZpbGUubWFlPic=

> <r_lp_tautomer_probability>
1

> <r_epik_Ionization_Penalty>
1.32882e-06

> <r_epik_Ionization_Penalty_Charging>
1.22222e-06

> <r_epik_Ionization_Penalty_Neutral>
1.066e-07

> <r_epik_State_Penalty>
-0

> <r_epik_Charging_Adjusted_Penalty>
1.22222e-06

> <i_epik_Tot_Q>
0

> <i_epik_Tot_abs_Q>
0

> <r_epik_Metal_State_Penalty>
-0

> <b_epik_Metal_Only>
0

> <s_lp_Force_Field>
OPLS_2005

> <r_lp_Energy>
16.6118

> <b_lp_Chiralities_Consistent>
1

> <s_lp_Variant>
AV-unprocessed.smi:2130-1

> <Gold.Version>
5.8.1

> <Gold.Id.Protein>
6NUR|6NUR_protein|mol2

> <Gold.PLP.Fitness>
46.8089

> <Gold.PLP.PLP>
-41.0232

> <Gold.PLP.part.hbond>
-1.0000

> <Gold.PLP.part.metal>
0.0000

> <Gold.PLP.part.buried>
-3.1505

> <Gold.PLP.part.nonpolar>
-36.0320

> <Gold.PLP.part.repulsive>
0.0251

> <Gold.PLP.ligand.clash>
0.0000

> <Gold.PLP.ligand.torsion>
0.6452

> <Gold.PLP.Chemscore.Hbond>
1.0000

> <Gold.PLP.Chemscore.CHOScore>
1.0000

> <Gold.PLP.Chemscore.Metal>
0.0000

> <Gold.Chemscore.Hbonds>
donor molecule, donor type, donor heavy atom, donor atom, acceptor molecule, acceptor atom, score
      P1  H  7997  8010       L1     6  0.86
      L1  C     3    20       P1  7948  1.00
      L1  C     3    20       P1  7957  0.12

> <Gold.PLP.Chemscore.Internal.Correction>
1.0761

> <Gold.Rescore>
     Score         DG    S(hbond)    S(metal)    S(lipo)     H(rot)  DE(clash)    DE(int)     intcor
     11.95     -15.28       1.00        0.00      90.10       1.59       0.08       3.26       ----

> <Gold.Chemscore.Fitness>
11.9487

> <Gold.Chemscore.DG>
-15.2820

> <Gold.Chemscore.ZeroCoef>
-5.4800

> <Gold.Chemscore.Hbond>
0.9991

> <Gold.Chemscore.Metal>
0.0000

> <Gold.Chemscore.Lipo>
90.1036

> <Gold.Chemscore.Internal_Hbond>
0.0000

> <Gold.Chemscore.DEClash>
0.0777

> <Gold.Chemscore.DEInternal>
3.2557

> <Gold.Chemscore.Rot>
1.5926

> <Gold.Chemscore.Internal.Correction>
   9.000000E+99

> <Gold.Chemscore.Hbonds>
donor molecule, donor type, donor heavy atom, donor atom, acceptor molecule, acceptor atom, score
      P1  H  7997  8010       L1     6  0.80

> <Gold.Chemscore.Hbond.Weighted>
-3.3369

> <Gold.Chemscore.Metal.Weighted>
-0.0000

> <Gold.Chemscore.Lipo.Weighted>
-10.5421

> <Gold.Chemscore.Internal_Hbond.Weighted>
0.0000

> <Gold.Chemscore.DEClash.Weighted>
0.0777

> <Gold.Chemscore.DEInternal.Weighted>
3.2557

> <Gold.Chemscore.Rot.Weighted>
4.0771

> <Gold.Chemscore.Internal.Correction.Weighted>
   9.000000E+99

> <Gold.Protein.RotatedTorsions>
[ 6907 6896 6895 6894 ] final  -32.22 input  -60.11 | X-H torsion
[ 7974 7965 7964 7962 ] final -179.25 input  175.53 | X-H torsion
[ 8008 7997 7996 7995 ] final   70.81 input   59.86 | X-H torsion
[ 10167 10162 10161 10158 ] final    4.37 input  -65.29 | X-H torsion
[ 10718 10713 10712 10709 ] final  -44.82 input   66.30 | X-H torsion
[ 10763 10752 10751 10750 ] final -124.84 input  -60.55 | X-H torsion
[ 11005 11000 10999 10996 ] final  -42.93 input  -57.11 | X-H torsion

> <Gold.Protein.ActiveResidues>
 VAL166  LYS551  ARG553  GLY616  TRP617  ASP618  TYR619  PRO620  LYS621  CYS622 
 ASP623  PHE694  ASN695  SER759  ASP760  ASP761  ALA762  ILE779  LEU786  VAL792 
 PHE793  MET794  SER795  GLU796  ALA797  LYS798  CYS799  TRP800  GLU811  SER814 

> <Gold.Protein.RotatedAtoms>
  151.0816  134.9861  159.8358 H   0  0  0  0  0  0  0  0  0  0  0  0  # atno 6907 bound_to 6896
  152.5420  134.2175  159.8784 H   0  0  0  0  0  0  0  0  0  0  0  0  # atno 6908 bound_to 6896
  151.2205  133.4461  159.2634 H   0  0  0  0  0  0  0  0  0  0  0  0  # atno 6909 bound_to 6896
  144.7135  140.0746  143.6428 H   0  0  0  0  0  0  0  0  0  0  0  0  # atno 7974 bound_to 7965
  155.7445  140.3489  155.5120 H   0  0  0  0  0  0  0  0  0  0  0  0  # atno 8008 bound_to 7997
  155.9063  140.1042  157.1334 H   0  0  0  0  0  0  0  0  0  0  0  0  # atno 8009 bound_to 7997
  154.4050  140.1276  156.4487 H   0  0  0  0  0  0  0  0  0  0  0  0  # atno 8010 bound_to 7997
  140.6538  143.7478  150.7619 H   0  0  0  0  0  0  0  0  0  0  0  0  # atno 10167 bound_to 10162
  156.2346  130.4175  149.8833 H   0  0  0  0  0  0  0  0  0  0  0  0  # atno 10718 bound_to 10713
  154.8728  135.4050  154.3170 H   0  0  0  0  0  0  0  0  0  0  0  0  # atno 10763 bound_to 10752
  153.4005  135.7018  153.6435 H   0  0  0  0  0  0  0  0  0  0  0  0  # atno 10764 bound_to 10752
  153.5180  135.3693  155.2589 H   0  0  0  0  0  0  0  0  0  0  0  0  # atno 10765 bound_to 10752
  141.0349  133.6804  156.2663 H   0  0  0  0  0  0  0  0  0  0  0  0  # atno 11005 bound_to 11000
  145.9754  139.2901  143.1074 LP  0  0  0  0  0  0  0  0  0  0  0  0  # atno 17320 bound_to 7965
  145.9070  140.9205  143.0473 LP  0  0  0  0  0  0  0  0  0  0  0  0  # atno 17321 bound_to 7965
  140.1134  143.4678  152.2356 LP  0  0  0  0  0  0  0  0  0  0  0  0  # atno 17342 bound_to 10162
  139.5757  144.7486  151.3771 LP  0  0  0  0  0  0  0  0  0  0  0  0  # atno 17343 bound_to 10162
  156.6436  130.8715  151.3518 LP  0  0  0  0  0  0  0  0  0  0  0  0  # atno 17370 bound_to 10713
  157.7148  130.9484  150.1218 LP  0  0  0  0  0  0  0  0  0  0  0  0  # atno 17371 bound_to 10713
  140.6339  134.5235  157.5562 LP  0  0  0  0  0  0  0  0  0  0  0  0  # atno 17394 bound_to 11000
  139.9234  134.8104  156.1142 LP  0  0  0  0  0  0  0  0  0  0  0  0  # atno 17395 bound_to 11000

$$$$
