AV-unprocessed.smi:215|AV-procd|sdf|1652|dock10
  -GOLD-   2262020 43D 1   1.00000     0.00000
 Structure written by MMmdl.
 59 62  0  0  0  0  0  0  0  0  2 V2000
  148.0688  136.4799  156.2130 C   0  0  0  0  0  0  0  0  0  0  0  0
  149.0351  135.9843  155.1143 C   0  0  2  0  0  0  0  0  0  0  0  0
  148.7918  134.5189  154.6704 C   0  0  1  0  0  0  0  0  0  0  0  0
  147.8301  134.3335  153.5400 N   0  3  2  0  0  0  0  0  0  0  0  0
  146.4373  134.7561  153.8249 C   0  0  0  0  0  0  0  0  0  0  0  0
  147.8718  132.9610  152.9651 C   0  0  0  0  0  0  0  0  0  0  0  0
  146.7392  132.7293  151.9515 C   0  0  0  0  0  0  0  0  0  0  0  0
  147.0341  131.6088  151.1443 O   0  0  0  0  0  0  0  0  0  0  0  0
  150.2062  134.0658  154.2759 C   0  0  0  0  0  0  0  0  0  0  0  0
  151.1297  134.8079  155.2343 C   0  0  0  0  0  0  0  0  0  0  0  0
  150.4104  136.0122  155.6153 N   0  0  0  0  0  0  0  0  0  0  0  0
  151.1128  137.1699  155.7415 C   0  0  0  0  0  0  0  0  0  0  0  0
  152.2616  137.3367  155.0340 N   0  0  0  0  0  0  0  0  0  0  0  0
  152.9682  138.4650  155.1434 C   0  0  0  0  0  0  0  0  0  0  0  0
  152.7121  139.5393  155.8905 N   0  0  0  0  0  0  0  0  0  0  0  0
  151.5586  139.3846  156.6013 C   0  0  0  0  0  0  0  0  0  0  0  0
  150.7050  138.2447  156.5845 C   0  0  0  0  0  0  0  0  0  0  0  0
  149.6158  138.4630  157.4202 N   0  0  0  0  0  0  0  0  0  0  0  0
  149.8148  139.6593  157.9025 C   0  0  0  0  0  0  0  0  0  0  0  0
  150.9674  140.2808  157.4758 N   0  0  0  0  0  0  0  0  0  0  0  0
  151.4233  141.5988  157.8179 C   0  0  0  0  0  0  0  0  0  0  0  0
  152.7240  141.8413  158.5896 C   0  0  0  0  0  0  0  0  0  0  0  0
  152.0828  143.0843  159.2507 C   0  0  0  0  0  0  0  0  0  0  0  0
  152.4146  143.2578  160.7434 C   0  0  0  0  0  0  0  0  0  0  0  0
  151.4520  144.0497  161.4083 O   0  0  0  0  0  0  0  0  0  0  0  0
  152.3744  144.4063  158.5087 C   0  0  0  0  0  0  0  0  0  0  0  0
  151.6865  145.5021  159.0759 O   0  0  0  0  0  0  0  0  0  0  0  0
  150.7365  142.3949  158.9258 C   0  0  0  0  0  0  0  0  0  0  0  0
  148.9737  136.6326  154.2390 H   0  0  0  0  0  0  0  0  0  0  0  0
  148.4577  133.9374  155.5321 H   0  0  0  0  0  0  0  0  0  0  0  0
  147.0299  136.4896  155.8927 H   0  0  0  0  0  0  0  0  0  0  0  0
  148.3067  137.4974  156.5227 H   0  0  0  0  0  0  0  0  0  0  0  0
  148.1300  135.8495  157.1007 H   0  0  0  0  0  0  0  0  0  0  0  0
  146.0309  134.2126  154.6786 H   0  0  0  0  0  0  0  0  0  0  0  0
  145.7853  134.5677  152.9727 H   0  0  0  0  0  0  0  0  0  0  0  0
  146.3796  135.8258  154.0234 H   0  0  0  0  0  0  0  0  0  0  0  0
  148.8206  132.7610  152.4684 H   0  0  0  0  0  0  0  0  0  0  0  0
  147.8096  132.2291  153.7719 H   0  0  0  0  0  0  0  0  0  0  0  0
  145.8030  132.5354  152.4757 H   0  0  0  0  0  0  0  0  0  0  0  0
  146.5730  133.6010  151.3191 H   0  0  0  0  0  0  0  0  0  0  0  0
  147.9715  131.4883  151.1226 H   0  0  0  0  0  0  0  0  0  0  0  0
  150.3526  132.9871  154.3302 H   0  0  0  0  0  0  0  0  0  0  0  0
  150.4260  134.3800  153.2543 H   0  0  0  0  0  0  0  0  0  0  0  0
  151.3137  134.2138  156.1300 H   0  0  0  0  0  0  0  0  0  0  0  0
  152.0903  135.0212  154.7632 H   0  0  0  0  0  0  0  0  0  0  0  0
  153.8684  138.5135  154.5484 H   0  0  0  0  0  0  0  0  0  0  0  0
  149.1153  140.1218  158.5830 H   0  0  0  0  0  0  0  0  0  0  0  0
  151.4343  142.1736  156.8902 H   0  0  0  0  0  0  0  0  0  0  0  0
  152.9543  141.0502  159.3046 H   0  0  0  0  0  0  0  0  0  0  0  0
  153.5878  142.0529  157.9585 H   0  0  0  0  0  0  0  0  0  0  0  0
  152.4444  142.2925  161.2493 H   0  0  0  0  0  0  0  0  0  0  0  0
  153.3986  143.7065  160.8824 H   0  0  0  0  0  0  0  0  0  0  0  0
  151.7494  144.2080  162.2910 H   0  0  0  0  0  0  0  0  0  0  0  0
  153.4419  144.6281  158.5056 H   0  0  0  0  0  0  0  0  0  0  0  0
  152.0787  144.3441  157.4613 H   0  0  0  0  0  0  0  0  0  0  0  0
  151.6872  146.2129  158.4534 H   0  0  0  0  0  0  0  0  0  0  0  0
  149.9459  143.0604  158.5779 H   0  0  0  0  0  0  0  0  0  0  0  0
  150.3796  141.7581  159.7376 H   0  0  0  0  0  0  0  0  0  0  0  0
  148.1610  134.9471  152.8083 H   0  0  0  0  0  0  0  0  0  0  0  0
  1  2  1  0  0  0  0
  1 31  1  0  0  0  0
  1 32  1  0  0  0  0
  1 33  1  0  0  0  0
  2 29  1  0  0  0  0
  2 11  1  0  0  0  0
  2  3  1  0  0  0  0
  3 30  1  0  0  0  0
  3  4  1  0  0  0  0
  3  9  1  0  0  0  0
  4  5  1  0  0  0  0
  4  6  1  0  0  0  0
  4 59  1  0  0  0  0
  5 34  1  0  0  0  0
  5 35  1  0  0  0  0
  5 36  1  0  0  0  0
  6  7  1  0  0  0  0
  6 37  1  0  0  0  0
  6 38  1  0  0  0  0
  7  8  1  0  0  0  0
  7 39  1  0  0  0  0
  7 40  1  0  0  0  0
  8 41  1  0  0  0  0
  9 10  1  0  0  0  0
  9 42  1  0  0  0  0
  9 43  1  0  0  0  0
 10 11  1  0  0  0  0
 10 44  1  0  0  0  0
 10 45  1  0  0  0  0
 11 12  1  0  0  0  0
 12 17  1  0  0  0  0
 12 13  2  0  0  0  0
 13 14  1  0  0  0  0
 14 15  2  0  0  0  0
 14 46  1  0  0  0  0
 15 16  1  0  0  0  0
 16 20  1  0  0  0  0
 16 17  2  0  0  0  0
 17 18  1  0  0  0  0
 18 19  2  0  0  0  0
 19 20  1  0  0  0  0
 19 47  1  0  0  0  0
 20 21  1  0  0  0  0
 21 28  1  0  0  0  0
 21 22  1  0  0  0  0
 21 48  1  0  0  0  0
 22 23  1  0  0  0  0
 22 49  1  0  0  0  0
 22 50  1  0  0  0  0
 23 24  1  0  0  0  0
 23 26  1  0  0  0  0
 23 28  1  0  0  0  0
 24 25  1  0  0  0  0
 24 51  1  0  0  0  0
 24 52  1  0  0  0  0
 25 53  1  0  0  0  0
 26 27  1  0  0  0  0
 26 54  1  0  0  0  0
 26 55  1  0  0  0  0
 27 56  1  0  0  0  0
 28 57  1  0  0  0  0
 28 58  1  0  0  0  0
M  CHG  1   4   1
M  END
> <s_m_source_file>
AV-unprocessed.smi

> <i_m_source_file_index>
215

> <i_lp_mmshare_version>
43012

> <i_f3d_flags>
0

> <s_epik_input>
W09IXVtDSDJdW0NIMl1OKFtDSDNdKVtDQEBIXShbQ0BIXTFbQ0gzXSlbQ0gyXVtDSDJdTjFjKG5bY0hdbjIpYyhjMjMpbltjSF1uM1tDSF0oW0NIMl00KVtDSDJdQzQoW0NIMl1bT0hdKVtDSDJdW09IXQ==

> <s_epik_cmdline>
J2VwaWtfcHl0aG9uJywgJy1waCcsICc3LjAnLCAnLXRuJywgJzgnLCAnLW1hJywgJzIwMCcsICctbWV0YWxfYmluZGluZycsICctaW1hZScsICc8aW5maWxlLm1hZT4nLCAnLW9tYWUnLCAnPG91dGZpbGUubWFlPic=

> <r_lp_tautomer_probability>
1

> <r_epik_Ionization_Penalty>
0.0036237

> <r_epik_Ionization_Penalty_Charging>
0.0032725

> <r_epik_Ionization_Penalty_Neutral>
0.000351196

> <r_epik_State_Penalty>
-0

> <r_epik_Charging_Adjusted_Penalty>
0.0032725

> <i_epik_Tot_Q>
1

> <i_epik_Tot_abs_Q>
1

> <r_epik_Metal_State_Penalty>
-0

> <b_epik_Metal_Only>
0

> <s_lp_Force_Field>
OPLS_2005

> <r_lp_Energy>
64.69

> <b_lp_Chiralities_Consistent>
1

> <s_lp_Variant>
AV-unprocessed.smi:215-3

> <Gold.Version>
5.8.1

> <Gold.Id.Protein>
6NUR|6NUR_protein|mol2

> <Gold.PLP.Fitness>
57.5625

> <Gold.PLP.PLP>
-45.0388

> <Gold.PLP.part.hbond>
-5.9021

> <Gold.PLP.part.metal>
0.0000

> <Gold.PLP.part.buried>
-7.2086

> <Gold.PLP.part.nonpolar>
-32.7725

> <Gold.PLP.part.repulsive>
0.0675

> <Gold.PLP.ligand.clash>
0.0000

> <Gold.PLP.ligand.torsion>
1.3256

> <Gold.PLP.Chemscore.Hbond>
4.7600

> <Gold.PLP.Chemscore.CHOScore>
0.0000

> <Gold.PLP.Chemscore.Metal>
0.0000

> <Gold.Chemscore.Hbonds>
donor molecule, donor type, donor heavy atom, donor atom, acceptor molecule, acceptor atom, score
      L1  H     4    59       P1  7948  2.00
      L1  H     8    41       P1 10747  0.65
      P1  H  7997  8009       L1    15  1.00
      P1  H 10752 10765       L1    13  0.75

> <Gold.PLP.Chemscore.Internal.Correction>
0.8949

> <Gold.Rescore>
     Score         DG    S(hbond)    S(metal)    S(lipo)     H(rot)  DE(clash)    DE(int)     intcor
     13.27     -16.31       3.32        0.00      95.72       4.48       0.25       2.79       ----

> <Gold.Chemscore.Fitness>
13.2701

> <Gold.Chemscore.DG>
-16.3058

> <Gold.Chemscore.ZeroCoef>
-5.4800

> <Gold.Chemscore.Hbond>
3.3209

> <Gold.Chemscore.Metal>
0.0000

> <Gold.Chemscore.Lipo>
95.7216

> <Gold.Chemscore.Internal_Hbond>
0.0000

> <Gold.Chemscore.DEClash>
0.2452

> <Gold.Chemscore.DEInternal>
2.7905

> <Gold.Chemscore.Rot>
4.4787

> <Gold.Chemscore.Internal.Correction>
   9.000000E+99

> <Gold.Chemscore.Hbonds>
donor molecule, donor type, donor heavy atom, donor atom, acceptor molecule, acceptor atom, score
      L1  H     4    59       P1  7948  0.85
      L1  H     8    41       P1 10747  0.62
      P1  H  7997  8009       L1    15  0.35
      P1  H 10752 10765       L1    13  0.53

> <Gold.Chemscore.Hbond.Weighted>
-11.0919

> <Gold.Chemscore.Metal.Weighted>
-0.0000

> <Gold.Chemscore.Lipo.Weighted>
-11.1994

> <Gold.Chemscore.Internal_Hbond.Weighted>
0.0000

> <Gold.Chemscore.DEClash.Weighted>
0.2452

> <Gold.Chemscore.DEInternal.Weighted>
2.7905

> <Gold.Chemscore.Rot.Weighted>
11.4655

> <Gold.Chemscore.Internal.Correction.Weighted>
   9.000000E+99

> <Gold.Protein.RotatedTorsions>
[ 6907 6896 6895 6894 ] final  153.37 input  -60.11 | X-H torsion
[ 7974 7965 7964 7962 ] final -114.56 input  175.53 | X-H torsion
[ 8008 7997 7996 7995 ] final -159.39 input   59.86 | X-H torsion
[ 10167 10162 10161 10158 ] final  122.78 input  -65.29 | X-H torsion
[ 10718 10713 10712 10709 ] final -176.57 input   66.30 | X-H torsion
[ 10763 10752 10751 10750 ] final  178.90 input  -60.55 | X-H torsion
[ 11005 11000 10999 10996 ] final   15.95 input  -57.11 | X-H torsion

> <Gold.Protein.ActiveResidues>
 VAL166  LYS551  ARG553  GLY616  TRP617  ASP618  TYR619  PRO620  LYS621  CYS622 
 ASP623  PHE694  ASN695  SER759  ASP760  ASP761  ALA762  ILE779  LEU786  VAL792 
 PHE793  MET794  SER795  GLU796  ALA797  LYS798  CYS799  TRP800  GLU811  SER814 

> <Gold.Protein.RotatedAtoms>
  152.0737  133.4119  159.4470 H   0  0  0  0  0  0  0  0  0  0  0  0  # atno 6907 bound_to 6896
  150.6863  134.3062  159.4736 H   0  0  0  0  0  0  0  0  0  0  0  0  # atno 6908 bound_to 6896
  152.0897  134.9415  160.0622 H   0  0  0  0  0  0  0  0  0  0  0  0  # atno 6909 bound_to 6896
  145.1187  140.8656  143.3826 H   0  0  0  0  0  0  0  0  0  0  0  0  # atno 7974 bound_to 7965
  155.7618  140.0840  157.2151 H   0  0  0  0  0  0  0  0  0  0  0  0  # atno 8008 bound_to 7997
  154.4003  140.1541  156.2898 H   0  0  0  0  0  0  0  0  0  0  0  0  # atno 8009 bound_to 7997
  155.8832  140.3419  155.5905 H   0  0  0  0  0  0  0  0  0  0  0  0  # atno 8010 bound_to 7997
  139.5838  144.6998  151.3460 H   0  0  0  0  0  0  0  0  0  0  0  0  # atno 10167 bound_to 10162
  156.8167  130.9605  151.3113 H   0  0  0  0  0  0  0  0  0  0  0  0  # atno 10718 bound_to 10713
  154.5137  135.2790  155.1321 H   0  0  0  0  0  0  0  0  0  0  0  0  # atno 10763 bound_to 10752
  154.2907  135.6267  153.5387 H   0  0  0  0  0  0  0  0  0  0  0  0  # atno 10764 bound_to 10752
  152.9923  135.5673  154.5608 H   0  0  0  0  0  0  0  0  0  0  0  0  # atno 10765 bound_to 10752
  140.4526  134.1208  155.7704 H   0  0  0  0  0  0  0  0  0  0  0  0  # atno 11005 bound_to 11000
  145.0764  139.2992  143.5805 LP  0  0  0  0  0  0  0  0  0  0  0  0  # atno 17320 bound_to 7965
  146.3522  140.0256  142.8655 LP  0  0  0  0  0  0  0  0  0  0  0  0  # atno 17321 bound_to 7965
  140.7113  143.7383  150.7572 LP  0  0  0  0  0  0  0  0  0  0  0  0  # atno 17342 bound_to 10162
  140.0922  143.4867  152.2472 LP  0  0  0  0  0  0  0  0  0  0  0  0  # atno 17343 bound_to 10162
  157.6478  130.8859  149.9573 LP  0  0  0  0  0  0  0  0  0  0  0  0  # atno 17370 bound_to 10713
  156.1013  130.3655  150.0213 LP  0  0  0  0  0  0  0  0  0  0  0  0  # atno 17371 bound_to 10713
  141.1657  133.8707  157.1721 LP  0  0  0  0  0  0  0  0  0  0  0  0  # atno 17394 bound_to 11000
  139.9997  135.0033  157.0162 LP  0  0  0  0  0  0  0  0  0  0  0  0  # atno 17395 bound_to 11000

$$$$
