AV-unprocessed.smi:1762|AV-procd|sdf|7114|dock2
  -GOLD-   22720 8343D 1   1.00000     0.00000
 Structure written by MMmdl.
 53 54  0  0  0  0  0  0  0  0  2 V2000
  147.6535  130.6457  153.3066 C   0  0  0  0  0  0  0  0  0  0  0  0
  146.8233  131.8598  152.8764 C   0  0  1  0  0  0  0  0  0  0  0  0
  147.6757  133.1460  152.8062 C   0  0  0  0  0  0  0  0  0  0  0  0
  146.8824  134.3031  152.2989 N   0  3  2  0  0  0  0  0  0  0  0  0
  145.9368  134.9111  153.3018 C   0  0  1  0  0  0  0  0  0  0  0  0
  146.7062  135.5034  154.5021 C   0  0  0  0  0  0  0  0  0  0  0  0
  146.2749  135.3574  155.6463 O   0  0  0  0  0  0  0  0  0  0  0  0
  147.8363  136.1734  154.2248 N   0  0  0  0  0  0  0  0  0  0  0  0
  148.6880  136.8202  155.2164 C   0  0  0  0  0  0  0  0  0  0  0  0
  149.6363  137.8417  154.5658 C   0  0  0  0  0  0  0  0  0  0  0  0
  148.9741  139.1909  154.3584 C   0  0  0  0  0  0  0  0  0  0  0  0
  149.5320  140.3620  154.9145 C   0  0  0  0  0  0  0  0  0  0  0  0
  148.8737  141.5878  154.6958 C   0  0  0  0  0  0  0  0  0  0  0  0
  147.6888  141.5954  153.9346 C   0  0  0  0  0  0  0  0  0  0  0  0
  147.2130  140.3716  153.4235 C   0  0  0  0  0  0  0  0  0  0  0  0
  147.8367  139.1908  153.6269 N   0  0  0  0  0  0  0  0  0  0  0  0
  144.9599  135.9727  152.6929 C   0  0  0  0  0  0  0  0  0  0  0  0
  143.8026  135.3661  151.8722 C   0  0  0  0  0  0  0  0  0  0  0  0
  145.6773  137.0621  151.8710 C   0  0  0  0  0  0  0  0  0  0  0  0
  146.2999  133.9209  150.9830 C   0  0  0  0  0  0  0  0  0  0  0  0
  145.4512  132.6386  151.0979 C   0  0  1  0  0  0  0  0  0  0  0  0
  144.8849  132.2001  149.7431 C   0  0  0  0  0  0  0  0  0  0  0  0
  146.2767  131.5877  151.5899 O   0  0  0  0  0  0  0  0  0  0  0  0
  148.0819  130.7952  154.2979 H   0  0  0  0  0  0  0  0  0  0  0  0
  148.4735  130.4601  152.6122 H   0  0  0  0  0  0  0  0  0  0  0  0
  147.0387  129.7460  153.3436 H   0  0  0  0  0  0  0  0  0  0  0  0
  146.0097  131.9819  153.5924 H   0  0  0  0  0  0  0  0  0  0  0  0
  148.1363  133.3501  153.7721 H   0  0  0  0  0  0  0  0  0  0  0  0
  148.5092  132.9858  152.1206 H   0  0  0  0  0  0  0  0  0  0  0  0
  145.3130  134.1045  153.6877 H   0  0  0  0  0  0  0  0  0  0  0  0
  148.1267  136.2438  153.2602 H   0  0  0  0  0  0  0  0  0  0  0  0
  148.0740  137.2984  155.9817 H   0  0  0  0  0  0  0  0  0  0  0  0
  149.2673  136.0470  155.7218 H   0  0  0  0  0  0  0  0  0  0  0  0
  150.5263  137.9694  155.1836 H   0  0  0  0  0  0  0  0  0  0  0  0
  149.9855  137.4727  153.6002 H   0  0  0  0  0  0  0  0  0  0  0  0
  150.4415  140.3246  155.4961 H   0  0  0  0  0  0  0  0  0  0  0  0
  149.2701  142.5054  155.1050 H   0  0  0  0  0  0  0  0  0  0  0  0
  147.1571  142.5166  153.7471 H   0  0  0  0  0  0  0  0  0  0  0  0
  146.3072  140.3400  152.8363 H   0  0  0  0  0  0  0  0  0  0  0  0
  144.5168  136.5252  153.5200 H   0  0  0  0  0  0  0  0  0  0  0  0
  144.1603  134.8868  150.9610 H   0  0  0  0  0  0  0  0  0  0  0  0
  143.0943  136.1390  151.5729 H   0  0  0  0  0  0  0  0  0  0  0  0
  143.2442  134.6216  152.4389 H   0  0  0  0  0  0  0  0  0  0  0  0
  146.0864  136.6714  150.9387 H   0  0  0  0  0  0  0  0  0  0  0  0
  146.4961  137.5076  152.4367 H   0  0  0  0  0  0  0  0  0  0  0  0
  144.9893  137.8660  151.6075 H   0  0  0  0  0  0  0  0  0  0  0  0
  145.7373  134.7287  150.5207 H   0  0  0  0  0  0  0  0  0  0  0  0
  147.1265  133.7359  150.2950 H   0  0  0  0  0  0  0  0  0  0  0  0
  144.6171  132.7968  151.7829 H   0  0  0  0  0  0  0  0  0  0  0  0
  144.2336  132.9671  149.3232 H   0  0  0  0  0  0  0  0  0  0  0  0
  144.2990  131.2861  149.8437 H   0  0  0  0  0  0  0  0  0  0  0  0
  145.6820  132.0075  149.0245 H   0  0  0  0  0  0  0  0  0  0  0  0
  147.5499  135.0363  152.1038 H   0  0  0  0  0  0  0  0  0  0  0  0
  1  2  1  0  0  0  0
  1 24  1  0  0  0  0
  1 25  1  0  0  0  0
  1 26  1  0  0  0  0
  2 23  1  0  0  0  0
  2  3  1  0  0  0  0
  2 27  1  0  0  0  0
  3  4  1  0  0  0  0
  3 28  1  0  0  0  0
  3 29  1  0  0  0  0
  4  5  1  0  0  0  0
  4 20  1  0  0  0  0
  4 53  1  0  0  0  0
  5  6  1  0  0  0  0
  5 17  1  0  0  0  0
  5 30  1  0  0  0  0
  6  7  2  0  0  0  0
  6  8  1  0  0  0  0
  8  9  1  0  0  0  0
  8 31  1  0  0  0  0
  9 10  1  0  0  0  0
  9 32  1  0  0  0  0
  9 33  1  0  0  0  0
 10 11  1  0  0  0  0
 10 34  1  0  0  0  0
 10 35  1  0  0  0  0
 11 16  1  0  0  0  0
 11 12  2  0  0  0  0
 12 13  1  0  0  0  0
 12 36  1  0  0  0  0
 13 14  2  0  0  0  0
 13 37  1  0  0  0  0
 14 15  1  0  0  0  0
 14 38  1  0  0  0  0
 15 16  2  0  0  0  0
 15 39  1  0  0  0  0
 17 18  1  0  0  0  0
 17 19  1  0  0  0  0
 17 40  1  0  0  0  0
 18 41  1  0  0  0  0
 18 42  1  0  0  0  0
 18 43  1  0  0  0  0
 19 44  1  0  0  0  0
 19 45  1  0  0  0  0
 19 46  1  0  0  0  0
 20 21  1  0  0  0  0
 20 47  1  0  0  0  0
 20 48  1  0  0  0  0
 21 22  1  0  0  0  0
 21 23  1  0  0  0  0
 21 49  1  0  0  0  0
 22 50  1  0  0  0  0
 22 51  1  0  0  0  0
 22 52  1  0  0  0  0
M  CHG  1   4   1
M  END
> <s_m_source_file>
AV-unprocessed.smi

> <i_m_source_file_index>
1762

> <i_lp_mmshare_version>
43012

> <i_f3d_flags>
0

> <s_epik_input>
W0NIM11bQ0BASF0xW0NIMl1OKFtDSDJdW0NASF0oTzEpW0NIM10pW0NAQEhdKFtDSF0oW0NIM10pW0NIM10pQyg9TylbTkhdW0NIMl1bQ0gyXWMyW2NIXVtjSF1bY0hdW2NIXW4y

> <s_epik_cmdline>
J2VwaWtfcHl0aG9uJywgJy1waCcsICc3LjAnLCAnLXRuJywgJzgnLCAnLW1hJywgJzIwMCcsICctbWV0YWxfYmluZGluZycsICctaW1hZScsICc8aW5maWxlLm1hZT4nLCAnLW9tYWUnLCAnPG91dGZpbGUubWFlPic=

> <r_epik_Ionization_Penalty>
2.27005

> <r_epik_Ionization_Penalty_Charging>
2.24983

> <r_epik_Ionization_Penalty_Neutral>
0.0202209

> <r_epik_State_Penalty>
2.40228

> <r_epik_Charging_Adjusted_Penalty>
4.65211

> <i_epik_Tot_Q>
1

> <i_epik_Tot_abs_Q>
1

> <r_epik_Metal_State_Penalty>
2.40762

> <b_epik_Metal_Only>
0

> <s_lp_Force_Field>
OPLS_2005

> <r_lp_Energy>
25.1603

> <b_lp_Chiralities_Consistent>
1

> <s_lp_Variant>
AV-unprocessed.smi:1762-16

> <Gold.Version>
5.8.1

> <Gold.Id.Protein>
6NUR|6NUR_protein|mol2

> <Gold.PLP.Fitness>
46.2439

> <Gold.PLP.PLP>
-36.3114

> <Gold.PLP.part.hbond>
-2.0000

> <Gold.PLP.part.metal>
0.0000

> <Gold.PLP.part.buried>
-3.3597

> <Gold.PLP.part.nonpolar>
-32.2136

> <Gold.PLP.part.repulsive>
1.0467

> <Gold.PLP.ligand.clash>
0.0000

> <Gold.PLP.ligand.torsion>
1.2360

> <Gold.PLP.Chemscore.Hbond>
3.0000

> <Gold.PLP.Chemscore.CHOScore>
1.0000

> <Gold.PLP.Chemscore.Metal>
0.0000

> <Gold.Chemscore.Hbonds>
donor molecule, donor type, donor heavy atom, donor atom, acceptor molecule, acceptor atom, score
      L1  H     4    53       P1  7948  2.00
      L1  H     8    31       P1  7948  1.00
      L1  C    15    39       P1 10175  0.71

> <Gold.PLP.Chemscore.Internal.Correction>
0.4044

> <Gold.Rescore>
     Score         DG    S(hbond)    S(metal)    S(lipo)     H(rot)  DE(clash)    DE(int)     intcor
     17.84     -19.30       1.96        0.00      98.73       1.66       0.07       1.39       ----

> <Gold.Chemscore.Fitness>
17.8356

> <Gold.Chemscore.DG>
-19.3025

> <Gold.Chemscore.ZeroCoef>
-5.4800

> <Gold.Chemscore.Hbond>
1.9551

> <Gold.Chemscore.Metal>
0.0000

> <Gold.Chemscore.Lipo>
98.7264

> <Gold.Chemscore.Internal_Hbond>
0.0000

> <Gold.Chemscore.DEClash>
0.0747

> <Gold.Chemscore.DEInternal>
1.3922

> <Gold.Chemscore.Rot>
1.6635

> <Gold.Chemscore.Internal.Correction>
   9.000000E+99

> <Gold.Chemscore.Hbonds>
donor molecule, donor type, donor heavy atom, donor atom, acceptor molecule, acceptor atom, score
      L1  H     4    53       P1  7948  0.93
      L1  H     8    31       P1  7948  0.99

> <Gold.Chemscore.Hbond.Weighted>
-6.5302

> <Gold.Chemscore.Metal.Weighted>
-0.0000

> <Gold.Chemscore.Lipo.Weighted>
-11.5510

> <Gold.Chemscore.Internal_Hbond.Weighted>
0.0000

> <Gold.Chemscore.DEClash.Weighted>
0.0747

> <Gold.Chemscore.DEInternal.Weighted>
1.3922

> <Gold.Chemscore.Rot.Weighted>
4.2586

> <Gold.Chemscore.Internal.Correction.Weighted>
   9.000000E+99

> <Gold.Protein.RotatedTorsions>
[ 6907 6896 6895 6894 ] final -166.96 input  -60.11 | X-H torsion
[ 7974 7965 7964 7962 ] final   90.67 input  175.53 | X-H torsion
[ 8008 7997 7996 7995 ] final -167.03 input   59.86 | X-H torsion
[ 10167 10162 10161 10158 ] final -117.88 input  -65.29 | X-H torsion
[ 10718 10713 10712 10709 ] final  136.61 input   66.30 | X-H torsion
[ 10763 10752 10751 10750 ] final   -9.72 input  -60.55 | X-H torsion
[ 11005 11000 10999 10996 ] final   79.22 input  -57.11 | X-H torsion

> <Gold.Protein.ActiveResidues>
 VAL166  LYS551  ARG553  GLY616  TRP617  ASP618  TYR619  PRO620  LYS621  CYS622 
 ASP623  PHE694  ASN695  SER759  ASP760  ASP761  ALA762  ILE779  LEU786  VAL792 
 PHE793  MET794  SER795  GLU796  ALA797  LYS798  CYS799  TRP800  GLU811  SER814 

> <Gold.Protein.RotatedAtoms>
  151.4519  133.3615  159.2796 H   0  0  0  0  0  0  0  0  0  0  0  0  # atno 6907 bound_to 6896
  150.9085  134.8503  159.7420 H   0  0  0  0  0  0  0  0  0  0  0  0  # atno 6908 bound_to 6896
  152.4919  134.4446  159.9606 H   0  0  0  0  0  0  0  0  0  0  0  0  # atno 6909 bound_to 6896
  145.5159  139.2278  143.2699 H   0  0  0  0  0  0  0  0  0  0  0  0  # atno 7974 bound_to 7965
  155.8721  140.0995  157.1543 H   0  0  0  0  0  0  0  0  0  0  0  0  # atno 8008 bound_to 7997
  154.3998  140.1345  156.4154 H   0  0  0  0  0  0  0  0  0  0  0  0  # atno 8009 bound_to 7997
  155.7739  140.3460  155.5264 H   0  0  0  0  0  0  0  0  0  0  0  0  # atno 8010 bound_to 7997
  140.0636  143.4944  152.2018 H   0  0  0  0  0  0  0  0  0  0  0  0  # atno 10167 bound_to 10162
  157.4449  131.1061  151.0101 H   0  0  0  0  0  0  0  0  0  0  0  0  # atno 10718 bound_to 10713
  153.4588  135.7016  153.6063 H   0  0  0  0  0  0  0  0  0  0  0  0  # atno 10763 bound_to 10752
  153.4366  135.3790  155.2203 H   0  0  0  0  0  0  0  0  0  0  0  0  # atno 10764 bound_to 10752
  154.8727  135.3964  154.4011 H   0  0  0  0  0  0  0  0  0  0  0  0  # atno 10765 bound_to 10752
  139.9181  134.7825  156.1751 H   0  0  0  0  0  0  0  0  0  0  0  0  # atno 11005 bound_to 11000
  146.2137  140.5968  142.9048 LP  0  0  0  0  0  0  0  0  0  0  0  0  # atno 17320 bound_to 7965
  144.7702  140.5621  143.6675 LP  0  0  0  0  0  0  0  0  0  0  0  0  # atno 17321 bound_to 7965
  139.5879  144.7538  151.3475 LP  0  0  0  0  0  0  0  0  0  0  0  0  # atno 17342 bound_to 10162
  140.7160  143.7265  150.7656 LP  0  0  0  0  0  0  0  0  0  0  0  0  # atno 17343 bound_to 10162
  157.0951  130.5958  149.5448 LP  0  0  0  0  0  0  0  0  0  0  0  0  # atno 17370 bound_to 10713
  155.9963  130.5032  150.7492 LP  0  0  0  0  0  0  0  0  0  0  0  0  # atno 17371 bound_to 10713
  141.0677  133.6811  156.2077 LP  0  0  0  0  0  0  0  0  0  0  0  0  # atno 17394 bound_to 11000
  140.6558  134.5019  157.5580 LP  0  0  0  0  0  0  0  0  0  0  0  0  # atno 17395 bound_to 11000

$$$$
