AV-unprocessed.smi:196|AV-procd|sdf|1532|dock1
  -GOLD-   2262019383D 1   1.00000     0.00000
 Structure written by MMmdl.
 47 50  0  0  0  0  0  0  0  0  1 V2000
  155.1172  133.7575  162.2700 C   0  0  0  0  0  0  0  0  0  0  0  0
  155.3467  135.0916  162.9971 C   0  0  2  0  0  0  0  0  0  0  0  0
  154.4827  135.1334  164.1287 O   0  0  0  0  0  0  0  0  0  0  0  0
  154.2066  136.4885  164.4320 C   0  0  0  0  0  0  0  0  0  0  0  0
  153.9935  137.0904  163.0515 C   0  0  0  0  0  0  0  0  0  0  0  0
  155.0508  136.3924  162.1967 C   0  0  1  0  0  0  0  0  0  0  0  0
  156.2234  137.1884  162.2209 O   0  0  0  0  0  0  0  0  0  0  0  0
  154.6223  136.2075  160.7168 C   0  0  0  0  0  0  0  0  0  0  0  0
  154.2458  137.4519  160.0626 N   0  0  0  0  0  0  0  0  0  0  0  0
  155.0695  138.5201  159.7838 C   0  0  0  0  0  0  0  0  0  0  0  0
  154.4938  139.5272  159.1855 N   0  0  0  0  0  0  0  0  0  0  0  0
  153.1715  139.1254  159.0494 C   0  0  0  0  0  0  0  0  0  0  0  0
  152.0104  139.7234  158.4942 C   0  0  0  0  0  0  0  0  0  0  0  0
  152.0366  140.9508  157.9245 N   0  0  0  0  0  0  0  0  0  0  0  0
  152.6377  142.0005  158.7448 C   0  0  0  0  0  0  0  0  0  0  0  0
  151.5258  143.0114  159.0035 C   0  0  1  0  0  0  0  0  0  0  0  0
  151.9891  144.2403  159.2295 F   0  0  0  0  0  0  0  0  0  0  0  0
  150.7027  142.9201  157.7274 C   0  0  0  0  0  0  0  0  0  0  0  0
  150.7455  141.4191  157.3942 C   0  0  1  0  0  0  0  0  0  0  0  0
  150.5496  141.1644  155.8887 C   0  0  0  0  0  0  0  0  0  0  0  0
  149.6547  141.8981  155.2198 N   0  0  0  0  0  0  0  0  0  0  0  0
  151.2202  140.3013  155.3267 O   0  0  0  0  0  0  0  0  0  0  0  0
  150.8463  139.0230  158.5463 N   0  0  0  0  0  0  0  0  0  0  0  0
  150.8235  137.8080  159.1028 C   0  0  0  0  0  0  0  0  0  0  0  0
  151.8285  137.1225  159.6526 N   0  0  0  0  0  0  0  0  0  0  0  0
  152.9954  137.8270  159.6032 C   0  0  0  0  0  0  0  0  0  0  0  0
  150.9278  142.7132  159.8658 H   0  0  0  0  0  0  0  0  0  0  0  0
  149.9225  140.9288  157.9185 H   0  0  0  0  0  0  0  0  0  0  0  0
  155.7641  133.6636  161.3976 H   0  0  0  0  0  0  0  0  0  0  0  0
  154.0828  133.6496  161.9433 H   0  0  0  0  0  0  0  0  0  0  0  0
  155.3381  132.9188  162.9304 H   0  0  0  0  0  0  0  0  0  0  0  0
  156.3716  135.1045  163.3735 H   0  0  0  0  0  0  0  0  0  0  0  0
  153.3326  136.5876  165.0760 H   0  0  0  0  0  0  0  0  0  0  0  0
  155.0637  136.9406  164.9334 H   0  0  0  0  0  0  0  0  0  0  0  0
  152.9945  136.8195  162.7079 H   0  0  0  0  0  0  0  0  0  0  0  0
  154.0629  138.1790  163.0424 H   0  0  0  0  0  0  0  0  0  0  0  0
  156.1623  137.8352  161.5345 H   0  0  0  0  0  0  0  0  0  0  0  0
  155.4267  135.7492  160.1401 H   0  0  0  0  0  0  0  0  0  0  0  0
  153.7695  135.5317  160.6489 H   0  0  0  0  0  0  0  0  0  0  0  0
  156.1200  138.5279  160.0363 H   0  0  0  0  0  0  0  0  0  0  0  0
  153.0808  141.6409  159.6754 H   0  0  0  0  0  0  0  0  0  0  0  0
  153.4388  142.4575  158.1626 H   0  0  0  0  0  0  0  0  0  0  0  0
  149.6869  143.2944  157.8585 H   0  0  0  0  0  0  0  0  0  0  0  0
  151.1786  143.5088  156.9405 H   0  0  0  0  0  0  0  0  0  0  0  0
  149.5131  141.7414  154.2320 H   0  0  0  0  0  0  0  0  0  0  0  0
  149.1218  142.6051  155.7050 H   0  0  0  0  0  0  0  0  0  0  0  0
  149.8631  137.3140  159.1069 H   0  0  0  0  0  0  0  0  0  0  0  0
  1  2  1  0  0  0  0
  1 29  1  0  0  0  0
  1 30  1  0  0  0  0
  1 31  1  0  0  0  0
  2  6  1  0  0  0  0
  2  3  1  0  0  0  0
  2 32  1  0  0  0  0
  3  4  1  0  0  0  0
  4  5  1  0  0  0  0
  4 33  1  0  0  0  0
  4 34  1  0  0  0  0
  5  6  1  0  0  0  0
  5 35  1  0  0  0  0
  5 36  1  0  0  0  0
  6  7  1  0  0  0  0
  6  8  1  0  0  0  0
  7 37  1  0  0  0  0
  8  9  1  0  0  0  0
  8 38  1  0  0  0  0
  8 39  1  0  0  0  0
  9 26  1  0  0  0  0
  9 10  1  0  0  0  0
 10 11  2  0  0  0  0
 10 40  1  0  0  0  0
 11 12  1  0  0  0  0
 12 26  2  0  0  0  0
 12 13  1  0  0  0  0
 13 14  1  0  0  0  0
 13 23  2  0  0  0  0
 14 19  1  0  0  0  0
 14 15  1  0  0  0  0
 15 16  1  0  0  0  0
 15 41  1  0  0  0  0
 15 42  1  0  0  0  0
 16 27  1  0  0  0  0
 16 17  1  0  0  0  0
 16 18  1  0  0  0  0
 18 19  1  0  0  0  0
 18 43  1  0  0  0  0
 18 44  1  0  0  0  0
 19 28  1  0  0  0  0
 19 20  1  0  0  0  0
 20 21  1  0  0  0  0
 20 22  2  0  0  0  0
 21 45  1  0  0  0  0
 21 46  1  0  0  0  0
 23 24  1  0  0  0  0
 24 25  2  0  0  0  0
 24 47  1  0  0  0  0
 25 26  1  0  0  0  0
M  END
> <s_m_source_file>
AV-unprocessed.smi

> <i_m_source_file_index>
196

> <i_lp_mmshare_version>
43012

> <i_f3d_flags>
0

> <s_epik_input>
W0NIMl0xW0NIMl1PW0NAQEhdKFtDSDNdKVtDQEBdMShbT0hdKVtDSDJdbihbY0hdbjIpYyhjMjMpbltjSF1uYzNONFtDSDJdW0NASF0oRilbQ0gyXVtDQEhdNEMoPU8pW05IMl0=

> <s_epik_cmdline>
J2VwaWtfcHl0aG9uJywgJy1waCcsICc3LjAnLCAnLXRuJywgJzgnLCAnLW1hJywgJzIwMCcsICctbWV0YWxfYmluZGluZycsICctaW1hZScsICc8aW5maWxlLm1hZT4nLCAnLW9tYWUnLCAnPG91dGZpbGUubWFlPic=

> <r_lp_tautomer_probability>
1

> <r_epik_Ionization_Penalty>
0.000857933

> <r_epik_Ionization_Penalty_Charging>
0

> <r_epik_Ionization_Penalty_Neutral>
0.000857933

> <r_epik_State_Penalty>
0.000462053

> <r_epik_Charging_Adjusted_Penalty>
0.000462053

> <i_epik_Tot_Q>
0

> <i_epik_Tot_abs_Q>
0

> <r_epik_Metal_State_Penalty>
-0

> <b_epik_Metal_Only>
0

> <s_lp_Force_Field>
OPLS_2005

> <r_lp_Energy>
45.3025

> <b_lp_Chiralities_Consistent>
1

> <s_lp_Variant>
AV-unprocessed.smi:196-5

> <Gold.Version>
5.8.1

> <Gold.Id.Protein>
6NUR|6NUR_protein|mol2

> <Gold.PLP.Fitness>
53.3310

> <Gold.PLP.PLP>
-43.1597

> <Gold.PLP.part.hbond>
-4.0000

> <Gold.PLP.part.metal>
0.0000

> <Gold.PLP.part.buried>
-6.2595

> <Gold.PLP.part.nonpolar>
-33.7332

> <Gold.PLP.part.repulsive>
0.3059

> <Gold.PLP.ligand.clash>
0.0000

> <Gold.PLP.ligand.torsion>
0.6996

> <Gold.PLP.Chemscore.Hbond>
3.8080

> <Gold.PLP.Chemscore.CHOScore>
0.0000

> <Gold.PLP.Chemscore.Metal>
0.0000

> <Gold.Chemscore.Hbonds>
donor molecule, donor type, donor heavy atom, donor atom, acceptor molecule, acceptor atom, score
      L1  H    21    46       P1  8028  0.59
      P1  H  6896  6909       L1    25  1.00
      P1  H  7989  7998       L1    22  1.00
      P1  H  7997  8008       L1    11  1.00

> <Gold.PLP.Chemscore.Internal.Correction>
0.1465

> <Gold.Rescore>
     Score         DG    S(hbond)    S(metal)    S(lipo)     H(rot)  DE(clash)    DE(int)     intcor
     17.31     -18.28       3.50        0.00      75.98       3.04       0.01       0.96       ----

> <Gold.Chemscore.Fitness>
17.3144

> <Gold.Chemscore.DG>
-18.2773

> <Gold.Chemscore.ZeroCoef>
-5.4800

> <Gold.Chemscore.Hbond>
3.5010

> <Gold.Chemscore.Metal>
0.0000

> <Gold.Chemscore.Lipo>
75.9793

> <Gold.Chemscore.Internal_Hbond>
0.0000

> <Gold.Chemscore.DEClash>
0.0062

> <Gold.Chemscore.DEInternal>
0.9567

> <Gold.Chemscore.Rot>
3.0413

> <Gold.Chemscore.Internal.Correction>
   9.000000E+99

> <Gold.Chemscore.Hbonds>
donor molecule, donor type, donor heavy atom, donor atom, acceptor molecule, acceptor atom, score
      L1  H    21    46       P1  8028  0.57
      P1  H  6896  6909       L1    25  0.86
      P1  H  7989  7998       L1    22  0.70
      P1  H  7997  8008       L1    11  0.37

> <Gold.Chemscore.Hbond.Weighted>
-11.6934

> <Gold.Chemscore.Metal.Weighted>
-0.0000

> <Gold.Chemscore.Lipo.Weighted>
-8.8896

> <Gold.Chemscore.Internal_Hbond.Weighted>
0.0000

> <Gold.Chemscore.DEClash.Weighted>
0.0062

> <Gold.Chemscore.DEInternal.Weighted>
0.9567

> <Gold.Chemscore.Rot.Weighted>
7.7856

> <Gold.Chemscore.Internal.Correction.Weighted>
   9.000000E+99

> <Gold.Protein.RotatedTorsions>
[ 6907 6896 6895 6894 ] final  112.29 input  -60.11 | X-H torsion
[ 7974 7965 7964 7962 ] final   58.98 input  175.53 | X-H torsion
[ 8008 7997 7996 7995 ] final -114.14 input   59.86 | X-H torsion
[ 10167 10162 10161 10158 ] final -136.91 input  -65.29 | X-H torsion
[ 10718 10713 10712 10709 ] final -104.22 input   66.30 | X-H torsion
[ 10763 10752 10751 10750 ] final  172.31 input  -60.55 | X-H torsion
[ 11005 11000 10999 10996 ] final  135.43 input  -57.11 | X-H torsion

> <Gold.Protein.ActiveResidues>
 VAL166  LYS551  ARG553  GLY616  TRP617  ASP618  TYR619  PRO620  LYS621  CYS622 
 ASP623  PHE694  ASN695  SER759  ASP760  ASP761  ALA762  ILE779  LEU786  VAL792 
 PHE793  MET794  SER795  GLU796  ALA797  LYS798  CYS799  TRP800  GLU811  SER814 

> <Gold.Protein.RotatedAtoms>
  152.4924  133.8537  159.7214 H   0  0  0  0  0  0  0  0  0  0  0  0  # atno 6907 bound_to 6896
  150.9067  133.7040  159.2871 H   0  0  0  0  0  0  0  0  0  0  0  0  # atno 6908 bound_to 6896
  151.4463  135.1029  159.9737 H   0  0  0  0  0  0  0  0  0  0  0  0  # atno 6909 bound_to 6896
  145.9122  139.3663  143.0528 H   0  0  0  0  0  0  0  0  0  0  0  0  # atno 7974 bound_to 7965
  155.0317  140.0393  157.2476 H   0  0  0  0  0  0  0  0  0  0  0  0  # atno 8008 bound_to 7997
  154.7291  140.2727  155.6448 H   0  0  0  0  0  0  0  0  0  0  0  0  # atno 8009 bound_to 7997
  156.2837  140.2687  156.1986 H   0  0  0  0  0  0  0  0  0  0  0  0  # atno 8010 bound_to 7997
  139.8631  143.7052  152.2648 H   0  0  0  0  0  0  0  0  0  0  0  0  # atno 10167 bound_to 10162
  156.0296  130.5505  150.7366 H   0  0  0  0  0  0  0  0  0  0  0  0  # atno 10718 bound_to 10713
  154.4243  135.2758  155.1955 H   0  0  0  0  0  0  0  0  0  0  0  0  # atno 10763 bound_to 10752
  154.3888  135.6071  153.5835 H   0  0  0  0  0  0  0  0  0  0  0  0  # atno 10764 bound_to 10752
  152.9834  135.5898  154.4544 H   0  0  0  0  0  0  0  0  0  0  0  0  # atno 10765 bound_to 10752
  139.9979  134.9490  157.0006 H   0  0  0  0  0  0  0  0  0  0  0  0  # atno 11005 bound_to 11000
  145.8656  140.9450  143.0677 LP  0  0  0  0  0  0  0  0  0  0  0  0  # atno 17320 bound_to 7965
  144.6744  140.0588  143.7476 LP  0  0  0  0  0  0  0  0  0  0  0  0  # atno 17321 bound_to 7965
  139.7355  144.7572  151.0734 LP  0  0  0  0  0  0  0  0  0  0  0  0  # atno 17342 bound_to 10162
  140.7772  143.5036  150.9740 LP  0  0  0  0  0  0  0  0  0  0  0  0  # atno 17343 bound_to 10162
  157.4945  131.0913  151.0388 LP  0  0  0  0  0  0  0  0  0  0  0  0  # atno 17370 bound_to 10713
  157.0785  130.5893  149.5416 LP  0  0  0  0  0  0  0  0  0  0  0  0  # atno 17371 bound_to 10713
  140.4783  134.1316  155.7213 LP  0  0  0  0  0  0  0  0  0  0  0  0  # atno 17394 bound_to 11000
  141.1619  133.8777  157.1824 LP  0  0  0  0  0  0  0  0  0  0  0  0  # atno 17395 bound_to 11000

$$$$
