AV-unprocessed.smi:2184|AV-procd|sdf|8874|dock4
  -GOLD-   2272012 73D 1   1.00000     0.00000
 Structure written by MMmdl.
 47 48  0  0  0  0  0  0  0  0  1 V2000
  144.5772  145.4509  153.3959 C   0  0  0  0  0  0  0  0  0  0  0  0
  145.6858  144.1429  152.8060 S   0  0  0  0  0  0  0  0  0  0  0  0
  146.1757  143.3666  154.3759 C   0  0  1  0  0  0  0  0  0  0  0  0
  144.9284  142.9744  155.1831 C   0  0  0  0  0  0  0  0  0  0  0  0
  147.0894  142.1540  154.1592 C   0  0  0  0  0  0  0  0  0  0  0  0
  146.6809  141.1713  153.5394 O   0  0  0  0  0  0  0  0  0  0  0  0
  148.3297  142.2390  154.6657 N   0  0  0  0  0  0  0  0  0  0  0  0
  149.3489  141.2010  154.5535 C   0  0  0  0  0  0  0  0  0  0  0  0
  150.2447  141.0959  155.7773 C   0  0  0  0  0  0  0  0  0  0  0  0
  149.9887  141.8703  156.9251 C   0  0  0  0  0  0  0  0  0  0  0  0
  150.8383  141.7416  158.0407 C   0  0  0  0  0  0  0  0  0  0  0  0
  151.9273  140.8353  157.9796 C   0  0  0  0  0  0  0  0  0  0  0  0
  152.8182  140.6547  159.0600 N   0  0  0  0  0  0  0  0  0  0  0  0
  152.7027  141.5351  160.2171 C   0  0  0  0  0  0  0  0  0  0  0  0
  153.9656  141.4419  161.0913 C   0  0  1  0  0  0  0  0  0  0  0  0
  153.8250  142.2482  162.3867 C   0  0  0  0  0  0  0  0  0  0  0  0
  154.2064  140.0802  161.4422 O   0  0  0  0  0  0  0  0  0  0  0  0
  154.3680  139.1967  160.3306 C   0  0  2  0  0  0  0  0  0  0  0  0
  155.7012  139.4227  159.5955 C   0  0  0  0  0  0  0  0  0  0  0  0
  153.1380  139.2709  159.4045 C   0  0  0  0  0  0  0  0  0  0  0  0
  152.1724  140.1000  156.8682 N   0  0  0  0  0  0  0  0  0  0  0  0
  151.3574  140.2308  155.8014 C   0  0  0  0  0  0  0  0  0  0  0  0
  144.1338  145.9748  152.5493 H   0  0  0  0  0  0  0  0  0  0  0  0
  145.1252  146.1765  153.9958 H   0  0  0  0  0  0  0  0  0  0  0  0
  143.7742  145.0296  154.0007 H   0  0  0  0  0  0  0  0  0  0  0  0
  146.7188  144.1185  154.9503 H   0  0  0  0  0  0  0  0  0  0  0  0
  145.1990  142.5041  156.1293 H   0  0  0  0  0  0  0  0  0  0  0  0
  144.2960  142.2769  154.6322 H   0  0  0  0  0  0  0  0  0  0  0  0
  144.3252  143.8522  155.4157 H   0  0  0  0  0  0  0  0  0  0  0  0
  148.5855  143.0812  155.1606 H   0  0  0  0  0  0  0  0  0  0  0  0
  148.8470  140.2435  154.4136 H   0  0  0  0  0  0  0  0  0  0  0  0
  149.9504  141.3674  153.6580 H   0  0  0  0  0  0  0  0  0  0  0  0
  149.1500  142.5500  156.9575 H   0  0  0  0  0  0  0  0  0  0  0  0
  150.6282  142.3291  158.9215 H   0  0  0  0  0  0  0  0  0  0  0  0
  152.5719  142.5683  159.8934 H   0  0  0  0  0  0  0  0  0  0  0  0
  151.8206  141.2549  160.7942 H   0  0  0  0  0  0  0  0  0  0  0  0
  154.8200  141.8371  160.5417 H   0  0  0  0  0  0  0  0  0  0  0  0
  153.6441  143.3023  162.1751 H   0  0  0  0  0  0  0  0  0  0  0  0
  154.7322  142.1808  162.9874 H   0  0  0  0  0  0  0  0  0  0  0  0
  152.9961  141.8808  162.9925 H   0  0  0  0  0  0  0  0  0  0  0  0
  154.4065  138.1901  160.7477 H   0  0  0  0  0  0  0  0  0  0  0  0
  155.8620  138.6494  158.8441 H   0  0  0  0  0  0  0  0  0  0  0  0
  156.5403  139.3857  160.2905 H   0  0  0  0  0  0  0  0  0  0  0  0
  155.7330  140.3826  159.0808 H   0  0  0  0  0  0  0  0  0  0  0  0
  152.2726  138.8406  159.9103 H   0  0  0  0  0  0  0  0  0  0  0  0
  153.3179  138.6601  158.5197 H   0  0  0  0  0  0  0  0  0  0  0  0
  151.6029  139.6240  154.9424 H   0  0  0  0  0  0  0  0  0  0  0  0
  1  2  1  0  0  0  0
  1 23  1  0  0  0  0
  1 24  1  0  0  0  0
  1 25  1  0  0  0  0
  2  3  1  0  0  0  0
  3  4  1  0  0  0  0
  3  5  1  0  0  0  0
  3 26  1  0  0  0  0
  4 27  1  0  0  0  0
  4 28  1  0  0  0  0
  4 29  1  0  0  0  0
  5  6  2  0  0  0  0
  5  7  1  0  0  0  0
  7  8  1  0  0  0  0
  7 30  1  0  0  0  0
  8  9  1  0  0  0  0
  8 31  1  0  0  0  0
  8 32  1  0  0  0  0
  9 22  1  0  0  0  0
  9 10  2  0  0  0  0
 10 11  1  0  0  0  0
 10 33  1  0  0  0  0
 11 12  2  0  0  0  0
 11 34  1  0  0  0  0
 12 13  1  0  0  0  0
 12 21  1  0  0  0  0
 13 20  1  0  0  0  0
 13 14  1  0  0  0  0
 14 15  1  0  0  0  0
 14 35  1  0  0  0  0
 14 36  1  0  0  0  0
 15 16  1  0  0  0  0
 15 17  1  0  0  0  0
 15 37  1  0  0  0  0
 16 38  1  0  0  0  0
 16 39  1  0  0  0  0
 16 40  1  0  0  0  0
 17 18  1  0  0  0  0
 18 19  1  0  0  0  0
 18 20  1  0  0  0  0
 18 41  1  0  0  0  0
 19 42  1  0  0  0  0
 19 43  1  0  0  0  0
 19 44  1  0  0  0  0
 20 45  1  0  0  0  0
 20 46  1  0  0  0  0
 21 22  2  0  0  0  0
 22 47  1  0  0  0  0
M  END
> <s_m_source_file>
AV-unprocessed.smi

> <i_m_source_file_index>
2184

> <i_lp_mmshare_version>
43012

> <i_f3d_flags>
0

> <s_epik_input>
W0NIM11TW0NASF0oW0NIM10pQyg9TylbTkhdW0NIMl1jMVtjSF1bY0hdYyhuW2NIXTEpTjJbQ0gyXVtDQEBIXShbQ0gzXSlPW0NAQEhdKFtDSDNdKVtDSDJdMg==

> <s_epik_cmdline>
J2VwaWtfcHl0aG9uJywgJy1waCcsICc3LjAnLCAnLXRuJywgJzgnLCAnLW1hJywgJzIwMCcsICctbWV0YWxfYmluZGluZycsICctaW1hZScsICc8aW5maWxlLm1hZT4nLCAnLW9tYWUnLCAnPG91dGZpbGUubWFlPic=

> <r_lp_tautomer_probability>
1

> <r_epik_Ionization_Penalty>
0.00551702

> <r_epik_Ionization_Penalty_Charging>
0

> <r_epik_Ionization_Penalty_Neutral>
0.00551702

> <r_epik_State_Penalty>
0.00403758

> <r_epik_Charging_Adjusted_Penalty>
0.00403758

> <i_epik_Tot_Q>
0

> <i_epik_Tot_abs_Q>
0

> <r_epik_Metal_State_Penalty>
-0

> <b_epik_Metal_Only>
0

> <s_lp_Force_Field>
OPLS_2005

> <r_lp_Energy>
17.8704

> <b_lp_Chiralities_Consistent>
1

> <s_lp_Variant>
AV-unprocessed.smi:2184-6

> <Gold.Version>
5.8.1

> <Gold.Id.Protein>
6NUR|6NUR_protein|mol2

> <Gold.PLP.Fitness>
50.4064

> <Gold.PLP.PLP>
-45.0068

> <Gold.PLP.part.hbond>
-2.0000

> <Gold.PLP.part.metal>
0.0000

> <Gold.PLP.part.buried>
-2.3864

> <Gold.PLP.part.nonpolar>
-39.5522

> <Gold.PLP.part.repulsive>
0.3952

> <Gold.PLP.ligand.clash>
0.0000

> <Gold.PLP.ligand.torsion>
0.4405

> <Gold.PLP.Chemscore.Hbond>
1.9425

> <Gold.PLP.Chemscore.CHOScore>
0.0000

> <Gold.PLP.Chemscore.Metal>
0.0000

> <Gold.Chemscore.Hbonds>
donor molecule, donor type, donor heavy atom, donor atom, acceptor molecule, acceptor atom, score
      L1  H     7    30       P1  8028  1.00
      P1  H  7997  8010       L1    21  0.57

> <Gold.PLP.Chemscore.Internal.Correction>
0.4532

> <Gold.Rescore>
     Score         DG    S(hbond)    S(metal)    S(lipo)     H(rot)  DE(clash)    DE(int)     intcor
     19.28     -19.97       1.72        0.00     109.52       1.59       0.20       0.49       ----

> <Gold.Chemscore.Fitness>
19.2835

> <Gold.Chemscore.DG>
-19.9676

> <Gold.Chemscore.ZeroCoef>
-5.4800

> <Gold.Chemscore.Hbond>
1.7234

> <Gold.Chemscore.Metal>
0.0000

> <Gold.Chemscore.Lipo>
109.5204

> <Gold.Chemscore.Internal_Hbond>
0.0000

> <Gold.Chemscore.DEClash>
0.1987

> <Gold.Chemscore.DEInternal>
0.4853

> <Gold.Chemscore.Rot>
1.5947

> <Gold.Chemscore.Internal.Correction>
   9.000000E+99

> <Gold.Chemscore.Hbonds>
donor molecule, donor type, donor heavy atom, donor atom, acceptor molecule, acceptor atom, score
      L1  H     7    30       P1  8028  1.00
      P1  H  7997  8010       L1    21  0.36

> <Gold.Chemscore.Hbond.Weighted>
-5.7561

> <Gold.Chemscore.Metal.Weighted>
-0.0000

> <Gold.Chemscore.Lipo.Weighted>
-12.8139

> <Gold.Chemscore.Internal_Hbond.Weighted>
0.0000

> <Gold.Chemscore.DEClash.Weighted>
0.1987

> <Gold.Chemscore.DEInternal.Weighted>
0.4853

> <Gold.Chemscore.Rot.Weighted>
4.0824

> <Gold.Chemscore.Internal.Correction.Weighted>
   9.000000E+99

> <Gold.Protein.RotatedTorsions>
[ 6907 6896 6895 6894 ] final  142.56 input  -60.11 | X-H torsion
[ 7974 7965 7964 7962 ] final  140.96 input  175.53 | X-H torsion
[ 8008 7997 7996 7995 ] final   67.87 input   59.86 | X-H torsion
[ 10167 10162 10161 10158 ] final   -0.38 input  -65.29 | X-H torsion
[ 10718 10713 10712 10709 ] final  -37.31 input   66.30 | X-H torsion
[ 10763 10752 10751 10750 ] final -171.11 input  -60.55 | X-H torsion
[ 11005 11000 10999 10996 ] final -127.84 input  -57.11 | X-H torsion

> <Gold.Protein.ActiveResidues>
 VAL166  LYS551  ARG553  GLY616  TRP617  ASP618  TYR619  PRO620  LYS621  CYS622 
 ASP623  PHE694  ASN695  SER759  ASP760  ASP761  ALA762  ILE779  LEU786  VAL792 
 PHE793  MET794  SER795  GLU796  ALA797  LYS798  CYS799  TRP800  GLU811  SER814 

> <Gold.Protein.RotatedAtoms>
  152.2172  133.4956  159.5142 H   0  0  0  0  0  0  0  0  0  0  0  0  # atno 6907 bound_to 6896
  150.7004  134.1390  159.4107 H   0  0  0  0  0  0  0  0  0  0  0  0  # atno 6908 bound_to 6896
  151.9310  135.0256  160.0580 H   0  0  0  0  0  0  0  0  0  0  0  0  # atno 6909 bound_to 6896
  144.9139  139.5256  143.5695 H   0  0  0  0  0  0  0  0  0  0  0  0  # atno 7974 bound_to 7965
  155.6995  140.3495  155.4927 H   0  0  0  0  0  0  0  0  0  0  0  0  # atno 8008 bound_to 7997
  155.9453  140.1109  157.1044 H   0  0  0  0  0  0  0  0  0  0  0  0  # atno 8009 bound_to 7997
  154.4111  140.1205  156.4967 H   0  0  0  0  0  0  0  0  0  0  0  0  # atno 8010 bound_to 7997
  140.6765  143.6901  150.8034 H   0  0  0  0  0  0  0  0  0  0  0  0  # atno 10167 bound_to 10162
  156.3167  130.4260  149.7998 H   0  0  0  0  0  0  0  0  0  0  0  0  # atno 10718 bound_to 10713
  154.6341  135.2890  155.0182 H   0  0  0  0  0  0  0  0  0  0  0  0  # atno 10763 bound_to 10752
  154.1332  135.6530  153.4930 H   0  0  0  0  0  0  0  0  0  0  0  0  # atno 10764 bound_to 10752
  153.0294  135.5315  154.7180 H   0  0  0  0  0  0  0  0  0  0  0  0  # atno 10765 bound_to 10752
  140.9566  134.0993  157.4010 H   0  0  0  0  0  0  0  0  0  0  0  0  # atno 11005 bound_to 11000
  146.3172  139.7967  142.8974 LP  0  0  0  0  0  0  0  0  0  0  0  0  # atno 17320 bound_to 7965
  145.3408  141.0287  143.3393 LP  0  0  0  0  0  0  0  0  0  0  0  0  # atno 17321 bound_to 7965
  140.0595  143.5169  152.2634 LP  0  0  0  0  0  0  0  0  0  0  0  0  # atno 17342 bound_to 10162
  139.6060  144.7596  151.3061 LP  0  0  0  0  0  0  0  0  0  0  0  0  # atno 17343 bound_to 10162
  156.5321  130.8262  151.3240 LP  0  0  0  0  0  0  0  0  0  0  0  0  # atno 17370 bound_to 10713
  157.7403  130.9848  150.2369 LP  0  0  0  0  0  0  0  0  0  0  0  0  # atno 17371 bound_to 10713
  139.8864  135.0081  156.6497 LP  0  0  0  0  0  0  0  0  0  0  0  0  # atno 17394 bound_to 11000
  140.7527  133.8884  155.8359 LP  0  0  0  0  0  0  0  0  0  0  0  0  # atno 17395 bound_to 11000

$$$$
