AV-unprocessed.smi:1027|AV-procd|sdf|4472|dock2
  -GOLD-   22720 2443D 1   1.00000     0.00000
 Structure written by MMmdl.
 34 35  0  0  0  0  0  0  0  0  2 V2000
  154.9943  135.0467  162.8191 C   0  0  0  0  0  0  0  0  0  0  0  0
  153.7802  135.8209  163.3690 C   0  0  0  0  0  0  0  0  0  0  0  0
  152.5220  135.4320  162.5715 C   0  0  0  0  0  0  0  0  0  0  0  0
  154.0205  137.3541  163.3861 C   0  0  1  0  0  0  0  0  0  0  0  0
  155.3218  137.7585  164.1049 C   0  0  0  0  0  0  0  0  0  0  0  0
  154.0564  137.8726  162.0179 N   0  0  0  0  0  0  0  0  0  0  0  0
  154.2323  139.1514  161.6536 C   0  0  0  0  0  0  0  0  0  0  0  0
  154.3985  140.0209  162.5121 O   0  0  0  0  0  0  0  0  0  0  0  0
  154.2040  139.3433  160.3150 N   0  5  0  0  0  0  0  0  0  0  0  0
  153.5012  140.3648  159.7983 C   0  0  0  0  0  0  0  0  0  0  0  0
  153.2502  140.4737  158.4861 N   0  0  0  0  0  0  0  0  0  0  0  0
  152.5078  141.6009  158.1656 N   0  0  0  0  0  0  0  0  0  0  0  0
  152.2011  142.3255  159.2443 C   0  0  0  0  0  0  0  0  0  0  0  0
  151.4107  143.5884  159.1606 C   0  0  0  0  0  0  0  0  0  0  0  0
  152.0856  144.9331  159.3061 C   0  0  0  0  0  0  0  0  0  0  0  0
  151.1515  144.4425  160.3823 C   0  0  0  0  0  0  0  0  0  0  0  0
  152.8006  141.6672  160.7584 S   0  0  0  0  0  0  0  0  0  0  0  0
  155.2355  135.3622  161.8037 H   0  0  0  0  0  0  0  0  0  0  0  0
  154.7986  133.9743  162.7954 H   0  0  0  0  0  0  0  0  0  0  0  0
  155.8836  135.1928  163.4325 H   0  0  0  0  0  0  0  0  0  0  0  0
  153.6276  135.4922  164.3980 H   0  0  0  0  0  0  0  0  0  0  0  0
  152.5781  135.7914  161.5436 H   0  0  0  0  0  0  0  0  0  0  0  0
  151.6154  135.8363  163.0203 H   0  0  0  0  0  0  0  0  0  0  0  0
  152.3991  134.3492  162.5368 H   0  0  0  0  0  0  0  0  0  0  0  0
  153.1831  137.8147  163.9135 H   0  0  0  0  0  0  0  0  0  0  0  0
  155.2957  137.5039  165.1640 H   0  0  0  0  0  0  0  0  0  0  0  0
  155.4859  138.8350  164.0456 H   0  0  0  0  0  0  0  0  0  0  0  0
  156.1888  137.2678  163.6613 H   0  0  0  0  0  0  0  0  0  0  0  0
  153.9265  137.1998  161.2768 H   0  0  0  0  0  0  0  0  0  0  0  0
  150.6121  143.4942  158.4275 H   0  0  0  0  0  0  0  0  0  0  0  0
  153.1501  144.9424  159.5320 H   0  0  0  0  0  0  0  0  0  0  0  0
  151.7370  145.7405  158.6657 H   0  0  0  0  0  0  0  0  0  0  0  0
  150.1784  144.9230  160.4603 H   0  0  0  0  0  0  0  0  0  0  0  0
  151.5982  144.1392  161.3270 H   0  0  0  0  0  0  0  0  0  0  0  0
  1  2  1  0  0  0  0
  1 18  1  0  0  0  0
  1 19  1  0  0  0  0
  1 20  1  0  0  0  0
  2  3  1  0  0  0  0
  2  4  1  0  0  0  0
  2 21  1  0  0  0  0
  3 22  1  0  0  0  0
  3 23  1  0  0  0  0
  3 24  1  0  0  0  0
  4  5  1  0  0  0  0
  4  6  1  0  0  0  0
  4 25  1  0  0  0  0
  5 26  1  0  0  0  0
  5 27  1  0  0  0  0
  5 28  1  0  0  0  0
  6  7  1  0  0  0  0
  6 29  1  0  0  0  0
  7  8  2  0  0  0  0
  7  9  1  0  0  0  0
  9 10  1  0  0  0  0
 10 17  1  0  0  0  0
 10 11  2  0  0  0  0
 11 12  1  0  0  0  0
 12 13  2  0  0  0  0
 13 14  1  0  0  0  0
 13 17  1  0  0  0  0
 14 16  1  0  0  0  0
 14 15  1  0  0  0  0
 14 30  1  0  0  0  0
 15 16  1  0  0  0  0
 15 31  1  0  0  0  0
 15 32  1  0  0  0  0
 16 33  1  0  0  0  0
 16 34  1  0  0  0  0
M  CHG  1   9  -1
M  END
> <s_m_source_file>
AV-unprocessed.smi

> <i_m_source_file_index>
1027

> <i_lp_mmshare_version>
43012

> <i_f3d_flags>
0

> <s_epik_input>
W0NIM11bQ0hdKFtDSDNdKVtDQEhdKFtDSDNdKVtOSF1DKD1PKVtOSF1jMW5uYyhzMSlbQ0hdMltDSDJdW0NIMl0y

> <s_epik_cmdline>
J2VwaWtfcHl0aG9uJywgJy1waCcsICc3LjAnLCAnLXRuJywgJzgnLCAnLW1hJywgJzIwMCcsICctbWV0YWxfYmluZGluZycsICctaW1hZScsICc8aW5maWxlLm1hZT4nLCAnLW9tYWUnLCAnPG91dGZpbGUubWFlPic=

> <r_lp_tautomer_probability>
1

> <r_epik_Ionization_Penalty>
3.99975

> <r_epik_Ionization_Penalty_Charging>
3.83446

> <r_epik_Ionization_Penalty_Neutral>
0.165297

> <r_epik_State_Penalty>
3.83354

> <r_epik_Charging_Adjusted_Penalty>
7.668

> <i_epik_Tot_Q>
-1

> <i_epik_Tot_abs_Q>
1

> <r_epik_Metal_State_Penalty>
0.575872

> <b_epik_Metal_Only>
1

> <s_lp_Force_Field>
OPLS_2005

> <r_lp_Energy>
2.2869

> <b_lp_Chiralities_Consistent>
1

> <s_lp_Variant>
AV-unprocessed.smi:1027-4

> <Gold.Version>
5.8.1

> <Gold.Id.Protein>
6NUR|6NUR_protein|mol2

> <Gold.PLP.Fitness>
37.5286

> <Gold.PLP.PLP>
-37.2059

> <Gold.PLP.part.hbond>
-1.5148

> <Gold.PLP.part.metal>
0.0000

> <Gold.PLP.part.buried>
-3.9956

> <Gold.PLP.part.nonpolar>
-30.9092

> <Gold.PLP.part.repulsive>
0.0000

> <Gold.PLP.ligand.clash>
0.0000

> <Gold.PLP.ligand.torsion>
0.6719

> <Gold.PLP.Chemscore.Hbond>
0.4862

> <Gold.PLP.Chemscore.CHOScore>
0.0000

> <Gold.PLP.Chemscore.Metal>
0.0000

> <Gold.Chemscore.Hbonds>
donor molecule, donor type, donor heavy atom, donor atom, acceptor molecule, acceptor atom, score
      P1  H  7997  8009       L1    11  0.78

> <Gold.PLP.Chemscore.Internal.Correction>
0.2080

> <Gold.Rescore>
     Score         DG    S(hbond)    S(metal)    S(lipo)     H(rot)  DE(clash)    DE(int)     intcor
      9.15     -13.35       0.25        0.00      89.93       1.36       1.58       2.61       ----

> <Gold.Chemscore.Fitness>
9.1525

> <Gold.Chemscore.DG>
-13.3469

> <Gold.Chemscore.ZeroCoef>
-5.4800

> <Gold.Chemscore.Hbond>
0.2489

> <Gold.Chemscore.Metal>
0.0000

> <Gold.Chemscore.Lipo>
89.9294

> <Gold.Chemscore.Internal_Hbond>
0.0000

> <Gold.Chemscore.DEClash>
1.5844

> <Gold.Chemscore.DEInternal>
2.6101

> <Gold.Chemscore.Rot>
1.3618

> <Gold.Chemscore.Internal.Correction>
   9.000000E+99

> <Gold.Chemscore.Hbonds>
donor molecule, donor type, donor heavy atom, donor atom, acceptor molecule, acceptor atom, score
      P1  H  7997  8009       L1    11  0.62

> <Gold.Chemscore.Hbond.Weighted>
-0.8315

> <Gold.Chemscore.Metal.Weighted>
-0.0000

> <Gold.Chemscore.Lipo.Weighted>
-10.5217

> <Gold.Chemscore.Internal_Hbond.Weighted>
0.0000

> <Gold.Chemscore.DEClash.Weighted>
1.5844

> <Gold.Chemscore.DEInternal.Weighted>
2.6101

> <Gold.Chemscore.Rot.Weighted>
3.4863

> <Gold.Chemscore.Internal.Correction.Weighted>
   9.000000E+99

> <Gold.Protein.RotatedTorsions>
[ 6907 6896 6895 6894 ] final  131.22 input  -60.11 | X-H torsion
[ 7974 7965 7964 7962 ] final    6.70 input  175.53 | X-H torsion
[ 8008 7997 7996 7995 ] final  143.68 input   59.86 | X-H torsion
[ 10167 10162 10161 10158 ] final   71.16 input  -65.29 | X-H torsion
[ 10718 10713 10712 10709 ] final   68.02 input   66.30 | X-H torsion
[ 10763 10752 10751 10750 ] final -149.85 input  -60.55 | X-H torsion
[ 11005 11000 10999 10996 ] final -153.85 input  -57.11 | X-H torsion

> <Gold.Protein.ActiveResidues>
 VAL166  LYS551  ARG553  GLY616  TRP617  ASP618  TYR619  PRO620  LYS621  CYS622 
 ASP623  PHE694  ASN695  SER759  ASP760  ASP761  ALA762  ILE779  LEU786  VAL792 
 PHE793  MET794  SER795  GLU796  ALA797  LYS798  CYS799  TRP800  GLU811  SER814 

> <Gold.Protein.RotatedAtoms>
  152.3448  133.6109  159.5901 H   0  0  0  0  0  0  0  0  0  0  0  0  # atno 6907 bound_to 6896
  150.7500  133.9667  159.3541 H   0  0  0  0  0  0  0  0  0  0  0  0  # atno 6908 bound_to 6896
  151.7526  135.0830  160.0384 H   0  0  0  0  0  0  0  0  0  0  0  0  # atno 6909 bound_to 6896
  146.2433  140.0194  142.8399 H   0  0  0  0  0  0  0  0  0  0  0  0  # atno 7974 bound_to 7965
  156.2925  140.2256  156.4930 H   0  0  0  0  0  0  0  0  0  0  0  0  # atno 8008 bound_to 7997
  154.7755  140.0464  157.1106 H   0  0  0  0  0  0  0  0  0  0  0  0  # atno 8009 bound_to 7997
  154.9822  140.3080  155.4945 H   0  0  0  0  0  0  0  0  0  0  0  0  # atno 8010 bound_to 7997
  140.0491  144.5327  150.7377 H   0  0  0  0  0  0  0  0  0  0  0  0  # atno 10167 bound_to 10162
  157.6265  130.9351  150.0321 H   0  0  0  0  0  0  0  0  0  0  0  0  # atno 10718 bound_to 10713
  154.8153  135.3299  154.7192 H   0  0  0  0  0  0  0  0  0  0  0  0  # atno 10763 bound_to 10752
  153.7834  135.6916  153.4889 H   0  0  0  0  0  0  0  0  0  0  0  0  # atno 10764 bound_to 10752
  153.1965  135.4532  155.0161 H   0  0  0  0  0  0  0  0  0  0  0  0  # atno 10765 bound_to 10752
  140.7037  134.3909  157.5206 H   0  0  0  0  0  0  0  0  0  0  0  0  # atno 11005 bound_to 11000
  145.1255  140.9487  143.4575 LP  0  0  0  0  0  0  0  0  0  0  0  0  # atno 17320 bound_to 7965
  145.0439  139.3237  143.5963 LP  0  0  0  0  0  0  0  0  0  0  0  0  # atno 17321 bound_to 7965
  140.7225  143.2603  151.4231 LP  0  0  0  0  0  0  0  0  0  0  0  0  # atno 17342 bound_to 10162
  139.5965  144.1387  152.2149 LP  0  0  0  0  0  0  0  0  0  0  0  0  # atno 17343 bound_to 10162
  156.1440  130.3642  149.9539 LP  0  0  0  0  0  0  0  0  0  0  0  0  # atno 17370 bound_to 10713
  156.7573  130.9138  151.3640 LP  0  0  0  0  0  0  0  0  0  0  0  0  # atno 17371 bound_to 10713
  139.8890  134.8842  156.2445 LP  0  0  0  0  0  0  0  0  0  0  0  0  # atno 17394 bound_to 11000
  141.0142  133.7078  156.1162 LP  0  0  0  0  0  0  0  0  0  0  0  0  # atno 17395 bound_to 11000

$$$$
