AV-unprocessed.smi:3041|AV-procd|sdf|11598|dock6
  -GOLD-   2272016573D 1   1.00000     0.00000
 Structure written by MMmdl.
 38 39  0  0  0  0  0  0  0  0  1 V2000
  153.6758  141.1545  162.0333 C   0  0  0  0  0  0  0  0  0  0  0  0
  153.0109  142.0058  161.0705 N   0  0  0  0  0  0  0  0  0  0  0  0
  152.5773  143.3045  161.2258 C   0  0  0  0  0  0  0  0  0  0  0  0
  152.0125  143.6922  160.0433 C   0  0  0  0  0  0  0  0  0  0  0  0
  151.4024  145.0201  159.6803 C   0  0  0  0  0  0  0  0  0  0  0  0
  150.2278  145.4126  160.5955 C   0  0  0  0  0  0  0  0  0  0  0  0
  149.1327  146.0345  159.8546 N   0  0  0  0  0  0  0  0  0  0  0  0
  148.2070  146.8531  160.3754 C   0  0  0  0  0  0  0  0  0  0  0  0
  148.1753  147.1957  161.5574 O   0  0  0  0  0  0  0  0  0  0  0  0
  147.3184  147.2446  159.4520 N   0  0  0  0  0  0  0  0  0  0  0  0
  146.1914  148.1409  159.6882 C   0  0  0  0  0  0  0  0  0  0  0  0
  146.2532  149.3593  158.7523 C   0  0  1  0  0  0  0  0  0  0  0  0
  147.4587  150.2574  158.9529 C   0  0  0  0  0  0  0  0  0  0  0  0
  147.4989  151.0284  157.6369 C   0  0  0  0  0  0  0  0  0  0  0  0
  146.9676  150.1474  156.6511 O   0  0  0  0  0  0  0  0  0  0  0  0
  146.3993  148.9996  157.2745 C   0  0  0  0  0  0  0  0  0  0  0  0
  152.1483  142.5390  159.2187 C   0  0  0  0  0  0  0  0  0  0  0  0
  152.7443  141.5323  159.8362 N   0  0  0  0  0  0  0  0  0  0  0  0
  153.9965  141.7429  162.8935 H   0  0  0  0  0  0  0  0  0  0  0  0
  154.5509  140.6896  161.5778 H   0  0  0  0  0  0  0  0  0  0  0  0
  152.9906  140.3762  162.3703 H   0  0  0  0  0  0  0  0  0  0  0  0
  152.7109  143.8430  162.1523 H   0  0  0  0  0  0  0  0  0  0  0  0
  152.1570  145.8058  159.7253 H   0  0  0  0  0  0  0  0  0  0  0  0
  151.0564  145.0098  158.6460 H   0  0  0  0  0  0  0  0  0  0  0  0
  149.8759  144.5407  161.1497 H   0  0  0  0  0  0  0  0  0  0  0  0
  150.5736  146.1260  161.3437 H   0  0  0  0  0  0  0  0  0  0  0  0
  149.0710  145.8155  158.8711 H   0  0  0  0  0  0  0  0  0  0  0  0
  147.4332  146.9014  158.5097 H   0  0  0  0  0  0  0  0  0  0  0  0
  145.2687  147.5828  159.5256 H   0  0  0  0  0  0  0  0  0  0  0  0
  146.1675  148.4849  160.7236 H   0  0  0  0  0  0  0  0  0  0  0  0
  145.3474  149.9561  158.8737 H   0  0  0  0  0  0  0  0  0  0  0  0
  147.3714  150.9095  159.8225 H   0  0  0  0  0  0  0  0  0  0  0  0
  148.3651  149.6598  159.0626 H   0  0  0  0  0  0  0  0  0  0  0  0
  146.8602  151.9108  157.6931 H   0  0  0  0  0  0  0  0  0  0  0  0
  148.5060  151.3555  157.3780 H   0  0  0  0  0  0  0  0  0  0  0  0
  147.0878  148.1633  157.1455 H   0  0  0  0  0  0  0  0  0  0  0  0
  145.4485  148.7274  156.8158 H   0  0  0  0  0  0  0  0  0  0  0  0
  151.8371  142.4072  158.1931 H   0  0  0  0  0  0  0  0  0  0  0  0
  1  2  1  0  0  0  0
  1 19  1  0  0  0  0
  1 20  1  0  0  0  0
  1 21  1  0  0  0  0
  2 18  1  0  0  0  0
  2  3  1  0  0  0  0
  3  4  2  0  0  0  0
  3 22  1  0  0  0  0
  4  5  1  0  0  0  0
  4 17  1  0  0  0  0
  5  6  1  0  0  0  0
  5 23  1  0  0  0  0
  5 24  1  0  0  0  0
  6  7  1  0  0  0  0
  6 25  1  0  0  0  0
  6 26  1  0  0  0  0
  7  8  1  0  0  0  0
  7 27  1  0  0  0  0
  8  9  2  0  0  0  0
  8 10  1  0  0  0  0
 10 11  1  0  0  0  0
 10 28  1  0  0  0  0
 11 12  1  0  0  0  0
 11 29  1  0  0  0  0
 11 30  1  0  0  0  0
 12 16  1  0  0  0  0
 12 13  1  0  0  0  0
 12 31  1  0  0  0  0
 13 14  1  0  0  0  0
 13 32  1  0  0  0  0
 13 33  1  0  0  0  0
 14 15  1  0  0  0  0
 14 34  1  0  0  0  0
 14 35  1  0  0  0  0
 15 16  1  0  0  0  0
 16 36  1  0  0  0  0
 16 37  1  0  0  0  0
 17 18  2  0  0  0  0
 17 38  1  0  0  0  0
M  END
> <s_m_source_file>
AV-unprocessed.smi

> <i_m_source_file_index>
3041

> <i_lp_mmshare_version>
43012

> <i_f3d_flags>
0

> <s_epik_input>
W0NIM11uMVtjSF1jKFtjSF1uMSlbQ0gyXVtDSDJdW05IXUMoPU8pW05IXVtDSDJdW0NAQEhdMltDSDJdW0NIMl1PW0NIMl0y

> <s_epik_cmdline>
J2VwaWtfcHl0aG9uJywgJy1waCcsICc3LjAnLCAnLXRuJywgJzgnLCAnLW1hJywgJzIwMCcsICctbWV0YWxfYmluZGluZycsICctaW1hZScsICc8aW5maWxlLm1hZT4nLCAnLW9tYWUnLCAnPG91dGZpbGUubWFlPic=

> <r_lp_tautomer_probability>
1

> <r_epik_Ionization_Penalty>
0.000557811

> <r_epik_Ionization_Penalty_Charging>
0

> <r_epik_Ionization_Penalty_Neutral>
0.000557811

> <r_epik_State_Penalty>
-0

> <r_epik_Charging_Adjusted_Penalty>
0

> <i_epik_Tot_Q>
0

> <i_epik_Tot_abs_Q>
0

> <r_epik_Metal_State_Penalty>
-0

> <b_epik_Metal_Only>
0

> <s_lp_Force_Field>
OPLS_2005

> <r_lp_Energy>
14.3495

> <b_lp_Chiralities_Consistent>
1

> <s_lp_Variant>
AV-unprocessed.smi:3041-2

> <Gold.Version>
5.8.1

> <Gold.Id.Protein>
6NUR|6NUR_protein|mol2

> <Gold.PLP.Fitness>
52.5224

> <Gold.PLP.PLP>
-47.7192

> <Gold.PLP.part.hbond>
-4.4366

> <Gold.PLP.part.metal>
0.0000

> <Gold.PLP.part.buried>
-8.2999

> <Gold.PLP.part.nonpolar>
-37.5135

> <Gold.PLP.part.repulsive>
1.6524

> <Gold.PLP.ligand.clash>
0.0000

> <Gold.PLP.ligand.torsion>
0.4722

> <Gold.PLP.Chemscore.Hbond>
1.9120

> <Gold.PLP.Chemscore.CHOScore>
0.0000

> <Gold.PLP.Chemscore.Metal>
0.0000

> <Gold.Chemscore.Hbonds>
donor molecule, donor type, donor heavy atom, donor atom, acceptor molecule, acceptor atom, score
      L1  H     7    27       P1  8029  0.86
      L1  H    10    28       P1  8029  1.00

> <Gold.PLP.Chemscore.Internal.Correction>
0.0116

> <Gold.Rescore>
     Score         DG    S(hbond)    S(metal)    S(lipo)     H(rot)  DE(clash)    DE(int)     intcor
     18.36     -18.97       1.93        0.00     100.81       1.85       0.12       0.49       ----

> <Gold.Chemscore.Fitness>
18.3603

> <Gold.Chemscore.DG>
-18.9732

> <Gold.Chemscore.ZeroCoef>
-5.4800

> <Gold.Chemscore.Hbond>
1.9286

> <Gold.Chemscore.Metal>
0.0000

> <Gold.Chemscore.Lipo>
100.8117

> <Gold.Chemscore.Internal_Hbond>
0.0000

> <Gold.Chemscore.DEClash>
0.1222

> <Gold.Chemscore.DEInternal>
0.4907

> <Gold.Chemscore.Rot>
1.8528

> <Gold.Chemscore.Internal.Correction>
   9.000000E+99

> <Gold.Chemscore.Hbonds>
donor molecule, donor type, donor heavy atom, donor atom, acceptor molecule, acceptor atom, score
      L1  H     7    27       P1  8029  0.83
      L1  H    10    28       P1  8029  0.97

> <Gold.Chemscore.Hbond.Weighted>
-6.4415

> <Gold.Chemscore.Metal.Weighted>
-0.0000

> <Gold.Chemscore.Lipo.Weighted>
-11.7950

> <Gold.Chemscore.Internal_Hbond.Weighted>
0.0000

> <Gold.Chemscore.DEClash.Weighted>
0.1222

> <Gold.Chemscore.DEInternal.Weighted>
0.4907

> <Gold.Chemscore.Rot.Weighted>
4.7433

> <Gold.Chemscore.Internal.Correction.Weighted>
   9.000000E+99

> <Gold.Protein.RotatedTorsions>
[ 6907 6896 6895 6894 ] final  165.41 input  -60.11 | X-H torsion
[ 7974 7965 7964 7962 ] final -159.99 input  175.53 | X-H torsion
[ 8008 7997 7996 7995 ] final -107.24 input   59.86 | X-H torsion
[ 10167 10162 10161 10158 ] final -178.50 input  -65.29 | X-H torsion
[ 10718 10713 10712 10709 ] final -105.49 input   66.30 | X-H torsion
[ 10763 10752 10751 10750 ] final -165.82 input  -60.55 | X-H torsion
[ 11005 11000 10999 10996 ] final   44.74 input  -57.11 | X-H torsion

> <Gold.Protein.ActiveResidues>
 VAL166  LYS551  ARG553  GLY616  TRP617  ASP618  TYR619  PRO620  LYS621  CYS622 
 ASP623  PHE694  ASN695  SER759  ASP760  ASP761  ALA762  ILE779  LEU786  VAL792 
 PHE793  MET794  SER795  GLU796  ALA797  LYS798  CYS799  TRP800  GLU811  SER814 

> <Gold.Protein.RotatedAtoms>
  151.8948  133.3524  159.3810 H   0  0  0  0  0  0  0  0  0  0  0  0  # atno 6907 bound_to 6896
  150.7094  134.4887  159.5514 H   0  0  0  0  0  0  0  0  0  0  0  0  # atno 6908 bound_to 6896
  152.2464  134.8177  160.0503 H   0  0  0  0  0  0  0  0  0  0  0  0  # atno 6909 bound_to 6896
  144.7444  140.3606  143.6097 H   0  0  0  0  0  0  0  0  0  0  0  0  # atno 7974 bound_to 7965
  154.9264  140.0406  157.2025 H   0  0  0  0  0  0  0  0  0  0  0  0  # atno 8008 bound_to 7997
  154.8203  140.2882  155.5769 H   0  0  0  0  0  0  0  0  0  0  0  0  # atno 8009 bound_to 7997
  156.2979  140.2520  156.3109 H   0  0  0  0  0  0  0  0  0  0  0  0  # atno 8010 bound_to 7997
  139.5429  144.2313  152.0932 H   0  0  0  0  0  0  0  0  0  0  0  0  # atno 10167 bound_to 10162
  156.0348  130.5566  150.7547 H   0  0  0  0  0  0  0  0  0  0  0  0  # atno 10718 bound_to 10713
  154.6894  135.2968  154.9501 H   0  0  0  0  0  0  0  0  0  0  0  0  # atno 10763 bound_to 10752
  154.0470  135.6649  153.4800 H   0  0  0  0  0  0  0  0  0  0  0  0  # atno 10764 bound_to 10752
  153.0601  135.5120  154.7978 H   0  0  0  0  0  0  0  0  0  0  0  0  # atno 10765 bound_to 10752
  140.1524  134.4445  155.8373 H   0  0  0  0  0  0  0  0  0  0  0  0  # atno 11005 bound_to 11000
  145.7181  139.1702  143.2500 LP  0  0  0  0  0  0  0  0  0  0  0  0  # atno 17320 bound_to 7965
  146.1297  140.7201  142.9418 LP  0  0  0  0  0  0  0  0  0  0  0  0  # atno 17321 bound_to 7965
  140.1794  144.4859  150.6536 LP  0  0  0  0  0  0  0  0  0  0  0  0  # atno 17342 bound_to 10162
  140.6667  143.2270  151.5726 LP  0  0  0  0  0  0  0  0  0  0  0  0  # atno 17343 bound_to 10162
  157.5082  131.0923  151.0231 LP  0  0  0  0  0  0  0  0  0  0  0  0  # atno 17370 bound_to 10713
  157.0593  130.5819  149.5383 LP  0  0  0  0  0  0  0  0  0  0  0  0  # atno 17371 bound_to 10713
  141.2200  133.6878  156.7445 LP  0  0  0  0  0  0  0  0  0  0  0  0  # atno 17394 bound_to 11000
  140.2589  134.8482  157.3739 LP  0  0  0  0  0  0  0  0  0  0  0  0  # atno 17395 bound_to 11000

$$$$
