AV-unprocessed.smi:2098|AV-procd|sdf|8568|dock3
  -GOLD-   2272011293D 1   1.00000     0.00000
 Structure written by MMmdl.
 37 39  0  0  0  0  0  0  0  0  2 V2000
  153.3708  138.6296  155.8466 O   0  0  0  0  0  0  0  0  0  0  0  0
  151.9837  138.9035  155.8681 C   0  0  1  0  0  0  0  0  0  0  0  0
  151.6108  139.4448  157.2556 C   0  0  0  0  0  0  0  0  0  0  0  0
  151.7741  140.8570  157.2564 O   0  0  0  0  0  0  0  0  0  0  0  0
  151.9742  141.4901  158.4641 C   0  0  0  0  0  0  0  0  0  0  0  0
  151.5037  142.8149  158.5779 C   0  0  0  0  0  0  0  0  0  0  0  0
  151.6693  143.5386  159.7746 C   0  0  0  0  0  0  0  0  0  0  0  0
  152.3085  142.9399  160.8756 C   0  0  0  0  0  0  0  0  0  0  0  0
  152.4698  143.6343  162.0266 F   0  0  0  0  0  0  0  0  0  0  0  0
  152.7796  141.6176  160.7777 C   0  0  0  0  0  0  0  0  0  0  0  0
  152.6151  140.8941  159.5803 C   0  0  0  0  0  0  0  0  0  0  0  0
  151.6317  139.8899  154.7360 C   0  0  0  0  0  0  0  0  0  0  0  0
  150.3782  139.5477  154.0521 N   0  0  0  0  0  0  0  0  0  0  0  0
  150.0736  138.4840  153.2601 C   0  0  0  0  0  0  0  0  0  0  0  0
  148.7755  138.6202  152.8704 N   0  3  0  0  0  0  0  0  0  0  0  0
  148.2440  139.7894  153.4196 C   0  0  0  0  0  0  0  0  0  0  0  0
  146.9763  140.3531  153.3134 C   0  0  0  0  0  0  0  0  0  0  0  0
  146.7618  141.5629  154.0064 C   0  0  0  0  0  0  0  0  0  0  0  0
  147.7851  142.1663  154.7664 C   0  0  0  0  0  0  0  0  0  0  0  0
  149.0671  141.5866  154.8662 C   0  0  0  0  0  0  0  0  0  0  0  0
  149.2698  140.3905  154.1790 C   0  0  0  0  0  0  0  0  0  0  0  0
  153.5682  138.0239  156.5446 H   0  0  0  0  0  0  0  0  0  0  0  0
  151.4636  137.9584  155.7084 H   0  0  0  0  0  0  0  0  0  0  0  0
  150.5705  139.2001  157.4776 H   0  0  0  0  0  0  0  0  0  0  0  0
  152.2387  138.9821  158.0192 H   0  0  0  0  0  0  0  0  0  0  0  0
  151.0124  143.2826  157.7372 H   0  0  0  0  0  0  0  0  0  0  0  0
  151.3062  144.5533  159.8471 H   0  0  0  0  0  0  0  0  0  0  0  0
  153.2689  141.1559  161.6225 H   0  0  0  0  0  0  0  0  0  0  0  0
  152.9889  139.8823  159.5447 H   0  0  0  0  0  0  0  0  0  0  0  0
  151.5454  140.9089  155.1152 H   0  0  0  0  0  0  0  0  0  0  0  0
  152.4225  139.9057  153.9846 H   0  0  0  0  0  0  0  0  0  0  0  0
  150.7395  137.6765  152.9922 H   0  0  0  0  0  0  0  0  0  0  0  0
  146.1905  139.8934  152.7320 H   0  0  0  0  0  0  0  0  0  0  0  0
  145.7927  142.0376  153.9542 H   0  0  0  0  0  0  0  0  0  0  0  0
  147.5828  143.0928  155.2839 H   0  0  0  0  0  0  0  0  0  0  0  0
  149.8448  142.0548  155.4517 H   0  0  0  0  0  0  0  0  0  0  0  0
  148.2906  137.9616  152.2744 H   0  0  0  0  0  0  0  0  0  0  0  0
  1  2  1  0  0  0  0
  1 22  1  0  0  0  0
  2  3  1  0  0  0  0
  2 12  1  0  0  0  0
  2 23  1  0  0  0  0
  3  4  1  0  0  0  0
  3 24  1  0  0  0  0
  3 25  1  0  0  0  0
  4  5  1  0  0  0  0
  5 11  1  0  0  0  0
  5  6  2  0  0  0  0
  6  7  1  0  0  0  0
  6 26  1  0  0  0  0
  7  8  2  0  0  0  0
  7 27  1  0  0  0  0
  8  9  1  0  0  0  0
  8 10  1  0  0  0  0
 10 11  2  0  0  0  0
 10 28  1  0  0  0  0
 11 29  1  0  0  0  0
 12 13  1  0  0  0  0
 12 30  1  0  0  0  0
 12 31  1  0  0  0  0
 13 21  1  0  0  0  0
 13 14  1  0  0  0  0
 14 15  2  0  0  0  0
 14 32  1  0  0  0  0
 15 16  1  0  0  0  0
 15 37  1  0  0  0  0
 16 21  2  0  0  0  0
 16 17  1  0  0  0  0
 17 18  2  0  0  0  0
 17 33  1  0  0  0  0
 18 19  1  0  0  0  0
 18 34  1  0  0  0  0
 19 20  2  0  0  0  0
 19 35  1  0  0  0  0
 20 21  1  0  0  0  0
 20 36  1  0  0  0  0
M  CHG  1  15   1
M  END
> <s_m_source_file>
AV-unprocessed.smi

> <i_m_source_file_index>
2098

> <i_lp_mmshare_version>
43012

> <i_f3d_flags>
0

> <s_epik_input>
W2NIXTFbY0hdW2NIXVtjSF1jKGMxMiluKFtjSF1uMilbQ0gyXVtDQEhdKFtPSF0pW0NIMl1PYzNbY0hdW2NIXWMoRilbY0hdW2NIXTM=

> <s_epik_cmdline>
J2VwaWtfcHl0aG9uJywgJy1waCcsICc3LjAnLCAnLXRuJywgJzgnLCAnLW1hJywgJzIwMCcsICctbWV0YWxfYmluZGluZycsICctaW1hZScsICc8aW5maWxlLm1hZT4nLCAnLW9tYWUnLCAnPG91dGZpbGUubWFlPic=

> <r_lp_tautomer_probability>
1

> <r_epik_Ionization_Penalty>
1.3832

> <r_epik_Ionization_Penalty_Charging>
1.38319

> <r_epik_Ionization_Penalty_Neutral>
2.3993e-06

> <r_epik_State_Penalty>
1.46389

> <r_epik_Charging_Adjusted_Penalty>
2.84709

> <i_epik_Tot_Q>
1

> <i_epik_Tot_abs_Q>
1

> <r_epik_Metal_State_Penalty>
5.50438

> <b_epik_Metal_Only>
0

> <s_lp_Force_Field>
OPLS_2005

> <r_lp_Energy>
18.1934

> <b_lp_Chiralities_Consistent>
1

> <s_lp_Variant>
AV-unprocessed.smi:2098-4

> <Gold.Version>
5.8.1

> <Gold.Id.Protein>
6NUR|6NUR_protein|mol2

> <Gold.PLP.Fitness>
53.1087

> <Gold.PLP.PLP>
-46.2460

> <Gold.PLP.part.hbond>
-2.8854

> <Gold.PLP.part.metal>
0.0000

> <Gold.PLP.part.buried>
0.9480

> <Gold.PLP.part.nonpolar>
-44.7064

> <Gold.PLP.part.repulsive>
0.0628

> <Gold.PLP.ligand.clash>
0.0000

> <Gold.PLP.ligand.torsion>
1.4525

> <Gold.PLP.Chemscore.Hbond>
2.6400

> <Gold.PLP.Chemscore.CHOScore>
0.6020

> <Gold.PLP.Chemscore.Metal>
0.0000

> <Gold.Chemscore.Hbonds>
donor molecule, donor type, donor heavy atom, donor atom, acceptor molecule, acceptor atom, score
      L1  H    15    37       P1  7948  0.93
      P1  H  7997  8010       L1     1  0.26
      L1  C    14    32       P1  7948  0.09
      L1  C    14    32       P1  7949  0.73

> <Gold.PLP.Chemscore.Internal.Correction>
0.0418

> <Gold.Rescore>
     Score         DG    S(hbond)    S(metal)    S(lipo)     H(rot)  DE(clash)    DE(int)     intcor
     14.55     -16.88       1.02        0.00     121.98       2.46       0.79       1.54       ----

> <Gold.Chemscore.Fitness>
14.5535

> <Gold.Chemscore.DG>
-16.8809

> <Gold.Chemscore.ZeroCoef>
-5.4800

> <Gold.Chemscore.Hbond>
1.0248

> <Gold.Chemscore.Metal>
0.0000

> <Gold.Chemscore.Lipo>
121.9798

> <Gold.Chemscore.Internal_Hbond>
0.0000

> <Gold.Chemscore.DEClash>
0.7872

> <Gold.Chemscore.DEInternal>
1.5402

> <Gold.Chemscore.Rot>
2.4584

> <Gold.Chemscore.Internal.Correction>
   9.000000E+99

> <Gold.Chemscore.Hbonds>
donor molecule, donor type, donor heavy atom, donor atom, acceptor molecule, acceptor atom, score
      L1  H    15    37       P1  7948  0.48
      P1  H  7997  8010       L1     1  0.01

> <Gold.Chemscore.Hbond.Weighted>
-3.4228

> <Gold.Chemscore.Metal.Weighted>
-0.0000

> <Gold.Chemscore.Lipo.Weighted>
-14.2716

> <Gold.Chemscore.Internal_Hbond.Weighted>
0.0000

> <Gold.Chemscore.DEClash.Weighted>
0.7872

> <Gold.Chemscore.DEInternal.Weighted>
1.5402

> <Gold.Chemscore.Rot.Weighted>
6.2936

> <Gold.Chemscore.Internal.Correction.Weighted>
   9.000000E+99

> <Gold.Protein.RotatedTorsions>
[ 6907 6896 6895 6894 ] final  131.70 input  -60.11 | X-H torsion
[ 7974 7965 7964 7962 ] final  -32.11 input  175.53 | X-H torsion
[ 8008 7997 7996 7995 ] final   48.51 input   59.86 | X-H torsion
[ 10167 10162 10161 10158 ] final  -38.20 input  -65.29 | X-H torsion
[ 10718 10713 10712 10709 ] final   67.78 input   66.30 | X-H torsion
[ 10763 10752 10751 10750 ] final -147.46 input  -60.55 | X-H torsion
[ 11005 11000 10999 10996 ] final    9.28 input  -57.11 | X-H torsion

> <Gold.Protein.ActiveResidues>
 VAL166  LYS551  ARG553  GLY616  TRP617  ASP618  TYR619  PRO620  LYS621  CYS622 
 ASP623  PHE694  ASN695  SER759  ASP760  ASP761  ALA762  ILE779  LEU786  VAL792 
 PHE793  MET794  SER795  GLU796  ALA797  LYS798  CYS799  TRP800  GLU811  SER814 

> <Gold.Protein.RotatedAtoms>
  152.3399  133.6055  159.5868 H   0  0  0  0  0  0  0  0  0  0  0  0  # atno 6907 bound_to 6896
  150.7472  133.9738  159.3563 H   0  0  0  0  0  0  0  0  0  0  0  0  # atno 6908 bound_to 6896
  151.7604  135.0812  160.0395 H   0  0  0  0  0  0  0  0  0  0  0  0  # atno 6909 bound_to 6896
  146.1015  140.5751  142.8818 H   0  0  0  0  0  0  0  0  0  0  0  0  # atno 7974 bound_to 7965
  155.3869  140.3431  155.4249 H   0  0  0  0  0  0  0  0  0  0  0  0  # atno 8008 bound_to 7997
  156.1579  140.1591  156.8694 H   0  0  0  0  0  0  0  0  0  0  0  0  # atno 8009 bound_to 7997
  154.5112  140.0789  156.7975 H   0  0  0  0  0  0  0  0  0  0  0  0  # atno 8010 bound_to 7997
  140.7098  143.3293  151.2607 H   0  0  0  0  0  0  0  0  0  0  0  0  # atno 10167 bound_to 10162
  157.6250  130.9339  150.0288 H   0  0  0  0  0  0  0  0  0  0  0  0  # atno 10718 bound_to 10713
  154.8285  135.3360  154.6821 H   0  0  0  0  0  0  0  0  0  0  0  0  # atno 10763 bound_to 10752
  153.7444  135.6943  153.4964 H   0  0  0  0  0  0  0  0  0  0  0  0  # atno 10764 bound_to 10752
  153.2221  135.4445  155.0451 H   0  0  0  0  0  0  0  0  0  0  0  0  # atno 10765 bound_to 10752
  140.5275  134.0498  155.7863 H   0  0  0  0  0  0  0  0  0  0  0  0  # atno 11005 bound_to 11000
  144.7437  140.5010  143.6851 LP  0  0  0  0  0  0  0  0  0  0  0  0  # atno 17320 bound_to 7965
  145.5844  139.1491  143.3217 LP  0  0  0  0  0  0  0  0  0  0  0  0  # atno 17321 bound_to 7965
  139.6770  143.9921  152.2787 LP  0  0  0  0  0  0  0  0  0  0  0  0  # atno 17342 bound_to 10162
  139.9538  144.6603  150.8146 LP  0  0  0  0  0  0  0  0  0  0  0  0  # atno 17343 bound_to 10162
  156.1418  130.3642  149.9571 LP  0  0  0  0  0  0  0  0  0  0  0  0  # atno 17370 bound_to 10713
  156.7611  130.9151  151.3641 LP  0  0  0  0  0  0  0  0  0  0  0  0  # atno 17371 bound_to 10713
  141.1300  133.9318  157.2556 LP  0  0  0  0  0  0  0  0  0  0  0  0  # atno 17394 bound_to 11000
  139.9572  135.0163  156.9161 LP  0  0  0  0  0  0  0  0  0  0  0  0  # atno 17395 bound_to 11000

$$$$
