AV-unprocessed.smi:1934|AV-procd|sdf|7825|dock5
  -GOLD-   22720 9573D 1   1.00000     0.00000
 Structure written by MMmdl.
 46 47  0  0  0  0  0  0  0  0  2 V2000
  153.7009  141.6897  160.7478 C   0  0  0  0  0  0  0  0  0  0  0  0
  152.7983  142.3572  159.7524 C   0  0  0  0  0  0  0  0  0  0  0  0
  152.3629  141.8595  158.4902 C   0  0  0  0  0  0  0  0  0  0  0  0
  151.5685  142.8715  158.0239 C   0  0  0  0  0  0  0  0  0  0  0  0
  150.8754  142.9419  156.8560 N   0  0  0  0  0  0  0  0  0  0  0  0
  150.8140  142.0431  155.8581 C   0  0  0  0  0  0  0  0  0  0  0  0
  151.4340  140.9803  155.8112 O   0  0  0  0  0  0  0  0  0  0  0  0
  149.9821  142.4509  154.8889 N   0  0  0  0  0  0  0  0  0  0  0  0
  149.6845  141.6990  153.6754 C   0  0  0  0  0  0  0  0  0  0  0  0
  148.2905  141.0469  153.7440 C   0  0  0  0  0  0  0  0  0  0  0  0
  147.2258  142.0312  154.0612 N   0  3  1  0  0  0  0  0  0  0  0  0
  146.8805  142.8855  152.8958 C   0  0  0  0  0  0  0  0  0  0  0  0
  145.8966  143.9962  153.2961 C   0  0  0  0  0  0  0  0  0  0  0  0
  144.6333  143.4079  153.9399 C   0  0  0  0  0  0  0  0  0  0  0  0
  144.9858  142.4675  155.1075 C   0  0  2  0  0  0  0  0  0  0  0  0
  145.4421  143.2243  156.3671 C   0  0  0  0  0  0  0  0  0  0  0  0
  146.0137  141.4077  154.6594 C   0  0  0  0  0  0  0  0  0  0  0  0
  151.5461  143.8850  158.9580 N   0  0  0  0  0  0  0  0  0  0  0  0
  150.8588  145.1622  158.9356 C   0  0  0  0  0  0  0  0  0  0  0  0
  152.3113  143.5628  160.0228 N   0  0  0  0  0  0  0  0  0  0  0  0
  153.9063  140.6574  160.4638 H   0  0  0  0  0  0  0  0  0  0  0  0
  153.2509  141.6762  161.7407 H   0  0  0  0  0  0  0  0  0  0  0  0
  154.6559  142.2103  160.8211 H   0  0  0  0  0  0  0  0  0  0  0  0
  152.6036  140.9148  158.0268 H   0  0  0  0  0  0  0  0  0  0  0  0
  150.3240  143.7787  156.7357 H   0  0  0  0  0  0  0  0  0  0  0  0
  149.5135  143.3380  155.0041 H   0  0  0  0  0  0  0  0  0  0  0  0
  149.7779  142.3581  152.8117 H   0  0  0  0  0  0  0  0  0  0  0  0
  150.4482  140.9296  153.5596 H   0  0  0  0  0  0  0  0  0  0  0  0
  148.0868  140.5926  152.7732 H   0  0  0  0  0  0  0  0  0  0  0  0
  148.2677  140.2351  154.4729 H   0  0  0  0  0  0  0  0  0  0  0  0
  147.7838  143.3424  152.4898 H   0  0  0  0  0  0  0  0  0  0  0  0
  146.4535  142.2678  152.1037 H   0  0  0  0  0  0  0  0  0  0  0  0
  146.3810  144.6861  153.9878 H   0  0  0  0  0  0  0  0  0  0  0  0
  145.6248  144.5848  152.4193 H   0  0  0  0  0  0  0  0  0  0  0  0
  143.9715  144.2067  154.2765 H   0  0  0  0  0  0  0  0  0  0  0  0
  144.0778  142.8499  153.1848 H   0  0  0  0  0  0  0  0  0  0  0  0
  144.0725  141.9389  155.3833 H   0  0  0  0  0  0  0  0  0  0  0  0
  146.3696  143.7719  156.2011 H   0  0  0  0  0  0  0  0  0  0  0  0
  145.6103  142.5363  157.1961 H   0  0  0  0  0  0  0  0  0  0  0  0
  144.6863  143.9417  156.6879 H   0  0  0  0  0  0  0  0  0  0  0  0
  145.5579  140.7424  153.9242 H   0  0  0  0  0  0  0  0  0  0  0  0
  146.2823  140.7843  155.5117 H   0  0  0  0  0  0  0  0  0  0  0  0
  150.0886  145.1700  158.1644 H   0  0  0  0  0  0  0  0  0  0  0  0
  151.5743  145.9589  158.7312 H   0  0  0  0  0  0  0  0  0  0  0  0
  150.3863  145.3467  159.9011 H   0  0  0  0  0  0  0  0  0  0  0  0
  147.6119  142.6523  154.7578 H   0  0  0  0  0  0  0  0  0  0  0  0
  1  2  1  0  0  0  0
  1 21  1  0  0  0  0
  1 22  1  0  0  0  0
  1 23  1  0  0  0  0
  2 20  2  0  0  0  0
  2  3  1  0  0  0  0
  3  4  2  0  0  0  0
  3 24  1  0  0  0  0
  4  5  1  0  0  0  0
  4 18  1  0  0  0  0
  5  6  1  0  0  0  0
  5 25  1  0  0  0  0
  6  7  2  0  0  0  0
  6  8  1  0  0  0  0
  8  9  1  0  0  0  0
  8 26  1  0  0  0  0
  9 10  1  0  0  0  0
  9 27  1  0  0  0  0
  9 28  1  0  0  0  0
 10 11  1  0  0  0  0
 10 29  1  0  0  0  0
 10 30  1  0  0  0  0
 11 17  1  0  0  0  0
 11 12  1  0  0  0  0
 11 46  1  0  0  0  0
 12 13  1  0  0  0  0
 12 31  1  0  0  0  0
 12 32  1  0  0  0  0
 13 14  1  0  0  0  0
 13 33  1  0  0  0  0
 13 34  1  0  0  0  0
 14 15  1  0  0  0  0
 14 35  1  0  0  0  0
 14 36  1  0  0  0  0
 15 16  1  0  0  0  0
 15 17  1  0  0  0  0
 15 37  1  0  0  0  0
 16 38  1  0  0  0  0
 16 39  1  0  0  0  0
 16 40  1  0  0  0  0
 17 41  1  0  0  0  0
 17 42  1  0  0  0  0
 18 19  1  0  0  0  0
 18 20  1  0  0  0  0
 19 43  1  0  0  0  0
 19 44  1  0  0  0  0
 19 45  1  0  0  0  0
M  CHG  1  11   1
M  END
> <s_m_source_file>
AV-unprocessed.smi

> <i_m_source_file_index>
1934

> <i_lp_mmshare_version>
43012

> <i_f3d_flags>
0

> <s_epik_input>
W0NIM11jMVtjSF1jKG4objEpW0NIM10pW05IXUMoPU8pW05IXVtDSDJdW0NIMl1OMltDSDJdW0NIMl1bQ0gyXVtDQEBIXShbQ0gzXSlbQ0gyXTI=

> <s_epik_cmdline>
J2VwaWtfcHl0aG9uJywgJy1waCcsICc3LjAnLCAnLXRuJywgJzgnLCAnLW1hJywgJzIwMCcsICctbWV0YWxfYmluZGluZycsICctaW1hZScsICc8aW5maWxlLm1hZT4nLCAnLW9tYWUnLCAnPG91dGZpbGUubWFlPic=

> <r_lp_tautomer_probability>
1

> <r_epik_Ionization_Penalty>
0.00202955

> <r_epik_Ionization_Penalty_Charging>
0.00195276

> <r_epik_Ionization_Penalty_Neutral>
7.67968e-05

> <r_epik_State_Penalty>
0.00133177

> <r_epik_Charging_Adjusted_Penalty>
0.00328452

> <i_epik_Tot_Q>
1

> <i_epik_Tot_abs_Q>
1

> <r_epik_Metal_State_Penalty>
-0

> <b_epik_Metal_Only>
0

> <s_lp_Force_Field>
OPLS_2005

> <r_lp_Energy>
20.4325

> <b_lp_Chiralities_Consistent>
1

> <s_lp_Variant>
AV-unprocessed.smi:1934-3

> <Gold.Version>
5.8.1

> <Gold.Id.Protein>
6NUR|6NUR_protein|mol2

> <Gold.PLP.Fitness>
46.6665

> <Gold.PLP.PLP>
-41.2962

> <Gold.PLP.part.hbond>
-2.0000

> <Gold.PLP.part.metal>
0.0000

> <Gold.PLP.part.buried>
-7.8919

> <Gold.PLP.part.nonpolar>
-31.9741

> <Gold.PLP.part.repulsive>
0.2798

> <Gold.PLP.ligand.clash>
0.0000

> <Gold.PLP.ligand.torsion>
0.2884

> <Gold.PLP.Chemscore.Hbond>
1.9600

> <Gold.PLP.Chemscore.CHOScore>
0.0000

> <Gold.PLP.Chemscore.Metal>
0.0000

> <Gold.Chemscore.Hbonds>
donor molecule, donor type, donor heavy atom, donor atom, acceptor molecule, acceptor atom, score
      L1  H     5    25       P1  8028  0.96
      L1  H     8    26       P1  8028  1.00
      P1  H  7989  7998       L1     7  0.16

> <Gold.PLP.Chemscore.Internal.Correction>
0.0672

> <Gold.Rescore>
     Score         DG    S(hbond)    S(metal)    S(lipo)     H(rot)  DE(clash)    DE(int)     intcor
     16.13     -17.62       1.95        0.00      80.61       1.48       0.01       1.47       ----

> <Gold.Chemscore.Fitness>
16.1271

> <Gold.Chemscore.DG>
-17.6159

> <Gold.Chemscore.ZeroCoef>
-5.4800

> <Gold.Chemscore.Hbond>
1.9468

> <Gold.Chemscore.Metal>
0.0000

> <Gold.Chemscore.Lipo>
80.6145

> <Gold.Chemscore.Internal_Hbond>
0.0000

> <Gold.Chemscore.DEClash>
0.0149

> <Gold.Chemscore.DEInternal>
1.4739

> <Gold.Chemscore.Rot>
1.4838

> <Gold.Chemscore.Internal.Correction>
   9.000000E+99

> <Gold.Chemscore.Hbonds>
donor molecule, donor type, donor heavy atom, donor atom, acceptor molecule, acceptor atom, score
      L1  H     5    25       P1  8028  0.88
      L1  H     8    26       P1  8028  0.99
      P1  H  7989  7998       L1     7  0.03

> <Gold.Chemscore.Hbond.Weighted>
-6.5025

> <Gold.Chemscore.Metal.Weighted>
-0.0000

> <Gold.Chemscore.Lipo.Weighted>
-9.4319

> <Gold.Chemscore.Internal_Hbond.Weighted>
0.0000

> <Gold.Chemscore.DEClash.Weighted>
0.0149

> <Gold.Chemscore.DEInternal.Weighted>
1.4739

> <Gold.Chemscore.Rot.Weighted>
3.7985

> <Gold.Chemscore.Internal.Correction.Weighted>
   9.000000E+99

> <Gold.Protein.RotatedTorsions>
[ 6907 6896 6895 6894 ] final -110.77 input  -60.11 | X-H torsion
[ 7974 7965 7964 7962 ] final  101.05 input  175.53 | X-H torsion
[ 8008 7997 7996 7995 ] final -157.00 input   59.86 | X-H torsion
[ 10167 10162 10161 10158 ] final -179.26 input  -65.29 | X-H torsion
[ 10718 10713 10712 10709 ] final   -3.60 input   66.30 | X-H torsion
[ 10763 10752 10751 10750 ] final   -9.32 input  -60.55 | X-H torsion
[ 11005 11000 10999 10996 ] final  -46.85 input  -57.11 | X-H torsion

> <Gold.Protein.ActiveResidues>
 VAL166  LYS551  ARG553  GLY616  TRP617  ASP618  TYR619  PRO620  LYS621  CYS622 
 ASP623  PHE694  ASN695  SER759  ASP760  ASP761  ALA762  ILE779  LEU786  VAL792 
 PHE793  MET794  SER795  GLU796  ALA797  LYS798  CYS799  TRP800  GLU811  SER814 

> <Gold.Protein.RotatedAtoms>
  150.7646  133.9333  159.3433 H   0  0  0  0  0  0  0  0  0  0  0  0  # atno 6907 bound_to 6896
  151.7233  135.0888  160.0297 H   0  0  0  0  0  0  0  0  0  0  0  0  # atno 6908 bound_to 6896
  152.3636  133.6290  159.6069 H   0  0  0  0  0  0  0  0  0  0  0  0  # atno 6909 bound_to 6896
  145.3774  139.2386  143.3422 H   0  0  0  0  0  0  0  0  0  0  0  0  # atno 7974 bound_to 7965
  155.7257  140.0795  157.2311 H   0  0  0  0  0  0  0  0  0  0  0  0  # atno 8008 bound_to 7997
  154.4039  140.1604  156.2507 H   0  0  0  0  0  0  0  0  0  0  0  0  # atno 8009 bound_to 7997
  155.9155  140.3401  155.6135 H   0  0  0  0  0  0  0  0  0  0  0  0  # atno 8010 bound_to 7997
  139.5394  144.2404  152.0864 H   0  0  0  0  0  0  0  0  0  0  0  0  # atno 10167 bound_to 10162
  156.7736  130.5308  149.5763 H   0  0  0  0  0  0  0  0  0  0  0  0  # atno 10718 bound_to 10713
  153.4530  135.7015  153.6097 H   0  0  0  0  0  0  0  0  0  0  0  0  # atno 10763 bound_to 10752
  153.4423  135.3777  155.2236 H   0  0  0  0  0  0  0  0  0  0  0  0  # atno 10764 bound_to 10752
  154.8728  135.3977  154.3945 H   0  0  0  0  0  0  0  0  0  0  0  0  # atno 10765 bound_to 10752
  141.0604  133.6711  156.3213 H   0  0  0  0  0  0  0  0  0  0  0  0  # atno 11005 bound_to 11000
  146.2857  140.4436  142.8759 LP  0  0  0  0  0  0  0  0  0  0  0  0  # atno 17320 bound_to 7965
  144.8532  140.7032  143.6155 LP  0  0  0  0  0  0  0  0  0  0  0  0  # atno 17321 bound_to 7965
  140.1880  144.4779  150.6493 LP  0  0  0  0  0  0  0  0  0  0  0  0  # atno 17342 bound_to 10162
  140.6617  143.2254  151.5839 LP  0  0  0  0  0  0  0  0  0  0  0  0  # atno 17343 bound_to 10162
  156.1262  130.6145  151.0267 LP  0  0  0  0  0  0  0  0  0  0  0  0  # atno 17370 bound_to 10713
  157.6679  131.0867  150.7683 LP  0  0  0  0  0  0  0  0  0  0  0  0  # atno 17371 bound_to 10713
  140.5879  134.5680  157.5493 LP  0  0  0  0  0  0  0  0  0  0  0  0  # atno 17394 bound_to 11000
  139.9428  134.7757  156.0637 LP  0  0  0  0  0  0  0  0  0  0  0  0  # atno 17395 bound_to 11000

$$$$
