AV-unprocessed.smi:625|AV-procd|sdf|3106|dock4
  -GOLD-   22720 0 23D 1   1.00000     0.00000
 Structure written by MMmdl.
 49 51  0  0  0  0  0  0  0  0  1 V2000
  151.3630  144.4737  157.9888 C   0  0  0  0  0  0  0  0  0  0  0  0
  150.8570  143.3918  157.1575 N   0  0  0  0  0  0  0  0  0  0  0  0
  151.1375  142.0906  157.3459 C   0  0  0  0  0  0  0  0  0  0  0  0
  151.8647  141.7145  158.2662 O   0  0  0  0  0  0  0  0  0  0  0  0
  150.5110  141.1913  156.3723 C   0  0  0  0  0  0  0  0  0  0  0  0
  149.1213  141.3972  156.0118 C   0  0  0  0  0  0  0  0  0  0  0  0
  148.5074  140.5797  155.1342 C   0  0  0  0  0  0  0  0  0  0  0  0
  149.2092  139.4562  154.5083 C   0  0  0  0  0  0  0  0  0  0  0  0
  148.6486  138.6923  153.7222 O   0  0  0  0  0  0  0  0  0  0  0  0
  150.5221  139.3045  154.8615 N   0  0  0  0  0  0  0  0  0  0  0  0
  151.3292  138.1995  154.3106 C   0  0  0  0  0  0  0  0  0  0  0  0
  151.1580  136.8557  155.0403 C   0  0  0  0  0  0  0  0  0  0  0  0
  151.8651  136.6086  156.0162 O   0  0  0  0  0  0  0  0  0  0  0  0
  150.2385  135.9969  154.5685 N   0  0  0  0  0  0  0  0  0  0  0  0
  149.9788  134.6506  155.0674 C   0  0  1  0  0  0  0  0  0  0  0  0
  149.9143  134.6829  156.6047 C   0  0  0  0  0  0  0  0  0  0  0  0
  148.6714  134.1143  154.4351 C   0  0  2  0  0  0  0  0  0  0  0  0
  147.8618  133.1875  155.3740 C   0  0  0  0  0  0  0  0  0  0  0  0
  147.6567  131.9179  154.5285 C   0  0  1  0  0  0  0  0  0  0  0  0
  146.6881  132.2185  153.3701 C   0  0  0  0  0  0  0  0  0  0  0  0
  147.5440  133.0886  152.4311 C   0  0  0  0  0  0  0  0  0  0  0  0
  148.8765  133.2029  153.1957 C   0  0  2  0  0  0  0  0  0  0  0  0
  148.9941  131.8114  153.8083 C   0  0  0  0  0  0  0  0  0  0  0  0
  151.1565  140.1600  155.7843 C   0  0  0  0  0  0  0  0  0  0  0  0
  151.0019  145.4311  157.6132 H   0  0  0  0  0  0  0  0  0  0  0  0
  152.4537  144.4934  157.9796 H   0  0  0  0  0  0  0  0  0  0  0  0
  151.0245  144.3619  159.0197 H   0  0  0  0  0  0  0  0  0  0  0  0
  150.2555  143.6447  156.3867 H   0  0  0  0  0  0  0  0  0  0  0  0
  148.5587  142.2119  156.4451 H   0  0  0  0  0  0  0  0  0  0  0  0
  147.4713  140.7554  154.8848 H   0  0  0  0  0  0  0  0  0  0  0  0
  151.0990  138.0515  153.2540 H   0  0  0  0  0  0  0  0  0  0  0  0
  152.3882  138.4605  154.3309 H   0  0  0  0  0  0  0  0  0  0  0  0
  149.6981  136.2877  153.7666 H   0  0  0  0  0  0  0  0  0  0  0  0
  150.8015  133.9988  154.7686 H   0  0  0  0  0  0  0  0  0  0  0  0
  149.7536  133.6885  157.0205 H   0  0  0  0  0  0  0  0  0  0  0  0
  149.1032  135.3229  156.9540 H   0  0  0  0  0  0  0  0  0  0  0  0
  150.8437  135.0630  157.0299 H   0  0  0  0  0  0  0  0  0  0  0  0
  148.0602  134.9726  154.1502 H   0  0  0  0  0  0  0  0  0  0  0  0
  148.4242  132.9412  156.2756 H   0  0  0  0  0  0  0  0  0  0  0  0
  146.9183  133.6361  155.6868 H   0  0  0  0  0  0  0  0  0  0  0  0
  147.3787  131.0424  155.1161 H   0  0  0  0  0  0  0  0  0  0  0  0
  146.3825  131.2994  152.8682 H   0  0  0  0  0  0  0  0  0  0  0  0
  145.7873  132.7322  153.7082 H   0  0  0  0  0  0  0  0  0  0  0  0
  147.6913  132.5872  151.4736 H   0  0  0  0  0  0  0  0  0  0  0  0
  147.0908  134.0601  152.2305 H   0  0  0  0  0  0  0  0  0  0  0  0
  149.7073  133.4855  152.5491 H   0  0  0  0  0  0  0  0  0  0  0  0
  149.8441  131.7013  154.4834 H   0  0  0  0  0  0  0  0  0  0  0  0
  149.0233  131.0121  153.0655 H   0  0  0  0  0  0  0  0  0  0  0  0
  152.1879  139.9013  155.9768 H   0  0  0  0  0  0  0  0  0  0  0  0
  1  2  1  0  0  0  0
  1 25  1  0  0  0  0
  1 26  1  0  0  0  0
  1 27  1  0  0  0  0
  2  3  1  0  0  0  0
  2 28  1  0  0  0  0
  3  4  2  0  0  0  0
  3  5  1  0  0  0  0
  5 24  2  0  0  0  0
  5  6  1  0  0  0  0
  6  7  2  0  0  0  0
  6 29  1  0  0  0  0
  7  8  1  0  0  0  0
  7 30  1  0  0  0  0
  8  9  2  0  0  0  0
  8 10  1  0  0  0  0
 10 11  1  0  0  0  0
 10 24  1  0  0  0  0
 11 12  1  0  0  0  0
 11 31  1  0  0  0  0
 11 32  1  0  0  0  0
 12 13  2  0  0  0  0
 12 14  1  0  0  0  0
 14 15  1  0  0  0  0
 14 33  1  0  0  0  0
 15 16  1  0  0  0  0
 15 17  1  0  0  0  0
 15 34  1  0  0  0  0
 16 35  1  0  0  0  0
 16 36  1  0  0  0  0
 16 37  1  0  0  0  0
 17 22  1  0  0  0  0
 17 18  1  0  0  0  0
 17 38  1  0  0  0  0
 18 19  1  0  0  0  0
 18 39  1  0  0  0  0
 18 40  1  0  0  0  0
 19 23  1  0  0  0  0
 19 20  1  0  0  0  0
 19 41  1  0  0  0  0
 20 21  1  0  0  0  0
 20 42  1  0  0  0  0
 20 43  1  0  0  0  0
 21 22  1  0  0  0  0
 21 44  1  0  0  0  0
 21 45  1  0  0  0  0
 22 23  1  0  0  0  0
 22 46  1  0  0  0  0
 23 47  1  0  0  0  0
 23 48  1  0  0  0  0
 24 49  1  0  0  0  0
M  END
> <s_m_source_file>
AV-unprocessed.smi

> <i_m_source_file_index>
625

> <i_lp_mmshare_version>
43012

> <i_f3d_flags>
0

> <s_epik_input>
W0NIM11bTkhdQyg9TyljMVtjSF1bY0hdYyg9TyluKFtjSF0xKVtDSDJdQyg9TylbTkhdW0NASF0oW0NIM10pW0NASF0oW0NIMl1bQ0BIXTIzKVtDQEhdKFtDSDJdMylbQ0gyXVtDSDJdMg==

> <s_epik_cmdline>
J2VwaWtfcHl0aG9uJywgJy1waCcsICc3LjAnLCAnLXRuJywgJzgnLCAnLW1hJywgJzIwMCcsICctbWV0YWxfYmluZGluZycsICctaW1hZScsICc8aW5maWxlLm1hZT4nLCAnLW9tYWUnLCAnPG91dGZpbGUubWFlPic=

> <r_lp_tautomer_probability>
1

> <r_epik_Ionization_Penalty>
3.7129e-07

> <r_epik_Ionization_Penalty_Charging>
5.04114e-08

> <r_epik_Ionization_Penalty_Neutral>
3.20879e-07

> <r_epik_State_Penalty>
-0

> <r_epik_Charging_Adjusted_Penalty>
5.04114e-08

> <i_epik_Tot_Q>
0

> <i_epik_Tot_abs_Q>
0

> <r_epik_Metal_State_Penalty>
-0

> <b_epik_Metal_Only>
0

> <s_lp_Force_Field>
OPLS_2005

> <r_lp_Energy>
63.073

> <b_lp_Chiralities_Consistent>
1

> <s_lp_Variant>
AV-unprocessed.smi:625-6

> <Gold.Version>
5.8.1

> <Gold.Id.Protein>
6NUR|6NUR_protein|mol2

> <Gold.PLP.Fitness>
46.9235

> <Gold.PLP.PLP>
-42.9663

> <Gold.PLP.part.hbond>
-3.7267

> <Gold.PLP.part.metal>
0.0000

> <Gold.PLP.part.buried>
-4.3783

> <Gold.PLP.part.nonpolar>
-35.9950

> <Gold.PLP.part.repulsive>
0.6499

> <Gold.PLP.ligand.clash>
0.0000

> <Gold.PLP.ligand.torsion>
2.5366

> <Gold.PLP.Chemscore.Hbond>
3.0000

> <Gold.PLP.Chemscore.CHOScore>
0.0000

> <Gold.PLP.Chemscore.Metal>
0.0000

> <Gold.Chemscore.Hbonds>
donor molecule, donor type, donor heavy atom, donor atom, acceptor molecule, acceptor atom, score
      L1  H     2    28       P1  8028  0.99
      L1  H    14    33       P1  7948  1.00
      P1  H 10752 10765       L1    13  0.90

> <Gold.PLP.Chemscore.Internal.Correction>
0.0305

> <Gold.Rescore>
     Score         DG    S(hbond)    S(metal)    S(lipo)     H(rot)  DE(clash)    DE(int)     intcor
     16.57     -20.31       2.56        0.00      90.18       1.67       0.10       3.65       ----

> <Gold.Chemscore.Fitness>
16.5672

> <Gold.Chemscore.DG>
-20.3126

> <Gold.Chemscore.ZeroCoef>
-5.4800

> <Gold.Chemscore.Hbond>
2.5627

> <Gold.Chemscore.Metal>
0.0000

> <Gold.Chemscore.Lipo>
90.1756

> <Gold.Chemscore.Internal_Hbond>
0.0000

> <Gold.Chemscore.DEClash>
0.1000

> <Gold.Chemscore.DEInternal>
3.6454

> <Gold.Chemscore.Rot>
1.6709

> <Gold.Chemscore.Internal.Correction>
   9.000000E+99

> <Gold.Chemscore.Hbonds>
donor molecule, donor type, donor heavy atom, donor atom, acceptor molecule, acceptor atom, score
      L1  H     2    28       P1  8028  0.94
      L1  H    14    33       P1  7948  0.42
      P1  H 10752 10765       L1    13  0.17

> <Gold.Chemscore.Hbond.Weighted>
-8.5594

> <Gold.Chemscore.Metal.Weighted>
-0.0000

> <Gold.Chemscore.Lipo.Weighted>
-10.5505

> <Gold.Chemscore.Internal_Hbond.Weighted>
0.0000

> <Gold.Chemscore.DEClash.Weighted>
0.1000

> <Gold.Chemscore.DEInternal.Weighted>
3.6454

> <Gold.Chemscore.Rot.Weighted>
4.2774

> <Gold.Chemscore.Internal.Correction.Weighted>
   9.000000E+99

> <Gold.Protein.RotatedTorsions>
[ 6907 6896 6895 6894 ] final  -53.63 input  -60.11 | X-H torsion
[ 7974 7965 7964 7962 ] final  135.62 input  175.53 | X-H torsion
[ 8008 7997 7996 7995 ] final   34.77 input   59.86 | X-H torsion
[ 10167 10162 10161 10158 ] final  134.82 input  -65.29 | X-H torsion
[ 10718 10713 10712 10709 ] final  176.62 input   66.30 | X-H torsion
[ 10763 10752 10751 10750 ] final -144.09 input  -60.55 | X-H torsion
[ 11005 11000 10999 10996 ] final  150.97 input  -57.11 | X-H torsion

> <Gold.Protein.ActiveResidues>
 VAL166  LYS551  ARG553  GLY616  TRP617  ASP618  TYR619  PRO620  LYS621  CYS622 
 ASP623  PHE694  ASN695  SER759  ASP760  ASP761  ALA762  ILE779  LEU786  VAL792 
 PHE793  MET794  SER795  GLU796  ALA797  LYS798  CYS799  TRP800  GLU811  SER814 

> <Gold.Protein.RotatedAtoms>
  150.8409  134.7701  159.6931 H   0  0  0  0  0  0  0  0  0  0  0  0  # atno 6907 bound_to 6896
  152.4497  134.5417  159.9851 H   0  0  0  0  0  0  0  0  0  0  0  0  # atno 6908 bound_to 6896
  151.5557  133.3373  159.2997 H   0  0  0  0  0  0  0  0  0  0  0  0  # atno 6909 bound_to 6896
  144.9645  139.4673  143.5463 H   0  0  0  0  0  0  0  0  0  0  0  0  # atno 7974 bound_to 7965
  155.1602  140.3282  155.4413 H   0  0  0  0  0  0  0  0  0  0  0  0  # atno 8008 bound_to 7997
  156.2545  140.1961  156.6660 H   0  0  0  0  0  0  0  0  0  0  0  0  # atno 8009 bound_to 7997
  154.6410  140.0570  156.9832 H   0  0  0  0  0  0  0  0  0  0  0  0  # atno 8010 bound_to 7997
  139.5241  144.6548  151.5195 H   0  0  0  0  0  0  0  0  0  0  0  0  # atno 10167 bound_to 10162
  156.9175  130.9930  151.3010 H   0  0  0  0  0  0  0  0  0  0  0  0  # atno 10718 bound_to 10713
  154.8443  135.3450  154.6290 H   0  0  0  0  0  0  0  0  0  0  0  0  # atno 10763 bound_to 10752
  153.6900  135.6975  153.5097 H   0  0  0  0  0  0  0  0  0  0  0  0  # atno 10764 bound_to 10752
  153.2602  135.4325  155.0842 H   0  0  0  0  0  0  0  0  0  0  0  0  # atno 10765 bound_to 10752
  140.1177  134.8883  157.2028 H   0  0  0  0  0  0  0  0  0  0  0  0  # atno 11005 bound_to 11000
  146.3363  139.8817  142.8823 LP  0  0  0  0  0  0  0  0  0  0  0  0  # atno 17320 bound_to 7965
  145.2650  141.0090  143.3804 LP  0  0  0  0  0  0  0  0  0  0  0  0  # atno 17321 bound_to 7965
  140.6369  143.8967  150.6655 LP  0  0  0  0  0  0  0  0  0  0  0  0  # atno 17342 bound_to 10162
  140.2289  143.3751  152.1582 LP  0  0  0  0  0  0  0  0  0  0  0  0  # atno 17343 bound_to 10162
  157.5929  130.8456  149.8685 LP  0  0  0  0  0  0  0  0  0  0  0  0  # atno 17370 bound_to 10713
  156.0507  130.3718  150.1209 LP  0  0  0  0  0  0  0  0  0  0  0  0  # atno 17371 bound_to 10713
  140.3006  134.3136  155.7291 LP  0  0  0  0  0  0  0  0  0  0  0  0  # atno 17394 bound_to 11000
  141.2145  133.7589  156.9635 LP  0  0  0  0  0  0  0  0  0  0  0  0  # atno 17395 bound_to 11000

$$$$
