AV-unprocessed.smi:72|AV-procd|sdf|663|dock5
  -GOLD-   2262016563D 1   1.00000     0.00000
 Structure written by MMmdl.
 29 30  0  0  0  0  0  0  0  0  1 V2000
  153.7596  138.9999  160.5477 N   0  0  0  0  0  0  0  0  0  0  0  0
  153.3091  138.9550  159.3448 C   0  0  0  0  0  0  0  0  0  0  0  0
  152.6207  139.9924  158.6976 N   0  0  0  0  0  0  0  0  0  0  0  0
  152.2338  139.8131  157.4722 C   0  0  0  0  0  0  0  0  0  0  0  0
  152.4988  138.5791  156.7489 N   0  0  0  0  0  0  0  0  0  0  0  0
  152.0290  138.3881  155.3247 C   0  0  2  0  0  0  0  0  0  0  0  0
  151.3816  139.5518  154.8954 O   0  0  0  0  0  0  0  0  0  0  0  0
  150.1302  139.2084  154.3140 C   0  0  2  0  0  0  0  0  0  0  0  0
  149.1565  140.4002  154.3562 C   0  0  0  0  0  0  0  0  0  0  0  0
  149.2132  141.1785  153.1782 O   0  0  0  0  0  0  0  0  0  0  0  0
  149.7034  137.9313  155.0414 C   0  0  1  0  0  0  0  0  0  0  0  0
  148.7550  137.1710  154.3164 O   0  0  0  0  0  0  0  0  0  0  0  0
  151.0364  137.2134  155.2367 C   0  0  1  0  0  0  0  0  0  0  0  0
  151.3642  136.3594  154.1562 O   0  0  0  0  0  0  0  0  0  0  0  0
  153.1620  137.5096  157.3980 C   0  0  0  0  0  0  0  0  0  0  0  0
  153.3695  136.4275  156.8492 O   0  0  0  0  0  0  0  0  0  0  0  0
  153.5481  137.7500  158.6699 N   0  0  0  0  0  0  0  0  0  0  0  0
  152.9267  138.2514  154.7193 H   0  0  0  0  0  0  0  0  0  0  0  0
  150.3380  138.9685  153.2695 H   0  0  0  0  0  0  0  0  0  0  0  0
  149.2910  138.1680  156.0226 H   0  0  0  0  0  0  0  0  0  0  0  0
  151.0439  136.6215  156.1533 H   0  0  0  0  0  0  0  0  0  0  0  0
  154.2154  138.1319  160.7887 H   0  0  0  0  0  0  0  0  0  0  0  0
  151.6851  140.5702  156.9111 H   0  0  0  0  0  0  0  0  0  0  0  0
  148.1348  140.0552  154.5177 H   0  0  0  0  0  0  0  0  0  0  0  0
  149.4099  141.0489  155.1950 H   0  0  0  0  0  0  0  0  0  0  0  0
  149.1491  140.6006  152.4332 H   0  0  0  0  0  0  0  0  0  0  0  0
  149.1119  136.9835  153.4617 H   0  0  0  0  0  0  0  0  0  0  0  0
  151.2323  136.8326  153.3488 H   0  0  0  0  0  0  0  0  0  0  0  0
  154.0297  137.0089  159.1575 H   0  0  0  0  0  0  0  0  0  0  0  0
  1  2  2  0  0  0  0
  1 22  1  0  0  0  0
  2 17  1  0  0  0  0
  2  3  1  0  0  0  0
  3  4  2  0  0  0  0
  4  5  1  0  0  0  0
  4 23  1  0  0  0  0
  5  6  1  0  0  0  0
  5 15  1  0  0  0  0
  6 18  1  0  0  0  0
  6 13  1  0  0  0  0
  6  7  1  0  0  0  0
  7  8  1  0  0  0  0
  8 19  1  0  0  0  0
  8  9  1  0  0  0  0
  8 11  1  0  0  0  0
  9 10  1  0  0  0  0
  9 24  1  0  0  0  0
  9 25  1  0  0  0  0
 10 26  1  0  0  0  0
 11 20  1  0  0  0  0
 11 12  1  0  0  0  0
 11 13  1  0  0  0  0
 12 27  1  0  0  0  0
 13 21  1  0  0  0  0
 13 14  1  0  0  0  0
 14 28  1  0  0  0  0
 15 16  2  0  0  0  0
 15 17  1  0  0  0  0
 17 29  1  0  0  0  0
M  END
> <s_m_source_file>
AV-unprocessed.smi

> <i_m_source_file_index>
72

> <i_lp_mmshare_version>
43012

> <i_f3d_flags>
0

> <s_epik_input>
W05IMl1jMW5bY0hdbihjKD1PKW4xKVtDQEBIXTJPW0NASF0oW0NIMl1bT0hdKVtDQEBIXShbT0hdKVtDQEhdMltPSF0=

> <s_epik_cmdline>
J2VwaWtfcHl0aG9uJywgJy1waCcsICc3LjAnLCAnLXRuJywgJzgnLCAnLW1hJywgJzIwMCcsICctbWV0YWxfYmluZGluZycsICctaW1hZScsICc8aW5maWxlLm1hZT4nLCAnLW9tYWUnLCAnPG91dGZpbGUubWFlPic=

> <r_lp_tautomer_probability>
7.17554e-07

> <r_epik_Ionization_Penalty>
0.0066451

> <r_epik_Ionization_Penalty_Charging>
0.00663793

> <r_epik_Ionization_Penalty_Neutral>
7.17052e-06

> <r_epik_State_Penalty>
0.419231

> <r_epik_Charging_Adjusted_Penalty>
0.425868

> <i_epik_Tot_Q>
0

> <i_epik_Tot_abs_Q>
0

> <r_epik_Metal_State_Penalty>
1.44144

> <b_epik_Metal_Only>
0

> <s_epik_Chemistry_Notes>
This compound contains an acetal/aminal-like group ( X-CH(R)-Y where X, Y are N, S, or O) that may be acid/base labile, releasing an aldehyde.

> <s_lp_Force_Field>
OPLS_2005

> <r_lp_Energy>
44.3383

> <b_lp_Chiralities_Consistent>
1

> <s_lp_Variant>
AV-unprocessed.smi:72-1

> <Gold.Version>
5.8.1

> <Gold.Id.Protein>
6NUR|6NUR_protein|mol2

> <Gold.PLP.Fitness>
41.1787

> <Gold.PLP.PLP>
-25.0175

> <Gold.PLP.part.hbond>
-7.8715

> <Gold.PLP.part.metal>
0.0000

> <Gold.PLP.part.buried>
-4.3102

> <Gold.PLP.part.nonpolar>
-14.0728

> <Gold.PLP.part.repulsive>
0.1390

> <Gold.PLP.ligand.clash>
0.0000

> <Gold.PLP.ligand.torsion>
0.4269

> <Gold.PLP.Chemscore.Hbond>
5.6693

> <Gold.PLP.Chemscore.CHOScore>
0.0000

> <Gold.PLP.Chemscore.Metal>
0.0000

> <Gold.Chemscore.Hbonds>
donor molecule, donor type, donor heavy atom, donor atom, acceptor molecule, acceptor atom, score
      L1  H    10    26       P1  7957  0.83
      L1  H    12    27       P1  7948  1.00
      L1  H    14    28       P1  7949  0.48
      P1  H  7989  7998       L1     7  0.50
      P1  H  8011  8017       L1    10  0.70
      P1  H 10752 10764       L1    14  0.91
      P1  H 10752 10765       L1    16  0.96

> <Gold.PLP.Chemscore.Internal.Correction>
0.0070

> <Gold.Rescore>
     Score         DG    S(hbond)    S(metal)    S(lipo)     H(rot)  DE(clash)    DE(int)     intcor
      9.94     -11.97       4.10        0.00      27.29       4.06       0.06       1.97       ----

> <Gold.Chemscore.Fitness>
9.9442

> <Gold.Chemscore.DG>
-11.9721

> <Gold.Chemscore.ZeroCoef>
-5.4800

> <Gold.Chemscore.Hbond>
4.0996

> <Gold.Chemscore.Metal>
0.0000

> <Gold.Chemscore.Lipo>
27.2899

> <Gold.Chemscore.Internal_Hbond>
0.0000

> <Gold.Chemscore.DEClash>
0.0563

> <Gold.Chemscore.DEInternal>
1.9716

> <Gold.Chemscore.Rot>
4.0600

> <Gold.Chemscore.Internal.Correction>
   9.000000E+99

> <Gold.Chemscore.Hbonds>
donor molecule, donor type, donor heavy atom, donor atom, acceptor molecule, acceptor atom, score
      L1  H    10    26       P1  7957  0.78
      L1  H    12    27       P1  7948  0.95
      L1  H    14    28       P1  7949  0.28
      P1  H  7989  7998       L1     7  0.02
      P1  H  8011  8017       L1    10  0.07
      P1  H 10752 10764       L1    14  0.31
      P1  H 10752 10765       L1    16  0.92

> <Gold.Chemscore.Hbond.Weighted>
-13.6928

> <Gold.Chemscore.Metal.Weighted>
-0.0000

> <Gold.Chemscore.Lipo.Weighted>
-3.1929

> <Gold.Chemscore.Internal_Hbond.Weighted>
0.0000

> <Gold.Chemscore.DEClash.Weighted>
0.0563

> <Gold.Chemscore.DEInternal.Weighted>
1.9716

> <Gold.Chemscore.Rot.Weighted>
10.3936

> <Gold.Chemscore.Internal.Correction.Weighted>
   9.000000E+99

> <Gold.Protein.RotatedTorsions>
[ 6907 6896 6895 6894 ] final  -45.45 input  -60.11 | X-H torsion
[ 7974 7965 7964 7962 ] final  170.02 input  175.53 | X-H torsion
[ 8008 7997 7996 7995 ] final  -60.17 input   59.86 | X-H torsion
[ 10167 10162 10161 10158 ] final  -62.28 input  -65.29 | X-H torsion
[ 10718 10713 10712 10709 ] final -167.18 input   66.30 | X-H torsion
[ 10763 10752 10751 10750 ] final -101.49 input  -60.55 | X-H torsion
[ 11005 11000 10999 10996 ] final  -16.61 input  -57.11 | X-H torsion

> <Gold.Protein.ActiveResidues>
 VAL166  LYS551  ARG553  GLY616  TRP617  ASP618  TYR619  PRO620  LYS621  CYS622 
 ASP623  PHE694  ASN695  SER759  ASP760  ASP761  ALA762  ILE779  LEU786  VAL792 
 PHE793  MET794  SER795  GLU796  ALA797  LYS798  CYS799  TRP800  GLU811  SER814 

> <Gold.Protein.RotatedAtoms>
  150.9218  134.8635  159.7493 H   0  0  0  0  0  0  0  0  0  0  0  0  # atno 6907 bound_to 6896
  152.4996  134.4207  159.9489 H   0  0  0  0  0  0  0  0  0  0  0  0  # atno 6908 bound_to 6896
  151.4240  133.3650  159.2795 H   0  0  0  0  0  0  0  0  0  0  0  0  # atno 6909 bound_to 6896
  144.7336  139.9141  143.6416 H   0  0  0  0  0  0  0  0  0  0  0  0  # atno 7974 bound_to 7965
  154.4386  140.1045  156.6231 H   0  0  0  0  0  0  0  0  0  0  0  0  # atno 8008 bound_to 7997
  155.5685  140.3489  155.4490 H   0  0  0  0  0  0  0  0  0  0  0  0  # atno 8009 bound_to 7997
  156.0407  140.1281  157.0148 H   0  0  0  0  0  0  0  0  0  0  0  0  # atno 8010 bound_to 7997
  140.5950  143.2349  151.6056 H   0  0  0  0  0  0  0  0  0  0  0  0  # atno 10167 bound_to 10162
  156.6786  130.9113  151.3054 H   0  0  0  0  0  0  0  0  0  0  0  0  # atno 10718 bound_to 10713
  154.7662  135.4896  153.9558 H   0  0  0  0  0  0  0  0  0  0  0  0  # atno 10763 bound_to 10752
  153.1310  135.6753  153.9186 H   0  0  0  0  0  0  0  0  0  0  0  0  # atno 10764 bound_to 10752
  153.8889  135.3123  155.3425 H   0  0  0  0  0  0  0  0  0  0  0  0  # atno 10765 bound_to 10752
  140.8085  133.8159  155.9540 H   0  0  0  0  0  0  0  0  0  0  0  0  # atno 11005 bound_to 11000
  146.0979  139.3972  143.0365 LP  0  0  0  0  0  0  0  0  0  0  0  0  # atno 17320 bound_to 7965
  145.7620  140.9931  143.1195 LP  0  0  0  0  0  0  0  0  0  0  0  0  # atno 17321 bound_to 7965
  139.5252  144.3081  152.1016 LP  0  0  0  0  0  0  0  0  0  0  0  0  # atno 17342 bound_to 10162
  140.2252  144.4425  150.6324 LP  0  0  0  0  0  0  0  0  0  0  0  0  # atno 17343 bound_to 10162
  157.7052  130.9377  150.0907 LP  0  0  0  0  0  0  0  0  0  0  0  0  # atno 17370 bound_to 10713
  156.1885  130.3653  149.8941 LP  0  0  0  0  0  0  0  0  0  0  0  0  # atno 17371 bound_to 10713
  140.9222  134.2127  157.4919 LP  0  0  0  0  0  0  0  0  0  0  0  0  # atno 17394 bound_to 11000
  139.8716  134.9797  156.5047 LP  0  0  0  0  0  0  0  0  0  0  0  0  # atno 17395 bound_to 11000

$$$$
