AV-unprocessed.smi:28|AV-procd|sdf|190|dock2
  -GOLD-   2262015453D 1   1.00000     0.00000
 Structure written by MMmdl.
 41 44  0  0  0  0  0  0  0  0  1 V2000
  146.8751  139.0316  157.4806 O   0  0  0  0  0  0  0  0  0  0  0  0
  146.9887  138.0601  158.2297 C   0  0  0  0  0  0  0  0  0  0  0  0
  145.9855  137.6946  159.2241 C   0  0  0  0  0  0  0  0  0  0  0  0
  144.8664  138.4295  159.3396 F   0  0  0  0  0  0  0  0  0  0  0  0
  146.1647  136.6326  160.0388 C   0  0  0  0  0  0  0  0  0  0  0  0
  147.2899  135.8259  159.9928 N   0  0  0  0  0  0  0  0  0  0  0  0
  147.4695  134.6576  160.9392 C   0  0  1  0  0  0  0  0  0  0  0  0
  147.4642  135.1468  162.3914 C   0  0  0  0  0  0  0  0  0  0  0  0
  145.9949  135.0522  162.7399 C   0  0  0  0  0  0  0  0  0  0  0  0
  145.5735  133.8063  161.9674 C   0  0  0  0  0  0  0  0  0  0  0  0
  146.3914  133.7774  160.7983 O   0  0  0  0  0  0  0  0  0  0  0  0
  148.3140  136.1066  159.0623 C   0  0  0  0  0  0  0  0  0  0  0  0
  149.3365  135.4177  159.0233 O   0  0  0  0  0  0  0  0  0  0  0  0
  148.1237  137.2124  158.2002 N   0  0  0  0  0  0  0  0  0  0  0  0
  149.1965  137.5422  157.2765 C   0  0  0  0  0  0  0  0  0  0  0  0
  150.2004  138.4272  157.9462 C   0  0  0  0  0  0  0  0  0  0  0  0
  151.1948  138.0607  158.7564 N   0  0  0  0  0  0  0  0  0  0  0  0
  151.8556  139.2224  159.0840 N   0  0  0  0  0  0  0  0  0  0  0  0
  151.2045  140.2105  158.4609 C   0  0  0  0  0  0  0  0  0  0  0  0
  151.4997  141.6409  158.4380 C   0  0  0  0  0  0  0  0  0  0  0  0
  152.2432  142.1918  159.5063 C   0  0  0  0  0  0  0  0  0  0  0  0
  152.5568  143.5638  159.5303 C   0  0  0  0  0  0  0  0  0  0  0  0
  152.1335  144.3989  158.4808 C   0  0  0  0  0  0  0  0  0  0  0  0
  151.4028  143.8583  157.4066 C   0  0  0  0  0  0  0  0  0  0  0  0
  151.0869  142.4848  157.3745 C   0  0  0  0  0  0  0  0  0  0  0  0
  150.1332  141.8216  155.8611 Br  0  0  0  0  0  0  0  0  0  0  0  0
  150.1532  139.7652  157.7219 O   0  0  0  0  0  0  0  0  0  0  0  0
  145.3878  136.4220  160.7583 H   0  0  0  0  0  0  0  0  0  0  0  0
  148.3949  134.1657  160.6352 H   0  0  0  0  0  0  0  0  0  0  0  0
  148.0470  134.4505  162.9954 H   0  0  0  0  0  0  0  0  0  0  0  0
  147.8848  136.1471  162.4999 H   0  0  0  0  0  0  0  0  0  0  0  0
  145.8121  134.9720  163.8117 H   0  0  0  0  0  0  0  0  0  0  0  0
  145.4619  135.9282  162.3677 H   0  0  0  0  0  0  0  0  0  0  0  0
  145.7772  132.9103  162.5552 H   0  0  0  0  0  0  0  0  0  0  0  0
  144.5136  133.8106  161.7127 H   0  0  0  0  0  0  0  0  0  0  0  0
  149.6544  136.6143  156.9299 H   0  0  0  0  0  0  0  0  0  0  0  0
  148.7731  138.0238  156.3941 H   0  0  0  0  0  0  0  0  0  0  0  0
  152.5723  141.5630  160.3210 H   0  0  0  0  0  0  0  0  0  0  0  0
  153.1218  143.9748  160.3539 H   0  0  0  0  0  0  0  0  0  0  0  0
  152.3739  145.4518  158.4963 H   0  0  0  0  0  0  0  0  0  0  0  0
  151.0882  144.5009  156.5976 H   0  0  0  0  0  0  0  0  0  0  0  0
  1  2  2  0  0  0  0
  2 14  1  0  0  0  0
  2  3  1  0  0  0  0
  3  4  1  0  0  0  0
  3  5  2  0  0  0  0
  5  6  1  0  0  0  0
  5 28  1  0  0  0  0
  6  7  1  0  0  0  0
  6 12  1  0  0  0  0
  7 11  1  0  0  0  0
  7  8  1  0  0  0  0
  7 29  1  0  0  0  0
  8  9  1  0  0  0  0
  8 30  1  0  0  0  0
  8 31  1  0  0  0  0
  9 10  1  0  0  0  0
  9 32  1  0  0  0  0
  9 33  1  0  0  0  0
 10 11  1  0  0  0  0
 10 34  1  0  0  0  0
 10 35  1  0  0  0  0
 12 13  2  0  0  0  0
 12 14  1  0  0  0  0
 14 15  1  0  0  0  0
 15 16  1  0  0  0  0
 15 36  1  0  0  0  0
 15 37  1  0  0  0  0
 16 27  1  0  0  0  0
 16 17  2  0  0  0  0
 17 18  1  0  0  0  0
 18 19  2  0  0  0  0
 19 20  1  0  0  0  0
 19 27  1  0  0  0  0
 20 25  1  0  0  0  0
 20 21  2  0  0  0  0
 21 22  1  0  0  0  0
 21 38  1  0  0  0  0
 22 23  2  0  0  0  0
 22 39  1  0  0  0  0
 23 24  1  0  0  0  0
 23 40  1  0  0  0  0
 24 25  2  0  0  0  0
 24 41  1  0  0  0  0
 25 26  1  0  0  0  0
M  END
> <s_m_source_file>
AV-unprocessed.smi

> <i_m_source_file_index>
28

> <i_lp_mmshare_version>
43012

> <i_f3d_flags>
0

> <s_epik_input>
TzFbQ0gyXVtDSDJdW0NIMl1bQ0BIXTFuKFtjSF1jKEYpYzI9TyljKD1PKW4yW0NIMl1jM25uYyhvMyktYzRbY0hdW2NIXVtjSF1bY0hdYzRCcg==

> <s_epik_cmdline>
J2VwaWtfcHl0aG9uJywgJy1waCcsICc3LjAnLCAnLXRuJywgJzgnLCAnLW1hJywgJzIwMCcsICctbWV0YWxfYmluZGluZycsICctaW1hZScsICc8aW5maWxlLm1hZT4nLCAnLW9tYWUnLCAnPG91dGZpbGUubWFlPic=

> <r_lp_tautomer_probability>
1

> <r_epik_Ionization_Penalty>
2.5628e-09

> <r_epik_Ionization_Penalty_Charging>
2.54231e-09

> <r_epik_Ionization_Penalty_Neutral>
2.0492e-11

> <r_epik_State_Penalty>
-0

> <r_epik_Charging_Adjusted_Penalty>
2.54231e-09

> <i_epik_Tot_Q>
0

> <i_epik_Tot_abs_Q>
0

> <r_epik_Metal_State_Penalty>
-0

> <b_epik_Metal_Only>
0

> <s_epik_Chemistry_Notes>
This compound contains an acetal/aminal-like group ( X-CH(R)-Y where X, Y are N, S, or O) that may be acid/base labile, releasing an aldehyde.

> <s_lp_Force_Field>
OPLS_2005

> <r_lp_Energy>
35.5142

> <b_lp_Chiralities_Consistent>
1

> <s_lp_Variant>
AV-unprocessed.smi:28-2

> <Gold.Version>
5.8.1

> <Gold.Id.Protein>
6NUR|6NUR_protein|mol2

> <Gold.PLP.Fitness>
44.6298

> <Gold.PLP.PLP>
-43.4246

> <Gold.PLP.part.hbond>
-0.8350

> <Gold.PLP.part.metal>
0.0000

> <Gold.PLP.part.buried>
-5.8004

> <Gold.PLP.part.nonpolar>
-37.0278

> <Gold.PLP.part.repulsive>
0.0000

> <Gold.PLP.ligand.clash>
0.0000

> <Gold.PLP.ligand.torsion>
0.9147

> <Gold.PLP.Chemscore.Hbond>
1.0000

> <Gold.PLP.Chemscore.CHOScore>
0.0000

> <Gold.PLP.Chemscore.Metal>
0.0000

> <Gold.Chemscore.Hbonds>
donor molecule, donor type, donor heavy atom, donor atom, acceptor molecule, acceptor atom, score
      P1  H  6896  6908       L1    13  0.99

> <Gold.PLP.Chemscore.Internal.Correction>
0.0346

> <Gold.Rescore>
     Score         DG    S(hbond)    S(metal)    S(lipo)     H(rot)  DE(clash)    DE(int)     intcor
     14.39     -16.84       0.98        0.00     106.31       1.70       0.08       2.36       ----

> <Gold.Chemscore.Fitness>
14.3910

> <Gold.Chemscore.DG>
-16.8378

> <Gold.Chemscore.ZeroCoef>
-5.4800

> <Gold.Chemscore.Hbond>
0.9779

> <Gold.Chemscore.Metal>
0.0000

> <Gold.Chemscore.Lipo>
106.3113

> <Gold.Chemscore.Internal_Hbond>
0.0000

> <Gold.Chemscore.DEClash>
0.0840

> <Gold.Chemscore.DEInternal>
2.3628

> <Gold.Chemscore.Rot>
1.6980

> <Gold.Chemscore.Internal.Correction>
   9.000000E+99

> <Gold.Chemscore.Hbonds>
donor molecule, donor type, donor heavy atom, donor atom, acceptor molecule, acceptor atom, score
      P1  H  6896  6908       L1    13  0.94

> <Gold.Chemscore.Hbond.Weighted>
-3.2662

> <Gold.Chemscore.Metal.Weighted>
-0.0000

> <Gold.Chemscore.Lipo.Weighted>
-12.4384

> <Gold.Chemscore.Internal_Hbond.Weighted>
0.0000

> <Gold.Chemscore.DEClash.Weighted>
0.0840

> <Gold.Chemscore.DEInternal.Weighted>
2.3628

> <Gold.Chemscore.Rot.Weighted>
4.3469

> <Gold.Chemscore.Internal.Correction.Weighted>
   9.000000E+99

> <Gold.Protein.RotatedTorsions>
[ 6907 6896 6895 6894 ] final -166.92 input  -60.11 | X-H torsion
[ 7974 7965 7964 7962 ] final -115.99 input  175.53 | X-H torsion
[ 8008 7997 7996 7995 ] final   19.81 input   59.86 | X-H torsion
[ 10167 10162 10161 10158 ] final   32.74 input  -65.29 | X-H torsion
[ 10718 10713 10712 10709 ] final  -18.94 input   66.30 | X-H torsion
[ 10763 10752 10751 10750 ] final -160.92 input  -60.55 | X-H torsion
[ 11005 11000 10999 10996 ] final   74.42 input  -57.11 | X-H torsion

> <Gold.Protein.ActiveResidues>
 VAL166  LYS551  ARG553  GLY616  TRP617  ASP618  TYR619  PRO620  LYS621  CYS622 
 ASP623  PHE694  ASN695  SER759  ASP760  ASP761  ALA762  ILE779  LEU786  VAL792 
 PHE793  MET794  SER795  GLU796  ALA797  LYS798  CYS799  TRP800  GLU811  SER814 

> <Gold.Protein.RotatedAtoms>
  151.4512  133.3617  159.2795 H   0  0  0  0  0  0  0  0  0  0  0  0  # atno 6907 bound_to 6896
  150.9089  134.8507  159.7423 H   0  0  0  0  0  0  0  0  0  0  0  0  # atno 6908 bound_to 6896
  152.4921  134.4440  159.9605 H   0  0  0  0  0  0  0  0  0  0  0  0  # atno 6909 bound_to 6896
  145.1019  140.8557  143.3921 H   0  0  0  0  0  0  0  0  0  0  0  0  # atno 7974 bound_to 7965
  154.9263  140.3034  155.5190 H   0  0  0  0  0  0  0  0  0  0  0  0  # atno 8008 bound_to 7997
  156.3006  140.2362  156.4254 H   0  0  0  0  0  0  0  0  0  0  0  0  # atno 8009 bound_to 7997
  154.8281  140.0420  157.1447 H   0  0  0  0  0  0  0  0  0  0  0  0  # atno 8010 bound_to 7997
  140.4471  144.1103  150.6184 H   0  0  0  0  0  0  0  0  0  0  0  0  # atno 10167 bound_to 10162
  156.5526  130.4705  149.6445 H   0  0  0  0  0  0  0  0  0  0  0  0  # atno 10718 bound_to 10713
  154.7348  135.3055  154.8830 H   0  0  0  0  0  0  0  0  0  0  0  0  # atno 10763 bound_to 10752
  153.9662  135.6747  153.4750 H   0  0  0  0  0  0  0  0  0  0  0  0  # atno 10764 bound_to 10752
  153.0952  135.4939  154.8688 H   0  0  0  0  0  0  0  0  0  0  0  0  # atno 10765 bound_to 10752
  139.9392  134.7431  156.1145 H   0  0  0  0  0  0  0  0  0  0  0  0  # atno 11005 bound_to 11000
  145.0945  139.2866  143.5718 LP  0  0  0  0  0  0  0  0  0  0  0  0  # atno 17320 bound_to 7965
  146.3529  140.0493  142.8637 LP  0  0  0  0  0  0  0  0  0  0  0  0  # atno 17321 bound_to 7965
  140.4251  143.2594  151.9667 LP  0  0  0  0  0  0  0  0  0  0  0  0  # atno 17342 bound_to 10162
  139.4793  144.5796  151.7955 LP  0  0  0  0  0  0  0  0  0  0  0  0  # atno 17343 bound_to 10162
  156.2871  130.7103  151.1943 LP  0  0  0  0  0  0  0  0  0  0  0  0  # atno 17370 bound_to 10713
  157.7384  131.0540  150.5294 LP  0  0  0  0  0  0  0  0  0  0  0  0  # atno 17371 bound_to 10713
  141.1019  133.6674  156.2774 LP  0  0  0  0  0  0  0  0  0  0  0  0  # atno 17394 bound_to 11000
  140.5996  134.5568  157.5515 LP  0  0  0  0  0  0  0  0  0  0  0  0  # atno 17395 bound_to 11000

$$$$
