AV-unprocessed.smi:1165|AV-procd|sdf|4930|dock7
  -GOLD-   22720 3513D 1   1.00000     0.00000
 Structure written by MMmdl.
 41 42  0  0  0  0  0  0  0  0  1 V2000
  157.8376  135.6565  161.1607 C   0  0  0  0  0  0  0  0  0  0  0  0
  158.1122  137.1641  161.3113 C   0  0  1  0  0  0  0  0  0  0  0  0
  157.2203  138.0403  160.4114 C   0  0  0  0  0  0  0  0  0  0  0  0
  155.8516  138.1418  160.9456 N   0  0  0  0  0  0  0  0  0  0  0  0
  154.6241  138.7934  159.9107 S   0  0  0  0  0  0  0  0  0  0  0  0
  155.2051  139.0241  158.5791 O   0  0  0  0  0  0  0  0  0  0  0  0
  153.4031  137.9920  160.0835 O   0  0  0  0  0  0  0  0  0  0  0  0
  154.3872  140.3257  160.6685 N   0  0  0  0  0  0  0  0  0  0  0  0
  154.3915  141.5425  159.8579 C   0  0  0  0  0  0  0  0  0  0  0  0
  153.9441  142.7429  160.7003 C   0  0  0  0  0  0  0  0  0  0  0  0
  152.7074  143.4073  160.1293 C   0  0  0  0  0  0  0  0  0  0  0  0
  152.1637  142.9923  158.8962 C   0  0  0  0  0  0  0  0  0  0  0  0
  151.0160  143.6461  158.4077 C   0  0  0  0  0  0  0  0  0  0  0  0
  150.4606  144.6898  159.1748 C   0  0  0  0  0  0  0  0  0  0  0  0
  150.9741  145.0962  160.3561 N   0  0  0  0  0  0  0  0  0  0  0  0
  152.0742  144.4640  160.8175 C   0  0  0  0  0  0  0  0  0  0  0  0
  155.8163  138.5363  162.3603 C   0  0  0  0  0  0  0  0  0  0  0  0
  156.7149  137.6176  163.2066 C   0  0  2  0  0  0  0  0  0  0  0  0
  156.8076  138.0900  164.6618 C   0  0  0  0  0  0  0  0  0  0  0  0
  158.0324  137.5947  162.6681 O   0  0  0  0  0  0  0  0  0  0  0  0
  158.0312  135.3289  160.1391 H   0  0  0  0  0  0  0  0  0  0  0  0
  156.8047  135.3973  161.3902 H   0  0  0  0  0  0  0  0  0  0  0  0
  158.4834  135.0765  161.8204 H   0  0  0  0  0  0  0  0  0  0  0  0
  159.1464  137.3249  161.0061 H   0  0  0  0  0  0  0  0  0  0  0  0
  157.6394  139.0454  160.3453 H   0  0  0  0  0  0  0  0  0  0  0  0
  157.2059  137.6416  159.3976 H   0  0  0  0  0  0  0  0  0  0  0  0
  154.8865  140.4129  161.5532 H   0  0  0  0  0  0  0  0  0  0  0  0
  155.3957  141.7118  159.4697 H   0  0  0  0  0  0  0  0  0  0  0  0
  153.7309  141.4063  159.0011 H   0  0  0  0  0  0  0  0  0  0  0  0
  153.7426  142.4277  161.7250 H   0  0  0  0  0  0  0  0  0  0  0  0
  154.7449  143.4819  160.7558 H   0  0  0  0  0  0  0  0  0  0  0  0
  152.6165  142.1896  158.3330 H   0  0  0  0  0  0  0  0  0  0  0  0
  150.5717  143.3553  157.4672 H   0  0  0  0  0  0  0  0  0  0  0  0
  149.5808  145.2125  158.8301 H   0  0  0  0  0  0  0  0  0  0  0  0
  152.4625  144.8137  161.7630 H   0  0  0  0  0  0  0  0  0  0  0  0
  156.1403  139.5745  162.4435 H   0  0  0  0  0  0  0  0  0  0  0  0
  154.7920  138.4901  162.7304 H   0  0  0  0  0  0  0  0  0  0  0  0
  156.3013  136.6091  163.2098 H   0  0  0  0  0  0  0  0  0  0  0  0
  155.8237  138.1100  165.1313 H   0  0  0  0  0  0  0  0  0  0  0  0
  157.2305  139.0929  164.7262 H   0  0  0  0  0  0  0  0  0  0  0  0
  157.4407  137.4237  165.2480 H   0  0  0  0  0  0  0  0  0  0  0  0
  1  2  1  0  0  0  0
  1 21  1  0  0  0  0
  1 22  1  0  0  0  0
  1 23  1  0  0  0  0
  2 20  1  0  0  0  0
  2  3  1  0  0  0  0
  2 24  1  0  0  0  0
  3  4  1  0  0  0  0
  3 25  1  0  0  0  0
  3 26  1  0  0  0  0
  4  5  1  0  0  0  0
  4 17  1  0  0  0  0
  5  6  2  0  0  0  0
  5  7  2  0  0  0  0
  5  8  1  0  0  0  0
  8  9  1  0  0  0  0
  8 27  1  0  0  0  0
  9 10  1  0  0  0  0
  9 28  1  0  0  0  0
  9 29  1  0  0  0  0
 10 11  1  0  0  0  0
 10 30  1  0  0  0  0
 10 31  1  0  0  0  0
 11 16  1  0  0  0  0
 11 12  2  0  0  0  0
 12 13  1  0  0  0  0
 12 32  1  0  0  0  0
 13 14  2  0  0  0  0
 13 33  1  0  0  0  0
 14 15  1  0  0  0  0
 14 34  1  0  0  0  0
 15 16  2  0  0  0  0
 16 35  1  0  0  0  0
 17 18  1  0  0  0  0
 17 36  1  0  0  0  0
 17 37  1  0  0  0  0
 18 19  1  0  0  0  0
 18 20  1  0  0  0  0
 18 38  1  0  0  0  0
 19 39  1  0  0  0  0
 19 40  1  0  0  0  0
 19 41  1  0  0  0  0
M  END
> <s_m_source_file>
AV-unprocessed.smi

> <i_m_source_file_index>
1165

> <i_lp_mmshare_version>
43012

> <i_f3d_flags>
0

> <s_epik_input>
W0NIM11bQ0BASF0xW0NIMl1OKFtDSDJdW0NASF0oTzEpW0NIM10pUyg9TykoPU8pW05IXVtDSDJdW0NIMl1jMltjSF1bY0hdW2NIXW5bY0hdMg==

> <s_epik_cmdline>
J2VwaWtfcHl0aG9uJywgJy1waCcsICc3LjAnLCAnLXRuJywgJzgnLCAnLW1hJywgJzIwMCcsICctbWV0YWxfYmluZGluZycsICctaW1hZScsICc8aW5maWxlLm1hZT4nLCAnLW9tYWUnLCAnPG91dGZpbGUubWFlPic=

> <r_epik_Ionization_Penalty>
0.0861056

> <r_epik_Ionization_Penalty_Charging>
0

> <r_epik_Ionization_Penalty_Neutral>
0.0861056

> <r_epik_State_Penalty>
0.0574425

> <r_epik_Charging_Adjusted_Penalty>
0.0574425

> <i_epik_Tot_Q>
0

> <i_epik_Tot_abs_Q>
0

> <r_epik_Metal_State_Penalty>
0.317425

> <b_epik_Metal_Only>
0

> <s_lp_Force_Field>
OPLS_2005

> <r_lp_Energy>
8.11282

> <b_lp_Chiralities_Consistent>
1

> <s_lp_Variant>
AV-unprocessed.smi:1165-3

> <Gold.Version>
5.8.1

> <Gold.Id.Protein>
6NUR|6NUR_protein|mol2

> <Gold.PLP.Fitness>
44.4136

> <Gold.PLP.PLP>
-40.9918

> <Gold.PLP.part.hbond>
-1.0000

> <Gold.PLP.part.metal>
0.0000

> <Gold.PLP.part.buried>
-5.1647

> <Gold.PLP.part.nonpolar>
-34.6145

> <Gold.PLP.part.repulsive>
0.1861

> <Gold.PLP.ligand.clash>
0.0000

> <Gold.PLP.ligand.torsion>
1.3164

> <Gold.PLP.Chemscore.Hbond>
1.0000

> <Gold.PLP.Chemscore.CHOScore>
0.7637

> <Gold.PLP.Chemscore.Metal>
0.0000

> <Gold.Chemscore.Hbonds>
donor molecule, donor type, donor heavy atom, donor atom, acceptor molecule, acceptor atom, score
      P1  H  7997  8010       L1     6  1.00
      L1  C    14    34       P1  8029  1.00

> <Gold.PLP.Chemscore.Internal.Correction>
0.7637

> <Gold.Rescore>
     Score         DG    S(hbond)    S(metal)    S(lipo)     H(rot)  DE(clash)    DE(int)     intcor
     16.83     -18.03       0.98        0.00     116.68       1.71       0.01       1.19       ----

> <Gold.Chemscore.Fitness>
16.8313

> <Gold.Chemscore.DG>
-18.0336

> <Gold.Chemscore.ZeroCoef>
-5.4800

> <Gold.Chemscore.Hbond>
0.9789

> <Gold.Chemscore.Metal>
0.0000

> <Gold.Chemscore.Lipo>
116.6789

> <Gold.Chemscore.Internal_Hbond>
0.0000

> <Gold.Chemscore.DEClash>
0.0149

> <Gold.Chemscore.DEInternal>
1.1874

> <Gold.Chemscore.Rot>
1.7060

> <Gold.Chemscore.Internal.Correction>
   9.000000E+99

> <Gold.Chemscore.Hbonds>
donor molecule, donor type, donor heavy atom, donor atom, acceptor molecule, acceptor atom, score
      P1  H  7997  8010       L1     6  0.98

> <Gold.Chemscore.Hbond.Weighted>
-3.2695

> <Gold.Chemscore.Metal.Weighted>
-0.0000

> <Gold.Chemscore.Lipo.Weighted>
-13.6514

> <Gold.Chemscore.Internal_Hbond.Weighted>
0.0000

> <Gold.Chemscore.DEClash.Weighted>
0.0149

> <Gold.Chemscore.DEInternal.Weighted>
1.1874

> <Gold.Chemscore.Rot.Weighted>
4.3674

> <Gold.Chemscore.Internal.Correction.Weighted>
   9.000000E+99

> <Gold.Protein.RotatedTorsions>
[ 6907 6896 6895 6894 ] final  130.06 input  -60.11 | X-H torsion
[ 7974 7965 7964 7962 ] final -138.15 input  175.53 | X-H torsion
[ 8008 7997 7996 7995 ] final    0.56 input   59.86 | X-H torsion
[ 10167 10162 10161 10158 ] final   54.54 input  -65.29 | X-H torsion
[ 10718 10713 10712 10709 ] final -119.49 input   66.30 | X-H torsion
[ 10763 10752 10751 10750 ] final  -53.72 input  -60.55 | X-H torsion
[ 11005 11000 10999 10996 ] final  113.71 input  -57.11 | X-H torsion

> <Gold.Protein.ActiveResidues>
 VAL166  LYS551  ARG553  GLY616  TRP617  ASP618  TYR619  PRO620  LYS621  CYS622 
 ASP623  PHE694  ASN695  SER759  ASP760  ASP761  ALA762  ILE779  LEU786  VAL792 
 PHE793  MET794  SER795  GLU796  ALA797  LYS798  CYS799  TRP800  GLU811  SER814 

> <Gold.Protein.RotatedAtoms>
  152.3563  133.6241  159.5981 H   0  0  0  0  0  0  0  0  0  0  0  0  # atno 6907 bound_to 6896
  150.7571  133.9495  159.3490 H   0  0  0  0  0  0  0  0  0  0  0  0  # atno 6908 bound_to 6896
  151.7340  135.0869  160.0356 H   0  0  0  0  0  0  0  0  0  0  0  0  # atno 6909 bound_to 6896
  144.8782  140.6469  143.5223 H   0  0  0  0  0  0  0  0  0  0  0  0  # atno 7974 bound_to 7965
  154.6695  140.2608  155.7022 H   0  0  0  0  0  0  0  0  0  0  0  0  # atno 8008 bound_to 7997
  156.2653  140.2832  156.1120 H   0  0  0  0  0  0  0  0  0  0  0  0  # atno 8009 bound_to 7997
  155.1189  140.0377  157.2735 H   0  0  0  0  0  0  0  0  0  0  0  0  # atno 8010 bound_to 7997
  140.2290  144.3707  150.6421 H   0  0  0  0  0  0  0  0  0  0  0  0  # atno 10167 bound_to 10162
  156.1185  130.6304  150.9422 H   0  0  0  0  0  0  0  0  0  0  0  0  # atno 10718 bound_to 10713
  154.1633  135.6471  153.4991 H   0  0  0  0  0  0  0  0  0  0  0  0  # atno 10763 bound_to 10752
  153.0104  135.5366  154.6688 H   0  0  0  0  0  0  0  0  0  0  0  0  # atno 10764 bound_to 10752
  154.6007  135.2943  155.0510 H   0  0  0  0  0  0  0  0  0  0  0  0  # atno 10765 bound_to 10752
  139.8960  134.9555  156.6780 H   0  0  0  0  0  0  0  0  0  0  0  0  # atno 11005 bound_to 11000
  145.4003  139.1599  143.4181 LP  0  0  0  0  0  0  0  0  0  0  0  0  # atno 17320 bound_to 7965
  146.2977  140.4099  142.8715 LP  0  0  0  0  0  0  0  0  0  0  0  0  # atno 17321 bound_to 7965
  140.6199  143.2175  151.6716 LP  0  0  0  0  0  0  0  0  0  0  0  0  # atno 17342 bound_to 10162
  139.5116  144.3502  152.0659 LP  0  0  0  0  0  0  0  0  0  0  0  0  # atno 17343 bound_to 10162
  157.6368  131.0915  150.8331 LP  0  0  0  0  0  0  0  0  0  0  0  0  # atno 17370 bound_to 10713
  156.8431  130.5055  149.5319 LP  0  0  0  0  0  0  0  0  0  0  0  0  # atno 17371 bound_to 10713
  140.7321  133.9050  155.8218 LP  0  0  0  0  0  0  0  0  0  0  0  0  # atno 17394 bound_to 11000
  141.0145  134.0975  157.4187 LP  0  0  0  0  0  0  0  0  0  0  0  0  # atno 17395 bound_to 11000

$$$$
