AV-unprocessed.smi:3256|AV-procd|sdf|12465|dock9
  -GOLD-   2272018363D 1   1.00000     0.00000
 Structure written by MMmdl.
 36 37  0  0  0  0  0  0  0  0  1 V2000
  142.9937  135.8746  153.1602 O   0  0  0  0  0  0  0  0  0  0  0  0
  143.1441  137.0596  152.8660 C   0  0  0  0  0  0  0  0  0  0  0  0
  144.2960  137.5668  152.4039 N   0  0  0  0  0  0  0  0  0  0  0  0
  145.5288  136.8148  152.1932 C   0  0  0  0  0  0  0  0  0  0  0  0
  145.5604  136.1550  150.8007 C   0  0  0  0  0  0  0  0  0  0  0  0
  145.4776  134.6944  150.7896 N   0  0  0  0  0  0  0  0  0  0  0  0
  144.1641  134.2393  151.2312 C   0  0  0  0  0  0  0  0  0  0  0  0
  144.0544  132.7048  151.2198 C   0  0  0  0  0  0  0  0  0  0  0  0
  145.0805  132.1480  152.0346 O   0  0  0  0  0  0  0  0  0  0  0  0
  146.3851  132.5324  151.6131 C   0  0  0  0  0  0  0  0  0  0  0  0
  146.5008  134.0665  151.6231 C   0  0  0  0  0  0  0  0  0  0  0  0
  142.2055  138.0169  152.9664 N   0  0  0  0  0  0  0  0  0  0  0  0
  140.8525  137.9173  153.3938 C   0  0  0  0  0  0  0  0  0  0  0  0
  140.2553  136.7522  153.9353 C   0  0  0  0  0  0  0  0  0  0  0  0
  138.8976  136.7942  154.3076 C   0  0  0  0  0  0  0  0  0  0  0  0
  138.1846  137.9940  154.1214 C   0  0  0  0  0  0  0  0  0  0  0  0
  138.7378  139.1094  153.6017 N   0  0  0  0  0  0  0  0  0  0  0  0
  140.0397  139.0620  153.2482 C   0  0  0  0  0  0  0  0  0  0  0  0
  144.3276  138.5533  152.1926 H   0  0  0  0  0  0  0  0  0  0  0  0
  146.4102  137.4302  152.3748 H   0  0  0  0  0  0  0  0  0  0  0  0
  145.5584  136.0319  152.9513 H   0  0  0  0  0  0  0  0  0  0  0  0
  144.7518  136.5660  150.1946 H   0  0  0  0  0  0  0  0  0  0  0  0
  146.4833  136.4644  150.3081 H   0  0  0  0  0  0  0  0  0  0  0  0
  143.9638  134.6077  152.2385 H   0  0  0  0  0  0  0  0  0  0  0  0
  143.3912  134.6588  150.5862 H   0  0  0  0  0  0  0  0  0  0  0  0
  143.0838  132.3910  151.6040 H   0  0  0  0  0  0  0  0  0  0  0  0
  144.1381  132.3188  150.2026 H   0  0  0  0  0  0  0  0  0  0  0  0
  147.1210  132.0922  152.2859 H   0  0  0  0  0  0  0  0  0  0  0  0
  146.5844  132.1372  150.6158 H   0  0  0  0  0  0  0  0  0  0  0  0
  147.4964  134.3411  151.2771 H   0  0  0  0  0  0  0  0  0  0  0  0
  146.4157  134.4278  152.6491 H   0  0  0  0  0  0  0  0  0  0  0  0
  142.5063  138.9493  152.7233 H   0  0  0  0  0  0  0  0  0  0  0  0
  140.7952  135.8288  154.0673 H   0  0  0  0  0  0  0  0  0  0  0  0
  138.4127  135.9236  154.7239 H   0  0  0  0  0  0  0  0  0  0  0  0
  137.1417  138.0586  154.3940 H   0  0  0  0  0  0  0  0  0  0  0  0
  140.4470  139.9731  152.8342 H   0  0  0  0  0  0  0  0  0  0  0  0
  1  2  2  0  0  0  0
  2  3  1  0  0  0  0
  2 12  1  0  0  0  0
  3  4  1  0  0  0  0
  3 19  1  0  0  0  0
  4  5  1  0  0  0  0
  4 20  1  0  0  0  0
  4 21  1  0  0  0  0
  5  6  1  0  0  0  0
  5 22  1  0  0  0  0
  5 23  1  0  0  0  0
  6 11  1  0  0  0  0
  6  7  1  0  0  0  0
  7  8  1  0  0  0  0
  7 24  1  0  0  0  0
  7 25  1  0  0  0  0
  8  9  1  0  0  0  0
  8 26  1  0  0  0  0
  8 27  1  0  0  0  0
  9 10  1  0  0  0  0
 10 11  1  0  0  0  0
 10 28  1  0  0  0  0
 10 29  1  0  0  0  0
 11 30  1  0  0  0  0
 11 31  1  0  0  0  0
 12 13  1  0  0  0  0
 12 32  1  0  0  0  0
 13 18  1  0  0  0  0
 13 14  2  0  0  0  0
 14 15  1  0  0  0  0
 14 33  1  0  0  0  0
 15 16  2  0  0  0  0
 15 34  1  0  0  0  0
 16 17  1  0  0  0  0
 16 35  1  0  0  0  0
 17 18  2  0  0  0  0
 18 36  1  0  0  0  0
M  END
> <s_m_source_file>
AV-unprocessed.smi

> <i_m_source_file_index>
3256

> <i_lp_mmshare_version>
43012

> <i_f3d_flags>
0

> <s_epik_input>
W2NIXTFuW2NIXVtjSF1bY0hdYzFbTkhdQyg9TylbTkhdW0NIMl1bQ0gyXU4yW0NIMl1bQ0gyXU9bQ0gyXVtDSDJdMg==

> <s_epik_cmdline>
J2VwaWtfcHl0aG9uJywgJy1waCcsICc3LjAnLCAnLXRuJywgJzgnLCAnLW1hJywgJzIwMCcsICctbWV0YWxfYmluZGluZycsICctaW1hZScsICc8aW5maWxlLm1hZT4nLCAnLW9tYWUnLCAnPG91dGZpbGUubWFlPic=

> <r_epik_Ionization_Penalty>
0.270703

> <r_epik_Ionization_Penalty_Charging>
0

> <r_epik_Ionization_Penalty_Neutral>
0.270703

> <r_epik_State_Penalty>
0.268226

> <r_epik_Charging_Adjusted_Penalty>
0.268226

> <i_epik_Tot_Q>
0

> <i_epik_Tot_abs_Q>
0

> <r_epik_Metal_State_Penalty>
0.26483

> <b_epik_Metal_Only>
0

> <s_lp_Force_Field>
OPLS_2005

> <r_lp_Energy>
28.1533

> <b_lp_Chiralities_Consistent>
1

> <s_lp_Variant>
AV-unprocessed.smi:3256-1

> <Gold.Version>
5.8.1

> <Gold.Id.Protein>
6NUR|6NUR_protein|mol2

> <Gold.PLP.Fitness>
40.0985

> <Gold.PLP.PLP>
-32.4639

> <Gold.PLP.part.hbond>
-3.0000

> <Gold.PLP.part.metal>
0.0000

> <Gold.PLP.part.buried>
-3.8065

> <Gold.PLP.part.nonpolar>
-27.1520

> <Gold.PLP.part.repulsive>
0.6268

> <Gold.PLP.ligand.clash>
0.0000

> <Gold.PLP.ligand.torsion>
0.5733

> <Gold.PLP.Chemscore.Hbond>
2.0000

> <Gold.PLP.Chemscore.CHOScore>
0.9246

> <Gold.PLP.Chemscore.Metal>
0.0000

> <Gold.Chemscore.Hbonds>
donor molecule, donor type, donor heavy atom, donor atom, acceptor molecule, acceptor atom, score
      L1  H     3    19       P1 10175  1.00
      L1  H    12    32       P1 10175  1.00
      L1  C    18    36       P1 10160  0.94

> <Gold.PLP.Chemscore.Internal.Correction>
0.0075

> <Gold.Rescore>
     Score         DG    S(hbond)    S(metal)    S(lipo)     H(rot)  DE(clash)    DE(int)     intcor
     13.22     -16.35       1.96        0.00      69.66       1.49       0.05       3.08       ----

> <Gold.Chemscore.Fitness>
13.2215

> <Gold.Chemscore.DG>
-16.3496

> <Gold.Chemscore.ZeroCoef>
-5.4800

> <Gold.Chemscore.Hbond>
1.9598

> <Gold.Chemscore.Metal>
0.0000

> <Gold.Chemscore.Lipo>
69.6635

> <Gold.Chemscore.Internal_Hbond>
0.0000

> <Gold.Chemscore.DEClash>
0.0484

> <Gold.Chemscore.DEInternal>
3.0797

> <Gold.Chemscore.Rot>
1.4949

> <Gold.Chemscore.Internal.Correction>
   9.000000E+99

> <Gold.Chemscore.Hbonds>
donor molecule, donor type, donor heavy atom, donor atom, acceptor molecule, acceptor atom, score
      L1  H     3    19       P1 10175  0.90
      L1  H    12    32       P1 10175  0.99

> <Gold.Chemscore.Hbond.Weighted>
-6.5458

> <Gold.Chemscore.Metal.Weighted>
-0.0000

> <Gold.Chemscore.Lipo.Weighted>
-8.1506

> <Gold.Chemscore.Internal_Hbond.Weighted>
0.0000

> <Gold.Chemscore.DEClash.Weighted>
0.0484

> <Gold.Chemscore.DEInternal.Weighted>
3.0797

> <Gold.Chemscore.Rot.Weighted>
3.8269

> <Gold.Chemscore.Internal.Correction.Weighted>
   9.000000E+99

> <Gold.Protein.RotatedTorsions>
[ 6907 6896 6895 6894 ] final  176.33 input  -60.11 | X-H torsion
[ 7974 7965 7964 7962 ] final  134.02 input  175.53 | X-H torsion
[ 8008 7997 7996 7995 ] final -113.95 input   59.86 | X-H torsion
[ 10167 10162 10161 10158 ] final  171.87 input  -65.29 | X-H torsion
[ 10718 10713 10712 10709 ] final -138.27 input   66.30 | X-H torsion
[ 10763 10752 10751 10750 ] final  -42.50 input  -60.55 | X-H torsion
[ 11005 11000 10999 10996 ] final -106.82 input  -57.11 | X-H torsion

> <Gold.Protein.ActiveResidues>
 VAL166  LYS551  ARG553  GLY616  TRP617  ASP618  TYR619  PRO620  LYS621  CYS622 
 ASP623  PHE694  ASN695  SER759  ASP760  ASP761  ALA762  ILE779  LEU786  VAL792 
 PHE793  MET794  SER795  GLU796  ALA797  LYS798  CYS799  TRP800  GLU811  SER814 

> <Gold.Protein.RotatedAtoms>
  151.7219  133.3315  159.3317 H   0  0  0  0  0  0  0  0  0  0  0  0  # atno 6907 bound_to 6896
  150.7649  134.6440  159.6262 H   0  0  0  0  0  0  0  0  0  0  0  0  # atno 6908 bound_to 6896
  152.3646  134.6825  160.0248 H   0  0  0  0  0  0  0  0  0  0  0  0  # atno 6909 bound_to 6896
  144.9805  139.4509  143.5388 H   0  0  0  0  0  0  0  0  0  0  0  0  # atno 7974 bound_to 7965
  155.0287  140.0393  157.2466 H   0  0  0  0  0  0  0  0  0  0  0  0  # atno 8008 bound_to 7997
  154.7315  140.2731  155.6428 H   0  0  0  0  0  0  0  0  0  0  0  0  # atno 8009 bound_to 7997
  156.2842  140.2683  156.2016 H   0  0  0  0  0  0  0  0  0  0  0  0  # atno 8010 bound_to 7997
  139.5059  144.3437  151.9992 H   0  0  0  0  0  0  0  0  0  0  0  0  # atno 10167 bound_to 10162
  156.2975  130.7410  151.1452 H   0  0  0  0  0  0  0  0  0  0  0  0  # atno 10718 bound_to 10713
  153.9802  135.6718  153.4750 H   0  0  0  0  0  0  0  0  0  0  0  0  # atno 10763 bound_to 10752
  153.0752  135.4952  154.8386 H   0  0  0  0  0  0  0  0  0  0  0  0  # atno 10764 bound_to 10752
  154.7169  135.3109  154.9071 H   0  0  0  0  0  0  0  0  0  0  0  0  # atno 10765 bound_to 10752
  141.0985  133.8927  157.1902 H   0  0  0  0  0  0  0  0  0  0  0  0  # atno 11005 bound_to 11000
  146.3407  139.9075  142.8785 LP  0  0  0  0  0  0  0  0  0  0  0  0  # atno 17320 bound_to 7965
  145.2427  141.0015  143.3926 LP  0  0  0  0  0  0  0  0  0  0  0  0  # atno 17321 bound_to 7965
  140.2875  144.3791  150.6099 LP  0  0  0  0  0  0  0  0  0  0  0  0  # atno 17342 bound_to 10162
  140.5972  143.2167  151.7141 LP  0  0  0  0  0  0  0  0  0  0  0  0  # atno 17343 bound_to 10162
  157.7359  131.0567  150.5444 LP  0  0  0  0  0  0  0  0  0  0  0  0  # atno 17370 bound_to 10713
  156.5567  130.4245  149.6082 LP  0  0  0  0  0  0  0  0  0  0  0  0  # atno 17371 bound_to 10713
  139.9829  135.0092  156.9793 LP  0  0  0  0  0  0  0  0  0  0  0  0  # atno 17394 bound_to 11000
  140.5080  134.1030  155.7264 LP  0  0  0  0  0  0  0  0  0  0  0  0  # atno 17395 bound_to 11000

$$$$
