AV-unprocessed.smi:1372|AV-procd|sdf|5585|dock1
  -GOLD-   22720 5183D 1   1.00000     0.00000
 Structure written by MMmdl.
 42 44  0  0  0  0  0  0  0  0  2 V2000
  153.5393  137.7599  157.0151 C   0  0  0  0  0  0  0  0  0  0  0  0
  151.9179  137.2568  156.3028 S   0  0  0  0  0  0  0  0  0  0  0  0
  151.9315  135.7957  156.1309 O   0  0  0  0  0  0  0  0  0  0  0  0
  150.8516  137.8900  157.0929 O   0  0  0  0  0  0  0  0  0  0  0  0
  151.9510  138.0481  154.6350 C   0  0  0  0  0  0  0  0  0  0  0  0
  150.7230  138.8737  154.4172 C   0  0  0  0  0  0  0  0  0  0  0  0
  149.6556  138.5237  153.6440 N   0  3  0  0  0  0  0  0  0  0  0  0
  148.6930  139.5329  153.6792 C   0  0  0  0  0  0  0  0  0  0  0  0
  147.4524  139.6320  153.0566 C   0  0  0  0  0  0  0  0  0  0  0  0
  146.7109  140.8053  153.3071 C   0  0  0  0  0  0  0  0  0  0  0  0
  147.2076  141.8224  154.1481 C   0  0  0  0  0  0  0  0  0  0  0  0
  148.4671  141.7107  154.7733 C   0  0  0  0  0  0  0  0  0  0  0  0
  149.1941  140.5481  154.5185 C   0  0  0  0  0  0  0  0  0  0  0  0
  150.4474  140.1004  154.9501 N   0  0  0  0  0  0  0  0  0  0  0  0
  151.2336  140.9522  155.8563 C   0  0  0  0  0  0  0  0  0  0  0  0
  150.4628  141.3398  157.1331 C   0  0  1  0  0  0  0  0  0  0  0  0
  150.2273  140.1868  157.9186 O   0  0  0  0  0  0  0  0  0  0  0  0
  151.1935  142.4265  157.9049 C   0  0  0  0  0  0  0  0  0  0  0  0
  151.4106  143.6979  157.3287 C   0  0  0  0  0  0  0  0  0  0  0  0
  152.0795  144.7016  158.0560 C   0  0  0  0  0  0  0  0  0  0  0  0
  152.5313  144.4419  159.3640 C   0  0  0  0  0  0  0  0  0  0  0  0
  152.3130  143.1780  159.9451 C   0  0  0  0  0  0  0  0  0  0  0  0
  151.6457  142.1733  159.2179 C   0  0  0  0  0  0  0  0  0  0  0  0
  153.6283  137.3599  158.0250 H   0  0  0  0  0  0  0  0  0  0  0  0
  153.6016  138.8472  157.0541 H   0  0  0  0  0  0  0  0  0  0  0  0
  154.3514  137.3684  156.4028 H   0  0  0  0  0  0  0  0  0  0  0  0
  152.8355  138.6820  154.5721 H   0  0  0  0  0  0  0  0  0  0  0  0
  152.0440  137.2726  153.8754 H   0  0  0  0  0  0  0  0  0  0  0  0
  147.0700  138.8537  152.4126 H   0  0  0  0  0  0  0  0  0  0  0  0
  145.7415  140.9270  152.8459 H   0  0  0  0  0  0  0  0  0  0  0  0
  146.6105  142.7068  154.3171 H   0  0  0  0  0  0  0  0  0  0  0  0
  148.8382  142.4955  155.4159 H   0  0  0  0  0  0  0  0  0  0  0  0
  152.1484  140.4179  156.1118 H   0  0  0  0  0  0  0  0  0  0  0  0
  151.5482  141.8408  155.3075 H   0  0  0  0  0  0  0  0  0  0  0  0
  149.4823  141.7258  156.8512 H   0  0  0  0  0  0  0  0  0  0  0  0
  150.5443  140.3518  158.7938 H   0  0  0  0  0  0  0  0  0  0  0  0
  151.0624  143.9090  156.3281 H   0  0  0  0  0  0  0  0  0  0  0  0
  152.2446  145.6716  157.6107 H   0  0  0  0  0  0  0  0  0  0  0  0
  153.0429  145.2122  159.9220 H   0  0  0  0  0  0  0  0  0  0  0  0
  152.6567  142.9796  160.9497 H   0  0  0  0  0  0  0  0  0  0  0  0
  151.4810  141.2081  159.6741 H   0  0  0  0  0  0  0  0  0  0  0  0
  149.5962  137.6578  153.1233 H   0  0  0  0  0  0  0  0  0  0  0  0
  1  2  1  0  0  0  0
  1 24  1  0  0  0  0
  1 25  1  0  0  0  0
  1 26  1  0  0  0  0
  2  3  2  0  0  0  0
  2  4  2  0  0  0  0
  2  5  1  0  0  0  0
  5  6  1  0  0  0  0
  5 27  1  0  0  0  0
  5 28  1  0  0  0  0
  6 14  1  0  0  0  0
  6  7  2  0  0  0  0
  7  8  1  0  0  0  0
  7 42  1  0  0  0  0
  8 13  2  0  0  0  0
  8  9  1  0  0  0  0
  9 10  2  0  0  0  0
  9 29  1  0  0  0  0
 10 11  1  0  0  0  0
 10 30  1  0  0  0  0
 11 12  2  0  0  0  0
 11 31  1  0  0  0  0
 12 13  1  0  0  0  0
 12 32  1  0  0  0  0
 13 14  1  0  0  0  0
 14 15  1  0  0  0  0
 15 16  1  0  0  0  0
 15 33  1  0  0  0  0
 15 34  1  0  0  0  0
 16 17  1  0  0  0  0
 16 18  1  0  0  0  0
 16 35  1  0  0  0  0
 17 36  1  0  0  0  0
 18 23  1  0  0  0  0
 18 19  2  0  0  0  0
 19 20  1  0  0  0  0
 19 37  1  0  0  0  0
 20 21  2  0  0  0  0
 20 38  1  0  0  0  0
 21 22  1  0  0  0  0
 21 39  1  0  0  0  0
 22 23  2  0  0  0  0
 22 40  1  0  0  0  0
 23 41  1  0  0  0  0
M  CHG  1   7   1
M  END
> <s_m_source_file>
AV-unprocessed.smi

> <i_m_source_file_index>
1372

> <i_lp_mmshare_version>
43012

> <i_f3d_flags>
0

> <s_epik_input>
W2NIXTFbY0hdW2NIXVtjSF1jKGMxMiluKGMobjIpW0NIMl1TKD1PKSg9TylbQ0gzXSlbQ0gyXVtDQEhdKFtPSF0pYzNbY0hdW2NIXVtjSF1bY0hdW2NIXTM=

> <s_epik_cmdline>
J2VwaWtfcHl0aG9uJywgJy1waCcsICc3LjAnLCAnLXRuJywgJzgnLCAnLW1hJywgJzIwMCcsICctbWV0YWxfYmluZGluZycsICctaW1hZScsICc8aW5maWxlLm1hZT4nLCAnLW9tYWUnLCAnPG91dGZpbGUubWFlPic=

> <r_epik_Ionization_Penalty>
2.1801

> <r_epik_Ionization_Penalty_Charging>
2.1801

> <r_epik_Ionization_Penalty_Neutral>
1.34362e-06

> <r_epik_State_Penalty>
2.32206

> <r_epik_Charging_Adjusted_Penalty>
4.50216

> <i_epik_Tot_Q>
1

> <i_epik_Tot_abs_Q>
1

> <r_epik_Metal_State_Penalty>
6.40294

> <b_epik_Metal_Only>
0

> <s_lp_Force_Field>
OPLS_2005

> <r_lp_Energy>
11.7857

> <b_lp_Chiralities_Consistent>
1

> <s_lp_Variant>
AV-unprocessed.smi:1372-4

> <Gold.Version>
5.8.1

> <Gold.Id.Protein>
6NUR|6NUR_protein|mol2

> <Gold.PLP.Fitness>
57.3615

> <Gold.PLP.PLP>
-48.9390

> <Gold.PLP.part.hbond>
-3.0000

> <Gold.PLP.part.metal>
0.0000

> <Gold.PLP.part.buried>
2.7509

> <Gold.PLP.part.nonpolar>
-48.7439

> <Gold.PLP.part.repulsive>
0.0780

> <Gold.PLP.ligand.clash>
0.0000

> <Gold.PLP.ligand.torsion>
0.4013

> <Gold.PLP.Chemscore.Hbond>
3.0000

> <Gold.PLP.Chemscore.CHOScore>
0.0000

> <Gold.PLP.Chemscore.Metal>
0.0000

> <Gold.Chemscore.Hbonds>
donor molecule, donor type, donor heavy atom, donor atom, acceptor molecule, acceptor atom, score
      L1  H     7    42       P1  7948  2.00
      P1  H 10752 10764       L1     3  1.00

> <Gold.PLP.Chemscore.Internal.Correction>
0.2250

> <Gold.Rescore>
     Score         DG    S(hbond)    S(metal)    S(lipo)     H(rot)  DE(clash)    DE(int)     intcor
     19.26     -19.76       1.57        0.00     129.53       2.40       0.15       0.35       ----

> <Gold.Chemscore.Fitness>
19.2624

> <Gold.Chemscore.DG>
-19.7619

> <Gold.Chemscore.ZeroCoef>
-5.4800

> <Gold.Chemscore.Hbond>
1.5745

> <Gold.Chemscore.Metal>
0.0000

> <Gold.Chemscore.Lipo>
129.5255

> <Gold.Chemscore.Internal_Hbond>
0.0000

> <Gold.Chemscore.DEClash>
0.1490

> <Gold.Chemscore.DEInternal>
0.3505

> <Gold.Chemscore.Rot>
2.3951

> <Gold.Chemscore.Internal.Correction>
   9.000000E+99

> <Gold.Chemscore.Hbonds>
donor molecule, donor type, donor heavy atom, donor atom, acceptor molecule, acceptor atom, score
      L1  H     7    42       P1  7948  0.77
      P1  H 10752 10764       L1     3  0.43

> <Gold.Chemscore.Hbond.Weighted>
-5.2588

> <Gold.Chemscore.Metal.Weighted>
-0.0000

> <Gold.Chemscore.Lipo.Weighted>
-15.1545

> <Gold.Chemscore.Internal_Hbond.Weighted>
0.0000

> <Gold.Chemscore.DEClash.Weighted>
0.1490

> <Gold.Chemscore.DEInternal.Weighted>
0.3505

> <Gold.Chemscore.Rot.Weighted>
6.1314

> <Gold.Chemscore.Internal.Correction.Weighted>
   9.000000E+99

> <Gold.Protein.RotatedTorsions>
[ 6907 6896 6895 6894 ] final  141.99 input  -60.11 | X-H torsion
[ 7974 7965 7964 7962 ] final  102.31 input  175.53 | X-H torsion
[ 8008 7997 7996 7995 ] final  -32.76 input   59.86 | X-H torsion
[ 10167 10162 10161 10158 ] final  -32.28 input  -65.29 | X-H torsion
[ 10718 10713 10712 10709 ] final  131.72 input   66.30 | X-H torsion
[ 10763 10752 10751 10750 ] final  -48.50 input  -60.55 | X-H torsion
[ 11005 11000 10999 10996 ] final   79.55 input  -57.11 | X-H torsion

> <Gold.Protein.ActiveResidues>
 VAL166  LYS551  ARG553  GLY616  TRP617  ASP618  TYR619  PRO620  LYS621  CYS622 
 ASP623  PHE694  ASN695  SER759  ASP760  ASP761  ALA762  ILE779  LEU786  VAL792 
 PHE793  MET794  SER795  GLU796  ALA797  LYS798  CYS799  TRP800  GLU811  SER814 

> <Gold.Protein.RotatedAtoms>
  152.2242  133.5007  159.5179 H   0  0  0  0  0  0  0  0  0  0  0  0  # atno 6907 bound_to 6896
  150.7020  134.1302  159.4076 H   0  0  0  0  0  0  0  0  0  0  0  0  # atno 6908 bound_to 6896
  151.9223  135.0293  160.0573 H   0  0  0  0  0  0  0  0  0  0  0  0  # atno 6909 bound_to 6896
  145.3608  139.2418  143.3507 H   0  0  0  0  0  0  0  0  0  0  0  0  # atno 7974 bound_to 7965
  154.4170  140.1729  156.1778 H   0  0  0  0  0  0  0  0  0  0  0  0  # atno 8008 bound_to 7997
  155.9707  140.3386  155.6549 H   0  0  0  0  0  0  0  0  0  0  0  0  # atno 8009 bound_to 7997
  155.6629  140.0703  157.2538 H   0  0  0  0  0  0  0  0  0  0  0  0  # atno 8010 bound_to 7997
  140.7224  143.3707  151.1784 H   0  0  0  0  0  0  0  0  0  0  0  0  # atno 10167 bound_to 10162
  157.4940  131.1091  150.9517 H   0  0  0  0  0  0  0  0  0  0  0  0  # atno 10718 bound_to 10713
  154.0787  135.6594  153.4834 H   0  0  0  0  0  0  0  0  0  0  0  0  # atno 10763 bound_to 10752
  153.0364  135.5174  154.7495 H   0  0  0  0  0  0  0  0  0  0  0  0  # atno 10764 bound_to 10752
  154.6583  135.3011  154.9867 H   0  0  0  0  0  0  0  0  0  0  0  0  # atno 10765 bound_to 10752
  139.9168  134.7851  156.1793 H   0  0  0  0  0  0  0  0  0  0  0  0  # atno 11005 bound_to 11000
  146.2928  140.4242  142.8733 LP  0  0  0  0  0  0  0  0  0  0  0  0  # atno 17320 bound_to 7965
  144.8648  140.7190  143.6084 LP  0  0  0  0  0  0  0  0  0  0  0  0  # atno 17321 bound_to 7965
  139.7277  143.9122  152.3008 LP  0  0  0  0  0  0  0  0  0  0  0  0  # atno 17342 bound_to 10162
  139.8900  144.6971  150.8781 LP  0  0  0  0  0  0  0  0  0  0  0  0  # atno 17343 bound_to 10162
  157.0210  130.5674  149.5331 LP  0  0  0  0  0  0  0  0  0  0  0  0  # atno 17370 bound_to 10713
  156.0190  130.5284  150.8220 LP  0  0  0  0  0  0  0  0  0  0  0  0  # atno 17371 bound_to 10713
  141.0652  133.6822  156.2031 LP  0  0  0  0  0  0  0  0  0  0  0  0  # atno 17394 bound_to 11000
  140.6596  134.4981  157.5582 LP  0  0  0  0  0  0  0  0  0  0  0  0  # atno 17395 bound_to 11000

$$$$
