AV-unprocessed.smi:1555|AV-procd|sdf|6267|dock7
  -GOLD-   22720 6453D 1   1.00000     0.00000
 Structure written by MMmdl.
 41 42  0  0  0  0  0  0  0  0  1 V2000
  146.7300  141.8126  156.9635 C   0  0  0  0  0  0  0  0  0  0  0  0
  148.0256  141.0622  156.6174 C   0  0  1  0  0  0  0  0  0  0  0  0
  148.1519  140.8272  155.1001 C   0  0  0  0  0  0  0  0  0  0  0  0
  149.3474  140.0799  154.7551 N   0  0  0  0  0  0  0  0  0  0  0  0
  149.4148  138.7709  154.2955 C   0  0  0  0  0  0  0  0  0  0  0  0
  150.7484  138.4919  154.0993 C   0  0  0  0  0  0  0  0  0  0  0  0
  151.5145  139.6066  154.4315 N   0  0  0  0  0  0  0  0  0  0  0  0
  150.6164  140.5061  154.8120 C   0  0  0  0  0  0  0  0  0  0  0  0
  149.1841  141.8091  157.1015 N   0  0  0  0  0  0  0  0  0  0  0  0
  150.2577  141.2854  157.7168 C   0  0  0  0  0  0  0  0  0  0  0  0
  150.3408  140.0846  157.9785 O   0  0  0  0  0  0  0  0  0  0  0  0
  151.2278  142.1836  158.0232 N   0  0  0  0  0  0  0  0  0  0  0  0
  151.1596  143.6434  157.8402 C   0  0  0  0  0  0  0  0  0  0  0  0
  151.0344  144.3083  159.2223 C   0  0  0  0  0  0  0  0  0  0  0  0
  152.2102  143.9139  160.1436 C   0  0  0  0  0  0  0  0  0  0  0  0
  152.0316  144.5016  161.5553 C   0  0  0  0  0  0  0  0  0  0  0  0
  150.8330  144.0394  162.1422 O   0  0  0  0  0  0  0  0  0  0  0  0
  152.3906  142.3777  160.1657 C   0  0  0  0  0  0  0  0  0  0  0  0
  152.4489  141.7980  158.7405 C   0  0  0  0  0  0  0  0  0  0  0  0
  145.8548  141.2609  156.6193 H   0  0  0  0  0  0  0  0  0  0  0  0
  146.7058  142.7988  156.4989 H   0  0  0  0  0  0  0  0  0  0  0  0
  146.6271  141.9495  158.0406 H   0  0  0  0  0  0  0  0  0  0  0  0
  147.9978  140.0882  157.1099 H   0  0  0  0  0  0  0  0  0  0  0  0
  147.2890  140.2708  154.7317 H   0  0  0  0  0  0  0  0  0  0  0  0
  148.1642  141.7769  154.5630 H   0  0  0  0  0  0  0  0  0  0  0  0
  148.5333  138.1644  154.1478 H   0  0  0  0  0  0  0  0  0  0  0  0
  151.2116  137.5820  153.7477 H   0  0  0  0  0  0  0  0  0  0  0  0
  150.8874  141.5001  155.1362 H   0  0  0  0  0  0  0  0  0  0  0  0
  149.1861  142.8033  156.9264 H   0  0  0  0  0  0  0  0  0  0  0  0
  152.0706  143.9842  157.3459 H   0  0  0  0  0  0  0  0  0  0  0  0
  150.3458  143.9734  157.1946 H   0  0  0  0  0  0  0  0  0  0  0  0
  150.9987  145.3921  159.1067 H   0  0  0  0  0  0  0  0  0  0  0  0
  150.0887  144.0141  159.6800 H   0  0  0  0  0  0  0  0  0  0  0  0
  153.1137  144.3482  159.7120 H   0  0  0  0  0  0  0  0  0  0  0  0
  152.8599  144.2026  162.1984 H   0  0  0  0  0  0  0  0  0  0  0  0
  152.0236  145.5916  161.5257 H   0  0  0  0  0  0  0  0  0  0  0  0
  150.6634  144.5481  162.9203 H   0  0  0  0  0  0  0  0  0  0  0  0
  153.3008  142.1124  160.7042 H   0  0  0  0  0  0  0  0  0  0  0  0
  151.5652  141.9161  160.7094 H   0  0  0  0  0  0  0  0  0  0  0  0
  152.5899  140.7173  158.7868 H   0  0  0  0  0  0  0  0  0  0  0  0
  153.3200  142.1868  158.2114 H   0  0  0  0  0  0  0  0  0  0  0  0
  1  2  1  0  0  0  0
  1 20  1  0  0  0  0
  1 21  1  0  0  0  0
  1 22  1  0  0  0  0
  2  3  1  0  0  0  0
  2  9  1  0  0  0  0
  2 23  1  0  0  0  0
  3  4  1  0  0  0  0
  3 24  1  0  0  0  0
  3 25  1  0  0  0  0
  4  8  1  0  0  0  0
  4  5  1  0  0  0  0
  5  6  2  0  0  0  0
  5 26  1  0  0  0  0
  6  7  1  0  0  0  0
  6 27  1  0  0  0  0
  7  8  2  0  0  0  0
  8 28  1  0  0  0  0
  9 10  1  0  0  0  0
  9 29  1  0  0  0  0
 10 11  2  0  0  0  0
 10 12  1  0  0  0  0
 12 19  1  0  0  0  0
 12 13  1  0  0  0  0
 13 14  1  0  0  0  0
 13 30  1  0  0  0  0
 13 31  1  0  0  0  0
 14 15  1  0  0  0  0
 14 32  1  0  0  0  0
 14 33  1  0  0  0  0
 15 16  1  0  0  0  0
 15 18  1  0  0  0  0
 15 34  1  0  0  0  0
 16 17  1  0  0  0  0
 16 35  1  0  0  0  0
 16 36  1  0  0  0  0
 17 37  1  0  0  0  0
 18 19  1  0  0  0  0
 18 38  1  0  0  0  0
 18 39  1  0  0  0  0
 19 40  1  0  0  0  0
 19 41  1  0  0  0  0
M  END
> <s_m_source_file>
AV-unprocessed.smi

> <i_m_source_file_index>
1555

> <i_lp_mmshare_version>
43012

> <i_f3d_flags>
0

> <s_epik_input>
W2NIXTFuW2NIXVtjSF1uMVtDSDJdW0NAQEhdKFtDSDNdKVtOSF1DKD1PKU4yW0NIMl1bQ0gyXVtDSF0oW0NIMl1bT0hdKVtDSDJdW0NIMl0y

> <s_epik_cmdline>
J2VwaWtfcHl0aG9uJywgJy1waCcsICc3LjAnLCAnLXRuJywgJzgnLCAnLW1hJywgJzIwMCcsICctbWV0YWxfYmluZGluZycsICctaW1hZScsICc8aW5maWxlLm1hZT4nLCAnLW9tYWUnLCAnPG91dGZpbGUubWFlPic=

> <r_lp_tautomer_probability>
1

> <r_epik_Ionization_Penalty>
0.625883

> <r_epik_Ionization_Penalty_Charging>
0.625812

> <r_epik_Ionization_Penalty_Neutral>
7.07114e-05

> <r_epik_State_Penalty>
0.642234

> <r_epik_Charging_Adjusted_Penalty>
1.26805

> <i_epik_Tot_Q>
0

> <i_epik_Tot_abs_Q>
0

> <r_epik_Metal_State_Penalty>
0.307949

> <b_epik_Metal_Only>
0

> <s_lp_Force_Field>
OPLS_2005

> <r_lp_Energy>
32.573

> <b_lp_Chiralities_Consistent>
1

> <s_lp_Variant>
AV-unprocessed.smi:1555-4

> <Gold.Version>
5.8.1

> <Gold.Id.Protein>
6NUR|6NUR_protein|mol2

> <Gold.PLP.Fitness>
44.9917

> <Gold.PLP.PLP>
-37.0930

> <Gold.PLP.part.hbond>
-4.7010

> <Gold.PLP.part.metal>
0.0000

> <Gold.PLP.part.buried>
-2.1897

> <Gold.PLP.part.nonpolar>
-31.3939

> <Gold.PLP.part.repulsive>
0.4378

> <Gold.PLP.ligand.clash>
0.0496

> <Gold.PLP.ligand.torsion>
0.3805

> <Gold.PLP.Chemscore.Hbond>
1.8887

> <Gold.PLP.Chemscore.CHOScore>
1.0000

> <Gold.PLP.Chemscore.Metal>
0.0000

> <Gold.Chemscore.Hbonds>
donor molecule, donor type, donor heavy atom, donor atom, acceptor molecule, acceptor atom, score
      L1  H     9    29       P1  8028  0.29
      P1  H  6933  6945       L1    17  0.04
      L1  C     6    27       P1  7949  0.42

> <Gold.PLP.Chemscore.Internal.Correction>
0.0432

> <Gold.Rescore>
     Score         DG    S(hbond)    S(metal)    S(lipo)     H(rot)  DE(clash)    DE(int)     intcor
      9.93     -12.38       0.99        0.00      85.21       2.49       1.93       0.53       ----

> <Gold.Chemscore.Fitness>
9.9267

> <Gold.Chemscore.DG>
-12.3848

> <Gold.Chemscore.ZeroCoef>
-5.4800

> <Gold.Chemscore.Hbond>
0.9883

> <Gold.Chemscore.Metal>
0.0000

> <Gold.Chemscore.Lipo>
85.2122

> <Gold.Chemscore.Internal_Hbond>
0.0000

> <Gold.Chemscore.DEClash>
1.9329

> <Gold.Chemscore.DEInternal>
0.5251

> <Gold.Chemscore.Rot>
2.4867

> <Gold.Chemscore.Internal.Correction>
   9.000000E+99

> <Gold.Chemscore.Hbonds>
donor molecule, donor type, donor heavy atom, donor atom, acceptor molecule, acceptor atom, score
      L1  H     9    29       P1  8028  0.28
      P1  H  6933  6945       L1    17  0.05

> <Gold.Chemscore.Hbond.Weighted>
-3.3009

> <Gold.Chemscore.Metal.Weighted>
-0.0000

> <Gold.Chemscore.Lipo.Weighted>
-9.9698

> <Gold.Chemscore.Internal_Hbond.Weighted>
0.0000

> <Gold.Chemscore.DEClash.Weighted>
1.9329

> <Gold.Chemscore.DEInternal.Weighted>
0.5251

> <Gold.Chemscore.Rot.Weighted>
6.3660

> <Gold.Chemscore.Internal.Correction.Weighted>
   9.000000E+99

> <Gold.Protein.RotatedTorsions>
[ 6907 6896 6895 6894 ] final   61.04 input  -60.11 | X-H torsion
[ 7974 7965 7964 7962 ] final -134.55 input  175.53 | X-H torsion
[ 8008 7997 7996 7995 ] final  -70.82 input   59.86 | X-H torsion
[ 10167 10162 10161 10158 ] final  -75.62 input  -65.29 | X-H torsion
[ 10718 10713 10712 10709 ] final   -6.46 input   66.30 | X-H torsion
[ 10763 10752 10751 10750 ] final -128.14 input  -60.55 | X-H torsion
[ 11005 11000 10999 10996 ] final  -82.38 input  -57.11 | X-H torsion

> <Gold.Protein.ActiveResidues>
 VAL166  LYS551  ARG553  GLY616  TRP617  ASP618  TYR619  PRO620  LYS621  CYS622 
 ASP623  PHE694  ASN695  SER759  ASP760  ASP761  ALA762  ILE779  LEU786  VAL792 
 PHE793  MET794  SER795  GLU796  ALA797  LYS798  CYS799  TRP800  GLU811  SER814 

> <Gold.Protein.RotatedAtoms>
  152.4055  134.6214  160.0051 H   0  0  0  0  0  0  0  0  0  0  0  0  # atno 6907 bound_to 6896
  151.6407  133.3320  159.3137 H   0  0  0  0  0  0  0  0  0  0  0  0  # atno 6908 bound_to 6896
  150.7950  134.7045  159.6613 H   0  0  0  0  0  0  0  0  0  0  0  0  # atno 6909 bound_to 6896
  144.9093  140.6874  143.5035 H   0  0  0  0  0  0  0  0  0  0  0  0  # atno 7974 bound_to 7965
  154.5041  140.0827  156.7858 H   0  0  0  0  0  0  0  0  0  0  0  0  # atno 8008 bound_to 7997
  155.3935  140.3433  155.4234 H   0  0  0  0  0  0  0  0  0  0  0  0  # atno 8009 bound_to 7997
  156.1493  140.1553  156.8783 H   0  0  0  0  0  0  0  0  0  0  0  0  # atno 8010 bound_to 7997
  140.4927  143.2377  151.7880 H   0  0  0  0  0  0  0  0  0  0  0  0  # atno 10167 bound_to 10162
  156.7315  130.5181  149.5844 H   0  0  0  0  0  0  0  0  0  0  0  0  # atno 10718 bound_to 10713
  154.8755  135.3938  154.3708 H   0  0  0  0  0  0  0  0  0  0  0  0  # atno 10763 bound_to 10752
  153.4468  135.7027  153.6139 H   0  0  0  0  0  0  0  0  0  0  0  0  # atno 10764 bound_to 10752
  153.4696  135.3793  155.2352 H   0  0  0  0  0  0  0  0  0  0  0  0  # atno 10765 bound_to 10752
  141.1663  133.7242  156.8564 H   0  0  0  0  0  0  0  0  0  0  0  0  # atno 11005 bound_to 11000
  145.3482  139.1713  143.4449 LP  0  0  0  0  0  0  0  0  0  0  0  0  # atno 17320 bound_to 7965
  146.3150  140.3531  142.8658 LP  0  0  0  0  0  0  0  0  0  0  0  0  # atno 17321 bound_to 7965
  139.4855  144.4627  151.9521 LP  0  0  0  0  0  0  0  0  0  0  0  0  # atno 17342 bound_to 10162
  140.3714  144.2850  150.5919 LP  0  0  0  0  0  0  0  0  0  0  0  0  # atno 17343 bound_to 10162
  156.1526  130.6320  151.0615 LP  0  0  0  0  0  0  0  0  0  0  0  0  # atno 17370 bound_to 10713
  157.6857  131.0825  150.7250 LP  0  0  0  0  0  0  0  0  0  0  0  0  # atno 17371 bound_to 10713
  140.1880  134.8986  157.3026 LP  0  0  0  0  0  0  0  0  0  0  0  0  # atno 17394 bound_to 11000
  140.2322  134.3896  155.7517 LP  0  0  0  0  0  0  0  0  0  0  0  0  # atno 17395 bound_to 11000

$$$$
