AV-unprocessed.smi:3067|AV-procd|sdf|11696|dock3
  -GOLD-   2272017 93D 1   1.00000     0.00000
 Structure written by MMmdl.
 34 35  0  0  0  0  0  0  0  0  1 V2000
  144.9140  135.2507  151.1394 C   0  0  0  0  0  0  0  0  0  0  0  0
  145.5266  134.3660  152.0642 O   0  0  0  0  0  0  0  0  0  0  0  0
  146.3136  133.3411  151.4639 C   0  0  2  0  0  0  0  0  0  0  0  0
  145.4076  132.2922  150.7845 C   0  0  0  0  0  0  0  0  0  0  0  0
  144.5298  131.5498  151.8061 C   0  0  0  0  0  0  0  0  0  0  0  0
  145.3815  130.9094  152.9126 C   0  0  0  0  0  0  0  0  0  0  0  0
  146.2874  131.9477  153.5934 C   0  0  0  0  0  0  0  0  0  0  0  0
  147.1747  132.6748  152.5648 C   0  0  2  0  0  0  0  0  0  0  0  0
  148.0536  133.6332  153.2271 N   0  0  0  0  0  0  0  0  0  0  0  0
  148.9185  133.2558  154.2659 C   0  0  0  0  0  0  0  0  0  0  0  0
  149.1455  131.9140  154.6524 C   0  0  0  0  0  0  0  0  0  0  0  0
  150.0367  131.6481  155.7096 C   0  0  0  0  0  0  0  0  0  0  0  0
  150.6715  132.7326  156.3500 C   0  0  0  0  0  0  0  0  0  0  0  0
  151.5947  132.4789  157.4429 C   0  0  0  0  0  0  0  0  0  0  0  0
  152.3304  132.2769  158.3130 N   0  0  0  0  0  0  0  0  0  0  0  0
  150.4592  134.0170  155.9912 N   0  0  0  0  0  0  0  0  0  0  0  0
  149.6036  134.2640  154.9765 C   0  0  0  0  0  0  0  0  0  0  0  0
  144.3519  136.0098  151.6834 H   0  0  0  0  0  0  0  0  0  0  0  0
  144.2188  134.7323  150.4795 H   0  0  0  0  0  0  0  0  0  0  0  0
  145.6606  135.7622  150.5306 H   0  0  0  0  0  0  0  0  0  0  0  0
  146.9731  133.7789  150.7133 H   0  0  0  0  0  0  0  0  0  0  0  0
  144.7814  132.7529  150.0212 H   0  0  0  0  0  0  0  0  0  0  0  0
  146.0328  131.5687  150.2596 H   0  0  0  0  0  0  0  0  0  0  0  0
  143.8161  132.2452  152.2498 H   0  0  0  0  0  0  0  0  0  0  0  0
  143.9402  130.7836  151.3020 H   0  0  0  0  0  0  0  0  0  0  0  0
  144.7352  130.4370  153.6530 H   0  0  0  0  0  0  0  0  0  0  0  0
  145.9953  130.1147  152.4866 H   0  0  0  0  0  0  0  0  0  0  0  0
  145.6734  132.6680  154.1362 H   0  0  0  0  0  0  0  0  0  0  0  0
  146.9102  131.4510  154.3382 H   0  0  0  0  0  0  0  0  0  0  0  0
  147.8005  131.9116  152.1025 H   0  0  0  0  0  0  0  0  0  0  0  0
  148.2502  134.4933  152.7353 H   0  0  0  0  0  0  0  0  0  0  0  0
  148.6561  131.0878  154.1601 H   0  0  0  0  0  0  0  0  0  0  0  0
  150.2246  130.6300  156.0191 H   0  0  0  0  0  0  0  0  0  0  0  0
  149.4640  135.3047  154.7222 H   0  0  0  0  0  0  0  0  0  0  0  0
  1  2  1  0  0  0  0
  1 18  1  0  0  0  0
  1 19  1  0  0  0  0
  1 20  1  0  0  0  0
  2  3  1  0  0  0  0
  3  8  1  0  0  0  0
  3  4  1  0  0  0  0
  3 21  1  0  0  0  0
  4  5  1  0  0  0  0
  4 22  1  0  0  0  0
  4 23  1  0  0  0  0
  5  6  1  0  0  0  0
  5 24  1  0  0  0  0
  5 25  1  0  0  0  0
  6  7  1  0  0  0  0
  6 26  1  0  0  0  0
  6 27  1  0  0  0  0
  7  8  1  0  0  0  0
  7 28  1  0  0  0  0
  7 29  1  0  0  0  0
  8  9  1  0  0  0  0
  8 30  1  0  0  0  0
  9 10  1  0  0  0  0
  9 31  1  0  0  0  0
 10 17  1  0  0  0  0
 10 11  2  0  0  0  0
 11 12  1  0  0  0  0
 11 32  1  0  0  0  0
 12 13  2  0  0  0  0
 12 33  1  0  0  0  0
 13 14  1  0  0  0  0
 13 16  1  0  0  0  0
 14 15  3  0  0  0  0
 16 17  2  0  0  0  0
 17 34  1  0  0  0  0
M  END
> <s_m_source_file>
AV-unprocessed.smi

> <i_m_source_file_index>
3067

> <i_lp_mmshare_version>
43012

> <i_f3d_flags>
0

> <s_epik_input>
W0NIM11PW0NAQEhdMVtDSDJdW0NIMl1bQ0gyXVtDSDJdW0NASF0xW05IXWMyW2NIXVtjSF1jKEMjTiluW2NIXTI=

> <s_epik_cmdline>
J2VwaWtfcHl0aG9uJywgJy1waCcsICc3LjAnLCAnLXRuJywgJzgnLCAnLW1hJywgJzIwMCcsICctbWV0YWxfYmluZGluZycsICctaW1hZScsICc8aW5maWxlLm1hZT4nLCAnLW9tYWUnLCAnPG91dGZpbGUubWFlPic=

> <r_lp_tautomer_probability>
1

> <r_epik_Ionization_Penalty>
2.01011e-07

> <r_epik_Ionization_Penalty_Charging>
0

> <r_epik_Ionization_Penalty_Neutral>
2.01011e-07

> <r_epik_State_Penalty>
-0

> <r_epik_Charging_Adjusted_Penalty>
0

> <i_epik_Tot_Q>
0

> <i_epik_Tot_abs_Q>
0

> <r_epik_Metal_State_Penalty>
-0

> <b_epik_Metal_Only>
0

> <s_lp_Force_Field>
OPLS_2005

> <r_lp_Energy>
17.9327

> <b_lp_Chiralities_Consistent>
1

> <s_lp_Variant>
AV-unprocessed.smi:3067-3

> <Gold.Version>
5.8.1

> <Gold.Id.Protein>
6NUR|6NUR_protein|mol2

> <Gold.PLP.Fitness>
42.4986

> <Gold.PLP.PLP>
-34.2363

> <Gold.PLP.part.hbond>
-2.0000

> <Gold.PLP.part.metal>
0.0000

> <Gold.PLP.part.buried>
-2.7542

> <Gold.PLP.part.nonpolar>
-29.4585

> <Gold.PLP.part.repulsive>
0.1990

> <Gold.PLP.ligand.clash>
0.0000

> <Gold.PLP.ligand.torsion>
0.1072

> <Gold.PLP.Chemscore.Hbond>
2.0000

> <Gold.PLP.Chemscore.CHOScore>
0.8216

> <Gold.PLP.Chemscore.Metal>
0.0000

> <Gold.Chemscore.Hbonds>
donor molecule, donor type, donor heavy atom, donor atom, acceptor molecule, acceptor atom, score
      L1  H     9    31       P1  7948  1.00
      P1  H  6896  6908       L1    15  0.70

> <Gold.PLP.Chemscore.Internal.Correction>
0.0117

> <Gold.Rescore>
     Score         DG    S(hbond)    S(metal)    S(lipo)     H(rot)  DE(clash)    DE(int)     intcor
     17.64     -17.81       1.64        0.00      84.76       1.20       0.03       0.14       ----

> <Gold.Chemscore.Fitness>
17.6370

> <Gold.Chemscore.DG>
-17.8082

> <Gold.Chemscore.ZeroCoef>
-5.4800

> <Gold.Chemscore.Hbond>
1.6425

> <Gold.Chemscore.Metal>
0.0000

> <Gold.Chemscore.Lipo>
84.7627

> <Gold.Chemscore.Internal_Hbond>
0.0000

> <Gold.Chemscore.DEClash>
0.0270

> <Gold.Chemscore.DEInternal>
0.1442

> <Gold.Chemscore.Rot>
1.2012

> <Gold.Chemscore.Internal.Correction>
   9.000000E+99

> <Gold.Chemscore.Hbonds>
donor molecule, donor type, donor heavy atom, donor atom, acceptor molecule, acceptor atom, score
      L1  H     9    31       P1  7948  0.32
      P1  H  6896  6908       L1    15  0.07

> <Gold.Chemscore.Hbond.Weighted>
-5.4860

> <Gold.Chemscore.Metal.Weighted>
-0.0000

> <Gold.Chemscore.Lipo.Weighted>
-9.9172

> <Gold.Chemscore.Internal_Hbond.Weighted>
0.0000

> <Gold.Chemscore.DEClash.Weighted>
0.0270

> <Gold.Chemscore.DEInternal.Weighted>
0.1442

> <Gold.Chemscore.Rot.Weighted>
3.0750

> <Gold.Chemscore.Internal.Correction.Weighted>
   9.000000E+99

> <Gold.Protein.RotatedTorsions>
[ 6907 6896 6895 6894 ] final   61.43 input  -60.11 | X-H torsion
[ 7974 7965 7964 7962 ] final  -56.56 input  175.53 | X-H torsion
[ 8008 7997 7996 7995 ] final  -75.26 input   59.86 | X-H torsion
[ 10167 10162 10161 10158 ] final  -86.69 input  -65.29 | X-H torsion
[ 10718 10713 10712 10709 ] final  126.31 input   66.30 | X-H torsion
[ 10763 10752 10751 10750 ] final -105.14 input  -60.55 | X-H torsion
[ 11005 11000 10999 10996 ] final  136.33 input  -57.11 | X-H torsion

> <Gold.Protein.ActiveResidues>
 VAL166  LYS551  ARG553  GLY616  TRP617  ASP618  TYR619  PRO620  LYS621  CYS622 
 ASP623  PHE694  ASN695  SER759  ASP760  ASP761  ALA762  ILE779  LEU786  VAL792 
 PHE793  MET794  SER795  GLU796  ALA797  LYS798  CYS799  TRP800  GLU811  SER814 

> <Gold.Protein.RotatedAtoms>
  152.4087  134.6161  160.0038 H   0  0  0  0  0  0  0  0  0  0  0  0  # atno 6907 bound_to 6896
  151.6345  133.3324  159.3124 H   0  0  0  0  0  0  0  0  0  0  0  0  # atno 6908 bound_to 6896
  150.7980  134.7094  159.6640 H   0  0  0  0  0  0  0  0  0  0  0  0  # atno 6909 bound_to 6896
  145.8612  140.8284  142.9936 H   0  0  0  0  0  0  0  0  0  0  0  0  # atno 7974 bound_to 7965
  154.5401  140.0747  156.8495 H   0  0  0  0  0  0  0  0  0  0  0  0  # atno 8008 bound_to 7997
  155.3198  140.3395  155.4223 H   0  0  0  0  0  0  0  0  0  0  0  0  # atno 8009 bound_to 7997
  156.1866  140.1671  156.8159 H   0  0  0  0  0  0  0  0  0  0  0  0  # atno 8010 bound_to 7997
  140.3917  143.2702  151.9256 H   0  0  0  0  0  0  0  0  0  0  0  0  # atno 10167 bound_to 10162
  157.5430  131.1096  150.8828 H   0  0  0  0  0  0  0  0  0  0  0  0  # atno 10718 bound_to 10713
  154.7926  135.4760  154.0088 H   0  0  0  0  0  0  0  0  0  0  0  0  # atno 10763 bound_to 10752
  153.1654  135.6816  153.8689 H   0  0  0  0  0  0  0  0  0  0  0  0  # atno 10764 bound_to 10752
  153.8289  135.3194  155.3395 H   0  0  0  0  0  0  0  0  0  0  0  0  # atno 10765 bound_to 10752
  140.0039  134.9467  157.0132 H   0  0  0  0  0  0  0  0  0  0  0  0  # atno 11005 bound_to 11000
  144.6726  140.1099  143.7456 LP  0  0  0  0  0  0  0  0  0  0  0  0  # atno 17320 bound_to 7965
  145.9245  139.2567  143.1361 LP  0  0  0  0  0  0  0  0  0  0  0  0  # atno 17321 bound_to 7965
  139.4789  144.5721  151.8071 LP  0  0  0  0  0  0  0  0  0  0  0  0  # atno 17342 bound_to 10162
  140.4833  144.1418  150.5936 LP  0  0  0  0  0  0  0  0  0  0  0  0  # atno 17343 bound_to 10162
  156.9375  130.5372  149.5279 LP  0  0  0  0  0  0  0  0  0  0  0  0  # atno 17370 bound_to 10713
  156.0512  130.5581  150.8993 LP  0  0  0  0  0  0  0  0  0  0  0  0  # atno 17371 bound_to 10713
  140.4677  134.1418  155.7199 LP  0  0  0  0  0  0  0  0  0  0  0  0  # atno 17394 bound_to 11000
  141.1662  133.8698  157.1707 LP  0  0  0  0  0  0  0  0  0  0  0  0  # atno 17395 bound_to 11000

$$$$
