AV-unprocessed.smi:1996|AV-procd|sdf|8085|dock5
  -GOLD-   2272010303D 1   1.00000     0.00000
 Structure written by MMmdl.
 32 33  0  0  0  0  0  0  0  0  2 V2000
  154.1408  139.4996  159.2429 O   0  0  0  0  0  0  0  0  0  0  0  0
  153.8823  139.0868  160.3758 C   0  0  0  0  0  0  0  0  0  0  0  0
  153.9148  139.9306  161.4160 N   0  0  0  0  0  0  0  0  0  0  0  0
  154.2382  141.3489  161.3352 C   0  0  0  0  0  0  0  0  0  0  0  0
  153.0423  142.2012  161.7853 C   0  0  0  0  0  0  0  0  0  0  0  0
  152.5640  143.1620  160.7090 C   0  0  0  0  0  0  0  0  0  0  0  0
  152.2596  144.4457  160.9829 C   0  0  0  0  0  0  0  0  0  0  0  0
  151.7914  145.4521  159.9465 C   0  0  0  0  0  0  0  0  0  0  0  0
  152.0240  144.9631  158.5071 C   0  0  0  0  0  0  0  0  0  0  0  0
  151.6321  143.4884  158.3531 C   0  0  0  0  0  0  0  0  0  0  0  0
  152.4476  142.5901  159.3002 C   0  0  0  0  0  0  0  0  0  0  0  0
  153.5505  137.8190  160.7110 N   0  5  0  0  0  0  0  0  0  0  0  0
  153.8323  136.8080  159.8729 C   0  0  0  0  0  0  0  0  0  0  0  0
  153.3351  135.5723  160.0438 N   0  0  0  0  0  0  0  0  0  0  0  0
  153.7474  134.6774  159.0656 N   0  0  0  0  0  0  0  0  0  0  0  0
  154.5421  135.2665  158.1724 C   0  0  0  0  0  0  0  0  0  0  0  0
  154.8555  136.9679  158.4425 S   0  0  0  0  0  0  0  0  0  0  0  0
  153.6985  139.5575  162.3287 H   0  0  0  0  0  0  0  0  0  0  0  0
  155.1048  141.5565  161.9651 H   0  0  0  0  0  0  0  0  0  0  0  0
  154.5160  141.5934  160.3090 H   0  0  0  0  0  0  0  0  0  0  0  0
  152.2100  141.5580  162.0733 H   0  0  0  0  0  0  0  0  0  0  0  0
  153.3159  142.7666  162.6773 H   0  0  0  0  0  0  0  0  0  0  0  0
  152.3354  144.8112  161.9967 H   0  0  0  0  0  0  0  0  0  0  0  0
  150.7303  145.6388  160.1145 H   0  0  0  0  0  0  0  0  0  0  0  0
  152.3096  146.3982  160.1046 H   0  0  0  0  0  0  0  0  0  0  0  0
  151.4618  145.5818  157.8071 H   0  0  0  0  0  0  0  0  0  0  0  0
  153.0769  145.0817  158.2476 H   0  0  0  0  0  0  0  0  0  0  0  0
  150.5691  143.3759  158.5706 H   0  0  0  0  0  0  0  0  0  0  0  0
  151.7718  143.1640  157.3215 H   0  0  0  0  0  0  0  0  0  0  0  0
  153.4542  142.4572  158.9026 H   0  0  0  0  0  0  0  0  0  0  0  0
  151.9922  141.6003  159.3442 H   0  0  0  0  0  0  0  0  0  0  0  0
  154.9439  134.6972  157.3478 H   0  0  0  0  0  0  0  0  0  0  0  0
  1  2  2  0  0  0  0
  2  3  1  0  0  0  0
  2 12  1  0  0  0  0
  3  4  1  0  0  0  0
  3 18  1  0  0  0  0
  4  5  1  0  0  0  0
  4 19  1  0  0  0  0
  4 20  1  0  0  0  0
  5  6  1  0  0  0  0
  5 21  1  0  0  0  0
  5 22  1  0  0  0  0
  6 11  1  0  0  0  0
  6  7  2  0  0  0  0
  7  8  1  0  0  0  0
  7 23  1  0  0  0  0
  8  9  1  0  0  0  0
  8 24  1  0  0  0  0
  8 25  1  0  0  0  0
  9 10  1  0  0  0  0
  9 26  1  0  0  0  0
  9 27  1  0  0  0  0
 10 11  1  0  0  0  0
 10 28  1  0  0  0  0
 10 29  1  0  0  0  0
 11 30  1  0  0  0  0
 11 31  1  0  0  0  0
 12 13  1  0  0  0  0
 13 17  1  0  0  0  0
 13 14  2  0  0  0  0
 14 15  1  0  0  0  0
 15 16  2  0  0  0  0
 16 17  1  0  0  0  0
 16 32  1  0  0  0  0
M  CHG  1  12  -1
M  END
> <s_m_source_file>
AV-unprocessed.smi

> <i_m_source_file_index>
1996

> <i_lp_mmshare_version>
43012

> <i_f3d_flags>
0

> <s_epik_input>
czFbY0hdbm5jMVtOSF1DKD1PKVtOSF1bQ0gyXVtDSDJdQzI9W0NIXVtDSDJdW0NIMl1bQ0gyXVtDSDJdMg==

> <s_epik_cmdline>
J2VwaWtfcHl0aG9uJywgJy1waCcsICc3LjAnLCAnLXRuJywgJzgnLCAnLW1hJywgJzIwMCcsICctbWV0YWxfYmluZGluZycsICctaW1hZScsICc8aW5maWxlLm1hZT4nLCAnLW9tYWUnLCAnPG91dGZpbGUubWFlPic=

> <r_lp_tautomer_probability>
1

> <r_epik_Ionization_Penalty>
3.56684

> <r_epik_Ionization_Penalty_Charging>
3.52481

> <r_epik_Ionization_Penalty_Neutral>
0.0420339

> <r_epik_State_Penalty>
3.52326

> <r_epik_Charging_Adjusted_Penalty>
7.04807

> <i_epik_Tot_Q>
-1

> <i_epik_Tot_abs_Q>
1

> <r_epik_Metal_State_Penalty>
0.513455

> <b_epik_Metal_Only>
1

> <s_lp_Force_Field>
OPLS_2005

> <r_lp_Energy>
5.58763

> <b_lp_Chiralities_Consistent>
1

> <s_lp_Variant>
AV-unprocessed.smi:1996-2

> <Gold.Version>
5.8.1

> <Gold.Id.Protein>
6NUR|6NUR_protein|mol2

> <Gold.PLP.Fitness>
42.3858

> <Gold.PLP.PLP>
-37.7106

> <Gold.PLP.part.hbond>
-2.5862

> <Gold.PLP.part.metal>
0.0000

> <Gold.PLP.part.buried>
-4.4904

> <Gold.PLP.part.nonpolar>
-30.3564

> <Gold.PLP.part.repulsive>
0.0208

> <Gold.PLP.ligand.clash>
0.0104

> <Gold.PLP.ligand.torsion>
0.6789

> <Gold.PLP.Chemscore.Hbond>
2.0000

> <Gold.PLP.Chemscore.CHOScore>
0.0000

> <Gold.PLP.Chemscore.Metal>
0.0000

> <Gold.Chemscore.Hbonds>
donor molecule, donor type, donor heavy atom, donor atom, acceptor molecule, acceptor atom, score
      P1  H  6896  6909       L1    14  0.05
      P1  H  7997  8008       L1     1  0.62

> <Gold.PLP.Chemscore.Internal.Correction>
0.0434

> <Gold.Rescore>
     Score         DG    S(hbond)    S(metal)    S(lipo)     H(rot)  DE(clash)    DE(int)     intcor
     17.38     -19.43       1.90        0.00      99.78       1.59       0.05       2.00       ----

> <Gold.Chemscore.Fitness>
17.3756

> <Gold.Chemscore.DG>
-19.4262

> <Gold.Chemscore.ZeroCoef>
-5.4800

> <Gold.Chemscore.Hbond>
1.8988

> <Gold.Chemscore.Metal>
0.0000

> <Gold.Chemscore.Lipo>
99.7784

> <Gold.Chemscore.Internal_Hbond>
0.0000

> <Gold.Chemscore.DEClash>
0.0456

> <Gold.Chemscore.DEInternal>
2.0049

> <Gold.Chemscore.Rot>
1.5898

> <Gold.Chemscore.Internal.Correction>
   9.000000E+99

> <Gold.Chemscore.Hbonds>
donor molecule, donor type, donor heavy atom, donor atom, acceptor molecule, acceptor atom, score
      P1  H  7997  8008       L1     1  0.62

> <Gold.Chemscore.Hbond.Weighted>
-6.3419

> <Gold.Chemscore.Metal.Weighted>
-0.0000

> <Gold.Chemscore.Lipo.Weighted>
-11.6741

> <Gold.Chemscore.Internal_Hbond.Weighted>
0.0000

> <Gold.Chemscore.DEClash.Weighted>
0.0456

> <Gold.Chemscore.DEInternal.Weighted>
2.0049

> <Gold.Chemscore.Rot.Weighted>
4.0698

> <Gold.Chemscore.Internal.Correction.Weighted>
   9.000000E+99

> <Gold.Protein.RotatedTorsions>
[ 6907 6896 6895 6894 ] final  165.95 input  -60.11 | X-H torsion
[ 7974 7965 7964 7962 ] final   -5.66 input  175.53 | X-H torsion
[ 8008 7997 7996 7995 ] final -115.99 input   59.86 | X-H torsion
[ 10167 10162 10161 10158 ] final  178.05 input  -65.29 | X-H torsion
[ 10718 10713 10712 10709 ] final  -76.05 input   66.30 | X-H torsion
[ 10763 10752 10751 10750 ] final   74.45 input  -60.55 | X-H torsion
[ 11005 11000 10999 10996 ] final  158.66 input  -57.11 | X-H torsion

> <Gold.Protein.ActiveResidues>
 VAL166  LYS551  ARG553  GLY616  TRP617  ASP618  TYR619  PRO620  LYS621  CYS622 
 ASP623  PHE694  ASN695  SER759  ASP760  ASP761  ALA762  ILE779  LEU786  VAL792 
 PHE793  MET794  SER795  GLU796  ALA797  LYS798  CYS799  TRP800  GLU811  SER814 

> <Gold.Protein.RotatedAtoms>
  151.8864  133.3506  159.3783 H   0  0  0  0  0  0  0  0  0  0  0  0  # atno 6907 bound_to 6896
  150.7114  134.4967  159.5551 H   0  0  0  0  0  0  0  0  0  0  0  0  # atno 6908 bound_to 6896
  152.2529  134.8115  160.0494 H   0  0  0  0  0  0  0  0  0  0  0  0  # atno 6909 bound_to 6896
  146.2348  140.2054  142.8334 H   0  0  0  0  0  0  0  0  0  0  0  0  # atno 7974 bound_to 7965
  155.0608  140.0393  157.2576 H   0  0  0  0  0  0  0  0  0  0  0  0  # atno 8008 bound_to 7997
  154.7061  140.2683  155.6649 H   0  0  0  0  0  0  0  0  0  0  0  0  # atno 8009 bound_to 7997
  156.2775  140.2731  156.1687 H   0  0  0  0  0  0  0  0  0  0  0  0  # atno 8010 bound_to 7997
  139.5278  144.2726  152.0615 H   0  0  0  0  0  0  0  0  0  0  0  0  # atno 10167 bound_to 10162
  156.0187  130.4456  150.3136 H   0  0  0  0  0  0  0  0  0  0  0  0  # atno 10718 bound_to 10713
  153.0588  135.5025  154.8044 H   0  0  0  0  0  0  0  0  0  0  0  0  # atno 10763 bound_to 10752
  154.6849  135.2974  154.9563 H   0  0  0  0  0  0  0  0  0  0  0  0  # atno 10764 bound_to 10752
  154.0337  135.6726  153.4836 H   0  0  0  0  0  0  0  0  0  0  0  0  # atno 10765 bound_to 10752
  140.1887  134.8423  157.2887 H   0  0  0  0  0  0  0  0  0  0  0  0  # atno 11005 bound_to 11000
  144.9749  140.8404  143.5433 LP  0  0  0  0  0  0  0  0  0  0  0  0  # atno 17320 bound_to 7965
  145.2040  139.2238  143.5178 LP  0  0  0  0  0  0  0  0  0  0  0  0  # atno 17321 bound_to 7965
  140.2185  144.4490  150.6353 LP  0  0  0  0  0  0  0  0  0  0  0  0  # atno 17342 bound_to 10162
  140.6434  143.2208  151.6240 LP  0  0  0  0  0  0  0  0  0  0  0  0  # atno 17343 bound_to 10162
  157.1237  131.0253  151.2998 LP  0  0  0  0  0  0  0  0  0  0  0  0  # atno 17370 bound_to 10713
  157.4607  130.7651  149.7233 LP  0  0  0  0  0  0  0  0  0  0  0  0  # atno 17371 bound_to 10713
  140.2184  134.4053  155.7577 LP  0  0  0  0  0  0  0  0  0  0  0  0  # atno 17394 bound_to 11000
  141.2225  133.7153  156.8451 LP  0  0  0  0  0  0  0  0  0  0  0  0  # atno 17395 bound_to 11000

$$$$
