AV-unprocessed.smi:1492|AV-procd|sdf|6043|dock4
  -GOLD-   22720 6153D 1   1.00000     0.00000
 Structure written by MMmdl.
 53 54  0  0  0  0  0  0  0  0  2 V2000
  149.0360  133.0256  156.8801 C   0  0  0  0  0  0  0  0  0  0  0  0
  148.2013  133.1374  155.5930 C   0  0  0  0  0  0  0  0  0  0  0  0
  148.5584  134.3420  154.6637 C   0  0  2  0  0  0  0  0  0  0  0  0
  150.0541  134.2086  154.2784 C   0  0  0  0  0  0  0  0  0  0  0  0
  148.3719  135.6822  155.4458 C   0  0  0  0  0  0  0  0  0  0  0  0
  149.0838  136.7997  154.8335 N   0  0  0  0  0  0  0  0  0  0  0  0
  149.2070  138.0293  155.3539 C   0  0  0  0  0  0  0  0  0  0  0  0
  148.5869  138.4206  156.3417 O   0  0  0  0  0  0  0  0  0  0  0  0
  150.2323  138.9378  154.6776 C   0  0  0  0  0  0  0  0  0  0  0  0
  150.5180  140.2340  155.4355 C   0  0  0  0  0  0  0  0  0  0  0  0
  149.7100  141.3222  155.3614 C   0  0  0  0  0  0  0  0  0  0  0  0
  148.4476  141.3966  154.5203 C   0  0  0  0  0  0  0  0  0  0  0  0
  149.9865  142.4698  156.0829 N   0  0  0  0  0  0  0  0  0  0  0  0
  151.1107  142.4724  156.8915 C   0  0  0  0  0  0  0  0  0  0  0  0
  151.3164  143.7708  157.6407 C   0  0  0  0  0  0  0  0  0  0  0  0
  151.9392  141.4830  157.0335 N   0  0  0  0  0  0  0  0  0  0  0  0
  151.7053  140.2959  156.3212 C   0  0  0  0  0  0  0  0  0  0  0  0
  152.4629  139.3351  156.4497 O   0  0  0  0  0  0  0  0  0  0  0  0
  147.6841  134.3308  153.4310 N   0  3  0  0  0  0  0  0  0  0  0  0
  147.6768  133.0650  152.6417 C   0  0  0  0  0  0  0  0  0  0  0  0
  146.8914  133.2409  151.3305 C   0  0  0  0  0  0  0  0  0  0  0  0
  145.5682  133.6712  151.6118 O   0  0  0  0  0  0  0  0  0  0  0  0
  145.5594  134.9278  152.2720 C   0  0  0  0  0  0  0  0  0  0  0  0
  146.2816  134.8025  153.6226 C   0  0  0  0  0  0  0  0  0  0  0  0
  149.3603  143.2576  155.9964 H   0  0  0  0  0  0  0  0  0  0  0  0
  148.7224  132.1586  157.4617 H   0  0  0  0  0  0  0  0  0  0  0  0
  148.9191  133.9036  157.5153 H   0  0  0  0  0  0  0  0  0  0  0  0
  150.0972  132.9025  156.6666 H   0  0  0  0  0  0  0  0  0  0  0  0
  148.2992  132.1998  155.0461 H   0  0  0  0  0  0  0  0  0  0  0  0
  147.1456  133.1551  155.8597 H   0  0  0  0  0  0  0  0  0  0  0  0
  150.6940  134.2097  155.1613 H   0  0  0  0  0  0  0  0  0  0  0  0
  150.3888  135.0300  153.6452 H   0  0  0  0  0  0  0  0  0  0  0  0
  150.2651  133.2777  153.7533 H   0  0  0  0  0  0  0  0  0  0  0  0
  147.3254  135.9853  155.4539 H   0  0  0  0  0  0  0  0  0  0  0  0
  148.6603  135.5533  156.4901 H   0  0  0  0  0  0  0  0  0  0  0  0
  149.6215  136.5906  154.0045 H   0  0  0  0  0  0  0  0  0  0  0  0
  151.1498  138.3725  154.5098 H   0  0  0  0  0  0  0  0  0  0  0  0
  149.8724  139.1852  153.6787 H   0  0  0  0  0  0  0  0  0  0  0  0
  148.6793  141.2413  153.4663 H   0  0  0  0  0  0  0  0  0  0  0  0
  147.9580  142.3667  154.6151 H   0  0  0  0  0  0  0  0  0  0  0  0
  147.7354  140.6336  154.8347 H   0  0  0  0  0  0  0  0  0  0  0  0
  152.2728  143.7716  158.1653 H   0  0  0  0  0  0  0  0  0  0  0  0
  150.5236  143.9133  158.3756 H   0  0  0  0  0  0  0  0  0  0  0  0
  151.3068  144.6157  156.9513 H   0  0  0  0  0  0  0  0  0  0  0  0
  148.6823  132.7539  152.3668 H   0  0  0  0  0  0  0  0  0  0  0  0
  147.2354  132.2584  153.2277 H   0  0  0  0  0  0  0  0  0  0  0  0
  147.3882  133.9559  150.6728 H   0  0  0  0  0  0  0  0  0  0  0  0
  146.8457  132.2943  150.7918 H   0  0  0  0  0  0  0  0  0  0  0  0
  146.0281  135.6898  151.6469 H   0  0  0  0  0  0  0  0  0  0  0  0
  144.5253  135.2363  152.4274 H   0  0  0  0  0  0  0  0  0  0  0  0
  145.7310  134.1081  154.2575 H   0  0  0  0  0  0  0  0  0  0  0  0
  146.2439  135.7776  154.1028 H   0  0  0  0  0  0  0  0  0  0  0  0
  148.1083  135.0137  152.8194 H   0  0  0  0  0  0  0  0  0  0  0  0
  1  2  1  0  0  0  0
  1 26  1  0  0  0  0
  1 27  1  0  0  0  0
  1 28  1  0  0  0  0
  2  3  1  0  0  0  0
  2 29  1  0  0  0  0
  2 30  1  0  0  0  0
  3  4  1  0  0  0  0
  3  5  1  0  0  0  0
  3 19  1  0  0  0  0
  4 31  1  0  0  0  0
  4 32  1  0  0  0  0
  4 33  1  0  0  0  0
  5  6  1  0  0  0  0
  5 34  1  0  0  0  0
  5 35  1  0  0  0  0
  6  7  1  0  0  0  0
  6 36  1  0  0  0  0
  7  8  2  0  0  0  0
  7  9  1  0  0  0  0
  9 37  1  0  0  0  0
  9 38  1  0  0  0  0
  9 10  1  0  0  0  0
 10 17  1  0  0  0  0
 10 11  2  0  0  0  0
 11 12  1  0  0  0  0
 11 13  1  0  0  0  0
 12 39  1  0  0  0  0
 12 40  1  0  0  0  0
 12 41  1  0  0  0  0
 13 25  1  0  0  0  0
 13 14  1  0  0  0  0
 14 15  1  0  0  0  0
 14 16  2  0  0  0  0
 15 42  1  0  0  0  0
 15 43  1  0  0  0  0
 15 44  1  0  0  0  0
 16 17  1  0  0  0  0
 17 18  2  0  0  0  0
 19 24  1  0  0  0  0
 19 20  1  0  0  0  0
 19 53  1  0  0  0  0
 20 21  1  0  0  0  0
 20 45  1  0  0  0  0
 20 46  1  0  0  0  0
 21 22  1  0  0  0  0
 21 47  1  0  0  0  0
 21 48  1  0  0  0  0
 22 23  1  0  0  0  0
 23 24  1  0  0  0  0
 23 49  1  0  0  0  0
 23 50  1  0  0  0  0
 24 51  1  0  0  0  0
 24 52  1  0  0  0  0
M  CHG  1  19   1
M  END
> <s_m_source_file>
AV-unprocessed.smi

> <i_m_source_file_index>
1492

> <i_lp_mmshare_version>
43012

> <i_f3d_flags>
0

> <s_epik_input>
W0NIMl0xW0NIMl1PW0NIMl1bQ0gyXU4xW0NAQF0oW0NIM10pKFtDSDJdW0NIM10pW0NIMl1bTkhdQyg9TylbQ0gyXWMyYyhbQ0gzXSluYyhbQ0gzXSlbbkhdYzI9Tw==

> <s_epik_cmdline>
J2VwaWtfcHl0aG9uJywgJy1waCcsICc3LjAnLCAnLXRuJywgJzgnLCAnLW1hJywgJzIwMCcsICctbWV0YWxfYmluZGluZycsICctaW1hZScsICc8aW5maWxlLm1hZT4nLCAnLW9tYWUnLCAnPG91dGZpbGUubWFlPic=

> <r_lp_tautomer_probability>
0.156392

> <r_epik_Ionization_Penalty>
0.523233

> <r_epik_Ionization_Penalty_Charging>
0.523147

> <r_epik_Ionization_Penalty_Neutral>
8.52784e-05

> <r_epik_State_Penalty>
1.66677

> <r_epik_Charging_Adjusted_Penalty>
2.18991

> <i_epik_Tot_Q>
1

> <i_epik_Tot_abs_Q>
1

> <r_epik_Metal_State_Penalty>
1.84524

> <b_epik_Metal_Only>
0

> <s_lp_Force_Field>
OPLS_2005

> <r_lp_Energy>
32.5308

> <b_lp_Chiralities_Consistent>
1

> <s_lp_Variant>
AV-unprocessed.smi:1492-8

> <Gold.Version>
5.8.1

> <Gold.Id.Protein>
6NUR|6NUR_protein|mol2

> <Gold.PLP.Fitness>
44.3014

> <Gold.PLP.PLP>
-33.0560

> <Gold.PLP.part.hbond>
-3.9108

> <Gold.PLP.part.metal>
0.0000

> <Gold.PLP.part.buried>
-2.3421

> <Gold.PLP.part.nonpolar>
-27.8160

> <Gold.PLP.part.repulsive>
0.2624

> <Gold.PLP.ligand.clash>
0.0000

> <Gold.PLP.ligand.torsion>
0.8221

> <Gold.PLP.Chemscore.Hbond>
4.1499

> <Gold.PLP.Chemscore.CHOScore>
0.0000

> <Gold.PLP.Chemscore.Metal>
0.0000

> <Gold.Chemscore.Hbonds>
donor molecule, donor type, donor heavy atom, donor atom, acceptor molecule, acceptor atom, score
      L1  H     6    36       P1  7948  0.30
      L1  H    13    25       P1  8028  1.00
      L1  H    19    53       P1  7948  2.00
      P1  H  7997  8008       L1    18  0.99

> <Gold.PLP.Chemscore.Internal.Correction>
0.4401

> <Gold.Rescore>
     Score         DG    S(hbond)    S(metal)    S(lipo)     H(rot)  DE(clash)    DE(int)     intcor
     16.15     -17.99       2.80        0.00      74.86       2.19       1.09       0.74       ----

> <Gold.Chemscore.Fitness>
16.1479

> <Gold.Chemscore.DG>
-17.9861

> <Gold.Chemscore.ZeroCoef>
-5.4800

> <Gold.Chemscore.Hbond>
2.8024

> <Gold.Chemscore.Metal>
0.0000

> <Gold.Chemscore.Lipo>
74.8649

> <Gold.Chemscore.Internal_Hbond>
0.0000

> <Gold.Chemscore.DEClash>
1.0941

> <Gold.Chemscore.DEInternal>
0.7442

> <Gold.Chemscore.Rot>
2.1926

> <Gold.Chemscore.Internal.Correction>
   9.000000E+99

> <Gold.Chemscore.Hbonds>
donor molecule, donor type, donor heavy atom, donor atom, acceptor molecule, acceptor atom, score
      L1  H     6    36       P1  7948  0.22
      L1  H    13    25       P1  8028  0.97
      L1  H    19    53       P1  7948  0.91
      P1  H  7997  8008       L1    18  0.56

> <Gold.Chemscore.Hbond.Weighted>
-9.3599

> <Gold.Chemscore.Metal.Weighted>
-0.0000

> <Gold.Chemscore.Lipo.Weighted>
-8.7592

> <Gold.Chemscore.Internal_Hbond.Weighted>
0.0000

> <Gold.Chemscore.DEClash.Weighted>
1.0941

> <Gold.Chemscore.DEInternal.Weighted>
0.7442

> <Gold.Chemscore.Rot.Weighted>
5.6129

> <Gold.Chemscore.Internal.Correction.Weighted>
   9.000000E+99

> <Gold.Protein.RotatedTorsions>
[ 6907 6896 6895 6894 ] final -151.80 input  -60.11 | X-H torsion
[ 7974 7965 7964 7962 ] final  133.25 input  175.53 | X-H torsion
[ 8008 7997 7996 7995 ] final  -54.18 input   59.86 | X-H torsion
[ 10167 10162 10161 10158 ] final  174.24 input  -65.29 | X-H torsion
[ 10718 10713 10712 10709 ] final -106.34 input   66.30 | X-H torsion
[ 10763 10752 10751 10750 ] final  -41.16 input  -60.55 | X-H torsion
[ 11005 11000 10999 10996 ] final  -24.82 input  -57.11 | X-H torsion

> <Gold.Protein.ActiveResidues>
 VAL166  LYS551  ARG553  GLY616  TRP617  ASP618  TYR619  PRO620  LYS621  CYS622 
 ASP623  PHE694  ASN695  SER759  ASP760  ASP761  ALA762  ILE779  LEU786  VAL792 
 PHE793  MET794  SER795  GLU796  ALA797  LYS798  CYS799  TRP800  GLU811  SER814 

> <Gold.Protein.RotatedAtoms>
  151.2183  133.4516  159.2599 H   0  0  0  0  0  0  0  0  0  0  0  0  # atno 6907 bound_to 6896
  151.0909  134.9915  159.8412 H   0  0  0  0  0  0  0  0  0  0  0  0  # atno 6908 bound_to 6896
  152.5434  134.2117  159.8805 H   0  0  0  0  0  0  0  0  0  0  0  0  # atno 6909 bound_to 6896
  144.9884  139.4432  143.5351 H   0  0  0  0  0  0  0  0  0  0  0  0  # atno 7974 bound_to 7965
  154.4155  140.1182  156.5274 H   0  0  0  0  0  0  0  0  0  0  0  0  # atno 8008 bound_to 7997
  155.6641  140.3496  155.4774 H   0  0  0  0  0  0  0  0  0  0  0  0  # atno 8009 bound_to 7997
  155.9688  140.1137  157.0820 H   0  0  0  0  0  0  0  0  0  0  0  0  # atno 8010 bound_to 7997
  139.5135  144.3169  152.0239 H   0  0  0  0  0  0  0  0  0  0  0  0  # atno 10167 bound_to 10162
  156.0386  130.5608  150.7667 H   0  0  0  0  0  0  0  0  0  0  0  0  # atno 10718 bound_to 10713
  153.9578  135.6743  153.4745 H   0  0  0  0  0  0  0  0  0  0  0  0  # atno 10763 bound_to 10752
  153.0853  135.4902  154.8580 H   0  0  0  0  0  0  0  0  0  0  0  0  # atno 10764 bound_to 10752
  154.7289  135.3134  154.8884 H   0  0  0  0  0  0  0  0  0  0  0  0  # atno 10765 bound_to 10752
  140.8881  133.7607  156.0386 H   0  0  0  0  0  0  0  0  0  0  0  0  # atno 11005 bound_to 11000
  146.3425  139.9201  142.8768 LP  0  0  0  0  0  0  0  0  0  0  0  0  # atno 17320 bound_to 7965
  145.2320  140.9977  143.3985 LP  0  0  0  0  0  0  0  0  0  0  0  0  # atno 17321 bound_to 7965
  140.2612  144.4065  150.6185 LP  0  0  0  0  0  0  0  0  0  0  0  0  # atno 17342 bound_to 10162
  140.6156  143.2172  151.6799 LP  0  0  0  0  0  0  0  0  0  0  0  0  # atno 17343 bound_to 10162
  157.5172  131.0929  151.0124 LP  0  0  0  0  0  0  0  0  0  0  0  0  # atno 17370 bound_to 10713
  157.0464  130.5769  149.5363 LP  0  0  0  0  0  0  0  0  0  0  0  0  # atno 17371 bound_to 10713
  140.8380  134.3100  157.5324 LP  0  0  0  0  0  0  0  0  0  0  0  0  # atno 17394 bound_to 11000
  139.8726  134.9400  156.3758 LP  0  0  0  0  0  0  0  0  0  0  0  0  # atno 17395 bound_to 11000

$$$$
