AV-unprocessed.smi:2881|AV-procd|sdf|11068|dock1
  -GOLD-   2272015543D 1   1.00000     0.00000
 Structure written by MMmdl.
 40 42  0  0  0  0  0  0  0  0  1 V2000
  138.9694  138.8455  153.0011 C   0  0  0  0  0  0  0  0  0  0  0  0
  139.7770  137.7549  153.6411 C   0  0  0  0  0  0  0  0  0  0  0  0
  141.0114  137.1965  153.1964 C   0  0  0  0  0  0  0  0  0  0  0  0
  141.3100  136.2468  154.1333 C   0  0  0  0  0  0  0  0  0  0  0  0
  142.4647  135.3049  154.2519 C   0  0  0  0  0  0  0  0  0  0  0  0
  143.2412  135.2245  152.9383 C   0  0  0  0  0  0  0  0  0  0  0  0
  143.4383  136.2430  152.2759 O   0  0  0  0  0  0  0  0  0  0  0  0
  143.6780  134.0094  152.5747 N   0  0  0  0  0  0  0  0  0  0  0  0
  144.4373  133.7231  151.3599 C   0  0  1  0  0  0  0  0  0  0  0  0
  145.8893  133.2561  151.6355 C   0  0  1  0  0  0  0  0  0  0  0  0
  145.9276  132.0935  152.6508 C   0  0  0  0  0  0  0  0  0  0  0  0
  145.3223  130.9268  151.8484 C   0  0  0  0  0  0  0  0  0  0  0  0
  145.0462  131.5654  150.4730 C   0  0  2  0  0  0  0  0  0  0  0  0
  146.2242  132.5244  150.3423 C   0  0  0  0  0  0  0  0  0  0  0  0
  143.8344  132.5221  150.5861 C   0  0  2  0  0  0  0  0  0  0  0  0
  143.2378  132.9319  149.2253 C   0  0  0  0  0  0  0  0  0  0  0  0
  142.6309  131.8212  148.5994 O   0  0  0  0  0  0  0  0  0  0  0  0
  140.2848  136.2791  155.0515 N   0  0  0  0  0  0  0  0  0  0  0  0
  139.3436  137.1964  154.7615 N   0  0  0  0  0  0  0  0  0  0  0  0
  140.2178  135.6914  155.8706 H   0  0  0  0  0  0  0  0  0  0  0  0
  139.5190  139.3155  152.1853 H   0  0  0  0  0  0  0  0  0  0  0  0
  138.7167  139.6241  153.7213 H   0  0  0  0  0  0  0  0  0  0  0  0
  138.0380  138.4540  152.5916 H   0  0  0  0  0  0  0  0  0  0  0  0
  141.5896  137.4555  152.3218 H   0  0  0  0  0  0  0  0  0  0  0  0
  142.1109  134.3107  154.5282 H   0  0  0  0  0  0  0  0  0  0  0  0
  143.1343  135.6282  155.0500 H   0  0  0  0  0  0  0  0  0  0  0  0
  143.4699  133.2276  153.1788 H   0  0  0  0  0  0  0  0  0  0  0  0
  144.4544  134.6107  150.7239 H   0  0  0  0  0  0  0  0  0  0  0  0
  146.5685  134.0720  151.8850 H   0  0  0  0  0  0  0  0  0  0  0  0
  146.9572  131.8657  152.9296 H   0  0  0  0  0  0  0  0  0  0  0  0
  145.3815  132.2992  153.5715 H   0  0  0  0  0  0  0  0  0  0  0  0
  146.0404  130.1105  151.7610 H   0  0  0  0  0  0  0  0  0  0  0  0
  144.4192  130.5272  152.3108 H   0  0  0  0  0  0  0  0  0  0  0  0
  144.9610  130.8319  149.6707 H   0  0  0  0  0  0  0  0  0  0  0  0
  146.1767  133.1627  149.4591 H   0  0  0  0  0  0  0  0  0  0  0  0
  147.1940  132.0240  150.3653 H   0  0  0  0  0  0  0  0  0  0  0  0
  143.0441  132.0446  151.1688 H   0  0  0  0  0  0  0  0  0  0  0  0
  142.4778  133.7011  149.3657 H   0  0  0  0  0  0  0  0  0  0  0  0
  143.9972  133.3480  148.5633 H   0  0  0  0  0  0  0  0  0  0  0  0
  141.7528  131.7286  148.9364 H   0  0  0  0  0  0  0  0  0  0  0  0
  1 21  1  0  0  0  0
  1 22  1  0  0  0  0
  1 23  1  0  0  0  0
  1  2  1  0  0  0  0
  2 19  2  0  0  0  0
  2  3  1  0  0  0  0
  3  4  2  0  0  0  0
  3 24  1  0  0  0  0
  4 18  1  0  0  0  0
  4  5  1  0  0  0  0
  5  6  1  0  0  0  0
  5 25  1  0  0  0  0
  5 26  1  0  0  0  0
  6  7  2  0  0  0  0
  6  8  1  0  0  0  0
  8  9  1  0  0  0  0
  8 27  1  0  0  0  0
  9 15  1  0  0  0  0
  9 10  1  0  0  0  0
  9 28  1  0  0  0  0
 10 14  1  0  0  0  0
 10 11  1  0  0  0  0
 10 29  1  0  0  0  0
 11 12  1  0  0  0  0
 11 30  1  0  0  0  0
 11 31  1  0  0  0  0
 12 13  1  0  0  0  0
 12 32  1  0  0  0  0
 12 33  1  0  0  0  0
 13 14  1  0  0  0  0
 13 15  1  0  0  0  0
 13 34  1  0  0  0  0
 14 35  1  0  0  0  0
 14 36  1  0  0  0  0
 15 16  1  0  0  0  0
 15 37  1  0  0  0  0
 16 17  1  0  0  0  0
 16 38  1  0  0  0  0
 16 39  1  0  0  0  0
 17 40  1  0  0  0  0
 18 19  1  0  0  0  0
 18 20  1  0  0  0  0
M  END
> <s_m_source_file>
AV-unprocessed.smi

> <i_m_source_file_index>
2881

> <i_lp_mmshare_version>
43012

> <i_f3d_flags>
0

> <s_epik_input>
W0NIM11jMVtjSF1jKG5bbkhdMSlbQ0gyXUMoPU8pW05IXVtDQEhdKFtDQEBIXTIzKVtDQEhdKFtDSDJdW09IXSlbQ0BASF0oW0NIMl0zKVtDSDJdW0NIMl0y

> <s_epik_cmdline>
J2VwaWtfcHl0aG9uJywgJy1waCcsICc3LjAnLCAnLXRuJywgJzgnLCAnLW1hJywgJzIwMCcsICctbWV0YWxfYmluZGluZycsICctaW1hZScsICc8aW5maWxlLm1hZT4nLCAnLW9tYWUnLCAnPG91dGZpbGUubWFlPic=

> <r_lp_tautomer_probability>
0.5

> <r_epik_Ionization_Penalty>
0.00013396

> <r_epik_Ionization_Penalty_Charging>
0

> <r_epik_Ionization_Penalty_Neutral>
0.00013396

> <r_epik_State_Penalty>
0.41068

> <r_epik_Charging_Adjusted_Penalty>
0.41068

> <i_epik_Tot_Q>
0

> <i_epik_Tot_abs_Q>
0

> <r_epik_Metal_State_Penalty>
0.41066

> <b_epik_Metal_Only>
0

> <s_lp_Force_Field>
OPLS_2005

> <r_lp_Energy>
46.8949

> <b_lp_Chiralities_Consistent>
1

> <s_lp_Variant>
AV-unprocessed.smi:2881-14

> <Gold.Version>
5.8.1

> <Gold.Id.Protein>
6NUR|6NUR_protein|mol2

> <Gold.PLP.Fitness>
43.1995

> <Gold.PLP.PLP>
-35.2465

> <Gold.PLP.part.hbond>
-3.6154

> <Gold.PLP.part.metal>
0.0000

> <Gold.PLP.part.buried>
-3.6975

> <Gold.PLP.part.nonpolar>
-29.2740

> <Gold.PLP.part.repulsive>
0.2998

> <Gold.PLP.ligand.clash>
0.0000

> <Gold.PLP.ligand.torsion>
0.5585

> <Gold.PLP.Chemscore.Hbond>
3.0050

> <Gold.PLP.Chemscore.CHOScore>
0.0000

> <Gold.PLP.Chemscore.Metal>
0.0000

> <Gold.Chemscore.Hbonds>
donor molecule, donor type, donor heavy atom, donor atom, acceptor molecule, acceptor atom, score
      L1  H     8    27       P1 10957  0.31
      L1  H    17    40       P1 10952  0.69
      L1  H    18    20       P1 11000  1.00
      P1  H 10785 10796       L1    17  0.99

> <Gold.PLP.Chemscore.Internal.Correction>
0.0549

> <Gold.Rescore>
     Score         DG    S(hbond)    S(metal)    S(lipo)     H(rot)  DE(clash)    DE(int)     intcor
     17.06     -19.49       2.62        0.00      94.61       2.28       0.51       1.91       ----

> <Gold.Chemscore.Fitness>
17.0649

> <Gold.Chemscore.DG>
-19.4859

> <Gold.Chemscore.ZeroCoef>
-5.4800

> <Gold.Chemscore.Hbond>
2.6233

> <Gold.Chemscore.Metal>
0.0000

> <Gold.Chemscore.Lipo>
94.6088

> <Gold.Chemscore.Internal_Hbond>
0.0000

> <Gold.Chemscore.DEClash>
0.5093

> <Gold.Chemscore.DEInternal>
1.9116

> <Gold.Chemscore.Rot>
2.2755

> <Gold.Chemscore.Internal.Correction>
   9.000000E+99

> <Gold.Chemscore.Hbonds>
donor molecule, donor type, donor heavy atom, donor atom, acceptor molecule, acceptor atom, score
      L1  H     8    27       P1 10957  0.26
      L1  H    17    40       P1 10952  0.70
      L1  H    18    20       P1 11000  0.90
      P1  H 10785 10796       L1    17  0.24

> <Gold.Chemscore.Hbond.Weighted>
-8.7618

> <Gold.Chemscore.Metal.Weighted>
-0.0000

> <Gold.Chemscore.Lipo.Weighted>
-11.0692

> <Gold.Chemscore.Internal_Hbond.Weighted>
0.0000

> <Gold.Chemscore.DEClash.Weighted>
0.5093

> <Gold.Chemscore.DEInternal.Weighted>
1.9116

> <Gold.Chemscore.Rot.Weighted>
5.8252

> <Gold.Chemscore.Internal.Correction.Weighted>
   9.000000E+99

> <Gold.Protein.RotatedTorsions>
[ 6907 6896 6895 6894 ] final  -13.62 input  -60.11 | X-H torsion
[ 7974 7965 7964 7962 ] final   22.28 input  175.53 | X-H torsion
[ 8008 7997 7996 7995 ] final    3.06 input   59.86 | X-H torsion
[ 10167 10162 10161 10158 ] final   29.31 input  -65.29 | X-H torsion
[ 10718 10713 10712 10709 ] final  -81.81 input   66.30 | X-H torsion
[ 10763 10752 10751 10750 ] final -108.42 input  -60.55 | X-H torsion
[ 11005 11000 10999 10996 ] final  -73.34 input  -57.11 | X-H torsion

> <Gold.Protein.ActiveResidues>
 VAL166  LYS551  ARG553  GLY616  TRP617  ASP618  TYR619  PRO620  LYS621  CYS622 
 ASP623  PHE694  ASN695  SER759  ASP760  ASP761  ALA762  ILE779  LEU786  VAL792 
 PHE793  MET794  SER795  GLU796  ALA797  LYS798  CYS799  TRP800  GLU811  SER814 

> <Gold.Protein.RotatedAtoms>
  151.3521  135.0886  159.9406 H   0  0  0  0  0  0  0  0  0  0  0  0  # atno 6907 bound_to 6896
  152.5184  133.9342  159.7605 H   0  0  0  0  0  0  0  0  0  0  0  0  # atno 6908 bound_to 6896
  150.9719  133.6281  159.2766 H   0  0  0  0  0  0  0  0  0  0  0  0  # atno 6909 bound_to 6896
  146.2035  139.7907  142.8743 H   0  0  0  0  0  0  0  0  0  0  0  0  # atno 7974 bound_to 7965
  154.6991  140.2669  155.6737 H   0  0  0  0  0  0  0  0  0  0  0  0  # atno 8008 bound_to 7997
  156.2759  140.2775  156.1520 H   0  0  0  0  0  0  0  0  0  0  0  0  # atno 8009 bound_to 7997
  155.0789  140.0372  157.2623 H   0  0  0  0  0  0  0  0  0  0  0  0  # atno 8010 bound_to 7997
  140.4777  144.0664  150.6256 H   0  0  0  0  0  0  0  0  0  0  0  0  # atno 10167 bound_to 10162
  156.0044  130.4615  150.4009 H   0  0  0  0  0  0  0  0  0  0  0  0  # atno 10718 bound_to 10713
  154.8134  135.4638  154.0578 H   0  0  0  0  0  0  0  0  0  0  0  0  # atno 10763 bound_to 10752
  153.1990  135.6866  153.8262 H   0  0  0  0  0  0  0  0  0  0  0  0  # atno 10764 bound_to 10752
  153.7753  135.3264  155.3335 H   0  0  0  0  0  0  0  0  0  0  0  0  # atno 10765 bound_to 10752
  141.1621  133.6875  156.7196 H   0  0  0  0  0  0  0  0  0  0  0  0  # atno 11005 bound_to 11000
  145.3401  141.0286  143.3397 LP  0  0  0  0  0  0  0  0  0  0  0  0  # atno 17320 bound_to 7965
  144.8738  139.5000  143.6755 LP  0  0  0  0  0  0  0  0  0  0  0  0  # atno 17321 bound_to 7965
  140.3897  143.2759  152.0074 LP  0  0  0  0  0  0  0  0  0  0  0  0  # atno 17342 bound_to 10162
  139.4828  144.6087  151.7473 LP  0  0  0  0  0  0  0  0  0  0  0  0  # atno 17343 bound_to 10162
  157.2078  131.0453  151.2615 LP  0  0  0  0  0  0  0  0  0  0  0  0  # atno 17370 bound_to 10713
  157.3916  130.7285  149.6702 LP  0  0  0  0  0  0  0  0  0  0  0  0  # atno 17371 bound_to 10713
  140.2826  134.8305  157.3946 LP  0  0  0  0  0  0  0  0  0  0  0  0  # atno 17394 bound_to 11000
  140.1419  134.4960  155.8025 LP  0  0  0  0  0  0  0  0  0  0  0  0  # atno 17395 bound_to 11000

$$$$
