AV-unprocessed.smi:1206|AV-procd|sdf|5048|dock7
  -GOLD-   22720 4 73D 1   1.00000     0.00000
 Structure written by MMmdl.
 40 41  0  0  0  0  0  0  0  0  3 V2000
  146.0290  137.7797  152.3366 C   0  0  0  0  0  0  0  0  0  0  0  0
  146.2828  139.2436  152.3814 N   0  3  0  0  0  0  0  0  0  0  0  0
  146.8416  139.7060  151.0859 C   0  0  0  0  0  0  0  0  0  0  0  0
  146.9612  139.7448  153.6360 C   0  0  0  0  0  0  0  0  0  0  0  0
  146.1449  139.2257  154.8629 C   0  0  0  0  0  0  0  0  0  0  0  0
  144.6993  139.3638  154.6807 N   0  0  0  0  0  0  0  0  0  0  0  0
  143.7499  138.5462  155.1575 C   0  0  0  0  0  0  0  0  0  0  0  0
  144.0599  137.5879  155.8680 O   0  0  0  0  0  0  0  0  0  0  0  0
  142.5014  138.8783  154.7635 N   0  5  0  0  0  0  0  0  0  0  0  0
  141.6337  137.9162  154.4084 C   0  0  0  0  0  0  0  0  0  0  0  0
  141.7328  136.6576  154.8652 N   0  0  0  0  0  0  0  0  0  0  0  0
  140.7374  135.8207  154.3790 N   0  0  0  0  0  0  0  0  0  0  0  0
  139.9152  136.4708  153.5556 C   0  0  0  0  0  0  0  0  0  0  0  0
  140.2819  138.1638  153.2999 S   0  0  0  0  0  0  0  0  0  0  0  0
  148.4318  139.2340  153.7148 C   0  0  0  0  0  0  0  0  0  0  0  0
  149.2355  139.8165  154.8939 C   0  0  0  0  0  0  0  0  0  0  0  0
  149.2199  141.3505  154.8938 C   0  0  0  0  0  0  0  0  0  0  0  0
  147.7846  141.8915  154.8658 C   0  0  0  0  0  0  0  0  0  0  0  0
  147.0035  141.3098  153.6733 C   0  0  0  0  0  0  0  0  0  0  0  0
  146.9445  137.2245  152.1299 H   0  0  0  0  0  0  0  0  0  0  0  0
  145.3173  137.5483  151.5437 H   0  0  0  0  0  0  0  0  0  0  0  0
  145.6025  137.3992  153.2629 H   0  0  0  0  0  0  0  0  0  0  0  0
  147.8970  139.4482  150.9931 H   0  0  0  0  0  0  0  0  0  0  0  0
  146.7248  140.7821  150.9581 H   0  0  0  0  0  0  0  0  0  0  0  0
  146.3114  139.2452  150.2518 H   0  0  0  0  0  0  0  0  0  0  0  0
  146.4012  138.1930  155.0994 H   0  0  0  0  0  0  0  0  0  0  0  0
  146.3965  139.7718  155.7692 H   0  0  0  0  0  0  0  0  0  0  0  0
  144.3887  140.1406  154.1150 H   0  0  0  0  0  0  0  0  0  0  0  0
  139.0900  135.9498  153.0938 H   0  0  0  0  0  0  0  0  0  0  0  0
  148.4609  138.1474  153.7965 H   0  0  0  0  0  0  0  0  0  0  0  0
  148.9532  139.4823  152.7894 H   0  0  0  0  0  0  0  0  0  0  0  0
  148.8408  139.4442  155.8394 H   0  0  0  0  0  0  0  0  0  0  0  0
  150.2657  139.4628  154.8419 H   0  0  0  0  0  0  0  0  0  0  0  0
  149.7452  141.7299  155.7706 H   0  0  0  0  0  0  0  0  0  0  0  0
  149.7651  141.7182  154.0236 H   0  0  0  0  0  0  0  0  0  0  0  0
  147.2799  141.6747  155.8068 H   0  0  0  0  0  0  0  0  0  0  0  0
  147.8092  142.9788  154.7886 H   0  0  0  0  0  0  0  0  0  0  0  0
  147.5032  141.6997  152.7868 H   0  0  0  0  0  0  0  0  0  0  0  0
  145.9959  141.7264  153.6573 H   0  0  0  0  0  0  0  0  0  0  0  0
  145.3633  139.6623  152.4199 H   0  0  0  0  0  0  0  0  0  0  0  0
  1  2  1  0  0  0  0
  1 20  1  0  0  0  0
  1 21  1  0  0  0  0
  1 22  1  0  0  0  0
  2  3  1  0  0  0  0
  2  4  1  0  0  0  0
  2 40  1  0  0  0  0
  3 23  1  0  0  0  0
  3 24  1  0  0  0  0
  3 25  1  0  0  0  0
  4 19  1  0  0  0  0
  4  5  1  0  0  0  0
  4 15  1  0  0  0  0
  5  6  1  0  0  0  0
  5 26  1  0  0  0  0
  5 27  1  0  0  0  0
  6  7  1  0  0  0  0
  6 28  1  0  0  0  0
  7  8  2  0  0  0  0
  7  9  1  0  0  0  0
  9 10  1  0  0  0  0
 10 14  1  0  0  0  0
 10 11  2  0  0  0  0
 11 12  1  0  0  0  0
 12 13  2  0  0  0  0
 13 14  1  0  0  0  0
 13 29  1  0  0  0  0
 15 16  1  0  0  0  0
 15 30  1  0  0  0  0
 15 31  1  0  0  0  0
 16 17  1  0  0  0  0
 16 32  1  0  0  0  0
 16 33  1  0  0  0  0
 17 18  1  0  0  0  0
 17 34  1  0  0  0  0
 17 35  1  0  0  0  0
 18 19  1  0  0  0  0
 18 36  1  0  0  0  0
 18 37  1  0  0  0  0
 19 38  1  0  0  0  0
 19 39  1  0  0  0  0
M  CHG  1   2   1
M  CHG  1   9  -1
M  END
> <s_m_source_file>
AV-unprocessed.smi

> <i_m_source_file_index>
1206

> <i_lp_mmshare_version>
43012

> <i_f3d_flags>
0

> <s_epik_input>
W0NIMl0xW0NIMl1bQ0gyXVtDSDJdW0NIMl1DMShOKFtDSDNdKVtDSDNdKVtDSDJdW05IXUMoPU8pW05IXWMybm5bY0hdczI=

> <s_epik_cmdline>
J2VwaWtfcHl0aG9uJywgJy1waCcsICc3LjAnLCAnLXRuJywgJzgnLCAnLW1hJywgJzIwMCcsICctbWV0YWxfYmluZGluZycsICctaW1hZScsICc8aW5maWxlLm1hZT4nLCAnLW9tYWUnLCAnPG91dGZpbGUubWFlPic=

> <r_lp_tautomer_probability>
1

> <r_epik_Ionization_Penalty>
3.99546

> <r_epik_Ionization_Penalty_Charging>
3.96229

> <r_epik_Ionization_Penalty_Neutral>
0.0331711

> <r_epik_State_Penalty>
3.95985

> <r_epik_Charging_Adjusted_Penalty>
7.92214

> <i_epik_Tot_Q>
0

> <i_epik_Tot_abs_Q>
2

> <r_epik_Metal_State_Penalty>
0.609364

> <b_epik_Metal_Only>
1

> <s_lp_Force_Field>
OPLS_2005

> <r_lp_Energy>
23.6676

> <b_lp_Chiralities_Consistent>
1

> <s_lp_Variant>
AV-unprocessed.smi:1206-2

> <Gold.Version>
5.8.1

> <Gold.Id.Protein>
6NUR|6NUR_protein|mol2

> <Gold.PLP.Fitness>
38.3285

> <Gold.PLP.PLP>
-26.3248

> <Gold.PLP.part.hbond>
-3.1741

> <Gold.PLP.part.metal>
0.0000

> <Gold.PLP.part.buried>
2.0561

> <Gold.PLP.part.nonpolar>
-25.2755

> <Gold.PLP.part.repulsive>
0.4298

> <Gold.PLP.ligand.clash>
0.0000

> <Gold.PLP.ligand.torsion>
0.8877

> <Gold.PLP.Chemscore.Hbond>
3.7280

> <Gold.PLP.Chemscore.CHOScore>
0.8134

> <Gold.PLP.Chemscore.Metal>
0.0000

> <Gold.Chemscore.Hbonds>
donor molecule, donor type, donor heavy atom, donor atom, acceptor molecule, acceptor atom, score
      L1  H     2    40       P1 10175  2.00
      L1  H     6    28       P1 10175  0.82
      P1  H 11000 11005       L1    12  0.91
      L1  C    13    29       P1 10187  0.82

> <Gold.PLP.Chemscore.Internal.Correction>
0.1550

> <Gold.Rescore>
     Score         DG    S(hbond)    S(metal)    S(lipo)     H(rot)  DE(clash)    DE(int)     intcor
     15.28     -18.56       2.64        0.00      72.28       1.64       0.84       2.43       ----

> <Gold.Chemscore.Fitness>
15.2846

> <Gold.Chemscore.DG>
-18.5634

> <Gold.Chemscore.ZeroCoef>
-5.4800

> <Gold.Chemscore.Hbond>
2.6399

> <Gold.Chemscore.Metal>
0.0000

> <Gold.Chemscore.Lipo>
72.2833

> <Gold.Chemscore.Internal_Hbond>
0.0000

> <Gold.Chemscore.DEClash>
0.8445

> <Gold.Chemscore.DEInternal>
2.4343

> <Gold.Chemscore.Rot>
1.6371

> <Gold.Chemscore.Internal.Correction>
   9.000000E+99

> <Gold.Chemscore.Hbonds>
donor molecule, donor type, donor heavy atom, donor atom, acceptor molecule, acceptor atom, score
      L1  H     2    40       P1 10175  0.99
      L1  H     6    28       P1 10175  0.81
      P1  H 11000 11005       L1    12  0.65

> <Gold.Chemscore.Hbond.Weighted>
-8.8172

> <Gold.Chemscore.Metal.Weighted>
-0.0000

> <Gold.Chemscore.Lipo.Weighted>
-8.4571

> <Gold.Chemscore.Internal_Hbond.Weighted>
0.0000

> <Gold.Chemscore.DEClash.Weighted>
0.8445

> <Gold.Chemscore.DEInternal.Weighted>
2.4343

> <Gold.Chemscore.Rot.Weighted>
4.1909

> <Gold.Chemscore.Internal.Correction.Weighted>
   9.000000E+99

> <Gold.Protein.RotatedTorsions>
[ 6907 6896 6895 6894 ] final   -6.51 input  -60.11 | X-H torsion
[ 7974 7965 7964 7962 ] final  106.10 input  175.53 | X-H torsion
[ 8008 7997 7996 7995 ] final  -62.56 input   59.86 | X-H torsion
[ 10167 10162 10161 10158 ] final  -43.97 input  -65.29 | X-H torsion
[ 10718 10713 10712 10709 ] final -126.34 input   66.30 | X-H torsion
[ 10763 10752 10751 10750 ] final  -65.00 input  -60.55 | X-H torsion
[ 11005 11000 10999 10996 ] final   40.29 input  -57.11 | X-H torsion

> <Gold.Protein.ActiveResidues>
 VAL166  LYS551  ARG553  GLY616  TRP617  ASP618  TYR619  PRO620  LYS621  CYS622 
 ASP623  PHE694  ASN695  SER759  ASP760  ASP761  ALA762  ILE779  LEU786  VAL792 
 PHE793  MET794  SER795  GLU796  ALA797  LYS798  CYS799  TRP800  GLU811  SER814 

> <Gold.Protein.RotatedAtoms>
  151.4643  135.1041  159.9733 H   0  0  0  0  0  0  0  0  0  0  0  0  # atno 6907 bound_to 6896
  152.4841  133.8323  159.7120 H   0  0  0  0  0  0  0  0  0  0  0  0  # atno 6908 bound_to 6896
  150.8935  133.7151  159.2925 H   0  0  0  0  0  0  0  0  0  0  0  0  # atno 6909 bound_to 6896
  145.3111  139.2540  143.3762 H   0  0  0  0  0  0  0  0  0  0  0  0  # atno 7974 bound_to 7965
  154.4506  140.0993  156.6606 H   0  0  0  0  0  0  0  0  0  0  0  0  # atno 8008 bound_to 7997
  155.5298  140.3481  155.4405 H   0  0  0  0  0  0  0  0  0  0  0  0  # atno 8009 bound_to 7997
  156.0672  140.1340  156.9860 H   0  0  0  0  0  0  0  0  0  0  0  0  # atno 8010 bound_to 7997
  140.6914  143.2955  151.3428 H   0  0  0  0  0  0  0  0  0  0  0  0  # atno 10167 bound_to 10162
  156.1756  130.6697  151.0238 H   0  0  0  0  0  0  0  0  0  0  0  0  # atno 10718 bound_to 10713
  154.3385  135.6161  153.5585 H   0  0  0  0  0  0  0  0  0  0  0  0  # atno 10763 bound_to 10752
  152.9806  135.5764  154.4880 H   0  0  0  0  0  0  0  0  0  0  0  0  # atno 10764 bound_to 10752
  154.4580  135.2855  155.1711 H   0  0  0  0  0  0  0  0  0  0  0  0  # atno 10765 bound_to 10752
  140.1945  134.3946  155.8128 H   0  0  0  0  0  0  0  0  0  0  0  0  # atno 11005 bound_to 11000
  146.3117  140.3647  142.8668 LP  0  0  0  0  0  0  0  0  0  0  0  0  # atno 17320 bound_to 7965
  144.9015  140.7648  143.5864 LP  0  0  0  0  0  0  0  0  0  0  0  0  # atno 17321 bound_to 7965
  139.6322  144.0700  152.2485 LP  0  0  0  0  0  0  0  0  0  0  0  0  # atno 17342 bound_to 10162
  140.0178  144.6176  150.7592 LP  0  0  0  0  0  0  0  0  0  0  0  0  # atno 17343 bound_to 10162
  157.6833  131.0832  150.7311 LP  0  0  0  0  0  0  0  0  0  0  0  0  # atno 17370 bound_to 10713
  156.7369  130.4727  149.5486 LP  0  0  0  0  0  0  0  0  0  0  0  0  # atno 17371 bound_to 10713
  141.2227  133.7063  156.8152 LP  0  0  0  0  0  0  0  0  0  0  0  0  # atno 17394 bound_to 11000
  140.2122  134.8819  157.3287 LP  0  0  0  0  0  0  0  0  0  0  0  0  # atno 17395 bound_to 11000

$$$$
