AV-unprocessed.smi:785|AV-procd|sdf|3720|dock7
  -GOLD-   22720 1143D 1   1.00000     0.00000
 Structure written by MMmdl.
 35 36  0  0  0  0  0  0  0  0  1 V2000
  143.5908  132.5701  149.0234 C   0  0  0  0  0  0  0  0  0  0  0  0
  144.5762  133.3057  149.8655 C   0  0  0  0  0  0  0  0  0  0  0  0
  144.3234  134.4847  150.4398 N   0  0  0  0  0  0  0  0  0  0  0  0
  145.4092  134.9703  151.1766 C   0  0  0  0  0  0  0  0  0  0  0  0
  145.3020  136.2841  151.8957 C   0  0  0  0  0  0  0  0  0  0  0  0
  145.6950  136.1222  153.3651 C   0  0  0  0  0  0  0  0  0  0  0  0
  144.8561  136.2920  154.2496 O   0  0  0  0  0  0  0  0  0  0  0  0
  146.9707  135.7849  153.6122 N   0  0  0  0  0  0  0  0  0  0  0  0
  147.5396  135.5761  154.9378 C   0  0  0  0  0  0  0  0  0  0  0  0
  149.0592  135.3432  154.8671 C   0  0  0  0  0  0  0  0  0  0  0  0
  149.7622  136.5359  154.4102 N   0  0  0  0  0  0  0  0  0  0  0  0
  150.9609  136.9434  154.8543 C   0  0  0  0  0  0  0  0  0  0  0  0
  151.6013  136.3338  155.7123 O   0  0  0  0  0  0  0  0  0  0  0  0
  151.4484  138.2020  154.2140 C   0  0  0  0  0  0  0  0  0  0  0  0
  152.8104  138.7204  154.6287 C   0  0  0  0  0  0  0  0  0  0  0  0
  151.5642  139.4357  155.0861 C   0  0  0  0  0  0  0  0  0  0  0  0
  146.4940  134.1282  151.1559 C   0  0  0  0  0  0  0  0  0  0  0  0
  146.1944  132.7029  150.2002 S   0  0  0  0  0  0  0  0  0  0  0  0
  142.6054  133.0319  149.0926 H   0  0  0  0  0  0  0  0  0  0  0  0
  143.5145  131.5351  149.3566 H   0  0  0  0  0  0  0  0  0  0  0  0
  143.9106  132.5806  147.9814 H   0  0  0  0  0  0  0  0  0  0  0  0
  145.9462  137.0331  151.4327 H   0  0  0  0  0  0  0  0  0  0  0  0
  144.2857  136.6754  151.8338 H   0  0  0  0  0  0  0  0  0  0  0  0
  147.5919  135.6649  152.8251 H   0  0  0  0  0  0  0  0  0  0  0  0
  147.3210  136.4607  155.5368 H   0  0  0  0  0  0  0  0  0  0  0  0
  147.0452  134.7376  155.4312 H   0  0  0  0  0  0  0  0  0  0  0  0
  149.4468  135.0853  155.8529 H   0  0  0  0  0  0  0  0  0  0  0  0
  149.2884  134.4996  154.2136 H   0  0  0  0  0  0  0  0  0  0  0  0
  149.3032  137.0932  153.7042 H   0  0  0  0  0  0  0  0  0  0  0  0
  151.1598  138.3634  153.1763 H   0  0  0  0  0  0  0  0  0  0  0  0
  153.3729  138.1670  155.3789 H   0  0  0  0  0  0  0  0  0  0  0  0
  153.4151  139.1905  153.8560 H   0  0  0  0  0  0  0  0  0  0  0  0
  151.3244  140.3909  154.6237 H   0  0  0  0  0  0  0  0  0  0  0  0
  151.3000  139.3562  156.1392 H   0  0  0  0  0  0  0  0  0  0  0  0
  147.4494  134.2612  151.6414 H   0  0  0  0  0  0  0  0  0  0  0  0
  1  2  1  0  0  0  0
  1 19  1  0  0  0  0
  1 20  1  0  0  0  0
  1 21  1  0  0  0  0
  2 18  1  0  0  0  0
  2  3  2  0  0  0  0
  3  4  1  0  0  0  0
  4  5  1  0  0  0  0
  4 17  2  0  0  0  0
  5  6  1  0  0  0  0
  5 22  1  0  0  0  0
  5 23  1  0  0  0  0
  6  7  2  0  0  0  0
  6  8  1  0  0  0  0
  8  9  1  0  0  0  0
  8 24  1  0  0  0  0
  9 10  1  0  0  0  0
  9 25  1  0  0  0  0
  9 26  1  0  0  0  0
 10 11  1  0  0  0  0
 10 27  1  0  0  0  0
 10 28  1  0  0  0  0
 11 12  1  0  0  0  0
 11 29  1  0  0  0  0
 12 13  2  0  0  0  0
 12 14  1  0  0  0  0
 14 16  1  0  0  0  0
 14 15  1  0  0  0  0
 14 30  1  0  0  0  0
 15 16  1  0  0  0  0
 15 31  1  0  0  0  0
 15 32  1  0  0  0  0
 16 33  1  0  0  0  0
 16 34  1  0  0  0  0
 17 18  1  0  0  0  0
 17 35  1  0  0  0  0
M  END
> <s_m_source_file>
AV-unprocessed.smi

> <i_m_source_file_index>
785

> <i_lp_mmshare_version>
43012

> <i_f3d_flags>
0

> <s_epik_input>
W0NIM11jMW5jKFtjSF1zMSlbQ0gyXUMoPU8pW05IXVtDSDJdW0NIMl1bTkhdQyg9TylbQ0hdMltDSDJdW0NIMl0y

> <s_epik_cmdline>
J2VwaWtfcHl0aG9uJywgJy1waCcsICc3LjAnLCAnLXRuJywgJzgnLCAnLW1hJywgJzIwMCcsICctbWV0YWxfYmluZGluZycsICctaW1hZScsICc8aW5maWxlLm1hZT4nLCAnLW9tYWUnLCAnPG91dGZpbGUubWFlPic=

> <r_lp_tautomer_probability>
1

> <r_epik_Ionization_Penalty>
4.93122e-05

> <r_epik_Ionization_Penalty_Charging>
0

> <r_epik_Ionization_Penalty_Neutral>
4.93122e-05

> <r_epik_State_Penalty>
-0

> <r_epik_Charging_Adjusted_Penalty>
0

> <i_epik_Tot_Q>
0

> <i_epik_Tot_abs_Q>
0

> <r_epik_Metal_State_Penalty>
-0

> <b_epik_Metal_Only>
0

> <s_lp_Force_Field>
OPLS_2005

> <r_lp_Energy>
2.28636

> <b_lp_Chiralities_Consistent>
1

> <s_lp_Variant>
AV-unprocessed.smi:785-1

> <Gold.Version>
5.8.1

> <Gold.Id.Protein>
6NUR|6NUR_protein|mol2

> <Gold.PLP.Fitness>
42.6849

> <Gold.PLP.PLP>
-33.2604

> <Gold.PLP.part.hbond>
-3.0968

> <Gold.PLP.part.metal>
0.0000

> <Gold.PLP.part.buried>
-1.4007

> <Gold.PLP.part.nonpolar>
-27.6274

> <Gold.PLP.part.repulsive>
0.3317

> <Gold.PLP.ligand.clash>
0.0000

> <Gold.PLP.ligand.torsion>
0.3270

> <Gold.PLP.Chemscore.Hbond>
2.3619

> <Gold.PLP.Chemscore.CHOScore>
0.9633

> <Gold.PLP.Chemscore.Metal>
0.0000

> <Gold.Chemscore.Hbonds>
donor molecule, donor type, donor heavy atom, donor atom, acceptor molecule, acceptor atom, score
      L1  H     8    24       P1  7948  1.00
      L1  H    11    29       P1  7948  0.34
      P1  H 10752 10764       L1    13  1.00
      L1  C    17    35       P1  7948  0.96

> <Gold.PLP.Chemscore.Internal.Correction>
0.1029

> <Gold.Rescore>
     Score         DG    S(hbond)    S(metal)    S(lipo)     H(rot)  DE(clash)    DE(int)     intcor
     15.73     -16.11       2.05        0.00      79.46       2.16       0.05       0.33       ----

> <Gold.Chemscore.Fitness>
15.7293

> <Gold.Chemscore.DG>
-16.1140

> <Gold.Chemscore.ZeroCoef>
-5.4800

> <Gold.Chemscore.Hbond>
2.0540

> <Gold.Chemscore.Metal>
0.0000

> <Gold.Chemscore.Lipo>
79.4558

> <Gold.Chemscore.Internal_Hbond>
0.0000

> <Gold.Chemscore.DEClash>
0.0522

> <Gold.Chemscore.DEInternal>
0.3326

> <Gold.Chemscore.Rot>
2.1573

> <Gold.Chemscore.Internal.Correction>
   9.000000E+99

> <Gold.Chemscore.Hbonds>
donor molecule, donor type, donor heavy atom, donor atom, acceptor molecule, acceptor atom, score
      L1  H     8    24       P1  7948  0.95
      L1  H    11    29       P1  7948  0.32
      P1  H 10752 10764       L1    13  0.40

> <Gold.Chemscore.Hbond.Weighted>
-6.8605

> <Gold.Chemscore.Metal.Weighted>
-0.0000

> <Gold.Chemscore.Lipo.Weighted>
-9.2963

> <Gold.Chemscore.Internal_Hbond.Weighted>
0.0000

> <Gold.Chemscore.DEClash.Weighted>
0.0522

> <Gold.Chemscore.DEInternal.Weighted>
0.3326

> <Gold.Chemscore.Rot.Weighted>
5.5228

> <Gold.Chemscore.Internal.Correction.Weighted>
   9.000000E+99

> <Gold.Protein.RotatedTorsions>
[ 6907 6896 6895 6894 ] final  -82.06 input  -60.11 | X-H torsion
[ 7974 7965 7964 7962 ] final  -81.00 input  175.53 | X-H torsion
[ 8008 7997 7996 7995 ] final -159.78 input   59.86 | X-H torsion
[ 10167 10162 10161 10158 ] final   82.02 input  -65.29 | X-H torsion
[ 10718 10713 10712 10709 ] final  103.84 input   66.30 | X-H torsion
[ 10763 10752 10751 10750 ] final  -51.50 input  -60.55 | X-H torsion
[ 11005 11000 10999 10996 ] final  -26.92 input  -57.11 | X-H torsion

> <Gold.Protein.ActiveResidues>
 VAL166  LYS551  ARG553  GLY616  TRP617  ASP618  TYR619  PRO620  LYS621  CYS622 
 ASP623  PHE694  ASN695  SER759  ASP760  ASP761  ALA762  ILE779  LEU786  VAL792 
 PHE793  MET794  SER795  GLU796  ALA797  LYS798  CYS799  TRP800  GLU811  SER814 

> <Gold.Protein.RotatedAtoms>
  150.6902  134.3723  159.4997 H   0  0  0  0  0  0  0  0  0  0  0  0  # atno 6907 bound_to 6896
  152.1537  134.8965  160.0555 H   0  0  0  0  0  0  0  0  0  0  0  0  # atno 6908 bound_to 6896
  152.0053  133.3806  159.4235 H   0  0  0  0  0  0  0  0  0  0  0  0  # atno 6909 bound_to 6896
  145.5524  140.9494  143.1492 H   0  0  0  0  0  0  0  0  0  0  0  0  # atno 7974 bound_to 7965
  155.7677  140.0848  157.2123 H   0  0  0  0  0  0  0  0  0  0  0  0  # atno 8008 bound_to 7997
  154.3998  140.1531  156.2963 H   0  0  0  0  0  0  0  0  0  0  0  0  # atno 8009 bound_to 7997
  155.8778  140.3422  155.5868 H   0  0  0  0  0  0  0  0  0  0  0  0  # atno 8010 bound_to 7997
  139.9332  144.6138  150.8325 H   0  0  0  0  0  0  0  0  0  0  0  0  # atno 10167 bound_to 10162
  157.6759  131.0789  150.5616 H   0  0  0  0  0  0  0  0  0  0  0  0  # atno 10718 bound_to 10713
  154.1276  135.6525  153.4915 H   0  0  0  0  0  0  0  0  0  0  0  0  # atno 10763 bound_to 10752
  153.0205  135.5285  154.7033 H   0  0  0  0  0  0  0  0  0  0  0  0  # atno 10764 bound_to 10752
  154.6259  135.2970  155.0243 H   0  0  0  0  0  0  0  0  0  0  0  0  # atno 10765 bound_to 10752
  140.9073  133.7484  156.0623 H   0  0  0  0  0  0  0  0  0  0  0  0  # atno 11005 bound_to 11000
  144.7523  139.7163  143.7268 LP  0  0  0  0  0  0  0  0  0  0  0  0  # atno 17320 bound_to 7965
  146.1907  139.5146  142.9807 LP  0  0  0  0  0  0  0  0  0  0  0  0  # atno 17321 bound_to 7965
  140.7632  143.3216  151.2609 LP  0  0  0  0  0  0  0  0  0  0  0  0  # atno 17342 bound_to 10162
  139.6765  143.9928  152.2784 LP  0  0  0  0  0  0  0  0  0  0  0  0  # atno 17343 bound_to 10162
  156.5919  130.4331  149.5933 LP  0  0  0  0  0  0  0  0  0  0  0  0  # atno 17370 bound_to 10713
  156.2576  130.6944  151.1702 LP  0  0  0  0  0  0  0  0  0  0  0  0  # atno 17371 bound_to 10713
  140.8155  134.3350  157.5398 LP  0  0  0  0  0  0  0  0  0  0  0  0  # atno 17394 bound_to 11000
  139.8751  134.9279  156.3437 LP  0  0  0  0  0  0  0  0  0  0  0  0  # atno 17395 bound_to 11000

$$$$
