AV-unprocessed.smi:738|AV-procd|sdf|3541|dock10
  -GOLD-   22720 0533D 1   1.00000     0.00000
 Structure written by MMmdl.
 35 37  0  0  0  0  0  0  0  0  1 V2000
  144.1911  138.0852  152.6674 N   0  0  0  0  0  0  0  0  0  0  0  0
  145.0736  137.2448  153.2160 C   0  0  0  0  0  0  0  0  0  0  0  0
  144.8596  136.0384  153.3176 O   0  0  0  0  0  0  0  0  0  0  0  0
  146.3249  137.8638  153.7686 C   0  0  0  0  0  0  0  0  0  0  0  0
  147.2590  137.0813  154.4813 C   0  0  0  0  0  0  0  0  0  0  0  0
  148.4111  137.5711  154.9857 N   0  0  0  0  0  0  0  0  0  0  0  0
  148.6992  138.8814  154.7971 C   0  0  0  0  0  0  0  0  0  0  0  0
  149.9119  139.3713  155.3162 N   0  0  0  0  0  0  0  0  0  0  0  0
  151.0607  138.6977  154.7289 C   0  0  0  0  0  0  0  0  0  0  0  0
  152.3395  139.4723  155.0717 C   0  0  0  0  0  0  0  0  0  0  0  0
  152.4839  139.5664  156.4858 O   0  0  0  0  0  0  0  0  0  0  0  0
  151.3635  140.1358  157.1665 C   0  0  1  0  0  0  0  0  0  0  0  0
  151.1940  141.6555  157.0089 C   0  0  0  0  0  0  0  0  0  0  0  0
  149.6857  141.9186  157.1477 C   0  0  0  0  0  0  0  0  0  0  0  0
  149.0149  140.5486  157.3292 C   0  0  0  0  0  0  0  0  0  0  0  0
  150.0107  139.5194  156.7712 C   0  0  1  0  0  0  0  0  0  0  0  0
  147.8349  139.7468  154.0836 C   0  0  0  0  0  0  0  0  0  0  0  0
  148.2091  141.4200  153.8548 Cl  0  0  0  0  0  0  0  0  0  0  0  0
  146.6347  139.2264  153.5616 C   0  0  0  0  0  0  0  0  0  0  0  0
  143.3295  137.7240  152.2837 H   0  0  0  0  0  0  0  0  0  0  0  0
  144.3836  139.0759  152.6409 H   0  0  0  0  0  0  0  0  0  0  0  0
  147.0813  136.0308  154.6603 H   0  0  0  0  0  0  0  0  0  0  0  0
  151.1215  137.6789  155.1145 H   0  0  0  0  0  0  0  0  0  0  0  0
  150.9515  138.6258  153.6460 H   0  0  0  0  0  0  0  0  0  0  0  0
  153.2094  138.9553  154.6668 H   0  0  0  0  0  0  0  0  0  0  0  0
  152.3259  140.4624  154.6161 H   0  0  0  0  0  0  0  0  0  0  0  0
  151.5164  139.9402  158.2288 H   0  0  0  0  0  0  0  0  0  0  0  0
  151.7757  142.1991  157.7541 H   0  0  0  0  0  0  0  0  0  0  0  0
  151.5278  141.9981  156.0302 H   0  0  0  0  0  0  0  0  0  0  0  0
  149.4637  142.5816  157.9844 H   0  0  0  0  0  0  0  0  0  0  0  0
  149.3130  142.4007  156.2430 H   0  0  0  0  0  0  0  0  0  0  0  0
  148.8808  140.3611  158.3954 H   0  0  0  0  0  0  0  0  0  0  0  0
  148.0245  140.5033  156.8753 H   0  0  0  0  0  0  0  0  0  0  0  0
  149.8835  138.5447  157.2444 H   0  0  0  0  0  0  0  0  0  0  0  0
  145.9677  139.8733  153.0103 H   0  0  0  0  0  0  0  0  0  0  0  0
  1  2  1  0  0  0  0
  1 20  1  0  0  0  0
  1 21  1  0  0  0  0
  2  3  2  0  0  0  0
  2  4  1  0  0  0  0
  4 19  1  0  0  0  0
  4  5  2  0  0  0  0
  5  6  1  0  0  0  0
  5 22  1  0  0  0  0
  6  7  2  0  0  0  0
  7  8  1  0  0  0  0
  7 17  1  0  0  0  0
  8 16  1  0  0  0  0
  8  9  1  0  0  0  0
  9 10  1  0  0  0  0
  9 23  1  0  0  0  0
  9 24  1  0  0  0  0
 10 11  1  0  0  0  0
 10 25  1  0  0  0  0
 10 26  1  0  0  0  0
 11 12  1  0  0  0  0
 12 16  1  0  0  0  0
 12 13  1  0  0  0  0
 12 27  1  0  0  0  0
 13 14  1  0  0  0  0
 13 28  1  0  0  0  0
 13 29  1  0  0  0  0
 14 15  1  0  0  0  0
 14 30  1  0  0  0  0
 14 31  1  0  0  0  0
 15 16  1  0  0  0  0
 15 32  1  0  0  0  0
 15 33  1  0  0  0  0
 16 34  1  0  0  0  0
 17 18  1  0  0  0  0
 17 19  2  0  0  0  0
 19 35  1  0  0  0  0
M  END
> <s_m_source_file>
AV-unprocessed.smi

> <i_m_source_file_index>
738

> <i_lp_mmshare_version>
43012

> <i_f3d_flags>
0

> <s_epik_input>
W05IMl1DKD1PKWMxW2NIXW5jKGMoQ2wpW2NIXTEpTihbQ0gyXVtDSDJdTzIpW0NASF0oW0NASF0yMylbQ0gyXVtDSDJdW0NIMl0z

> <s_epik_cmdline>
J2VwaWtfcHl0aG9uJywgJy1waCcsICc3LjAnLCAnLXRuJywgJzgnLCAnLW1hJywgJzIwMCcsICctbWV0YWxfYmluZGluZycsICctaW1hZScsICc8aW5maWxlLm1hZT4nLCAnLW9tYWUnLCAnPG91dGZpbGUubWFlPic=

> <r_lp_tautomer_probability>
1

> <r_epik_Ionization_Penalty>
6.75978e-06

> <r_epik_Ionization_Penalty_Charging>
0

> <r_epik_Ionization_Penalty_Neutral>
6.75978e-06

> <r_epik_State_Penalty>
-0

> <r_epik_Charging_Adjusted_Penalty>
0

> <i_epik_Tot_Q>
0

> <i_epik_Tot_abs_Q>
0

> <r_epik_Metal_State_Penalty>
-0

> <b_epik_Metal_Only>
0

> <s_lp_Force_Field>
OPLS_2005

> <r_lp_Energy>
43.0455

> <b_lp_Chiralities_Consistent>
1

> <s_lp_Variant>
AV-unprocessed.smi:738-4

> <Gold.Version>
5.8.1

> <Gold.Id.Protein>
6NUR|6NUR_protein|mol2

> <Gold.PLP.Fitness>
29.1465

> <Gold.PLP.PLP>
-23.7549

> <Gold.PLP.part.hbond>
-2.6664

> <Gold.PLP.part.metal>
0.0000

> <Gold.PLP.part.buried>
-1.0235

> <Gold.PLP.part.nonpolar>
-19.5861

> <Gold.PLP.part.repulsive>
0.2812

> <Gold.PLP.ligand.clash>
0.0000

> <Gold.PLP.ligand.torsion>
0.1395

> <Gold.PLP.Chemscore.Hbond>
1.8320

> <Gold.PLP.Chemscore.CHOScore>
0.0000

> <Gold.PLP.Chemscore.Metal>
0.0000

> <Gold.Chemscore.Hbonds>
donor molecule, donor type, donor heavy atom, donor atom, acceptor molecule, acceptor atom, score
      L1  H     1    21       P1 10175  0.82
      P1  H  7997  8010       L1    11  0.90

> <Gold.PLP.Chemscore.Internal.Correction>
0.1746

> <Gold.Rescore>
     Score         DG    S(hbond)    S(metal)    S(lipo)     H(rot)  DE(clash)    DE(int)     intcor
     15.13     -17.22       1.90        0.00      67.92       1.00       1.95       0.13       ----

> <Gold.Chemscore.Fitness>
15.1280

> <Gold.Chemscore.DG>
-17.2158

> <Gold.Chemscore.ZeroCoef>
-5.4800

> <Gold.Chemscore.Hbond>
1.9008

> <Gold.Chemscore.Metal>
0.0000

> <Gold.Chemscore.Lipo>
67.9243

> <Gold.Chemscore.Internal_Hbond>
0.0000

> <Gold.Chemscore.DEClash>
1.9531

> <Gold.Chemscore.DEInternal>
0.1347

> <Gold.Chemscore.Rot>
1.0000

> <Gold.Chemscore.Internal.Correction>
   9.000000E+99

> <Gold.Chemscore.Hbonds>
donor molecule, donor type, donor heavy atom, donor atom, acceptor molecule, acceptor atom, score
      L1  H     1    21       P1 10175  0.78
      P1  H  7997  8010       L1    11  0.18

> <Gold.Chemscore.Hbond.Weighted>
-6.3486

> <Gold.Chemscore.Metal.Weighted>
-0.0000

> <Gold.Chemscore.Lipo.Weighted>
-7.9471

> <Gold.Chemscore.Internal_Hbond.Weighted>
0.0000

> <Gold.Chemscore.DEClash.Weighted>
1.9531

> <Gold.Chemscore.DEInternal.Weighted>
0.1347

> <Gold.Chemscore.Rot.Weighted>
2.5600

> <Gold.Chemscore.Internal.Correction.Weighted>
   9.000000E+99

> <Gold.Protein.RotatedTorsions>
[ 6907 6896 6895 6894 ] final  132.63 input  -60.11 | X-H torsion
[ 7974 7965 7964 7962 ] final  110.45 input  175.53 | X-H torsion
[ 8008 7997 7996 7995 ] final   66.50 input   59.86 | X-H torsion
[ 10167 10162 10161 10158 ] final -115.22 input  -65.29 | X-H torsion
[ 10718 10713 10712 10709 ] final  174.45 input   66.30 | X-H torsion
[ 10763 10752 10751 10750 ] final  -55.45 input  -60.55 | X-H torsion
[ 11005 11000 10999 10996 ] final -155.36 input  -57.11 | X-H torsion

> <Gold.Protein.ActiveResidues>
 VAL166  LYS551  ARG553  GLY616  TRP617  ASP618  TYR619  PRO620  LYS621  CYS622 
 ASP623  PHE694  ASN695  SER759  ASP760  ASP761  ALA762  ILE779  LEU786  VAL792 
 PHE793  MET794  SER795  GLU796  ALA797  LYS798  CYS799  TRP800  GLU811  SER814 

> <Gold.Protein.RotatedAtoms>
  152.3304  133.5952  159.5805 H   0  0  0  0  0  0  0  0  0  0  0  0  # atno 6907 bound_to 6896
  150.7420  133.9876  159.3605 H   0  0  0  0  0  0  0  0  0  0  0  0  # atno 6908 bound_to 6896
  151.7751  135.0777  160.0416 H   0  0  0  0  0  0  0  0  0  0  0  0  # atno 6909 bound_to 6896
  145.2548  139.2725  143.4048 H   0  0  0  0  0  0  0  0  0  0  0  0  # atno 7974 bound_to 7965
  155.6783  140.3496  155.4845 H   0  0  0  0  0  0  0  0  0  0  0  0  # atno 8008 bound_to 7997
  155.9629  140.1141  157.0902 H   0  0  0  0  0  0  0  0  0  0  0  0  # atno 8009 bound_to 7997
  154.4147  140.1172  156.5189 H   0  0  0  0  0  0  0  0  0  0  0  0  # atno 8010 bound_to 7997
  140.0925  143.4687  152.1861 H   0  0  0  0  0  0  0  0  0  0  0  0  # atno 10167 bound_to 10162
  156.9495  131.0026  151.2951 H   0  0  0  0  0  0  0  0  0  0  0  0  # atno 10718 bound_to 10713
  154.1909  135.6427  153.5060 H   0  0  0  0  0  0  0  0  0  0  0  0  # atno 10763 bound_to 10752
  153.0035  135.5428  154.6416 H   0  0  0  0  0  0  0  0  0  0  0  0  # atno 10764 bound_to 10752
  154.5804  135.2925  155.0711 H   0  0  0  0  0  0  0  0  0  0  0  0  # atno 10765 bound_to 10752
  140.6874  134.4079  157.5222 H   0  0  0  0  0  0  0  0  0  0  0  0  # atno 11005 bound_to 11000
  146.3292  140.2949  142.8617 LP  0  0  0  0  0  0  0  0  0  0  0  0  # atno 17320 bound_to 7965
  144.9470  140.8139  143.5595 LP  0  0  0  0  0  0  0  0  0  0  0  0  # atno 17321 bound_to 7965
  139.5717  144.7466  151.3874 LP  0  0  0  0  0  0  0  0  0  0  0  0  # atno 17342 bound_to 10162
  140.7021  143.7605  150.7420 LP  0  0  0  0  0  0  0  0  0  0  0  0  # atno 17343 bound_to 10162
  157.5731  130.8324  149.8419 LP  0  0  0  0  0  0  0  0  0  0  0  0  # atno 17370 bound_to 10713
  156.0369  130.3749  150.1537 LP  0  0  0  0  0  0  0  0  0  0  0  0  # atno 17371 bound_to 10713
  139.8934  134.8732  156.2227 LP  0  0  0  0  0  0  0  0  0  0  0  0  # atno 17394 bound_to 11000
  141.0269  133.7010  156.1363 LP  0  0  0  0  0  0  0  0  0  0  0  0  # atno 17395 bound_to 11000

$$$$
