AV-unprocessed.smi:2826|AV-procd|sdf|10894|dock3
  -GOLD-   2272015343D 1   1.00000     0.00000
 Structure written by MMmdl.
 50 51  0  0  0  0  0  0  0  0  1 V2000
  150.7877  143.0697  157.4519 C   0  0  0  0  0  0  0  0  0  0  0  0
  151.4232  141.9227  156.8983 O   0  0  0  0  0  0  0  0  0  0  0  0
  150.6828  141.0955  156.0791 C   0  0  0  0  0  0  0  0  0  0  0  0
  149.3348  141.4199  155.8341 C   0  0  0  0  0  0  0  0  0  0  0  0
  148.5748  140.5807  154.9984 C   0  0  0  0  0  0  0  0  0  0  0  0
  149.1883  139.4429  154.4218 C   0  0  0  0  0  0  0  0  0  0  0  0
  148.4936  138.5267  153.5831 N   0  0  0  0  0  0  0  0  0  0  0  0
  147.1702  138.4361  153.3678 C   0  0  0  0  0  0  0  0  0  0  0  0
  146.3173  139.1710  153.8655 O   0  0  0  0  0  0  0  0  0  0  0  0
  146.8841  137.4460  152.5102 N   0  0  0  0  0  0  0  0  0  0  0  0
  145.5433  137.0966  152.0500 C   0  0  2  0  0  0  0  0  0  0  0  0
  144.6311  136.8173  153.2526 C   0  0  0  0  0  0  0  0  0  0  0  0
  143.2594  136.3095  152.7823 C   0  0  0  0  0  0  0  0  0  0  0  0
  143.4231  135.1529  151.9688 O   0  0  0  0  0  0  0  0  0  0  0  0
  144.1550  135.4034  150.7712 C   0  0  2  0  0  0  0  0  0  0  0  0
  144.1679  134.1171  149.9244 C   0  0  0  0  0  0  0  0  0  0  0  0
  145.0574  132.9835  150.4800 C   0  0  0  0  0  0  0  0  0  0  0  0
  145.5376  132.0681  149.3434 C   0  0  0  0  0  0  0  0  0  0  0  0
  144.3503  132.1565  151.5675 C   0  0  0  0  0  0  0  0  0  0  0  0
  145.5806  135.8558  151.1414 C   0  0  0  0  0  0  0  0  0  0  0  0
  150.5448  139.1941  154.7425 C   0  0  0  0  0  0  0  0  0  0  0  0
  151.2817  137.9874  154.1883 C   0  0  0  0  0  0  0  0  0  0  0  0
  151.2752  139.9995  155.5450 N   0  0  0  0  0  0  0  0  0  0  0  0
  151.4999  143.6115  158.0740 H   0  0  0  0  0  0  0  0  0  0  0  0
  149.9423  142.7921  158.0829 H   0  0  0  0  0  0  0  0  0  0  0  0
  150.4445  143.7509  156.6721 H   0  0  0  0  0  0  0  0  0  0  0  0
  148.8892  142.2949  156.2837 H   0  0  0  0  0  0  0  0  0  0  0  0
  147.5357  140.8170  154.8290 H   0  0  0  0  0  0  0  0  0  0  0  0
  149.0775  137.9173  153.0292 H   0  0  0  0  0  0  0  0  0  0  0  0
  147.6477  136.8957  152.1456 H   0  0  0  0  0  0  0  0  0  0  0  0
  145.1240  137.9357  151.4910 H   0  0  0  0  0  0  0  0  0  0  0  0
  145.0874  136.0663  153.8995 H   0  0  0  0  0  0  0  0  0  0  0  0
  144.5098  137.7182  153.8550 H   0  0  0  0  0  0  0  0  0  0  0  0
  142.6414  136.0501  153.6420 H   0  0  0  0  0  0  0  0  0  0  0  0
  142.7252  137.0839  152.2295 H   0  0  0  0  0  0  0  0  0  0  0  0
  143.6695  136.2031  150.2110 H   0  0  0  0  0  0  0  0  0  0  0  0
  143.1478  133.7470  149.8128 H   0  0  0  0  0  0  0  0  0  0  0  0
  144.5033  134.3731  148.9184 H   0  0  0  0  0  0  0  0  0  0  0  0
  145.9463  133.4315  150.9255 H   0  0  0  0  0  0  0  0  0  0  0  0
  144.6990  131.5790  148.8470 H   0  0  0  0  0  0  0  0  0  0  0  0
  146.2025  131.2897  149.7190 H   0  0  0  0  0  0  0  0  0  0  0  0
  146.0883  132.6315  148.5896 H   0  0  0  0  0  0  0  0  0  0  0  0
  143.4224  131.7224  151.1942 H   0  0  0  0  0  0  0  0  0  0  0  0
  144.1098  132.7598  152.4422 H   0  0  0  0  0  0  0  0  0  0  0  0
  144.9842  131.3380  151.9099 H   0  0  0  0  0  0  0  0  0  0  0  0
  146.1497  136.0698  150.2358 H   0  0  0  0  0  0  0  0  0  0  0  0
  146.0996  135.0421  151.6506 H   0  0  0  0  0  0  0  0  0  0  0  0
  151.2565  137.9944  153.0982 H   0  0  0  0  0  0  0  0  0  0  0  0
  150.8166  137.0659  154.5389 H   0  0  0  0  0  0  0  0  0  0  0  0
  152.3273  137.9778  154.5000 H   0  0  0  0  0  0  0  0  0  0  0  0
  1  2  1  0  0  0  0
  1 24  1  0  0  0  0
  1 25  1  0  0  0  0
  1 26  1  0  0  0  0
  2  3  1  0  0  0  0
  3 23  1  0  0  0  0
  3  4  2  0  0  0  0
  4  5  1  0  0  0  0
  4 27  1  0  0  0  0
  5  6  2  0  0  0  0
  5 28  1  0  0  0  0
  6  7  1  0  0  0  0
  6 21  1  0  0  0  0
  7  8  1  0  0  0  0
  7 29  1  0  0  0  0
  8  9  2  0  0  0  0
  8 10  1  0  0  0  0
 10 11  1  0  0  0  0
 10 30  1  0  0  0  0
 11 20  1  0  0  0  0
 11 12  1  0  0  0  0
 11 31  1  0  0  0  0
 12 13  1  0  0  0  0
 12 32  1  0  0  0  0
 12 33  1  0  0  0  0
 13 14  1  0  0  0  0
 13 34  1  0  0  0  0
 13 35  1  0  0  0  0
 14 15  1  0  0  0  0
 15 16  1  0  0  0  0
 15 20  1  0  0  0  0
 15 36  1  0  0  0  0
 16 17  1  0  0  0  0
 16 37  1  0  0  0  0
 16 38  1  0  0  0  0
 17 18  1  0  0  0  0
 17 19  1  0  0  0  0
 17 39  1  0  0  0  0
 18 40  1  0  0  0  0
 18 41  1  0  0  0  0
 18 42  1  0  0  0  0
 19 43  1  0  0  0  0
 19 44  1  0  0  0  0
 19 45  1  0  0  0  0
 20 46  1  0  0  0  0
 20 47  1  0  0  0  0
 21 22  1  0  0  0  0
 21 23  2  0  0  0  0
 22 48  1  0  0  0  0
 22 49  1  0  0  0  0
 22 50  1  0  0  0  0
M  END
> <s_m_source_file>
AV-unprocessed.smi

> <i_m_source_file_index>
2826

> <i_lp_mmshare_version>
43012

> <i_f3d_flags>
0

> <s_epik_input>
W0NIM11PYzFbY0hdW2NIXWMoYyhuMSlbQ0gzXSlbTkhdQyg9TylbTkhdW0NAQEhdMltDSDJdW0NIMl1PW0NASF0oW0NIMl0yKVtDSDJdW0NIXShbQ0gzXSlbQ0gzXQ==

> <s_epik_cmdline>
J2VwaWtfcHl0aG9uJywgJy1waCcsICc3LjAnLCAnLXRuJywgJzgnLCAnLW1hJywgJzIwMCcsICctbWV0YWxfYmluZGluZycsICctaW1hZScsICc8aW5maWxlLm1hZT4nLCAnLW9tYWUnLCAnPG91dGZpbGUubWFlPic=

> <r_lp_tautomer_probability>
1

> <r_epik_Ionization_Penalty>
0.000249977

> <r_epik_Ionization_Penalty_Charging>
0

> <r_epik_Ionization_Penalty_Neutral>
0.000249977

> <r_epik_State_Penalty>
-0

> <r_epik_Charging_Adjusted_Penalty>
0

> <i_epik_Tot_Q>
0

> <i_epik_Tot_abs_Q>
0

> <r_epik_Metal_State_Penalty>
-0

> <b_epik_Metal_Only>
0

> <s_lp_Force_Field>
OPLS_2005

> <r_lp_Energy>
13.3689

> <b_lp_Chiralities_Consistent>
1

> <s_lp_Variant>
AV-unprocessed.smi:2826-3

> <Gold.Version>
5.8.1

> <Gold.Id.Protein>
6NUR|6NUR_protein|mol2

> <Gold.PLP.Fitness>
43.6117

> <Gold.PLP.PLP>
-39.9541

> <Gold.PLP.part.hbond>
-3.5419

> <Gold.PLP.part.metal>
0.0000

> <Gold.PLP.part.buried>
-1.6401

> <Gold.PLP.part.nonpolar>
-35.8263

> <Gold.PLP.part.repulsive>
0.5143

> <Gold.PLP.ligand.clash>
0.7420

> <Gold.PLP.ligand.torsion>
0.3938

> <Gold.PLP.Chemscore.Hbond>
1.7095

> <Gold.PLP.Chemscore.CHOScore>
0.0000

> <Gold.PLP.Chemscore.Metal>
0.0000

> <Gold.Chemscore.Hbonds>
donor molecule, donor type, donor heavy atom, donor atom, acceptor molecule, acceptor atom, score
      L1  H     7    29       P1  7948  0.83
      L1  H    10    30       P1  7948  0.86

> <Gold.PLP.Chemscore.Internal.Correction>
0.0587

> <Gold.Rescore>
     Score         DG    S(hbond)    S(metal)    S(lipo)     H(rot)  DE(clash)    DE(int)     intcor
     16.91     -20.04       1.90        0.00     103.15       1.51       0.59       2.54       ----

> <Gold.Chemscore.Fitness>
16.9090

> <Gold.Chemscore.DG>
-20.0402

> <Gold.Chemscore.ZeroCoef>
-5.4800

> <Gold.Chemscore.Hbond>
1.9001

> <Gold.Chemscore.Metal>
0.0000

> <Gold.Chemscore.Lipo>
103.1514

> <Gold.Chemscore.Internal_Hbond>
0.0000

> <Gold.Chemscore.DEClash>
0.5935

> <Gold.Chemscore.DEInternal>
2.5377

> <Gold.Chemscore.Rot>
1.5057

> <Gold.Chemscore.Internal.Correction>
   9.000000E+99

> <Gold.Chemscore.Hbonds>
donor molecule, donor type, donor heavy atom, donor atom, acceptor molecule, acceptor atom, score
      L1  H     7    29       P1  7948  0.77
      L1  H    10    30       P1  7948  0.84

> <Gold.Chemscore.Hbond.Weighted>
-6.3462

> <Gold.Chemscore.Metal.Weighted>
-0.0000

> <Gold.Chemscore.Lipo.Weighted>
-12.0687

> <Gold.Chemscore.Internal_Hbond.Weighted>
0.0000

> <Gold.Chemscore.DEClash.Weighted>
0.5935

> <Gold.Chemscore.DEInternal.Weighted>
2.5377

> <Gold.Chemscore.Rot.Weighted>
3.8547

> <Gold.Chemscore.Internal.Correction.Weighted>
   9.000000E+99

> <Gold.Protein.RotatedTorsions>
[ 6907 6896 6895 6894 ] final  -12.56 input  -60.11 | X-H torsion
[ 7974 7965 7964 7962 ] final  136.04 input  175.53 | X-H torsion
[ 8008 7997 7996 7995 ] final -120.91 input   59.86 | X-H torsion
[ 10167 10162 10161 10158 ] final  -31.86 input  -65.29 | X-H torsion
[ 10718 10713 10712 10709 ] final  155.21 input   66.30 | X-H torsion
[ 10763 10752 10751 10750 ] final  -60.02 input  -60.55 | X-H torsion
[ 11005 11000 10999 10996 ] final  -25.45 input  -57.11 | X-H torsion

> <Gold.Protein.ActiveResidues>
 VAL166  LYS551  ARG553  GLY616  TRP617  ASP618  TYR619  PRO620  LYS621  CYS622 
 ASP623  PHE694  ASN695  SER759  ASP760  ASP761  ALA762  ILE779  LEU786  VAL792 
 PHE793  MET794  SER795  GLU796  ALA797  LYS798  CYS799  TRP800  GLU811  SER814 

> <Gold.Protein.RotatedAtoms>
  151.3686  135.0918  159.9457 H   0  0  0  0  0  0  0  0  0  0  0  0  # atno 6907 bound_to 6896
  152.5142  133.9187  159.7534 H   0  0  0  0  0  0  0  0  0  0  0  0  # atno 6908 bound_to 6896
  150.9596  133.6405  159.2786 H   0  0  0  0  0  0  0  0  0  0  0  0  # atno 6909 bound_to 6896
  144.9604  139.4717  143.5482 H   0  0  0  0  0  0  0  0  0  0  0  0  # atno 7974 bound_to 7965
  155.1395  140.0401  157.2795 H   0  0  0  0  0  0  0  0  0  0  0  0  # atno 8008 bound_to 7997
  154.6483  140.2563  155.7216 H   0  0  0  0  0  0  0  0  0  0  0  0  # atno 8009 bound_to 7997
  156.2565  140.2841  156.0906 H   0  0  0  0  0  0  0  0  0  0  0  0  # atno 8010 bound_to 7997
  140.7230  143.3739  151.1727 H   0  0  0  0  0  0  0  0  0  0  0  0  # atno 10167 bound_to 10162
  157.2214  131.0719  151.1910 H   0  0  0  0  0  0  0  0  0  0  0  0  # atno 10718 bound_to 10713
  154.2628  135.6305  153.5281 H   0  0  0  0  0  0  0  0  0  0  0  0  # atno 10763 bound_to 10752
  152.9893  135.5591  154.5686 H   0  0  0  0  0  0  0  0  0  0  0  0  # atno 10764 bound_to 10752
  154.5238  135.2884  155.1214 H   0  0  0  0  0  0  0  0  0  0  0  0  # atno 10765 bound_to 10752
  140.8939  133.7569  156.0456 H   0  0  0  0  0  0  0  0  0  0  0  0  # atno 11005 bound_to 11000
  146.3351  139.8749  142.8834 LP  0  0  0  0  0  0  0  0  0  0  0  0  # atno 17320 bound_to 7965
  145.2709  141.0108  143.3772 LP  0  0  0  0  0  0  0  0  0  0  0  0  # atno 17321 bound_to 7965
  139.7315  143.9065  152.3021 LP  0  0  0  0  0  0  0  0  0  0  0  0  # atno 17342 bound_to 10162
  139.8856  144.6994  150.8828 LP  0  0  0  0  0  0  0  0  0  0  0  0  # atno 17343 bound_to 10162
  157.3572  130.7112  149.6478 LP  0  0  0  0  0  0  0  0  0  0  0  0  # atno 17370 bound_to 10713
  155.9682  130.4236  150.4568 LP  0  0  0  0  0  0  0  0  0  0  0  0  # atno 17371 bound_to 10713
  140.8313  134.3175  157.5348 LP  0  0  0  0  0  0  0  0  0  0  0  0  # atno 17394 bound_to 11000
  139.8733  134.9365  156.3661 LP  0  0  0  0  0  0  0  0  0  0  0  0  # atno 17395 bound_to 11000

$$$$
