AV-unprocessed.smi:45|AV-procd|sdf|411|dock4
  -GOLD-   2262016273D 1   1.00000     0.00000
 Structure written by MMmdl.
 61 64  0  0  0  0  0  0  0  0  2 V2000
  152.4265  126.3671  155.0330 C   0  0  0  0  0  0  0  0  0  0  0  0
  152.4583  127.5982  155.7401 O   0  0  0  0  0  0  0  0  0  0  0  0
  151.3545  128.4224  155.6656 C   0  0  0  0  0  0  0  0  0  0  0  0
  150.1880  128.1128  154.9206 C   0  0  0  0  0  0  0  0  0  0  0  0
  149.0996  129.0056  154.8896 C   0  0  0  0  0  0  0  0  0  0  0  0
  149.1577  130.2201  155.6004 C   0  0  0  0  0  0  0  0  0  0  0  0
  147.9925  131.1866  155.5582 C   0  0  0  0  0  0  0  0  0  0  0  0
  148.3451  132.5146  156.0374 N   0  0  0  0  0  0  0  0  0  0  0  0
  147.8669  133.6725  155.4033 C   0  0  0  0  0  0  0  0  0  0  0  0
  147.0756  133.5228  154.3079 N   0  3  0  0  0  0  0  0  0  0  0  0
  146.6009  134.5912  153.6473 C   0  0  0  0  0  0  0  0  0  0  0  0
  145.7914  134.3909  152.5328 N   0  0  0  0  0  0  0  0  0  0  0  0
  145.8072  133.1786  151.7236 C   0  0  0  0  0  0  0  0  0  0  0  0
  144.7575  133.3875  150.6306 C   0  0  0  0  0  0  0  0  0  0  0  0
  144.6429  134.9071  150.5317 C   0  0  0  0  0  0  0  0  0  0  0  0
  144.8826  135.3858  151.9713 C   0  0  1  0  0  0  0  0  0  0  0  0
  143.5798  135.4866  152.7919 C   0  0  0  0  0  0  0  0  0  0  0  0
  142.9720  134.2169  152.8948 O   0  0  0  0  0  0  0  0  0  0  0  0
  146.8772  135.8441  154.0299 N   0  0  0  0  0  0  0  0  0  0  0  0
  147.6543  136.0467  155.1103 C   0  0  0  0  0  0  0  0  0  0  0  0
  148.1962  134.9781  155.8511 C   0  0  0  0  0  0  0  0  0  0  0  0
  149.0306  135.2438  157.0752 C   0  0  0  0  0  0  0  0  0  0  0  0
  150.1677  134.7852  157.1838 O   0  0  0  0  0  0  0  0  0  0  0  0
  148.4525  136.0197  158.0061 N   0  0  0  0  0  0  0  0  0  0  0  0
  149.0446  136.3474  159.2977 C   0  0  0  0  0  0  0  0  0  0  0  0
  148.2363  135.7927  160.4575 C   0  0  0  0  0  0  0  0  0  0  0  0
  147.8709  136.6576  161.4091 N   0  0  0  0  0  0  0  0  0  0  0  0
  147.1676  136.1598  162.4493 C   0  0  0  0  0  0  0  0  0  0  0  0
  146.8322  134.7931  162.5313 C   0  0  0  0  0  0  0  0  0  0  0  0
  147.2726  133.9779  161.4694 C   0  0  0  0  0  0  0  0  0  0  0  0
  147.9770  134.4807  160.4321 N   0  0  0  0  0  0  0  0  0  0  0  0
  150.3126  130.5356  156.3428 C   0  0  0  0  0  0  0  0  0  0  0  0
  151.4019  129.6431  156.3759 C   0  0  0  0  0  0  0  0  0  0  0  0
  152.8029  130.0603  157.2962 Cl  0  0  0  0  0  0  0  0  0  0  0  0
  145.3740  136.3597  151.9524 H   0  0  0  0  0  0  0  0  0  0  0  0
  153.3696  125.8419  155.1831 H   0  0  0  0  0  0  0  0  0  0  0  0
  152.3058  126.5261  153.9605 H   0  0  0  0  0  0  0  0  0  0  0  0
  151.6272  125.7194  155.3956 H   0  0  0  0  0  0  0  0  0  0  0  0
  150.1027  127.1939  154.3607 H   0  0  0  0  0  0  0  0  0  0  0  0
  148.2208  128.7544  154.3136 H   0  0  0  0  0  0  0  0  0  0  0  0
  147.6170  131.2561  154.5364 H   0  0  0  0  0  0  0  0  0  0  0  0
  147.1839  130.7857  156.1705 H   0  0  0  0  0  0  0  0  0  0  0  0
  148.9149  132.5962  156.8684 H   0  0  0  0  0  0  0  0  0  0  0  0
  146.7984  133.0608  151.2838 H   0  0  0  0  0  0  0  0  0  0  0  0
  145.5918  132.2928  152.3220 H   0  0  0  0  0  0  0  0  0  0  0  0
  145.0323  132.9180  149.6855 H   0  0  0  0  0  0  0  0  0  0  0  0
  143.8030  132.9663  150.9487 H   0  0  0  0  0  0  0  0  0  0  0  0
  145.4357  135.2870  149.8854 H   0  0  0  0  0  0  0  0  0  0  0  0
  143.6918  135.2357  150.1116 H   0  0  0  0  0  0  0  0  0  0  0  0
  143.7693  135.8817  153.7906 H   0  0  0  0  0  0  0  0  0  0  0  0
  142.8675  136.1581  152.3119 H   0  0  0  0  0  0  0  0  0  0  0  0
  142.8707  134.0021  153.8097 H   0  0  0  0  0  0  0  0  0  0  0  0
  147.8329  137.0760  155.3858 H   0  0  0  0  0  0  0  0  0  0  0  0
  147.5225  136.3719  157.8335 H   0  0  0  0  0  0  0  0  0  0  0  0
  150.0756  135.9905  159.3420 H   0  0  0  0  0  0  0  0  0  0  0  0
  149.0929  137.4328  159.3899 H   0  0  0  0  0  0  0  0  0  0  0  0
  146.8704  136.8556  163.2202 H   0  0  0  0  0  0  0  0  0  0  0  0
  146.2694  134.3931  163.3617 H   0  0  0  0  0  0  0  0  0  0  0  0
  147.0603  132.9191  161.4522 H   0  0  0  0  0  0  0  0  0  0  0  0
  150.3651  131.4669  156.8880 H   0  0  0  0  0  0  0  0  0  0  0  0
  146.8446  132.5812  153.9925 H   0  0  0  0  0  0  0  0  0  0  0  0
  1  2  1  0  0  0  0
  1 36  1  0  0  0  0
  1 37  1  0  0  0  0
  1 38  1  0  0  0  0
  2  3  1  0  0  0  0
  3 33  1  0  0  0  0
  3  4  2  0  0  0  0
  4  5  1  0  0  0  0
  4 39  1  0  0  0  0
  5  6  2  0  0  0  0
  5 40  1  0  0  0  0
  6  7  1  0  0  0  0
  6 32  1  0  0  0  0
  7  8  1  0  0  0  0
  7 41  1  0  0  0  0
  7 42  1  0  0  0  0
  8  9  1  0  0  0  0
  8 43  1  0  0  0  0
  9 21  1  0  0  0  0
  9 10  2  0  0  0  0
 10 11  1  0  0  0  0
 10 61  1  0  0  0  0
 11 12  1  0  0  0  0
 11 19  2  0  0  0  0
 12 16  1  0  0  0  0
 12 13  1  0  0  0  0
 13 14  1  0  0  0  0
 13 44  1  0  0  0  0
 13 45  1  0  0  0  0
 14 15  1  0  0  0  0
 14 46  1  0  0  0  0
 14 47  1  0  0  0  0
 15 16  1  0  0  0  0
 15 48  1  0  0  0  0
 15 49  1  0  0  0  0
 16 35  1  0  0  0  0
 16 17  1  0  0  0  0
 17 18  1  0  0  0  0
 17 50  1  0  0  0  0
 17 51  1  0  0  0  0
 18 52  1  0  0  0  0
 19 20  1  0  0  0  0
 20 21  2  0  0  0  0
 20 53  1  0  0  0  0
 21 22  1  0  0  0  0
 22 23  2  0  0  0  0
 22 24  1  0  0  0  0
 24 25  1  0  0  0  0
 24 54  1  0  0  0  0
 25 26  1  0  0  0  0
 25 55  1  0  0  0  0
 25 56  1  0  0  0  0
 26 31  1  0  0  0  0
 26 27  2  0  0  0  0
 27 28  1  0  0  0  0
 28 29  2  0  0  0  0
 28 57  1  0  0  0  0
 29 30  1  0  0  0  0
 29 58  1  0  0  0  0
 30 31  2  0  0  0  0
 30 59  1  0  0  0  0
 32 33  2  0  0  0  0
 32 60  1  0  0  0  0
 33 34  1  0  0  0  0
M  CHG  1  10   1
M  END
> <s_m_source_file>
AV-unprocessed.smi

> <i_m_source_file_index>
45

> <i_lp_mmshare_version>
43012

> <i_f3d_flags>
0

> <s_epik_input>
W0NIM11PYzFbY0hdW2NIXWMoW2NIXWMxQ2wpW0NIMl1bTkhdYzJuYyhOM1tDSDJdW0NIMl1bQ0gyXVtDQEhdM1tDSDJdW09IXSluW2NIXWMyQyg9TylbTkhdW0NIMl1jNG5bY0hdW2NIXVtjSF1uNA==

> <s_epik_cmdline>
J2VwaWtfcHl0aG9uJywgJy1waCcsICc3LjAnLCAnLXRuJywgJzgnLCAnLW1hJywgJzIwMCcsICctbWV0YWxfYmluZGluZycsICctaW1hZScsICc8aW5maWxlLm1hZT4nLCAnLW9tYWUnLCAnPG91dGZpbGUubWFlPic=

> <r_lp_tautomer_probability>
0.424989

> <r_epik_Ionization_Penalty>
2.31209

> <r_epik_Ionization_Penalty_Charging>
2.31199

> <r_epik_Ionization_Penalty_Neutral>
9.65277e-05

> <r_epik_State_Penalty>
2.29675

> <r_epik_Charging_Adjusted_Penalty>
4.60874

> <i_epik_Tot_Q>
1

> <i_epik_Tot_abs_Q>
1

> <r_epik_Metal_State_Penalty>
2.3404

> <b_epik_Metal_Only>
0

> <s_epik_Chemistry_Notes>
This compound contains an electron-poor aromatic ring that is susceptible to covalent hydrolysis at low pH, typically resulting in measured values for nitrogen ring protonation that are around two units higher than predicted values.

> <s_lp_Force_Field>
OPLS_2005

> <r_lp_Energy>
34.7273

> <b_lp_Chiralities_Consistent>
1

> <s_lp_Variant>
AV-unprocessed.smi:45-5

> <Gold.Version>
5.8.1

> <Gold.Id.Protein>
6NUR|6NUR_protein|mol2

> <Gold.PLP.Fitness>
54.5474

> <Gold.PLP.PLP>
-48.3339

> <Gold.PLP.part.hbond>
-3.0000

> <Gold.PLP.part.metal>
0.0000

> <Gold.PLP.part.buried>
-7.9178

> <Gold.PLP.part.nonpolar>
-39.1077

> <Gold.PLP.part.repulsive>
0.1613

> <Gold.PLP.ligand.clash>
0.0000

> <Gold.PLP.ligand.torsion>
1.6170

> <Gold.PLP.Chemscore.Hbond>
2.6020

> <Gold.PLP.Chemscore.CHOScore>
0.0000

> <Gold.PLP.Chemscore.Metal>
0.0000

> <Gold.Chemscore.Hbonds>
donor molecule, donor type, donor heavy atom, donor atom, acceptor molecule, acceptor atom, score
      P1  H  6896  6907       L1    23  0.11
      P1  H  6931  6943       L1    27  0.99

> <Gold.PLP.Chemscore.Internal.Correction>
1.6415

> <Gold.Rescore>
     Score         DG    S(hbond)    S(metal)    S(lipo)     H(rot)  DE(clash)    DE(int)     intcor
     12.75     -14.49       1.26        0.00     105.39       2.94       0.04       1.69       ----

> <Gold.Chemscore.Fitness>
12.7509

> <Gold.Chemscore.DG>
-14.4855

> <Gold.Chemscore.ZeroCoef>
-5.4800

> <Gold.Chemscore.Hbond>
1.2574

> <Gold.Chemscore.Metal>
0.0000

> <Gold.Chemscore.Lipo>
105.3923

> <Gold.Chemscore.Internal_Hbond>
0.0000

> <Gold.Chemscore.DEClash>
0.0433

> <Gold.Chemscore.DEInternal>
1.6913

> <Gold.Chemscore.Rot>
2.9395

> <Gold.Chemscore.Internal.Correction>
   9.000000E+99

> <Gold.Chemscore.Hbonds>
donor molecule, donor type, donor heavy atom, donor atom, acceptor molecule, acceptor atom, score
      L1  H    18    52       P1 10957  0.03
      P1  H  6896  6907       L1    23  0.11
      P1  H  6931  6943       L1    27  0.78
      P1  H  6934  6947       L1    27  0.01

> <Gold.Chemscore.Hbond.Weighted>
-4.1997

> <Gold.Chemscore.Metal.Weighted>
-0.0000

> <Gold.Chemscore.Lipo.Weighted>
-12.3309

> <Gold.Chemscore.Internal_Hbond.Weighted>
0.0000

> <Gold.Chemscore.DEClash.Weighted>
0.0433

> <Gold.Chemscore.DEInternal.Weighted>
1.6913

> <Gold.Chemscore.Rot.Weighted>
7.5251

> <Gold.Chemscore.Internal.Correction.Weighted>
   9.000000E+99

> <Gold.Protein.RotatedTorsions>
[ 6907 6896 6895 6894 ] final -119.27 input  -60.11 | X-H torsion
[ 7974 7965 7964 7962 ] final  126.55 input  175.53 | X-H torsion
[ 8008 7997 7996 7995 ] final   23.33 input   59.86 | X-H torsion
[ 10167 10162 10161 10158 ] final  121.38 input  -65.29 | X-H torsion
[ 10718 10713 10712 10709 ] final -173.82 input   66.30 | X-H torsion
[ 10763 10752 10751 10750 ] final    3.35 input  -60.55 | X-H torsion
[ 11005 11000 10999 10996 ] final   46.95 input  -57.11 | X-H torsion

> <Gold.Protein.ActiveResidues>
 VAL166  LYS551  ARG553  GLY616  TRP617  ASP618  TYR619  PRO620  LYS621  CYS622 
 ASP623  PHE694  ASN695  SER759  ASP760  ASP761  ALA762  ILE779  LEU786  VAL792 
 PHE793  MET794  SER795  GLU796  ALA797  LYS798  CYS799  TRP800  GLU811  SER814 

> <Gold.Protein.RotatedAtoms>
  150.8291  133.8122  159.3106 H   0  0  0  0  0  0  0  0  0  0  0  0  # atno 6907 bound_to 6896
  151.5858  135.1054  160.0037 H   0  0  0  0  0  0  0  0  0  0  0  0  # atno 6908 bound_to 6896
  152.4372  133.7341  159.6660 H   0  0  0  0  0  0  0  0  0  0  0  0  # atno 6909 bound_to 6896
  145.0605  139.3809  143.5008 H   0  0  0  0  0  0  0  0  0  0  0  0  # atno 7974 bound_to 7965
  154.9792  140.3100  155.4954 H   0  0  0  0  0  0  0  0  0  0  0  0  # atno 8008 bound_to 7997
  156.2955  140.2269  156.4830 H   0  0  0  0  0  0  0  0  0  0  0  0  # atno 8009 bound_to 7997
  154.7805  140.0446  157.1111 H   0  0  0  0  0  0  0  0  0  0  0  0  # atno 8010 bound_to 7997
  139.5923  144.7029  151.3260 H   0  0  0  0  0  0  0  0  0  0  0  0  # atno 10167 bound_to 10162
  156.7759  130.9466  151.3120 H   0  0  0  0  0  0  0  0  0  0  0  0  # atno 10718 bound_to 10713
  153.2844  135.6943  153.7353 H   0  0  0  0  0  0  0  0  0  0  0  0  # atno 10763 bound_to 10752
  153.6328  135.3407  155.3048 H   0  0  0  0  0  0  0  0  0  0  0  0  # atno 10764 bound_to 10752
  154.8505  135.4413  154.1908 H   0  0  0  0  0  0  0  0  0  0  0  0  # atno 10765 bound_to 10752
  140.1322  134.4690  155.8512 H   0  0  0  0  0  0  0  0  0  0  0  0  # atno 11005 bound_to 11000
  146.3524  140.0301  142.8651 LP  0  0  0  0  0  0  0  0  0  0  0  0  # atno 17320 bound_to 7965
  145.1415  140.9574  143.4486 LP  0  0  0  0  0  0  0  0  0  0  0  0  # atno 17321 bound_to 7965
  140.7183  143.7205  150.7699 LP  0  0  0  0  0  0  0  0  0  0  0  0  # atno 17342 bound_to 10162
  140.0764  143.5011  152.2553 LP  0  0  0  0  0  0  0  0  0  0  0  0  # atno 17343 bound_to 10162
  157.6669  130.9016  149.9952 LP  0  0  0  0  0  0  0  0  0  0  0  0  # atno 17370 bound_to 10713
  156.1248  130.3645  149.9827 LP  0  0  0  0  0  0  0  0  0  0  0  0  # atno 17371 bound_to 10713
  141.2172  133.6800  156.7091 LP  0  0  0  0  0  0  0  0  0  0  0  0  # atno 17394 bound_to 11000
  140.2827  134.8304  157.3947 LP  0  0  0  0  0  0  0  0  0  0  0  0  # atno 17395 bound_to 11000

$$$$
