AV-unprocessed.smi:247|AV-procd|sdf|1893|dock9
  -GOLD-   2262020563D 1   1.00000     0.00000
 Structure written by MMmdl.
 61 65  0  0  0  0  0  0  0  0  1 V2000
  146.9885  138.1282  151.4265 O   0  0  0  0  0  0  0  0  0  0  0  0
  145.9062  137.6942  152.2269 C   0  0  0  0  0  0  0  0  0  0  0  0
  145.7003  136.1537  152.2076 C   0  0  0  0  0  0  0  0  0  0  0  0
  146.9522  135.4766  152.8508 C   0  0  0  0  0  0  0  0  0  0  0  0
  147.1113  135.7032  154.2805 N   0  0  0  0  0  0  0  0  0  0  0  0
  147.9911  136.5731  154.8852 C   0  0  0  0  0  0  0  0  0  0  0  0
  147.9454  136.5970  156.1888 N   0  0  0  0  0  0  0  0  0  0  0  0
  146.9407  135.6925  156.5083 C   0  0  0  0  0  0  0  0  0  0  0  0
  146.3834  135.2254  157.7306 C   0  0  0  0  0  0  0  0  0  0  0  0
  146.8242  135.6672  158.9345 N   0  0  0  0  0  0  0  0  0  0  0  0
  145.9566  136.6672  159.5396 C   0  0  0  0  0  0  0  0  0  0  0  0
  146.3606  136.7256  161.0063 C   0  0  0  0  0  0  0  0  0  0  0  0
  146.7878  135.2904  161.3017 C   0  0  0  0  0  0  0  0  0  0  0  0
  147.3116  134.7360  159.9607 C   0  0  2  0  0  0  0  0  0  0  0  0
  148.8607  134.5244  159.9536 C   0  0  2  0  0  0  0  0  0  0  0  0
  149.3478  133.3571  160.8424 C   0  0  0  0  0  0  0  0  0  0  0  0
  149.3640  133.7375  162.2148 O   0  0  0  0  0  0  0  0  0  0  0  0
  150.3063  134.7686  162.4887 C   0  0  0  0  0  0  0  0  0  0  0  0
  149.9364  136.0505  161.7266 C   0  0  0  0  0  0  0  0  0  0  0  0
  149.7519  135.7625  160.2279 C   0  0  2  0  0  0  0  0  0  0  0  0
  149.3010  136.9146  159.5452 O   0  0  0  0  0  0  0  0  0  0  0  0
  145.3864  134.3053  157.6526 N   0  0  0  0  0  0  0  0  0  0  0  0
  144.9657  133.8652  156.4636 C   0  0  0  0  0  0  0  0  0  0  0  0
  145.3972  134.2058  155.2478 N   0  0  0  0  0  0  0  0  0  0  0  0
  146.3993  135.1281  155.3194 C   0  0  0  0  0  0  0  0  0  0  0  0
  144.3926  135.7902  152.9577 C   0  0  0  0  0  0  0  0  0  0  0  0
  144.0087  134.3106  152.7803 C   0  0  0  0  0  0  0  0  0  0  0  0
  143.8765  134.0095  151.3963 O   0  0  0  0  0  0  0  0  0  0  0  0
  145.0869  134.1830  150.6691 C   0  0  0  0  0  0  0  0  0  0  0  0
  145.5504  135.6506  150.7482 C   0  0  0  0  0  0  0  0  0  0  0  0
  147.7270  137.5609  151.5876 H   0  0  0  0  0  0  0  0  0  0  0  0
  146.0818  138.0407  153.2460 H   0  0  0  0  0  0  0  0  0  0  0  0
  145.0157  138.2088  151.8662 H   0  0  0  0  0  0  0  0  0  0  0  0
  146.9457  134.3988  152.6974 H   0  0  0  0  0  0  0  0  0  0  0  0
  147.8570  135.8306  152.3548 H   0  0  0  0  0  0  0  0  0  0  0  0
  148.6810  137.1878  154.3258 H   0  0  0  0  0  0  0  0  0  0  0  0
  146.0687  137.6408  159.0625 H   0  0  0  0  0  0  0  0  0  0  0  0
  144.9140  136.3588  159.4449 H   0  0  0  0  0  0  0  0  0  0  0  0
  147.2029  137.4060  161.1319 H   0  0  0  0  0  0  0  0  0  0  0  0
  145.5533  137.0715  161.6522 H   0  0  0  0  0  0  0  0  0  0  0  0
  147.5107  135.2310  162.1158 H   0  0  0  0  0  0  0  0  0  0  0  0
  145.9123  134.7159  161.6079 H   0  0  0  0  0  0  0  0  0  0  0  0
  146.8449  133.7584  159.8481 H   0  0  0  0  0  0  0  0  0  0  0  0
  149.0903  134.2401  158.9256 H   0  0  0  0  0  0  0  0  0  0  0  0
  148.7189  132.4775  160.7206 H   0  0  0  0  0  0  0  0  0  0  0  0
  150.3510  133.0489  160.5438 H   0  0  0  0  0  0  0  0  0  0  0  0
  150.3141  134.9624  163.5615 H   0  0  0  0  0  0  0  0  0  0  0  0
  151.3100  134.4354  162.2203 H   0  0  0  0  0  0  0  0  0  0  0  0
  149.0387  136.4829  162.1573 H   0  0  0  0  0  0  0  0  0  0  0  0
  150.7168  136.7989  161.8675 H   0  0  0  0  0  0  0  0  0  0  0  0
  150.7420  135.5422  159.8261 H   0  0  0  0  0  0  0  0  0  0  0  0
  149.7158  136.9437  158.6967 H   0  0  0  0  0  0  0  0  0  0  0  0
  144.1727  133.1326  156.4914 H   0  0  0  0  0  0  0  0  0  0  0  0
  144.4606  136.0408  154.0158 H   0  0  0  0  0  0  0  0  0  0  0  0
  143.5670  136.3889  152.5718 H   0  0  0  0  0  0  0  0  0  0  0  0
  144.7375  133.6455  153.2440 H   0  0  0  0  0  0  0  0  0  0  0  0
  143.0545  134.1152  153.2697 H   0  0  0  0  0  0  0  0  0  0  0  0
  145.8488  133.4961  151.0375 H   0  0  0  0  0  0  0  0  0  0  0  0
  144.9059  133.9106  149.6293 H   0  0  0  0  0  0  0  0  0  0  0  0
  144.8120  136.2511  150.2161 H   0  0  0  0  0  0  0  0  0  0  0  0
  146.4867  135.7764  150.2034 H   0  0  0  0  0  0  0  0  0  0  0  0
  1  2  1  0  0  0  0
  1 31  1  0  0  0  0
  2  3  1  0  0  0  0
  2 32  1  0  0  0  0
  2 33  1  0  0  0  0
  3 30  1  0  0  0  0
  3  4  1  0  0  0  0
  3 26  1  0  0  0  0
  4  5  1  0  0  0  0
  4 34  1  0  0  0  0
  4 35  1  0  0  0  0
  5 25  1  0  0  0  0
  5  6  1  0  0  0  0
  6  7  2  0  0  0  0
  6 36  1  0  0  0  0
  7  8  1  0  0  0  0
  8 25  2  0  0  0  0
  8  9  1  0  0  0  0
  9 10  1  0  0  0  0
  9 22  2  0  0  0  0
 10 14  1  0  0  0  0
 10 11  1  0  0  0  0
 11 12  1  0  0  0  0
 11 37  1  0  0  0  0
 11 38  1  0  0  0  0
 12 13  1  0  0  0  0
 12 39  1  0  0  0  0
 12 40  1  0  0  0  0
 13 14  1  0  0  0  0
 13 41  1  0  0  0  0
 13 42  1  0  0  0  0
 14 15  1  0  0  0  0
 14 43  1  0  0  0  0
 15 20  1  0  0  0  0
 15 16  1  0  0  0  0
 15 44  1  0  0  0  0
 16 17  1  0  0  0  0
 16 45  1  0  0  0  0
 16 46  1  0  0  0  0
 17 18  1  0  0  0  0
 18 19  1  0  0  0  0
 18 47  1  0  0  0  0
 18 48  1  0  0  0  0
 19 20  1  0  0  0  0
 19 49  1  0  0  0  0
 19 50  1  0  0  0  0
 20 21  1  0  0  0  0
 20 51  1  0  0  0  0
 21 52  1  0  0  0  0
 22 23  1  0  0  0  0
 23 24  2  0  0  0  0
 23 53  1  0  0  0  0
 24 25  1  0  0  0  0
 26 27  1  0  0  0  0
 26 54  1  0  0  0  0
 26 55  1  0  0  0  0
 27 28  1  0  0  0  0
 27 56  1  0  0  0  0
 27 57  1  0  0  0  0
 28 29  1  0  0  0  0
 29 30  1  0  0  0  0
 29 58  1  0  0  0  0
 29 59  1  0  0  0  0
 30 60  1  0  0  0  0
 30 61  1  0  0  0  0
M  END
> <s_m_source_file>
AV-unprocessed.smi

> <i_m_source_file_index>
247

> <i_lp_mmshare_version>
43012

> <i_f3d_flags>
0

> <s_epik_input>
W0NIMl0xW0NIMl1PW0NIMl1bQ0gyXUMxKFtDSDJdW09IXSlbQ0gyXW4oW2NIXW4yKWMoYzIzKW5bY0hdbmMzTjRbQ0gyXVtDSDJdW0NIMl1bQ0BIXTRbQ0BASF01W0NIMl1PW0NIMl1bQ0gyXVtDQEhdNVtPSF0=

> <s_epik_cmdline>
J2VwaWtfcHl0aG9uJywgJy1waCcsICc3LjAnLCAnLXRuJywgJzgnLCAnLW1hJywgJzIwMCcsICctbWV0YWxfYmluZGluZycsICctaW1hZScsICc8aW5maWxlLm1hZT4nLCAnLW9tYWUnLCAnPG91dGZpbGUubWFlPic=

> <r_lp_tautomer_probability>
1

> <r_epik_Ionization_Penalty>
0.00362597

> <r_epik_Ionization_Penalty_Charging>
0

> <r_epik_Ionization_Penalty_Neutral>
0.00362597

> <r_epik_State_Penalty>
0.00241433

> <r_epik_Charging_Adjusted_Penalty>
0.00241433

> <i_epik_Tot_Q>
0

> <i_epik_Tot_abs_Q>
0

> <r_epik_Metal_State_Penalty>
-0

> <b_epik_Metal_Only>
0

> <s_lp_Force_Field>
OPLS_2005

> <r_lp_Energy>
64.0337

> <b_lp_Chiralities_Consistent>
1

> <s_lp_Variant>
AV-unprocessed.smi:247-6

> <Gold.Version>
5.8.1

> <Gold.Id.Protein>
6NUR|6NUR_protein|mol2

> <Gold.PLP.Fitness>
43.4708

> <Gold.PLP.PLP>
-31.4647

> <Gold.PLP.part.hbond>
-5.0453

> <Gold.PLP.part.metal>
0.0000

> <Gold.PLP.part.buried>
-2.4501

> <Gold.PLP.part.nonpolar>
-26.7566

> <Gold.PLP.part.repulsive>
0.3038

> <Gold.PLP.ligand.clash>
0.0000

> <Gold.PLP.ligand.torsion>
0.6135

> <Gold.PLP.Chemscore.Hbond>
2.3360

> <Gold.PLP.Chemscore.CHOScore>
1.9630

> <Gold.PLP.Chemscore.Metal>
0.0000

> <Gold.Chemscore.Hbonds>
donor molecule, donor type, donor heavy atom, donor atom, acceptor molecule, acceptor atom, score
      L1  H     1    31       P1  7948  1.00
      L1  C     6    36       P1  7948  0.43
      L1  C    23    53       P1 10957  0.76

> <Gold.PLP.Chemscore.Internal.Correction>
0.3362

> <Gold.Rescore>
     Score         DG    S(hbond)    S(metal)    S(lipo)     H(rot)  DE(clash)    DE(int)     intcor
      8.92     -13.10       1.87        0.00      82.47       3.23       0.93       3.26       ----

> <Gold.Chemscore.Fitness>
8.9174

> <Gold.Chemscore.DG>
-13.1025

> <Gold.Chemscore.ZeroCoef>
-5.4800

> <Gold.Chemscore.Hbond>
1.8672

> <Gold.Chemscore.Metal>
0.0000

> <Gold.Chemscore.Lipo>
82.4723

> <Gold.Chemscore.Internal_Hbond>
0.0000

> <Gold.Chemscore.DEClash>
0.9277

> <Gold.Chemscore.DEInternal>
3.2574

> <Gold.Chemscore.Rot>
3.2278

> <Gold.Chemscore.Internal.Correction>
   9.000000E+99

> <Gold.Chemscore.Hbonds>
donor molecule, donor type, donor heavy atom, donor atom, acceptor molecule, acceptor atom, score
      L1  H     1    31       P1  7948  1.00

> <Gold.Chemscore.Hbond.Weighted>
-6.2365

> <Gold.Chemscore.Metal.Weighted>
-0.0000

> <Gold.Chemscore.Lipo.Weighted>
-9.6493

> <Gold.Chemscore.Internal_Hbond.Weighted>
0.0000

> <Gold.Chemscore.DEClash.Weighted>
0.9277

> <Gold.Chemscore.DEInternal.Weighted>
3.2574

> <Gold.Chemscore.Rot.Weighted>
8.2633

> <Gold.Chemscore.Internal.Correction.Weighted>
   9.000000E+99

> <Gold.Protein.RotatedTorsions>
[ 6907 6896 6895 6894 ] final   38.75 input  -60.11 | X-H torsion
[ 7974 7965 7964 7962 ] final -134.40 input  175.53 | X-H torsion
[ 8008 7997 7996 7995 ] final -135.95 input   59.86 | X-H torsion
[ 10167 10162 10161 10158 ] final  -33.36 input  -65.29 | X-H torsion
[ 10718 10713 10712 10709 ] final -128.53 input   66.30 | X-H torsion
[ 10763 10752 10751 10750 ] final -116.89 input  -60.55 | X-H torsion
[ 11005 11000 10999 10996 ] final  159.51 input  -57.11 | X-H torsion

> <Gold.Protein.ActiveResidues>
 VAL166  LYS551  ARG553  GLY616  TRP617  ASP618  TYR619  PRO620  LYS621  CYS622 
 ASP623  PHE694  ASN695  SER759  ASP760  ASP761  ALA762  ILE779  LEU786  VAL792 
 PHE793  MET794  SER795  GLU796  ALA797  LYS798  CYS799  TRP800  GLU811  SER814 

> <Gold.Protein.RotatedAtoms>
  152.1606  134.8915  160.0541 H   0  0  0  0  0  0  0  0  0  0  0  0  # atno 6907 bound_to 6896
  151.9912  133.3787  159.4153 H   0  0  0  0  0  0  0  0  0  0  0  0  # atno 6908 bound_to 6896
  150.6887  134.3857  159.5097 H   0  0  0  0  0  0  0  0  0  0  0  0  # atno 6909 bound_to 6896
  144.9106  140.6890  143.5027 H   0  0  0  0  0  0  0  0  0  0  0  0  # atno 7974 bound_to 7965
  155.3872  140.0497  157.3042 H   0  0  0  0  0  0  0  0  0  0  0  0  # atno 8008 bound_to 7997
  154.5054  140.2172  155.9224 H   0  0  0  0  0  0  0  0  0  0  0  0  # atno 8009 bound_to 7997
  156.1518  140.3134  155.8666 H   0  0  0  0  0  0  0  0  0  0  0  0  # atno 8010 bound_to 7997
  140.7206  143.3626  151.1933 H   0  0  0  0  0  0  0  0  0  0  0  0  # atno 10167 bound_to 10162
  156.1960  130.6826  151.0482 H   0  0  0  0  0  0  0  0  0  0  0  0  # atno 10718 bound_to 10713
  154.8536  135.4329  154.1893 H   0  0  0  0  0  0  0  0  0  0  0  0  # atno 10763 bound_to 10752
  153.2965  135.6965  153.7249 H   0  0  0  0  0  0  0  0  0  0  0  0  # atno 10764 bound_to 10752
  153.6396  135.3470  155.3041 H   0  0  0  0  0  0  0  0  0  0  0  0  # atno 10765 bound_to 10752
  140.1968  134.8367  157.2974 H   0  0  0  0  0  0  0  0  0  0  0  0  # atno 11005 bound_to 11000
  145.3460  139.1719  143.4460 LP  0  0  0  0  0  0  0  0  0  0  0  0  # atno 17320 bound_to 7965
  146.3156  140.3507  142.8656 LP  0  0  0  0  0  0  0  0  0  0  0  0  # atno 17321 bound_to 7965
  139.7181  143.9267  152.2975 LP  0  0  0  0  0  0  0  0  0  0  0  0  # atno 17342 bound_to 10162
  139.9015  144.6909  150.8660 LP  0  0  0  0  0  0  0  0  0  0  0  0  # atno 17343 bound_to 10162
  157.6958  131.0794  150.6974 LP  0  0  0  0  0  0  0  0  0  0  0  0  # atno 17370 bound_to 10713
  156.7031  130.4629  149.5567 LP  0  0  0  0  0  0  0  0  0  0  0  0  # atno 17371 bound_to 10713
  140.2098  134.4153  155.7619 LP  0  0  0  0  0  0  0  0  0  0  0  0  # atno 17394 bound_to 11000
  141.2227  133.7112  156.8319 LP  0  0  0  0  0  0  0  0  0  0  0  0  # atno 17395 bound_to 11000

$$$$
