AV-unprocessed.smi:3285|AV-procd|sdf|12580|dock2
  -GOLD-   2272018503D 1   1.00000     0.00000
 Structure written by MMmdl.
 45 46  0  0  0  0  0  0  0  0  2 V2000
  146.8864  141.8307  153.7868 C   0  0  0  0  0  0  0  0  0  0  0  0
  147.6659  140.6011  154.1563 C   0  0  0  0  0  0  0  0  0  0  0  0
  147.1259  139.4071  153.9801 N   0  0  0  0  0  0  0  0  0  0  0  0
  148.0843  138.4853  154.4118 O   0  0  0  0  0  0  0  0  0  0  0  0
  149.1764  139.1690  154.8378 C   0  0  0  0  0  0  0  0  0  0  0  0
  150.3203  138.3558  155.3421 C   0  0  0  0  0  0  0  0  0  0  0  0
  148.9779  140.5158  154.7042 C   0  0  0  0  0  0  0  0  0  0  0  0
  149.9129  141.6428  155.0504 C   0  0  0  0  0  0  0  0  0  0  0  0
  150.4435  141.5136  156.4840 C   0  0  0  0  0  0  0  0  0  0  0  0
  149.8898  142.5749  157.3505 N   0  3  0  0  0  0  0  0  0  0  0  0
  150.8344  143.1382  158.3407 C   0  0  2  0  0  0  0  0  0  0  0  0
  151.3830  142.0109  159.2338 C   0  0  0  0  0  0  0  0  0  0  0  0
  152.3356  142.5493  160.3129 C   0  0  0  0  0  0  0  0  0  0  0  0
  151.6571  143.6349  161.1704 C   0  0  1  0  0  0  0  0  0  0  0  0
  152.5687  144.1179  162.3103 C   0  0  0  0  0  0  0  0  0  0  0  0
  151.1035  144.7878  160.2951 C   0  0  1  0  0  0  0  0  0  0  0  0
  152.1888  145.7021  159.6913 C   0  0  0  0  0  0  0  0  0  0  0  0
  150.1621  144.2271  159.2076 C   0  0  0  0  0  0  0  0  0  0  0  0
  146.6730  142.4351  154.6683 H   0  0  0  0  0  0  0  0  0  0  0  0
  145.9337  141.5809  153.3181 H   0  0  0  0  0  0  0  0  0  0  0  0
  147.4452  142.4506  153.0858 H   0  0  0  0  0  0  0  0  0  0  0  0
  150.7729  138.8219  156.2170 H   0  0  0  0  0  0  0  0  0  0  0  0
  151.0889  138.2563  154.5757 H   0  0  0  0  0  0  0  0  0  0  0  0
  149.9947  137.3551  155.6265 H   0  0  0  0  0  0  0  0  0  0  0  0
  150.7539  141.6646  154.3562 H   0  0  0  0  0  0  0  0  0  0  0  0
  149.4122  142.6050  154.9365 H   0  0  0  0  0  0  0  0  0  0  0  0
  150.1752  140.5388  156.8937 H   0  0  0  0  0  0  0  0  0  0  0  0
  151.5317  141.5719  156.4768 H   0  0  0  0  0  0  0  0  0  0  0  0
  149.5368  143.3257  156.7745 H   0  0  0  0  0  0  0  0  0  0  0  0
  151.6726  143.5723  157.7941 H   0  0  0  0  0  0  0  0  0  0  0  0
  150.5567  141.4856  159.7151 H   0  0  0  0  0  0  0  0  0  0  0  0
  151.9044  141.2713  158.6248 H   0  0  0  0  0  0  0  0  0  0  0  0
  152.6605  141.7255  160.9494 H   0  0  0  0  0  0  0  0  0  0  0  0
  153.2377  142.9455  159.8459 H   0  0  0  0  0  0  0  0  0  0  0  0
  150.7963  143.1662  161.6505 H   0  0  0  0  0  0  0  0  0  0  0  0
  153.5071  144.5255  161.9337 H   0  0  0  0  0  0  0  0  0  0  0  0
  152.8183  143.2966  162.9828 H   0  0  0  0  0  0  0  0  0  0  0  0
  152.0807  144.8910  162.9047 H   0  0  0  0  0  0  0  0  0  0  0  0
  150.4963  145.4232  160.9416 H   0  0  0  0  0  0  0  0  0  0  0  0
  152.8916  145.1525  159.0660 H   0  0  0  0  0  0  0  0  0  0  0  0
  152.7625  146.2078  160.4677 H   0  0  0  0  0  0  0  0  0  0  0  0
  151.7404  146.4808  159.0736 H   0  0  0  0  0  0  0  0  0  0  0  0
  149.8005  145.0477  158.5884 H   0  0  0  0  0  0  0  0  0  0  0  0
  149.2785  143.8049  159.6891 H   0  0  0  0  0  0  0  0  0  0  0  0
  149.1159  142.1722  157.8596 H   0  0  0  0  0  0  0  0  0  0  0  0
  1  2  1  0  0  0  0
  1 19  1  0  0  0  0
  1 20  1  0  0  0  0
  1 21  1  0  0  0  0
  2  7  1  0  0  0  0
  2  3  2  0  0  0  0
  3  4  1  0  0  0  0
  4  5  1  0  0  0  0
  5  6  1  0  0  0  0
  5  7  2  0  0  0  0
  6 22  1  0  0  0  0
  6 23  1  0  0  0  0
  6 24  1  0  0  0  0
  7  8  1  0  0  0  0
  8  9  1  0  0  0  0
  8 25  1  0  0  0  0
  8 26  1  0  0  0  0
  9 10  1  0  0  0  0
  9 27  1  0  0  0  0
  9 28  1  0  0  0  0
 10 11  1  0  0  0  0
 10 29  1  0  0  0  0
 10 45  1  0  0  0  0
 11 18  1  0  0  0  0
 11 12  1  0  0  0  0
 11 30  1  0  0  0  0
 12 13  1  0  0  0  0
 12 31  1  0  0  0  0
 12 32  1  0  0  0  0
 13 14  1  0  0  0  0
 13 33  1  0  0  0  0
 13 34  1  0  0  0  0
 14 15  1  0  0  0  0
 14 16  1  0  0  0  0
 14 35  1  0  0  0  0
 15 36  1  0  0  0  0
 15 37  1  0  0  0  0
 15 38  1  0  0  0  0
 16 17  1  0  0  0  0
 16 18  1  0  0  0  0
 16 39  1  0  0  0  0
 17 40  1  0  0  0  0
 17 41  1  0  0  0  0
 17 42  1  0  0  0  0
 18 43  1  0  0  0  0
 18 44  1  0  0  0  0
M  CHG  1  10   1
M  END
> <s_m_source_file>
AV-unprocessed.smi

> <i_m_source_file_index>
3285

> <i_lp_mmshare_version>
43012

> <i_f3d_flags>
0

> <s_epik_input>
W0NIM11jMW5vYyhbQ0gzXSljMVtDSDJdW0NIMl1bTkhdW0NAQEhdMltDSDJdW0NIMl1bQ0BASF0oW0NIM10pW0NAQEhdKFtDSDNdKVtDSDJdMg==

> <s_epik_cmdline>
J2VwaWtfcHl0aG9uJywgJy1waCcsICc3LjAnLCAnLXRuJywgJzgnLCAnLW1hJywgJzIwMCcsICctbWV0YWxfYmluZGluZycsICctaW1hZScsICc8aW5maWxlLm1hZT4nLCAnLW9tYWUnLCAnPG91dGZpbGUubWFlPic=

> <r_lp_tautomer_probability>
1

> <r_epik_Ionization_Penalty>
0.000204615

> <r_epik_Ionization_Penalty_Charging>
0.000204615

> <r_epik_Ionization_Penalty_Neutral>
9.28663e-11

> <r_epik_State_Penalty>
-0

> <r_epik_Charging_Adjusted_Penalty>
0.000204615

> <i_epik_Tot_Q>
1

> <i_epik_Tot_abs_Q>
1

> <r_epik_Metal_State_Penalty>
-0

> <b_epik_Metal_Only>
0

> <s_lp_Force_Field>
OPLS_2005

> <r_lp_Energy>
12.1865

> <b_lp_Chiralities_Consistent>
1

> <s_lp_Variant>
AV-unprocessed.smi:3285-1

> <Gold.Version>
5.8.1

> <Gold.Id.Protein>
6NUR|6NUR_protein|mol2

> <Gold.PLP.Fitness>
43.9188

> <Gold.PLP.PLP>
-39.2962

> <Gold.PLP.part.hbond>
-1.0000

> <Gold.PLP.part.metal>
0.0000

> <Gold.PLP.part.buried>
-2.2146

> <Gold.PLP.part.nonpolar>
-36.3706

> <Gold.PLP.part.repulsive>
0.4077

> <Gold.PLP.ligand.clash>
0.0000

> <Gold.PLP.ligand.torsion>
0.6963

> <Gold.PLP.Chemscore.Hbond>
2.0000

> <Gold.PLP.Chemscore.CHOScore>
0.0000

> <Gold.PLP.Chemscore.Metal>
0.0000

> <Gold.Chemscore.Hbonds>
donor molecule, donor type, donor heavy atom, donor atom, acceptor molecule, acceptor atom, score
      L1  H    10    29       P1  8028  2.00

> <Gold.PLP.Chemscore.Internal.Correction>
0.0152

> <Gold.Rescore>
     Score         DG    S(hbond)    S(metal)    S(lipo)     H(rot)  DE(clash)    DE(int)     intcor
     18.80     -20.86       0.98        0.00     132.96       1.35       1.37       0.68       ----

> <Gold.Chemscore.Fitness>
18.8023

> <Gold.Chemscore.DG>
-20.8589

> <Gold.Chemscore.ZeroCoef>
-5.4800

> <Gold.Chemscore.Hbond>
0.9789

> <Gold.Chemscore.Metal>
0.0000

> <Gold.Chemscore.Lipo>
132.9600

> <Gold.Chemscore.Internal_Hbond>
0.0000

> <Gold.Chemscore.DEClash>
1.3720

> <Gold.Chemscore.DEInternal>
0.6845

> <Gold.Chemscore.Rot>
1.3465

> <Gold.Chemscore.Internal.Correction>
   9.000000E+99

> <Gold.Chemscore.Hbonds>
donor molecule, donor type, donor heavy atom, donor atom, acceptor molecule, acceptor atom, score
      L1  H    10    29       P1  8028  0.99

> <Gold.Chemscore.Hbond.Weighted>
-3.2695

> <Gold.Chemscore.Metal.Weighted>
-0.0000

> <Gold.Chemscore.Lipo.Weighted>
-15.5563

> <Gold.Chemscore.Internal_Hbond.Weighted>
0.0000

> <Gold.Chemscore.DEClash.Weighted>
1.3720

> <Gold.Chemscore.DEInternal.Weighted>
0.6845

> <Gold.Chemscore.Rot.Weighted>
3.4470

> <Gold.Chemscore.Internal.Correction.Weighted>
   9.000000E+99

> <Gold.Protein.RotatedTorsions>
[ 6907 6896 6895 6894 ] final  -11.73 input  -60.11 | X-H torsion
[ 7974 7965 7964 7962 ] final  110.43 input  175.53 | X-H torsion
[ 8008 7997 7996 7995 ] final -117.00 input   59.86 | X-H torsion
[ 10167 10162 10161 10158 ] final -105.08 input  -65.29 | X-H torsion
[ 10718 10713 10712 10709 ] final  -15.99 input   66.30 | X-H torsion
[ 10763 10752 10751 10750 ] final    7.53 input  -60.55 | X-H torsion
[ 11005 11000 10999 10996 ] final   -1.98 input  -57.11 | X-H torsion

> <Gold.Protein.ActiveResidues>
 VAL166  LYS551  ARG553  GLY616  TRP617  ASP618  TYR619  PRO620  LYS621  CYS622 
 ASP623  PHE694  ASN695  SER759  ASP760  ASP761  ALA762  ILE779  LEU786  VAL792 
 PHE793  MET794  SER795  GLU796  ALA797  LYS798  CYS799  TRP800  GLU811  SER814 

> <Gold.Protein.RotatedAtoms>
  151.3816  135.0941  159.9497 H   0  0  0  0  0  0  0  0  0  0  0  0  # atno 6907 bound_to 6896
  152.5106  133.9066  159.7478 H   0  0  0  0  0  0  0  0  0  0  0  0  # atno 6908 bound_to 6896
  150.9501  133.6504  159.2802 H   0  0  0  0  0  0  0  0  0  0  0  0  # atno 6909 bound_to 6896
  145.2550  139.2724  143.4047 H   0  0  0  0  0  0  0  0  0  0  0  0  # atno 7974 bound_to 7965
  155.0768  140.0394  157.2626 H   0  0  0  0  0  0  0  0  0  0  0  0  # atno 8008 bound_to 7997
  154.6939  140.2659  155.6761 H   0  0  0  0  0  0  0  0  0  0  0  0  # atno 8009 bound_to 7997
  156.2738  140.2754  156.1526 H   0  0  0  0  0  0  0  0  0  0  0  0  # atno 8010 bound_to 7997
  140.2023  143.3809  152.1119 H   0  0  0  0  0  0  0  0  0  0  0  0  # atno 10167 bound_to 10162
  156.5940  130.4806  149.6267 H   0  0  0  0  0  0  0  0  0  0  0  0  # atno 10718 bound_to 10713
  153.2352  135.6897  153.7845 H   0  0  0  0  0  0  0  0  0  0  0  0  # atno 10763 bound_to 10752
  153.6995  135.3300  155.3222 H   0  0  0  0  0  0  0  0  0  0  0  0  # atno 10764 bound_to 10752
  154.8331  135.4564  154.1253 H   0  0  0  0  0  0  0  0  0  0  0  0  # atno 10765 bound_to 10752
  140.6534  133.9384  155.8393 H   0  0  0  0  0  0  0  0  0  0  0  0  # atno 11005 bound_to 11000
  146.3292  140.2951  142.8617 LP  0  0  0  0  0  0  0  0  0  0  0  0  # atno 17320 bound_to 7965
  144.9469  140.8137  143.5596 LP  0  0  0  0  0  0  0  0  0  0  0  0  # atno 17321 bound_to 7965
  139.5212  144.7043  151.5401 LP  0  0  0  0  0  0  0  0  0  0  0  0  # atno 17342 bound_to 10162
  140.6381  143.8943  150.6666 LP  0  0  0  0  0  0  0  0  0  0  0  0  # atno 17343 bound_to 10162
  156.2525  130.6916  151.1658 LP  0  0  0  0  0  0  0  0  0  0  0  0  # atno 17370 bound_to 10713
  157.7296  131.0622  150.5764 LP  0  0  0  0  0  0  0  0  0  0  0  0  # atno 17371 bound_to 10713
  141.0520  134.0471  157.3771 LP  0  0  0  0  0  0  0  0  0  0  0  0  # atno 17394 bound_to 11000
  139.9038  135.0173  156.7392 LP  0  0  0  0  0  0  0  0  0  0  0  0  # atno 17395 bound_to 11000

$$$$
