AV-unprocessed.smi:2751|AV-procd|sdf|10598|dock10
  -GOLD-   2272015 53D 1   1.00000     0.00000
 Structure written by MMmdl.
 35 36  0  0  0  0  0  0  0  0  2 V2000
  149.9820  140.9675  154.5252 O   0  0  0  0  0  0  0  0  0  0  0  0
  149.8363  139.8708  155.0665 C   0  0  0  0  0  0  0  0  0  0  0  0
  150.5951  139.4398  156.0853 N   0  0  0  0  0  0  0  0  0  0  0  0
  151.6911  140.1923  156.6862 C   0  0  0  0  0  0  0  0  0  0  0  0
  151.2890  140.7877  158.0466 C   0  0  0  0  0  0  0  0  0  0  0  0
  152.0176  142.1032  158.3638 C   0  0  1  0  0  0  0  0  0  0  0  0
  151.3390  143.3114  157.6892 C   0  0  0  0  0  0  0  0  0  0  0  0
  152.0347  144.6167  158.0905 C   0  0  0  0  0  0  0  0  0  0  0  0
  152.1114  144.7123  159.6176 C   0  0  0  0  0  0  0  0  0  0  0  0
  152.7443  143.4391  160.2005 C   0  0  0  0  0  0  0  0  0  0  0  0
  152.0105  142.2939  159.7774 O   0  0  0  0  0  0  0  0  0  0  0  0
  148.9120  138.9596  154.7184 N   0  0  0  0  0  0  0  0  0  0  0  0
  147.9486  139.0704  153.6838 C   0  0  0  0  0  0  0  0  0  0  0  0
  147.6644  138.1620  152.7475 N   0  3  0  0  0  0  0  0  0  0  0  0
  146.6734  138.6541  151.9360 C   0  0  0  0  0  0  0  0  0  0  0  0
  146.3748  139.9011  152.4293 C   0  0  0  0  0  0  0  0  0  0  0  0
  147.1678  140.1752  153.5264 O   0  0  0  0  0  0  0  0  0  0  0  0
  150.4078  138.5264  156.4729 H   0  0  0  0  0  0  0  0  0  0  0  0
  152.5707  139.5545  156.7881 H   0  0  0  0  0  0  0  0  0  0  0  0
  151.9675  140.9922  155.9988 H   0  0  0  0  0  0  0  0  0  0  0  0
  150.2128  140.9652  158.0506 H   0  0  0  0  0  0  0  0  0  0  0  0
  151.4843  140.0674  158.8422 H   0  0  0  0  0  0  0  0  0  0  0  0
  153.0498  142.0282  158.0162 H   0  0  0  0  0  0  0  0  0  0  0  0
  151.3569  143.1998  156.6047 H   0  0  0  0  0  0  0  0  0  0  0  0
  150.2891  143.3543  157.9819 H   0  0  0  0  0  0  0  0  0  0  0  0
  153.0404  144.6423  157.6695 H   0  0  0  0  0  0  0  0  0  0  0  0
  151.5005  145.4746  157.6813 H   0  0  0  0  0  0  0  0  0  0  0  0
  152.6860  145.5904  159.9132 H   0  0  0  0  0  0  0  0  0  0  0  0
  151.1089  144.8410  160.0279 H   0  0  0  0  0  0  0  0  0  0  0  0
  153.7880  143.3483  159.8960 H   0  0  0  0  0  0  0  0  0  0  0  0
  152.7339  143.4810  161.2897 H   0  0  0  0  0  0  0  0  0  0  0  0
  148.0889  137.2503  152.6260 H   0  0  0  0  0  0  0  0  0  0  0  0
  146.2878  138.0795  151.1060 H   0  0  0  0  0  0  0  0  0  0  0  0
  145.6737  140.6699  152.1382 H   0  0  0  0  0  0  0  0  0  0  0  0
  148.8969  138.0983  155.2444 H   0  0  0  0  0  0  0  0  0  0  0  0
  1  2  2  0  0  0  0
  2 12  1  0  0  0  0
  2  3  1  0  0  0  0
  3  4  1  0  0  0  0
  3 18  1  0  0  0  0
  4  5  1  0  0  0  0
  4 19  1  0  0  0  0
  4 20  1  0  0  0  0
  5  6  1  0  0  0  0
  5 21  1  0  0  0  0
  5 22  1  0  0  0  0
  6 11  1  0  0  0  0
  6  7  1  0  0  0  0
  6 23  1  0  0  0  0
  7  8  1  0  0  0  0
  7 24  1  0  0  0  0
  7 25  1  0  0  0  0
  8  9  1  0  0  0  0
  8 26  1  0  0  0  0
  8 27  1  0  0  0  0
  9 10  1  0  0  0  0
  9 28  1  0  0  0  0
  9 29  1  0  0  0  0
 10 11  1  0  0  0  0
 10 30  1  0  0  0  0
 10 31  1  0  0  0  0
 12 13  1  0  0  0  0
 12 35  1  0  0  0  0
 13 17  1  0  0  0  0
 13 14  2  0  0  0  0
 14 32  1  0  0  0  0
 14 15  1  0  0  0  0
 15 33  1  0  0  0  0
 15 16  2  0  0  0  0
 16 34  1  0  0  0  0
 16 17  1  0  0  0  0
M  CHG  1  14   1
M  END
> <s_m_source_file>
AV-unprocessed.smi

> <i_m_source_file_index>
2751

> <i_lp_mmshare_version>
43012

> <i_f3d_flags>
0

> <s_epik_input>
bzFbY0hdW2NIXW5jMVtOSF1DKD1PKVtOSF1bQ0gyXVtDSDJdW0NAQEhdMltDSDJdW0NIMl1bQ0gyXVtDSDJdTzI=

> <s_epik_cmdline>
J2VwaWtfcHl0aG9uJywgJy1waCcsICc3LjAnLCAnLXRuJywgJzgnLCAnLW1hJywgJzIwMCcsICctbWV0YWxfYmluZGluZycsICctaW1hZScsICc8aW5maWxlLm1hZT4nLCAnLW9tYWUnLCAnPG91dGZpbGUubWFlPic=

> <r_epik_Ionization_Penalty>
6.63408

> <r_epik_Ionization_Penalty_Charging>
6.57733

> <r_epik_Ionization_Penalty_Neutral>
0.0567487

> <r_epik_State_Penalty>
1.8175

> <r_epik_Charging_Adjusted_Penalty>
8.39483

> <i_epik_Tot_Q>
1

> <i_epik_Tot_abs_Q>
1

> <r_epik_Metal_State_Penalty>
1.83396

> <b_epik_Metal_Only>
0

> <s_lp_Force_Field>
OPLS_2005

> <r_lp_Energy>
17.5714

> <b_lp_Chiralities_Consistent>
1

> <s_lp_Variant>
AV-unprocessed.smi:2751-4

> <Gold.Version>
5.8.1

> <Gold.Id.Protein>
6NUR|6NUR_protein|mol2

> <Gold.PLP.Fitness>
40.9369

> <Gold.PLP.PLP>
-33.6133

> <Gold.PLP.part.hbond>
-2.7851

> <Gold.PLP.part.metal>
0.0000

> <Gold.PLP.part.buried>
0.1414

> <Gold.PLP.part.nonpolar>
-31.9378

> <Gold.PLP.part.repulsive>
0.4580

> <Gold.PLP.ligand.clash>
0.0000

> <Gold.PLP.ligand.torsion>
0.9364

> <Gold.PLP.Chemscore.Hbond>
2.6560

> <Gold.PLP.Chemscore.CHOScore>
0.4055

> <Gold.PLP.Chemscore.Metal>
0.0000

> <Gold.Chemscore.Hbonds>
donor molecule, donor type, donor heavy atom, donor atom, acceptor molecule, acceptor atom, score
      L1  H    14    32       P1  7948  2.00
      P1  H  7989  7998       L1     1  0.62
      L1  C    16    34       P1 10175  0.61

> <Gold.PLP.Chemscore.Internal.Correction>
0.0120

> <Gold.Rescore>
     Score         DG    S(hbond)    S(metal)    S(lipo)     H(rot)  DE(clash)    DE(int)     intcor
     15.22     -17.52       1.66        0.00      91.86       1.66       1.19       1.11       ----

> <Gold.Chemscore.Fitness>
15.2165

> <Gold.Chemscore.DG>
-17.5157

> <Gold.Chemscore.ZeroCoef>
-5.4800

> <Gold.Chemscore.Hbond>
1.6561

> <Gold.Chemscore.Metal>
0.0000

> <Gold.Chemscore.Lipo>
91.8576

> <Gold.Chemscore.Internal_Hbond>
0.0000

> <Gold.Chemscore.DEClash>
1.1901

> <Gold.Chemscore.DEInternal>
1.1090

> <Gold.Chemscore.Rot>
1.6575

> <Gold.Chemscore.Internal.Correction>
   9.000000E+99

> <Gold.Chemscore.Hbonds>
donor molecule, donor type, donor heavy atom, donor atom, acceptor molecule, acceptor atom, score
      L1  H    14    32       P1  7948  0.90
      P1  H  7989  7998       L1     1  0.42

> <Gold.Chemscore.Hbond.Weighted>
-5.5315

> <Gold.Chemscore.Metal.Weighted>
-0.0000

> <Gold.Chemscore.Lipo.Weighted>
-10.7473

> <Gold.Chemscore.Internal_Hbond.Weighted>
0.0000

> <Gold.Chemscore.DEClash.Weighted>
1.1901

> <Gold.Chemscore.DEInternal.Weighted>
1.1090

> <Gold.Chemscore.Rot.Weighted>
4.2431

> <Gold.Chemscore.Internal.Correction.Weighted>
   9.000000E+99

> <Gold.Protein.RotatedTorsions>
[ 6907 6896 6895 6894 ] final   35.59 input  -60.11 | X-H torsion
[ 7974 7965 7964 7962 ] final -154.39 input  175.53 | X-H torsion
[ 8008 7997 7996 7995 ] final   21.61 input   59.86 | X-H torsion
[ 10167 10162 10161 10158 ] final  133.84 input  -65.29 | X-H torsion
[ 10718 10713 10712 10709 ] final -172.73 input   66.30 | X-H torsion
[ 10763 10752 10751 10750 ] final   39.19 input  -60.55 | X-H torsion
[ 11005 11000 10999 10996 ] final  -61.93 input  -57.11 | X-H torsion

> <Gold.Protein.ActiveResidues>
 VAL166  LYS551  ARG553  GLY616  TRP617  ASP618  TYR619  PRO620  LYS621  CYS622 
 ASP623  PHE694  ASN695  SER759  ASP760  ASP761  ALA762  ILE779  LEU786  VAL792 
 PHE793  MET794  SER795  GLU796  ALA797  LYS798  CYS799  TRP800  GLU811  SER814 

> <Gold.Protein.RotatedAtoms>
  152.1183  134.9224  160.0563 H   0  0  0  0  0  0  0  0  0  0  0  0  # atno 6907 bound_to 6896
  152.0375  133.3958  159.4331 H   0  0  0  0  0  0  0  0  0  0  0  0  # atno 6908 bound_to 6896
  150.6847  134.3373  159.4896 H   0  0  0  0  0  0  0  0  0  0  0  0  # atno 6909 bound_to 6896
  144.7692  140.4395  143.5920 H   0  0  0  0  0  0  0  0  0  0  0  0  # atno 7974 bound_to 7965
  154.9532  140.3068  155.5065 H   0  0  0  0  0  0  0  0  0  0  0  0  # atno 8008 bound_to 7997
  156.2985  140.2315  156.4549 H   0  0  0  0  0  0  0  0  0  0  0  0  # atno 8009 bound_to 7997
  154.8035  140.0432  157.1278 H   0  0  0  0  0  0  0  0  0  0  0  0  # atno 8010 bound_to 7997
  139.5280  144.6596  151.5053 H   0  0  0  0  0  0  0  0  0  0  0  0  # atno 10167 bound_to 10162
  156.7599  130.9410  151.3117 H   0  0  0  0  0  0  0  0  0  0  0  0  # atno 10718 bound_to 10713
  152.9975  135.6228  154.2426 H   0  0  0  0  0  0  0  0  0  0  0  0  # atno 10763 bound_to 10752
  154.2166  135.2797  155.2941 H   0  0  0  0  0  0  0  0  0  0  0  0  # atno 10764 bound_to 10752
  154.5563  135.5718  153.7025 H   0  0  0  0  0  0  0  0  0  0  0  0  # atno 10765 bound_to 10752
  141.1342  133.6635  156.5451 H   0  0  0  0  0  0  0  0  0  0  0  0  # atno 11005 bound_to 11000
  145.6376  139.1545  143.2933 LP  0  0  0  0  0  0  0  0  0  0  0  0  # atno 17320 bound_to 7965
  146.1825  140.6475  142.9183 LP  0  0  0  0  0  0  0  0  0  0  0  0  # atno 17321 bound_to 7965
  140.6438  143.8835  150.6718 LP  0  0  0  0  0  0  0  0  0  0  0  0  # atno 17342 bound_to 10162
  140.2178  143.3833  152.1667 LP  0  0  0  0  0  0  0  0  0  0  0  0  # atno 17343 bound_to 10162
  157.6739  130.9076  150.0104 LP  0  0  0  0  0  0  0  0  0  0  0  0  # atno 17370 bound_to 10713
  156.1346  130.3643  149.9678 LP  0  0  0  0  0  0  0  0  0  0  0  0  # atno 17371 bound_to 10713
  140.4109  134.7273  157.4835 LP  0  0  0  0  0  0  0  0  0  0  0  0  # atno 17394 bound_to 11000
  140.0428  134.6242  155.8959 LP  0  0  0  0  0  0  0  0  0  0  0  0  # atno 17395 bound_to 11000

$$$$
