AV-unprocessed.smi:1570|AV-procd|sdf|6316|dock3
  -GOLD-   22720 6523D 1   1.00000     0.00000
 Structure written by MMmdl.
 51 53  0  0  0  0  0  0  0  0  1 V2000
  150.4522  138.4048  160.0161 C   0  0  0  0  0  0  0  0  0  0  0  0
  151.6956  139.0244  159.3662 C   0  0  0  0  0  0  0  0  0  0  0  0
  151.3420  140.1735  158.5367 N   0  0  0  0  0  0  0  0  0  0  0  0
  150.5867  140.1556  157.4133 C   0  0  0  0  0  0  0  0  0  0  0  0
  150.0669  139.1613  156.9065 O   0  0  0  0  0  0  0  0  0  0  0  0
  150.5108  141.4208  156.9372 N   0  0  0  0  0  0  0  0  0  0  0  0
  149.7907  141.8577  155.7420 C   0  0  0  0  0  0  0  0  0  0  0  0
  148.5843  140.9487  155.4328 C   0  0  2  0  0  0  0  0  0  0  0  0
  149.0423  139.8644  154.6498 O   0  0  0  0  0  0  0  0  0  0  0  0
  147.5205  141.6946  154.6010 C   0  0  0  0  0  0  0  0  0  0  0  0
  146.9759  142.9094  155.2109 N   0  0  0  0  0  0  0  0  0  0  0  0
  145.9755  142.5753  156.2196 C   0  0  0  0  0  0  0  0  0  0  0  0
  145.3629  143.8192  156.8929 C   0  0  1  0  0  0  0  0  0  0  0  0
  146.3181  144.5129  157.8791 C   0  0  0  0  0  0  0  0  0  0  0  0
  144.8727  144.7239  155.9023 O   0  0  0  0  0  0  0  0  0  0  0  0
  145.8122  145.0846  154.8917 C   0  0  2  0  0  0  0  0  0  0  0  0
  145.1000  145.9894  153.8808 C   0  0  0  0  0  0  0  0  0  0  0  0
  146.3743  143.8118  154.2327 C   0  0  0  0  0  0  0  0  0  0  0  0
  151.2536  142.2698  157.7699 C   0  0  0  0  0  0  0  0  0  0  0  0
  151.5011  143.6521  157.6998 C   0  0  0  0  0  0  0  0  0  0  0  0
  152.3127  144.2161  158.7118 C   0  0  0  0  0  0  0  0  0  0  0  0
  152.8505  143.4084  159.7472 C   0  0  0  0  0  0  0  0  0  0  0  0
  152.5886  142.0191  159.7923 C   0  0  0  0  0  0  0  0  0  0  0  0
  151.7770  141.4848  158.7762 C   0  0  0  0  0  0  0  0  0  0  0  0
  150.7237  137.5463  160.6304 H   0  0  0  0  0  0  0  0  0  0  0  0
  149.7417  138.0635  159.2627 H   0  0  0  0  0  0  0  0  0  0  0  0
  149.9425  139.1244  160.6575 H   0  0  0  0  0  0  0  0  0  0  0  0
  152.4042  139.3285  160.1382 H   0  0  0  0  0  0  0  0  0  0  0  0
  152.2116  138.2792  158.7604 H   0  0  0  0  0  0  0  0  0  0  0  0
  149.4423  142.8753  155.9264 H   0  0  0  0  0  0  0  0  0  0  0  0
  150.4600  141.9321  154.8840 H   0  0  0  0  0  0  0  0  0  0  0  0
  148.1580  140.5742  156.3624 H   0  0  0  0  0  0  0  0  0  0  0  0
  148.5130  139.8200  153.8677 H   0  0  0  0  0  0  0  0  0  0  0  0
  147.9414  141.9498  153.6272 H   0  0  0  0  0  0  0  0  0  0  0  0
  146.7061  140.9982  154.3944 H   0  0  0  0  0  0  0  0  0  0  0  0
  145.1739  141.9987  155.7548 H   0  0  0  0  0  0  0  0  0  0  0  0
  146.4138  141.9295  156.9816 H   0  0  0  0  0  0  0  0  0  0  0  0
  144.4946  143.4951  157.4670 H   0  0  0  0  0  0  0  0  0  0  0  0
  146.5936  143.8387  158.6903 H   0  0  0  0  0  0  0  0  0  0  0  0
  145.8476  145.3898  158.3240 H   0  0  0  0  0  0  0  0  0  0  0  0
  147.2409  144.8364  157.3981 H   0  0  0  0  0  0  0  0  0  0  0  0
  146.6281  145.6508  155.3419 H   0  0  0  0  0  0  0  0  0  0  0  0
  145.7808  146.3070  153.0907 H   0  0  0  0  0  0  0  0  0  0  0  0
  144.7126  146.8859  154.3654 H   0  0  0  0  0  0  0  0  0  0  0  0
  144.2604  145.4744  153.4130 H   0  0  0  0  0  0  0  0  0  0  0  0
  147.1093  144.1104  153.4869 H   0  0  0  0  0  0  0  0  0  0  0  0
  145.5770  143.2951  153.6958 H   0  0  0  0  0  0  0  0  0  0  0  0
  151.0949  144.2620  156.9068 H   0  0  0  0  0  0  0  0  0  0  0  0
  152.5275  145.2746  158.6945 H   0  0  0  0  0  0  0  0  0  0  0  0
  153.4691  143.8594  160.5091 H   0  0  0  0  0  0  0  0  0  0  0  0
  152.9991  141.3990  160.5754 H   0  0  0  0  0  0  0  0  0  0  0  0
  1  2  1  0  0  0  0
  1 25  1  0  0  0  0
  1 26  1  0  0  0  0
  1 27  1  0  0  0  0
  2  3  1  0  0  0  0
  2 28  1  0  0  0  0
  2 29  1  0  0  0  0
  3 24  1  0  0  0  0
  3  4  1  0  0  0  0
  4  5  2  0  0  0  0
  4  6  1  0  0  0  0
  6  7  1  0  0  0  0
  6 19  1  0  0  0  0
  7  8  1  0  0  0  0
  7 30  1  0  0  0  0
  7 31  1  0  0  0  0
  8  9  1  0  0  0  0
  8 10  1  0  0  0  0
  8 32  1  0  0  0  0
  9 33  1  0  0  0  0
 10 11  1  0  0  0  0
 10 34  1  0  0  0  0
 10 35  1  0  0  0  0
 11 18  1  0  0  0  0
 11 12  1  0  0  0  0
 12 13  1  0  0  0  0
 12 36  1  0  0  0  0
 12 37  1  0  0  0  0
 13 14  1  0  0  0  0
 13 15  1  0  0  0  0
 13 38  1  0  0  0  0
 14 39  1  0  0  0  0
 14 40  1  0  0  0  0
 14 41  1  0  0  0  0
 15 16  1  0  0  0  0
 16 17  1  0  0  0  0
 16 18  1  0  0  0  0
 16 42  1  0  0  0  0
 17 43  1  0  0  0  0
 17 44  1  0  0  0  0
 17 45  1  0  0  0  0
 18 46  1  0  0  0  0
 18 47  1  0  0  0  0
 19 24  2  0  0  0  0
 19 20  1  0  0  0  0
 20 21  2  0  0  0  0
 20 48  1  0  0  0  0
 21 22  1  0  0  0  0
 21 49  1  0  0  0  0
 22 23  2  0  0  0  0
 22 50  1  0  0  0  0
 23 24  1  0  0  0  0
 23 51  1  0  0  0  0
M  END
> <s_m_source_file>
AV-unprocessed.smi

> <i_m_source_file_index>
1570

> <i_lp_mmshare_version>
43012

> <i_f3d_flags>
0

> <s_epik_input>
W2NIXTFbY0hdW2NIXVtjSF1jKGMxMiluKFtDSDJdW0NIM10pYyg9TyluMltDSDJdW0NASF0oW09IXSlbQ0gyXU4zW0NIMl1bQ0BASF0oW0NIM10pT1tDQEBIXShbQ0gzXSlbQ0gyXTM=

> <s_epik_cmdline>
J2VwaWtfcHl0aG9uJywgJy1waCcsICc3LjAnLCAnLXRuJywgJzgnLCAnLW1hJywgJzIwMCcsICctbWV0YWxfYmluZGluZycsICctaW1hZScsICc8aW5maWxlLm1hZT4nLCAnLW9tYWUnLCAnPG91dGZpbGUubWFlPic=

> <r_epik_Ionization_Penalty>
0.214359

> <r_epik_Ionization_Penalty_Charging>
2.30976e-09

> <r_epik_Ionization_Penalty_Neutral>
0.214359

> <r_epik_State_Penalty>
0.204533

> <r_epik_Charging_Adjusted_Penalty>
0.204533

> <i_epik_Tot_Q>
0

> <i_epik_Tot_abs_Q>
0

> <r_epik_Metal_State_Penalty>
0.204533

> <b_epik_Metal_Only>
0

> <s_lp_Force_Field>
OPLS_2005

> <r_lp_Energy>
63.3527

> <b_lp_Chiralities_Consistent>
1

> <s_lp_Variant>
AV-unprocessed.smi:1570-5

> <Gold.Version>
5.8.1

> <Gold.Id.Protein>
6NUR|6NUR_protein|mol2

> <Gold.PLP.Fitness>
52.6564

> <Gold.PLP.PLP>
-48.1438

> <Gold.PLP.part.hbond>
-2.0000

> <Gold.PLP.part.metal>
0.0000

> <Gold.PLP.part.buried>
-7.2273

> <Gold.PLP.part.nonpolar>
-39.7493

> <Gold.PLP.part.repulsive>
0.2893

> <Gold.PLP.ligand.clash>
0.0000

> <Gold.PLP.ligand.torsion>
0.8579

> <Gold.PLP.Chemscore.Hbond>
2.0000

> <Gold.PLP.Chemscore.CHOScore>
0.0000

> <Gold.PLP.Chemscore.Metal>
0.0000

> <Gold.PLP.Chemscore.Internal.Correction>
0.2284

> <Gold.Rescore>
     Score         DG    S(hbond)    S(metal)    S(lipo)     H(rot)  DE(clash)    DE(int)     intcor
     16.23     -19.37       1.46        0.00     122.04       2.06       0.63       2.51       ----

> <Gold.Chemscore.Fitness>
16.2279

> <Gold.Chemscore.DG>
-19.3745

> <Gold.Chemscore.ZeroCoef>
-5.4800

> <Gold.Chemscore.Hbond>
1.4618

> <Gold.Chemscore.Metal>
0.0000

> <Gold.Chemscore.Lipo>
122.0432

> <Gold.Chemscore.Internal_Hbond>
0.0000

> <Gold.Chemscore.DEClash>
0.6317

> <Gold.Chemscore.DEInternal>
2.5149

> <Gold.Chemscore.Rot>
2.0574

> <Gold.Chemscore.Internal.Correction>
   9.000000E+99

> <Gold.Chemscore.Hbond.Weighted>
-4.8823

> <Gold.Chemscore.Metal.Weighted>
-0.0000

> <Gold.Chemscore.Lipo.Weighted>
-14.2791

> <Gold.Chemscore.Internal_Hbond.Weighted>
0.0000

> <Gold.Chemscore.DEClash.Weighted>
0.6317

> <Gold.Chemscore.DEInternal.Weighted>
2.5149

> <Gold.Chemscore.Rot.Weighted>
5.2669

> <Gold.Chemscore.Internal.Correction.Weighted>
   9.000000E+99

> <Gold.Protein.RotatedTorsions>
[ 6907 6896 6895 6894 ] final  -53.17 input  -60.11 | X-H torsion
[ 7974 7965 7964 7962 ] final  107.94 input  175.53 | X-H torsion
[ 8008 7997 7996 7995 ] final -107.17 input   59.86 | X-H torsion
[ 10167 10162 10161 10158 ] final -136.88 input  -65.29 | X-H torsion
[ 10718 10713 10712 10709 ] final  159.88 input   66.30 | X-H torsion
[ 10763 10752 10751 10750 ] final  139.15 input  -60.55 | X-H torsion
[ 11005 11000 10999 10996 ] final -140.13 input  -57.11 | X-H torsion

> <Gold.Protein.ActiveResidues>
 VAL166  LYS551  ARG553  GLY616  TRP617  ASP618  TYR619  PRO620  LYS621  CYS622 
 ASP623  PHE694  ASN695  SER759  ASP760  ASP761  ALA762  ILE779  LEU786  VAL792 
 PHE793  MET794  SER795  GLU796  ALA797  LYS798  CYS799  TRP800  GLU811  SER814 

> <Gold.Protein.RotatedAtoms>
  150.8451  134.7757  159.6963 H   0  0  0  0  0  0  0  0  0  0  0  0  # atno 6907 bound_to 6896
  152.4530  134.5350  159.9832 H   0  0  0  0  0  0  0  0  0  0  0  0  # atno 6908 bound_to 6896
  151.5482  133.3384  159.2984 H   0  0  0  0  0  0  0  0  0  0  0  0  # atno 6909 bound_to 6896
  145.2871  139.2612  143.3884 H   0  0  0  0  0  0  0  0  0  0  0  0  # atno 7974 bound_to 7965
  154.9254  140.0406  157.2020 H   0  0  0  0  0  0  0  0  0  0  0  0  # atno 8008 bound_to 7997
  154.8213  140.2884  155.5763 H   0  0  0  0  0  0  0  0  0  0  0  0  # atno 8009 bound_to 7997
  156.2980  140.2518  156.3121 H   0  0  0  0  0  0  0  0  0  0  0  0  # atno 8010 bound_to 7997
  139.8634  143.7048  152.2648 H   0  0  0  0  0  0  0  0  0  0  0  0  # atno 10167 bound_to 10162
  157.1580  131.0580  151.2246 H   0  0  0  0  0  0  0  0  0  0  0  0  # atno 10718 bound_to 10713
  153.9015  135.3021  155.3448 H   0  0  0  0  0  0  0  0  0  0  0  0  # atno 10763 bound_to 10752
  154.7668  135.4906  153.9573 H   0  0  0  0  0  0  0  0  0  0  0  0  # atno 10764 bound_to 10752
  153.1242  135.6789  153.9384 H   0  0  0  0  0  0  0  0  0  0  0  0  # atno 10765 bound_to 10752
  140.8452  134.2353  157.4789 H   0  0  0  0  0  0  0  0  0  0  0  0  # atno 11005 bound_to 11000
  146.3197  140.3353  142.8643 LP  0  0  0  0  0  0  0  0  0  0  0  0  # atno 17320 bound_to 7965
  144.9204  140.7861  143.5752 LP  0  0  0  0  0  0  0  0  0  0  0  0  # atno 17321 bound_to 7965
  139.7352  144.7573  151.0739 LP  0  0  0  0  0  0  0  0  0  0  0  0  # atno 17342 bound_to 10162
  140.7772  143.5039  150.9737 LP  0  0  0  0  0  0  0  0  0  0  0  0  # atno 17343 bound_to 10162
  157.4158  130.7410  149.6875 LP  0  0  0  0  0  0  0  0  0  0  0  0  # atno 17370 bound_to 10713
  155.9758  130.4083  150.3819 LP  0  0  0  0  0  0  0  0  0  0  0  0  # atno 17371 bound_to 10713
  139.8703  134.9656  156.4533 LP  0  0  0  0  0  0  0  0  0  0  0  0  # atno 17394 bound_to 11000
  140.8851  133.7889  155.9509 LP  0  0  0  0  0  0  0  0  0  0  0  0  # atno 17395 bound_to 11000

$$$$
