AV-unprocessed.smi:3228|AV-procd|sdf|12323|dock9
  -GOLD-   2272018173D 1   1.00000     0.00000
 Structure written by MMmdl.
 30 31  0  0  0  0  0  0  0  0  2 V2000
  151.1790  140.2924  155.4253 O   0  0  0  0  0  0  0  0  0  0  0  0
  150.5302  141.3092  155.6818 C   0  0  0  0  0  0  0  0  0  0  0  0
  150.7990  142.0089  156.7920 N   0  0  0  0  0  0  0  0  0  0  0  0
  151.8290  141.6744  157.7680 C   0  0  0  0  0  0  0  0  0  0  0  0
  152.1831  142.8944  158.6368 C   0  0  2  0  0  0  0  0  0  0  0  0
  152.5895  142.5398  160.0769 C   0  0  0  0  0  0  0  0  0  0  0  0
  152.1837  143.7362  160.9525 C   0  0  0  0  0  0  0  0  0  0  0  0
  151.4476  144.7159  160.0312 C   0  0  0  0  0  0  0  0  0  0  0  0
  151.0252  143.8802  158.8224 C   0  0  1  0  0  0  0  0  0  0  0  0
  150.8196  144.6896  157.6829 O   0  0  0  0  0  0  0  0  0  0  0  0
  149.5284  141.8313  154.9379 N   0  5  0  0  0  0  0  0  0  0  0  0
  148.7318  141.0221  154.2207 C   0  0  0  0  0  0  0  0  0  0  0  0
  148.9090  139.6975  154.1522 N   0  0  0  0  0  0  0  0  0  0  0  0
  147.9611  139.0510  153.3569 C   0  0  0  0  0  0  0  0  0  0  0  0
  147.0347  139.9020  152.8149 C   0  0  0  0  0  0  0  0  0  0  0  0
  147.3273  141.5509  153.2897 S   0  0  0  0  0  0  0  0  0  0  0  0
  150.2470  142.8351  156.9690 H   0  0  0  0  0  0  0  0  0  0  0  0
  151.4698  140.8597  158.3984 H   0  0  0  0  0  0  0  0  0  0  0  0
  152.7177  141.3102  157.2497 H   0  0  0  0  0  0  0  0  0  0  0  0
  153.0172  143.4280  158.1762 H   0  0  0  0  0  0  0  0  0  0  0  0
  152.0548  141.6503  160.4135 H   0  0  0  0  0  0  0  0  0  0  0  0
  153.6557  142.3219  160.1510 H   0  0  0  0  0  0  0  0  0  0  0  0
  151.5271  143.4021  161.7566 H   0  0  0  0  0  0  0  0  0  0  0  0
  153.0500  144.2099  161.4153 H   0  0  0  0  0  0  0  0  0  0  0  0
  150.6020  145.1993  160.5217 H   0  0  0  0  0  0  0  0  0  0  0  0
  152.1403  145.4993  159.7198 H   0  0  0  0  0  0  0  0  0  0  0  0
  150.1054  143.3405  159.0539 H   0  0  0  0  0  0  0  0  0  0  0  0
  150.1337  144.3028  157.1605 H   0  0  0  0  0  0  0  0  0  0  0  0
  148.0211  137.9801  153.2324 H   0  0  0  0  0  0  0  0  0  0  0  0
  146.2025  139.6620  152.1708 H   0  0  0  0  0  0  0  0  0  0  0  0
  1  2  2  0  0  0  0
  2  3  1  0  0  0  0
  2 11  1  0  0  0  0
  3  4  1  0  0  0  0
  3 17  1  0  0  0  0
  4  5  1  0  0  0  0
  4 18  1  0  0  0  0
  4 19  1  0  0  0  0
  5  9  1  0  0  0  0
  5  6  1  0  0  0  0
  5 20  1  0  0  0  0
  6  7  1  0  0  0  0
  6 21  1  0  0  0  0
  6 22  1  0  0  0  0
  7  8  1  0  0  0  0
  7 23  1  0  0  0  0
  7 24  1  0  0  0  0
  8  9  1  0  0  0  0
  8 25  1  0  0  0  0
  8 26  1  0  0  0  0
  9 10  1  0  0  0  0
  9 27  1  0  0  0  0
 10 28  1  0  0  0  0
 11 12  1  0  0  0  0
 12 16  1  0  0  0  0
 12 13  2  0  0  0  0
 13 14  1  0  0  0  0
 14 15  2  0  0  0  0
 14 29  1  0  0  0  0
 15 16  1  0  0  0  0
 15 30  1  0  0  0  0
M  CHG  1  11  -1
M  END
> <s_m_source_file>
AV-unprocessed.smi

> <i_m_source_file_index>
3228

> <i_lp_mmshare_version>
43012

> <i_f3d_flags>
0

> <s_epik_input>
czFbY0hdW2NIXW5jMVtOSF1DKD1PKVtOSF1bQ0gyXVtDQEBIXTJbQ0gyXVtDSDJdW0NIMl1bQ0BIXTJbT0hd

> <s_epik_cmdline>
J2VwaWtfcHl0aG9uJywgJy1waCcsICc3LjAnLCAnLXRuJywgJzgnLCAnLW1hJywgJzIwMCcsICctbWV0YWxfYmluZGluZycsICctaW1hZScsICc8aW5maWxlLm1hZT4nLCAnLW9tYWUnLCAnPG91dGZpbGUubWFlPic=

> <r_lp_tautomer_probability>
0.999

> <r_epik_Ionization_Penalty>
8.49756

> <r_epik_Ionization_Penalty_Charging>
6.79645

> <r_epik_Ionization_Penalty_Neutral>
1.70111

> <r_epik_State_Penalty>
6.79662

> <r_epik_Charging_Adjusted_Penalty>
13.5931

> <i_epik_Tot_Q>
-1

> <i_epik_Tot_abs_Q>
1

> <r_epik_Metal_State_Penalty>
2.71629

> <b_epik_Metal_Only>
1

> <s_lp_Force_Field>
OPLS_2005

> <r_lp_Energy>
18.1026

> <b_lp_Chiralities_Consistent>
1

> <s_lp_Variant>
AV-unprocessed.smi:3228-5

> <Gold.Version>
5.8.1

> <Gold.Id.Protein>
6NUR|6NUR_protein|mol2

> <Gold.PLP.Fitness>
43.6173

> <Gold.PLP.PLP>
-33.9663

> <Gold.PLP.part.hbond>
-2.7792

> <Gold.PLP.part.metal>
0.0000

> <Gold.PLP.part.buried>
-5.0458

> <Gold.PLP.part.nonpolar>
-26.6618

> <Gold.PLP.part.repulsive>
1.2122

> <Gold.PLP.ligand.clash>
0.0000

> <Gold.PLP.ligand.torsion>
0.7467

> <Gold.PLP.Chemscore.Hbond>
1.7120

> <Gold.PLP.Chemscore.CHOScore>
2.0000

> <Gold.PLP.Chemscore.Metal>
0.0000

> <Gold.Chemscore.Hbonds>
donor molecule, donor type, donor heavy atom, donor atom, acceptor molecule, acceptor atom, score
      L1  H    10    28       P1  8028  0.80
      P1  H  7989  7998       L1     1  0.65
      L1  C    14    29       P1  7948  1.00
      L1  C    15    30       P1 10175  0.65

> <Gold.PLP.Chemscore.Internal.Correction>
0.0085

> <Gold.Rescore>
     Score         DG    S(hbond)    S(metal)    S(lipo)     H(rot)  DE(clash)    DE(int)     intcor
      9.47     -13.35       0.79        0.00      85.17       1.85       0.20       3.69       ----

> <Gold.Chemscore.Fitness>
9.4674

> <Gold.Chemscore.DG>
-13.3531

> <Gold.Chemscore.ZeroCoef>
-5.4800

> <Gold.Chemscore.Hbond>
0.7901

> <Gold.Chemscore.Metal>
0.0000

> <Gold.Chemscore.Lipo>
85.1747

> <Gold.Chemscore.Internal_Hbond>
0.0000

> <Gold.Chemscore.DEClash>
0.2002

> <Gold.Chemscore.DEInternal>
3.6856

> <Gold.Chemscore.Rot>
1.8481

> <Gold.Chemscore.Internal.Correction>
   9.000000E+99

> <Gold.Chemscore.Hbonds>
donor molecule, donor type, donor heavy atom, donor atom, acceptor molecule, acceptor atom, score
      L1  H    10    28       P1  8028  0.58
      P1  H  7989  7998       L1     1  0.06

> <Gold.Chemscore.Hbond.Weighted>
-2.6390

> <Gold.Chemscore.Metal.Weighted>
-0.0000

> <Gold.Chemscore.Lipo.Weighted>
-9.9654

> <Gold.Chemscore.Internal_Hbond.Weighted>
0.0000

> <Gold.Chemscore.DEClash.Weighted>
0.2002

> <Gold.Chemscore.DEInternal.Weighted>
3.6856

> <Gold.Chemscore.Rot.Weighted>
4.7313

> <Gold.Chemscore.Internal.Correction.Weighted>
   9.000000E+99

> <Gold.Protein.RotatedTorsions>
[ 6907 6896 6895 6894 ] final -113.64 input  -60.11 | X-H torsion
[ 7974 7965 7964 7962 ] final  117.63 input  175.53 | X-H torsion
[ 8008 7997 7996 7995 ] final -111.69 input   59.86 | X-H torsion
[ 10167 10162 10161 10158 ] final  -42.81 input  -65.29 | X-H torsion
[ 10718 10713 10712 10709 ] final  -31.99 input   66.30 | X-H torsion
[ 10763 10752 10751 10750 ] final  -90.73 input  -60.55 | X-H torsion
[ 11005 11000 10999 10996 ] final  -23.95 input  -57.11 | X-H torsion

> <Gold.Protein.ActiveResidues>
 VAL166  LYS551  ARG553  GLY616  TRP617  ASP618  TYR619  PRO620  LYS621  CYS622 
 ASP623  PHE694  ASN695  SER759  ASP760  ASP761  ALA762  ILE779  LEU786  VAL792 
 PHE793  MET794  SER795  GLU796  ALA797  LYS798  CYS799  TRP800  GLU811  SER814 

> <Gold.Protein.RotatedAtoms>
  150.7844  133.8915  159.3314 H   0  0  0  0  0  0  0  0  0  0  0  0  # atno 6907 bound_to 6896
  151.6769  135.0966  160.0218 H   0  0  0  0  0  0  0  0  0  0  0  0  # atno 6908 bound_to 6896
  152.3904  133.6632  159.6268 H   0  0  0  0  0  0  0  0  0  0  0  0  # atno 6909 bound_to 6896
  145.1650  139.3133  143.4497 H   0  0  0  0  0  0  0  0  0  0  0  0  # atno 7974 bound_to 7965
  154.9937  140.0395  157.2330 H   0  0  0  0  0  0  0  0  0  0  0  0  # atno 8008 bound_to 7997
  154.7605  140.2783  155.6195 H   0  0  0  0  0  0  0  0  0  0  0  0  # atno 8009 bound_to 7997
  156.2903  140.2629  156.2382 H   0  0  0  0  0  0  0  0  0  0  0  0  # atno 8010 bound_to 7997
  140.6956  143.3017  151.3262 H   0  0  0  0  0  0  0  0  0  0  0  0  # atno 10167 bound_to 10162
  156.3805  130.4355  149.7473 H   0  0  0  0  0  0  0  0  0  0  0  0  # atno 10718 bound_to 10713
  154.6688  135.5293  153.8112 H   0  0  0  0  0  0  0  0  0  0  0  0  # atno 10763 bound_to 10752
  153.0488  135.6524  154.0757 H   0  0  0  0  0  0  0  0  0  0  0  0  # atno 10764 bound_to 10752
  154.0658  135.2958  155.3297 H   0  0  0  0  0  0  0  0  0  0  0  0  # atno 10765 bound_to 10752
  140.8800  133.7661  156.0290 H   0  0  0  0  0  0  0  0  0  0  0  0  # atno 11005 bound_to 11000
  146.3477  140.1774  142.8589 LP  0  0  0  0  0  0  0  0  0  0  0  0  # atno 17320 bound_to 7965
  145.0292  140.8857  143.5120 LP  0  0  0  0  0  0  0  0  0  0  0  0  # atno 17321 bound_to 7965
  139.6408  144.0543  152.2552 LP  0  0  0  0  0  0  0  0  0  0  0  0  # atno 17342 bound_to 10162
  140.0048  144.6267  150.7698 LP  0  0  0  0  0  0  0  0  0  0  0  0  # atno 17343 bound_to 10162
  156.4566  130.7932  151.2952 LP  0  0  0  0  0  0  0  0  0  0  0  0  # atno 17370 bound_to 10713
  157.7492  131.0079  150.3207 LP  0  0  0  0  0  0  0  0  0  0  0  0  # atno 17371 bound_to 10713
  140.8473  134.2996  157.5290 LP  0  0  0  0  0  0  0  0  0  0  0  0  # atno 17394 bound_to 11000
  139.8719  134.9448  156.3893 LP  0  0  0  0  0  0  0  0  0  0  0  0  # atno 17395 bound_to 11000

$$$$
