AV-unprocessed.smi:781|AV-procd|sdf|3713|dock9
  -GOLD-   22720 1133D 1   1.00000     0.00000
 Structure written by MMmdl.
 38 40  0  0  0  0  0  0  0  0  1 V2000
  151.7663  131.8188  157.0361 C   0  0  0  0  0  0  0  0  0  0  0  0
  151.0195  132.8376  156.2454 C   0  0  0  0  0  0  0  0  0  0  0  0
  149.9705  132.7519  155.3735 C   0  0  0  0  0  0  0  0  0  0  0  0
  149.7651  134.1028  154.9865 C   0  0  0  0  0  0  0  0  0  0  0  0
  148.7426  134.4488  154.0667 N   0  0  0  0  0  0  0  0  0  0  0  0
  147.4933  133.9575  154.0074 C   0  0  0  0  0  0  0  0  0  0  0  0
  147.0312  133.0982  154.7584 O   0  0  0  0  0  0  0  0  0  0  0  0
  146.7971  134.5196  153.0097 N   0  0  0  0  0  0  0  0  0  0  0  0
  145.4130  134.1921  152.6661 C   0  0  2  0  0  0  0  0  0  0  0  0
  145.2052  132.6971  152.3081 C   0  0  2  0  0  0  0  0  0  0  0  0
  146.2422  132.2200  151.2690 C   0  0  0  0  0  0  0  0  0  0  0  0
  145.7989  132.9559  149.9919 C   0  0  0  0  0  0  0  0  0  0  0  0
  144.5461  133.7293  150.4546 C   0  0  1  0  0  0  0  0  0  0  0  0
  143.9437  132.7468  151.4522 C   0  0  0  0  0  0  0  0  0  0  0  0
  144.9011  134.9133  151.3873 C   0  0  2  0  0  0  0  0  0  0  0  0
  145.8085  136.0081  150.7819 C   0  0  0  0  0  0  0  0  0  0  0  0
  145.2115  136.5551  149.6252 O   0  0  0  0  0  0  0  0  0  0  0  0
  150.6123  134.9378  155.5685 N   0  0  0  0  0  0  0  0  0  0  0  0
  151.4215  134.1309  156.3773 O   0  0  0  0  0  0  0  0  0  0  0  0
  151.1603  130.9261  157.1909 H   0  0  0  0  0  0  0  0  0  0  0  0
  152.0432  132.2116  158.0146 H   0  0  0  0  0  0  0  0  0  0  0  0
  152.6790  131.5227  156.5190 H   0  0  0  0  0  0  0  0  0  0  0  0
  149.4380  131.8645  155.0653 H   0  0  0  0  0  0  0  0  0  0  0  0
  148.9897  135.1451  153.3795 H   0  0  0  0  0  0  0  0  0  0  0  0
  147.2547  135.2163  152.4405 H   0  0  0  0  0  0  0  0  0  0  0  0
  144.7668  134.4639  153.5032 H   0  0  0  0  0  0  0  0  0  0  0  0
  145.1379  132.0469  153.1810 H   0  0  0  0  0  0  0  0  0  0  0  0
  147.2739  132.4376  151.5444 H   0  0  0  0  0  0  0  0  0  0  0  0
  146.1686  131.1409  151.1271 H   0  0  0  0  0  0  0  0  0  0  0  0
  146.5778  133.5983  149.5841 H   0  0  0  0  0  0  0  0  0  0  0  0
  145.5370  132.2357  149.2158 H   0  0  0  0  0  0  0  0  0  0  0  0
  143.8800  134.0062  149.6370 H   0  0  0  0  0  0  0  0  0  0  0  0
  143.6808  131.7842  151.0092 H   0  0  0  0  0  0  0  0  0  0  0  0
  143.0756  133.1415  151.9834 H   0  0  0  0  0  0  0  0  0  0  0  0
  143.9629  135.4042  151.6540 H   0  0  0  0  0  0  0  0  0  0  0  0
  145.9509  136.8146  151.5018 H   0  0  0  0  0  0  0  0  0  0  0  0
  146.7994  135.6321  150.5300 H   0  0  0  0  0  0  0  0  0  0  0  0
  144.9756  137.4526  149.8039 H   0  0  0  0  0  0  0  0  0  0  0  0
  1  2  1  0  0  0  0
  1 20  1  0  0  0  0
  1 21  1  0  0  0  0
  1 22  1  0  0  0  0
  2 19  1  0  0  0  0
  2  3  2  0  0  0  0
  3  4  1  0  0  0  0
  3 23  1  0  0  0  0
  4  5  1  0  0  0  0
  4 18  2  0  0  0  0
  5  6  1  0  0  0  0
  5 24  1  0  0  0  0
  6  7  2  0  0  0  0
  6  8  1  0  0  0  0
  8  9  1  0  0  0  0
  8 25  1  0  0  0  0
  9 15  1  0  0  0  0
  9 10  1  0  0  0  0
  9 26  1  0  0  0  0
 10 14  1  0  0  0  0
 10 11  1  0  0  0  0
 10 27  1  0  0  0  0
 11 12  1  0  0  0  0
 11 28  1  0  0  0  0
 11 29  1  0  0  0  0
 12 13  1  0  0  0  0
 12 30  1  0  0  0  0
 12 31  1  0  0  0  0
 13 14  1  0  0  0  0
 13 15  1  0  0  0  0
 13 32  1  0  0  0  0
 14 33  1  0  0  0  0
 14 34  1  0  0  0  0
 15 16  1  0  0  0  0
 15 35  1  0  0  0  0
 16 17  1  0  0  0  0
 16 36  1  0  0  0  0
 16 37  1  0  0  0  0
 17 38  1  0  0  0  0
 18 19  1  0  0  0  0
M  END
> <s_m_source_file>
AV-unprocessed.smi

> <i_m_source_file_index>
781

> <i_lp_mmshare_version>
43012

> <i_f3d_flags>
0

> <s_epik_input>
W0NIM11jMVtjSF1jKG5vMSlbTkhdQyg9TylbTkhdW0NASF0oW0NAQEhdMjMpW0NASF0oW0NIMl1bT0hdKVtDQEBIXShbQ0gyXTMpW0NIMl1bQ0gyXTI=

> <s_epik_cmdline>
J2VwaWtfcHl0aG9uJywgJy1waCcsICc3LjAnLCAnLXRuJywgJzgnLCAnLW1hJywgJzIwMCcsICctbWV0YWxfYmluZGluZycsICctaW1hZScsICc8aW5maWxlLm1hZT4nLCAnLW9tYWUnLCAnPG91dGZpbGUubWFlPic=

> <r_lp_tautomer_probability>
1

> <r_epik_Ionization_Penalty>
2.32222e-05

> <r_epik_Ionization_Penalty_Charging>
0

> <r_epik_Ionization_Penalty_Neutral>
2.32222e-05

> <r_epik_State_Penalty>
-0

> <r_epik_Charging_Adjusted_Penalty>
0

> <i_epik_Tot_Q>
0

> <i_epik_Tot_abs_Q>
0

> <r_epik_Metal_State_Penalty>
-0

> <b_epik_Metal_Only>
0

> <s_lp_Force_Field>
OPLS_2005

> <r_lp_Energy>
48.8518

> <b_lp_Chiralities_Consistent>
1

> <s_lp_Variant>
AV-unprocessed.smi:781-7

> <Gold.Version>
5.8.1

> <Gold.Id.Protein>
6NUR|6NUR_protein|mol2

> <Gold.PLP.Fitness>
38.5692

> <Gold.PLP.PLP>
-30.2602

> <Gold.PLP.part.hbond>
-3.8940

> <Gold.PLP.part.metal>
0.0000

> <Gold.PLP.part.buried>
-3.9350

> <Gold.PLP.part.nonpolar>
-22.3871

> <Gold.PLP.part.repulsive>
0.1193

> <Gold.PLP.ligand.clash>
0.0000

> <Gold.PLP.ligand.torsion>
0.3363

> <Gold.PLP.Chemscore.Hbond>
2.9913

> <Gold.PLP.Chemscore.CHOScore>
0.0000

> <Gold.PLP.Chemscore.Metal>
0.0000

> <Gold.Chemscore.Hbonds>
donor molecule, donor type, donor heavy atom, donor atom, acceptor molecule, acceptor atom, score
      L1  H     5    24       P1  7948  1.00
      L1  H     8    25       P1  7948  0.99
      L1  H    17    38       P1 10171  0.96

> <Gold.PLP.Chemscore.Internal.Correction>
0.0078

> <Gold.Rescore>
     Score         DG    S(hbond)    S(metal)    S(lipo)     H(rot)  DE(clash)    DE(int)     intcor
     14.99     -16.69       2.43        0.00      67.15       1.86       0.33       1.37       ----

> <Gold.Chemscore.Fitness>
14.9921

> <Gold.Chemscore.DG>
-16.6869

> <Gold.Chemscore.ZeroCoef>
-5.4800

> <Gold.Chemscore.Hbond>
2.4278

> <Gold.Chemscore.Metal>
0.0000

> <Gold.Chemscore.Lipo>
67.1479

> <Gold.Chemscore.Internal_Hbond>
0.0000

> <Gold.Chemscore.DEClash>
0.3286

> <Gold.Chemscore.DEInternal>
1.3661

> <Gold.Chemscore.Rot>
1.8587

> <Gold.Chemscore.Internal.Correction>
   9.000000E+99

> <Gold.Chemscore.Hbonds>
donor molecule, donor type, donor heavy atom, donor atom, acceptor molecule, acceptor atom, score
      L1  H     5    24       P1  7948  0.40
      L1  H     8    25       P1  7948  0.88
      L1  H    17    38       P1 10171  0.89

> <Gold.Chemscore.Hbond.Weighted>
-8.1089

> <Gold.Chemscore.Metal.Weighted>
-0.0000

> <Gold.Chemscore.Lipo.Weighted>
-7.8563

> <Gold.Chemscore.Internal_Hbond.Weighted>
0.0000

> <Gold.Chemscore.DEClash.Weighted>
0.3286

> <Gold.Chemscore.DEInternal.Weighted>
1.3661

> <Gold.Chemscore.Rot.Weighted>
4.7583

> <Gold.Chemscore.Internal.Correction.Weighted>
   9.000000E+99

> <Gold.Protein.RotatedTorsions>
[ 6907 6896 6895 6894 ] final -160.73 input  -60.11 | X-H torsion
[ 7974 7965 7964 7962 ] final  109.73 input  175.53 | X-H torsion
[ 8008 7997 7996 7995 ] final   68.90 input   59.86 | X-H torsion
[ 10167 10162 10161 10158 ] final  131.37 input  -65.29 | X-H torsion
[ 10718 10713 10712 10709 ] final   52.19 input   66.30 | X-H torsion
[ 10763 10752 10751 10750 ] final   78.91 input  -60.55 | X-H torsion
[ 11005 11000 10999 10996 ] final -122.84 input  -57.11 | X-H torsion

> <Gold.Protein.ActiveResidues>
 VAL166  LYS551  ARG553  GLY616  TRP617  ASP618  TYR619  PRO620  LYS621  CYS622 
 ASP623  PHE694  ASN695  SER759  ASP760  ASP761  ALA762  ILE779  LEU786  VAL792 
 PHE793  MET794  SER795  GLU796  ALA797  LYS798  CYS799  TRP800  GLU811  SER814 

> <Gold.Protein.RotatedAtoms>
  151.3537  133.3916  159.2682 H   0  0  0  0  0  0  0  0  0  0  0  0  # atno 6907 bound_to 6896
  150.9781  134.9142  159.7838 H   0  0  0  0  0  0  0  0  0  0  0  0  # atno 6908 bound_to 6896
  152.5208  134.3500  159.9300 H   0  0  0  0  0  0  0  0  0  0  0  0  # atno 6909 bound_to 6896
  145.2640  139.2691  143.4002 H   0  0  0  0  0  0  0  0  0  0  0  0  # atno 7974 bound_to 7965
  155.7154  140.3494  155.4992 H   0  0  0  0  0  0  0  0  0  0  0  0  # atno 8008 bound_to 7997
  155.9318  140.1085  157.1148 H   0  0  0  0  0  0  0  0  0  0  0  0  # atno 8009 bound_to 7997
  154.4086  140.1229  156.4799 H   0  0  0  0  0  0  0  0  0  0  0  0  # atno 8010 bound_to 7997
  139.5387  144.6709  151.4698 H   0  0  0  0  0  0  0  0  0  0  0  0  # atno 10167 bound_to 10162
  157.5051  130.8464  149.8365 H   0  0  0  0  0  0  0  0  0  0  0  0  # atno 10718 bound_to 10713
  153.0911  135.4859  154.8692 H   0  0  0  0  0  0  0  0  0  0  0  0  # atno 10763 bound_to 10752
  154.7270  135.3052  154.8956 H   0  0  0  0  0  0  0  0  0  0  0  0  # atno 10764 bound_to 10752
  153.9603  135.6813  153.4798 H   0  0  0  0  0  0  0  0  0  0  0  0  # atno 10765 bound_to 10752
  140.9965  134.0464  157.3591 H   0  0  0  0  0  0  0  0  0  0  0  0  # atno 11005 bound_to 11000
  146.3266  140.3065  142.8624 LP  0  0  0  0  0  0  0  0  0  0  0  0  # atno 17320 bound_to 7965
  144.9393  140.8061  143.5640 LP  0  0  0  0  0  0  0  0  0  0  0  0  # atno 17321 bound_to 7965
  140.6606  143.8505  150.6884 LP  0  0  0  0  0  0  0  0  0  0  0  0  # atno 17342 bound_to 10162
  140.1899  143.4045  152.1871 LP  0  0  0  0  0  0  0  0  0  0  0  0  # atno 17343 bound_to 10162
  156.0253  130.3781  150.1840 LP  0  0  0  0  0  0  0  0  0  0  0  0  # atno 17370 bound_to 10713
  157.0030  130.9928  151.3386 LP  0  0  0  0  0  0  0  0  0  0  0  0  # atno 17371 bound_to 10713
  139.9017  135.0167  156.7300 LP  0  0  0  0  0  0  0  0  0  0  0  0  # atno 17394 bound_to 11000
  140.6958  133.9350  155.7994 LP  0  0  0  0  0  0  0  0  0  0  0  0  # atno 17395 bound_to 11000

$$$$
