AV-unprocessed.smi:1295|AV-procd|sdf|5409|dock2
  -GOLD-   22720 4563D 1   1.00000     0.00000
 Structure written by MMmdl.
 42 43  0  0  0  0  0  0  0  0  2 V2000
  150.5044  134.8481  155.0491 C   0  0  0  0  0  0  0  0  0  0  0  0
  150.5943  136.3569  154.9705 C   0  0  0  0  0  0  0  0  0  0  0  0
  149.5369  137.0350  154.7332 N   0  0  0  0  0  0  0  0  0  0  0  0
  149.6152  138.4363  154.6639 C   0  0  0  0  0  0  0  0  0  0  0  0
  148.3110  139.1603  154.3769 C   0  0  0  0  0  0  0  0  0  0  0  0
  150.8000  139.0869  154.8474 C   0  0  0  0  0  0  0  0  0  0  0  0
  150.9353  140.6077  154.7824 C   0  0  0  0  0  0  0  0  0  0  0  0
  150.5013  141.3651  156.0389 C   0  0  0  0  0  0  0  0  0  0  0  0
  149.3177  141.3825  156.3763 O   0  0  0  0  0  0  0  0  0  0  0  0
  151.4757  141.9900  156.7182 N   0  0  0  0  0  0  0  0  0  0  0  0
  151.2997  142.8088  157.9165 C   0  0  2  0  0  0  0  0  0  0  0  0
  151.5966  144.2770  157.5529 C   0  0  0  0  0  0  0  0  0  0  0  0
  151.5006  145.1990  158.7767 C   0  0  0  0  0  0  0  0  0  0  0  0
  152.4262  144.7167  159.9012 C   0  0  0  0  0  0  0  0  0  0  0  0
  152.1161  143.2615  160.2813 C   0  0  0  0  0  0  0  0  0  0  0  0
  152.2140  142.3149  159.0677 C   0  0  1  0  0  0  0  0  0  0  0  0
  151.9083  140.8671  159.4921 C   0  0  0  0  0  0  0  0  0  0  0  0
  151.9949  138.2685  155.1206 C   0  0  0  0  0  0  0  0  0  0  0  0
  153.0871  138.8044  155.3045 O   0  0  0  0  0  0  0  0  0  0  0  0
  151.8382  136.9146  155.1627 N   0  5  0  0  0  0  0  0  0  0  0  0
  149.4654  134.5173  155.0779 H   0  0  0  0  0  0  0  0  0  0  0  0
  151.0022  134.4834  155.9481 H   0  0  0  0  0  0  0  0  0  0  0  0
  150.9848  134.3978  154.1804 H   0  0  0  0  0  0  0  0  0  0  0  0
  148.3762  139.7078  153.4365 H   0  0  0  0  0  0  0  0  0  0  0  0
  148.0786  139.8655  155.1752 H   0  0  0  0  0  0  0  0  0  0  0  0
  147.4792  138.4590  154.2993 H   0  0  0  0  0  0  0  0  0  0  0  0
  151.9598  140.8985  154.5487 H   0  0  0  0  0  0  0  0  0  0  0  0
  150.3494  140.9638  153.9343 H   0  0  0  0  0  0  0  0  0  0  0  0
  152.4169  141.9108  156.3618 H   0  0  0  0  0  0  0  0  0  0  0  0
  150.2636  142.7572  158.2566 H   0  0  0  0  0  0  0  0  0  0  0  0
  152.5956  144.3567  157.1213 H   0  0  0  0  0  0  0  0  0  0  0  0
  150.9013  144.6174  156.7842 H   0  0  0  0  0  0  0  0  0  0  0  0
  151.7587  146.2200  158.4942 H   0  0  0  0  0  0  0  0  0  0  0  0
  150.4708  145.2267  159.1354 H   0  0  0  0  0  0  0  0  0  0  0  0
  153.4663  144.7997  159.5831 H   0  0  0  0  0  0  0  0  0  0  0  0
  152.3169  145.3605  160.7744 H   0  0  0  0  0  0  0  0  0  0  0  0
  152.8039  142.9375  161.0631 H   0  0  0  0  0  0  0  0  0  0  0  0
  151.1148  143.2056  160.7109 H   0  0  0  0  0  0  0  0  0  0  0  0
  153.2460  142.3402  158.7144 H   0  0  0  0  0  0  0  0  0  0  0  0
  150.8716  140.7605  159.8125 H   0  0  0  0  0  0  0  0  0  0  0  0
  152.5455  140.5586  160.3212 H   0  0  0  0  0  0  0  0  0  0  0  0
  152.0787  140.1632  158.6776 H   0  0  0  0  0  0  0  0  0  0  0  0
  1  2  1  0  0  0  0
  1 21  1  0  0  0  0
  1 22  1  0  0  0  0
  1 23  1  0  0  0  0
  2 20  1  0  0  0  0
  2  3  2  0  0  0  0
  3  4  1  0  0  0  0
  4  5  1  0  0  0  0
  4  6  2  0  0  0  0
  5 24  1  0  0  0  0
  5 25  1  0  0  0  0
  5 26  1  0  0  0  0
  6  7  1  0  0  0  0
  6 18  1  0  0  0  0
  7  8  1  0  0  0  0
  7 27  1  0  0  0  0
  7 28  1  0  0  0  0
  8  9  2  0  0  0  0
  8 10  1  0  0  0  0
 10 11  1  0  0  0  0
 10 29  1  0  0  0  0
 11 16  1  0  0  0  0
 11 12  1  0  0  0  0
 11 30  1  0  0  0  0
 12 13  1  0  0  0  0
 12 31  1  0  0  0  0
 12 32  1  0  0  0  0
 13 14  1  0  0  0  0
 13 33  1  0  0  0  0
 13 34  1  0  0  0  0
 14 15  1  0  0  0  0
 14 35  1  0  0  0  0
 14 36  1  0  0  0  0
 15 16  1  0  0  0  0
 15 37  1  0  0  0  0
 15 38  1  0  0  0  0
 16 17  1  0  0  0  0
 16 39  1  0  0  0  0
 17 40  1  0  0  0  0
 17 41  1  0  0  0  0
 17 42  1  0  0  0  0
 18 19  2  0  0  0  0
 18 20  1  0  0  0  0
M  CHG  1  20  -1
M  END
> <s_m_source_file>
AV-unprocessed.smi

> <i_m_source_file_index>
1295

> <i_lp_mmshare_version>
43012

> <i_f3d_flags>
0

> <s_epik_input>
W0NIM11jMW5jKFtDSDNdKWMoYyg9TylbbkhdMSlbQ0gyXUMoPU8pW05IXVtDQEBIXTJbQ0gyXVtDSDJdW0NIMl1bQ0gyXVtDQEhdMltDSDNd

> <s_epik_cmdline>
J2VwaWtfcHl0aG9uJywgJy1waCcsICc3LjAnLCAnLXRuJywgJzgnLCAnLW1hJywgJzIwMCcsICctbWV0YWxfYmluZGluZycsICctaW1hZScsICc8aW5maWxlLm1hZT4nLCAnLW9tYWUnLCAnPG91dGZpbGUubWFlPic=

> <r_lp_tautomer_probability>
0.839158

> <r_epik_Ionization_Penalty>
6.67742

> <r_epik_Ionization_Penalty_Charging>
7.78154e-08

> <r_epik_Ionization_Penalty_Neutral>
6.67742

> <r_epik_State_Penalty>
4.51991

> <r_epik_Charging_Adjusted_Penalty>
4.51991

> <i_epik_Tot_Q>
-1

> <i_epik_Tot_abs_Q>
1

> <r_epik_Metal_State_Penalty>
0.853272

> <b_epik_Metal_Only>
1

> <s_lp_Force_Field>
OPLS_2005

> <r_lp_Energy>
15.3241

> <b_lp_Chiralities_Consistent>
1

> <s_lp_Variant>
AV-unprocessed.smi:1295-9

> <Gold.Version>
5.8.1

> <Gold.Id.Protein>
6NUR|6NUR_protein|mol2

> <Gold.PLP.Fitness>
43.6483

> <Gold.PLP.PLP>
-35.4006

> <Gold.PLP.part.hbond>
-2.0000

> <Gold.PLP.part.metal>
0.0000

> <Gold.PLP.part.buried>
0.1082

> <Gold.PLP.part.nonpolar>
-34.2182

> <Gold.PLP.part.repulsive>
1.1827

> <Gold.PLP.ligand.clash>
0.0000

> <Gold.PLP.ligand.torsion>
0.3802

> <Gold.PLP.Chemscore.Hbond>
3.0000

> <Gold.PLP.Chemscore.CHOScore>
0.0000

> <Gold.PLP.Chemscore.Metal>
0.0000

> <Gold.Chemscore.Hbonds>
donor molecule, donor type, donor heavy atom, donor atom, acceptor molecule, acceptor atom, score
      P1  H  7997  8008       L1    19  1.00
      P1  H 10752 10764       L1    20  2.00

> <Gold.PLP.Chemscore.Internal.Correction>
0.0080

> <Gold.Rescore>
     Score         DG    S(hbond)    S(metal)    S(lipo)     H(rot)  DE(clash)    DE(int)     intcor
     16.14     -18.62       1.35        0.00     105.36       1.45       2.11       0.36       ----

> <Gold.Chemscore.Fitness>
16.1429

> <Gold.Chemscore.DG>
-18.6198

> <Gold.Chemscore.ZeroCoef>
-5.4800

> <Gold.Chemscore.Hbond>
1.3510

> <Gold.Chemscore.Metal>
0.0000

> <Gold.Chemscore.Lipo>
105.3552

> <Gold.Chemscore.Internal_Hbond>
0.0000

> <Gold.Chemscore.DEClash>
2.1136

> <Gold.Chemscore.DEInternal>
0.3633

> <Gold.Chemscore.Rot>
1.4450

> <Gold.Chemscore.Internal.Correction>
   9.000000E+99

> <Gold.Chemscore.Hbonds>
donor molecule, donor type, donor heavy atom, donor atom, acceptor molecule, acceptor atom, score
      P1  H  7997  8008       L1    19  0.93
      P1  H 10752 10764       L1    20  0.43

> <Gold.Chemscore.Hbond.Weighted>
-4.5124

> <Gold.Chemscore.Metal.Weighted>
-0.0000

> <Gold.Chemscore.Lipo.Weighted>
-12.3266

> <Gold.Chemscore.Internal_Hbond.Weighted>
0.0000

> <Gold.Chemscore.DEClash.Weighted>
2.1136

> <Gold.Chemscore.DEInternal.Weighted>
0.3633

> <Gold.Chemscore.Rot.Weighted>
3.6992

> <Gold.Chemscore.Internal.Correction.Weighted>
   9.000000E+99

> <Gold.Protein.RotatedTorsions>
[ 6907 6896 6895 6894 ] final   93.10 input  -60.11 | X-H torsion
[ 7974 7965 7964 7962 ] final  103.27 input  175.53 | X-H torsion
[ 8008 7997 7996 7995 ] final  -23.64 input   59.86 | X-H torsion
[ 10167 10162 10161 10158 ] final  -44.73 input  -65.29 | X-H torsion
[ 10718 10713 10712 10709 ] final   13.73 input   66.30 | X-H torsion
[ 10763 10752 10751 10750 ] final  -51.25 input  -60.55 | X-H torsion
[ 11005 11000 10999 10996 ] final  120.95 input  -57.11 | X-H torsion

> <Gold.Protein.ActiveResidues>
 VAL166  LYS551  ARG553  GLY616  TRP617  ASP618  TYR619  PRO620  LYS621  CYS622 
 ASP623  PHE694  ASN695  SER759  ASP760  ASP761  ALA762  ILE779  LEU786  VAL792 
 PHE793  MET794  SER795  GLU796  ALA797  LYS798  CYS799  TRP800  GLU811  SER814 

> <Gold.Protein.RotatedAtoms>
  152.5453  134.1399  159.8474 H   0  0  0  0  0  0  0  0  0  0  0  0  # atno 6907 bound_to 6896
  151.1436  133.4947  159.2604 H   0  0  0  0  0  0  0  0  0  0  0  0  # atno 6908 bound_to 6896
  151.1546  135.0254  159.8738 H   0  0  0  0  0  0  0  0  0  0  0  0  # atno 6909 bound_to 6896
  145.3481  139.2446  143.3573 H   0  0  0  0  0  0  0  0  0  0  0  0  # atno 7974 bound_to 7965
  154.4573  140.1975  156.0342 H   0  0  0  0  0  0  0  0  0  0  0  0  # atno 8008 bound_to 7997
  156.0772  140.3276  155.7620 H   0  0  0  0  0  0  0  0  0  0  0  0  # atno 8009 bound_to 7997
  155.5169  140.0566  157.2904 H   0  0  0  0  0  0  0  0  0  0  0  0  # atno 8010 bound_to 7997
  140.6885  143.2915  151.3538 H   0  0  0  0  0  0  0  0  0  0  0  0  # atno 10167 bound_to 10162
  157.0289  130.6185  149.5732 H   0  0  0  0  0  0  0  0  0  0  0  0  # atno 10718 bound_to 10713
  154.1235  135.6531  153.4907 H   0  0  0  0  0  0  0  0  0  0  0  0  # atno 10763 bound_to 10752
  153.0218  135.5276  154.7073 H   0  0  0  0  0  0  0  0  0  0  0  0  # atno 10764 bound_to 10752
  154.6287  135.2973  155.0211 H   0  0  0  0  0  0  0  0  0  0  0  0  # atno 10765 bound_to 10752
  139.9206  134.9637  156.7884 H   0  0  0  0  0  0  0  0  0  0  0  0  # atno 11005 bound_to 11000
  146.2979  140.4091  142.8715 LP  0  0  0  0  0  0  0  0  0  0  0  0  # atno 17320 bound_to 7965
  144.8739  140.7309  143.6029 LP  0  0  0  0  0  0  0  0  0  0  0  0  # atno 17321 bound_to 7965
  139.6266  144.0802  152.2439 LP  0  0  0  0  0  0  0  0  0  0  0  0  # atno 17342 bound_to 10162
  140.0264  144.6114  150.7524 LP  0  0  0  0  0  0  0  0  0  0  0  0  # atno 17343 bound_to 10162
  156.0076  130.5165  150.7883 LP  0  0  0  0  0  0  0  0  0  0  0  0  # atno 17370 bound_to 10713
  157.5193  131.0930  151.0099 LP  0  0  0  0  0  0  0  0  0  0  0  0  # atno 17371 bound_to 10713
  140.6487  133.9752  155.7744 LP  0  0  0  0  0  0  0  0  0  0  0  0  # atno 17394 bound_to 11000
  141.0723  134.0187  157.3508 LP  0  0  0  0  0  0  0  0  0  0  0  0  # atno 17395 bound_to 11000

$$$$
