AV-unprocessed.smi:2566|AV-procd|sdf|10073|dock2
  -GOLD-   2272014103D 1   1.00000     0.00000
 Structure written by MMmdl.
 21 22  0  0  0  0  0  0  0  0  2 V2000
  152.5077  138.9699  155.0409 C   0  0  0  0  0  0  0  0  0  0  0  0
  151.4130  139.6163  154.6522 N   0  0  0  0  0  0  0  0  0  0  0  0
  151.1331  140.3448  155.7701 C   0  0  0  0  0  0  0  0  0  0  0  0
  149.9910  141.3088  155.8602 C   0  0  1  0  0  0  0  0  0  0  0  0
  149.2039  141.4051  154.5394 C   0  0  0  0  0  0  0  0  0  0  0  0
  148.0355  142.2898  154.7144 N   0  3  0  0  0  0  0  0  0  0  0  0
  147.1878  141.8486  155.8400 C   0  0  0  0  0  0  0  0  0  0  0  0
  148.0304  141.7190  157.1217 C   0  0  0  0  0  0  0  0  0  0  0  0
  149.1265  140.8390  156.8929 O   0  0  0  0  0  0  0  0  0  0  0  0
  151.9888  140.2092  156.7773 N   0  0  0  0  0  0  0  0  0  0  0  0
  152.9139  139.2712  156.2960 O   0  0  0  0  0  0  0  0  0  0  0  0
  153.0511  138.2665  154.4273 H   0  0  0  0  0  0  0  0  0  0  0  0
  150.3815  142.2899  156.1385 H   0  0  0  0  0  0  0  0  0  0  0  0
  149.8353  141.7936  153.7398 H   0  0  0  0  0  0  0  0  0  0  0  0
  148.8591  140.4177  154.2283 H   0  0  0  0  0  0  0  0  0  0  0  0
  148.3636  143.2263  154.9037 H   0  0  0  0  0  0  0  0  0  0  0  0
  146.3762  142.5622  155.9838 H   0  0  0  0  0  0  0  0  0  0  0  0
  146.7325  140.8893  155.5906 H   0  0  0  0  0  0  0  0  0  0  0  0
  148.3957  142.6941  157.4478 H   0  0  0  0  0  0  0  0  0  0  0  0
  147.4211  141.3201  157.9330 H   0  0  0  0  0  0  0  0  0  0  0  0
  147.4893  142.2984  153.8645 H   0  0  0  0  0  0  0  0  0  0  0  0
  1 11  1  0  0  0  0
  1  2  2  0  0  0  0
  1 12  1  0  0  0  0
  2  3  1  0  0  0  0
  3  4  1  0  0  0  0
  3 10  2  0  0  0  0
  4  9  1  0  0  0  0
  4  5  1  0  0  0  0
  4 13  1  0  0  0  0
  5  6  1  0  0  0  0
  5 14  1  0  0  0  0
  5 15  1  0  0  0  0
  6  7  1  0  0  0  0
  6 16  1  0  0  0  0
  6 21  1  0  0  0  0
  7  8  1  0  0  0  0
  7 17  1  0  0  0  0
  7 18  1  0  0  0  0
  8  9  1  0  0  0  0
  8 19  1  0  0  0  0
  8 20  1  0  0  0  0
 10 11  1  0  0  0  0
M  CHG  1   6   1
M  END
> <s_m_source_file>
AV-unprocessed.smi

> <i_m_source_file_index>
2566

> <i_lp_mmshare_version>
43012

> <i_f3d_flags>
0

> <s_epik_input>
bjFvW2NIXW5jMVtDQEBIXTJbQ0gyXVtOSF1bQ0gyXVtDSDJdTzI=

> <s_epik_cmdline>
J2VwaWtfcHl0aG9uJywgJy1waCcsICc3LjAnLCAnLXRuJywgJzgnLCAnLW1hJywgJzIwMCcsICctbWV0YWxfYmluZGluZycsICctaW1hZScsICc8aW5maWxlLm1hZT4nLCAnLW9tYWUnLCAnPG91dGZpbGUubWFlPic=

> <r_lp_tautomer_probability>
1

> <r_epik_Ionization_Penalty>
0.157575

> <r_epik_Ionization_Penalty_Charging>
0.157575

> <r_epik_Ionization_Penalty_Neutral>
8.82756e-14

> <r_epik_State_Penalty>
0.146877

> <r_epik_Charging_Adjusted_Penalty>
0.304452

> <i_epik_Tot_Q>
1

> <i_epik_Tot_abs_Q>
1

> <r_epik_Metal_State_Penalty>
0.146877

> <b_epik_Metal_Only>
0

> <s_lp_Force_Field>
OPLS_2005

> <r_lp_Energy>
9.76896

> <b_lp_Chiralities_Consistent>
1

> <s_lp_Variant>
AV-unprocessed.smi:2566-2

> <Gold.Version>
5.8.1

> <Gold.Id.Protein>
6NUR|6NUR_protein|mol2

> <Gold.PLP.Fitness>
31.6043

> <Gold.PLP.PLP>
-19.6516

> <Gold.PLP.part.hbond>
-3.1473

> <Gold.PLP.part.metal>
0.0000

> <Gold.PLP.part.buried>
-3.2413

> <Gold.PLP.part.nonpolar>
-13.6837

> <Gold.PLP.part.repulsive>
0.3002

> <Gold.PLP.ligand.clash>
0.0000

> <Gold.PLP.ligand.torsion>
0.0312

> <Gold.PLP.Chemscore.Hbond>
4.0000

> <Gold.PLP.Chemscore.CHOScore>
0.0000

> <Gold.PLP.Chemscore.Metal>
0.0000

> <Gold.Chemscore.Hbonds>
donor molecule, donor type, donor heavy atom, donor atom, acceptor molecule, acceptor atom, score
      L1  H     6    16       P1  8028  2.00
      P1  H  7989  7998       L1     2  1.00
      P1  H  7997  8008       L1    11  1.00

> <Gold.PLP.Chemscore.Internal.Correction>
0.0151

> <Gold.Rescore>
     Score         DG    S(hbond)    S(metal)    S(lipo)     H(rot)  DE(clash)    DE(int)     intcor
     12.57     -12.59       2.20        0.00      19.98       1.00       0.01       0.01       ----

> <Gold.Chemscore.Fitness>
12.5724

> <Gold.Chemscore.DG>
-12.5922

> <Gold.Chemscore.ZeroCoef>
-5.4800

> <Gold.Chemscore.Hbond>
2.1961

> <Gold.Chemscore.Metal>
0.0000

> <Gold.Chemscore.Lipo>
19.9774

> <Gold.Chemscore.Internal_Hbond>
0.0000

> <Gold.Chemscore.DEClash>
0.0081

> <Gold.Chemscore.DEInternal>
0.0117

> <Gold.Chemscore.Rot>
1.0000

> <Gold.Chemscore.Internal.Correction>
   9.000000E+99

> <Gold.Chemscore.Hbonds>
donor molecule, donor type, donor heavy atom, donor atom, acceptor molecule, acceptor atom, score
      L1  H     6    16       P1  8028  1.00
      P1  H  7989  7998       L1     2  0.28
      P1  H  7997  8008       L1    11  0.24

> <Gold.Chemscore.Hbond.Weighted>
-7.3349

> <Gold.Chemscore.Metal.Weighted>
-0.0000

> <Gold.Chemscore.Lipo.Weighted>
-2.3374

> <Gold.Chemscore.Internal_Hbond.Weighted>
0.0000

> <Gold.Chemscore.DEClash.Weighted>
0.0081

> <Gold.Chemscore.DEInternal.Weighted>
0.0117

> <Gold.Chemscore.Rot.Weighted>
2.5600

> <Gold.Chemscore.Internal.Correction.Weighted>
   9.000000E+99

> <Gold.Protein.RotatedTorsions>
[ 6907 6896 6895 6894 ] final   25.09 input  -60.11 | X-H torsion
[ 7974 7965 7964 7962 ] final  139.16 input  175.53 | X-H torsion
[ 8008 7997 7996 7995 ] final  -25.90 input   59.86 | X-H torsion
[ 10167 10162 10161 10158 ] final  114.05 input  -65.29 | X-H torsion
[ 10718 10713 10712 10709 ] final  122.87 input   66.30 | X-H torsion
[ 10763 10752 10751 10750 ] final  164.51 input  -60.55 | X-H torsion
[ 11005 11000 10999 10996 ] final   11.92 input  -57.11 | X-H torsion

> <Gold.Protein.ActiveResidues>
 VAL166  LYS551  ARG553  GLY616  TRP617  ASP618  TYR619  PRO620  LYS621  CYS622 
 ASP623  PHE694  ASN695  SER759  ASP760  ASP761  ALA762  ILE779  LEU786  VAL792 
 PHE793  MET794  SER795  GLU796  ALA797  LYS798  CYS799  TRP800  GLU811  SER814 

> <Gold.Protein.RotatedAtoms>
  151.9673  135.0094  160.0550 H   0  0  0  0  0  0  0  0  0  0  0  0  # atno 6907 bound_to 6896
  152.1815  133.4706  159.4969 H   0  0  0  0  0  0  0  0  0  0  0  0  # atno 6908 bound_to 6896
  150.6918  134.1745  159.4268 H   0  0  0  0  0  0  0  0  0  0  0  0  # atno 6909 bound_to 6896
  144.9305  139.5053  143.5620 H   0  0  0  0  0  0  0  0  0  0  0  0  # atno 7974 bound_to 7965
  154.4452  140.1914  156.0691 H   0  0  0  0  0  0  0  0  0  0  0  0  # atno 8008 bound_to 7997
  156.0525  140.3307  155.7340 H   0  0  0  0  0  0  0  0  0  0  0  0  # atno 8009 bound_to 7997
  155.5535  140.0597  157.2835 H   0  0  0  0  0  0  0  0  0  0  0  0  # atno 8010 bound_to 7997
  139.6416  144.7124  151.2225 H   0  0  0  0  0  0  0  0  0  0  0  0  # atno 10167 bound_to 10162
  157.5709  131.1083  150.8369 H   0  0  0  0  0  0  0  0  0  0  0  0  # atno 10718 bound_to 10713
  154.3101  135.2757  155.2570 H   0  0  0  0  0  0  0  0  0  0  0  0  # atno 10763 bound_to 10752
  154.4969  135.5818  153.6505 H   0  0  0  0  0  0  0  0  0  0  0  0  # atno 10764 bound_to 10752
  152.9889  135.6148  154.3277 H   0  0  0  0  0  0  0  0  0  0  0  0  # atno 10765 bound_to 10752
  140.4978  134.0776  155.7786 H   0  0  0  0  0  0  0  0  0  0  0  0  # atno 11005 bound_to 11000
  146.3245  139.8251  142.8919 LP  0  0  0  0  0  0  0  0  0  0  0  0  # atno 17320 bound_to 7965
  145.3150  141.0229  143.3533 LP  0  0  0  0  0  0  0  0  0  0  0  0  # atno 17321 bound_to 7965
  140.7494  143.6301  150.8431 LP  0  0  0  0  0  0  0  0  0  0  0  0  # atno 17342 bound_to 10162
  139.9939  143.5817  152.2900 LP  0  0  0  0  0  0  0  0  0  0  0  0  # atno 17343 bound_to 10162
  156.8841  130.5190  149.5289 LP  0  0  0  0  0  0  0  0  0  0  0  0  # atno 17370 bound_to 10713
  156.0754  130.5777  150.9464 LP  0  0  0  0  0  0  0  0  0  0  0  0  # atno 17371 bound_to 10713
  141.1451  133.9069  157.2234 LP  0  0  0  0  0  0  0  0  0  0  0  0  # atno 17394 bound_to 11000
  139.9731  135.0122  156.9563 LP  0  0  0  0  0  0  0  0  0  0  0  0  # atno 17395 bound_to 11000

$$$$
