AV-unprocessed.smi:1985|AV-procd|sdf|8043|dock1
  -GOLD-   2272010243D 1   1.00000     0.00000
 Structure written by MMmdl.
 50 51  0  0  0  0  0  0  0  0  1 V2000
  150.1194  139.4599  154.6315 C   0  0  0  0  0  0  0  0  0  0  0  0
  149.2087  140.6851  154.4352 C   0  0  0  0  0  0  0  0  0  0  0  0
  147.8404  140.6377  155.1886 C   0  0  2  0  0  0  0  0  0  0  0  0
  147.1362  141.9921  154.8993 C   0  0  0  0  0  0  0  0  0  0  0  0
  148.1308  140.5536  156.7203 C   0  0  0  0  0  0  0  0  0  0  0  0
  149.1779  141.4795  157.1364 N   0  0  0  0  0  0  0  0  0  0  0  0
  150.3735  141.1499  157.6492 C   0  0  0  0  0  0  0  0  0  0  0  0
  150.7068  139.9880  157.8769 O   0  0  0  0  0  0  0  0  0  0  0  0
  151.3611  142.2910  157.9527 C   0  0  0  0  0  0  0  0  0  0  0  0
  151.9492  142.2474  159.3016 N   0  0  0  0  0  0  0  0  0  0  0  0
  151.6193  143.2274  160.2203 C   0  0  0  0  0  0  0  0  0  0  0  0
  152.1445  143.2910  161.4631 C   0  0  0  0  0  0  0  0  0  0  0  0
  153.1150  142.3021  161.9149 C   0  0  0  0  0  0  0  0  0  0  0  0
  153.6406  142.3293  163.0286 O   0  0  0  0  0  0  0  0  0  0  0  0
  153.4232  141.3020  160.9643 N   0  0  0  0  0  0  0  0  0  0  0  0
  154.4032  140.3109  161.3574 C   0  0  0  0  0  0  0  0  0  0  0  0
  152.8751  141.2431  159.6623 C   0  0  0  0  0  0  0  0  0  0  0  0
  153.1936  140.3711  158.8508 O   0  0  0  0  0  0  0  0  0  0  0  0
  147.0037  139.5003  154.7121 N   0  0  0  0  0  0  0  0  0  0  0  0
  146.7575  139.4683  153.2655 C   0  0  0  0  0  0  0  0  0  0  0  0
  146.0133  138.1923  152.8359 C   0  0  0  0  0  0  0  0  0  0  0  0
  144.7898  138.0849  153.5537 O   0  0  0  0  0  0  0  0  0  0  0  0
  144.9874  138.0568  154.9622 C   0  0  0  0  0  0  0  0  0  0  0  0
  145.7218  139.3328  155.4077 C   0  0  0  0  0  0  0  0  0  0  0  0
  151.0549  139.5911  154.0877 H   0  0  0  0  0  0  0  0  0  0  0  0
  149.6549  138.5472  154.2594 H   0  0  0  0  0  0  0  0  0  0  0  0
  150.3727  139.3051  155.6802 H   0  0  0  0  0  0  0  0  0  0  0  0
  149.7618  141.5826  154.7119 H   0  0  0  0  0  0  0  0  0  0  0  0
  149.0423  140.7922  153.3627 H   0  0  0  0  0  0  0  0  0  0  0  0
  147.8128  142.8408  155.0091 H   0  0  0  0  0  0  0  0  0  0  0  0
  146.3042  142.1726  155.5803 H   0  0  0  0  0  0  0  0  0  0  0  0
  146.7398  142.0303  153.8843 H   0  0  0  0  0  0  0  0  0  0  0  0
  147.2426  140.7930  157.3044 H   0  0  0  0  0  0  0  0  0  0  0  0
  148.4223  139.5397  156.9958 H   0  0  0  0  0  0  0  0  0  0  0  0
  148.9920  142.4604  156.9866 H   0  0  0  0  0  0  0  0  0  0  0  0
  152.1546  142.2586  157.2048 H   0  0  0  0  0  0  0  0  0  0  0  0
  150.8539  143.2443  157.7957 H   0  0  0  0  0  0  0  0  0  0  0  0
  150.9105  143.9888  159.9284 H   0  0  0  0  0  0  0  0  0  0  0  0
  151.8477  144.0879  162.1291 H   0  0  0  0  0  0  0  0  0  0  0  0
  154.3955  139.4613  160.6751 H   0  0  0  0  0  0  0  0  0  0  0  0
  154.1429  139.9554  162.3561 H   0  0  0  0  0  0  0  0  0  0  0  0
  155.3754  140.8061  161.3499 H   0  0  0  0  0  0  0  0  0  0  0  0
  146.1692  140.3343  152.9621 H   0  0  0  0  0  0  0  0  0  0  0  0
  147.6926  139.5094  152.7097 H   0  0  0  0  0  0  0  0  0  0  0  0
  145.7979  138.2209  151.7678 H   0  0  0  0  0  0  0  0  0  0  0  0
  146.6278  137.3086  153.0150 H   0  0  0  0  0  0  0  0  0  0  0  0
  144.0183  137.9847  155.4561 H   0  0  0  0  0  0  0  0  0  0  0  0
  145.5556  137.1677  155.2401 H   0  0  0  0  0  0  0  0  0  0  0  0
  145.8652  139.2748  156.4850 H   0  0  0  0  0  0  0  0  0  0  0  0
  145.0750  140.1897  155.2200 H   0  0  0  0  0  0  0  0  0  0  0  0
  1  2  1  0  0  0  0
  1 25  1  0  0  0  0
  1 26  1  0  0  0  0
  1 27  1  0  0  0  0
  2  3  1  0  0  0  0
  2 28  1  0  0  0  0
  2 29  1  0  0  0  0
  3  4  1  0  0  0  0
  3  5  1  0  0  0  0
  3 19  1  0  0  0  0
  4 30  1  0  0  0  0
  4 31  1  0  0  0  0
  4 32  1  0  0  0  0
  5  6  1  0  0  0  0
  5 33  1  0  0  0  0
  5 34  1  0  0  0  0
  6  7  1  0  0  0  0
  6 35  1  0  0  0  0
  7  8  2  0  0  0  0
  7  9  1  0  0  0  0
  9 10  1  0  0  0  0
  9 36  1  0  0  0  0
  9 37  1  0  0  0  0
 10 17  1  0  0  0  0
 10 11  1  0  0  0  0
 11 12  2  0  0  0  0
 11 38  1  0  0  0  0
 12 13  1  0  0  0  0
 12 39  1  0  0  0  0
 13 14  2  0  0  0  0
 13 15  1  0  0  0  0
 15 16  1  0  0  0  0
 15 17  1  0  0  0  0
 16 40  1  0  0  0  0
 16 41  1  0  0  0  0
 16 42  1  0  0  0  0
 17 18  2  0  0  0  0
 19 24  1  0  0  0  0
 19 20  1  0  0  0  0
 20 21  1  0  0  0  0
 20 43  1  0  0  0  0
 20 44  1  0  0  0  0
 21 22  1  0  0  0  0
 21 45  1  0  0  0  0
 21 46  1  0  0  0  0
 22 23  1  0  0  0  0
 23 24  1  0  0  0  0
 23 47  1  0  0  0  0
 23 48  1  0  0  0  0
 24 49  1  0  0  0  0
 24 50  1  0  0  0  0
M  END
> <s_m_source_file>
AV-unprocessed.smi

> <i_m_source_file_index>
1985

> <i_lp_mmshare_version>
43012

> <i_f3d_flags>
0

> <s_epik_input>
W0NIMl0xW0NIMl1PW0NIMl1bQ0gyXU4xW0NAQF0oW0NIM10pKFtDSDJdW0NIM10pW0NIMl1bTkhdQyg9TylbQ0gyXW4yW2NIXVtjSF1jKD1PKW4oW0NIM10pYzI9Tw==

> <s_epik_cmdline>
J2VwaWtfcHl0aG9uJywgJy1waCcsICc3LjAnLCAnLXRuJywgJzgnLCAnLW1hJywgJzIwMCcsICctbWV0YWxfYmluZGluZycsICctaW1hZScsICc8aW5maWxlLm1hZT4nLCAnLW9tYWUnLCAnPG91dGZpbGUubWFlPic=

> <r_lp_tautomer_probability>
1

> <r_epik_Ionization_Penalty>
0.318667

> <r_epik_Ionization_Penalty_Charging>
1.17294e-08

> <r_epik_Ionization_Penalty_Neutral>
0.318667

> <r_epik_State_Penalty>
0.313095

> <r_epik_Charging_Adjusted_Penalty>
0.313095

> <i_epik_Tot_Q>
0

> <i_epik_Tot_abs_Q>
0

> <r_epik_Metal_State_Penalty>
0.313065

> <b_epik_Metal_Only>
0

> <s_lp_Force_Field>
OPLS_2005

> <r_lp_Energy>
50.9959

> <b_lp_Chiralities_Consistent>
1

> <s_lp_Variant>
AV-unprocessed.smi:1985-2

> <Gold.Version>
5.8.1

> <Gold.Id.Protein>
6NUR|6NUR_protein|mol2

> <Gold.PLP.Fitness>
43.2591

> <Gold.PLP.PLP>
-40.6644

> <Gold.PLP.part.hbond>
-2.0000

> <Gold.PLP.part.metal>
0.0000

> <Gold.PLP.part.buried>
-3.2664

> <Gold.PLP.part.nonpolar>
-35.0148

> <Gold.PLP.part.repulsive>
0.3410

> <Gold.PLP.ligand.clash>
0.0000

> <Gold.PLP.ligand.torsion>
0.3277

> <Gold.PLP.Chemscore.Hbond>
0.9760

> <Gold.PLP.Chemscore.CHOScore>
0.0000

> <Gold.PLP.Chemscore.Metal>
0.0000

> <Gold.Chemscore.Hbonds>
donor molecule, donor type, donor heavy atom, donor atom, acceptor molecule, acceptor atom, score
      P1  H  7997  8008       L1    18  0.27

> <Gold.PLP.Chemscore.Internal.Correction>
0.3221

> <Gold.Rescore>
     Score         DG    S(hbond)    S(metal)    S(lipo)     H(rot)  DE(clash)    DE(int)     intcor
     11.38     -12.01       0.89        0.00      78.40       2.20       0.09       0.54       ----

> <Gold.Chemscore.Fitness>
11.3803

> <Gold.Chemscore.DG>
-12.0102

> <Gold.Chemscore.ZeroCoef>
-5.4800

> <Gold.Chemscore.Hbond>
0.8913

> <Gold.Chemscore.Metal>
0.0000

> <Gold.Chemscore.Lipo>
78.4017

> <Gold.Chemscore.Internal_Hbond>
0.0000

> <Gold.Chemscore.DEClash>
0.0880

> <Gold.Chemscore.DEInternal>
0.5419

> <Gold.Chemscore.Rot>
2.1952

> <Gold.Chemscore.Internal.Correction>
   9.000000E+99

> <Gold.Chemscore.Hbonds>
donor molecule, donor type, donor heavy atom, donor atom, acceptor molecule, acceptor atom, score
      P1  H  7997  8008       L1    18  0.26

> <Gold.Chemscore.Hbond.Weighted>
-2.9769

> <Gold.Chemscore.Metal.Weighted>
-0.0000

> <Gold.Chemscore.Lipo.Weighted>
-9.1730

> <Gold.Chemscore.Internal_Hbond.Weighted>
0.0000

> <Gold.Chemscore.DEClash.Weighted>
0.0880

> <Gold.Chemscore.DEInternal.Weighted>
0.5419

> <Gold.Chemscore.Rot.Weighted>
5.6197

> <Gold.Chemscore.Internal.Correction.Weighted>
   9.000000E+99

> <Gold.Protein.RotatedTorsions>
[ 6907 6896 6895 6894 ] final -154.29 input  -60.11 | X-H torsion
[ 7974 7965 7964 7962 ] final  -69.55 input  175.53 | X-H torsion
[ 8008 7997 7996 7995 ] final  -97.93 input   59.86 | X-H torsion
[ 10167 10162 10161 10158 ] final   11.57 input  -65.29 | X-H torsion
[ 10718 10713 10712 10709 ] final  139.25 input   66.30 | X-H torsion
[ 10763 10752 10751 10750 ] final   68.52 input  -60.55 | X-H torsion
[ 11005 11000 10999 10996 ] final   51.75 input  -57.11 | X-H torsion

> <Gold.Protein.ActiveResidues>
 VAL166  LYS551  ARG553  GLY616  TRP617  ASP618  TYR619  PRO620  LYS621  CYS622 
 ASP623  PHE694  ASN695  SER759  ASP760  ASP761  ALA762  ILE779  LEU786  VAL792 
 PHE793  MET794  SER795  GLU796  ALA797  LYS798  CYS799  TRP800  GLU811  SER814 

> <Gold.Protein.RotatedAtoms>
  151.2553  133.4329  159.2613 H   0  0  0  0  0  0  0  0  0  0  0  0  # atno 6907 bound_to 6896
  151.0580  134.9718  159.8256 H   0  0  0  0  0  0  0  0  0  0  0  0  # atno 6908 bound_to 6896
  152.5394  134.2504  159.8949 H   0  0  0  0  0  0  0  0  0  0  0  0  # atno 6909 bound_to 6896
  145.7023  140.9111  143.0724 H   0  0  0  0  0  0  0  0  0  0  0  0  # atno 7974 bound_to 7965
  154.7944  140.0459  157.1225 H   0  0  0  0  0  0  0  0  0  0  0  0  # atno 8008 bound_to 7997
  154.9553  140.3070  155.5036 H   0  0  0  0  0  0  0  0  0  0  0  0  # atno 8009 bound_to 7997
  156.2954  140.2280  156.4634 H   0  0  0  0  0  0  0  0  0  0  0  0  # atno 8010 bound_to 7997
  140.6123  143.8381  150.7079 H   0  0  0  0  0  0  0  0  0  0  0  0  # atno 10167 bound_to 10162
  157.4164  131.1034  151.0400 H   0  0  0  0  0  0  0  0  0  0  0  0  # atno 10718 bound_to 10713
  153.0239  135.5244  154.7147 H   0  0  0  0  0  0  0  0  0  0  0  0  # atno 10763 bound_to 10752
  154.6219  135.2890  155.0318 H   0  0  0  0  0  0  0  0  0  0  0  0  # atno 10764 bound_to 10752
  154.1301  135.6594  153.4973 H   0  0  0  0  0  0  0  0  0  0  0  0  # atno 10765 bound_to 10752
  140.0906  134.5214  155.8856 H   0  0  0  0  0  0  0  0  0  0  0  0  # atno 11005 bound_to 11000
  144.6965  139.8965  143.7456 LP  0  0  0  0  0  0  0  0  0  0  0  0  # atno 17320 bound_to 7965
  146.0786  139.3774  143.0478 LP  0  0  0  0  0  0  0  0  0  0  0  0  # atno 17321 bound_to 7965
  140.1952  143.4003  152.1833 LP  0  0  0  0  0  0  0  0  0  0  0  0  # atno 17342 bound_to 10162
  139.5371  144.7220  151.4857 LP  0  0  0  0  0  0  0  0  0  0  0  0  # atno 17343 bound_to 10162
  157.1346  130.6117  149.5538 LP  0  0  0  0  0  0  0  0  0  0  0  0  # atno 17370 bound_to 10713
  155.9866  130.4902  150.7088 LP  0  0  0  0  0  0  0  0  0  0  0  0  # atno 17371 bound_to 10713
  141.2076  133.6666  156.6320 LP  0  0  0  0  0  0  0  0  0  0  0  0  # atno 17394 bound_to 11000
  140.3357  134.7891  157.4360 LP  0  0  0  0  0  0  0  0  0  0  0  0  # atno 17395 bound_to 11000

$$$$
