AV-unprocessed.smi:299|AV-procd|sdf|2267|dock1
  -GOLD-   2262022153D 1   1.00000     0.00000
 Structure written by MMmdl.
 42 43  0  0  0  0  0  0  0  0  2 V2000
  143.7215  136.0373  152.2192 C   0  0  0  0  0  0  0  0  0  0  0  0
  145.1418  136.0289  151.6126 C   0  0  2  0  0  0  0  0  0  0  0  0
  145.3651  134.8359  150.6592 C   0  0  0  0  0  0  0  0  0  0  0  0
  145.5079  133.5084  151.4182 C   0  0  0  0  0  0  0  0  0  0  0  0
  146.6118  133.6250  152.4760 C   0  0  0  0  0  0  0  0  0  0  0  0
  146.3630  134.8199  153.4108 C   0  0  0  0  0  0  0  0  0  0  0  0
  146.2267  136.0857  152.6387 N   0  3  2  0  0  0  0  0  0  0  0  0
  146.1788  137.3029  153.4903 C   0  0  0  0  0  0  0  0  0  0  0  0
  146.5423  138.5785  152.7116 C   0  0  0  0  0  0  0  0  0  0  0  0
  147.6827  139.3640  153.3809 C   0  0  0  0  0  0  0  0  0  0  0  0
  148.8849  138.5517  153.5230 N   0  0  0  0  0  0  0  0  0  0  0  0
  150.0417  138.9696  154.0608 C   0  0  0  0  0  0  0  0  0  0  0  0
  150.2099  140.1029  154.5103 O   0  0  0  0  0  0  0  0  0  0  0  0
  151.1866  137.9563  154.0919 C   0  0  0  0  0  0  0  0  0  0  0  0
  151.9670  138.0908  155.3075 N   0  0  0  0  0  0  0  0  0  0  0  0
  152.4501  139.1711  155.9244 C   0  0  0  0  0  0  0  0  0  0  0  0
  153.1339  138.8479  157.0116 N   0  0  0  0  0  0  0  0  0  0  0  0
  153.0453  137.4662  157.0403 N   0  0  0  0  0  0  0  0  0  0  0  0
  152.3547  137.0110  156.0314 N   0  0  0  0  0  0  0  0  0  0  0  0
  142.9679  136.0181  151.4313 H   0  0  0  0  0  0  0  0  0  0  0  0
  143.5385  136.9352  152.8091 H   0  0  0  0  0  0  0  0  0  0  0  0
  143.5381  135.1765  152.8614 H   0  0  0  0  0  0  0  0  0  0  0  0
  145.2309  136.9314  151.0060 H   0  0  0  0  0  0  0  0  0  0  0  0
  144.5498  134.7690  149.9379 H   0  0  0  0  0  0  0  0  0  0  0  0
  146.2702  135.0090  150.0751 H   0  0  0  0  0  0  0  0  0  0  0  0
  144.5634  133.2425  151.8939 H   0  0  0  0  0  0  0  0  0  0  0  0
  145.7400  132.7020  150.7218 H   0  0  0  0  0  0  0  0  0  0  0  0
  146.6708  132.7037  153.0563 H   0  0  0  0  0  0  0  0  0  0  0  0
  147.5783  133.7426  151.9837 H   0  0  0  0  0  0  0  0  0  0  0  0
  145.4720  134.6499  154.0160 H   0  0  0  0  0  0  0  0  0  0  0  0
  147.1971  134.8914  154.1075 H   0  0  0  0  0  0  0  0  0  0  0  0
  145.1671  137.4252  153.8796 H   0  0  0  0  0  0  0  0  0  0  0  0
  146.8321  137.1808  154.3556 H   0  0  0  0  0  0  0  0  0  0  0  0
  146.8369  138.3312  151.6921 H   0  0  0  0  0  0  0  0  0  0  0  0
  145.6584  139.2129  152.6325 H   0  0  0  0  0  0  0  0  0  0  0  0
  147.9106  140.2700  152.8164 H   0  0  0  0  0  0  0  0  0  0  0  0
  147.3767  139.6868  154.3765 H   0  0  0  0  0  0  0  0  0  0  0  0
  148.8382  137.6028  153.1795 H   0  0  0  0  0  0  0  0  0  0  0  0
  150.7908  136.9411  154.0412 H   0  0  0  0  0  0  0  0  0  0  0  0
  151.8347  138.0940  153.2248 H   0  0  0  0  0  0  0  0  0  0  0  0
  152.3072  140.1836  155.5770 H   0  0  0  0  0  0  0  0  0  0  0  0
  147.0794  136.1707  152.1039 H   0  0  0  0  0  0  0  0  0  0  0  0
  1  2  1  0  0  0  0
  1 20  1  0  0  0  0
  1 21  1  0  0  0  0
  1 22  1  0  0  0  0
  2  7  1  0  0  0  0
  2  3  1  0  0  0  0
  2 23  1  0  0  0  0
  3  4  1  0  0  0  0
  3 24  1  0  0  0  0
  3 25  1  0  0  0  0
  4  5  1  0  0  0  0
  4 26  1  0  0  0  0
  4 27  1  0  0  0  0
  5  6  1  0  0  0  0
  5 28  1  0  0  0  0
  5 29  1  0  0  0  0
  6  7  1  0  0  0  0
  6 30  1  0  0  0  0
  6 31  1  0  0  0  0
  7  8  1  0  0  0  0
  7 42  1  0  0  0  0
  8  9  1  0  0  0  0
  8 32  1  0  0  0  0
  8 33  1  0  0  0  0
  9 10  1  0  0  0  0
  9 34  1  0  0  0  0
  9 35  1  0  0  0  0
 10 11  1  0  0  0  0
 10 36  1  0  0  0  0
 10 37  1  0  0  0  0
 11 12  1  0  0  0  0
 11 38  1  0  0  0  0
 12 13  2  0  0  0  0
 12 14  1  0  0  0  0
 14 15  1  0  0  0  0
 14 39  1  0  0  0  0
 14 40  1  0  0  0  0
 15 19  1  0  0  0  0
 15 16  1  0  0  0  0
 16 17  2  0  0  0  0
 16 41  1  0  0  0  0
 17 18  1  0  0  0  0
 18 19  2  0  0  0  0
M  CHG  1   7   1
M  END
> <s_m_source_file>
AV-unprocessed.smi

> <i_m_source_file_index>
299

> <i_lp_mmshare_version>
43012

> <i_f3d_flags>
0

> <s_epik_input>
W0NIM11bQ0BASF0xW0NIMl1bQ0gyXVtDSDJdW0NIMl1OMVtDSDJdW0NIMl1bQ0gyXVtOSF1DKD1PKVtDSDJdbjJbY0hdbm5uMg==

> <s_epik_cmdline>
J2VwaWtfcHl0aG9uJywgJy1waCcsICc3LjAnLCAnLXRuJywgJzgnLCAnLW1hJywgJzIwMCcsICctbWV0YWxfYmluZGluZycsICctaW1hZScsICc8aW5maWxlLm1hZT4nLCAnLW9tYWUnLCAnPG91dGZpbGUubWFlPic=

> <r_lp_tautomer_probability>
1

> <r_epik_Ionization_Penalty>
0.000544863

> <r_epik_Ionization_Penalty_Charging>
0.000543475

> <r_epik_Ionization_Penalty_Neutral>
1.38784e-06

> <r_epik_State_Penalty>
0.000340025

> <r_epik_Charging_Adjusted_Penalty>
0.0008835

> <i_epik_Tot_Q>
1

> <i_epik_Tot_abs_Q>
1

> <r_epik_Metal_State_Penalty>
-0

> <b_epik_Metal_Only>
0

> <s_lp_Force_Field>
OPLS_2005

> <r_lp_Energy>
22.352

> <b_lp_Chiralities_Consistent>
1

> <s_lp_Variant>
AV-unprocessed.smi:299-3

> <Gold.Version>
5.8.1

> <Gold.Id.Protein>
6NUR|6NUR_protein|mol2

> <Gold.PLP.Fitness>
48.6187

> <Gold.PLP.PLP>
-32.7074

> <Gold.PLP.part.hbond>
-6.0000

> <Gold.PLP.part.metal>
0.0000

> <Gold.PLP.part.buried>
-2.0463

> <Gold.PLP.part.nonpolar>
-25.2266

> <Gold.PLP.part.repulsive>
0.1640

> <Gold.PLP.ligand.clash>
0.0000

> <Gold.PLP.ligand.torsion>
0.9975

> <Gold.PLP.Chemscore.Hbond>
5.9280

> <Gold.PLP.Chemscore.CHOScore>
0.0000

> <Gold.PLP.Chemscore.Metal>
0.0000

> <Gold.Chemscore.Hbonds>
donor molecule, donor type, donor heavy atom, donor atom, acceptor molecule, acceptor atom, score
      L1  H     7    42       P1  7948  2.00
      L1  H    11    38       P1  7948  1.00
      P1  H  7989  7998       L1    13  1.00
      P1  H  7997  8010       L1    17  0.95
      P1  H 10752 10765       L1    19  0.93

> <Gold.PLP.Chemscore.Internal.Correction>
0.1223

> <Gold.Rescore>
     Score         DG    S(hbond)    S(metal)    S(lipo)     H(rot)  DE(clash)    DE(int)     intcor
     15.01     -18.07       4.25        0.00      51.31       2.97       0.55       2.50       ----

> <Gold.Chemscore.Fitness>
15.0137

> <Gold.Chemscore.DG>
-18.0653

> <Gold.Chemscore.ZeroCoef>
-5.4800

> <Gold.Chemscore.Hbond>
4.2455

> <Gold.Chemscore.Metal>
0.0000

> <Gold.Chemscore.Lipo>
51.3085

> <Gold.Chemscore.Internal_Hbond>
0.0000

> <Gold.Chemscore.DEClash>
0.5547

> <Gold.Chemscore.DEInternal>
2.4968

> <Gold.Chemscore.Rot>
2.9680

> <Gold.Chemscore.Internal.Correction>
   9.000000E+99

> <Gold.Chemscore.Hbonds>
donor molecule, donor type, donor heavy atom, donor atom, acceptor molecule, acceptor atom, score
      L1  H     7    42       P1  7948  0.98
      L1  H    11    38       P1  7948  0.97
      P1  H  7989  7998       L1    13  0.54
      P1  H  7997  8010       L1    17  0.21
      P1  H 10752 10765       L1    19  0.78

> <Gold.Chemscore.Hbond.Weighted>
-14.1801

> <Gold.Chemscore.Metal.Weighted>
-0.0000

> <Gold.Chemscore.Lipo.Weighted>
-6.0031

> <Gold.Chemscore.Internal_Hbond.Weighted>
0.0000

> <Gold.Chemscore.DEClash.Weighted>
0.5547

> <Gold.Chemscore.DEInternal.Weighted>
2.4968

> <Gold.Chemscore.Rot.Weighted>
7.5980

> <Gold.Chemscore.Internal.Correction.Weighted>
   9.000000E+99

> <Gold.Protein.RotatedTorsions>
[ 6907 6896 6895 6894 ] final -138.22 input  -60.11 | X-H torsion
[ 7974 7965 7964 7962 ] final   67.92 input  175.53 | X-H torsion
[ 8008 7997 7996 7995 ] final   44.01 input   59.86 | X-H torsion
[ 10167 10162 10161 10158 ] final -139.27 input  -65.29 | X-H torsion
[ 10718 10713 10712 10709 ] final   84.85 input   66.30 | X-H torsion
[ 10763 10752 10751 10750 ] final -154.84 input  -60.55 | X-H torsion
[ 11005 11000 10999 10996 ] final  124.90 input  -57.11 | X-H torsion

> <Gold.Protein.ActiveResidues>
 VAL166  LYS551  ARG553  GLY616  TRP617  ASP618  TYR619  PRO620  LYS621  CYS622 
 ASP623  PHE694  ASN695  SER759  ASP760  ASP761  ALA762  ILE779  LEU786  VAL792 
 PHE793  MET794  SER795  GLU796  ALA797  LYS798  CYS799  TRP800  GLU811  SER814 

> <Gold.Protein.RotatedAtoms>
  151.0322  133.5780  159.2659 H   0  0  0  0  0  0  0  0  0  0  0  0  # atno 6907 bound_to 6896
  151.2857  135.0726  159.9195 H   0  0  0  0  0  0  0  0  0  0  0  0  # atno 6908 bound_to 6896
  152.5347  134.0029  159.7957 H   0  0  0  0  0  0  0  0  0  0  0  0  # atno 6909 bound_to 6896
  145.8089  139.3021  143.1111 H   0  0  0  0  0  0  0  0  0  0  0  0  # atno 7974 bound_to 7965
  155.3123  140.3392  155.4243 H   0  0  0  0  0  0  0  0  0  0  0  0  # atno 8008 bound_to 7997
  156.1950  140.1711  156.8055 H   0  0  0  0  0  0  0  0  0  0  0  0  # atno 8009 bound_to 7997
  154.5487  140.0710  156.8616 H   0  0  0  0  0  0  0  0  0  0  0  0  # atno 8010 bound_to 7997
  139.8396  143.7340  152.2663 H   0  0  0  0  0  0  0  0  0  0  0  0  # atno 10167 bound_to 10162
  157.6905  131.0150  150.2734 H   0  0  0  0  0  0  0  0  0  0  0  0  # atno 10718 bound_to 10713
  154.7830  135.3181  154.7948 H   0  0  0  0  0  0  0  0  0  0  0  0  # atno 10763 bound_to 10752
  153.8655  135.6849  153.4783 H   0  0  0  0  0  0  0  0  0  0  0  0  # atno 10764 bound_to 10752
  153.1472  135.4714  154.9522 H   0  0  0  0  0  0  0  0  0  0  0  0  # atno 10765 bound_to 10752
  139.9381  134.9638  156.8479 H   0  0  0  0  0  0  0  0  0  0  0  0  # atno 11005 bound_to 11000
  145.9799  140.8691  143.0120 LP  0  0  0  0  0  0  0  0  0  0  0  0  # atno 17320 bound_to 7965
  144.6760  140.2065  143.7381 LP  0  0  0  0  0  0  0  0  0  0  0  0  # atno 17321 bound_to 7965
  139.7572  144.7517  151.0417 LP  0  0  0  0  0  0  0  0  0  0  0  0  # atno 17342 bound_to 10162
  140.7799  143.4791  151.0042 LP  0  0  0  0  0  0  0  0  0  0  0  0  # atno 17343 bound_to 10162
  156.3293  130.3798  149.7505 LP  0  0  0  0  0  0  0  0  0  0  0  0  # atno 17370 bound_to 10713
  156.5050  130.8146  151.3147 LP  0  0  0  0  0  0  0  0  0  0  0  0  # atno 17371 bound_to 10713
  140.6023  134.0160  155.7542 LP  0  0  0  0  0  0  0  0  0  0  0  0  # atno 17394 bound_to 11000
  141.1003  133.9778  157.3089 LP  0  0  0  0  0  0  0  0  0  0  0  0  # atno 17395 bound_to 11000

$$$$
