AV-unprocessed.smi:2817|AV-procd|sdf|10846|dock9
  -GOLD-   2272015293D 1   1.00000     0.00000
 Structure written by MMmdl.
 42 44  0  0  0  0  0  0  0  0  1 V2000
  151.3918  139.5999  155.0077 O   0  0  0  0  0  0  0  0  0  0  0  0
  151.1611  140.3415  155.9629 C   0  0  0  0  0  0  0  0  0  0  0  0
  151.8144  140.1779  157.2619 C   0  0  0  0  0  0  0  0  0  0  0  0
  151.5394  141.0149  158.2901 C   0  0  0  0  0  0  0  0  0  0  0  0
  152.2105  140.8348  159.6491 C   0  0  0  0  0  0  0  0  0  0  0  0
  153.1083  141.9947  160.1128 C   0  0  0  0  0  0  0  0  0  0  0  0
  154.3420  141.1735  159.7213 C   0  0  0  0  0  0  0  0  0  0  0  0
  153.4514  139.9288  159.6343 C   0  0  0  0  0  0  0  0  0  0  0  0
  150.6084  142.0504  158.1320 N   0  0  0  0  0  0  0  0  0  0  0  0
  150.0136  142.2147  156.9938 C   0  0  0  0  0  0  0  0  0  0  0  0
  150.2772  141.3782  155.8920 N   0  0  0  0  0  0  0  0  0  0  0  0
  149.5300  141.6654  154.6573 C   0  0  0  0  0  0  0  0  0  0  0  0
  148.4330  140.6096  154.3877 C   0  0  2  0  0  0  0  0  0  0  0  0
  148.9672  139.5857  153.5733 O   0  0  0  0  0  0  0  0  0  0  0  0
  147.2277  141.1999  153.6401 C   0  0  0  0  0  0  0  0  0  0  0  0
  146.4606  141.9713  154.5551 O   0  0  0  0  0  0  0  0  0  0  0  0
  145.9365  143.1702  154.1227 C   0  0  0  0  0  0  0  0  0  0  0  0
  145.1808  143.9101  155.0557 C   0  0  0  0  0  0  0  0  0  0  0  0
  144.6070  145.1459  154.7007 C   0  0  0  0  0  0  0  0  0  0  0  0
  144.7842  145.6565  153.4018 C   0  0  0  0  0  0  0  0  0  0  0  0
  145.5359  144.9287  152.4606 C   0  0  0  0  0  0  0  0  0  0  0  0
  146.1101  143.6924  152.8157 C   0  0  0  0  0  0  0  0  0  0  0  0
  152.5259  139.3756  157.3933 H   0  0  0  0  0  0  0  0  0  0  0  0
  151.4948  140.5399  160.4180 H   0  0  0  0  0  0  0  0  0  0  0  0
  152.9916  142.9280  159.5604 H   0  0  0  0  0  0  0  0  0  0  0  0
  153.0464  142.1635  161.1887 H   0  0  0  0  0  0  0  0  0  0  0  0
  154.7560  141.4658  158.7554 H   0  0  0  0  0  0  0  0  0  0  0  0
  155.1129  141.1229  160.4909 H   0  0  0  0  0  0  0  0  0  0  0  0
  153.5211  139.3016  160.5240 H   0  0  0  0  0  0  0  0  0  0  0  0
  153.5851  139.3437  158.7236 H   0  0  0  0  0  0  0  0  0  0  0  0
  149.2752  142.9997  156.8200 H   0  0  0  0  0  0  0  0  0  0  0  0
  149.0730  142.6527  154.7488 H   0  0  0  0  0  0  0  0  0  0  0  0
  150.1928  141.7648  153.7956 H   0  0  0  0  0  0  0  0  0  0  0  0
  148.0823  140.1623  155.3187 H   0  0  0  0  0  0  0  0  0  0  0  0
  148.9001  139.8533  152.6696 H   0  0  0  0  0  0  0  0  0  0  0  0
  147.5660  141.8125  152.8024 H   0  0  0  0  0  0  0  0  0  0  0  0
  146.6095  140.3925  153.2434 H   0  0  0  0  0  0  0  0  0  0  0  0
  145.0394  143.5256  156.0553 H   0  0  0  0  0  0  0  0  0  0  0  0
  144.0306  145.7014  155.4257 H   0  0  0  0  0  0  0  0  0  0  0  0
  144.3440  146.6042  153.1280 H   0  0  0  0  0  0  0  0  0  0  0  0
  145.6722  145.3190  151.4628 H   0  0  0  0  0  0  0  0  0  0  0  0
  146.6786  143.1632  152.0661 H   0  0  0  0  0  0  0  0  0  0  0  0
  1  2  2  0  0  0  0
  2 11  1  0  0  0  0
  2  3  1  0  0  0  0
  3  4  2  0  0  0  0
  3 23  1  0  0  0  0
  4  5  1  0  0  0  0
  4  9  1  0  0  0  0
  5  8  1  0  0  0  0
  5  6  1  0  0  0  0
  5 24  1  0  0  0  0
  6  7  1  0  0  0  0
  6 25  1  0  0  0  0
  6 26  1  0  0  0  0
  7  8  1  0  0  0  0
  7 27  1  0  0  0  0
  7 28  1  0  0  0  0
  8 29  1  0  0  0  0
  8 30  1  0  0  0  0
  9 10  2  0  0  0  0
 10 11  1  0  0  0  0
 10 31  1  0  0  0  0
 11 12  1  0  0  0  0
 12 13  1  0  0  0  0
 12 32  1  0  0  0  0
 12 33  1  0  0  0  0
 13 14  1  0  0  0  0
 13 15  1  0  0  0  0
 13 34  1  0  0  0  0
 14 35  1  0  0  0  0
 15 16  1  0  0  0  0
 15 36  1  0  0  0  0
 15 37  1  0  0  0  0
 16 17  1  0  0  0  0
 17 22  1  0  0  0  0
 17 18  2  0  0  0  0
 18 19  1  0  0  0  0
 18 38  1  0  0  0  0
 19 20  2  0  0  0  0
 19 39  1  0  0  0  0
 20 21  1  0  0  0  0
 20 40  1  0  0  0  0
 21 22  2  0  0  0  0
 21 41  1  0  0  0  0
 22 42  1  0  0  0  0
M  END
> <s_m_source_file>
AV-unprocessed.smi

> <i_m_source_file_index>
2817

> <i_lp_mmshare_version>
43012

> <i_f3d_flags>
0

> <s_epik_input>
W0NIMl0xW0NIMl1bQ0gyXVtDSF0xYyhbY0hdYzI9TyluW2NIXW4yW0NIMl1bQ0BIXShbT0hdKVtDSDJdT2MzW2NIXVtjSF1bY0hdW2NIXVtjSF0z

> <s_epik_cmdline>
J2VwaWtfcHl0aG9uJywgJy1waCcsICc3LjAnLCAnLXRuJywgJzgnLCAnLW1hJywgJzIwMCcsICctbWV0YWxfYmluZGluZycsICctaW1hZScsICc8aW5maWxlLm1hZT4nLCAnLW9tYWUnLCAnPG91dGZpbGUubWFlPic=

> <r_lp_tautomer_probability>
1

> <r_epik_Ionization_Penalty>
2.12778e-05

> <r_epik_Ionization_Penalty_Charging>
7.42033e-08

> <r_epik_Ionization_Penalty_Neutral>
2.12036e-05

> <r_epik_State_Penalty>
-0

> <r_epik_Charging_Adjusted_Penalty>
7.42033e-08

> <i_epik_Tot_Q>
0

> <i_epik_Tot_abs_Q>
0

> <r_epik_Metal_State_Penalty>
-0

> <b_epik_Metal_Only>
0

> <s_lp_Force_Field>
OPLS_2005

> <r_lp_Energy>
32.2435

> <b_lp_Chiralities_Consistent>
1

> <s_lp_Variant>
AV-unprocessed.smi:2817-1

> <Gold.Version>
5.8.1

> <Gold.Id.Protein>
6NUR|6NUR_protein|mol2

> <Gold.PLP.Fitness>
55.8682

> <Gold.PLP.PLP>
-48.7269

> <Gold.PLP.part.hbond>
-1.6159

> <Gold.PLP.part.metal>
0.0000

> <Gold.PLP.part.buried>
-4.3503

> <Gold.PLP.part.nonpolar>
-40.5253

> <Gold.PLP.part.repulsive>
0.2477

> <Gold.PLP.ligand.clash>
0.0000

> <Gold.PLP.ligand.torsion>
1.1460

> <Gold.PLP.Chemscore.Hbond>
2.0000

> <Gold.PLP.Chemscore.CHOScore>
1.0000

> <Gold.PLP.Chemscore.Metal>
0.0000

> <Gold.Chemscore.Hbonds>
donor molecule, donor type, donor heavy atom, donor atom, acceptor molecule, acceptor atom, score
      L1  H    14    35       P1  7957  0.99
      P1  H  7989  7998       L1     1  1.00
      L1  C    10    31       P1  8028  1.00

> <Gold.PLP.Chemscore.Internal.Correction>
0.4332

> <Gold.Rescore>
     Score         DG    S(hbond)    S(metal)    S(lipo)     H(rot)  DE(clash)    DE(int)     intcor
     16.92     -18.39       1.89        0.00     109.30       2.42       0.22       1.25       ----

> <Gold.Chemscore.Fitness>
16.9177

> <Gold.Chemscore.DG>
-18.3872

> <Gold.Chemscore.ZeroCoef>
-5.4800

> <Gold.Chemscore.Hbond>
1.8938

> <Gold.Chemscore.Metal>
0.0000

> <Gold.Chemscore.Lipo>
109.3042

> <Gold.Chemscore.Internal_Hbond>
0.0000

> <Gold.Chemscore.DEClash>
0.2197

> <Gold.Chemscore.DEInternal>
1.2497

> <Gold.Chemscore.Rot>
2.4245

> <Gold.Chemscore.Internal.Correction>
   9.000000E+99

> <Gold.Chemscore.Hbonds>
donor molecule, donor type, donor heavy atom, donor atom, acceptor molecule, acceptor atom, score
      L1  H    14    35       P1  7957  0.94
      P1  H  7989  7998       L1     1  0.39

> <Gold.Chemscore.Hbond.Weighted>
-6.3252

> <Gold.Chemscore.Metal.Weighted>
-0.0000

> <Gold.Chemscore.Lipo.Weighted>
-12.7886

> <Gold.Chemscore.Internal_Hbond.Weighted>
0.0000

> <Gold.Chemscore.DEClash.Weighted>
0.2197

> <Gold.Chemscore.DEInternal.Weighted>
1.2497

> <Gold.Chemscore.Rot.Weighted>
6.2066

> <Gold.Chemscore.Internal.Correction.Weighted>
   9.000000E+99

> <Gold.Protein.RotatedTorsions>
[ 6907 6896 6895 6894 ] final -170.14 input  -60.11 | X-H torsion
[ 7974 7965 7964 7962 ] final  -98.64 input  175.53 | X-H torsion
[ 8008 7997 7996 7995 ] final  -19.23 input   59.86 | X-H torsion
[ 10167 10162 10161 10158 ] final -100.71 input  -65.29 | X-H torsion
[ 10718 10713 10712 10709 ] final -155.45 input   66.30 | X-H torsion
[ 10763 10752 10751 10750 ] final   42.79 input  -60.55 | X-H torsion
[ 11005 11000 10999 10996 ] final  122.93 input  -57.11 | X-H torsion

> <Gold.Protein.ActiveResidues>
 VAL166  LYS551  ARG553  GLY616  TRP617  ASP618  TYR619  PRO620  LYS621  CYS622 
 ASP623  PHE694  ASN695  SER759  ASP760  ASP761  ALA762  ILE779  LEU786  VAL792 
 PHE793  MET794  SER795  GLU796  ALA797  LYS798  CYS799  TRP800  GLU811  SER814 

> <Gold.Protein.RotatedAtoms>
  151.5030  133.3500  159.2871 H   0  0  0  0  0  0  0  0  0  0  0  0  # atno 6907 bound_to 6896
  150.8761  134.8146  159.7201 H   0  0  0  0  0  0  0  0  0  0  0  0  # atno 6908 bound_to 6896
  152.4731  134.4921  159.9750 H   0  0  0  0  0  0  0  0  0  0  0  0  # atno 6909 bound_to 6896
  145.3180  140.9415  143.2732 H   0  0  0  0  0  0  0  0  0  0  0  0  # atno 7974 bound_to 7965
  154.4851  140.2094  155.9674 H   0  0  0  0  0  0  0  0  0  0  0  0  # atno 8008 bound_to 7997
  156.1224  140.3211  155.8196 H   0  0  0  0  0  0  0  0  0  0  0  0  # atno 8009 bound_to 7997
  155.4445  140.0512  157.2998 H   0  0  0  0  0  0  0  0  0  0  0  0  # atno 8010 bound_to 7997
  140.2491  143.3485  152.0732 H   0  0  0  0  0  0  0  0  0  0  0  0  # atno 10167 bound_to 10162
  156.5130  130.8443  151.2654 H   0  0  0  0  0  0  0  0  0  0  0  0  # atno 10718 bound_to 10713
  152.9875  135.6121  154.3006 H   0  0  0  0  0  0  0  0  0  0  0  0  # atno 10763 bound_to 10752
  154.2727  135.2779  155.2733 H   0  0  0  0  0  0  0  0  0  0  0  0  # atno 10764 bound_to 10752
  154.5108  135.5841  153.6660 H   0  0  0  0  0  0  0  0  0  0  0  0  # atno 10765 bound_to 10752
  139.9290  134.9641  156.8183 H   0  0  0  0  0  0  0  0  0  0  0  0  # atno 11005 bound_to 11000
  144.8962  139.4709  143.6654 LP  0  0  0  0  0  0  0  0  0  0  0  0  # atno 17320 bound_to 7965
  146.3093  139.7689  142.9032 LP  0  0  0  0  0  0  0  0  0  0  0  0  # atno 17321 bound_to 7965
  139.5052  144.6790  151.6055 LP  0  0  0  0  0  0  0  0  0  0  0  0  # atno 17342 bound_to 10162
  140.6055  143.9532  150.6415 LP  0  0  0  0  0  0  0  0  0  0  0  0  # atno 17343 bound_to 10162
  157.7448  130.9943  150.2703 LP  0  0  0  0  0  0  0  0  0  0  0  0  # atno 17370 bound_to 10713
  156.3222  130.3787  149.7565 LP  0  0  0  0  0  0  0  0  0  0  0  0  # atno 17371 bound_to 10713
  140.6255  133.9954  155.7638 LP  0  0  0  0  0  0  0  0  0  0  0  0  # atno 17394 bound_to 11000
  141.0867  133.9980  157.3303 LP  0  0  0  0  0  0  0  0  0  0  0  0  # atno 17395 bound_to 11000

$$$$
