AV-unprocessed.smi:514|AV-procd|sdf|2777|dock1
  -GOLD-   2262023243D 1   1.00000     0.00000
 Structure written by MMmdl.
 45 47  0  0  0  0  0  0  0  0  1 V2000
  150.5187  134.3635  155.2997 C   0  0  0  0  0  0  0  0  0  0  0  0
  150.5769  135.8894  155.3993 C   0  0  0  0  0  0  0  0  0  0  0  0
  151.8786  136.2736  155.8074 O   0  0  0  0  0  0  0  0  0  0  0  0
  152.0238  137.6787  155.9189 C   0  0  0  0  0  0  0  0  0  0  0  0
  150.9956  138.2035  156.9270 C   0  0  0  0  0  0  0  0  0  0  0  0
  151.2345  139.6082  157.2468 N   0  0  0  0  0  0  0  0  0  0  0  0
  150.8511  140.7157  156.5534 C   0  0  0  0  0  0  0  0  0  0  0  0
  150.1006  140.6382  155.3800 N   0  0  0  0  0  0  0  0  0  0  0  0
  150.2447  139.5900  154.3745 C   0  0  0  0  0  0  0  0  0  0  0  0
  148.8701  138.9999  153.9995 C   0  0  0  0  0  0  0  0  0  0  0  0
  148.0149  140.0459  153.4478 N   0  0  0  0  0  0  0  0  0  0  0  0
  147.8569  141.0973  154.4471 C   0  0  0  0  0  0  0  0  0  0  0  0
  149.2409  141.6720  154.8078 C   0  0  0  0  0  0  0  0  0  0  0  0
  151.2972  141.8694  157.0576 N   0  0  0  0  0  0  0  0  0  0  0  0
  152.0047  141.4698  158.1804 C   0  0  0  0  0  0  0  0  0  0  0  0
  151.9889  140.1182  158.3058 C   0  0  0  0  0  0  0  0  0  0  0  0
  152.7016  139.4207  159.3856 C   0  0  0  0  0  0  0  0  0  0  0  0
  152.7306  138.1978  159.5022 O   0  0  0  0  0  0  0  0  0  0  0  0
  153.3311  140.2645  160.2391 N   0  0  0  0  0  0  0  0  0  0  0  0
  153.3744  141.6302  160.1776 C   0  0  0  0  0  0  0  0  0  0  0  0
  153.9864  142.2656  161.0360 O   0  0  0  0  0  0  0  0  0  0  0  0
  152.7206  142.2422  159.1391 N   0  0  0  0  0  0  0  0  0  0  0  0
  152.7417  143.7012  159.0181 C   0  0  0  0  0  0  0  0  0  0  0  0
  153.8286  139.8362  161.0061 H   0  0  0  0  0  0  0  0  0  0  0  0
  149.5288  134.0309  154.9867 H   0  0  0  0  0  0  0  0  0  0  0  0
  150.7385  133.9004  156.2618 H   0  0  0  0  0  0  0  0  0  0  0  0
  151.2423  133.9909  154.5743 H   0  0  0  0  0  0  0  0  0  0  0  0
  150.3390  136.3343  154.4321 H   0  0  0  0  0  0  0  0  0  0  0  0
  149.8366  136.2433  156.1182 H   0  0  0  0  0  0  0  0  0  0  0  0
  153.0341  137.9285  156.2469 H   0  0  0  0  0  0  0  0  0  0  0  0
  151.8662  138.1465  154.9456 H   0  0  0  0  0  0  0  0  0  0  0  0
  149.9928  138.0730  156.5330 H   0  0  0  0  0  0  0  0  0  0  0  0
  151.0148  137.6101  157.8390 H   0  0  0  0  0  0  0  0  0  0  0  0
  150.7468  139.9904  153.4925 H   0  0  0  0  0  0  0  0  0  0  0  0
  150.8852  138.7987  154.7656 H   0  0  0  0  0  0  0  0  0  0  0  0
  148.9895  138.2123  153.2555 H   0  0  0  0  0  0  0  0  0  0  0  0
  148.3921  138.5500  154.8709 H   0  0  0  0  0  0  0  0  0  0  0  0
  147.1112  139.6594  153.2151 H   0  0  0  0  0  0  0  0  0  0  0  0
  147.2195  141.8807  154.0373 H   0  0  0  0  0  0  0  0  0  0  0  0
  147.3538  140.7010  155.3302 H   0  0  0  0  0  0  0  0  0  0  0  0
  149.1461  142.5125  155.4940 H   0  0  0  0  0  0  0  0  0  0  0  0
  149.7191  142.0781  153.9151 H   0  0  0  0  0  0  0  0  0  0  0  0
  152.1969  144.1572  159.8455 H   0  0  0  0  0  0  0  0  0  0  0  0
  152.2870  144.0514  158.0916 H   0  0  0  0  0  0  0  0  0  0  0  0
  153.7656  144.0774  159.0350 H   0  0  0  0  0  0  0  0  0  0  0  0
  1  2  1  0  0  0  0
  1 25  1  0  0  0  0
  1 26  1  0  0  0  0
  1 27  1  0  0  0  0
  2  3  1  0  0  0  0
  2 28  1  0  0  0  0
  2 29  1  0  0  0  0
  3  4  1  0  0  0  0
  4  5  1  0  0  0  0
  4 30  1  0  0  0  0
  4 31  1  0  0  0  0
  5  6  1  0  0  0  0
  5 32  1  0  0  0  0
  5 33  1  0  0  0  0
  6 16  1  0  0  0  0
  6  7  1  0  0  0  0
  7  8  1  0  0  0  0
  7 14  2  0  0  0  0
  8 13  1  0  0  0  0
  8  9  1  0  0  0  0
  9 10  1  0  0  0  0
  9 34  1  0  0  0  0
  9 35  1  0  0  0  0
 10 11  1  0  0  0  0
 10 36  1  0  0  0  0
 10 37  1  0  0  0  0
 11 12  1  0  0  0  0
 11 38  1  0  0  0  0
 12 13  1  0  0  0  0
 12 39  1  0  0  0  0
 12 40  1  0  0  0  0
 13 41  1  0  0  0  0
 13 42  1  0  0  0  0
 14 15  1  0  0  0  0
 15 22  1  0  0  0  0
 15 16  2  0  0  0  0
 16 17  1  0  0  0  0
 17 18  2  0  0  0  0
 17 19  1  0  0  0  0
 19 24  1  0  0  0  0
 19 20  1  0  0  0  0
 20 21  2  0  0  0  0
 20 22  1  0  0  0  0
 22 23  1  0  0  0  0
 23 43  1  0  0  0  0
 23 44  1  0  0  0  0
 23 45  1  0  0  0  0
M  END
> <s_m_source_file>
AV-unprocessed.smi

> <i_m_source_file_index>
514

> <i_lp_mmshare_version>
43012

> <i_f3d_flags>
0

> <s_epik_input>
W0NIM11uMWMoPU8pW25IXWMoPU8pYyhjMTIpbihbQ0gyXVtDSDJdT1tDSDJdW0NIM10pYyhuMilOM1tDSDJdW0NIMl1bTkhdW0NIMl1bQ0gyXTM=

> <s_epik_cmdline>
J2VwaWtfcHl0aG9uJywgJy1waCcsICc3LjAnLCAnLXRuJywgJzgnLCAnLW1hJywgJzIwMCcsICctbWV0YWxfYmluZGluZycsICctaW1hZScsICc8aW5maWxlLm1hZT4nLCAnLW9tYWUnLCAnPG91dGZpbGUubWFlPic=

> <r_epik_Ionization_Penalty>
2.51413

> <r_epik_Ionization_Penalty_Charging>
1.58739e-05

> <r_epik_Ionization_Penalty_Neutral>
2.51411

> <r_epik_State_Penalty>
2.67993

> <r_epik_Charging_Adjusted_Penalty>
2.67995

> <i_epik_Tot_Q>
0

> <i_epik_Tot_abs_Q>
0

> <r_epik_Metal_State_Penalty>
2.70758

> <b_epik_Metal_Only>
0

> <s_lp_Force_Field>
OPLS_2005

> <r_lp_Energy>
49.2261

> <b_lp_Chiralities_Consistent>
1

> <s_lp_Variant>
AV-unprocessed.smi:514-2

> <Gold.Version>
5.8.1

> <Gold.Id.Protein>
6NUR|6NUR_protein|mol2

> <Gold.PLP.Fitness>
40.9029

> <Gold.PLP.PLP>
-39.0506

> <Gold.PLP.part.hbond>
-2.6669

> <Gold.PLP.part.metal>
0.0000

> <Gold.PLP.part.buried>
-0.6637

> <Gold.PLP.part.nonpolar>
-34.7804

> <Gold.PLP.part.repulsive>
0.1766

> <Gold.PLP.ligand.clash>
0.0000

> <Gold.PLP.ligand.torsion>
0.7753

> <Gold.PLP.Chemscore.Hbond>
1.0000

> <Gold.PLP.Chemscore.CHOScore>
0.0000

> <Gold.PLP.Chemscore.Metal>
0.0000

> <Gold.Chemscore.Hbonds>
donor molecule, donor type, donor heavy atom, donor atom, acceptor molecule, acceptor atom, score
      P1  H 10752 10764       L1     3  1.00

> <Gold.PLP.Chemscore.Internal.Correction>
0.4029

> <Gold.Rescore>
     Score         DG    S(hbond)    S(metal)    S(lipo)     H(rot)  DE(clash)    DE(int)     intcor
     10.23     -12.15       0.95        0.00      67.47       1.72       0.04       1.88       ----

> <Gold.Chemscore.Fitness>
10.2315

> <Gold.Chemscore.DG>
-12.1519

> <Gold.Chemscore.ZeroCoef>
-5.4800

> <Gold.Chemscore.Hbond>
0.9534

> <Gold.Chemscore.Metal>
0.0000

> <Gold.Chemscore.Lipo>
67.4724

> <Gold.Chemscore.Internal_Hbond>
0.0000

> <Gold.Chemscore.DEClash>
0.0408

> <Gold.Chemscore.DEInternal>
1.8796

> <Gold.Chemscore.Rot>
1.7214

> <Gold.Chemscore.Internal.Correction>
   9.000000E+99

> <Gold.Chemscore.Hbonds>
donor molecule, donor type, donor heavy atom, donor atom, acceptor molecule, acceptor atom, score
      P1  H 10752 10764       L1     3  0.84

> <Gold.Chemscore.Hbond.Weighted>
-3.1845

> <Gold.Chemscore.Metal.Weighted>
-0.0000

> <Gold.Chemscore.Lipo.Weighted>
-7.8943

> <Gold.Chemscore.Internal_Hbond.Weighted>
0.0000

> <Gold.Chemscore.DEClash.Weighted>
0.0408

> <Gold.Chemscore.DEInternal.Weighted>
1.8796

> <Gold.Chemscore.Rot.Weighted>
4.4069

> <Gold.Chemscore.Internal.Correction.Weighted>
   9.000000E+99

> <Gold.Protein.RotatedTorsions>
[ 6907 6896 6895 6894 ] final   41.04 input  -60.11 | X-H torsion
[ 7974 7965 7964 7962 ] final -125.43 input  175.53 | X-H torsion
[ 8008 7997 7996 7995 ] final   58.32 input   59.86 | X-H torsion
[ 10167 10162 10161 10158 ] final -164.93 input  -65.29 | X-H torsion
[ 10718 10713 10712 10709 ] final -140.32 input   66.30 | X-H torsion
[ 10763 10752 10751 10750 ] final  -28.26 input  -60.55 | X-H torsion
[ 11005 11000 10999 10996 ] final   35.46 input  -57.11 | X-H torsion

> <Gold.Protein.ActiveResidues>
 VAL166  LYS551  ARG553  GLY616  TRP617  ASP618  TYR619  PRO620  LYS621  CYS622 
 ASP623  PHE694  ASN695  SER759  ASP760  ASP761  ALA762  ILE779  LEU786  VAL792 
 PHE793  MET794  SER795  GLU796  ALA797  LYS798  CYS799  TRP800  GLU811  SER814 

> <Gold.Protein.RotatedAtoms>
  152.1902  134.8678  160.0517 H   0  0  0  0  0  0  0  0  0  0  0  0  # atno 6907 bound_to 6896
  151.9570  133.3678  159.4029 H   0  0  0  0  0  0  0  0  0  0  0  0  # atno 6908 bound_to 6896
  150.6934  134.4204  159.5246 H   0  0  0  0  0  0  0  0  0  0  0  0  # atno 6909 bound_to 6896
  144.9977  140.7791  143.4515 H   0  0  0  0  0  0  0  0  0  0  0  0  # atno 7974 bound_to 7965
  155.5482  140.3486  155.4462 H   0  0  0  0  0  0  0  0  0  0  0  0  # atno 8008 bound_to 7997
  156.0602  140.1338  156.9975 H   0  0  0  0  0  0  0  0  0  0  0  0  # atno 8009 bound_to 7997
  154.4476  140.0987  156.6491 H   0  0  0  0  0  0  0  0  0  0  0  0  # atno 8010 bound_to 7997
  139.6216  144.0612  152.1938 H   0  0  0  0  0  0  0  0  0  0  0  0  # atno 10167 bound_to 10162
  156.3209  130.7533  151.1631 H   0  0  0  0  0  0  0  0  0  0  0  0  # atno 10718 bound_to 10713
  153.7455  135.6929  153.4957 H   0  0  0  0  0  0  0  0  0  0  0  0  # atno 10763 bound_to 10752
  153.2040  135.4426  155.0299 H   0  0  0  0  0  0  0  0  0  0  0  0  # atno 10764 bound_to 10752
  154.8206  135.3420  154.6978 H   0  0  0  0  0  0  0  0  0  0  0  0  # atno 10765 bound_to 10752
  140.2424  134.3399  155.7920 H   0  0  0  0  0  0  0  0  0  0  0  0  # atno 11005 bound_to 11000
  145.2196  139.2165  143.5100 LP  0  0  0  0  0  0  0  0  0  0  0  0  # atno 17320 bound_to 7965
  146.3445  140.2051  142.8589 LP  0  0  0  0  0  0  0  0  0  0  0  0  # atno 17321 bound_to 7965
  140.0256  144.6120  150.7530 LP  0  0  0  0  0  0  0  0  0  0  0  0  # atno 17342 bound_to 10162
  140.7386  143.2780  151.3684 LP  0  0  0  0  0  0  0  0  0  0  0  0  # atno 17343 bound_to 10162
  157.7411  131.0508  150.5117 LP  0  0  0  0  0  0  0  0  0  0  0  0  # atno 17370 bound_to 10713
  156.5269  130.4175  149.6221 LP  0  0  0  0  0  0  0  0  0  0  0  0  # atno 17371 bound_to 10713
  141.2209  133.7306  156.8906 LP  0  0  0  0  0  0  0  0  0  0  0  0  # atno 17394 bound_to 11000
  140.1640  134.9146  157.2750 LP  0  0  0  0  0  0  0  0  0  0  0  0  # atno 17395 bound_to 11000

$$$$
