AV-unprocessed.smi:246|AV-procd|sdf|1885|dock10
  -GOLD-   2262020543D 1   1.00000     0.00000
 Structure written by MMmdl.
 57 60  0  0  0  0  0  0  0  0  1 V2000
  153.1819  142.6734  162.5167 C   0  0  0  0  0  0  0  0  0  0  0  0
  152.3437  143.2473  161.3664 C   0  0  0  0  0  0  0  0  0  0  0  0
  151.9285  142.2344  160.4607 O   0  0  0  0  0  0  0  0  0  0  0  0
  152.3879  142.4186  159.1296 C   0  0  0  0  0  0  0  0  0  0  0  0
  151.8327  141.2933  158.2521 C   0  0  0  0  0  0  0  0  0  0  0  0
  150.8496  141.8299  157.3797 O   0  0  0  0  0  0  0  0  0  0  0  0
  150.4880  140.9531  156.3230 C   0  0  2  0  0  0  0  0  0  0  0  0
  149.8848  141.7288  155.1527 C   0  0  0  0  0  0  0  0  0  0  0  0
  149.0490  140.6674  154.4403 C   0  0  0  0  0  0  0  0  0  0  0  0
  148.5640  139.8010  155.5061 N   0  0  0  0  0  0  0  0  0  0  0  0
  147.9117  138.6384  155.2456 C   0  0  0  0  0  0  0  0  0  0  0  0
  147.9501  137.6460  156.1742 N   0  0  0  0  0  0  0  0  0  0  0  0
  147.3151  136.4902  155.9605 C   0  0  0  0  0  0  0  0  0  0  0  0
  146.5967  136.1172  154.9007 N   0  0  0  0  0  0  0  0  0  0  0  0
  146.5654  137.0993  153.9560 C   0  0  0  0  0  0  0  0  0  0  0  0
  147.1899  138.3772  154.0431 C   0  0  0  0  0  0  0  0  0  0  0  0
  146.9407  139.0968  152.8787 N   0  0  0  0  0  0  0  0  0  0  0  0
  146.2047  138.2992  152.1550 C   0  0  0  0  0  0  0  0  0  0  0  0
  145.9272  137.0804  152.7283 N   0  0  0  0  0  0  0  0  0  0  0  0
  145.1286  136.0150  152.1484 C   0  0  0  0  0  0  0  0  0  0  0  0
  145.6829  135.5446  150.7897 C   0  0  2  0  0  0  0  0  0  0  0  0
  144.9908  136.2084  149.7493 O   0  0  0  0  0  0  0  0  0  0  0  0
  145.5383  134.0243  150.5946 C   0  0  1  0  0  0  0  0  0  0  0  0
  146.1309  133.1798  151.7243 C   0  0  0  0  0  0  0  0  0  0  0  0
  145.3364  131.8847  151.6614 C   0  0  0  0  0  0  0  0  0  0  0  0
  144.1240  132.2324  150.7938 C   0  0  0  0  0  0  0  0  0  0  0  0
  144.1715  133.6436  150.6382 O   0  0  0  0  0  0  0  0  0  0  0  0
  149.3742  139.9676  156.7055 C   0  0  0  0  0  0  0  0  0  0  0  0
  151.3595  140.4045  155.9608 H   0  0  0  0  0  0  0  0  0  0  0  0
  153.5658  143.4737  163.1492 H   0  0  0  0  0  0  0  0  0  0  0  0
  154.0357  142.1134  162.1351 H   0  0  0  0  0  0  0  0  0  0  0  0
  152.5995  142.0070  163.1522 H   0  0  0  0  0  0  0  0  0  0  0  0
  151.4888  143.8094  161.7451 H   0  0  0  0  0  0  0  0  0  0  0  0
  152.9554  143.9554  160.8072 H   0  0  0  0  0  0  0  0  0  0  0  0
  152.0926  143.3880  158.7281 H   0  0  0  0  0  0  0  0  0  0  0  0
  153.4779  142.3784  159.1202 H   0  0  0  0  0  0  0  0  0  0  0  0
  152.6417  140.8648  157.6587 H   0  0  0  0  0  0  0  0  0  0  0  0
  151.4241  140.4954  158.8733 H   0  0  0  0  0  0  0  0  0  0  0  0
  149.2328  142.5199  155.5261 H   0  0  0  0  0  0  0  0  0  0  0  0
  150.6362  142.1851  154.5078 H   0  0  0  0  0  0  0  0  0  0  0  0
  148.2280  141.1116  153.8765 H   0  0  0  0  0  0  0  0  0  0  0  0
  149.6709  140.0928  153.7522 H   0  0  0  0  0  0  0  0  0  0  0  0
  147.3922  135.7609  156.7534 H   0  0  0  0  0  0  0  0  0  0  0  0
  145.8383  138.5804  151.1782 H   0  0  0  0  0  0  0  0  0  0  0  0
  145.1100  135.1856  152.8564 H   0  0  0  0  0  0  0  0  0  0  0  0
  144.0984  136.3589  152.0465 H   0  0  0  0  0  0  0  0  0  0  0  0
  146.7371  135.8167  150.7185 H   0  0  0  0  0  0  0  0  0  0  0  0
  144.8019  137.0908  150.0301 H   0  0  0  0  0  0  0  0  0  0  0  0
  145.9620  133.7169  149.6362 H   0  0  0  0  0  0  0  0  0  0  0  0
  147.2042  133.0236  151.6128 H   0  0  0  0  0  0  0  0  0  0  0  0
  145.9607  133.6644  152.6868 H   0  0  0  0  0  0  0  0  0  0  0  0
  145.9165  131.0811  151.2064 H   0  0  0  0  0  0  0  0  0  0  0  0
  145.0401  131.5617  152.6598 H   0  0  0  0  0  0  0  0  0  0  0  0
  144.2051  131.7602  149.8138 H   0  0  0  0  0  0  0  0  0  0  0  0
  143.1827  131.9196  151.2458 H   0  0  0  0  0  0  0  0  0  0  0  0
  149.7951  139.0263  157.0600 H   0  0  0  0  0  0  0  0  0  0  0  0
  148.7436  140.3818  157.4928 H   0  0  0  0  0  0  0  0  0  0  0  0
  1  2  1  0  0  0  0
  1 30  1  0  0  0  0
  1 31  1  0  0  0  0
  1 32  1  0  0  0  0
  2  3  1  0  0  0  0
  2 33  1  0  0  0  0
  2 34  1  0  0  0  0
  3  4  1  0  0  0  0
  4  5  1  0  0  0  0
  4 35  1  0  0  0  0
  4 36  1  0  0  0  0
  5  6  1  0  0  0  0
  5 37  1  0  0  0  0
  5 38  1  0  0  0  0
  6  7  1  0  0  0  0
  7 29  1  0  0  0  0
  7 28  1  0  0  0  0
  7  8  1  0  0  0  0
  8  9  1  0  0  0  0
  8 39  1  0  0  0  0
  8 40  1  0  0  0  0
  9 10  1  0  0  0  0
  9 41  1  0  0  0  0
  9 42  1  0  0  0  0
 10 11  1  0  0  0  0
 10 28  1  0  0  0  0
 11 16  1  0  0  0  0
 11 12  2  0  0  0  0
 12 13  1  0  0  0  0
 13 14  2  0  0  0  0
 13 43  1  0  0  0  0
 14 15  1  0  0  0  0
 15 19  1  0  0  0  0
 15 16  2  0  0  0  0
 16 17  1  0  0  0  0
 17 18  2  0  0  0  0
 18 19  1  0  0  0  0
 18 44  1  0  0  0  0
 19 20  1  0  0  0  0
 20 21  1  0  0  0  0
 20 45  1  0  0  0  0
 20 46  1  0  0  0  0
 21 22  1  0  0  0  0
 21 23  1  0  0  0  0
 21 47  1  0  0  0  0
 22 48  1  0  0  0  0
 23 27  1  0  0  0  0
 23 24  1  0  0  0  0
 23 49  1  0  0  0  0
 24 25  1  0  0  0  0
 24 50  1  0  0  0  0
 24 51  1  0  0  0  0
 25 26  1  0  0  0  0
 25 52  1  0  0  0  0
 25 53  1  0  0  0  0
 26 27  1  0  0  0  0
 26 54  1  0  0  0  0
 26 55  1  0  0  0  0
 28 56  1  0  0  0  0
 28 57  1  0  0  0  0
M  END
> <s_m_source_file>
AV-unprocessed.smi

> <i_m_source_file_index>
246

> <i_lp_mmshare_version>
43012

> <i_f3d_flags>
0

> <s_epik_input>
W0NIM11bQ0gyXU9bQ0gyXVtDSDJdT1tDQEhdMVtDSDJdW0NIMl1OKFtDSDJdMSljKG5bY0hdbjIpYyhjMjMpbltjSF1uM1tDSDJdW0NASF0oW09IXSlbQ0BASF00W0NIMl1bQ0gyXVtDSDJdTzQ=

> <s_epik_cmdline>
J2VwaWtfcHl0aG9uJywgJy1waCcsICc3LjAnLCAnLXRuJywgJzgnLCAnLW1hJywgJzIwMCcsICctbWV0YWxfYmluZGluZycsICctaW1hZScsICc8aW5maWxlLm1hZT4nLCAnLW9tYWUnLCAnPG91dGZpbGUubWFlPic=

> <r_lp_tautomer_probability>
1

> <r_epik_Ionization_Penalty>
0.0024631

> <r_epik_Ionization_Penalty_Charging>
0

> <r_epik_Ionization_Penalty_Neutral>
0.0024631

> <r_epik_State_Penalty>
0.00162428

> <r_epik_Charging_Adjusted_Penalty>
0.00162428

> <i_epik_Tot_Q>
0

> <i_epik_Tot_abs_Q>
0

> <r_epik_Metal_State_Penalty>
-0

> <b_epik_Metal_Only>
0

> <s_lp_Force_Field>
OPLS_2005

> <r_lp_Energy>
48.9745

> <b_lp_Chiralities_Consistent>
1

> <s_lp_Variant>
AV-unprocessed.smi:246-6

> <Gold.Version>
5.8.1

> <Gold.Id.Protein>
6NUR|6NUR_protein|mol2

> <Gold.PLP.Fitness>
48.9373

> <Gold.PLP.PLP>
-45.8866

> <Gold.PLP.part.hbond>
-2.8002

> <Gold.PLP.part.metal>
0.0000

> <Gold.PLP.part.buried>
-6.8308

> <Gold.PLP.part.nonpolar>
-36.5863

> <Gold.PLP.part.repulsive>
0.5970

> <Gold.PLP.ligand.clash>
0.0000

> <Gold.PLP.ligand.torsion>
1.7021

> <Gold.PLP.Chemscore.Hbond>
0.9760

> <Gold.PLP.Chemscore.CHOScore>
1.0000

> <Gold.PLP.Chemscore.Metal>
0.0000

> <Gold.Chemscore.Hbonds>
donor molecule, donor type, donor heavy atom, donor atom, acceptor molecule, acceptor atom, score
      L1  H    22    48       P1 10171  0.94
      L1  C    18    44       P1 10171  1.00

> <Gold.PLP.Chemscore.Internal.Correction>
0.5269

> <Gold.Rescore>
     Score         DG    S(hbond)    S(metal)    S(lipo)     H(rot)  DE(clash)    DE(int)     intcor
     10.90     -13.62       0.97        0.00     109.61       3.10       0.22       2.50       ----

> <Gold.Chemscore.Fitness>
10.9025

> <Gold.Chemscore.DG>
-13.6156

> <Gold.Chemscore.ZeroCoef>
-5.4800

> <Gold.Chemscore.Hbond>
0.9743

> <Gold.Chemscore.Metal>
0.0000

> <Gold.Chemscore.Lipo>
109.6063

> <Gold.Chemscore.Internal_Hbond>
0.0000

> <Gold.Chemscore.DEClash>
0.2168

> <Gold.Chemscore.DEInternal>
2.4963

> <Gold.Chemscore.Rot>
3.1026

> <Gold.Chemscore.Internal.Correction>
   9.000000E+99

> <Gold.Chemscore.Hbonds>
donor molecule, donor type, donor heavy atom, donor atom, acceptor molecule, acceptor atom, score
      L1  H    22    48       P1 10171  0.91

> <Gold.Chemscore.Hbond.Weighted>
-3.2543

> <Gold.Chemscore.Metal.Weighted>
-0.0000

> <Gold.Chemscore.Lipo.Weighted>
-12.8239

> <Gold.Chemscore.Internal_Hbond.Weighted>
0.0000

> <Gold.Chemscore.DEClash.Weighted>
0.2168

> <Gold.Chemscore.DEInternal.Weighted>
2.4963

> <Gold.Chemscore.Rot.Weighted>
7.9426

> <Gold.Chemscore.Internal.Correction.Weighted>
   9.000000E+99

> <Gold.Protein.RotatedTorsions>
[ 6907 6896 6895 6894 ] final    6.35 input  -60.11 | X-H torsion
[ 7974 7965 7964 7962 ] final -134.55 input  175.53 | X-H torsion
[ 8008 7997 7996 7995 ] final  -39.98 input   59.86 | X-H torsion
[ 10167 10162 10161 10158 ] final -169.03 input  -65.29 | X-H torsion
[ 10718 10713 10712 10709 ] final -158.49 input   66.30 | X-H torsion
[ 10763 10752 10751 10750 ] final  136.42 input  -60.55 | X-H torsion
[ 11005 11000 10999 10996 ] final    0.66 input  -57.11 | X-H torsion

> <Gold.Protein.ActiveResidues>
 VAL166  LYS551  ARG553  GLY616  TRP617  ASP618  TYR619  PRO620  LYS621  CYS622 
 ASP623  PHE694  ASN695  SER759  ASP760  ASP761  ALA762  ILE779  LEU786  VAL792 
 PHE793  MET794  SER795  GLU796  ALA797  LYS798  CYS799  TRP800  GLU811  SER814 

> <Gold.Protein.RotatedAtoms>
  151.6723  135.0974  160.0200 H   0  0  0  0  0  0  0  0  0  0  0  0  # atno 6907 bound_to 6896
  152.3884  133.6640  159.6226 H   0  0  0  0  0  0  0  0  0  0  0  0  # atno 6908 bound_to 6896
  150.7805  133.8912  159.3355 H   0  0  0  0  0  0  0  0  0  0  0  0  # atno 6909 bound_to 6896
  144.9093  140.6873  143.5035 H   0  0  0  0  0  0  0  0  0  0  0  0  # atno 7974 bound_to 7965
  154.4017  140.1537  156.2952 H   0  0  0  0  0  0  0  0  0  0  0  0  # atno 8008 bound_to 7997
  155.8750  140.3447  155.5826 H   0  0  0  0  0  0  0  0  0  0  0  0  # atno 8009 bound_to 7997
  155.7732  140.0833  157.2088 H   0  0  0  0  0  0  0  0  0  0  0  0  # atno 8010 bound_to 7997
  139.5948  144.1136  152.1676 H   0  0  0  0  0  0  0  0  0  0  0  0  # atno 10167 bound_to 10162
  156.5549  130.8621  151.2791 H   0  0  0  0  0  0  0  0  0  0  0  0  # atno 10718 bound_to 10713
  153.8563  135.3073  155.3435 H   0  0  0  0  0  0  0  0  0  0  0  0  # atno 10763 bound_to 10752
  154.7869  135.4804  153.9968 H   0  0  0  0  0  0  0  0  0  0  0  0  # atno 10764 bound_to 10752
  153.1488  135.6839  153.9007 H   0  0  0  0  0  0  0  0  0  0  0  0  # atno 10765 bound_to 10752
  140.6241  133.9634  155.8240 H   0  0  0  0  0  0  0  0  0  0  0  0  # atno 11005 bound_to 11000
  145.3482  139.1713  143.4449 LP  0  0  0  0  0  0  0  0  0  0  0  0  # atno 17320 bound_to 7965
  146.3150  140.3531  142.8658 LP  0  0  0  0  0  0  0  0  0  0  0  0  # atno 17321 bound_to 7965
  140.0718  144.5772  150.7186 LP  0  0  0  0  0  0  0  0  0  0  0  0  # atno 17342 bound_to 10162
  140.7203  143.2582  151.4301 LP  0  0  0  0  0  0  0  0  0  0  0  0  # atno 17343 bound_to 10162
  157.7380  130.9806  150.2227 LP  0  0  0  0  0  0  0  0  0  0  0  0  # atno 17370 bound_to 10713
  156.2851  130.3738  149.7896 LP  0  0  0  0  0  0  0  0  0  0  0  0  # atno 17371 bound_to 10713
  141.0722  134.0189  157.3510 LP  0  0  0  0  0  0  0  0  0  0  0  0  # atno 17394 bound_to 11000
  139.9142  135.0194  156.7813 LP  0  0  0  0  0  0  0  0  0  0  0  0  # atno 17395 bound_to 11000

$$$$
