AV-unprocessed.smi:2321|AV-procd|sdf|9281|dock2
  -GOLD-   2272012503D 1   1.00000     0.00000
 Structure written by MMmdl.
 36 37  0  0  0  0  0  0  0  0  1 V2000
  149.7067  141.0934  158.0569 O   0  0  0  0  0  0  0  0  0  0  0  0
  149.6646  142.0504  157.2868 C   0  0  0  0  0  0  0  0  0  0  0  0
  149.3373  141.9741  155.9820 N   0  0  0  0  0  0  0  0  0  0  0  0
  148.9635  140.8365  155.2174 C   0  0  0  0  0  0  0  0  0  0  0  0
  149.5586  139.5585  155.3493 C   0  0  0  0  0  0  0  0  0  0  0  0
  149.1073  138.5159  154.5152 C   0  0  0  0  0  0  0  0  0  0  0  0
  148.1384  138.6706  153.5880 N   0  0  0  0  0  0  0  0  0  0  0  0
  147.5831  139.8939  153.4565 C   0  0  0  0  0  0  0  0  0  0  0  0
  147.9617  141.0034  154.2381 C   0  0  0  0  0  0  0  0  0  0  0  0
  147.3667  142.2065  154.0513 F   0  0  0  0  0  0  0  0  0  0  0  0
  149.9291  143.2981  157.7165 N   0  0  0  0  0  0  0  0  0  0  0  0
  150.3131  143.7415  159.0613 C   0  0  2  0  0  0  0  0  0  0  0  0
  151.0988  145.0644  158.9792 C   0  0  0  0  0  0  0  0  0  0  0  0
  152.5048  144.8704  158.3869 C   0  0  0  0  0  0  0  0  0  0  0  0
  153.2958  143.8043  159.1604 C   0  0  0  0  0  0  0  0  0  0  0  0
  152.5413  142.4591  159.2092 C   0  0  1  0  0  0  0  0  0  0  0  0
  153.3370  141.3765  159.9671 C   0  0  0  0  0  0  0  0  0  0  0  0
  152.8239  140.1663  159.7438 F   0  0  0  0  0  0  0  0  0  0  0  0
  154.6095  141.3850  159.5700 F   0  0  0  0  0  0  0  0  0  0  0  0
  153.3088  141.6216  161.2770 F   0  0  0  0  0  0  0  0  0  0  0  0
  151.1313  142.6636  159.8084 C   0  0  0  0  0  0  0  0  0  0  0  0
  149.2734  142.8559  155.4946 H   0  0  0  0  0  0  0  0  0  0  0  0
  150.3504  139.3610  156.0550 H   0  0  0  0  0  0  0  0  0  0  0  0
  149.5419  137.5303  154.5916 H   0  0  0  0  0  0  0  0  0  0  0  0
  146.8147  139.9921  152.7040 H   0  0  0  0  0  0  0  0  0  0  0  0
  149.8357  144.0323  157.0294 H   0  0  0  0  0  0  0  0  0  0  0  0
  149.4029  143.9451  159.6279 H   0  0  0  0  0  0  0  0  0  0  0  0
  150.5441  145.7995  158.3946 H   0  0  0  0  0  0  0  0  0  0  0  0
  151.1930  145.4848  159.9814 H   0  0  0  0  0  0  0  0  0  0  0  0
  152.4289  144.5803  157.3383 H   0  0  0  0  0  0  0  0  0  0  0  0
  153.0458  145.8168  158.4041 H   0  0  0  0  0  0  0  0  0  0  0  0
  154.2716  143.6707  158.6928 H   0  0  0  0  0  0  0  0  0  0  0  0
  153.4869  144.1588  160.1740 H   0  0  0  0  0  0  0  0  0  0  0  0
  152.4218  142.1099  158.1824 H   0  0  0  0  0  0  0  0  0  0  0  0
  151.2276  142.9604  160.8533 H   0  0  0  0  0  0  0  0  0  0  0  0
  150.5888  141.7181  159.8195 H   0  0  0  0  0  0  0  0  0  0  0  0
  1  2  2  0  0  0  0
  2  3  1  0  0  0  0
  2 11  1  0  0  0  0
  3  4  1  0  0  0  0
  3 22  1  0  0  0  0
  4  9  1  0  0  0  0
  4  5  2  0  0  0  0
  5  6  1  0  0  0  0
  5 23  1  0  0  0  0
  6  7  2  0  0  0  0
  6 24  1  0  0  0  0
  7  8  1  0  0  0  0
  8  9  2  0  0  0  0
  8 25  1  0  0  0  0
  9 10  1  0  0  0  0
 11 12  1  0  0  0  0
 11 26  1  0  0  0  0
 12 21  1  0  0  0  0
 12 13  1  0  0  0  0
 12 27  1  0  0  0  0
 13 14  1  0  0  0  0
 13 28  1  0  0  0  0
 13 29  1  0  0  0  0
 14 15  1  0  0  0  0
 14 30  1  0  0  0  0
 14 31  1  0  0  0  0
 15 16  1  0  0  0  0
 15 32  1  0  0  0  0
 15 33  1  0  0  0  0
 16 17  1  0  0  0  0
 16 21  1  0  0  0  0
 16 34  1  0  0  0  0
 17 18  1  0  0  0  0
 17 19  1  0  0  0  0
 17 20  1  0  0  0  0
 21 35  1  0  0  0  0
 21 36  1  0  0  0  0
M  END
> <s_m_source_file>
AV-unprocessed.smi

> <i_m_source_file_index>
2321

> <i_lp_mmshare_version>
43012

> <i_f3d_flags>
0

> <s_epik_input>
RkMoRikoRilbQ0BASF0oW0NIMl0xKVtDSDJdW0NIMl1bQ0gyXVtDQEhdMVtOSF1DKD1PKVtOSF1jMltjSF1bY0hdbltjSF1jMkY=

> <s_epik_cmdline>
J2VwaWtfcHl0aG9uJywgJy1waCcsICc3LjAnLCAnLXRuJywgJzgnLCAnLW1hJywgJzIwMCcsICctbWV0YWxfYmluZGluZycsICctaW1hZScsICc8aW5maWxlLm1hZT4nLCAnLW9tYWUnLCAnPG91dGZpbGUubWFlPic=

> <r_epik_Ionization_Penalty>
0.00319438

> <r_epik_Ionization_Penalty_Charging>
0

> <r_epik_Ionization_Penalty_Neutral>
0.00319438

> <r_epik_State_Penalty>
0.00222511

> <r_epik_Charging_Adjusted_Penalty>
0.00222511

> <i_epik_Tot_Q>
0

> <i_epik_Tot_abs_Q>
0

> <r_epik_Metal_State_Penalty>
-0

> <b_epik_Metal_Only>
0

> <s_lp_Force_Field>
OPLS_2005

> <r_lp_Energy>
25.9848

> <b_lp_Chiralities_Consistent>
1

> <s_lp_Variant>
AV-unprocessed.smi:2321-1

> <Gold.Version>
5.8.1

> <Gold.Id.Protein>
6NUR|6NUR_protein|mol2

> <Gold.PLP.Fitness>
44.2831

> <Gold.PLP.PLP>
-40.1897

> <Gold.PLP.part.hbond>
-2.0000

> <Gold.PLP.part.metal>
0.0000

> <Gold.PLP.part.buried>
-3.3486

> <Gold.PLP.part.nonpolar>
-36.0642

> <Gold.PLP.part.repulsive>
0.3631

> <Gold.PLP.ligand.clash>
0.0002

> <Gold.PLP.ligand.torsion>
0.8687

> <Gold.PLP.Chemscore.Hbond>
1.9360

> <Gold.PLP.Chemscore.CHOScore>
0.0000

> <Gold.PLP.Chemscore.Metal>
0.0000

> <Gold.Chemscore.Hbonds>
donor molecule, donor type, donor heavy atom, donor atom, acceptor molecule, acceptor atom, score
      L1  H     3    22       P1  8028  0.91
      L1  H    11    26       P1  8028  0.98

> <Gold.PLP.Chemscore.Internal.Correction>
0.0231

> <Gold.Rescore>
     Score         DG    S(hbond)    S(metal)    S(lipo)     H(rot)  DE(clash)    DE(int)     intcor
     18.40     -20.89       1.67        0.00     105.95       1.00       0.28       2.21       ----

> <Gold.Chemscore.Fitness>
18.4007

> <Gold.Chemscore.DG>
-20.8861

> <Gold.Chemscore.ZeroCoef>
-5.4800

> <Gold.Chemscore.Hbond>
1.6677

> <Gold.Chemscore.Metal>
0.0000

> <Gold.Chemscore.Lipo>
105.9495

> <Gold.Chemscore.Internal_Hbond>
0.0000

> <Gold.Chemscore.DEClash>
0.2778

> <Gold.Chemscore.DEInternal>
2.2077

> <Gold.Chemscore.Rot>
1.0000

> <Gold.Chemscore.Internal.Correction>
   9.000000E+99

> <Gold.Chemscore.Hbonds>
donor molecule, donor type, donor heavy atom, donor atom, acceptor molecule, acceptor atom, score
      L1  H     3    22       P1  8028  0.89
      L1  H    11    26       P1  8028  0.79

> <Gold.Chemscore.Hbond.Weighted>
-5.5700

> <Gold.Chemscore.Metal.Weighted>
-0.0000

> <Gold.Chemscore.Lipo.Weighted>
-12.3961

> <Gold.Chemscore.Internal_Hbond.Weighted>
0.0000

> <Gold.Chemscore.DEClash.Weighted>
0.2778

> <Gold.Chemscore.DEInternal.Weighted>
2.2077

> <Gold.Chemscore.Rot.Weighted>
2.5600

> <Gold.Chemscore.Internal.Correction.Weighted>
   9.000000E+99

> <Gold.Protein.RotatedTorsions>
[ 6907 6896 6895 6894 ] final   50.11 input  -60.11 | X-H torsion
[ 7974 7965 7964 7962 ] final  -17.32 input  175.53 | X-H torsion
[ 8008 7997 7996 7995 ] final  -88.02 input   59.86 | X-H torsion
[ 10167 10162 10161 10158 ] final -155.44 input  -65.29 | X-H torsion
[ 10718 10713 10712 10709 ] final   36.42 input   66.30 | X-H torsion
[ 10763 10752 10751 10750 ] final   60.65 input  -60.55 | X-H torsion
[ 11005 11000 10999 10996 ] final -139.46 input  -57.11 | X-H torsion

> <Gold.Protein.ActiveResidues>
 VAL166  LYS551  ARG553  GLY616  TRP617  ASP618  TYR619  PRO620  LYS621  CYS622 
 ASP623  PHE694  ASN695  SER759  ASP760  ASP761  ALA762  ILE779  LEU786  VAL792 
 PHE793  MET794  SER795  GLU796  ALA797  LYS798  CYS799  TRP800  GLU811  SER814 

> <Gold.Protein.RotatedAtoms>
  152.2982  134.7643  160.0363 H   0  0  0  0  0  0  0  0  0  0  0  0  # atno 6907 bound_to 6896
  151.8165  133.3383  159.3579 H   0  0  0  0  0  0  0  0  0  0  0  0  # atno 6908 bound_to 6896
  150.7261  134.5544  159.5855 H   0  0  0  0  0  0  0  0  0  0  0  0  # atno 6909 bound_to 6896
  146.1946  140.3762  142.8445 H   0  0  0  0  0  0  0  0  0  0  0  0  # atno 7974 bound_to 7965
  154.6700  140.0558  157.0155 H   0  0  0  0  0  0  0  0  0  0  0  0  # atno 8008 bound_to 7997
  155.1103  140.3237  155.4504 H   0  0  0  0  0  0  0  0  0  0  0  0  # atno 8009 bound_to 7997
  156.2653  140.2015  156.6228 H   0  0  0  0  0  0  0  0  0  0  0  0  # atno 8010 bound_to 7997
  139.6931  143.9387  152.2394 H   0  0  0  0  0  0  0  0  0  0  0  0  # atno 10167 bound_to 10162
  157.3347  130.7516  149.6871 H   0  0  0  0  0  0  0  0  0  0  0  0  # atno 10718 bound_to 10713
  152.9927  135.5528  154.5908 H   0  0  0  0  0  0  0  0  0  0  0  0  # atno 10763 bound_to 10752
  154.5270  135.2811  155.1215 H   0  0  0  0  0  0  0  0  0  0  0  0  # atno 10764 bound_to 10752
  154.2546  135.6392  153.5305 H   0  0  0  0  0  0  0  0  0  0  0  0  # atno 10765 bound_to 10752
  140.8517  134.2277  157.4756 H   0  0  0  0  0  0  0  0  0  0  0  0  # atno 11005 bound_to 11000
  144.8555  140.7064  143.6141 LP  0  0  0  0  0  0  0  0  0  0  0  0  # atno 17320 bound_to 7965
  145.3683  139.1665  143.4346 LP  0  0  0  0  0  0  0  0  0  0  0  0  # atno 17321 bound_to 7965
  139.9209  144.6800  150.8462 LP  0  0  0  0  0  0  0  0  0  0  0  0  # atno 17342 bound_to 10162
  140.7688  143.3376  151.2277 LP  0  0  0  0  0  0  0  0  0  0  0  0  # atno 17343 bound_to 10162
  155.9700  130.4185  150.4330 LP  0  0  0  0  0  0  0  0  0  0  0  0  # atno 17370 bound_to 10713
  157.2368  131.0516  151.2460 LP  0  0  0  0  0  0  0  0  0  0  0  0  # atno 17371 bound_to 10713
  139.8704  134.9686  156.4639 LP  0  0  0  0  0  0  0  0  0  0  0  0  # atno 17394 bound_to 11000
  140.8782  133.7937  155.9438 LP  0  0  0  0  0  0  0  0  0  0  0  0  # atno 17395 bound_to 11000

$$$$
