AV-unprocessed.smi:1212|AV-procd|sdf|5082|dock4
  -GOLD-   22720 4133D 1   1.00000     0.00000
 Structure written by MMmdl.
 39 40  0  0  0  0  0  0  0  0  1 V2000
  143.7105  132.1980  149.8381 C   0  0  0  0  0  0  0  0  0  0  0  0
  144.2127  133.3046  150.7017 C   0  0  0  0  0  0  0  0  0  0  0  0
  143.4305  133.9634  151.5658 N   0  0  0  0  0  0  0  0  0  0  0  0
  144.1226  134.9495  152.2558 N   0  0  0  0  0  0  0  0  0  0  0  0
  145.4112  135.0036  151.8912 C   0  0  0  0  0  0  0  0  0  0  0  0
  146.3485  135.9204  152.4362 N   0  0  0  0  0  0  0  0  0  0  0  0
  146.1342  136.8972  153.3354 C   0  0  0  0  0  0  0  0  0  0  0  0
  145.0486  137.1658  153.8510 O   0  0  0  0  0  0  0  0  0  0  0  0
  147.2667  137.5596  153.6115 N   0  0  0  0  0  0  0  0  0  0  0  0
  147.3781  138.6678  154.5520 C   0  0  0  0  0  0  0  0  0  0  0  0
  147.5903  140.0087  153.8246 C   0  0  0  0  0  0  0  0  0  0  0  0
  148.3713  140.9396  154.6489 N   0  0  0  0  0  0  0  0  0  0  0  0
  147.6079  141.9777  155.3612 C   0  0  0  0  0  0  0  0  0  0  0  0
  147.5600  141.7753  156.8940 C   0  0  0  0  0  0  0  0  0  0  0  0
  148.7697  141.0614  157.5294 C   0  0  0  0  0  0  0  0  0  0  0  0
  150.1446  141.6642  157.1733 C   0  0  0  0  0  0  0  0  0  0  0  0
  150.4554  141.8304  155.6668 C   0  0  0  0  0  0  0  0  0  0  0  0
  149.7191  140.8350  154.7554 C   0  0  0  0  0  0  0  0  0  0  0  0
  150.3750  139.9782  154.1621 O   0  0  0  0  0  0  0  0  0  0  0  0
  145.8874  133.8422  150.6640 S   0  0  0  0  0  0  0  0  0  0  0  0
  142.6207  132.2063  149.7970 H   0  0  0  0  0  0  0  0  0  0  0  0
  144.0391  131.2376  150.2351 H   0  0  0  0  0  0  0  0  0  0  0  0
  144.0973  132.3096  148.8250 H   0  0  0  0  0  0  0  0  0  0  0  0
  147.2954  135.8196  152.1023 H   0  0  0  0  0  0  0  0  0  0  0  0
  148.1138  137.2760  153.1410 H   0  0  0  0  0  0  0  0  0  0  0  0
  146.4897  138.7123  155.1843 H   0  0  0  0  0  0  0  0  0  0  0  0
  148.2175  138.4607  155.2162 H   0  0  0  0  0  0  0  0  0  0  0  0
  148.0948  139.8397  152.8715 H   0  0  0  0  0  0  0  0  0  0  0  0
  146.6271  140.4459  153.5598 H   0  0  0  0  0  0  0  0  0  0  0  0
  148.0329  142.9548  155.1305 H   0  0  0  0  0  0  0  0  0  0  0  0
  146.5848  142.0425  154.9900 H   0  0  0  0  0  0  0  0  0  0  0  0
  147.4146  142.7444  157.3720 H   0  0  0  0  0  0  0  0  0  0  0  0
  146.6702  141.1929  157.1363 H   0  0  0  0  0  0  0  0  0  0  0  0
  148.6522  141.0690  158.6133 H   0  0  0  0  0  0  0  0  0  0  0  0
  148.7522  140.0062  157.2527 H   0  0  0  0  0  0  0  0  0  0  0  0
  150.2394  142.6374  157.6559 H   0  0  0  0  0  0  0  0  0  0  0  0
  150.9168  141.0395  157.6237 H   0  0  0  0  0  0  0  0  0  0  0  0
  150.2218  142.8452  155.3454 H   0  0  0  0  0  0  0  0  0  0  0  0
  151.5302  141.7304  155.5107 H   0  0  0  0  0  0  0  0  0  0  0  0
  1  2  1  0  0  0  0
  1 21  1  0  0  0  0
  1 22  1  0  0  0  0
  1 23  1  0  0  0  0
  2 20  1  0  0  0  0
  2  3  2  0  0  0  0
  3  4  1  0  0  0  0
  4  5  2  0  0  0  0
  5  6  1  0  0  0  0
  5 20  1  0  0  0  0
  6  7  1  0  0  0  0
  6 24  1  0  0  0  0
  7  8  2  0  0  0  0
  7  9  1  0  0  0  0
  9 10  1  0  0  0  0
  9 25  1  0  0  0  0
 10 11  1  0  0  0  0
 10 26  1  0  0  0  0
 10 27  1  0  0  0  0
 11 12  1  0  0  0  0
 11 28  1  0  0  0  0
 11 29  1  0  0  0  0
 12 18  1  0  0  0  0
 12 13  1  0  0  0  0
 13 14  1  0  0  0  0
 13 30  1  0  0  0  0
 13 31  1  0  0  0  0
 14 15  1  0  0  0  0
 14 32  1  0  0  0  0
 14 33  1  0  0  0  0
 15 16  1  0  0  0  0
 15 34  1  0  0  0  0
 15 35  1  0  0  0  0
 16 17  1  0  0  0  0
 16 36  1  0  0  0  0
 16 37  1  0  0  0  0
 17 18  1  0  0  0  0
 17 38  1  0  0  0  0
 17 39  1  0  0  0  0
 18 19  2  0  0  0  0
M  END
> <s_m_source_file>
AV-unprocessed.smi

> <i_m_source_file_index>
1212

> <i_lp_mmshare_version>
43012

> <i_f3d_flags>
0

> <s_epik_input>
W0NIM11jMW5uYyhzMSlbTkhdQyg9TylbTkhdW0NIMl1bQ0gyXU4yW0NIMl1bQ0gyXVtDSDJdW0NIMl1bQ0gyXUMyPU8=

> <s_epik_cmdline>
J2VwaWtfcHl0aG9uJywgJy1waCcsICc3LjAnLCAnLXRuJywgJzgnLCAnLW1hJywgJzIwMCcsICctbWV0YWxfYmluZGluZycsICctaW1hZScsICc8aW5maWxlLm1hZT4nLCAnLW9tYWUnLCAnPG91dGZpbGUubWFlPic=

> <r_lp_tautomer_probability>
1

> <r_epik_Ionization_Penalty>
0.00255187

> <r_epik_Ionization_Penalty_Charging>
0

> <r_epik_Ionization_Penalty_Neutral>
0.00255187

> <r_epik_State_Penalty>
-0

> <r_epik_Charging_Adjusted_Penalty>
0

> <i_epik_Tot_Q>
0

> <i_epik_Tot_abs_Q>
0

> <r_epik_Metal_State_Penalty>
0.352847

> <b_epik_Metal_Only>
0

> <s_lp_Force_Field>
OPLS_2005

> <r_lp_Energy>
20.0291

> <b_lp_Chiralities_Consistent>
1

> <s_lp_Variant>
AV-unprocessed.smi:1212-1

> <Gold.Version>
5.8.1

> <Gold.Id.Protein>
6NUR|6NUR_protein|mol2

> <Gold.PLP.Fitness>
36.7077

> <Gold.PLP.PLP>
-28.9950

> <Gold.PLP.part.hbond>
-3.0000

> <Gold.PLP.part.metal>
0.0000

> <Gold.PLP.part.buried>
-2.9378

> <Gold.PLP.part.nonpolar>
-23.8910

> <Gold.PLP.part.repulsive>
0.5672

> <Gold.PLP.ligand.clash>
0.0000

> <Gold.PLP.ligand.torsion>
0.5151

> <Gold.PLP.Chemscore.Hbond>
2.9120

> <Gold.PLP.Chemscore.CHOScore>
0.0000

> <Gold.PLP.Chemscore.Metal>
0.0000

> <Gold.Chemscore.Hbonds>
donor molecule, donor type, donor heavy atom, donor atom, acceptor molecule, acceptor atom, score
      L1  H     6    24       P1  7948  1.00
      L1  H     9    25       P1  7948  0.99
      P1  H  7989  7998       L1    19  1.00

> <Gold.PLP.Chemscore.Internal.Correction>
0.0069

> <Gold.Rescore>
     Score         DG    S(hbond)    S(metal)    S(lipo)     H(rot)  DE(clash)    DE(int)     intcor
     15.08     -17.02       2.87        0.00      53.01       1.65       0.11       1.83       ----

> <Gold.Chemscore.Fitness>
15.0754

> <Gold.Chemscore.DG>
-17.0167

> <Gold.Chemscore.ZeroCoef>
-5.4800

> <Gold.Chemscore.Hbond>
2.8652

> <Gold.Chemscore.Metal>
0.0000

> <Gold.Chemscore.Lipo>
53.0080

> <Gold.Chemscore.Internal_Hbond>
0.0000

> <Gold.Chemscore.DEClash>
0.1073

> <Gold.Chemscore.DEInternal>
1.8340

> <Gold.Chemscore.Rot>
1.6544

> <Gold.Chemscore.Internal.Correction>
   9.000000E+99

> <Gold.Chemscore.Hbonds>
donor molecule, donor type, donor heavy atom, donor atom, acceptor molecule, acceptor atom, score
      L1  H     6    24       P1  7948  0.99
      L1  H     9    25       P1  7948  0.94
      P1  H  7989  7998       L1    19  0.39

> <Gold.Chemscore.Hbond.Weighted>
-9.5699

> <Gold.Chemscore.Metal.Weighted>
-0.0000

> <Gold.Chemscore.Lipo.Weighted>
-6.2019

> <Gold.Chemscore.Internal_Hbond.Weighted>
0.0000

> <Gold.Chemscore.DEClash.Weighted>
0.1073

> <Gold.Chemscore.DEInternal.Weighted>
1.8340

> <Gold.Chemscore.Rot.Weighted>
4.2352

> <Gold.Chemscore.Internal.Correction.Weighted>
   9.000000E+99

> <Gold.Protein.RotatedTorsions>
[ 6907 6896 6895 6894 ] final  -34.53 input  -60.11 | X-H torsion
[ 7974 7965 7964 7962 ] final   19.55 input  175.53 | X-H torsion
[ 8008 7997 7996 7995 ] final   53.43 input   59.86 | X-H torsion
[ 10167 10162 10161 10158 ] final   74.37 input  -65.29 | X-H torsion
[ 10718 10713 10712 10709 ] final -132.57 input   66.30 | X-H torsion
[ 10763 10752 10751 10750 ] final  117.15 input  -60.55 | X-H torsion
[ 11005 11000 10999 10996 ] final -170.69 input  -57.11 | X-H torsion

> <Gold.Protein.ActiveResidues>
 VAL166  LYS551  ARG553  GLY616  TRP617  ASP618  TYR619  PRO620  LYS621  CYS622 
 ASP623  PHE694  ASN695  SER759  ASP760  ASP761  ALA762  ILE779  LEU786  VAL792 
 PHE793  MET794  SER795  GLU796  ALA797  LYS798  CYS799  TRP800  GLU811  SER814 

> <Gold.Protein.RotatedAtoms>
  151.0514  134.9675  159.8213 H   0  0  0  0  0  0  0  0  0  0  0  0  # atno 6907 bound_to 6896
  152.5381  134.2533  159.8917 H   0  0  0  0  0  0  0  0  0  0  0  0  # atno 6908 bound_to 6896
  151.2548  133.4289  159.2647 H   0  0  0  0  0  0  0  0  0  0  0  0  # atno 6909 bound_to 6896
  146.2145  139.8297  142.8662 H   0  0  0  0  0  0  0  0  0  0  0  0  # atno 7974 bound_to 7965
  155.4681  140.3464  155.4322 H   0  0  0  0  0  0  0  0  0  0  0  0  # atno 8008 bound_to 7997
  156.1118  140.1463  156.9357 H   0  0  0  0  0  0  0  0  0  0  0  0  # atno 8009 bound_to 7997
  154.4761  140.0884  156.7245 H   0  0  0  0  0  0  0  0  0  0  0  0  # atno 8010 bound_to 7997
  140.0145  144.5589  150.7632 H   0  0  0  0  0  0  0  0  0  0  0  0  # atno 10167 bound_to 10162
  156.2359  130.7066  151.0907 H   0  0  0  0  0  0  0  0  0  0  0  0  # atno 10718 bound_to 10713
  153.5480  135.3545  155.2747 H   0  0  0  0  0  0  0  0  0  0  0  0  # atno 10763 bound_to 10752
  154.8710  135.4107  154.2969 H   0  0  0  0  0  0  0  0  0  0  0  0  # atno 10764 bound_to 10752
  153.3689  135.7063  153.6721 H   0  0  0  0  0  0  0  0  0  0  0  0  # atno 10765 bound_to 10752
  140.5166  134.5749  157.5035 H   0  0  0  0  0  0  0  0  0  0  0  0  # atno 11005 bound_to 11000
  145.3010  141.0194  143.3609 LP  0  0  0  0  0  0  0  0  0  0  0  0  # atno 17320 bound_to 7965
  144.9006  139.4654  143.6634 LP  0  0  0  0  0  0  0  0  0  0  0  0  # atno 17321 bound_to 7965
  140.7368  143.2757  151.3748 LP  0  0  0  0  0  0  0  0  0  0  0  0  # atno 17342 bound_to 10162
  139.6182  144.0960  152.2366 LP  0  0  0  0  0  0  0  0  0  0  0  0  # atno 17343 bound_to 10162
  157.7154  131.0712  150.6346 LP  0  0  0  0  0  0  0  0  0  0  0  0  # atno 17370 bound_to 10713
  156.6416  130.4460  149.5750 LP  0  0  0  0  0  0  0  0  0  0  0  0  # atno 17371 bound_to 10713
  139.9629  134.7422  156.0199 LP  0  0  0  0  0  0  0  0  0  0  0  0  # atno 17394 bound_to 11000
  141.1357  133.6576  156.3586 LP  0  0  0  0  0  0  0  0  0  0  0  0  # atno 17395 bound_to 11000

$$$$
