AV-unprocessed.smi:170|AV-procd|sdf|1407|dock6
  -GOLD-   2262019163D 1   1.00000     0.00000
 Structure written by MMmdl.
 57 61  0  0  0  0  0  0  0  0  1 V2000
  151.0505  141.6142  156.6918 O   0  0  0  0  0  0  0  0  0  0  0  0
  151.4319  141.3347  158.0260 C   0  0  1  0  0  0  0  0  0  0  0  0
  152.2146  140.0093  158.1029 C   0  0  0  0  0  0  0  0  0  0  0  0
  151.4041  138.9194  158.6152 N   0  0  0  0  0  0  0  0  0  0  0  0
  151.8082  137.9183  159.4689 C   0  0  0  0  0  0  0  0  0  0  0  0
  150.8853  137.0504  159.7826 N   0  0  0  0  0  0  0  0  0  0  0  0
  149.7612  137.4844  159.0895 C   0  0  0  0  0  0  0  0  0  0  0  0
  148.4213  137.0172  158.9674 C   0  0  0  0  0  0  0  0  0  0  0  0
  147.9238  135.9177  159.5772 N   0  0  0  0  0  0  0  0  0  0  0  0
  147.9406  136.0814  161.0261 C   0  0  0  0  0  0  0  0  0  0  0  0
  147.2044  134.9166  161.7004 C   0  0  0  0  0  0  0  0  0  0  0  0
  147.8071  133.6948  161.2961 O   0  0  0  0  0  0  0  0  0  0  0  0
  147.7088  133.4919  159.8906 C   0  0  0  0  0  0  0  0  0  0  0  0
  148.4417  134.6195  159.1259 C   0  0  1  0  0  0  0  0  0  0  0  0
  148.3223  134.4386  157.5900 C   0  0  0  0  0  0  0  0  0  0  0  0
  149.2378  133.3601  157.0147 C   0  0  0  0  0  0  0  0  0  0  0  0
  150.7414  133.6360  156.8601 C   0  0  0  0  0  0  0  0  0  0  0  0
  150.7177  132.7885  155.5854 C   0  0  0  0  0  0  0  0  0  0  0  0
  149.2146  133.0695  155.5066 C   0  0  0  0  0  0  0  0  0  0  0  0
  147.5684  137.7268  158.1887 N   0  0  0  0  0  0  0  0  0  0  0  0
  147.9976  138.8213  157.5527 C   0  0  0  0  0  0  0  0  0  0  0  0
  149.2140  139.3713  157.5637 N   0  0  0  0  0  0  0  0  0  0  0  0
  150.0705  138.6630  158.3544 C   0  0  0  0  0  0  0  0  0  0  0  0
  152.2132  142.5232  158.6199 C   0  0  2  0  0  0  0  0  0  0  0  0
  152.6536  142.3844  160.0871 C   0  0  0  0  0  0  0  0  0  0  0  0
  152.2280  143.6993  160.7227 C   0  0  0  0  0  0  0  0  0  0  0  0
  151.9802  144.6104  159.5256 C   0  0  0  0  0  0  0  0  0  0  0  0
  151.4528  143.7238  158.5537 O   0  0  0  0  0  0  0  0  0  0  0  0
  150.7633  142.5134  156.6473 H   0  0  0  0  0  0  0  0  0  0  0  0
  150.5087  141.2246  158.5964 H   0  0  0  0  0  0  0  0  0  0  0  0
  152.5951  139.7279  157.1201 H   0  0  0  0  0  0  0  0  0  0  0  0
  153.0832  140.1219  158.7530 H   0  0  0  0  0  0  0  0  0  0  0  0
  152.8161  137.8507  159.8521 H   0  0  0  0  0  0  0  0  0  0  0  0
  148.9722  136.1216  161.3791 H   0  0  0  0  0  0  0  0  0  0  0  0
  147.4678  137.0251  161.3026 H   0  0  0  0  0  0  0  0  0  0  0  0
  147.2715  135.0061  162.7846 H   0  0  0  0  0  0  0  0  0  0  0  0
  146.1442  134.9201  161.4424 H   0  0  0  0  0  0  0  0  0  0  0  0
  148.1526  132.5219  159.6694 H   0  0  0  0  0  0  0  0  0  0  0  0
  146.6595  133.4369  159.5956 H   0  0  0  0  0  0  0  0  0  0  0  0
  149.4954  134.5642  159.3992 H   0  0  0  0  0  0  0  0  0  0  0  0
  147.2862  134.2150  157.3332 H   0  0  0  0  0  0  0  0  0  0  0  0
  148.5501  135.3783  157.0868 H   0  0  0  0  0  0  0  0  0  0  0  0
  149.1073  132.4131  157.5422 H   0  0  0  0  0  0  0  0  0  0  0  0
  150.9610  134.6872  156.6635 H   0  0  0  0  0  0  0  0  0  0  0  0
  151.3626  133.2395  157.6636 H   0  0  0  0  0  0  0  0  0  0  0  0
  151.3028  133.1896  154.7574 H   0  0  0  0  0  0  0  0  0  0  0  0
  150.9429  131.7370  155.7718 H   0  0  0  0  0  0  0  0  0  0  0  0
  148.6037  132.2142  155.2159 H   0  0  0  0  0  0  0  0  0  0  0  0
  148.9836  133.9509  154.9058 H   0  0  0  0  0  0  0  0  0  0  0  0
  147.2612  139.3283  156.9467 H   0  0  0  0  0  0  0  0  0  0  0  0
  153.1062  142.6879  158.0138 H   0  0  0  0  0  0  0  0  0  0  0  0
  152.1947  141.5382  160.5994 H   0  0  0  0  0  0  0  0  0  0  0  0
  153.7347  142.2527  160.1443 H   0  0  0  0  0  0  0  0  0  0  0  0
  151.2973  143.5569  161.2732 H   0  0  0  0  0  0  0  0  0  0  0  0
  152.9705  144.1009  161.4128 H   0  0  0  0  0  0  0  0  0  0  0  0
  151.2883  145.4226  159.7491 H   0  0  0  0  0  0  0  0  0  0  0  0
  152.9141  145.0409  159.1610 H   0  0  0  0  0  0  0  0  0  0  0  0
  1  2  1  0  0  0  0
  1 29  1  0  0  0  0
  2  3  1  0  0  0  0
  2 24  1  0  0  0  0
  2 30  1  0  0  0  0
  3  4  1  0  0  0  0
  3 31  1  0  0  0  0
  3 32  1  0  0  0  0
  4 23  1  0  0  0  0
  4  5  1  0  0  0  0
  5  6  2  0  0  0  0
  5 33  1  0  0  0  0
  6  7  1  0  0  0  0
  7 23  2  0  0  0  0
  7  8  1  0  0  0  0
  8  9  1  0  0  0  0
  8 20  2  0  0  0  0
  9 14  1  0  0  0  0
  9 10  1  0  0  0  0
 10 11  1  0  0  0  0
 10 34  1  0  0  0  0
 10 35  1  0  0  0  0
 11 12  1  0  0  0  0
 11 36  1  0  0  0  0
 11 37  1  0  0  0  0
 12 13  1  0  0  0  0
 13 14  1  0  0  0  0
 13 38  1  0  0  0  0
 13 39  1  0  0  0  0
 14 15  1  0  0  0  0
 14 40  1  0  0  0  0
 15 16  1  0  0  0  0
 15 41  1  0  0  0  0
 15 42  1  0  0  0  0
 16 19  1  0  0  0  0
 16 17  1  0  0  0  0
 16 43  1  0  0  0  0
 17 18  1  0  0  0  0
 17 44  1  0  0  0  0
 17 45  1  0  0  0  0
 18 19  1  0  0  0  0
 18 46  1  0  0  0  0
 18 47  1  0  0  0  0
 19 48  1  0  0  0  0
 19 49  1  0  0  0  0
 20 21  1  0  0  0  0
 21 22  2  0  0  0  0
 21 50  1  0  0  0  0
 22 23  1  0  0  0  0
 24 28  1  0  0  0  0
 24 25  1  0  0  0  0
 24 51  1  0  0  0  0
 25 26  1  0  0  0  0
 25 52  1  0  0  0  0
 25 53  1  0  0  0  0
 26 27  1  0  0  0  0
 26 54  1  0  0  0  0
 26 55  1  0  0  0  0
 27 28  1  0  0  0  0
 27 56  1  0  0  0  0
 27 57  1  0  0  0  0
M  END
> <s_m_source_file>
AV-unprocessed.smi

> <i_m_source_file_index>
170

> <i_lp_mmshare_version>
43012

> <i_f3d_flags>
0

> <s_epik_input>
TzFbQ0gyXVtDSDJdW0NIMl1bQ0BIXTFbQ0BIXShbT0hdKVtDSDJdbihbY0hdbjIpYyhjMjMpbltjSF1uYzNONFtDSDJdW0NIMl1PW0NIMl1bQ0BIXTRbQ0gyXVtDSF01W0NIMl1bQ0gyXVtDSDJdNQ==

> <s_epik_cmdline>
J2VwaWtfcHl0aG9uJywgJy1waCcsICc3LjAnLCAnLXRuJywgJzgnLCAnLW1hJywgJzIwMCcsICctbWV0YWxfYmluZGluZycsICctaW1hZScsICc8aW5maWxlLm1hZT4nLCAnLW9tYWUnLCAnPG91dGZpbGUubWFlPic=

> <r_lp_tautomer_probability>
1

> <r_epik_Ionization_Penalty>
4.98275e-05

> <r_epik_Ionization_Penalty_Charging>
0

> <r_epik_Ionization_Penalty_Neutral>
4.98275e-05

> <r_epik_State_Penalty>
-0

> <r_epik_Charging_Adjusted_Penalty>
0

> <i_epik_Tot_Q>
0

> <i_epik_Tot_abs_Q>
0

> <r_epik_Metal_State_Penalty>
-0

> <b_epik_Metal_Only>
0

> <s_lp_Force_Field>
OPLS_2005

> <r_lp_Energy>
52.7393

> <b_lp_Chiralities_Consistent>
1

> <s_lp_Variant>
AV-unprocessed.smi:170-2

> <Gold.Version>
5.8.1

> <Gold.Id.Protein>
6NUR|6NUR_protein|mol2

> <Gold.PLP.Fitness>
42.7456

> <Gold.PLP.PLP>
-41.9047

> <Gold.PLP.part.hbond>
-1.0000

> <Gold.PLP.part.metal>
0.0000

> <Gold.PLP.part.buried>
-8.0960

> <Gold.PLP.part.nonpolar>
-33.9447

> <Gold.PLP.part.repulsive>
0.0612

> <Gold.PLP.ligand.clash>
0.0000

> <Gold.PLP.ligand.torsion>
1.2409

> <Gold.PLP.Chemscore.Hbond>
1.0000

> <Gold.PLP.Chemscore.CHOScore>
0.0000

> <Gold.PLP.Chemscore.Metal>
0.0000

> <Gold.Chemscore.Hbonds>
donor molecule, donor type, donor heavy atom, donor atom, acceptor molecule, acceptor atom, score
      P1  H  6896  6907       L1     6  1.00

> <Gold.PLP.Chemscore.Internal.Correction>
0.3227

> <Gold.Rescore>
     Score         DG    S(hbond)    S(metal)    S(lipo)     H(rot)  DE(clash)    DE(int)     intcor
     13.44     -14.52       0.98        0.00     106.55       2.61       0.10       0.98       ----

> <Gold.Chemscore.Fitness>
13.4417

> <Gold.Chemscore.DG>
-14.5214

> <Gold.Chemscore.ZeroCoef>
-5.4800

> <Gold.Chemscore.Hbond>
0.9784

> <Gold.Chemscore.Metal>
0.0000

> <Gold.Chemscore.Lipo>
106.5497

> <Gold.Chemscore.Internal_Hbond>
0.0000

> <Gold.Chemscore.DEClash>
0.1026

> <Gold.Chemscore.DEInternal>
0.9771

> <Gold.Chemscore.Rot>
2.6144

> <Gold.Chemscore.Internal.Correction>
   9.000000E+99

> <Gold.Chemscore.Hbonds>
donor molecule, donor type, donor heavy atom, donor atom, acceptor molecule, acceptor atom, score
      P1  H  6896  6907       L1     6  0.96

> <Gold.Chemscore.Hbond.Weighted>
-3.2680

> <Gold.Chemscore.Metal.Weighted>
-0.0000

> <Gold.Chemscore.Lipo.Weighted>
-12.4663

> <Gold.Chemscore.Internal_Hbond.Weighted>
0.0000

> <Gold.Chemscore.DEClash.Weighted>
0.1026

> <Gold.Chemscore.DEInternal.Weighted>
0.9771

> <Gold.Chemscore.Rot.Weighted>
6.6929

> <Gold.Chemscore.Internal.Correction.Weighted>
   9.000000E+99

> <Gold.Protein.RotatedTorsions>
[ 6907 6896 6895 6894 ] final  -13.71 input  -60.11 | X-H torsion
[ 7974 7965 7964 7962 ] final   -1.17 input  175.53 | X-H torsion
[ 8008 7997 7996 7995 ] final -106.84 input   59.86 | X-H torsion
[ 10167 10162 10161 10158 ] final  -82.59 input  -65.29 | X-H torsion
[ 10718 10713 10712 10709 ] final -149.86 input   66.30 | X-H torsion
[ 10763 10752 10751 10750 ] final   14.16 input  -60.55 | X-H torsion
[ 11005 11000 10999 10996 ] final  104.26 input  -57.11 | X-H torsion

> <Gold.Protein.ActiveResidues>
 VAL166  LYS551  ARG553  GLY616  TRP617  ASP618  TYR619  PRO620  LYS621  CYS622 
 ASP623  PHE694  ASN695  SER759  ASP760  ASP761  ALA762  ILE779  LEU786  VAL792 
 PHE793  MET794  SER795  GLU796  ALA797  LYS798  CYS799  TRP800  GLU811  SER814 

> <Gold.Protein.RotatedAtoms>
  151.3507  135.0883  159.9401 H   0  0  0  0  0  0  0  0  0  0  0  0  # atno 6907 bound_to 6896
  152.5188  133.9355  159.7612 H   0  0  0  0  0  0  0  0  0  0  0  0  # atno 6908 bound_to 6896
  150.9730  133.6270  159.2764 H   0  0  0  0  0  0  0  0  0  0  0  0  # atno 6909 bound_to 6896
  146.2420  140.1380  142.8336 H   0  0  0  0  0  0  0  0  0  0  0  0  # atno 7974 bound_to 7965
  154.9204  140.0407  157.1995 H   0  0  0  0  0  0  0  0  0  0  0  0  # atno 8008 bound_to 7997
  154.8259  140.2891  155.5733 H   0  0  0  0  0  0  0  0  0  0  0  0  # atno 8009 bound_to 7997
  156.2983  140.2510  156.3175 H   0  0  0  0  0  0  0  0  0  0  0  0  # atno 8010 bound_to 7997
  140.4306  143.2550  151.8765 H   0  0  0  0  0  0  0  0  0  0  0  0  # atno 10167 bound_to 10162
  156.4387  130.8111  151.2340 H   0  0  0  0  0  0  0  0  0  0  0  0  # atno 10718 bound_to 10713
  153.1649  135.6802  153.8689 H   0  0  0  0  0  0  0  0  0  0  0  0  # atno 10763 bound_to 10752
  153.8072  135.3148  155.3398 H   0  0  0  0  0  0  0  0  0  0  0  0  # atno 10764 bound_to 10752
  154.7959  135.4807  154.0249 H   0  0  0  0  0  0  0  0  0  0  0  0  # atno 10765 bound_to 10752
  139.8790  134.9294  156.5335 H   0  0  0  0  0  0  0  0  0  0  0  0  # atno 11005 bound_to 11000
  145.0270  140.8840  143.5132 LP  0  0  0  0  0  0  0  0  0  0  0  0  # atno 17320 bound_to 7965
  145.1438  139.2556  143.5476 LP  0  0  0  0  0  0  0  0  0  0  0  0  # atno 17321 bound_to 7965
  139.4785  144.5339  151.8627 LP  0  0  0  0  0  0  0  0  0  0  0  0  # atno 17342 bound_to 10162
  140.4431  144.1958  150.5892 LP  0  0  0  0  0  0  0  0  0  0  0  0  # atno 17343 bound_to 10162
  157.7507  131.0175  150.3588 LP  0  0  0  0  0  0  0  0  0  0  0  0  # atno 17370 bound_to 10713
  156.3941  130.3903  149.7008 LP  0  0  0  0  0  0  0  0  0  0  0  0  # atno 17371 bound_to 10713
  140.8363  133.8240  155.9032 LP  0  0  0  0  0  0  0  0  0  0  0  0  # atno 17394 bound_to 11000
  140.9280  134.2057  157.4883 LP  0  0  0  0  0  0  0  0  0  0  0  0  # atno 17395 bound_to 11000

$$$$
