AV-unprocessed.smi:2338|AV-procd|sdf|9334|dock6
  -GOLD-   2272012553D 1   1.00000     0.00000
 Structure written by MMmdl.
 31 32  0  0  0  0  0  0  0  0  1 V2000
  149.8050  138.7229  153.3611 N   0  0  0  0  0  0  0  0  0  0  0  0
  150.4754  139.2166  154.4053 C   0  0  0  0  0  0  0  0  0  0  0  0
  150.5516  140.4253  154.6201 O   0  0  0  0  0  0  0  0  0  0  0  0
  151.1413  138.2012  155.3520 C   0  0  2  0  0  0  0  0  0  0  0  0
  150.7609  136.7758  154.8878 C   0  0  0  0  0  0  0  0  0  0  0  0
  151.3535  135.8002  155.7380 O   0  0  0  0  0  0  0  0  0  0  0  0
  150.8909  135.9213  157.0770 C   0  0  0  0  0  0  0  0  0  0  0  0
  151.2989  137.2954  157.6275 C   0  0  0  0  0  0  0  0  0  0  0  0
  150.7881  138.3611  156.7704 N   0  0  0  0  0  0  0  0  0  0  0  0
  151.0047  139.6259  157.3528 C   0  0  0  0  0  0  0  0  0  0  0  0
  152.2752  139.9654  157.6815 N   0  0  0  0  0  0  0  0  0  0  0  0
  152.4962  141.1690  158.2504 C   0  0  0  0  0  0  0  0  0  0  0  0
  151.4723  142.0980  158.5280 C   0  0  0  0  0  0  0  0  0  0  0  0
  151.7906  143.4332  159.1807 C   0  0  0  0  0  0  0  0  0  0  0  0
  150.6791  144.1287  159.4232 F   0  0  0  0  0  0  0  0  0  0  0  0
  152.4225  143.2185  160.3336 F   0  0  0  0  0  0  0  0  0  0  0  0
  152.5763  144.1622  158.3878 F   0  0  0  0  0  0  0  0  0  0  0  0
  150.1494  141.7385  158.1968 C   0  0  0  0  0  0  0  0  0  0  0  0
  149.9074  140.4858  157.6002 C   0  0  0  0  0  0  0  0  0  0  0  0
  148.2914  140.0398  157.1763 Cl  0  0  0  0  0  0  0  0  0  0  0  0
  149.3564  139.3525  152.7115 H   0  0  0  0  0  0  0  0  0  0  0  0
  149.7523  137.7244  153.2216 H   0  0  0  0  0  0  0  0  0  0  0  0
  152.2247  138.3026  155.2609 H   0  0  0  0  0  0  0  0  0  0  0  0
  149.6776  136.6391  154.8741 H   0  0  0  0  0  0  0  0  0  0  0  0
  151.1130  136.5999  153.8705 H   0  0  0  0  0  0  0  0  0  0  0  0
  149.8085  135.7884  157.1175 H   0  0  0  0  0  0  0  0  0  0  0  0
  151.3329  135.1275  157.6793 H   0  0  0  0  0  0  0  0  0  0  0  0
  150.9179  137.4073  158.6437 H   0  0  0  0  0  0  0  0  0  0  0  0
  152.3865  137.3634  157.6853 H   0  0  0  0  0  0  0  0  0  0  0  0
  153.5240  141.3941  158.4942 H   0  0  0  0  0  0  0  0  0  0  0  0
  149.3270  142.4099  158.3952 H   0  0  0  0  0  0  0  0  0  0  0  0
  1  2  1  0  0  0  0
  1 21  1  0  0  0  0
  1 22  1  0  0  0  0
  2  3  2  0  0  0  0
  2  4  1  0  0  0  0
  4  9  1  0  0  0  0
  4  5  1  0  0  0  0
  4 23  1  0  0  0  0
  5  6  1  0  0  0  0
  5 24  1  0  0  0  0
  5 25  1  0  0  0  0
  6  7  1  0  0  0  0
  7  8  1  0  0  0  0
  7 26  1  0  0  0  0
  7 27  1  0  0  0  0
  8  9  1  0  0  0  0
  8 28  1  0  0  0  0
  8 29  1  0  0  0  0
  9 10  1  0  0  0  0
 10 19  1  0  0  0  0
 10 11  2  0  0  0  0
 11 12  1  0  0  0  0
 12 13  2  0  0  0  0
 12 30  1  0  0  0  0
 13 14  1  0  0  0  0
 13 18  1  0  0  0  0
 14 15  1  0  0  0  0
 14 16  1  0  0  0  0
 14 17  1  0  0  0  0
 18 19  2  0  0  0  0
 18 31  1  0  0  0  0
 19 20  1  0  0  0  0
M  END
> <s_m_source_file>
AV-unprocessed.smi

> <i_m_source_file_index>
2338

> <i_lp_mmshare_version>
43012

> <i_f3d_flags>
0

> <s_epik_input>
W05IMl1DKD1PKVtDQEBIXTFbQ0gyXU9bQ0gyXVtDSDJdTjFjMm5bY0hdYyhDKEYpKEYpRilbY0hdYzJDbA==

> <s_epik_cmdline>
J2VwaWtfcHl0aG9uJywgJy1waCcsICc3LjAnLCAnLXRuJywgJzgnLCAnLW1hJywgJzIwMCcsICctbWV0YWxfYmluZGluZycsICctaW1hZScsICc8aW5maWxlLm1hZT4nLCAnLW9tYWUnLCAnPG91dGZpbGUubWFlPic=

> <r_lp_tautomer_probability>
1

> <r_epik_Ionization_Penalty>
1.71167e-07

> <r_epik_Ionization_Penalty_Charging>
0

> <r_epik_Ionization_Penalty_Neutral>
1.71167e-07

> <r_epik_State_Penalty>
-0

> <r_epik_Charging_Adjusted_Penalty>
0

> <i_epik_Tot_Q>
0

> <i_epik_Tot_abs_Q>
0

> <r_epik_Metal_State_Penalty>
-0

> <b_epik_Metal_Only>
0

> <s_lp_Force_Field>
OPLS_2005

> <r_lp_Energy>
18.5611

> <b_lp_Chiralities_Consistent>
1

> <s_lp_Variant>
AV-unprocessed.smi:2338-1

> <Gold.Version>
5.8.1

> <Gold.Id.Protein>
6NUR|6NUR_protein|mol2

> <Gold.PLP.Fitness>
40.8836

> <Gold.PLP.PLP>
-34.1370

> <Gold.PLP.part.hbond>
-4.3552

> <Gold.PLP.part.metal>
0.0000

> <Gold.PLP.part.buried>
-5.8903

> <Gold.PLP.part.nonpolar>
-23.7626

> <Gold.PLP.part.repulsive>
0.2721

> <Gold.PLP.ligand.clash>
3.9094

> <Gold.PLP.ligand.torsion>
0.3183

> <Gold.PLP.Chemscore.Hbond>
3.5525

> <Gold.PLP.Chemscore.CHOScore>
0.0000

> <Gold.PLP.Chemscore.Metal>
0.0000

> <Gold.Chemscore.Hbonds>
donor molecule, donor type, donor heavy atom, donor atom, acceptor molecule, acceptor atom, score
      L1  H     1    21       P1  7957  0.78
      L1  H     1    22       P1  7948  0.62
      P1  H  7989  7998       L1     3  1.00
      P1  H  7997  8008       L1    11  0.08
      P1  H 10752 10764       L1     6  1.00

> <Gold.PLP.Chemscore.Internal.Correction>
0.6351

> <Gold.Rescore>
     Score         DG    S(hbond)    S(metal)    S(lipo)     H(rot)  DE(clash)    DE(int)     intcor
     15.88     -17.45       2.82        0.00      54.92       1.51       0.09       1.48       ----

> <Gold.Chemscore.Fitness>
15.8770

> <Gold.Chemscore.DG>
-17.4495

> <Gold.Chemscore.ZeroCoef>
-5.4800

> <Gold.Chemscore.Hbond>
2.8176

> <Gold.Chemscore.Metal>
0.0000

> <Gold.Chemscore.Lipo>
54.9225

> <Gold.Chemscore.Internal_Hbond>
0.0000

> <Gold.Chemscore.DEClash>
0.0944

> <Gold.Chemscore.DEInternal>
1.4780

> <Gold.Chemscore.Rot>
1.5107

> <Gold.Chemscore.Internal.Correction>
   9.000000E+99

> <Gold.Chemscore.Hbonds>
donor molecule, donor type, donor heavy atom, donor atom, acceptor molecule, acceptor atom, score
      L1  H     1    21       P1  7957  0.78
      L1  H     1    22       P1  7948  0.41
      P1  H  7989  7998       L1     3  0.29
      P1  H 10752 10764       L1     6  0.55

> <Gold.Chemscore.Hbond.Weighted>
-9.4109

> <Gold.Chemscore.Metal.Weighted>
-0.0000

> <Gold.Chemscore.Lipo.Weighted>
-6.4259

> <Gold.Chemscore.Internal_Hbond.Weighted>
0.0000

> <Gold.Chemscore.DEClash.Weighted>
0.0944

> <Gold.Chemscore.DEInternal.Weighted>
1.4780

> <Gold.Chemscore.Rot.Weighted>
3.8674

> <Gold.Chemscore.Internal.Correction.Weighted>
   9.000000E+99

> <Gold.Protein.RotatedTorsions>
[ 6907 6896 6895 6894 ] final   28.86 input  -60.11 | X-H torsion
[ 7974 7965 7964 7962 ] final  141.55 input  175.53 | X-H torsion
[ 8008 7997 7996 7995 ] final  -54.60 input   59.86 | X-H torsion
[ 10167 10162 10161 10158 ] final  -17.16 input  -65.29 | X-H torsion
[ 10718 10713 10712 10709 ] final    1.25 input   66.30 | X-H torsion
[ 10763 10752 10751 10750 ] final  -30.37 input  -60.55 | X-H torsion
[ 11005 11000 10999 10996 ] final  147.89 input  -57.11 | X-H torsion

> <Gold.Protein.ActiveResidues>
 VAL166  LYS551  ARG553  GLY616  TRP617  ASP618  TYR619  PRO620  LYS621  CYS622 
 ASP623  PHE694  ASN695  SER759  ASP760  ASP761  ALA762  ILE779  LEU786  VAL792 
 PHE793  MET794  SER795  GLU796  ALA797  LYS798  CYS799  TRP800  GLU811  SER814 

> <Gold.Protein.RotatedAtoms>
  152.0230  134.9811  160.0570 H   0  0  0  0  0  0  0  0  0  0  0  0  # atno 6907 bound_to 6896
  152.1318  133.4407  159.4733 H   0  0  0  0  0  0  0  0  0  0  0  0  # atno 6908 bound_to 6896
  150.6857  134.2330  159.4485 H   0  0  0  0  0  0  0  0  0  0  0  0  # atno 6909 bound_to 6896
  144.9086  139.5323  143.5719 H   0  0  0  0  0  0  0  0  0  0  0  0  # atno 7974 bound_to 7965
  154.4168  140.1172  156.5342 H   0  0  0  0  0  0  0  0  0  0  0  0  # atno 8008 bound_to 7997
  155.6574  140.3496  155.4751 H   0  0  0  0  0  0  0  0  0  0  0  0  # atno 8009 bound_to 7997
  155.9742  140.1147  157.0775 H   0  0  0  0  0  0  0  0  0  0  0  0  # atno 8010 bound_to 7997
  140.7243  143.5044  150.9829 H   0  0  0  0  0  0  0  0  0  0  0  0  # atno 10167 bound_to 10162
  156.8454  130.5535  149.5674 H   0  0  0  0  0  0  0  0  0  0  0  0  # atno 10718 bound_to 10713
  153.7799  135.6906  153.4890 H   0  0  0  0  0  0  0  0  0  0  0  0  # atno 10763 bound_to 10752
  153.1818  135.4503  155.0037 H   0  0  0  0  0  0  0  0  0  0  0  0  # atno 10764 bound_to 10752
  154.8085  135.3367  154.7303 H   0  0  0  0  0  0  0  0  0  0  0  0  # atno 10765 bound_to 10752
  140.0914  134.9039  157.1656 H   0  0  0  0  0  0  0  0  0  0  0  0  # atno 11005 bound_to 11000
  146.3147  139.7875  142.8993 LP  0  0  0  0  0  0  0  0  0  0  0  0  # atno 17320 bound_to 7965
  145.3492  141.0304  143.3348 LP  0  0  0  0  0  0  0  0  0  0  0  0  # atno 17321 bound_to 7965
  139.8754  143.7139  152.3162 LP  0  0  0  0  0  0  0  0  0  0  0  0  # atno 17342 bound_to 10162
  139.7402  144.7561  151.0664 LP  0  0  0  0  0  0  0  0  0  0  0  0  # atno 17343 bound_to 10162
  156.0858  130.5856  150.9645 LP  0  0  0  0  0  0  0  0  0  0  0  0  # atno 17370 bound_to 10713
  157.6333  131.0919  150.8399 LP  0  0  0  0  0  0  0  0  0  0  0  0  # atno 17371 bound_to 10713
  140.3347  134.2770  155.7222 LP  0  0  0  0  0  0  0  0  0  0  0  0  # atno 17394 bound_to 11000
  141.2079  133.7793  157.0092 LP  0  0  0  0  0  0  0  0  0  0  0  0  # atno 17395 bound_to 11000

$$$$
