AV-unprocessed.smi:809|AV-procd|sdf|3807|dock10
  -GOLD-   22720 1243D 1   1.00000     0.00000
 Structure written by MMmdl.
 39 40  0  0  0  0  0  0  0  0  3 V2000
  152.2112  145.0151  158.8487 C   0  0  0  0  0  0  0  0  0  0  0  0
  151.8976  143.5727  158.6019 C   0  0  0  0  0  0  0  0  0  0  0  0
  152.6540  142.4930  158.9764 C   0  0  0  0  0  0  0  0  0  0  0  0
  151.9177  140.9927  158.4911 S   0  0  0  0  0  0  0  0  0  0  0  0
  150.5812  141.8941  157.7721 C   0  0  0  0  0  0  0  0  0  0  0  0
  149.5233  141.3432  157.1551 N   0  5  0  0  0  0  0  0  0  0  0  0
  149.6246  140.9442  155.8672 C   0  0  0  0  0  0  0  0  0  0  0  0
  150.6679  140.7849  155.2299 O   0  0  0  0  0  0  0  0  0  0  0  0
  148.4400  140.7247  155.2809 N   0  0  0  0  0  0  0  0  0  0  0  0
  148.2257  140.3405  153.8880 C   0  0  0  0  0  0  0  0  0  0  0  0
  147.1307  139.2554  153.6990 C   0  0  1  0  0  0  0  0  0  0  0  0
  145.9234  139.7861  154.2167 O   0  0  0  0  0  0  0  0  0  0  0  0
  146.8997  139.0003  152.1922 C   0  0  0  0  0  0  0  0  0  0  0  0
  145.8962  137.8641  151.9239 C   0  0  0  0  0  0  0  0  0  0  0  0
  146.3099  136.6157  152.6084 N   0  3  2  0  0  0  0  0  0  0  0  0
  145.4404  135.4702  152.2642 C   0  0  0  0  0  0  0  0  0  0  0  0
  146.4377  136.8075  154.0727 C   0  0  0  0  0  0  0  0  0  0  0  0
  147.4550  137.9143  154.4019 C   0  0  0  0  0  0  0  0  0  0  0  0
  150.7275  143.2148  157.9273 N   0  0  0  0  0  0  0  0  0  0  0  0
  152.2577  145.2281  159.9166 H   0  0  0  0  0  0  0  0  0  0  0  0
  151.4571  145.6725  158.4145 H   0  0  0  0  0  0  0  0  0  0  0  0
  153.1735  145.2864  158.4145 H   0  0  0  0  0  0  0  0  0  0  0  0
  153.5943  142.4878  159.5065 H   0  0  0  0  0  0  0  0  0  0  0  0
  147.6161  140.8598  155.8481 H   0  0  0  0  0  0  0  0  0  0  0  0
  148.0355  141.2154  153.2633 H   0  0  0  0  0  0  0  0  0  0  0  0
  149.1845  139.9455  153.5517 H   0  0  0  0  0  0  0  0  0  0  0  0
  145.3732  140.0586  153.4994 H   0  0  0  0  0  0  0  0  0  0  0  0
  146.5636  139.9142  151.7000 H   0  0  0  0  0  0  0  0  0  0  0  0
  147.8480  138.7376  151.7211 H   0  0  0  0  0  0  0  0  0  0  0  0
  144.8967  138.1510  152.2544 H   0  0  0  0  0  0  0  0  0  0  0  0
  145.8324  137.6858  150.8496 H   0  0  0  0  0  0  0  0  0  0  0  0
  144.4163  135.6420  152.5980 H   0  0  0  0  0  0  0  0  0  0  0  0
  145.8045  134.5555  152.7328 H   0  0  0  0  0  0  0  0  0  0  0  0
  145.4265  135.3077  151.1859 H   0  0  0  0  0  0  0  0  0  0  0  0
  145.4623  137.0494  154.4978 H   0  0  0  0  0  0  0  0  0  0  0  0
  146.7593  135.8737  154.5359 H   0  0  0  0  0  0  0  0  0  0  0  0
  148.4490  137.5816  154.1001 H   0  0  0  0  0  0  0  0  0  0  0  0
  147.4935  138.0450  155.4843 H   0  0  0  0  0  0  0  0  0  0  0  0
  147.2328  136.3887  152.2662 H   0  0  0  0  0  0  0  0  0  0  0  0
  1  2  1  0  0  0  0
  1 20  1  0  0  0  0
  1 21  1  0  0  0  0
  1 22  1  0  0  0  0
  2 19  1  0  0  0  0
  2  3  2  0  0  0  0
  3  4  1  0  0  0  0
  3 23  1  0  0  0  0
  4  5  1  0  0  0  0
  5  6  1  0  0  0  0
  5 19  2  0  0  0  0
  6  7  1  0  0  0  0
  7  8  2  0  0  0  0
  7  9  1  0  0  0  0
  9 10  1  0  0  0  0
  9 24  1  0  0  0  0
 10 11  1  0  0  0  0
 10 25  1  0  0  0  0
 10 26  1  0  0  0  0
 11 18  1  0  0  0  0
 11 12  1  0  0  0  0
 11 13  1  0  0  0  0
 12 27  1  0  0  0  0
 13 14  1  0  0  0  0
 13 28  1  0  0  0  0
 13 29  1  0  0  0  0
 14 15  1  0  0  0  0
 14 30  1  0  0  0  0
 14 31  1  0  0  0  0
 15 16  1  0  0  0  0
 15 17  1  0  0  0  0
 15 39  1  0  0  0  0
 16 32  1  0  0  0  0
 16 33  1  0  0  0  0
 16 34  1  0  0  0  0
 17 18  1  0  0  0  0
 17 35  1  0  0  0  0
 17 36  1  0  0  0  0
 18 37  1  0  0  0  0
 18 38  1  0  0  0  0
M  CHG  1   6  -1
M  CHG  1  15   1
M  END
> <s_m_source_file>
AV-unprocessed.smi

> <i_m_source_file_index>
809

> <i_lp_mmshare_version>
43012

> <i_f3d_flags>
0

> <s_epik_input>
W0NIM11jMVtjSF1zYyhuMSlbTkhdQyg9TylbTkhdW0NIMl1DMihbT0hdKVtDSDJdW0NIMl1OKFtDSDNdKVtDSDJdW0NIMl0y

> <s_epik_cmdline>
J2VwaWtfcHl0aG9uJywgJy1waCcsICc3LjAnLCAnLXRuJywgJzgnLCAnLW1hJywgJzIwMCcsICctbWV0YWxfYmluZGluZycsICctaW1hZScsICc8aW5maWxlLm1hZT4nLCAnLW9tYWUnLCAnPG91dGZpbGUubWFlPic=

> <r_lp_tautomer_probability>
0.999

> <r_epik_Ionization_Penalty>
8.50704

> <r_epik_Ionization_Penalty_Charging>
6.65046

> <r_epik_Ionization_Penalty_Neutral>
1.85657

> <r_epik_State_Penalty>
6.64992

> <r_epik_Charging_Adjusted_Penalty>
13.3004

> <i_epik_Tot_Q>
0

> <i_epik_Tot_abs_Q>
2

> <r_epik_Metal_State_Penalty>
2.57297

> <b_epik_Metal_Only>
1

> <s_lp_Force_Field>
OPLS_2005

> <r_lp_Energy>
10.5193

> <b_lp_Chiralities_Consistent>
1

> <s_lp_Variant>
AV-unprocessed.smi:809-3

> <Gold.Version>
5.8.1

> <Gold.Id.Protein>
6NUR|6NUR_protein|mol2

> <Gold.PLP.Fitness>
41.2088

> <Gold.PLP.PLP>
-31.4840

> <Gold.PLP.part.hbond>
-3.0000

> <Gold.PLP.part.metal>
0.0000

> <Gold.PLP.part.buried>
-0.7731

> <Gold.PLP.part.nonpolar>
-28.5251

> <Gold.PLP.part.repulsive>
0.3665

> <Gold.PLP.ligand.clash>
0.0000

> <Gold.PLP.ligand.torsion>
0.9163

> <Gold.PLP.Chemscore.Hbond>
3.8480

> <Gold.PLP.Chemscore.CHOScore>
0.0000

> <Gold.PLP.Chemscore.Metal>
0.0000

> <Gold.Chemscore.Hbonds>
donor molecule, donor type, donor heavy atom, donor atom, acceptor molecule, acceptor atom, score
      L1  H    12    27       P1 10175  1.00
      L1  H    15    39       P1  7948  2.00
      P1  H  7989  7998       L1     8  0.85

> <Gold.PLP.Chemscore.Internal.Correction>
0.0134

> <Gold.Rescore>
     Score         DG    S(hbond)    S(metal)    S(lipo)     H(rot)  DE(clash)    DE(int)     intcor
     18.19     -19.37       2.88        0.00      76.39       1.82       0.27       0.91       ----

> <Gold.Chemscore.Fitness>
18.1927

> <Gold.Chemscore.DG>
-19.3734

> <Gold.Chemscore.ZeroCoef>
-5.4800

> <Gold.Chemscore.Hbond>
2.8776

> <Gold.Chemscore.Metal>
0.0000

> <Gold.Chemscore.Lipo>
76.3913

> <Gold.Chemscore.Internal_Hbond>
0.0000

> <Gold.Chemscore.DEClash>
0.2686

> <Gold.Chemscore.DEInternal>
0.9120

> <Gold.Chemscore.Rot>
1.8186

> <Gold.Chemscore.Internal.Correction>
   9.000000E+99

> <Gold.Chemscore.Hbonds>
donor molecule, donor type, donor heavy atom, donor atom, acceptor molecule, acceptor atom, score
      L1  H    12    27       P1 10175  0.94
      L1  H    15    39       P1  7948  1.00
      P1  H  7989  7998       L1     8  0.81

> <Gold.Chemscore.Hbond.Weighted>
-9.6113

> <Gold.Chemscore.Metal.Weighted>
-0.0000

> <Gold.Chemscore.Lipo.Weighted>
-8.9378

> <Gold.Chemscore.Internal_Hbond.Weighted>
0.0000

> <Gold.Chemscore.DEClash.Weighted>
0.2686

> <Gold.Chemscore.DEInternal.Weighted>
0.9120

> <Gold.Chemscore.Rot.Weighted>
4.6557

> <Gold.Chemscore.Internal.Correction.Weighted>
   9.000000E+99

> <Gold.Protein.RotatedTorsions>
[ 6907 6896 6895 6894 ] final  159.80 input  -60.11 | X-H torsion
[ 7974 7965 7964 7962 ] final  -20.72 input  175.53 | X-H torsion
[ 8008 7997 7996 7995 ] final   30.42 input   59.86 | X-H torsion
[ 10167 10162 10161 10158 ] final  147.80 input  -65.29 | X-H torsion
[ 10718 10713 10712 10709 ] final -156.73 input   66.30 | X-H torsion
[ 10763 10752 10751 10750 ] final  152.17 input  -60.55 | X-H torsion
[ 11005 11000 10999 10996 ] final   31.24 input  -57.11 | X-H torsion

> <Gold.Protein.ActiveResidues>
 VAL166  LYS551  ARG553  GLY616  TRP617  ASP618  TYR619  PRO620  LYS621  CYS622 
 ASP623  PHE694  ASN695  SER759  ASP760  ASP761  ALA762  ILE779  LEU786  VAL792 
 PHE793  MET794  SER795  GLU796  ALA797  LYS798  CYS799  TRP800  GLU811  SER814 

> <Gold.Protein.RotatedAtoms>
  151.9802  133.3755  159.4104 H   0  0  0  0  0  0  0  0  0  0  0  0  # atno 6907 bound_to 6896
  150.6936  134.4047  159.5144 H   0  0  0  0  0  0  0  0  0  0  0  0  # atno 6908 bound_to 6896
  152.1765  134.8790  160.0581 H   0  0  0  0  0  0  0  0  0  0  0  0  # atno 6909 bound_to 6896
  146.1772  140.4242  142.8508 H   0  0  0  0  0  0  0  0  0  0  0  0  # atno 7974 bound_to 7965
  155.0901  140.3219  155.4576 H   0  0  0  0  0  0  0  0  0  0  0  0  # atno 8008 bound_to 7997
  156.2745  140.2079  156.5975 H   0  0  0  0  0  0  0  0  0  0  0  0  # atno 8009 bound_to 7997
  154.6910  140.0516  157.0350 H   0  0  0  0  0  0  0  0  0  0  0  0  # atno 8010 bound_to 7997
  139.4884  144.5728  151.7022 H   0  0  0  0  0  0  0  0  0  0  0  0  # atno 10167 bound_to 10162
  156.5305  130.8518  151.2714 H   0  0  0  0  0  0  0  0  0  0  0  0  # atno 10718 bound_to 10713
  154.1156  135.2836  155.3220 H   0  0  0  0  0  0  0  0  0  0  0  0  # atno 10763 bound_to 10752
  154.6459  135.5386  153.7847 H   0  0  0  0  0  0  0  0  0  0  0  0  # atno 10764 bound_to 10752
  153.0330  135.6498  154.1312 H   0  0  0  0  0  0  0  0  0  0  0  0  # atno 10765 bound_to 10752
  140.2860  134.2919  155.7788 H   0  0  0  0  0  0  0  0  0  0  0  0  # atno 11005 bound_to 11000
  144.8256  140.6623  143.6324 LP  0  0  0  0  0  0  0  0  0  0  0  0  # atno 17320 bound_to 7965
  145.4177  139.1569  143.4091 LP  0  0  0  0  0  0  0  0  0  0  0  0  # atno 17321 bound_to 7965
  140.5318  144.0718  150.6056 LP  0  0  0  0  0  0  0  0  0  0  0  0  # atno 17342 bound_to 10162
  140.3710  143.2854  152.0278 LP  0  0  0  0  0  0  0  0  0  0  0  0  # atno 17343 bound_to 10162
  157.7422  130.9886  150.2502 LP  0  0  0  0  0  0  0  0  0  0  0  0  # atno 17370 bound_to 10713
  156.3064  130.3765  149.7702 LP  0  0  0  0  0  0  0  0  0  0  0  0  # atno 17371 bound_to 10713
  141.2155  133.7555  156.9552 LP  0  0  0  0  0  0  0  0  0  0  0  0  # atno 17394 bound_to 11000
  140.1240  134.9399  157.2243 LP  0  0  0  0  0  0  0  0  0  0  0  0  # atno 17395 bound_to 11000

$$$$
