AV-unprocessed.smi:1075|AV-procd|sdf|4694|dock3
  -GOLD-   22720 3213D 1   1.00000     0.00000
 Structure written by MMmdl.
 50 51  0  0  0  0  0  0  0  0  1 V2000
  151.4053  139.3618  158.1707 C   0  0  0  0  0  0  0  0  0  0  0  0
  151.8424  140.6049  158.8919 C   0  0  0  0  0  0  0  0  0  0  0  0
  152.6871  140.5019  159.9032 N   0  0  0  0  0  0  0  0  0  0  0  0
  152.8840  141.7687  160.3171 N   0  0  0  0  0  0  0  0  0  0  0  0
  153.7772  142.0179  161.4320 C   0  0  0  0  0  0  0  0  0  0  0  0
  152.1663  142.6763  159.5617 C   0  0  0  0  0  0  0  0  0  0  0  0
  152.2340  144.1485  159.8207 C   0  0  0  0  0  0  0  0  0  0  0  0
  151.4668  141.9552  158.6266 C   0  0  0  0  0  0  0  0  0  0  0  0
  150.5249  142.4318  157.5381 C   0  0  1  0  0  0  0  0  0  0  0  0
  151.0688  142.1169  156.1313 C   0  0  0  0  0  0  0  0  0  0  0  0
  149.1133  141.8725  157.7853 C   0  0  0  0  0  0  0  0  0  0  0  0
  148.8935  141.1161  158.7315 O   0  0  0  0  0  0  0  0  0  0  0  0
  148.1704  142.2594  156.9066 N   0  0  0  0  0  0  0  0  0  0  0  0
  146.7422  141.9193  156.8718 C   0  0  1  0  0  0  0  0  0  0  0  0
  146.0146  142.5837  158.0607 C   0  0  0  0  0  0  0  0  0  0  0  0
  146.1629  142.4843  155.5528 C   0  0  0  0  0  0  0  0  0  0  0  0
  146.7391  141.7957  154.3008 C   0  0  0  0  0  0  0  0  0  0  0  0
  146.5292  140.2712  154.3443 C   0  0  1  0  0  0  0  0  0  0  0  0
  147.1253  139.5866  153.1064 C   0  0  0  0  0  0  0  0  0  0  0  0
  147.1065  139.6854  155.6460 C   0  0  0  0  0  0  0  0  0  0  0  0
  146.5231  140.3840  156.8881 C   0  0  0  0  0  0  0  0  0  0  0  0
  151.6833  139.4061  157.1174 H   0  0  0  0  0  0  0  0  0  0  0  0
  150.3232  139.2412  158.2241 H   0  0  0  0  0  0  0  0  0  0  0  0
  151.8595  138.4655  158.5949 H   0  0  0  0  0  0  0  0  0  0  0  0
  154.6886  142.4942  161.0701 H   0  0  0  0  0  0  0  0  0  0  0  0
  154.0398  141.0846  161.9319 H   0  0  0  0  0  0  0  0  0  0  0  0
  153.2921  142.6763  162.1528 H   0  0  0  0  0  0  0  0  0  0  0  0
  151.9499  144.7206  158.9382 H   0  0  0  0  0  0  0  0  0  0  0  0
  153.2435  144.4557  160.0937 H   0  0  0  0  0  0  0  0  0  0  0  0
  151.5629  144.4272  160.6331 H   0  0  0  0  0  0  0  0  0  0  0  0
  150.4209  143.5160  157.5918 H   0  0  0  0  0  0  0  0  0  0  0  0
  151.1810  141.0459  155.9642 H   0  0  0  0  0  0  0  0  0  0  0  0
  152.0462  142.5769  155.9838 H   0  0  0  0  0  0  0  0  0  0  0  0
  150.4084  142.5053  155.3550 H   0  0  0  0  0  0  0  0  0  0  0  0
  148.4794  142.8811  156.1733 H   0  0  0  0  0  0  0  0  0  0  0  0
  144.9367  142.4302  157.9986 H   0  0  0  0  0  0  0  0  0  0  0  0
  146.1912  143.6598  158.0822 H   0  0  0  0  0  0  0  0  0  0  0  0
  146.3378  142.1772  159.0189 H   0  0  0  0  0  0  0  0  0  0  0  0
  145.0787  142.3630  155.5486 H   0  0  0  0  0  0  0  0  0  0  0  0
  146.3441  143.5585  155.4922 H   0  0  0  0  0  0  0  0  0  0  0  0
  146.2641  142.2089  153.4105 H   0  0  0  0  0  0  0  0  0  0  0  0
  147.8023  142.0216  154.2089 H   0  0  0  0  0  0  0  0  0  0  0  0
  145.4549  140.0814  154.3393 H   0  0  0  0  0  0  0  0  0  0  0  0
  148.2042  139.7356  153.0514 H   0  0  0  0  0  0  0  0  0  0  0  0
  146.6874  139.9831  152.1903 H   0  0  0  0  0  0  0  0  0  0  0  0
  146.9379  138.5127  153.1233 H   0  0  0  0  0  0  0  0  0  0  0  0
  146.8917  138.6177  155.6975 H   0  0  0  0  0  0  0  0  0  0  0  0
  148.1934  139.7773  155.6463 H   0  0  0  0  0  0  0  0  0  0  0  0
  146.9439  139.9382  157.7893 H   0  0  0  0  0  0  0  0  0  0  0  0
  145.4533  140.1753  156.9333 H   0  0  0  0  0  0  0  0  0  0  0  0
  1  2  1  0  0  0  0
  1 22  1  0  0  0  0
  1 23  1  0  0  0  0
  1 24  1  0  0  0  0
  2  8  1  0  0  0  0
  2  3  2  0  0  0  0
  3  4  1  0  0  0  0
  4  5  1  0  0  0  0
  4  6  1  0  0  0  0
  5 25  1  0  0  0  0
  5 26  1  0  0  0  0
  5 27  1  0  0  0  0
  6  7  1  0  0  0  0
  6  8  2  0  0  0  0
  7 28  1  0  0  0  0
  7 29  1  0  0  0  0
  7 30  1  0  0  0  0
  8  9  1  0  0  0  0
  9 10  1  0  0  0  0
  9 11  1  0  0  0  0
  9 31  1  0  0  0  0
 10 32  1  0  0  0  0
 10 33  1  0  0  0  0
 10 34  1  0  0  0  0
 11 12  2  0  0  0  0
 11 13  1  0  0  0  0
 13 14  1  0  0  0  0
 13 35  1  0  0  0  0
 14 21  1  0  0  0  0
 14 15  1  0  0  0  0
 14 16  1  0  0  0  0
 15 36  1  0  0  0  0
 15 37  1  0  0  0  0
 15 38  1  0  0  0  0
 16 17  1  0  0  0  0
 16 39  1  0  0  0  0
 16 40  1  0  0  0  0
 17 18  1  0  0  0  0
 17 41  1  0  0  0  0
 17 42  1  0  0  0  0
 18 19  1  0  0  0  0
 18 20  1  0  0  0  0
 18 43  1  0  0  0  0
 19 44  1  0  0  0  0
 19 45  1  0  0  0  0
 19 46  1  0  0  0  0
 20 21  1  0  0  0  0
 20 47  1  0  0  0  0
 20 48  1  0  0  0  0
 21 49  1  0  0  0  0
 21 50  1  0  0  0  0
M  END
> <s_m_source_file>
AV-unprocessed.smi

> <i_m_source_file_index>
1075

> <i_lp_mmshare_version>
43012

> <i_f3d_flags>
0

> <s_epik_input>
W0NIM11jMW5uKFtDSDNdKWMoW0NIM10pYzFbQ0BIXShbQ0gzXSlDKD1PKVtOSF1bQ0BAXTIoW0NIM10pW0NIMl1bQ0gyXVtDQEBIXShbQ0gzXSlbQ0gyXVtDSDJdMg==

> <s_epik_cmdline>
J2VwaWtfcHl0aG9uJywgJy1waCcsICc3LjAnLCAnLXRuJywgJzgnLCAnLW1hJywgJzIwMCcsICctbWV0YWxfYmluZGluZycsICctaW1hZScsICc8aW5maWxlLm1hZT4nLCAnLW9tYWUnLCAnPG91dGZpbGUubWFlPic=

> <r_lp_tautomer_probability>
1

> <r_epik_Ionization_Penalty>
0.00502928

> <r_epik_Ionization_Penalty_Charging>
0

> <r_epik_Ionization_Penalty_Neutral>
0.00502928

> <r_epik_State_Penalty>
0.0036576

> <r_epik_Charging_Adjusted_Penalty>
0.0036576

> <i_epik_Tot_Q>
0

> <i_epik_Tot_abs_Q>
0

> <r_epik_Metal_State_Penalty>
-0

> <b_epik_Metal_Only>
0

> <s_lp_Force_Field>
OPLS_2005

> <r_lp_Energy>
4.5461

> <b_lp_Chiralities_Consistent>
1

> <s_lp_Variant>
AV-unprocessed.smi:1075-2

> <Gold.Version>
5.8.1

> <Gold.Id.Protein>
6NUR|6NUR_protein|mol2

> <Gold.PLP.Fitness>
38.2157

> <Gold.PLP.PLP>
-35.3915

> <Gold.PLP.part.hbond>
-2.7379

> <Gold.PLP.part.metal>
0.0000

> <Gold.PLP.part.buried>
-2.2941

> <Gold.PLP.part.nonpolar>
-30.4345

> <Gold.PLP.part.repulsive>
0.0252

> <Gold.PLP.ligand.clash>
0.0000

> <Gold.PLP.ligand.torsion>
0.1226

> <Gold.PLP.Chemscore.Hbond>
0.9920

> <Gold.PLP.Chemscore.CHOScore>
0.0000

> <Gold.PLP.Chemscore.Metal>
0.0000

> <Gold.Chemscore.Hbonds>
donor molecule, donor type, donor heavy atom, donor atom, acceptor molecule, acceptor atom, score
      L1  H    13    35       P1  8028  0.93

> <Gold.PLP.Chemscore.Internal.Correction>
0.0935

> <Gold.Rescore>
     Score         DG    S(hbond)    S(metal)    S(lipo)     H(rot)  DE(clash)    DE(int)     intcor
     14.34     -16.46       0.86        0.00      96.30       1.23       0.09       2.03       ----

> <Gold.Chemscore.Fitness>
14.3417

> <Gold.Chemscore.DG>
-16.4582

> <Gold.Chemscore.ZeroCoef>
-5.4800

> <Gold.Chemscore.Hbond>
0.8580

> <Gold.Chemscore.Metal>
0.0000

> <Gold.Chemscore.Lipo>
96.2962

> <Gold.Chemscore.Internal_Hbond>
0.0000

> <Gold.Chemscore.DEClash>
0.0853

> <Gold.Chemscore.DEInternal>
2.0312

> <Gold.Chemscore.Rot>
1.2321

> <Gold.Chemscore.Internal.Correction>
   9.000000E+99

> <Gold.Chemscore.Hbonds>
donor molecule, donor type, donor heavy atom, donor atom, acceptor molecule, acceptor atom, score
      L1  H    13    35       P1  8028  0.84

> <Gold.Chemscore.Hbond.Weighted>
-2.8656

> <Gold.Chemscore.Metal.Weighted>
-0.0000

> <Gold.Chemscore.Lipo.Weighted>
-11.2667

> <Gold.Chemscore.Internal_Hbond.Weighted>
0.0000

> <Gold.Chemscore.DEClash.Weighted>
0.0853

> <Gold.Chemscore.DEInternal.Weighted>
2.0312

> <Gold.Chemscore.Rot.Weighted>
3.1541

> <Gold.Chemscore.Internal.Correction.Weighted>
   9.000000E+99

> <Gold.Protein.RotatedTorsions>
[ 6907 6896 6895 6894 ] final   17.28 input  -60.11 | X-H torsion
[ 7974 7965 7964 7962 ] final   75.41 input  175.53 | X-H torsion
[ 8008 7997 7996 7995 ] final -119.57 input   59.86 | X-H torsion
[ 10167 10162 10161 10158 ] final   41.95 input  -65.29 | X-H torsion
[ 10718 10713 10712 10709 ] final -149.94 input   66.30 | X-H torsion
[ 10763 10752 10751 10750 ] final   -0.28 input  -60.55 | X-H torsion
[ 11005 11000 10999 10996 ] final  -26.17 input  -57.11 | X-H torsion

> <Gold.Protein.ActiveResidues>
 VAL166  LYS551  ARG553  GLY616  TRP617  ASP618  TYR619  PRO620  LYS621  CYS622 
 ASP623  PHE694  ASN695  SER759  ASP760  ASP761  ALA762  ILE779  LEU786  VAL792 
 PHE793  MET794  SER795  GLU796  ALA797  LYS798  CYS799  TRP800  GLU811  SER814 

> <Gold.Protein.RotatedAtoms>
  151.8471  135.0570  160.0454 H   0  0  0  0  0  0  0  0  0  0  0  0  # atno 6907 bound_to 6896
  152.2765  133.5425  159.5479 H   0  0  0  0  0  0  0  0  0  0  0  0  # atno 6908 bound_to 6896
  150.7172  134.0541  159.3851 H   0  0  0  0  0  0  0  0  0  0  0  0  # atno 6909 bound_to 6896
  145.7159  139.2631  143.1624 H   0  0  0  0  0  0  0  0  0  0  0  0  # atno 7974 bound_to 7965
  155.1178  140.0398  157.2742 H   0  0  0  0  0  0  0  0  0  0  0  0  # atno 8008 bound_to 7997
  154.6636  140.2596  155.7056 H   0  0  0  0  0  0  0  0  0  0  0  0  # atno 8009 bound_to 7997
  156.2629  140.2812  156.1118 H   0  0  0  0  0  0  0  0  0  0  0  0  # atno 8010 bound_to 7997
  140.3592  144.2250  150.6139 H   0  0  0  0  0  0  0  0  0  0  0  0  # atno 10167 bound_to 10162
  156.4397  130.8115  151.2345 H   0  0  0  0  0  0  0  0  0  0  0  0  # atno 10718 bound_to 10713
  153.3298  135.6974  153.6957 H   0  0  0  0  0  0  0  0  0  0  0  0  # atno 10763 bound_to 10752
  153.5764  135.3506  155.2859 H   0  0  0  0  0  0  0  0  0  0  0  0  # atno 10764 bound_to 10752
  154.8615  135.4284  154.2484 H   0  0  0  0  0  0  0  0  0  0  0  0  # atno 10765 bound_to 10752
  140.9005  133.7527  156.0537 H   0  0  0  0  0  0  0  0  0  0  0  0  # atno 11005 bound_to 11000
  146.0670  140.7910  142.9707 LP  0  0  0  0  0  0  0  0  0  0  0  0  # atno 17320 bound_to 7965
  144.6929  140.3284  143.7220 LP  0  0  0  0  0  0  0  0  0  0  0  0  # atno 17321 bound_to 7965
  140.5143  143.2282  151.8487 LP  0  0  0  0  0  0  0  0  0  0  0  0  # atno 17342 bound_to 10162
  139.4816  144.4912  151.9182 LP  0  0  0  0  0  0  0  0  0  0  0  0  # atno 17343 bound_to 10162
  157.7506  131.0172  150.3576 LP  0  0  0  0  0  0  0  0  0  0  0  0  # atno 17370 bound_to 10713
  156.3931  130.3901  149.7015 LP  0  0  0  0  0  0  0  0  0  0  0  0  # atno 17371 bound_to 10713
  140.8236  134.3260  157.5373 LP  0  0  0  0  0  0  0  0  0  0  0  0  # atno 17394 bound_to 11000
  139.8741  134.9323  156.3551 LP  0  0  0  0  0  0  0  0  0  0  0  0  # atno 17395 bound_to 11000

$$$$
