AV-unprocessed.smi:1696|AV-procd|sdf|6801|dock7
  -GOLD-   22720 7573D 1   1.00000     0.00000
 Structure written by MMmdl.
 38 39  0  0  0  0  0  0  0  0  3 V2000
  149.6711  132.2510  154.8488 C   0  0  0  0  0  0  0  0  0  0  0  0
  149.8882  133.7513  154.5950 C   0  0  0  0  0  0  0  0  0  0  0  0
  148.6060  134.6219  154.6958 C   0  0  2  0  0  0  0  0  0  0  0  0
  147.7721  134.2988  155.9657 C   0  0  0  0  0  0  0  0  0  0  0  0
  148.2534  135.0008  157.1510 N   0  0  0  0  0  0  0  0  0  0  0  0
  148.1461  134.5635  158.4134 C   0  0  0  0  0  0  0  0  0  0  0  0
  147.6160  133.4739  158.6428 O   0  0  0  0  0  0  0  0  0  0  0  0
  148.6523  135.4186  159.3294 N   0  5  0  0  0  0  0  0  0  0  0  0
  148.1157  135.4797  160.5589 C   0  0  0  0  0  0  0  0  0  0  0  0
  148.1870  136.5684  161.3332 N   0  0  0  0  0  0  0  0  0  0  0  0
  147.5567  136.4127  162.5692 C   0  0  0  0  0  0  0  0  0  0  0  0
  146.9843  135.1796  162.7360 C   0  0  0  0  0  0  0  0  0  0  0  0
  147.2221  134.1708  161.3377 S   0  0  0  0  0  0  0  0  0  0  0  0
  147.7677  134.5325  153.4647 N   0  3  0  0  0  0  0  0  0  0  0  0
  147.5033  133.1546  152.9774 C   0  0  0  0  0  0  0  0  0  0  0  0
  146.0781  133.1366  152.4063 C   0  0  0  0  0  0  0  0  0  0  0  0
  145.6392  134.5966  152.3976 C   0  0  0  0  0  0  0  0  0  0  0  0
  146.4548  135.2107  153.5290 C   0  0  0  0  0  0  0  0  0  0  0  0
  150.6050  131.7029  154.7221 H   0  0  0  0  0  0  0  0  0  0  0  0
  148.9447  131.8263  154.1561 H   0  0  0  0  0  0  0  0  0  0  0  0
  149.3208  132.0620  155.8634 H   0  0  0  0  0  0  0  0  0  0  0  0
  150.6334  134.1166  155.3020 H   0  0  0  0  0  0  0  0  0  0  0  0
  150.3565  133.8829  153.6198 H   0  0  0  0  0  0  0  0  0  0  0  0
  148.9358  135.6596  154.7678 H   0  0  0  0  0  0  0  0  0  0  0  0
  146.7197  134.5492  155.8286 H   0  0  0  0  0  0  0  0  0  0  0  0
  147.7962  133.2293  156.1735 H   0  0  0  0  0  0  0  0  0  0  0  0
  148.6989  135.8953  157.0066 H   0  0  0  0  0  0  0  0  0  0  0  0
  147.5629  137.2342  163.2700 H   0  0  0  0  0  0  0  0  0  0  0  0
  146.4400  134.8051  163.5897 H   0  0  0  0  0  0  0  0  0  0  0  0
  148.2408  132.8899  152.2190 H   0  0  0  0  0  0  0  0  0  0  0  0
  147.5786  132.4239  153.7845 H   0  0  0  0  0  0  0  0  0  0  0  0
  146.0302  132.6850  151.4148 H   0  0  0  0  0  0  0  0  0  0  0  0
  145.4263  132.5597  153.0640 H   0  0  0  0  0  0  0  0  0  0  0  0
  145.9142  135.0610  151.4495 H   0  0  0  0  0  0  0  0  0  0  0  0
  144.5642  134.7188  152.5341 H   0  0  0  0  0  0  0  0  0  0  0  0
  145.9762  134.9977  154.4865 H   0  0  0  0  0  0  0  0  0  0  0  0
  146.5439  136.2922  153.4233 H   0  0  0  0  0  0  0  0  0  0  0  0
  148.2798  134.9950  152.7274 H   0  0  0  0  0  0  0  0  0  0  0  0
  1  2  1  0  0  0  0
  1 19  1  0  0  0  0
  1 20  1  0  0  0  0
  1 21  1  0  0  0  0
  2  3  1  0  0  0  0
  2 22  1  0  0  0  0
  2 23  1  0  0  0  0
  3  4  1  0  0  0  0
  3 14  1  0  0  0  0
  3 24  1  0  0  0  0
  4  5  1  0  0  0  0
  4 25  1  0  0  0  0
  4 26  1  0  0  0  0
  5  6  1  0  0  0  0
  5 27  1  0  0  0  0
  6  7  2  0  0  0  0
  6  8  1  0  0  0  0
  8  9  1  0  0  0  0
  9 13  1  0  0  0  0
  9 10  2  0  0  0  0
 10 11  1  0  0  0  0
 11 12  2  0  0  0  0
 11 28  1  0  0  0  0
 12 13  1  0  0  0  0
 12 29  1  0  0  0  0
 14 18  1  0  0  0  0
 14 15  1  0  0  0  0
 14 38  1  0  0  0  0
 15 16  1  0  0  0  0
 15 30  1  0  0  0  0
 15 31  1  0  0  0  0
 16 17  1  0  0  0  0
 16 32  1  0  0  0  0
 16 33  1  0  0  0  0
 17 18  1  0  0  0  0
 17 34  1  0  0  0  0
 17 35  1  0  0  0  0
 18 36  1  0  0  0  0
 18 37  1  0  0  0  0
M  CHG  1   8  -1
M  CHG  1  14   1
M  END
> <s_m_source_file>
AV-unprocessed.smi

> <i_m_source_file_index>
1696

> <i_lp_mmshare_version>
43012

> <i_f3d_flags>
0

> <s_epik_input>
W0NIMl0xW0NIMl1bQ0gyXVtDSDJdTjFbQ0BIXShbQ0gyXVtDSDNdKVtDSDJdW05IXUMoPU8pW05IXWMybltjSF1bY0hdczI=

> <s_epik_cmdline>
J2VwaWtfcHl0aG9uJywgJy1waCcsICc3LjAnLCAnLXRuJywgJzgnLCAnLW1hJywgJzIwMCcsICctbWV0YWxfYmluZGluZycsICctaW1hZScsICc8aW5maWxlLm1hZT4nLCAnLW9tYWUnLCAnPG91dGZpbGUubWFlPic=

> <r_lp_tautomer_probability>
1

> <r_epik_Ionization_Penalty>
7.71903

> <r_epik_Ionization_Penalty_Charging>
6.3282

> <r_epik_Ionization_Penalty_Neutral>
1.39083

> <r_epik_State_Penalty>
6.32705

> <r_epik_Charging_Adjusted_Penalty>
12.6552

> <i_epik_Tot_Q>
0

> <i_epik_Tot_abs_Q>
2

> <r_epik_Metal_State_Penalty>
2.26116

> <b_epik_Metal_Only>
1

> <s_lp_Force_Field>
OPLS_2005

> <r_lp_Energy>
21.91

> <b_lp_Chiralities_Consistent>
1

> <s_lp_Variant>
AV-unprocessed.smi:1696-3

> <Gold.Version>
5.8.1

> <Gold.Id.Protein>
6NUR|6NUR_protein|mol2

> <Gold.PLP.Fitness>
40.7893

> <Gold.PLP.PLP>
-28.7907

> <Gold.PLP.part.hbond>
-3.0000

> <Gold.PLP.part.metal>
0.0000

> <Gold.PLP.part.buried>
-3.5610

> <Gold.PLP.part.nonpolar>
-22.3628

> <Gold.PLP.part.repulsive>
0.0407

> <Gold.PLP.ligand.clash>
0.0000

> <Gold.PLP.ligand.torsion>
1.1258

> <Gold.PLP.Chemscore.Hbond>
4.7000

> <Gold.PLP.Chemscore.CHOScore>
0.0000

> <Gold.PLP.Chemscore.Metal>
0.0000

> <Gold.Chemscore.Hbonds>
donor molecule, donor type, donor heavy atom, donor atom, acceptor molecule, acceptor atom, score
      L1  H    14    38       P1  7948  2.00
      P1  H  6896  6908       L1     8  1.17
      P1  H  6931  6943       L1    10  0.60

> <Gold.PLP.Chemscore.Internal.Correction>
0.1503

> <Gold.Rescore>
     Score         DG    S(hbond)    S(metal)    S(lipo)     H(rot)  DE(clash)    DE(int)     intcor
     11.71     -14.35       1.91        0.00      59.09       1.73       0.05       2.58       ----

> <Gold.Chemscore.Fitness>
11.7138

> <Gold.Chemscore.DG>
-14.3488

> <Gold.Chemscore.ZeroCoef>
-5.4800

> <Gold.Chemscore.Hbond>
1.9089

> <Gold.Chemscore.Metal>
0.0000

> <Gold.Chemscore.Lipo>
59.0947

> <Gold.Chemscore.Internal_Hbond>
0.0000

> <Gold.Chemscore.DEClash>
0.0547

> <Gold.Chemscore.DEInternal>
2.5803

> <Gold.Chemscore.Rot>
1.7270

> <Gold.Chemscore.Internal.Correction>
   9.000000E+99

> <Gold.Chemscore.Hbonds>
donor molecule, donor type, donor heavy atom, donor atom, acceptor molecule, acceptor atom, score
      L1  H    14    38       P1  7948  0.74
      P1  H  6896  6908       L1     8  0.11
      P1  H  6931  6943       L1    10  0.04

> <Gold.Chemscore.Hbond.Weighted>
-6.3759

> <Gold.Chemscore.Metal.Weighted>
-0.0000

> <Gold.Chemscore.Lipo.Weighted>
-6.9141

> <Gold.Chemscore.Internal_Hbond.Weighted>
0.0000

> <Gold.Chemscore.DEClash.Weighted>
0.0547

> <Gold.Chemscore.DEInternal.Weighted>
2.5803

> <Gold.Chemscore.Rot.Weighted>
4.4212

> <Gold.Chemscore.Internal.Correction.Weighted>
   9.000000E+99

> <Gold.Protein.RotatedTorsions>
[ 6907 6896 6895 6894 ] final  173.74 input  -60.11 | X-H torsion
[ 7974 7965 7964 7962 ] final -153.38 input  175.53 | X-H torsion
[ 8008 7997 7996 7995 ] final  146.33 input   59.86 | X-H torsion
[ 10167 10162 10161 10158 ] final -158.71 input  -65.29 | X-H torsion
[ 10718 10713 10712 10709 ] final -110.09 input   66.30 | X-H torsion
[ 10763 10752 10751 10750 ] final -116.27 input  -60.55 | X-H torsion
[ 11005 11000 10999 10996 ] final   23.68 input  -57.11 | X-H torsion

> <Gold.Protein.ActiveResidues>
 VAL166  LYS551  ARG553  GLY616  TRP617  ASP618  TYR619  PRO620  LYS621  CYS622 
 ASP623  PHE694  ASN695  SER759  ASP760  ASP761  ALA762  ILE779  LEU786  VAL792 
 PHE793  MET794  SER795  GLU796  ALA797  LYS798  CYS799  TRP800  GLU811  SER814 

> <Gold.Protein.RotatedAtoms>
  151.7635  133.3335  159.3424 H   0  0  0  0  0  0  0  0  0  0  0  0  # atno 6907 bound_to 6896
  150.7489  134.6084  159.6082 H   0  0  0  0  0  0  0  0  0  0  0  0  # atno 6908 bound_to 6896
  152.3389  134.7162  160.0320 H   0  0  0  0  0  0  0  0  0  0  0  0  # atno 6909 bound_to 6896
  144.7744  140.4534  143.5884 H   0  0  0  0  0  0  0  0  0  0  0  0  # atno 7974 bound_to 7965
  156.2858  140.2185  156.5360 H   0  0  0  0  0  0  0  0  0  0  0  0  # atno 8008 bound_to 7997
  154.7410  140.0488  157.0833 H   0  0  0  0  0  0  0  0  0  0  0  0  # atno 8009 bound_to 7997
  155.0231  140.3126  155.4789 H   0  0  0  0  0  0  0  0  0  0  0  0  # atno 8010 bound_to 7997
  139.6671  143.9810  152.2261 H   0  0  0  0  0  0  0  0  0  0  0  0  # atno 10167 bound_to 10162
  156.0572  130.5797  150.8189 H   0  0  0  0  0  0  0  0  0  0  0  0  # atno 10718 bound_to 10713
  154.8513  135.4352  154.1794 H   0  0  0  0  0  0  0  0  0  0  0  0  # atno 10763 bound_to 10752
  153.2888  135.6960  153.7319 H   0  0  0  0  0  0  0  0  0  0  0  0  # atno 10764 bound_to 10752
  153.6494  135.3454  155.3070 H   0  0  0  0  0  0  0  0  0  0  0  0  # atno 10765 bound_to 10752
  140.3669  134.2064  155.7669 H   0  0  0  0  0  0  0  0  0  0  0  0  # atno 11005 bound_to 11000
  145.6229  139.1526  143.3012 LP  0  0  0  0  0  0  0  0  0  0  0  0  # atno 17320 bound_to 7965
  146.1913  140.6338  142.9144 LP  0  0  0  0  0  0  0  0  0  0  0  0  # atno 17321 bound_to 7965
  139.9564  144.6586  150.8122 LP  0  0  0  0  0  0  0  0  0  0  0  0  # atno 17342 bound_to 10162
  140.7604  143.3149  151.2756 LP  0  0  0  0  0  0  0  0  0  0  0  0  # atno 17343 bound_to 10162
  157.5551  131.0945  150.9640 LP  0  0  0  0  0  0  0  0  0  0  0  0  # atno 17370 bound_to 10713
  156.9890  130.5556  149.5302 LP  0  0  0  0  0  0  0  0  0  0  0  0  # atno 17371 bound_to 10713
  141.1967  133.8077  157.0662 LP  0  0  0  0  0  0  0  0  0  0  0  0  # atno 17394 bound_to 11000
  140.0582  134.9769  157.1258 LP  0  0  0  0  0  0  0  0  0  0  0  0  # atno 17395 bound_to 11000

$$$$
