AV-unprocessed.smi:1535|AV-procd|sdf|6174|dock3
  -GOLD-   22720 6323D 1   1.00000     0.00000
 Structure written by MMmdl.
 47 48  0  0  0  0  0  0  0  0  2 V2000
  152.1917  143.7748  161.2493 C   0  0  0  0  0  0  0  0  0  0  0  0
  152.0416  142.9429  159.9870 C   0  0  0  0  0  0  0  0  0  0  0  0
  151.0843  143.3399  159.0272 C   0  0  0  0  0  0  0  0  0  0  0  0
  150.9710  142.5592  157.8831 C   0  0  0  0  0  0  0  0  0  0  0  0
  150.1401  142.6933  156.7700 N   0  3  0  0  0  0  0  0  0  0  0  0
  150.3939  141.6867  155.8903 C   0  0  0  0  0  0  0  0  0  0  0  0
  151.3625  140.8974  156.4324 N   0  0  0  0  0  0  0  0  0  0  0  0
  152.0168  139.7013  155.8729 C   0  0  0  0  0  0  0  0  0  0  0  0
  151.0247  138.7368  155.1942 C   0  0  2  0  0  0  0  0  0  0  0  0
  150.6901  139.2535  153.9199 O   0  0  0  0  0  0  0  0  0  0  0  0
  149.7404  138.5728  156.0297 C   0  0  0  0  0  0  0  0  0  0  0  0
  149.1713  137.2225  156.1341 N   0  0  0  0  0  0  0  0  0  0  0  0
  147.9666  137.2780  156.9536 C   0  0  0  0  0  0  0  0  0  0  0  0
  150.1099  136.2342  156.6770 C   0  0  0  0  0  0  0  0  0  0  0  0
  150.3962  135.0345  155.7520 C   0  0  2  0  0  0  0  0  0  0  0  0
  149.1656  134.6547  154.9171 C   0  0  0  0  0  0  0  0  0  0  0  0
  150.8664  133.8799  156.5329 C   0  0  0  0  0  0  0  0  0  0  0  0
  151.2376  132.9720  157.1464 N   0  0  0  0  0  0  0  0  0  0  0  0
  151.7662  141.4145  157.6717 C   0  0  0  0  0  0  0  0  0  0  0  0
  152.7173  141.0133  158.6093 C   0  0  0  0  0  0  0  0  0  0  0  0
  152.8477  141.7941  159.7802 C   0  0  0  0  0  0  0  0  0  0  0  0
  153.8722  141.3740  160.8206 C   0  0  0  0  0  0  0  0  0  0  0  0
  151.4985  144.6162  161.2574 H   0  0  0  0  0  0  0  0  0  0  0  0
  153.2027  144.1759  161.3256 H   0  0  0  0  0  0  0  0  0  0  0  0
  151.9910  143.1689  162.1331 H   0  0  0  0  0  0  0  0  0  0  0  0
  150.4678  144.2145  159.1761 H   0  0  0  0  0  0  0  0  0  0  0  0
  149.9101  141.5402  154.9354 H   0  0  0  0  0  0  0  0  0  0  0  0
  152.7597  140.0485  155.1538 H   0  0  0  0  0  0  0  0  0  0  0  0
  152.5572  139.1725  156.6563 H   0  0  0  0  0  0  0  0  0  0  0  0
  151.5178  137.7731  155.0769 H   0  0  0  0  0  0  0  0  0  0  0  0
  150.3891  138.5416  153.3762 H   0  0  0  0  0  0  0  0  0  0  0  0
  149.9326  138.9528  157.0345 H   0  0  0  0  0  0  0  0  0  0  0  0
  148.9852  139.2379  155.6080 H   0  0  0  0  0  0  0  0  0  0  0  0
  147.4802  136.3028  156.9949 H   0  0  0  0  0  0  0  0  0  0  0  0
  147.2455  137.9829  156.5384 H   0  0  0  0  0  0  0  0  0  0  0  0
  148.1964  137.5875  157.9743 H   0  0  0  0  0  0  0  0  0  0  0  0
  151.0450  136.7288  156.9451 H   0  0  0  0  0  0  0  0  0  0  0  0
  149.7279  135.8291  157.6156 H   0  0  0  0  0  0  0  0  0  0  0  0
  151.2057  135.2611  155.0632 H   0  0  0  0  0  0  0  0  0  0  0  0
  149.3812  133.8037  154.2704 H   0  0  0  0  0  0  0  0  0  0  0  0
  148.8519  135.4817  154.2794 H   0  0  0  0  0  0  0  0  0  0  0  0
  148.3225  134.3840  155.5534 H   0  0  0  0  0  0  0  0  0  0  0  0
  153.3364  140.1412  158.4635 H   0  0  0  0  0  0  0  0  0  0  0  0
  154.4246  140.4889  160.5031 H   0  0  0  0  0  0  0  0  0  0  0  0
  153.3821  141.1391  161.7657 H   0  0  0  0  0  0  0  0  0  0  0  0
  154.5946  142.1721  160.9933 H   0  0  0  0  0  0  0  0  0  0  0  0
  149.4536  143.4206  156.6163 H   0  0  0  0  0  0  0  0  0  0  0  0
  1  2  1  0  0  0  0
  1 23  1  0  0  0  0
  1 24  1  0  0  0  0
  1 25  1  0  0  0  0
  2 21  1  0  0  0  0
  2  3  2  0  0  0  0
  3  4  1  0  0  0  0
  3 26  1  0  0  0  0
  4 19  2  0  0  0  0
  4  5  1  0  0  0  0
  5  6  2  0  0  0  0
  5 47  1  0  0  0  0
  6  7  1  0  0  0  0
  6 27  1  0  0  0  0
  7  8  1  0  0  0  0
  7 19  1  0  0  0  0
  8  9  1  0  0  0  0
  8 28  1  0  0  0  0
  8 29  1  0  0  0  0
  9 10  1  0  0  0  0
  9 11  1  0  0  0  0
  9 30  1  0  0  0  0
 10 31  1  0  0  0  0
 11 12  1  0  0  0  0
 11 32  1  0  0  0  0
 11 33  1  0  0  0  0
 12 13  1  0  0  0  0
 12 14  1  0  0  0  0
 13 34  1  0  0  0  0
 13 35  1  0  0  0  0
 13 36  1  0  0  0  0
 14 15  1  0  0  0  0
 14 37  1  0  0  0  0
 14 38  1  0  0  0  0
 15 16  1  0  0  0  0
 15 17  1  0  0  0  0
 15 39  1  0  0  0  0
 16 40  1  0  0  0  0
 16 41  1  0  0  0  0
 16 42  1  0  0  0  0
 17 18  3  0  0  0  0
 19 20  1  0  0  0  0
 20 21  2  0  0  0  0
 20 43  1  0  0  0  0
 21 22  1  0  0  0  0
 22 44  1  0  0  0  0
 22 45  1  0  0  0  0
 22 46  1  0  0  0  0
M  CHG  1   5   1
M  END
> <s_m_source_file>
AV-unprocessed.smi

> <i_m_source_file_index>
1535

> <i_lp_mmshare_version>
43012

> <i_f3d_flags>
0

> <s_epik_input>
W0NIM11jKFtjSF0xKWMoW0NIM10pW2NIXWMoYzEyKW4oW2NIXW4yKVtDSDJdW0NASF0oW09IXSlbQ0gyXU4oW0NIM10pW0NIMl1bQ0BIXShbQ0gzXSlDI04=

> <s_epik_cmdline>
J2VwaWtfcHl0aG9uJywgJy1waCcsICc3LjAnLCAnLXRuJywgJzgnLCAnLW1hJywgJzIwMCcsICctbWV0YWxfYmluZGluZycsICctaW1hZScsICc8aW5maWxlLm1hZT4nLCAnLW9tYWUnLCAnPG91dGZpbGUubWFlPic=

> <r_epik_Ionization_Penalty>
1.22846

> <r_epik_Ionization_Penalty_Charging>
1.21333

> <r_epik_Ionization_Penalty_Neutral>
0.0151341

> <r_epik_State_Penalty>
1.27012

> <r_epik_Charging_Adjusted_Penalty>
2.48344

> <i_epik_Tot_Q>
1

> <i_epik_Tot_abs_Q>
1

> <r_epik_Metal_State_Penalty>
5.28751

> <b_epik_Metal_Only>
0

> <s_lp_Force_Field>
OPLS_2005

> <r_lp_Energy>
32.9236

> <b_lp_Chiralities_Consistent>
1

> <s_lp_Variant>
AV-unprocessed.smi:1535-5

> <Gold.Version>
5.8.1

> <Gold.Id.Protein>
6NUR|6NUR_protein|mol2

> <Gold.PLP.Fitness>
48.9320

> <Gold.PLP.PLP>
-40.9830

> <Gold.PLP.part.hbond>
-3.9258

> <Gold.PLP.part.metal>
0.0000

> <Gold.PLP.part.buried>
-4.6092

> <Gold.PLP.part.nonpolar>
-32.8363

> <Gold.PLP.part.repulsive>
0.0710

> <Gold.PLP.ligand.clash>
0.0000

> <Gold.PLP.ligand.torsion>
1.9953

> <Gold.PLP.Chemscore.Hbond>
3.9040

> <Gold.PLP.Chemscore.CHOScore>
0.0000

> <Gold.PLP.Chemscore.Metal>
0.0000

> <Gold.Chemscore.Hbonds>
donor molecule, donor type, donor heavy atom, donor atom, acceptor molecule, acceptor atom, score
      L1  H     5    47       P1  8028  1.98
      P1  H  6896  6907       L1    18  0.77
      P1  H  7989  7998       L1    10  1.00

> <Gold.PLP.Chemscore.Internal.Correction>
0.2276

> <Gold.Rescore>
     Score         DG    S(hbond)    S(metal)    S(lipo)     H(rot)  DE(clash)    DE(int)     intcor
     18.42     -20.42       2.78        0.00     104.91       2.59       0.07       1.93       ----

> <Gold.Chemscore.Fitness>
18.4226

> <Gold.Chemscore.DG>
-20.4208

> <Gold.Chemscore.ZeroCoef>
-5.4800

> <Gold.Chemscore.Hbond>
2.7849

> <Gold.Chemscore.Metal>
0.0000

> <Gold.Chemscore.Lipo>
104.9096

> <Gold.Chemscore.Internal_Hbond>
0.0000

> <Gold.Chemscore.DEClash>
0.0696

> <Gold.Chemscore.DEInternal>
1.9286

> <Gold.Chemscore.Rot>
2.5918

> <Gold.Chemscore.Internal.Correction>
   9.000000E+99

> <Gold.Chemscore.Hbonds>
donor molecule, donor type, donor heavy atom, donor atom, acceptor molecule, acceptor atom, score
      L1  H     5    47       P1  8028  0.93
      P1  H  6896  6907       L1    18  0.60
      P1  H  7989  7998       L1    10  0.86

> <Gold.Chemscore.Hbond.Weighted>
-9.3015

> <Gold.Chemscore.Metal.Weighted>
-0.0000

> <Gold.Chemscore.Lipo.Weighted>
-12.2744

> <Gold.Chemscore.Internal_Hbond.Weighted>
0.0000

> <Gold.Chemscore.DEClash.Weighted>
0.0696

> <Gold.Chemscore.DEInternal.Weighted>
1.9286

> <Gold.Chemscore.Rot.Weighted>
6.6351

> <Gold.Chemscore.Internal.Correction.Weighted>
   9.000000E+99

> <Gold.Protein.RotatedTorsions>
[ 6907 6896 6895 6894 ] final -158.61 input  -60.11 | X-H torsion
[ 7974 7965 7964 7962 ] final  -64.95 input  175.53 | X-H torsion
[ 8008 7997 7996 7995 ] final   79.15 input   59.86 | X-H torsion
[ 10167 10162 10161 10158 ] final  175.43 input  -65.29 | X-H torsion
[ 10718 10713 10712 10709 ] final   77.49 input   66.30 | X-H torsion
[ 10763 10752 10751 10750 ] final  -48.70 input  -60.55 | X-H torsion
[ 11005 11000 10999 10996 ] final  -61.55 input  -57.11 | X-H torsion

> <Gold.Protein.ActiveResidues>
 VAL166  LYS551  ARG553  GLY616  TRP617  ASP618  TYR619  PRO620  LYS621  CYS622 
 ASP623  PHE694  ASN695  SER759  ASP760  ASP761  ALA762  ILE779  LEU786  VAL792 
 PHE793  MET794  SER795  GLU796  ALA797  LYS798  CYS799  TRP800  GLU811  SER814 

> <Gold.Protein.RotatedAtoms>
  151.3208  133.4040  159.2654 H   0  0  0  0  0  0  0  0  0  0  0  0  # atno 6907 bound_to 6896
  151.0036  134.9342  159.7978 H   0  0  0  0  0  0  0  0  0  0  0  0  # atno 6908 bound_to 6896
  152.5282  134.3173  159.9188 H   0  0  0  0  0  0  0  0  0  0  0  0  # atno 6909 bound_to 6896
  145.7603  140.8864  143.0433 H   0  0  0  0  0  0  0  0  0  0  0  0  # atno 7974 bound_to 7965
  155.8657  140.3451  155.5786 H   0  0  0  0  0  0  0  0  0  0  0  0  # atno 8008 bound_to 7997
  155.7884  140.0868  157.2041 H   0  0  0  0  0  0  0  0  0  0  0  0  # atno 8009 bound_to 7997
  154.4014  140.1488  156.3121 H   0  0  0  0  0  0  0  0  0  0  0  0  # atno 8010 bound_to 7997
  139.5177  144.3032  152.0360 H   0  0  0  0  0  0  0  0  0  0  0  0  # atno 10167 bound_to 10162
  157.6712  130.9824  150.1649 H   0  0  0  0  0  0  0  0  0  0  0  0  # atno 10718 bound_to 10713
  154.0820  135.6590  153.4839 H   0  0  0  0  0  0  0  0  0  0  0  0  # atno 10763 bound_to 10752
  153.0352  135.5182  154.7464 H   0  0  0  0  0  0  0  0  0  0  0  0  # atno 10764 bound_to 10752
  154.6562  135.3008  154.9892 H   0  0  0  0  0  0  0  0  0  0  0  0  # atno 10765 bound_to 10752
  141.1328  133.6631  156.5392 H   0  0  0  0  0  0  0  0  0  0  0  0  # atno 11005 bound_to 11000
  144.6832  139.9714  143.7482 LP  0  0  0  0  0  0  0  0  0  0  0  0  # atno 17320 bound_to 7965
  146.0270  139.3301  143.0778 LP  0  0  0  0  0  0  0  0  0  0  0  0  # atno 17321 bound_to 7965
  140.2479  144.4200  150.6233 LP  0  0  0  0  0  0  0  0  0  0  0  0  # atno 17342 bound_to 10162
  140.6245  143.2180  151.6625 LP  0  0  0  0  0  0  0  0  0  0  0  0  # atno 17343 bound_to 10162
  156.2416  130.3691  149.8330 LP  0  0  0  0  0  0  0  0  0  0  0  0  # atno 17370 bound_to 10713
  156.6129  130.8594  151.3458 LP  0  0  0  0  0  0  0  0  0  0  0  0  # atno 17371 bound_to 10713
  140.4153  134.7235  157.4859 LP  0  0  0  0  0  0  0  0  0  0  0  0  # atno 17394 bound_to 11000
  140.0398  134.6284  155.8996 LP  0  0  0  0  0  0  0  0  0  0  0  0  # atno 17395 bound_to 11000

$$$$
