AV-unprocessed.smi:2784|AV-procd|sdf|10737|dock9
  -GOLD-   2272015173D 1   1.00000     0.00000
 Structure written by MMmdl.
 31 32  0  0  0  0  0  0  0  0  1 V2000
  153.9644  138.9013  159.5019 C   0  0  0  0  0  0  0  0  0  0  0  0
  153.4886  139.9191  158.6364 O   0  0  0  0  0  0  0  0  0  0  0  0
  152.6322  140.8565  159.2748 C   0  0  1  0  0  0  0  0  0  0  0  0
  153.3517  141.6208  160.3944 C   0  0  0  0  0  0  0  0  0  0  0  0
  152.6892  142.9937  160.4043 C   0  0  0  0  0  0  0  0  0  0  0  0
  152.4463  143.2920  158.9259 C   0  0  0  0  0  0  0  0  0  0  0  0
  152.1722  141.9304  158.2620 C   0  0  2  0  0  0  0  0  0  0  0  0
  150.7516  141.8003  157.9467 N   0  0  0  0  0  0  0  0  0  0  0  0
  150.2539  141.3439  156.7878 C   0  0  0  0  0  0  0  0  0  0  0  0
  150.9868  140.9983  155.8556 O   0  0  0  0  0  0  0  0  0  0  0  0
  148.8684  141.3721  156.8131 N   0  0  0  0  0  0  0  0  0  0  0  0
  148.2135  141.1211  155.7214 C   0  0  0  0  0  0  0  0  0  0  0  0
  148.6186  140.8335  154.4205 N   0  0  0  0  0  0  0  0  0  0  0  0
  147.4997  140.6658  153.6537 C   0  0  0  0  0  0  0  0  0  0  0  0
  146.4363  140.8395  154.4329 C   0  0  0  0  0  0  0  0  0  0  0  0
  146.8416  141.1194  155.7036 O   0  0  0  0  0  0  0  0  0  0  0  0
  154.6008  138.2164  158.9417 H   0  0  0  0  0  0  0  0  0  0  0  0
  153.1394  138.3242  159.9214 H   0  0  0  0  0  0  0  0  0  0  0  0
  154.5561  139.3123  160.3204 H   0  0  0  0  0  0  0  0  0  0  0  0
  151.7600  140.3487  159.6924 H   0  0  0  0  0  0  0  0  0  0  0  0
  153.2860  141.1159  161.3583 H   0  0  0  0  0  0  0  0  0  0  0  0
  154.4086  141.7335  160.1485 H   0  0  0  0  0  0  0  0  0  0  0  0
  151.7361  142.9396  160.9320 H   0  0  0  0  0  0  0  0  0  0  0  0
  153.3008  143.7531  160.8918 H   0  0  0  0  0  0  0  0  0  0  0  0
  151.6457  144.0178  158.7780 H   0  0  0  0  0  0  0  0  0  0  0  0
  153.3514  143.7234  158.4964 H   0  0  0  0  0  0  0  0  0  0  0  0
  152.7524  141.8699  157.3389 H   0  0  0  0  0  0  0  0  0  0  0  0
  150.0978  142.0776  158.6644 H   0  0  0  0  0  0  0  0  0  0  0  0
  149.5598  140.7560  154.0617 H   0  0  0  0  0  0  0  0  0  0  0  0
  147.5868  140.4341  152.6024 H   0  0  0  0  0  0  0  0  0  0  0  0
  145.3738  140.8004  154.2430 H   0  0  0  0  0  0  0  0  0  0  0  0
  1  2  1  0  0  0  0
  1 17  1  0  0  0  0
  1 18  1  0  0  0  0
  1 19  1  0  0  0  0
  2  3  1  0  0  0  0
  3  7  1  0  0  0  0
  3  4  1  0  0  0  0
  3 20  1  0  0  0  0
  4  5  1  0  0  0  0
  4 21  1  0  0  0  0
  4 22  1  0  0  0  0
  5  6  1  0  0  0  0
  5 23  1  0  0  0  0
  5 24  1  0  0  0  0
  6  7  1  0  0  0  0
  6 25  1  0  0  0  0
  6 26  1  0  0  0  0
  7  8  1  0  0  0  0
  7 27  1  0  0  0  0
  8 28  1  0  0  0  0
  8  9  1  0  0  0  0
  9 11  1  0  0  0  0
  9 10  2  0  0  0  0
 11 12  2  0  0  0  0
 12 16  1  0  0  0  0
 12 13  1  0  0  0  0
 13 29  1  0  0  0  0
 13 14  1  0  0  0  0
 14 30  1  0  0  0  0
 14 15  2  0  0  0  0
 15 31  1  0  0  0  0
 15 16  1  0  0  0  0
M  END
> <s_m_source_file>
AV-unprocessed.smi

> <i_m_source_file_index>
2784

> <i_lp_mmshare_version>
43012

> <i_f3d_flags>
0

> <s_epik_input>
W0NIM11PW0NAQEhdMVtDSDJdW0NIMl1bQ0gyXVtDQEhdMVtOSF1DKD1PKVtOSF1jMm5bY0hdW2NIXW8y

> <s_epik_cmdline>
J2VwaWtfcHl0aG9uJywgJy1waCcsICc3LjAnLCAnLXRuJywgJzgnLCAnLW1hJywgJzIwMCcsICctbWV0YWxfYmluZGluZycsICctaW1hZScsICc8aW5maWxlLm1hZT4nLCAnLW9tYWUnLCAnPG91dGZpbGUubWFlPic=

> <r_lp_tautomer_probability>
0.107061

> <r_epik_Ionization_Penalty>
1.29244

> <r_epik_Ionization_Penalty_Charging>
1.29208

> <r_epik_Ionization_Penalty_Neutral>
0.000359742

> <r_epik_State_Penalty>
2.59896

> <r_epik_Charging_Adjusted_Penalty>
3.89105

> <i_epik_Tot_Q>
0

> <i_epik_Tot_abs_Q>
0

> <r_epik_Metal_State_Penalty>
3.62496

> <b_epik_Metal_Only>
0

> <s_lp_Force_Field>
OPLS_2005

> <r_lp_Energy>
42.837

> <b_lp_Chiralities_Consistent>
1

> <s_lp_Variant>
AV-unprocessed.smi:2784-12

> <Gold.Version>
5.8.1

> <Gold.Id.Protein>
6NUR|6NUR_protein|mol2

> <Gold.PLP.Fitness>
36.2943

> <Gold.PLP.PLP>
-27.4473

> <Gold.PLP.part.hbond>
-1.7335

> <Gold.PLP.part.metal>
0.0000

> <Gold.PLP.part.buried>
-3.9895

> <Gold.PLP.part.nonpolar>
-21.6115

> <Gold.PLP.part.repulsive>
0.5044

> <Gold.PLP.ligand.clash>
0.0000

> <Gold.PLP.ligand.torsion>
0.1746

> <Gold.PLP.Chemscore.Hbond>
1.0637

> <Gold.PLP.Chemscore.CHOScore>
2.0000

> <Gold.PLP.Chemscore.Metal>
0.0000

> <Gold.Chemscore.Hbonds>
donor molecule, donor type, donor heavy atom, donor atom, acceptor molecule, acceptor atom, score
      P1  H  7997  8010       L1     2  1.00
      L1  C    14    30       P1  7957  1.00
      L1  C    15    31       P1 10175  1.00

> <Gold.PLP.Chemscore.Internal.Correction>
0.0052

> <Gold.Rescore>
     Score         DG    S(hbond)    S(metal)    S(lipo)     H(rot)  DE(clash)    DE(int)     intcor
     13.86     -14.08       1.24        0.00      67.03       1.32       0.04       0.18       ----

> <Gold.Chemscore.Fitness>
13.8562

> <Gold.Chemscore.DG>
-14.0800

> <Gold.Chemscore.ZeroCoef>
-5.4800

> <Gold.Chemscore.Hbond>
1.2413

> <Gold.Chemscore.Metal>
0.0000

> <Gold.Chemscore.Lipo>
67.0269

> <Gold.Chemscore.Internal_Hbond>
0.0000

> <Gold.Chemscore.DEClash>
0.0408

> <Gold.Chemscore.DEInternal>
0.1830

> <Gold.Chemscore.Rot>
1.3235

> <Gold.Chemscore.Internal.Correction>
   9.000000E+99

> <Gold.Chemscore.Hbonds>
donor molecule, donor type, donor heavy atom, donor atom, acceptor molecule, acceptor atom, score
      P1  H  7989  7998       L1    10  0.04
      P1  H  7997  8010       L1     2  0.64

> <Gold.Chemscore.Hbond.Weighted>
-4.1460

> <Gold.Chemscore.Metal.Weighted>
-0.0000

> <Gold.Chemscore.Lipo.Weighted>
-7.8422

> <Gold.Chemscore.Internal_Hbond.Weighted>
0.0000

> <Gold.Chemscore.DEClash.Weighted>
0.0408

> <Gold.Chemscore.DEInternal.Weighted>
0.1830

> <Gold.Chemscore.Rot.Weighted>
3.3882

> <Gold.Chemscore.Internal.Correction.Weighted>
   9.000000E+99

> <Gold.Protein.RotatedTorsions>
[ 6907 6896 6895 6894 ] final  -50.62 input  -60.11 | X-H torsion
[ 7974 7965 7964 7962 ] final -150.70 input  175.53 | X-H torsion
[ 8008 7997 7996 7995 ] final   26.55 input   59.86 | X-H torsion
[ 10167 10162 10161 10158 ] final   37.00 input  -65.29 | X-H torsion
[ 10718 10713 10712 10709 ] final  163.91 input   66.30 | X-H torsion
[ 10763 10752 10751 10750 ] final   41.67 input  -60.55 | X-H torsion
[ 11005 11000 10999 10996 ] final   73.05 input  -57.11 | X-H torsion

> <Gold.Protein.ActiveResidues>
 VAL166  LYS551  ARG553  GLY616  TRP617  ASP618  TYR619  PRO620  LYS621  CYS622 
 ASP623  PHE694  ASN695  SER759  ASP760  ASP761  ALA762  ILE779  LEU786  VAL792 
 PHE793  MET794  SER795  GLU796  ALA797  LYS798  CYS799  TRP800  GLU811  SER814 

> <Gold.Protein.RotatedAtoms>
  150.8690  134.8059  159.7139 H   0  0  0  0  0  0  0  0  0  0  0  0  # atno 6907 bound_to 6896
  152.4701  134.4978  159.9725 H   0  0  0  0  0  0  0  0  0  0  0  0  # atno 6908 bound_to 6896
  151.5069  133.3454  159.2914 H   0  0  0  0  0  0  0  0  0  0  0  0  # atno 6909 bound_to 6896
  144.7892  140.4896  143.5784 H   0  0  0  0  0  0  0  0  0  0  0  0  # atno 7974 bound_to 7965
  155.0291  140.3156  155.4765 H   0  0  0  0  0  0  0  0  0  0  0  0  # atno 8008 bound_to 7997
  156.2877  140.2183  156.5354 H   0  0  0  0  0  0  0  0  0  0  0  0  # atno 8009 bound_to 7997
  154.7386  140.0475  157.0778 H   0  0  0  0  0  0  0  0  0  0  0  0  # atno 8010 bound_to 7997
  140.4074  144.1640  150.6137 H   0  0  0  0  0  0  0  0  0  0  0  0  # atno 10167 bound_to 10162
  157.1018  131.0445  151.2494 H   0  0  0  0  0  0  0  0  0  0  0  0  # atno 10718 bound_to 10713
  152.9902  135.6155  154.2825 H   0  0  0  0  0  0  0  0  0  0  0  0  # atno 10763 bound_to 10752
  154.2554  135.2784  155.2801 H   0  0  0  0  0  0  0  0  0  0  0  0  # atno 10764 bound_to 10752
  154.5252  135.5803  153.6771 H   0  0  0  0  0  0  0  0  0  0  0  0  # atno 10765 bound_to 10752
  139.9459  134.7313  156.0980 H   0  0  0  0  0  0  0  0  0  0  0  0  # atno 11005 bound_to 11000
  145.5839  139.1491  143.3220 LP  0  0  0  0  0  0  0  0  0  0  0  0  # atno 17320 bound_to 7965
  146.2137  140.5968  142.9048 LP  0  0  0  0  0  0  0  0  0  0  0  0  # atno 17321 bound_to 7965
  140.4675  143.2425  151.9135 LP  0  0  0  0  0  0  0  0  0  0  0  0  # atno 17342 bound_to 10162
  139.4783  144.5404  151.8536 LP  0  0  0  0  0  0  0  0  0  0  0  0  # atno 17343 bound_to 10162
  157.4634  130.7666  149.7257 LP  0  0  0  0  0  0  0  0  0  0  0  0  # atno 17370 bound_to 10713
  155.9872  130.3969  150.3178 LP  0  0  0  0  0  0  0  0  0  0  0  0  # atno 17371 bound_to 10713
  141.1110  133.6643  156.2978 LP  0  0  0  0  0  0  0  0  0  0  0  0  # atno 17394 bound_to 11000
  140.5835  134.5722  157.5484 LP  0  0  0  0  0  0  0  0  0  0  0  0  # atno 17395 bound_to 11000

$$$$
