AV-unprocessed.smi:1738|AV-procd|sdf|7001|dock3
  -GOLD-   22720 8213D 1   1.00000     0.00000
 Structure written by MMmdl.
 46 48  0  0  0  0  0  0  0  0  2 V2000
  154.7239  136.7423  157.9019 C   0  0  0  0  0  0  0  0  0  0  0  0
  153.1365  137.5385  158.3809 S   0  0  0  0  0  0  0  0  0  0  0  0
  152.7158  136.9662  159.6694 O   0  0  0  0  0  0  0  0  0  0  0  0
  153.2929  138.9954  158.2496 O   0  0  0  0  0  0  0  0  0  0  0  0
  151.9889  136.9924  157.1213 C   0  0  0  0  0  0  0  0  0  0  0  0
  151.8233  137.7347  155.9350 C   0  0  0  0  0  0  0  0  0  0  0  0
  150.8751  137.2852  154.9963 C   0  0  0  0  0  0  0  0  0  0  0  0
  150.1208  136.1206  155.2868 C   0  0  0  0  0  0  0  0  0  0  0  0
  149.1325  135.5538  154.4345 N   0  0  0  0  0  0  0  0  0  0  0  0
  148.2743  134.5465  154.6711 C   0  0  0  0  0  0  0  0  0  0  0  0
  148.1624  133.9308  155.7299 O   0  0  0  0  0  0  0  0  0  0  0  0
  147.5293  134.2842  153.5873 N   0  0  0  0  0  0  0  0  0  0  0  0
  146.5166  133.2336  153.4951 C   0  0  2  0  0  0  0  0  0  0  0  0
  147.1173  131.8314  153.2807 C   0  0  0  0  0  0  0  0  0  0  0  0
  146.1667  131.1540  152.2882 C   0  0  0  0  0  0  0  0  0  0  0  0
  145.7275  132.2712  151.4441 N   0  3  1  0  0  0  0  0  0  0  0  0
  144.6074  132.0554  150.5063 C   0  0  0  0  0  0  0  0  0  0  0  0
  144.4775  133.3060  149.6096 C   0  0  0  0  0  0  0  0  0  0  0  0
  144.3857  134.6121  150.4320 C   0  0  0  0  0  0  0  0  0  0  0  0
  145.5092  134.7098  151.4873 C   0  0  0  0  0  0  0  0  0  0  0  0
  145.5117  133.4248  152.3343 C   0  0  2  0  0  0  0  0  0  0  0  0
  150.3714  135.4647  156.5116 C   0  0  0  0  0  0  0  0  0  0  0  0
  151.2763  135.8861  157.4193 N   0  0  0  0  0  0  0  0  0  0  0  0
  155.4966  137.0127  158.6209 H   0  0  0  0  0  0  0  0  0  0  0  0
  155.0172  137.0832  156.9091 H   0  0  0  0  0  0  0  0  0  0  0  0
  154.5994  135.6598  157.8916 H   0  0  0  0  0  0  0  0  0  0  0  0
  152.4051  138.6238  155.7427 H   0  0  0  0  0  0  0  0  0  0  0  0
  150.7560  137.8445  154.0828 H   0  0  0  0  0  0  0  0  0  0  0  0
  149.1032  135.9428  153.5034 H   0  0  0  0  0  0  0  0  0  0  0  0
  147.6853  134.8413  152.7600 H   0  0  0  0  0  0  0  0  0  0  0  0
  145.9525  133.2068  154.4298 H   0  0  0  0  0  0  0  0  0  0  0  0
  148.1092  131.9081  152.8322 H   0  0  0  0  0  0  0  0  0  0  0  0
  147.2192  131.2705  154.2103 H   0  0  0  0  0  0  0  0  0  0  0  0
  146.6524  130.3682  151.7086 H   0  0  0  0  0  0  0  0  0  0  0  0
  145.3092  130.7245  152.8087 H   0  0  0  0  0  0  0  0  0  0  0  0
  144.8022  131.1735  149.8954 H   0  0  0  0  0  0  0  0  0  0  0  0
  143.6844  131.8722  151.0581 H   0  0  0  0  0  0  0  0  0  0  0  0
  145.3448  133.3631  148.9506 H   0  0  0  0  0  0  0  0  0  0  0  0
  143.6071  133.2119  148.9598 H   0  0  0  0  0  0  0  0  0  0  0  0
  144.4201  135.4757  149.7674 H   0  0  0  0  0  0  0  0  0  0  0  0
  143.4182  134.6506  150.9340 H   0  0  0  0  0  0  0  0  0  0  0  0
  146.4738  134.8442  150.9958 H   0  0  0  0  0  0  0  0  0  0  0  0
  145.3465  135.5849  152.1169 H   0  0  0  0  0  0  0  0  0  0  0  0
  144.5181  133.3168  152.7750 H   0  0  0  0  0  0  0  0  0  0  0  0
  149.8224  134.5727  156.7764 H   0  0  0  0  0  0  0  0  0  0  0  0
  146.5300  132.5065  150.8778 H   0  0  0  0  0  0  0  0  0  0  0  0
  1  2  1  0  0  0  0
  1 24  1  0  0  0  0
  1 25  1  0  0  0  0
  1 26  1  0  0  0  0
  2  3  2  0  0  0  0
  2  4  2  0  0  0  0
  2  5  1  0  0  0  0
  5 23  1  0  0  0  0
  5  6  2  0  0  0  0
  6  7  1  0  0  0  0
  6 27  1  0  0  0  0
  7  8  2  0  0  0  0
  7 28  1  0  0  0  0
  8  9  1  0  0  0  0
  8 22  1  0  0  0  0
  9 10  1  0  0  0  0
  9 29  1  0  0  0  0
 10 11  2  0  0  0  0
 10 12  1  0  0  0  0
 12 13  1  0  0  0  0
 12 30  1  0  0  0  0
 13 21  1  0  0  0  0
 13 14  1  0  0  0  0
 13 31  1  0  0  0  0
 14 15  1  0  0  0  0
 14 32  1  0  0  0  0
 14 33  1  0  0  0  0
 15 16  1  0  0  0  0
 15 34  1  0  0  0  0
 15 35  1  0  0  0  0
 16 21  1  0  0  0  0
 16 17  1  0  0  0  0
 16 46  1  0  0  0  0
 17 18  1  0  0  0  0
 17 36  1  0  0  0  0
 17 37  1  0  0  0  0
 18 19  1  0  0  0  0
 18 38  1  0  0  0  0
 18 39  1  0  0  0  0
 19 20  1  0  0  0  0
 19 40  1  0  0  0  0
 19 41  1  0  0  0  0
 20 21  1  0  0  0  0
 20 42  1  0  0  0  0
 20 43  1  0  0  0  0
 21 44  1  0  0  0  0
 22 23  2  0  0  0  0
 22 45  1  0  0  0  0
M  CHG  1  16   1
M  END
> <s_m_source_file>
AV-unprocessed.smi

> <i_m_source_file_index>
1738

> <i_lp_mmshare_version>
43012

> <i_f3d_flags>
0

> <s_epik_input>
W0NIM11TKD1PKSg9TyljMVtjSF1bY0hdYyhbY0hdbjEpW05IXUMoPU8pW05IXVtDQEhdKFtDSDJdW0NIMl0yKVtDQEBIXShOMjMpW0NIMl1bQ0gyXVtDSDJdW0NIMl0z

> <s_epik_cmdline>
J2VwaWtfcHl0aG9uJywgJy1waCcsICc3LjAnLCAnLXRuJywgJzgnLCAnLW1hJywgJzIwMCcsICctbWV0YWxfYmluZGluZycsICctaW1hZScsICc8aW5maWxlLm1hZT4nLCAnLW9tYWUnLCAnPG91dGZpbGUubWFlPic=

> <r_epik_Ionization_Penalty>
0.00100042

> <r_epik_Ionization_Penalty_Charging>
0.000974069

> <r_epik_Ionization_Penalty_Neutral>
2.63543e-05

> <r_epik_State_Penalty>
0.000633842

> <r_epik_Charging_Adjusted_Penalty>
0.00160791

> <i_epik_Tot_Q>
1

> <i_epik_Tot_abs_Q>
1

> <r_epik_Metal_State_Penalty>
-0

> <b_epik_Metal_Only>
0

> <s_lp_Force_Field>
OPLS_2005

> <r_lp_Energy>
43.1351

> <b_lp_Chiralities_Consistent>
1

> <s_lp_Variant>
AV-unprocessed.smi:1738-5

> <Gold.Version>
5.8.1

> <Gold.Id.Protein>
6NUR|6NUR_protein|mol2

> <Gold.PLP.Fitness>
42.1328

> <Gold.PLP.PLP>
-30.8838

> <Gold.PLP.part.hbond>
-4.9636

> <Gold.PLP.part.metal>
0.0000

> <Gold.PLP.part.buried>
-4.7716

> <Gold.PLP.part.nonpolar>
-21.7640

> <Gold.PLP.part.repulsive>
0.0531

> <Gold.PLP.ligand.clash>
0.0000

> <Gold.PLP.ligand.torsion>
1.2774

> <Gold.PLP.Chemscore.Hbond>
3.9280

> <Gold.PLP.Chemscore.CHOScore>
0.0000

> <Gold.PLP.Chemscore.Metal>
0.0000

> <Gold.Chemscore.Hbonds>
donor molecule, donor type, donor heavy atom, donor atom, acceptor molecule, acceptor atom, score
      L1  H     9    29       P1  7948  1.00
      L1  H    12    30       P1  7948  0.84
      P1  H  6896  6909       L1     3  0.89
      P1  H  7997  8009       L1     4  0.89

> <Gold.PLP.Chemscore.Internal.Correction>
2.0199

> <Gold.Rescore>
     Score         DG    S(hbond)    S(metal)    S(lipo)     H(rot)  DE(clash)    DE(int)     intcor
     20.15     -22.82       3.65        0.00      66.01       1.00       0.03       2.64       ----

> <Gold.Chemscore.Fitness>
20.1529

> <Gold.Chemscore.DG>
-22.8227

> <Gold.Chemscore.ZeroCoef>
-5.4800

> <Gold.Chemscore.Hbond>
3.6467

> <Gold.Chemscore.Metal>
0.0000

> <Gold.Chemscore.Lipo>
66.0079

> <Gold.Chemscore.Internal_Hbond>
0.0000

> <Gold.Chemscore.DEClash>
0.0270

> <Gold.Chemscore.DEInternal>
2.6429

> <Gold.Chemscore.Rot>
1.0000

> <Gold.Chemscore.Internal.Correction>
   9.000000E+99

> <Gold.Chemscore.Hbonds>
donor molecule, donor type, donor heavy atom, donor atom, acceptor molecule, acceptor atom, score
      L1  H     9    29       P1  7948  0.88
      L1  H    12    30       P1  7948  0.76
      P1  H  6896  6909       L1     3  0.87
      P1  H  7997  8009       L1     4  0.87

> <Gold.Chemscore.Hbond.Weighted>
-12.1798

> <Gold.Chemscore.Metal.Weighted>
-0.0000

> <Gold.Chemscore.Lipo.Weighted>
-7.7229

> <Gold.Chemscore.Internal_Hbond.Weighted>
0.0000

> <Gold.Chemscore.DEClash.Weighted>
0.0270

> <Gold.Chemscore.DEInternal.Weighted>
2.6429

> <Gold.Chemscore.Rot.Weighted>
2.5600

> <Gold.Chemscore.Internal.Correction.Weighted>
   9.000000E+99

> <Gold.Protein.RotatedTorsions>
[ 6907 6896 6895 6894 ] final  149.64 input  -60.11 | X-H torsion
[ 7974 7965 7964 7962 ] final   67.19 input  175.53 | X-H torsion
[ 8008 7997 7996 7995 ] final  144.14 input   59.86 | X-H torsion
[ 10167 10162 10161 10158 ] final   19.57 input  -65.29 | X-H torsion
[ 10718 10713 10712 10709 ] final   19.69 input   66.30 | X-H torsion
[ 10763 10752 10751 10750 ] final   30.77 input  -60.55 | X-H torsion
[ 11005 11000 10999 10996 ] final  -85.41 input  -57.11 | X-H torsion

> <Gold.Protein.ActiveResidues>
 VAL166  LYS551  ARG553  GLY616  TRP617  ASP618  TYR619  PRO620  LYS621  CYS622 
 ASP623  PHE694  ASN695  SER759  ASP760  ASP761  ALA762  ILE779  LEU786  VAL792 
 PHE793  MET794  SER795  GLU796  ALA797  LYS798  CYS799  TRP800  GLU811  SER814 

> <Gold.Protein.RotatedAtoms>
  152.1252  133.4376  159.4694 H   0  0  0  0  0  0  0  0  0  0  0  0  # atno 6907 bound_to 6896
  150.6874  134.2487  159.4511 H   0  0  0  0  0  0  0  0  0  0  0  0  # atno 6908 bound_to 6896
  152.0366  134.9736  160.0624 H   0  0  0  0  0  0  0  0  0  0  0  0  # atno 6909 bound_to 6896
  145.8176  139.3067  143.1062 H   0  0  0  0  0  0  0  0  0  0  0  0  # atno 7974 bound_to 7965
  156.2915  140.2244  156.5005 H   0  0  0  0  0  0  0  0  0  0  0  0  # atno 8008 bound_to 7997
  154.7694  140.0467  157.1060 H   0  0  0  0  0  0  0  0  0  0  0  0  # atno 8009 bound_to 7997
  154.9892  140.3088  155.4916 H   0  0  0  0  0  0  0  0  0  0  0  0  # atno 8010 bound_to 7997
  140.5569  143.9409  150.6615 H   0  0  0  0  0  0  0  0  0  0  0  0  # atno 10167 bound_to 10162
  157.1140  130.6521  149.5905 H   0  0  0  0  0  0  0  0  0  0  0  0  # atno 10718 bound_to 10713
  153.0353  135.6456  154.1095 H   0  0  0  0  0  0  0  0  0  0  0  0  # atno 10763 bound_to 10752
  154.0811  135.2873  155.3292 H   0  0  0  0  0  0  0  0  0  0  0  0  # atno 10764 bound_to 10752
  154.6529  135.5419  153.7988 H   0  0  0  0  0  0  0  0  0  0  0  0  # atno 10765 bound_to 10752
  141.1641  133.7398  156.9010 H   0  0  0  0  0  0  0  0  0  0  0  0  # atno 11005 bound_to 11000
  145.9710  140.8760  143.0163 LP  0  0  0  0  0  0  0  0  0  0  0  0  # atno 17320 bound_to 7965
  144.6751  140.1945  143.7393 LP  0  0  0  0  0  0  0  0  0  0  0  0  # atno 17321 bound_to 7965
  140.2849  143.3364  152.1117 LP  0  0  0  0  0  0  0  0  0  0  0  0  # atno 17342 bound_to 10162
  139.5052  144.6790  151.6056 LP  0  0  0  0  0  0  0  0  0  0  0  0  # atno 17343 bound_to 10162
  155.9844  130.4868  150.6980 LP  0  0  0  0  0  0  0  0  0  0  0  0  # atno 17370 bound_to 10713
  157.4535  131.0875  151.0821 LP  0  0  0  0  0  0  0  0  0  0  0  0  # atno 17371 bound_to 10713
  140.1582  134.9183  157.2681 LP  0  0  0  0  0  0  0  0  0  0  0  0  # atno 17394 bound_to 11000
  140.2642  134.3536  155.7396 LP  0  0  0  0  0  0  0  0  0  0  0  0  # atno 17395 bound_to 11000

$$$$
