AV-unprocessed.smi:1019|AV-procd|sdf|4450|dock8
  -GOLD-   22720 2413D 1   1.00000     0.00000
 Structure written by MMmdl.
 45 47  0  0  0  0  0  0  0  0  3 V2000
  147.9436  137.8122  154.6439 C   0  0  0  0  0  0  0  0  0  0  0  0
  149.0726  136.8544  154.7171 N   0  3  2  0  0  0  0  0  0  0  0  0
  148.8156  135.7363  155.6618 C   0  0  0  0  0  0  0  0  0  0  0  0
  148.9461  134.3808  154.9900 C   0  0  0  0  0  0  0  0  0  0  0  0
  148.0773  134.0181  153.9384 C   0  0  0  0  0  0  0  0  0  0  0  0
  148.2066  132.7616  153.3156 C   0  0  0  0  0  0  0  0  0  0  0  0
  149.2025  131.8623  153.7429 C   0  0  0  0  0  0  0  0  0  0  0  0
  150.0688  132.2193  154.7941 C   0  0  0  0  0  0  0  0  0  0  0  0
  149.9405  133.4758  155.4175 C   0  0  0  0  0  0  0  0  0  0  0  0
  150.3657  137.5424  154.9669 C   0  0  0  0  0  0  0  0  0  0  0  0
  150.2691  138.5960  156.0889 C   0  0  1  0  0  0  0  0  0  0  0  0
  150.0183  137.9362  157.3152 O   0  0  0  0  0  0  0  0  0  0  0  0
  151.5683  139.4171  156.2108 C   0  0  0  0  0  0  0  0  0  0  0  0
  151.3297  140.8227  156.5654 N   0  0  0  0  0  0  0  0  0  0  0  0
  150.5993  141.7756  155.9238 C   0  0  0  0  0  0  0  0  0  0  0  0
  150.6840  142.9211  156.6557 N   0  3  0  0  0  0  0  0  0  0  0  0
  151.4782  142.6974  157.7822 C   0  0  0  0  0  0  0  0  0  0  0  0
  151.8528  143.5486  158.8171 C   0  0  0  0  0  0  0  0  0  0  0  0
  152.6761  142.9988  159.8218 C   0  0  0  0  0  0  0  0  0  0  0  0
  153.0957  141.6533  159.7733 C   0  0  0  0  0  0  0  0  0  0  0  0
  152.7109  140.7992  158.7186 C   0  0  0  0  0  0  0  0  0  0  0  0
  151.8962  141.3506  157.7304 C   0  0  0  0  0  0  0  0  0  0  0  0
  147.7943  138.3129  155.6013 H   0  0  0  0  0  0  0  0  0  0  0  0
  147.0141  137.3138  154.3702 H   0  0  0  0  0  0  0  0  0  0  0  0
  148.1321  138.5737  153.8864 H   0  0  0  0  0  0  0  0  0  0  0  0
  149.5254  135.7605  156.4882 H   0  0  0  0  0  0  0  0  0  0  0  0
  147.8259  135.8454  156.1086 H   0  0  0  0  0  0  0  0  0  0  0  0
  147.3121  134.7028  153.6030 H   0  0  0  0  0  0  0  0  0  0  0  0
  147.5418  132.4873  152.5096 H   0  0  0  0  0  0  0  0  0  0  0  0
  149.3011  130.8988  153.2648 H   0  0  0  0  0  0  0  0  0  0  0  0
  150.8318  131.5286  155.1224 H   0  0  0  0  0  0  0  0  0  0  0  0
  150.6090  133.7435  156.2230 H   0  0  0  0  0  0  0  0  0  0  0  0
  151.1278  136.8131  155.2468 H   0  0  0  0  0  0  0  0  0  0  0  0
  150.7131  137.9988  154.0386 H   0  0  0  0  0  0  0  0  0  0  0  0
  149.4402  139.2774  155.9007 H   0  0  0  0  0  0  0  0  0  0  0  0
  150.5458  138.3368  157.9897 H   0  0  0  0  0  0  0  0  0  0  0  0
  152.2147  138.9928  156.9805 H   0  0  0  0  0  0  0  0  0  0  0  0
  152.1375  139.3886  155.2807 H   0  0  0  0  0  0  0  0  0  0  0  0
  150.0518  141.6477  155.0011 H   0  0  0  0  0  0  0  0  0  0  0  0
  151.5322  144.5795  158.8575 H   0  0  0  0  0  0  0  0  0  0  0  0
  152.9911  143.6214  160.6468 H   0  0  0  0  0  0  0  0  0  0  0  0
  153.7254  141.2682  160.5625 H   0  0  0  0  0  0  0  0  0  0  0  0
  153.0371  139.7704  158.6911 H   0  0  0  0  0  0  0  0  0  0  0  0
  149.1523  136.4441  153.7971 H   0  0  0  0  0  0  0  0  0  0  0  0
  150.2302  143.7899  156.4034 H   0  0  0  0  0  0  0  0  0  0  0  0
  1  2  1  0  0  0  0
  1 23  1  0  0  0  0
  1 24  1  0  0  0  0
  1 25  1  0  0  0  0
  2  3  1  0  0  0  0
  2 10  1  0  0  0  0
  2 44  1  0  0  0  0
  3  4  1  0  0  0  0
  3 26  1  0  0  0  0
  3 27  1  0  0  0  0
  4  9  1  0  0  0  0
  4  5  2  0  0  0  0
  5  6  1  0  0  0  0
  5 28  1  0  0  0  0
  6  7  2  0  0  0  0
  6 29  1  0  0  0  0
  7  8  1  0  0  0  0
  7 30  1  0  0  0  0
  8  9  2  0  0  0  0
  8 31  1  0  0  0  0
  9 32  1  0  0  0  0
 10 11  1  0  0  0  0
 10 33  1  0  0  0  0
 10 34  1  0  0  0  0
 11 12  1  0  0  0  0
 11 13  1  0  0  0  0
 11 35  1  0  0  0  0
 12 36  1  0  0  0  0
 13 14  1  0  0  0  0
 13 37  1  0  0  0  0
 13 38  1  0  0  0  0
 14 22  1  0  0  0  0
 14 15  1  0  0  0  0
 15 16  2  0  0  0  0
 15 39  1  0  0  0  0
 16 17  1  0  0  0  0
 16 45  1  0  0  0  0
 17 22  2  0  0  0  0
 17 18  1  0  0  0  0
 18 19  2  0  0  0  0
 18 40  1  0  0  0  0
 19 20  1  0  0  0  0
 19 41  1  0  0  0  0
 20 21  2  0  0  0  0
 20 42  1  0  0  0  0
 21 22  1  0  0  0  0
 21 43  1  0  0  0  0
M  CHG  1   2   1
M  CHG  1  16   1
M  END
> <s_m_source_file>
AV-unprocessed.smi

> <i_m_source_file_index>
1019

> <i_lp_mmshare_version>
43012

> <i_f3d_flags>
0

> <s_epik_input>
W2NIXTFbY0hdW2NIXVtjSF1bY0hdYzFbQ0gyXU4oW0NIM10pW0NIMl1bQ0BIXShbT0hdKVtDSDJdbihbY0hdbjIpYyhjMjMpW2NIXVtjSF1bY0hdW2NIXTM=

> <s_epik_cmdline>
J2VwaWtfcHl0aG9uJywgJy1waCcsICc3LjAnLCAnLXRuJywgJzgnLCAnLW1hJywgJzIwMCcsICctbWV0YWxfYmluZGluZycsICctaW1hZScsICc8aW5maWxlLm1hZT4nLCAnLW9tYWUnLCAnPG91dGZpbGUubWFlPic=

> <r_epik_Ionization_Penalty>
1.5198

> <r_epik_Ionization_Penalty_Charging>
1.5198

> <r_epik_Ionization_Penalty_Neutral>
3.13312e-06

> <r_epik_State_Penalty>
1.624

> <r_epik_Charging_Adjusted_Penalty>
3.1438

> <i_epik_Tot_Q>
2

> <i_epik_Tot_abs_Q>
2

> <r_epik_Metal_State_Penalty>
5.67392

> <b_epik_Metal_Only>
0

> <s_lp_Force_Field>
OPLS_2005

> <r_lp_Energy>
24.6792

> <b_lp_Chiralities_Consistent>
1

> <s_lp_Variant>
AV-unprocessed.smi:1019-8

> <Gold.Version>
5.8.1

> <Gold.Id.Protein>
6NUR|6NUR_protein|mol2

> <Gold.PLP.Fitness>
50.6907

> <Gold.PLP.PLP>
-41.2763

> <Gold.PLP.part.hbond>
-2.0000

> <Gold.PLP.part.metal>
0.0000

> <Gold.PLP.part.buried>
-4.7458

> <Gold.PLP.part.nonpolar>
-33.8697

> <Gold.PLP.part.repulsive>
0.0588

> <Gold.PLP.ligand.clash>
0.0000

> <Gold.PLP.ligand.torsion>
1.3906

> <Gold.PLP.Chemscore.Hbond>
4.0000

> <Gold.PLP.Chemscore.CHOScore>
0.0000

> <Gold.PLP.Chemscore.Metal>
0.0000

> <Gold.Chemscore.Hbonds>
donor molecule, donor type, donor heavy atom, donor atom, acceptor molecule, acceptor atom, score
      L1  H     2    44       P1  7948  2.00
      L1  H    16    45       P1  8028  2.00

> <Gold.PLP.Chemscore.Internal.Correction>
0.1956

> <Gold.Rescore>
     Score         DG    S(hbond)    S(metal)    S(lipo)     H(rot)  DE(clash)    DE(int)     intcor
     16.42     -18.86       1.97        0.00     111.79       2.46       0.02       2.43       ----

> <Gold.Chemscore.Fitness>
16.4167

> <Gold.Chemscore.DG>
-18.8618

> <Gold.Chemscore.ZeroCoef>
-5.4800

> <Gold.Chemscore.Hbond>
1.9723

> <Gold.Chemscore.Metal>
0.0000

> <Gold.Chemscore.Lipo>
111.7928

> <Gold.Chemscore.Internal_Hbond>
0.0000

> <Gold.Chemscore.DEClash>
0.0173

> <Gold.Chemscore.DEInternal>
2.4278

> <Gold.Chemscore.Rot>
2.4552

> <Gold.Chemscore.Internal.Correction>
   9.000000E+99

> <Gold.Chemscore.Hbonds>
donor molecule, donor type, donor heavy atom, donor atom, acceptor molecule, acceptor atom, score
      L1  H     2    44       P1  7948  0.97
      L1  H    16    45       P1  8028  0.97

> <Gold.Chemscore.Hbond.Weighted>
-6.5874

> <Gold.Chemscore.Metal.Weighted>
-0.0000

> <Gold.Chemscore.Lipo.Weighted>
-13.0798

> <Gold.Chemscore.Internal_Hbond.Weighted>
0.0000

> <Gold.Chemscore.DEClash.Weighted>
0.0173

> <Gold.Chemscore.DEInternal.Weighted>
2.4278

> <Gold.Chemscore.Rot.Weighted>
6.2854

> <Gold.Chemscore.Internal.Correction.Weighted>
   9.000000E+99

> <Gold.Protein.RotatedTorsions>
[ 6907 6896 6895 6894 ] final   96.21 input  -60.11 | X-H torsion
[ 7974 7965 7964 7962 ] final   19.77 input  175.53 | X-H torsion
[ 8008 7997 7996 7995 ] final -175.88 input   59.86 | X-H torsion
[ 10167 10162 10161 10158 ] final -141.21 input  -65.29 | X-H torsion
[ 10718 10713 10712 10709 ] final -110.66 input   66.30 | X-H torsion
[ 10763 10752 10751 10750 ] final -145.75 input  -60.55 | X-H torsion
[ 11005 11000 10999 10996 ] final    4.56 input  -57.11 | X-H torsion

> <Gold.Protein.ActiveResidues>
 VAL166  LYS551  ARG553  GLY616  TRP617  ASP618  TYR619  PRO620  LYS621  CYS622 
 ASP623  PHE694  ASN695  SER759  ASP760  ASP761  ALA762  ILE779  LEU786  VAL792 
 PHE793  MET794  SER795  GLU796  ALA797  LYS798  CYS799  TRP800  GLU811  SER814 

> <Gold.Protein.RotatedAtoms>
  152.5437  134.0921  159.8280 H   0  0  0  0  0  0  0  0  0  0  0  0  # atno 6907 bound_to 6896
  151.1009  133.5237  159.2617 H   0  0  0  0  0  0  0  0  0  0  0  0  # atno 6908 bound_to 6896
  151.1992  135.0444  159.8919 H   0  0  0  0  0  0  0  0  0  0  0  0  # atno 6909 bound_to 6896
  146.2137  139.8265  142.8669 H   0  0  0  0  0  0  0  0  0  0  0  0  # atno 7974 bound_to 7965
  155.9880  140.1195  157.0664 H   0  0  0  0  0  0  0  0  0  0  0  0  # atno 8008 bound_to 7997
  154.4203  140.1131  156.5595 H   0  0  0  0  0  0  0  0  0  0  0  0  # atno 8009 bound_to 7997
  155.6381  140.3473  155.4707 H   0  0  0  0  0  0  0  0  0  0  0  0  # atno 8010 bound_to 7997
  139.8206  143.7579  152.2666 H   0  0  0  0  0  0  0  0  0  0  0  0  # atno 10167 bound_to 10162
  156.0603  130.5827  150.8268 H   0  0  0  0  0  0  0  0  0  0  0  0  # atno 10718 bound_to 10713
  154.8369  135.3405  154.6554 H   0  0  0  0  0  0  0  0  0  0  0  0  # atno 10763 bound_to 10752
  153.7168  135.6960  153.5027 H   0  0  0  0  0  0  0  0  0  0  0  0  # atno 10764 bound_to 10752
  153.2411  135.4384  155.0652 H   0  0  0  0  0  0  0  0  0  0  0  0  # atno 10765 bound_to 10752
  140.5806  134.0017  155.8046 H   0  0  0  0  0  0  0  0  0  0  0  0  # atno 11005 bound_to 11000
  145.3042  141.0202  143.3591 LP  0  0  0  0  0  0  0  0  0  0  0  0  # atno 17320 bound_to 7965
  144.8984  139.4682  143.6644 LP  0  0  0  0  0  0  0  0  0  0  0  0  # atno 17321 bound_to 7965
  139.7756  144.7462  151.0162 LP  0  0  0  0  0  0  0  0  0  0  0  0  # atno 17342 bound_to 10162
  140.7813  143.4598  151.0294 LP  0  0  0  0  0  0  0  0  0  0  0  0  # atno 17343 bound_to 10162
  157.5607  131.0946  150.9564 LP  0  0  0  0  0  0  0  0  0  0  0  0  # atno 17370 bound_to 10713
  156.9802  130.5524  149.5296 LP  0  0  0  0  0  0  0  0  0  0  0  0  # atno 17371 bound_to 10713
  141.0999  133.9785  157.3097 LP  0  0  0  0  0  0  0  0  0  0  0  0  # atno 17394 bound_to 11000
  139.9319  135.0199  156.8429 LP  0  0  0  0  0  0  0  0  0  0  0  0  # atno 17395 bound_to 11000

$$$$
