AV-unprocessed.smi:2448|AV-procd|sdf|9656|dock2
  -GOLD-   2272013293D 1   1.00000     0.00000
 Structure written by MMmdl.
 38 39  0  0  0  0  0  0  0  0  2 V2000
  148.6720  138.6962  153.2069 O   0  0  0  0  0  0  0  0  0  0  0  0
  147.3121  138.9875  153.4801 C   0  0  2  0  0  0  0  0  0  0  0  0
  146.4363  138.1107  152.5636 C   0  0  0  0  0  0  0  0  0  0  0  0
  145.0866  137.8975  153.1327 N   0  3  0  0  0  0  0  0  0  0  0  0
  144.5398  136.5292  152.9721 C   0  0  2  0  0  0  0  0  0  0  0  0
  144.5223  136.1113  151.4840 C   0  0  0  0  0  0  0  0  0  0  0  0
  144.9868  134.6857  151.2478 C   0  0  0  0  0  0  0  0  0  0  0  0
  146.3367  134.3255  151.4415 C   0  0  0  0  0  0  0  0  0  0  0  0
  146.7098  132.9825  151.2332 C   0  0  0  0  0  0  0  0  0  0  0  0
  145.8389  132.0215  150.8581 N   0  0  0  0  0  0  0  0  0  0  0  0
  144.5499  132.3749  150.6664 C   0  0  0  0  0  0  0  0  0  0  0  0
  144.0733  133.6887  150.8484 C   0  0  0  0  0  0  0  0  0  0  0  0
  143.1335  136.4558  153.5977 C   0  0  0  0  0  0  0  0  0  0  0  0
  142.6011  135.2560  153.3643 F   0  0  0  0  0  0  0  0  0  0  0  0
  143.1938  136.6507  154.9153 F   0  0  0  0  0  0  0  0  0  0  0  0
  142.3392  137.3793  153.0571 F   0  0  0  0  0  0  0  0  0  0  0  0
  147.0902  140.4881  153.2287 C   0  0  0  0  0  0  0  0  0  0  0  0
  147.7412  141.2594  154.3815 C   0  0  0  0  0  0  0  0  0  0  0  0
  147.5716  140.2534  155.8766 S   0  0  0  0  0  0  0  0  0  0  0  0
  147.0281  138.7767  154.9783 C   0  0  0  0  0  0  0  0  0  0  0  0
  148.7473  137.7818  152.9791 H   0  0  0  0  0  0  0  0  0  0  0  0
  146.3487  138.5817  151.5847 H   0  0  0  0  0  0  0  0  0  0  0  0
  146.9120  137.1420  152.4026 H   0  0  0  0  0  0  0  0  0  0  0  0
  145.1456  138.0952  154.1219 H   0  0  0  0  0  0  0  0  0  0  0  0
  145.1712  135.8302  153.5237 H   0  0  0  0  0  0  0  0  0  0  0  0
  143.5114  136.2016  151.0853 H   0  0  0  0  0  0  0  0  0  0  0  0
  145.1390  136.7919  150.8955 H   0  0  0  0  0  0  0  0  0  0  0  0
  147.0723  135.0548  151.7479 H   0  0  0  0  0  0  0  0  0  0  0  0
  147.7339  132.6714  151.3777 H   0  0  0  0  0  0  0  0  0  0  0  0
  143.8767  131.5867  150.3637 H   0  0  0  0  0  0  0  0  0  0  0  0
  143.0303  133.9201  150.6879 H   0  0  0  0  0  0  0  0  0  0  0  0
  147.4744  140.8099  152.2598 H   0  0  0  0  0  0  0  0  0  0  0  0
  146.0198  140.6996  153.2290 H   0  0  0  0  0  0  0  0  0  0  0  0
  148.8046  141.4006  154.1863 H   0  0  0  0  0  0  0  0  0  0  0  0
  147.2964  142.2450  154.5197 H   0  0  0  0  0  0  0  0  0  0  0  0
  145.9551  138.6807  155.1450 H   0  0  0  0  0  0  0  0  0  0  0  0
  147.5011  137.8788  155.3775 H   0  0  0  0  0  0  0  0  0  0  0  0
  144.4412  138.5541  152.7175 H   0  0  0  0  0  0  0  0  0  0  0  0
  1  2  1  0  0  0  0
  1 21  1  0  0  0  0
  2 20  1  0  0  0  0
  2  3  1  0  0  0  0
  2 17  1  0  0  0  0
  3  4  1  0  0  0  0
  3 22  1  0  0  0  0
  3 23  1  0  0  0  0
  4  5  1  0  0  0  0
  4 24  1  0  0  0  0
  4 38  1  0  0  0  0
  5  6  1  0  0  0  0
  5 13  1  0  0  0  0
  5 25  1  0  0  0  0
  6  7  1  0  0  0  0
  6 26  1  0  0  0  0
  6 27  1  0  0  0  0
  7 12  1  0  0  0  0
  7  8  2  0  0  0  0
  8  9  1  0  0  0  0
  8 28  1  0  0  0  0
  9 10  2  0  0  0  0
  9 29  1  0  0  0  0
 10 11  1  0  0  0  0
 11 12  2  0  0  0  0
 11 30  1  0  0  0  0
 12 31  1  0  0  0  0
 13 14  1  0  0  0  0
 13 15  1  0  0  0  0
 13 16  1  0  0  0  0
 17 18  1  0  0  0  0
 17 32  1  0  0  0  0
 17 33  1  0  0  0  0
 18 19  1  0  0  0  0
 18 34  1  0  0  0  0
 18 35  1  0  0  0  0
 19 20  1  0  0  0  0
 20 36  1  0  0  0  0
 20 37  1  0  0  0  0
M  CHG  1   4   1
M  END
> <s_m_source_file>
AV-unprocessed.smi

> <i_m_source_file_index>
2448

> <i_lp_mmshare_version>
43012

> <i_f3d_flags>
0

> <s_epik_input>
W0NIMl0xU1tDSDJdW0NIMl1bQ0BAXTEoW09IXSlbQ0gyXVtOSF1bQ0BASF0oQyhGKShGKUYpW0NIMl1jMltjSF1bY0hdbltjSF1bY0hdMg==

> <s_epik_cmdline>
J2VwaWtfcHl0aG9uJywgJy1waCcsICc3LjAnLCAnLXRuJywgJzgnLCAnLW1hJywgJzIwMCcsICctbWV0YWxfYmluZGluZycsICctaW1hZScsICc8aW5maWxlLm1hZT4nLCAnLW9tYWUnLCAnPG91dGZpbGUubWFlPic=

> <r_epik_Ionization_Penalty>
1.19945

> <r_epik_Ionization_Penalty_Charging>
1.19892

> <r_epik_Ionization_Penalty_Neutral>
0.000532129

> <r_epik_State_Penalty>
0.752927

> <r_epik_Charging_Adjusted_Penalty>
1.95185

> <i_epik_Tot_Q>
1

> <i_epik_Tot_abs_Q>
1

> <r_epik_Metal_State_Penalty>
0.804507

> <b_epik_Metal_Only>
0

> <s_lp_Force_Field>
OPLS_2005

> <r_lp_Energy>
23.2993

> <b_lp_Chiralities_Consistent>
1

> <s_lp_Variant>
AV-unprocessed.smi:2448-6

> <Gold.Version>
5.8.1

> <Gold.Id.Protein>
6NUR|6NUR_protein|mol2

> <Gold.PLP.Fitness>
44.9696

> <Gold.PLP.PLP>
-35.0741

> <Gold.PLP.part.hbond>
-2.4589

> <Gold.PLP.part.metal>
0.0000

> <Gold.PLP.part.buried>
-2.9894

> <Gold.PLP.part.nonpolar>
-28.8356

> <Gold.PLP.part.repulsive>
0.1118

> <Gold.PLP.ligand.clash>
0.0000

> <Gold.PLP.ligand.torsion>
1.4533

> <Gold.PLP.Chemscore.Hbond>
2.9840

> <Gold.PLP.Chemscore.CHOScore>
1.0000

> <Gold.PLP.Chemscore.Metal>
0.0000

> <Gold.Chemscore.Hbonds>
donor molecule, donor type, donor heavy atom, donor atom, acceptor molecule, acceptor atom, score
      L1  H     1    21       P1  7948  1.00
      L1  H     4    38       P1 10175  1.85
      L1  C     9    29       P1 10747  0.99

> <Gold.PLP.Chemscore.Internal.Correction>
0.8502

> <Gold.Rescore>
     Score         DG    S(hbond)    S(metal)    S(lipo)     H(rot)  DE(clash)    DE(int)     intcor
     12.89     -15.20       1.98        0.00      78.89       2.39       1.20       1.11       ----

> <Gold.Chemscore.Fitness>
12.8939

> <Gold.Chemscore.DG>
-15.2006

> <Gold.Chemscore.ZeroCoef>
-5.4800

> <Gold.Chemscore.Hbond>
1.9762

> <Gold.Chemscore.Metal>
0.0000

> <Gold.Chemscore.Lipo>
78.8879

> <Gold.Chemscore.Internal_Hbond>
0.0000

> <Gold.Chemscore.DEClash>
1.2016

> <Gold.Chemscore.DEInternal>
1.1051

> <Gold.Chemscore.Rot>
2.3866

> <Gold.Chemscore.Internal.Correction>
   9.000000E+99

> <Gold.Chemscore.Hbonds>
donor molecule, donor type, donor heavy atom, donor atom, acceptor molecule, acceptor atom, score
      L1  H     1    21       P1  7948  0.99
      L1  H     4    38       P1 10175  0.86

> <Gold.Chemscore.Hbond.Weighted>
-6.6004

> <Gold.Chemscore.Metal.Weighted>
-0.0000

> <Gold.Chemscore.Lipo.Weighted>
-9.2299

> <Gold.Chemscore.Internal_Hbond.Weighted>
0.0000

> <Gold.Chemscore.DEClash.Weighted>
1.2016

> <Gold.Chemscore.DEInternal.Weighted>
1.1051

> <Gold.Chemscore.Rot.Weighted>
6.1096

> <Gold.Chemscore.Internal.Correction.Weighted>
   9.000000E+99

> <Gold.Protein.RotatedTorsions>
[ 6907 6896 6895 6894 ] final -173.68 input  -60.11 | X-H torsion
[ 7974 7965 7964 7962 ] final  -40.55 input  175.53 | X-H torsion
[ 8008 7997 7996 7995 ] final  -62.73 input   59.86 | X-H torsion
[ 10167 10162 10161 10158 ] final  -72.96 input  -65.29 | X-H torsion
[ 10718 10713 10712 10709 ] final  163.64 input   66.30 | X-H torsion
[ 10763 10752 10751 10750 ] final  -96.12 input  -60.55 | X-H torsion
[ 11005 11000 10999 10996 ] final -142.52 input  -57.11 | X-H torsion

> <Gold.Protein.ActiveResidues>
 VAL166  LYS551  ARG553  GLY616  TRP617  ASP618  TYR619  PRO620  LYS621  CYS622 
 ASP623  PHE694  ASN695  SER759  ASP760  ASP761  ALA762  ILE779  LEU786  VAL792 
 PHE793  MET794  SER795  GLU796  ALA797  LYS798  CYS799  TRP800  GLU811  SER814 

> <Gold.Protein.RotatedAtoms>
  151.5601  133.3404  159.2969 H   0  0  0  0  0  0  0  0  0  0  0  0  # atno 6907 bound_to 6896
  150.8428  134.7729  159.6957 H   0  0  0  0  0  0  0  0  0  0  0  0  # atno 6908 bound_to 6896
  152.4492  134.5437  159.9898 H   0  0  0  0  0  0  0  0  0  0  0  0  # atno 6909 bound_to 6896
  146.0294  140.6751  142.9140 H   0  0  0  0  0  0  0  0  0  0  0  0  # atno 7974 bound_to 7965
  154.4515  140.0990  156.6633 H   0  0  0  0  0  0  0  0  0  0  0  0  # atno 8008 bound_to 7997
  155.5269  140.3480  155.4400 H   0  0  0  0  0  0  0  0  0  0  0  0  # atno 8009 bound_to 7997
  156.0691  140.1345  156.9839 H   0  0  0  0  0  0  0  0  0  0  0  0  # atno 8010 bound_to 7997
  140.5150  143.2339  151.7529 H   0  0  0  0  0  0  0  0  0  0  0  0  # atno 10167 bound_to 10162
  157.1057  131.0454  151.2479 H   0  0  0  0  0  0  0  0  0  0  0  0  # atno 10718 bound_to 10713
  154.7210  135.5095  153.8812 H   0  0  0  0  0  0  0  0  0  0  0  0  # atno 10763 bound_to 10752
  153.0862  135.6646  153.9952 H   0  0  0  0  0  0  0  0  0  0  0  0  # atno 10764 bound_to 10752
  153.9775  135.3032  155.3402 H   0  0  0  0  0  0  0  0  0  0  0  0  # atno 10765 bound_to 10752
  140.8217  134.2623  157.4897 H   0  0  0  0  0  0  0  0  0  0  0  0  # atno 11005 bound_to 11000
  144.7023  140.3708  143.7145 LP  0  0  0  0  0  0  0  0  0  0  0  0  # atno 17320 bound_to 7965
  145.7066  139.1674  143.2563 LP  0  0  0  0  0  0  0  0  0  0  0  0  # atno 17321 bound_to 7965
  139.4906  144.4337  151.9843 LP  0  0  0  0  0  0  0  0  0  0  0  0  # atno 17342 bound_to 10162
  140.3431  144.3179  150.5963 LP  0  0  0  0  0  0  0  0  0  0  0  0  # atno 17343 bound_to 10162
  157.4603  130.7649  149.7230 LP  0  0  0  0  0  0  0  0  0  0  0  0  # atno 17370 bound_to 10713
  155.9863  130.3976  150.3221 LP  0  0  0  0  0  0  0  0  0  0  0  0  # atno 17371 bound_to 10713
  139.8708  134.9539  156.4159 LP  0  0  0  0  0  0  0  0  0  0  0  0  # atno 17394 bound_to 11000
  140.9092  133.7724  155.9771 LP  0  0  0  0  0  0  0  0  0  0  0  0  # atno 17395 bound_to 11000

$$$$
