AV-unprocessed.smi:1225|AV-procd|sdf|5143|dock6
  -GOLD-   22720 4213D 1   1.00000     0.00000
 Structure written by MMmdl.
 49 51  0  0  0  0  0  0  0  0  2 V2000
  146.6983  144.3885  160.9340 C   0  0  0  0  0  0  0  0  0  0  0  0
  146.4494  143.7102  159.6303 C   0  0  0  0  0  0  0  0  0  0  0  0
  145.3090  143.8199  158.9450 N   0  0  0  0  0  0  0  0  0  0  0  0
  145.3259  143.0837  157.7587 C   0  0  0  0  0  0  0  0  0  0  0  0
  146.5019  142.4080  157.5419 C   0  0  0  0  0  0  0  0  0  0  0  0
  146.8558  141.5364  156.3802 C   0  0  0  0  0  0  0  0  0  0  0  0
  147.2365  142.3128  155.1726 N   0  3  2  0  0  0  0  0  0  0  0  0
  146.0760  142.9866  154.5376 C   0  0  0  0  0  0  0  0  0  0  0  0
  148.0269  141.5031  154.2092 C   0  0  0  0  0  0  0  0  0  0  0  0
  149.2664  140.8508  154.8614 C   0  0  1  0  0  0  0  0  0  0  0  0
  149.9335  140.0716  153.8894 O   0  0  0  0  0  0  0  0  0  0  0  0
  150.2767  141.8730  155.4200 C   0  0  0  0  0  0  0  0  0  0  0  0
  151.1746  141.2918  156.4014 N   0  0  0  0  0  0  0  0  0  0  0  0
  151.8284  140.1172  156.3105 C   0  0  0  0  0  0  0  0  0  0  0  0
  152.6153  139.7787  157.3271 N   0  0  0  0  0  0  0  0  0  0  0  0
  152.4417  140.8514  158.1847 C   0  0  0  0  0  0  0  0  0  0  0  0
  153.0026  141.1108  159.4541 C   0  0  0  0  0  0  0  0  0  0  0  0
  152.6779  142.2895  160.1627 C   0  0  0  0  0  0  0  0  0  0  0  0
  153.3037  142.5277  161.5259 C   0  0  0  0  0  0  0  0  0  0  0  0
  151.7779  143.2309  159.6016 C   0  0  0  0  0  0  0  0  0  0  0  0
  151.4104  144.5016  160.3472 C   0  0  0  0  0  0  0  0  0  0  0  0
  151.2098  142.9881  158.3335 C   0  0  0  0  0  0  0  0  0  0  0  0
  151.5422  141.8126  157.6374 C   0  0  0  0  0  0  0  0  0  0  0  0
  147.6363  142.6801  158.8399 S   0  0  0  0  0  0  0  0  0  0  0  0
  145.8497  145.0154  161.2099 H   0  0  0  0  0  0  0  0  0  0  0  0
  147.5874  145.0152  160.8645 H   0  0  0  0  0  0  0  0  0  0  0  0
  146.8528  143.6457  161.7167 H   0  0  0  0  0  0  0  0  0  0  0  0
  144.4536  143.0994  157.1222 H   0  0  0  0  0  0  0  0  0  0  0  0
  147.6854  140.8957  156.6811 H   0  0  0  0  0  0  0  0  0  0  0  0
  146.0263  140.8698  156.1391 H   0  0  0  0  0  0  0  0  0  0  0  0
  145.3419  142.2565  154.1947 H   0  0  0  0  0  0  0  0  0  0  0  0
  146.3784  143.5873  153.6812 H   0  0  0  0  0  0  0  0  0  0  0  0
  145.5813  143.6616  155.2358 H   0  0  0  0  0  0  0  0  0  0  0  0
  147.4108  140.7074  153.7878 H   0  0  0  0  0  0  0  0  0  0  0  0
  148.3096  142.1404  153.3702 H   0  0  0  0  0  0  0  0  0  0  0  0
  148.9650  140.1871  155.6708 H   0  0  0  0  0  0  0  0  0  0  0  0
  149.4792  140.1636  153.0650 H   0  0  0  0  0  0  0  0  0  0  0  0
  150.8802  142.2914  154.6133 H   0  0  0  0  0  0  0  0  0  0  0  0
  149.7522  142.7096  155.8845 H   0  0  0  0  0  0  0  0  0  0  0  0
  151.7287  139.4787  155.4447 H   0  0  0  0  0  0  0  0  0  0  0  0
  153.6869  140.3930  159.8822 H   0  0  0  0  0  0  0  0  0  0  0  0
  152.5322  142.6360  162.2880 H   0  0  0  0  0  0  0  0  0  0  0  0
  153.9095  143.4338  161.5143 H   0  0  0  0  0  0  0  0  0  0  0  0
  153.9480  141.6985  161.8190 H   0  0  0  0  0  0  0  0  0  0  0  0
  150.7304  145.1229  159.7639 H   0  0  0  0  0  0  0  0  0  0  0  0
  152.3014  145.0920  160.5614 H   0  0  0  0  0  0  0  0  0  0  0  0
  150.9186  144.2612  161.2900 H   0  0  0  0  0  0  0  0  0  0  0  0
  150.5210  143.6962  157.8974 H   0  0  0  0  0  0  0  0  0  0  0  0
  147.8610  143.0377  155.4971 H   0  0  0  0  0  0  0  0  0  0  0  0
  1  2  1  0  0  0  0
  1 25  1  0  0  0  0
  1 26  1  0  0  0  0
  1 27  1  0  0  0  0
  2 24  1  0  0  0  0
  2  3  2  0  0  0  0
  3  4  1  0  0  0  0
  4  5  2  0  0  0  0
  4 28  1  0  0  0  0
  5  6  1  0  0  0  0
  5 24  1  0  0  0  0
  6  7  1  0  0  0  0
  6 29  1  0  0  0  0
  6 30  1  0  0  0  0
  7  8  1  0  0  0  0
  7  9  1  0  0  0  0
  7 49  1  0  0  0  0
  8 31  1  0  0  0  0
  8 32  1  0  0  0  0
  8 33  1  0  0  0  0
  9 10  1  0  0  0  0
  9 34  1  0  0  0  0
  9 35  1  0  0  0  0
 10 11  1  0  0  0  0
 10 12  1  0  0  0  0
 10 36  1  0  0  0  0
 11 37  1  0  0  0  0
 12 13  1  0  0  0  0
 12 38  1  0  0  0  0
 12 39  1  0  0  0  0
 13 23  1  0  0  0  0
 13 14  1  0  0  0  0
 14 15  2  0  0  0  0
 14 40  1  0  0  0  0
 15 16  1  0  0  0  0
 16 23  2  0  0  0  0
 16 17  1  0  0  0  0
 17 18  2  0  0  0  0
 17 41  1  0  0  0  0
 18 19  1  0  0  0  0
 18 20  1  0  0  0  0
 19 42  1  0  0  0  0
 19 43  1  0  0  0  0
 19 44  1  0  0  0  0
 20 21  1  0  0  0  0
 20 22  2  0  0  0  0
 21 45  1  0  0  0  0
 21 46  1  0  0  0  0
 21 47  1  0  0  0  0
 22 23  1  0  0  0  0
 22 48  1  0  0  0  0
M  CHG  1   7   1
M  END
> <s_m_source_file>
AV-unprocessed.smi

> <i_m_source_file_index>
1225

> <i_lp_mmshare_version>
43012

> <i_f3d_flags>
0

> <s_epik_input>
W0NIM11jMW5bY0hdYyhzMSlbQ0gyXU4oW0NIM10pW0NIMl1bQ0BIXShbT0hdKVtDSDJdbihbY0hdbjIpYyhjMjMpW2NIXWMoW0NIM10pYyhbY0hdMylbQ0gzXQ==

> <s_epik_cmdline>
J2VwaWtfcHl0aG9uJywgJy1waCcsICc3LjAnLCAnLXRuJywgJzgnLCAnLW1hJywgJzIwMCcsICctbWV0YWxfYmluZGluZycsICctaW1hZScsICc8aW5maWxlLm1hZT4nLCAnLW9tYWUnLCAnPG91dGZpbGUubWFlPic=

> <r_epik_Ionization_Penalty>
1.62543

> <r_epik_Ionization_Penalty_Charging>
1.53932

> <r_epik_Ionization_Penalty_Neutral>
0.0861152

> <r_epik_State_Penalty>
1.73127

> <r_epik_Charging_Adjusted_Penalty>
3.27059

> <i_epik_Tot_Q>
1

> <i_epik_Tot_abs_Q>
1

> <r_epik_Metal_State_Penalty>
1.71387

> <b_epik_Metal_Only>
0

> <s_lp_Force_Field>
OPLS_2005

> <r_lp_Energy>
12.5396

> <b_lp_Chiralities_Consistent>
1

> <s_lp_Variant>
AV-unprocessed.smi:1225-8

> <Gold.Version>
5.8.1

> <Gold.Id.Protein>
6NUR|6NUR_protein|mol2

> <Gold.PLP.Fitness>
62.8142

> <Gold.PLP.PLP>
-49.8419

> <Gold.PLP.part.hbond>
-4.0000

> <Gold.PLP.part.metal>
0.0000

> <Gold.PLP.part.buried>
-6.4918

> <Gold.PLP.part.nonpolar>
-38.6867

> <Gold.PLP.part.repulsive>
0.1995

> <Gold.PLP.ligand.clash>
0.0000

> <Gold.PLP.ligand.torsion>
0.7509

> <Gold.PLP.Chemscore.Hbond>
4.7920

> <Gold.PLP.Chemscore.CHOScore>
0.0000

> <Gold.PLP.Chemscore.Metal>
0.0000

> <Gold.Chemscore.Hbonds>
donor molecule, donor type, donor heavy atom, donor atom, acceptor molecule, acceptor atom, score
      L1  H     7    49       P1  8028  2.00
      L1  H    11    37       P1  7957  0.91
      P1  H  7989  7998       L1    11  0.82
      P1  H  7997  8008       L1    15  1.00

> <Gold.PLP.Chemscore.Internal.Correction>
0.0982

> <Gold.Rescore>
     Score         DG    S(hbond)    S(metal)    S(lipo)     H(rot)  DE(clash)    DE(int)     intcor
     18.31     -19.03       1.71        0.00     119.03       2.37       0.05       0.67       ----

> <Gold.Chemscore.Fitness>
18.3112

> <Gold.Chemscore.DG>
-19.0301

> <Gold.Chemscore.ZeroCoef>
-5.4800

> <Gold.Chemscore.Hbond>
1.7078

> <Gold.Chemscore.Metal>
0.0000

> <Gold.Chemscore.Lipo>
119.0275

> <Gold.Chemscore.Internal_Hbond>
0.0000

> <Gold.Chemscore.DEClash>
0.0456

> <Gold.Chemscore.DEInternal>
0.6733

> <Gold.Chemscore.Rot>
2.3750

> <Gold.Chemscore.Internal.Correction>
   9.000000E+99

> <Gold.Chemscore.Hbonds>
donor molecule, donor type, donor heavy atom, donor atom, acceptor molecule, acceptor atom, score
      L1  H     7    49       P1  8028  0.64
      L1  H    11    37       P1  7957  0.89
      P1  H  7989  7998       L1    11  0.18
      P1  H  7997  8008       L1    15  0.14

> <Gold.Chemscore.Hbond.Weighted>
-5.7039

> <Gold.Chemscore.Metal.Weighted>
-0.0000

> <Gold.Chemscore.Lipo.Weighted>
-13.9262

> <Gold.Chemscore.Internal_Hbond.Weighted>
0.0000

> <Gold.Chemscore.DEClash.Weighted>
0.0456

> <Gold.Chemscore.DEInternal.Weighted>
0.6733

> <Gold.Chemscore.Rot.Weighted>
6.0800

> <Gold.Chemscore.Internal.Correction.Weighted>
   9.000000E+99

> <Gold.Protein.RotatedTorsions>
[ 6907 6896 6895 6894 ] final  151.27 input  -60.11 | X-H torsion
[ 7974 7965 7964 7962 ] final  -84.10 input  175.53 | X-H torsion
[ 8008 7997 7996 7995 ] final  -56.65 input   59.86 | X-H torsion
[ 10167 10162 10161 10158 ] final   65.95 input  -65.29 | X-H torsion
[ 10718 10713 10712 10709 ] final -152.14 input   66.30 | X-H torsion
[ 10763 10752 10751 10750 ] final  -72.50 input  -60.55 | X-H torsion
[ 11005 11000 10999 10996 ] final -118.71 input  -57.11 | X-H torsion

> <Gold.Protein.ActiveResidues>
 VAL166  LYS551  ARG553  GLY616  TRP617  ASP618  TYR619  PRO620  LYS621  CYS622 
 ASP623  PHE694  ASN695  SER759  ASP760  ASP761  ALA762  ILE779  LEU786  VAL792 
 PHE793  MET794  SER795  GLU796  ALA797  LYS798  CYS799  TRP800  GLU811  SER814 

> <Gold.Protein.RotatedAtoms>
  152.1029  133.4259  159.4595 H   0  0  0  0  0  0  0  0  0  0  0  0  # atno 6907 bound_to 6896
  150.6864  134.2739  159.4608 H   0  0  0  0  0  0  0  0  0  0  0  0  # atno 6908 bound_to 6896
  152.0601  134.9599  160.0625 H   0  0  0  0  0  0  0  0  0  0  0  0  # atno 6909 bound_to 6896
  145.5111  140.9540  143.1707 H   0  0  0  0  0  0  0  0  0  0  0  0  # atno 7974 bound_to 7965
  154.4238  140.1125  156.5671 H   0  0  0  0  0  0  0  0  0  0  0  0  # atno 8008 bound_to 7997
  155.6251  140.3495  155.4645 H   0  0  0  0  0  0  0  0  0  0  0  0  # atno 8009 bound_to 7997
  155.9993  140.1196  157.0552 H   0  0  0  0  0  0  0  0  0  0  0  0  # atno 8010 bound_to 7997
  140.1058  144.4863  150.7009 H   0  0  0  0  0  0  0  0  0  0  0  0  # atno 10167 bound_to 10162
  156.4685  130.8247  151.2477 H   0  0  0  0  0  0  0  0  0  0  0  0  # atno 10718 bound_to 10713
  154.4465  135.5928  153.6163 H   0  0  0  0  0  0  0  0  0  0  0  0  # atno 10763 bound_to 10752
  152.9810  135.6010  154.3658 H   0  0  0  0  0  0  0  0  0  0  0  0  # atno 10764 bound_to 10752
  154.3514  135.2841  155.2349 H   0  0  0  0  0  0  0  0  0  0  0  0  # atno 10765 bound_to 10752
  141.0266  134.0044  157.3205 H   0  0  0  0  0  0  0  0  0  0  0  0  # atno 11005 bound_to 11000
  144.7727  139.6699  143.7188 LP  0  0  0  0  0  0  0  0  0  0  0  0  # atno 17320 bound_to 7965
  146.2166  139.5560  142.9646 LP  0  0  0  0  0  0  0  0  0  0  0  0  # atno 17321 bound_to 7965
  140.6953  143.2400  151.5018 LP  0  0  0  0  0  0  0  0  0  0  0  0  # atno 17342 bound_to 10162
  139.5646  144.2073  152.1745 LP  0  0  0  0  0  0  0  0  0  0  0  0  # atno 17343 bound_to 10162
  157.7493  131.0084  150.3226 LP  0  0  0  0  0  0  0  0  0  0  0  0  # atno 17370 bound_to 10713
  156.3643  130.3852  149.7226 LP  0  0  0  0  0  0  0  0  0  0  0  0  # atno 17371 bound_to 10713
  139.9180  135.0198  156.7957 LP  0  0  0  0  0  0  0  0  0  0  0  0  # atno 17394 bound_to 11000
  140.6480  133.9758  155.7740 LP  0  0  0  0  0  0  0  0  0  0  0  0  # atno 17395 bound_to 11000

$$$$
