AV-unprocessed.smi:1973|AV-procd|sdf|7976|dock6
  -GOLD-   2272010153D 1   1.00000     0.00000
 Structure written by MMmdl.
 48 50  0  0  0  0  0  0  0  0  2 V2000
  155.1073  139.4531  159.3685 C   0  0  0  0  0  0  0  0  0  0  0  0
  155.0660  138.6815  158.1810 O   0  0  0  0  0  0  0  0  0  0  0  0
  153.7412  138.3844  157.7732 C   0  0  0  0  0  0  0  0  0  0  0  0
  153.7795  137.7773  156.3625 C   0  0  0  0  0  0  0  0  0  0  0  0
  152.4586  137.8022  155.7250 N   0  0  0  0  0  0  0  0  0  0  0  0
  151.7256  136.6397  155.8969 N   0  0  0  0  0  0  0  0  0  0  0  0
  150.5495  136.5271  155.3724 C   0  0  0  0  0  0  0  0  0  0  0  0
  149.7755  135.2656  155.5534 C   0  0  0  0  0  0  0  0  0  0  0  0
  149.6552  134.7471  156.6648 O   0  0  0  0  0  0  0  0  0  0  0  0
  149.2280  134.7347  154.4460 N   0  0  0  0  0  0  0  0  0  0  0  0
  148.4505  133.5009  154.3987 C   0  0  0  0  0  0  0  0  0  0  0  0
  147.4434  133.4928  153.2327 C   0  0  2  0  0  0  0  0  0  0  0  0
  146.3951  134.5992  153.3093 C   0  0  0  0  0  0  0  0  0  0  0  0
  145.2992  134.0798  152.3833 C   0  0  0  0  0  0  0  0  0  0  0  0
  145.2787  132.6153  152.5837 N   0  3  1  0  0  0  0  0  0  0  0  0
  144.8503  131.8528  151.3919 C   0  0  0  0  0  0  0  0  0  0  0  0
  145.3331  132.4458  150.0901 C   0  0  0  0  0  0  0  0  0  0  0  0
  143.8876  132.6086  150.5075 C   0  0  0  0  0  0  0  0  0  0  0  0
  146.6003  132.2127  153.1197 C   0  0  0  0  0  0  0  0  0  0  0  0
  149.9692  137.6222  154.6052 C   0  0  0  0  0  0  0  0  0  0  0  0
  150.6945  138.7517  154.4533 C   0  0  0  0  0  0  0  0  0  0  0  0
  152.0311  138.8991  155.0304 C   0  0  0  0  0  0  0  0  0  0  0  0
  152.7094  139.9180  154.9035 O   0  0  0  0  0  0  0  0  0  0  0  0
  156.1440  139.6450  159.6454 H   0  0  0  0  0  0  0  0  0  0  0  0
  154.6285  138.9296  160.1972 H   0  0  0  0  0  0  0  0  0  0  0  0
  154.6130  140.4154  159.2296 H   0  0  0  0  0  0  0  0  0  0  0  0
  153.2858  137.6815  158.4726 H   0  0  0  0  0  0  0  0  0  0  0  0
  153.1384  139.2938  157.7800 H   0  0  0  0  0  0  0  0  0  0  0  0
  154.5064  138.3093  155.7462 H   0  0  0  0  0  0  0  0  0  0  0  0
  154.1461  136.7508  156.4211 H   0  0  0  0  0  0  0  0  0  0  0  0
  149.3790  135.2136  153.5697 H   0  0  0  0  0  0  0  0  0  0  0  0
  149.1477  132.6685  154.2970 H   0  0  0  0  0  0  0  0  0  0  0  0
  147.9322  133.3528  155.3475 H   0  0  0  0  0  0  0  0  0  0  0  0
  147.9850  133.6225  152.2939 H   0  0  0  0  0  0  0  0  0  0  0  0
  146.0111  134.6923  154.3264 H   0  0  0  0  0  0  0  0  0  0  0  0
  146.7810  135.5718  153.0025 H   0  0  0  0  0  0  0  0  0  0  0  0
  144.3263  134.5259  152.5912 H   0  0  0  0  0  0  0  0  0  0  0  0
  145.5600  134.3090  151.3485 H   0  0  0  0  0  0  0  0  0  0  0  0
  144.7610  130.7740  151.5106 H   0  0  0  0  0  0  0  0  0  0  0  0
  145.9701  133.3279  150.1301 H   0  0  0  0  0  0  0  0  0  0  0  0
  145.5409  131.7594  149.2717 H   0  0  0  0  0  0  0  0  0  0  0  0
  143.1439  132.0288  149.9642 H   0  0  0  0  0  0  0  0  0  0  0  0
  143.5644  133.5987  150.8246 H   0  0  0  0  0  0  0  0  0  0  0  0
  147.0962  131.4683  152.4943 H   0  0  0  0  0  0  0  0  0  0  0  0
  146.4401  131.7618  154.0996 H   0  0  0  0  0  0  0  0  0  0  0  0
  148.9859  137.5568  154.1645 H   0  0  0  0  0  0  0  0  0  0  0  0
  150.2773  139.5731  153.8893 H   0  0  0  0  0  0  0  0  0  0  0  0
  144.6089  132.4314  153.3168 H   0  0  0  0  0  0  0  0  0  0  0  0
  1  2  1  0  0  0  0
  1 24  1  0  0  0  0
  1 25  1  0  0  0  0
  1 26  1  0  0  0  0
  2  3  1  0  0  0  0
  3  4  1  0  0  0  0
  3 27  1  0  0  0  0
  3 28  1  0  0  0  0
  4  5  1  0  0  0  0
  4 29  1  0  0  0  0
  4 30  1  0  0  0  0
  5 22  1  0  0  0  0
  5  6  1  0  0  0  0
  6  7  2  0  0  0  0
  7  8  1  0  0  0  0
  7 20  1  0  0  0  0
  8  9  2  0  0  0  0
  8 10  1  0  0  0  0
 10 11  1  0  0  0  0
 10 31  1  0  0  0  0
 11 12  1  0  0  0  0
 11 32  1  0  0  0  0
 11 33  1  0  0  0  0
 12 19  1  0  0  0  0
 12 13  1  0  0  0  0
 12 34  1  0  0  0  0
 13 14  1  0  0  0  0
 13 35  1  0  0  0  0
 13 36  1  0  0  0  0
 14 15  1  0  0  0  0
 14 37  1  0  0  0  0
 14 38  1  0  0  0  0
 15 16  1  0  0  0  0
 15 19  1  0  0  0  0
 15 48  1  0  0  0  0
 16 18  1  0  0  0  0
 16 17  1  0  0  0  0
 16 39  1  0  0  0  0
 17 18  1  0  0  0  0
 17 40  1  0  0  0  0
 17 41  1  0  0  0  0
 18 42  1  0  0  0  0
 18 43  1  0  0  0  0
 19 44  1  0  0  0  0
 19 45  1  0  0  0  0
 20 21  2  0  0  0  0
 20 46  1  0  0  0  0
 21 22  1  0  0  0  0
 21 47  1  0  0  0  0
 22 23  2  0  0  0  0
M  CHG  1  15   1
M  END
> <s_m_source_file>
AV-unprocessed.smi

> <i_m_source_file_index>
1973

> <i_lp_mmshare_version>
43012

> <i_f3d_flags>
0

> <s_epik_input>
W0NIM11PW0NIMl1bQ0gyXW4xbmMoW2NIXVtjSF1jMT1PKUMoPU8pW05IXVtDSDJdW0NAQEhdMltDSDJdW0NIMl1OKFtDSDJdMilbQ0hdM1tDSDJdW0NIMl0z

> <s_epik_cmdline>
J2VwaWtfcHl0aG9uJywgJy1waCcsICc3LjAnLCAnLXRuJywgJzgnLCAnLW1hJywgJzIwMCcsICctbWV0YWxfYmluZGluZycsICctaW1hZScsICc8aW5maWxlLm1hZT4nLCAnLW9tYWUnLCAnPG91dGZpbGUubWFlPic=

> <r_lp_tautomer_probability>
1

> <r_epik_Ionization_Penalty>
0.000225706

> <r_epik_Ionization_Penalty_Charging>
0.000223776

> <r_epik_Ionization_Penalty_Neutral>
1.93004e-06

> <r_epik_State_Penalty>
-0

> <r_epik_Charging_Adjusted_Penalty>
0.000223776

> <i_epik_Tot_Q>
1

> <i_epik_Tot_abs_Q>
1

> <r_epik_Metal_State_Penalty>
-0

> <b_epik_Metal_Only>
0

> <s_lp_Force_Field>
OPLS_2005

> <r_lp_Energy>
57.8958

> <b_lp_Chiralities_Consistent>
1

> <s_lp_Variant>
AV-unprocessed.smi:1973-1

> <Gold.Version>
5.8.1

> <Gold.Id.Protein>
6NUR|6NUR_protein|mol2

> <Gold.PLP.Fitness>
46.3374

> <Gold.PLP.PLP>
-38.4023

> <Gold.PLP.part.hbond>
-4.7098

> <Gold.PLP.part.metal>
0.0000

> <Gold.PLP.part.buried>
-1.9356

> <Gold.PLP.part.nonpolar>
-31.3662

> <Gold.PLP.part.repulsive>
0.0680

> <Gold.PLP.ligand.clash>
0.0000

> <Gold.PLP.ligand.torsion>
2.1001

> <Gold.PLP.Chemscore.Hbond>
3.6191

> <Gold.PLP.Chemscore.CHOScore>
0.0000

> <Gold.PLP.Chemscore.Metal>
0.0000

> <Gold.Chemscore.Hbonds>
donor molecule, donor type, donor heavy atom, donor atom, acceptor molecule, acceptor atom, score
      L1  H    10    31       P1  7948  0.85
      P1  H  7989  7998       L1    23  0.48
      P1  H  7997  8008       L1     2  0.43
      P1  H  7997  8009       L1    23  1.00
      P1  H 10752 10763       L1     6  0.65

> <Gold.PLP.Chemscore.Internal.Correction>
1.2780

> <Gold.Rescore>
     Score         DG    S(hbond)    S(metal)    S(lipo)     H(rot)  DE(clash)    DE(int)     intcor
     14.67     -17.19       1.95        0.00      87.43       1.97       0.45       2.07       ----

> <Gold.Chemscore.Fitness>
14.6700

> <Gold.Chemscore.DG>
-17.1910

> <Gold.Chemscore.ZeroCoef>
-5.4800

> <Gold.Chemscore.Hbond>
1.9544

> <Gold.Chemscore.Metal>
0.0000

> <Gold.Chemscore.Lipo>
87.4300

> <Gold.Chemscore.Internal_Hbond>
0.0000

> <Gold.Chemscore.DEClash>
0.4460

> <Gold.Chemscore.DEInternal>
2.0750

> <Gold.Chemscore.Rot>
1.9711

> <Gold.Chemscore.Internal.Correction>
   9.000000E+99

> <Gold.Chemscore.Hbonds>
donor molecule, donor type, donor heavy atom, donor atom, acceptor molecule, acceptor atom, score
      L1  H    10    31       P1  7948  0.14
      P1  H  7989  7998       L1    23  0.14
      P1  H  7997  8009       L1    23  0.94
      P1  H 10752 10763       L1     6  0.04

> <Gold.Chemscore.Hbond.Weighted>
-6.5277

> <Gold.Chemscore.Metal.Weighted>
-0.0000

> <Gold.Chemscore.Lipo.Weighted>
-10.2293

> <Gold.Chemscore.Internal_Hbond.Weighted>
0.0000

> <Gold.Chemscore.DEClash.Weighted>
0.4460

> <Gold.Chemscore.DEInternal.Weighted>
2.0750

> <Gold.Chemscore.Rot.Weighted>
5.0460

> <Gold.Chemscore.Internal.Correction.Weighted>
   9.000000E+99

> <Gold.Protein.RotatedTorsions>
[ 6907 6896 6895 6894 ] final  178.06 input  -60.11 | X-H torsion
[ 7974 7965 7964 7962 ] final   24.34 input  175.53 | X-H torsion
[ 8008 7997 7996 7995 ] final -135.01 input   59.86 | X-H torsion
[ 10167 10162 10161 10158 ] final -130.41 input  -65.29 | X-H torsion
[ 10718 10713 10712 10709 ] final  116.70 input   66.30 | X-H torsion
[ 10763 10752 10751 10750 ] final   76.18 input  -60.55 | X-H torsion
[ 11005 11000 10999 10996 ] final  -52.20 input  -57.11 | X-H torsion

> <Gold.Protein.ActiveResidues>
 VAL166  LYS551  ARG553  GLY616  TRP617  ASP618  TYR619  PRO620  LYS621  CYS622 
 ASP623  PHE694  ASN695  SER759  ASP760  ASP761  ALA762  ILE779  LEU786  VAL792 
 PHE793  MET794  SER795  GLU796  ALA797  LYS798  CYS799  TRP800  GLU811  SER814 

> <Gold.Protein.RotatedAtoms>
  151.6939  133.3311  159.3249 H   0  0  0  0  0  0  0  0  0  0  0  0  # atno 6907 bound_to 6896
  150.7766  134.6675  159.6382 H   0  0  0  0  0  0  0  0  0  0  0  0  # atno 6908 bound_to 6896
  152.3811  134.6592  160.0194 H   0  0  0  0  0  0  0  0  0  0  0  0  # atno 6909 bound_to 6896
  146.1942  139.7618  142.8809 H   0  0  0  0  0  0  0  0  0  0  0  0  # atno 7974 bound_to 7965
  155.3715  140.0488  157.3045 H   0  0  0  0  0  0  0  0  0  0  0  0  # atno 8008 bound_to 7997
  154.5127  140.2197  155.9087 H   0  0  0  0  0  0  0  0  0  0  0  0  # atno 8009 bound_to 7997
  156.1601  140.3118  155.8799 H   0  0  0  0  0  0  0  0  0  0  0  0  # atno 8010 bound_to 7997
  139.9296  143.6287  152.2533 H   0  0  0  0  0  0  0  0  0  0  0  0  # atno 10167 bound_to 10162
  157.6144  131.1028  150.7510 H   0  0  0  0  0  0  0  0  0  0  0  0  # atno 10718 bound_to 10713
  153.0707  135.4961  154.8298 H   0  0  0  0  0  0  0  0  0  0  0  0  # atno 10763 bound_to 10752
  154.7018  135.3003  154.9331 H   0  0  0  0  0  0  0  0  0  0  0  0  # atno 10764 bound_to 10752
  154.0053  135.6761  153.4814 H   0  0  0  0  0  0  0  0  0  0  0  0  # atno 10765 bound_to 10752
  141.0912  133.6632  156.3989 H   0  0  0  0  0  0  0  0  0  0  0  0  # atno 11005 bound_to 11000
  145.3697  141.0340  143.3238 LP  0  0  0  0  0  0  0  0  0  0  0  0  # atno 17320 bound_to 7965
  144.8546  139.5268  143.6840 LP  0  0  0  0  0  0  0  0  0  0  0  0  # atno 17321 bound_to 7965
  139.6793  144.7656  151.1638 LP  0  0  0  0  0  0  0  0  0  0  0  0  # atno 17342 bound_to 10162
  140.7641  143.5748  150.8957 LP  0  0  0  0  0  0  0  0  0  0  0  0  # atno 17343 bound_to 10162
  156.7880  130.4881  149.5389 LP  0  0  0  0  0  0  0  0  0  0  0  0  # atno 17370 bound_to 10713
  156.1260  130.6144  151.0263 LP  0  0  0  0  0  0  0  0  0  0  0  0  # atno 17371 bound_to 10713
  140.5248  134.6269  157.5330 LP  0  0  0  0  0  0  0  0  0  0  0  0  # atno 17394 bound_to 11000
  139.9738  134.7249  155.9989 LP  0  0  0  0  0  0  0  0  0  0  0  0  # atno 17395 bound_to 11000

$$$$
