AV-unprocessed.smi:1198|AV-procd|sdf|5011|dock3
  -GOLD-   22720 4 23D 1   1.00000     0.00000
 Structure written by MMmdl.
 40 41  0  0  0  0  0  0  0  0  2 V2000
  153.2858  142.3286  162.3931 C   0  0  0  0  0  0  0  0  0  0  0  0
  152.9696  143.4724  161.6070 O   0  0  0  0  0  0  0  0  0  0  0  0
  152.2830  143.2852  160.4251 C   0  0  0  0  0  0  0  0  0  0  0  0
  151.9859  144.4105  159.6321 C   0  0  0  0  0  0  0  0  0  0  0  0
  151.2867  144.2228  158.4251 C   0  0  0  0  0  0  0  0  0  0  0  0
  150.9049  142.9210  158.0417 C   0  0  0  0  0  0  0  0  0  0  0  0
  150.1964  142.7809  156.8157 N   0  0  0  0  0  0  0  0  0  0  0  0
  150.0556  141.7015  156.0266 C   0  0  0  0  0  0  0  0  0  0  0  0
  150.5362  140.5891  156.2381 O   0  0  0  0  0  0  0  0  0  0  0  0
  149.3178  141.9897  154.9445 N   0  0  0  0  0  0  0  0  0  0  0  0
  148.9649  141.0486  153.8852 C   0  0  0  0  0  0  0  0  0  0  0  0
  147.8972  140.0346  154.3401 C   0  0  1  0  0  0  0  0  0  0  0  0
  146.6927  140.6318  155.0688 C   0  0  0  0  0  0  0  0  0  0  0  0
  145.6399  139.5372  154.9275 C   0  0  0  0  0  0  0  0  0  0  0  0
  145.8593  138.9582  153.5854 N   0  3  2  0  0  0  0  0  0  0  0  0
  145.4783  137.5349  153.4696 C   0  0  0  0  0  0  0  0  0  0  0  0
  147.2540  139.2568  153.1818 C   0  0  0  0  0  0  0  0  0  0  0  0
  151.2465  141.8555  158.9117 C   0  0  0  0  0  0  0  0  0  0  0  0
  151.9178  142.0290  160.0701 N   0  0  0  0  0  0  0  0  0  0  0  0
  153.8249  142.6429  163.2866 H   0  0  0  0  0  0  0  0  0  0  0  0
  153.9264  141.6340  161.8475 H   0  0  0  0  0  0  0  0  0  0  0  0
  152.3848  141.8058  162.7175 H   0  0  0  0  0  0  0  0  0  0  0  0
  152.2884  145.3992  159.9437 H   0  0  0  0  0  0  0  0  0  0  0  0
  151.0484  145.0726  157.8018 H   0  0  0  0  0  0  0  0  0  0  0  0
  149.7510  143.6244  156.4850 H   0  0  0  0  0  0  0  0  0  0  0  0
  148.9641  142.9307  154.8506 H   0  0  0  0  0  0  0  0  0  0  0  0
  148.6352  141.5796  152.9904 H   0  0  0  0  0  0  0  0  0  0  0  0
  149.8735  140.5161  153.6031 H   0  0  0  0  0  0  0  0  0  0  0  0
  148.3646  139.3092  155.0085 H   0  0  0  0  0  0  0  0  0  0  0  0
  146.9034  140.8803  156.1095 H   0  0  0  0  0  0  0  0  0  0  0  0
  146.3550  141.5390  154.5653 H   0  0  0  0  0  0  0  0  0  0  0  0
  145.8038  138.7768  155.6931 H   0  0  0  0  0  0  0  0  0  0  0  0
  144.6232  139.9145  155.0409 H   0  0  0  0  0  0  0  0  0  0  0  0
  146.0804  136.9115  154.1319 H   0  0  0  0  0  0  0  0  0  0  0  0
  145.6190  137.1849  152.4466 H   0  0  0  0  0  0  0  0  0  0  0  0
  144.4282  137.3998  153.7310 H   0  0  0  0  0  0  0  0  0  0  0  0
  147.2157  139.8638  152.2765 H   0  0  0  0  0  0  0  0  0  0  0  0
  147.8245  138.3568  152.9473 H   0  0  0  0  0  0  0  0  0  0  0  0
  150.9852  140.8305  158.7067 H   0  0  0  0  0  0  0  0  0  0  0  0
  145.2697  139.4769  152.9498 H   0  0  0  0  0  0  0  0  0  0  0  0
  1  2  1  0  0  0  0
  1 20  1  0  0  0  0
  1 21  1  0  0  0  0
  1 22  1  0  0  0  0
  2  3  1  0  0  0  0
  3 19  1  0  0  0  0
  3  4  2  0  0  0  0
  4  5  1  0  0  0  0
  4 23  1  0  0  0  0
  5  6  2  0  0  0  0
  5 24  1  0  0  0  0
  6  7  1  0  0  0  0
  6 18  1  0  0  0  0
  7  8  1  0  0  0  0
  7 25  1  0  0  0  0
  8  9  2  0  0  0  0
  8 10  1  0  0  0  0
 10 11  1  0  0  0  0
 10 26  1  0  0  0  0
 11 12  1  0  0  0  0
 11 27  1  0  0  0  0
 11 28  1  0  0  0  0
 12 17  1  0  0  0  0
 12 13  1  0  0  0  0
 12 29  1  0  0  0  0
 13 14  1  0  0  0  0
 13 30  1  0  0  0  0
 13 31  1  0  0  0  0
 14 15  1  0  0  0  0
 14 32  1  0  0  0  0
 14 33  1  0  0  0  0
 15 16  1  0  0  0  0
 15 17  1  0  0  0  0
 15 40  1  0  0  0  0
 16 34  1  0  0  0  0
 16 35  1  0  0  0  0
 16 36  1  0  0  0  0
 17 37  1  0  0  0  0
 17 38  1  0  0  0  0
 18 19  2  0  0  0  0
 18 39  1  0  0  0  0
M  CHG  1  15   1
M  END
> <s_m_source_file>
AV-unprocessed.smi

> <i_m_source_file_index>
1198

> <i_lp_mmshare_version>
43012

> <i_f3d_flags>
0

> <s_epik_input>
W0NIM11PYzFbY0hdW2NIXWMoW2NIXW4xKVtOSF1DKD1PKVtOSF1bQ0gyXVtDQEBIXTJbQ0gyXVtDSDJdTihbQ0gzXSlbQ0gyXTI=

> <s_epik_cmdline>
J2VwaWtfcHl0aG9uJywgJy1waCcsICc3LjAnLCAnLXRuJywgJzgnLCAnLW1hJywgJzIwMCcsICctbWV0YWxfYmluZGluZycsICctaW1hZScsICc8aW5maWxlLm1hZT4nLCAnLW9tYWUnLCAnPG91dGZpbGUubWFlPic=

> <r_lp_tautomer_probability>
1

> <r_epik_Ionization_Penalty>
0.00131396

> <r_epik_Ionization_Penalty_Charging>
0.0012301

> <r_epik_Ionization_Penalty_Neutral>
8.38549e-05

> <r_epik_State_Penalty>
0.00081314

> <r_epik_Charging_Adjusted_Penalty>
0.00204324

> <i_epik_Tot_Q>
1

> <i_epik_Tot_abs_Q>
1

> <r_epik_Metal_State_Penalty>
-0

> <b_epik_Metal_Only>
0

> <s_lp_Force_Field>
OPLS_2005

> <r_lp_Energy>
29.7758

> <b_lp_Chiralities_Consistent>
1

> <s_lp_Variant>
AV-unprocessed.smi:1198-2

> <Gold.Version>
5.8.1

> <Gold.Id.Protein>
6NUR|6NUR_protein|mol2

> <Gold.PLP.Fitness>
44.6959

> <Gold.PLP.PLP>
-33.3501

> <Gold.PLP.part.hbond>
-3.0102

> <Gold.PLP.part.metal>
0.0000

> <Gold.PLP.part.buried>
-0.0753

> <Gold.PLP.part.nonpolar>
-28.8569

> <Gold.PLP.part.repulsive>
0.3602

> <Gold.PLP.ligand.clash>
0.0000

> <Gold.PLP.ligand.torsion>
0.2705

> <Gold.PLP.Chemscore.Hbond>
3.9600

> <Gold.PLP.Chemscore.CHOScore>
0.0000

> <Gold.PLP.Chemscore.Metal>
0.0000

> <Gold.Chemscore.Hbonds>
donor molecule, donor type, donor heavy atom, donor atom, acceptor molecule, acceptor atom, score
      L1  H     7    25       P1  8028  1.00
      L1  H    10    26       P1  8028  0.94
      L1  H    15    40       P1 10175  2.00

> <Gold.PLP.Chemscore.Internal.Correction>
0.0068

> <Gold.Rescore>
     Score         DG    S(hbond)    S(metal)    S(lipo)     H(rot)  DE(clash)    DE(int)     intcor
     19.04     -20.74       2.94        0.00      79.52       1.51       0.64       1.06       ----

> <Gold.Chemscore.Fitness>
19.0381

> <Gold.Chemscore.DG>
-20.7414

> <Gold.Chemscore.ZeroCoef>
-5.4800

> <Gold.Chemscore.Hbond>
2.9447

> <Gold.Chemscore.Metal>
0.0000

> <Gold.Chemscore.Lipo>
79.5246

> <Gold.Chemscore.Internal_Hbond>
0.0000

> <Gold.Chemscore.DEClash>
0.6426

> <Gold.Chemscore.DEInternal>
1.0607

> <Gold.Chemscore.Rot>
1.5149

> <Gold.Chemscore.Internal.Correction>
   9.000000E+99

> <Gold.Chemscore.Hbonds>
donor molecule, donor type, donor heavy atom, donor atom, acceptor molecule, acceptor atom, score
      L1  H     7    25       P1  8028  0.99
      L1  H    10    26       P1  8028  0.90
      L1  H    15    40       P1 10175  0.97

> <Gold.Chemscore.Hbond.Weighted>
-9.8351

> <Gold.Chemscore.Metal.Weighted>
-0.0000

> <Gold.Chemscore.Lipo.Weighted>
-9.3044

> <Gold.Chemscore.Internal_Hbond.Weighted>
0.0000

> <Gold.Chemscore.DEClash.Weighted>
0.6426

> <Gold.Chemscore.DEInternal.Weighted>
1.0607

> <Gold.Chemscore.Rot.Weighted>
3.8781

> <Gold.Chemscore.Internal.Correction.Weighted>
   9.000000E+99

> <Gold.Protein.RotatedTorsions>
[ 6907 6896 6895 6894 ] final  126.60 input  -60.11 | X-H torsion
[ 7974 7965 7964 7962 ] final   51.50 input  175.53 | X-H torsion
[ 8008 7997 7996 7995 ] final   52.99 input   59.86 | X-H torsion
[ 10167 10162 10161 10158 ] final  -51.94 input  -65.29 | X-H torsion
[ 10718 10713 10712 10709 ] final   99.24 input   66.30 | X-H torsion
[ 10763 10752 10751 10750 ] final  179.42 input  -60.55 | X-H torsion
[ 11005 11000 10999 10996 ] final  -90.16 input  -57.11 | X-H torsion

> <Gold.Protein.ActiveResidues>
 VAL166  LYS551  ARG553  GLY616  TRP617  ASP618  TYR619  PRO620  LYS621  CYS622 
 ASP623  PHE694  ASN695  SER759  ASP760  ASP761  ALA762  ILE779  LEU786  VAL792 
 PHE793  MET794  SER795  GLU796  ALA797  LYS798  CYS799  TRP800  GLU811  SER814 

> <Gold.Protein.RotatedAtoms>
  152.3889  133.6650  159.6221 H   0  0  0  0  0  0  0  0  0  0  0  0  # atno 6907 bound_to 6896
  150.7802  133.8988  159.3344 H   0  0  0  0  0  0  0  0  0  0  0  0  # atno 6908 bound_to 6896
  151.6779  135.0968  160.0262 H   0  0  0  0  0  0  0  0  0  0  0  0  # atno 6909 bound_to 6896
  145.9907  139.4336  143.0075 H   0  0  0  0  0  0  0  0  0  0  0  0  # atno 7974 bound_to 7965
  155.4609  140.3462  155.4312 H   0  0  0  0  0  0  0  0  0  0  0  0  # atno 8008 bound_to 7997
  156.1161  140.1474  156.9300 H   0  0  0  0  0  0  0  0  0  0  0  0  # atno 8009 bound_to 7997
  154.4790  140.0876  156.7311 H   0  0  0  0  0  0  0  0  0  0  0  0  # atno 8010 bound_to 7997
  140.6563  143.2601  151.4576 H   0  0  0  0  0  0  0  0  0  0  0  0  # atno 10167 bound_to 10162
  157.6880  131.0664  150.4918 H   0  0  0  0  0  0  0  0  0  0  0  0  # atno 10718 bound_to 10713
  154.5204  135.2793  155.1267 H   0  0  0  0  0  0  0  0  0  0  0  0  # atno 10763 bound_to 10752
  154.2826  135.6282  153.5357 H   0  0  0  0  0  0  0  0  0  0  0  0  # atno 10764 bound_to 10752
  152.9936  135.5655  154.5692 H   0  0  0  0  0  0  0  0  0  0  0  0  # atno 10765 bound_to 10752
  141.1571  133.7675  156.9698 H   0  0  0  0  0  0  0  0  0  0  0  0  # atno 11005 bound_to 11000
  145.7634  140.9926  143.1188 LP  0  0  0  0  0  0  0  0  0  0  0  0  # atno 17320 bound_to 7965
  144.6888  139.9358  143.7473 LP  0  0  0  0  0  0  0  0  0  0  0  0  # atno 17321 bound_to 7965
  139.5786  144.1761  152.1938 LP  0  0  0  0  0  0  0  0  0  0  0  0  # atno 17342 bound_to 10162
  140.1079  144.5482  150.6944 LP  0  0  0  0  0  0  0  0  0  0  0  0  # atno 17343 bound_to 10162
  156.5244  130.4169  149.6234 LP  0  0  0  0  0  0  0  0  0  0  0  0  # atno 17370 bound_to 10713
  156.3125  130.7237  151.2132 LP  0  0  0  0  0  0  0  0  0  0  0  0  # atno 17371 bound_to 10713
  140.1137  134.9461  157.2102 LP  0  0  0  0  0  0  0  0  0  0  0  0  # atno 17394 bound_to 11000
  140.3161  134.2969  155.7256 LP  0  0  0  0  0  0  0  0  0  0  0  0  # atno 17395 bound_to 11000

$$$$
