AV-unprocessed.smi:101|AV-procd|sdf|931|dock4
  -GOLD-   2262017443D 1   1.00000     0.00000
 Structure written by MMmdl.
 43 45  0  0  0  0  0  0  0  0  2 V2000
  149.0275  131.6747  154.2888 C   0  0  0  0  0  0  0  0  0  0  0  0
  149.5173  132.8367  155.1353 C   0  0  0  0  0  0  0  0  0  0  0  0
  149.8190  134.0417  154.6022 C   0  0  0  0  0  0  0  0  0  0  0  0
  150.2504  135.1025  155.3815 N   0  0  0  0  0  0  0  0  0  0  0  0
  150.5712  136.4530  154.7744 C   0  0  2  0  0  0  0  0  0  0  0  0
  151.7380  136.9599  155.3597 O   0  0  0  0  0  0  0  0  0  0  0  0
  151.4967  138.2500  155.9094 C   0  0  2  0  0  0  0  0  0  0  0  0
  152.4090  138.5012  157.1201 C   0  0  0  0  0  0  0  0  0  0  0  0
  152.0235  139.6926  157.7878 O   0  0  0  0  0  0  0  0  0  0  0  0
  152.8852  140.3316  158.5990 C   0  0  0  0  0  0  0  0  0  0  0  0
  153.9149  139.8196  159.0429 O   0  0  0  0  0  0  0  0  0  0  0  0
  152.4603  141.7283  158.9037 C   0  0  0  0  0  0  0  0  0  0  0  0
  151.5951  142.4011  158.0097 C   0  0  0  0  0  0  0  0  0  0  0  0
  151.1788  143.7209  158.2712 C   0  0  0  0  0  0  0  0  0  0  0  0
  151.6211  144.3837  159.4310 C   0  0  0  0  0  0  0  0  0  0  0  0
  152.4786  143.7238  160.3304 C   0  0  0  0  0  0  0  0  0  0  0  0
  152.8966  142.4042  160.0704 C   0  0  0  0  0  0  0  0  0  0  0  0
  149.9939  138.2835  156.1893 C   0  0  1  0  0  0  0  0  0  0  0  0
  149.4675  139.5958  156.2458 O   0  0  0  0  0  0  0  0  0  0  0  0
  149.4310  137.4552  155.0425 C   0  0  1  0  0  0  0  0  0  0  0  0
  149.1550  138.2222  153.8850 O   0  0  0  0  0  0  0  0  0  0  0  0
  150.3824  134.9318  156.7844 C   0  0  0  0  0  0  0  0  0  0  0  0
  150.7632  135.8957  157.4496 O   0  0  0  0  0  0  0  0  0  0  0  0
  150.0895  133.7172  157.3295 N   0  5  0  0  0  0  0  0  0  0  0  0
  149.6664  132.6564  156.5841 C   0  0  0  0  0  0  0  0  0  0  0  0
  149.4105  131.5635  157.0886 O   0  0  0  0  0  0  0  0  0  0  0  0
  148.9250  131.9614  153.2420 H   0  0  0  0  0  0  0  0  0  0  0  0
  148.0533  131.3322  154.6391 H   0  0  0  0  0  0  0  0  0  0  0  0
  149.7272  130.8405  154.3460 H   0  0  0  0  0  0  0  0  0  0  0  0
  149.7090  134.1672  153.5364 H   0  0  0  0  0  0  0  0  0  0  0  0
  150.7510  136.2532  153.7163 H   0  0  0  0  0  0  0  0  0  0  0  0
  151.7339  138.9718  155.1259 H   0  0  0  0  0  0  0  0  0  0  0  0
  152.3621  137.6510  157.8019 H   0  0  0  0  0  0  0  0  0  0  0  0
  153.4440  138.5994  156.7908 H   0  0  0  0  0  0  0  0  0  0  0  0
  151.2432  141.9128  157.1122 H   0  0  0  0  0  0  0  0  0  0  0  0
  150.5201  144.2255  157.5798 H   0  0  0  0  0  0  0  0  0  0  0  0
  151.3036  145.3966  159.6301 H   0  0  0  0  0  0  0  0  0  0  0  0
  152.8205  144.2314  161.2204 H   0  0  0  0  0  0  0  0  0  0  0  0
  153.5581  141.9295  160.7806 H   0  0  0  0  0  0  0  0  0  0  0  0
  149.7654  137.7710  157.1241 H   0  0  0  0  0  0  0  0  0  0  0  0
  150.1121  140.1898  155.8933 H   0  0  0  0  0  0  0  0  0  0  0  0
  148.5115  136.9472  155.3356 H   0  0  0  0  0  0  0  0  0  0  0  0
  148.9506  137.6274  153.1792 H   0  0  0  0  0  0  0  0  0  0  0  0
  1  2  1  0  0  0  0
  1 27  1  0  0  0  0
  1 28  1  0  0  0  0
  1 29  1  0  0  0  0
  2 25  1  0  0  0  0
  2  3  2  0  0  0  0
  3  4  1  0  0  0  0
  3 30  1  0  0  0  0
  4  5  1  0  0  0  0
  4 22  1  0  0  0  0
  5 20  1  0  0  0  0
  5  6  1  0  0  0  0
  5 31  1  0  0  0  0
  6  7  1  0  0  0  0
  7  8  1  0  0  0  0
  7 18  1  0  0  0  0
  7 32  1  0  0  0  0
  8  9  1  0  0  0  0
  8 33  1  0  0  0  0
  8 34  1  0  0  0  0
  9 10  1  0  0  0  0
 10 11  2  0  0  0  0
 10 12  1  0  0  0  0
 12 17  1  0  0  0  0
 12 13  2  0  0  0  0
 13 14  1  0  0  0  0
 13 35  1  0  0  0  0
 14 15  2  0  0  0  0
 14 36  1  0  0  0  0
 15 16  1  0  0  0  0
 15 37  1  0  0  0  0
 16 17  2  0  0  0  0
 16 38  1  0  0  0  0
 17 39  1  0  0  0  0
 18 19  1  0  0  0  0
 18 20  1  0  0  0  0
 18 40  1  0  0  0  0
 19 41  1  0  0  0  0
 20 21  1  0  0  0  0
 20 42  1  0  0  0  0
 21 43  1  0  0  0  0
 22 23  2  0  0  0  0
 22 24  1  0  0  0  0
 24 25  1  0  0  0  0
 25 26  2  0  0  0  0
M  CHG  1  24  -1
M  END
> <s_m_source_file>
AV-unprocessed.smi

> <i_m_source_file_index>
101

> <i_lp_mmshare_version>
43012

> <i_f3d_flags>
0

> <s_epik_input>
Tz1jMVtuSF1jKD1PKW4oW2NIXWMxW0NIM10pW0NAQEhdMk9bQ0BIXShbQ0BASF0oW09IXSlbQ0BIXTJbT0hdKVtDSDJdT0MoPU8pYzNbY0hdW2NIXVtjSF1bY0hdW2NIXTM=

> <s_epik_cmdline>
J2VwaWtfcHl0aG9uJywgJy1waCcsICc3LjAnLCAnLXRuJywgJzgnLCAnLW1hJywgJzIwMCcsICctbWV0YWxfYmluZGluZycsICctaW1hZScsICc8aW5maWxlLm1hZT4nLCAnLW9tYWUnLCAnPG91dGZpbGUubWFlPic=

> <r_lp_tautomer_probability>
0.999537

> <r_epik_Ionization_Penalty>
3.21006

> <r_epik_Ionization_Penalty_Charging>
5.75142e-08

> <r_epik_Ionization_Penalty_Neutral>
3.21006

> <r_epik_State_Penalty>
3.20925

> <r_epik_Charging_Adjusted_Penalty>
3.20925

> <i_epik_Tot_Q>
-1

> <i_epik_Tot_abs_Q>
1

> <r_epik_Metal_State_Penalty>
0.119957

> <b_epik_Metal_Only>
1

> <s_epik_Chemistry_Notes>
This compound has an ester and may undergo hydrolysis at high or low pH. This compound contains an acetal/aminal-like group ( X-CH(R)-Y where X, Y are N, S, or O) that may be acid/base labile, releasing an aldehyde.

> <s_lp_Force_Field>
OPLS_2005

> <r_lp_Energy>
43.2015

> <b_lp_Chiralities_Consistent>
1

> <s_lp_Variant>
AV-unprocessed.smi:101-19

> <Gold.Version>
5.8.1

> <Gold.Id.Protein>
6NUR|6NUR_protein|mol2

> <Gold.PLP.Fitness>
52.7996

> <Gold.PLP.PLP>
-39.8884

> <Gold.PLP.part.hbond>
-4.7234

> <Gold.PLP.part.metal>
0.0000

> <Gold.PLP.part.buried>
-5.4831

> <Gold.PLP.part.nonpolar>
-31.2776

> <Gold.PLP.part.repulsive>
0.0783

> <Gold.PLP.ligand.clash>
0.0000

> <Gold.PLP.ligand.torsion>
1.0418

> <Gold.PLP.Chemscore.Hbond>
4.8960

> <Gold.PLP.Chemscore.CHOScore>
0.0835

> <Gold.PLP.Chemscore.Metal>
0.0000

> <Gold.Chemscore.Hbonds>
donor molecule, donor type, donor heavy atom, donor atom, acceptor molecule, acceptor atom, score
      L1  H    21    43       P1  7948  1.00
      P1  H  6896  6909       L1    24  1.84
      P1  H  7997  8009       L1    11  0.70
      P1  H 10752 10764       L1     6  0.90
      L1  C     3    30       P1  7948  0.05

> <Gold.PLP.Chemscore.Internal.Correction>
0.0561

> <Gold.Rescore>
     Score         DG    S(hbond)    S(metal)    S(lipo)     H(rot)  DE(clash)    DE(int)     intcor
     10.72     -17.32       2.66        0.00      96.57       3.27       0.15       6.45       ----

> <Gold.Chemscore.Fitness>
10.7201

> <Gold.Chemscore.DG>
-17.3181

> <Gold.Chemscore.ZeroCoef>
-5.4800

> <Gold.Chemscore.Hbond>
2.6646

> <Gold.Chemscore.Metal>
0.0000

> <Gold.Chemscore.Lipo>
96.5663

> <Gold.Chemscore.Internal_Hbond>
0.0000

> <Gold.Chemscore.DEClash>
0.1505

> <Gold.Chemscore.DEInternal>
6.4475

> <Gold.Chemscore.Rot>
3.2656

> <Gold.Chemscore.Internal.Correction>
   9.000000E+99

> <Gold.Chemscore.Hbonds>
donor molecule, donor type, donor heavy atom, donor atom, acceptor molecule, acceptor atom, score
      L1  H    21    43       P1  7948  1.00
      P1  H  6896  6909       L1    24  0.51
      P1  H  7997  8009       L1    11  0.13
      P1  H 10752 10764       L1     6  0.17

> <Gold.Chemscore.Hbond.Weighted>
-8.8997

> <Gold.Chemscore.Metal.Weighted>
-0.0000

> <Gold.Chemscore.Lipo.Weighted>
-11.2983

> <Gold.Chemscore.Internal_Hbond.Weighted>
0.0000

> <Gold.Chemscore.DEClash.Weighted>
0.1505

> <Gold.Chemscore.DEInternal.Weighted>
6.4475

> <Gold.Chemscore.Rot.Weighted>
8.3598

> <Gold.Chemscore.Internal.Correction.Weighted>
   9.000000E+99

> <Gold.Protein.RotatedTorsions>
[ 6907 6896 6895 6894 ] final   -7.77 input  -60.11 | X-H torsion
[ 7974 7965 7964 7962 ] final  -45.65 input  175.53 | X-H torsion
[ 8008 7997 7996 7995 ] final  117.78 input   59.86 | X-H torsion
[ 10167 10162 10161 10158 ] final   24.36 input  -65.29 | X-H torsion
[ 10718 10713 10712 10709 ] final   47.69 input   66.30 | X-H torsion
[ 10763 10752 10751 10750 ] final  -49.72 input  -60.55 | X-H torsion
[ 11005 11000 10999 10996 ] final  -43.28 input  -57.11 | X-H torsion

> <Gold.Protein.ActiveResidues>
 VAL166  LYS551  ARG553  GLY616  TRP617  ASP618  TYR619  PRO620  LYS621  CYS622 
 ASP623  PHE694  ASN695  SER759  ASP760  ASP761  ALA762  ILE779  LEU786  VAL792 
 PHE793  MET794  SER795  GLU796  ALA797  LYS798  CYS799  TRP800  GLU811  SER814 

> <Gold.Protein.RotatedAtoms>
  151.4442  135.1023  159.9678 H   0  0  0  0  0  0  0  0  0  0  0  0  # atno 6907 bound_to 6896
  152.4911  133.8500  159.7207 H   0  0  0  0  0  0  0  0  0  0  0  0  # atno 6908 bound_to 6896
  150.9067  133.6990  159.2892 H   0  0  0  0  0  0  0  0  0  0  0  0  # atno 6909 bound_to 6896
  145.9799  140.7294  142.9368 H   0  0  0  0  0  0  0  0  0  0  0  0  # atno 7974 bound_to 7965
  156.2512  140.2889  156.0732 H   0  0  0  0  0  0  0  0  0  0  0  0  # atno 8008 bound_to 7997
  155.1648  140.0400  157.2868 H   0  0  0  0  0  0  0  0  0  0  0  0  # atno 8009 bound_to 7997
  154.6367  140.2512  155.7376 H   0  0  0  0  0  0  0  0  0  0  0  0  # atno 8010 bound_to 7997
  140.5194  144.0028  150.6409 H   0  0  0  0  0  0  0  0  0  0  0  0  # atno 10167 bound_to 10162
  157.4610  130.8196  149.7886 H   0  0  0  0  0  0  0  0  0  0  0  0  # atno 10718 bound_to 10713
  154.0987  135.6566  153.4864 H   0  0  0  0  0  0  0  0  0  0  0  0  # atno 10763 bound_to 10752
  153.0296  135.5220  154.7308 H   0  0  0  0  0  0  0  0  0  0  0  0  # atno 10764 bound_to 10752
  154.6454  135.2994  155.0022 H   0  0  0  0  0  0  0  0  0  0  0  0  # atno 10765 bound_to 10752
  141.0373  133.6794  156.2711 H   0  0  0  0  0  0  0  0  0  0  0  0  # atno 11005 bound_to 11000
  144.6859  140.2891  143.7280 LP  0  0  0  0  0  0  0  0  0  0  0  0  # atno 17320 bound_to 7965
  145.7784  139.1882  143.2172 LP  0  0  0  0  0  0  0  0  0  0  0  0  # atno 17321 bound_to 7965
  140.3373  143.3041  152.0625 LP  0  0  0  0  0  0  0  0  0  0  0  0  # atno 17342 bound_to 10162
  139.4919  144.6467  151.6762 LP  0  0  0  0  0  0  0  0  0  0  0  0  # atno 17343 bound_to 10162
  156.0029  130.3871  150.2539 LP  0  0  0  0  0  0  0  0  0  0  0  0  # atno 17370 bound_to 10713
  157.0717  131.0118  151.3188 LP  0  0  0  0  0  0  0  0  0  0  0  0  # atno 17371 bound_to 10713
  140.6299  134.5275  157.5558 LP  0  0  0  0  0  0  0  0  0  0  0  0  # atno 17394 bound_to 11000
  139.9250  134.8074  156.1096 LP  0  0  0  0  0  0  0  0  0  0  0  0  # atno 17395 bound_to 11000

$$$$
