AV-unprocessed.smi:2243|AV-procd|sdf|9062|dock4
  -GOLD-   2272012273D 1   1.00000     0.00000
 Structure written by MMmdl.
 34 35  0  0  0  0  0  0  0  0  1 V2000
  146.7479  141.5448  153.7841 C   0  0  0  0  0  0  0  0  0  0  0  0
  147.6139  140.2975  153.5369 C   0  0  2  0  0  0  0  0  0  0  0  0
  146.7357  139.1270  153.5585 N   0  0  0  0  0  0  0  0  0  0  0  0
  146.4839  138.3093  152.5247 C   0  0  0  0  0  0  0  0  0  0  0  0
  146.9814  138.4452  151.4067 O   0  0  0  0  0  0  0  0  0  0  0  0
  145.6287  137.3344  152.8757 N   0  0  0  0  0  0  0  0  0  0  0  0
  145.1317  136.2864  152.0604 C   0  0  0  0  0  0  0  0  0  0  0  0
  145.5486  135.9662  150.8344 N   0  0  0  0  0  0  0  0  0  0  0  0
  144.7595  134.8857  150.4677 C   0  0  0  0  0  0  0  0  0  0  0  0
  143.9024  134.6116  151.5024 C   0  0  0  0  0  0  0  0  0  0  0  0
  144.1277  135.4957  152.5233 O   0  0  0  0  0  0  0  0  0  0  0  0
  148.7642  140.1325  154.5657 C   0  0  0  0  0  0  0  0  0  0  0  0
  149.4990  141.4584  154.8502 C   0  0  0  0  0  0  0  0  0  0  0  0
  150.6823  141.2486  155.8089 C   0  0  0  0  0  0  0  0  0  0  0  0
  151.5800  140.2850  155.2728 O   0  0  0  0  0  0  0  0  0  0  0  0
  150.9792  139.0055  155.1172 C   0  0  0  0  0  0  0  0  0  0  0  0
  149.8123  139.0895  154.1202 C   0  0  0  0  0  0  0  0  0  0  0  0
  147.3147  142.4651  153.6470 H   0  0  0  0  0  0  0  0  0  0  0  0
  146.3362  141.5500  154.7939 H   0  0  0  0  0  0  0  0  0  0  0  0
  145.9114  141.5835  153.0850 H   0  0  0  0  0  0  0  0  0  0  0  0
  148.0626  140.4040  152.5475 H   0  0  0  0  0  0  0  0  0  0  0  0
  146.2794  138.9272  154.4367 H   0  0  0  0  0  0  0  0  0  0  0  0
  145.2969  137.3411  153.8288 H   0  0  0  0  0  0  0  0  0  0  0  0
  144.8684  134.4011  149.5087 H   0  0  0  0  0  0  0  0  0  0  0  0
  143.1279  133.8756  151.6597 H   0  0  0  0  0  0  0  0  0  0  0  0
  148.3302  139.7845  155.5046 H   0  0  0  0  0  0  0  0  0  0  0  0
  149.8626  141.8879  153.9158 H   0  0  0  0  0  0  0  0  0  0  0  0
  148.8208  142.1902  155.2881 H   0  0  0  0  0  0  0  0  0  0  0  0
  151.2186  142.1870  155.9509 H   0  0  0  0  0  0  0  0  0  0  0  0
  150.3342  140.9297  156.7925 H   0  0  0  0  0  0  0  0  0  0  0  0
  151.7318  138.3061  154.7527 H   0  0  0  0  0  0  0  0  0  0  0  0
  150.6392  138.6311  156.0839 H   0  0  0  0  0  0  0  0  0  0  0  0
  149.3611  138.1018  154.0236 H   0  0  0  0  0  0  0  0  0  0  0  0
  150.1975  139.3522  153.1341 H   0  0  0  0  0  0  0  0  0  0  0  0
  1  2  1  0  0  0  0
  1 18  1  0  0  0  0
  1 19  1  0  0  0  0
  1 20  1  0  0  0  0
  2  3  1  0  0  0  0
  2 12  1  0  0  0  0
  2 21  1  0  0  0  0
  3  4  1  0  0  0  0
  3 22  1  0  0  0  0
  4  5  2  0  0  0  0
  4  6  1  0  0  0  0
  6  7  1  0  0  0  0
  6 23  1  0  0  0  0
  7 11  1  0  0  0  0
  7  8  2  0  0  0  0
  8  9  1  0  0  0  0
  9 10  2  0  0  0  0
  9 24  1  0  0  0  0
 10 11  1  0  0  0  0
 10 25  1  0  0  0  0
 12 17  1  0  0  0  0
 12 13  1  0  0  0  0
 12 26  1  0  0  0  0
 13 14  1  0  0  0  0
 13 27  1  0  0  0  0
 13 28  1  0  0  0  0
 14 15  1  0  0  0  0
 14 29  1  0  0  0  0
 14 30  1  0  0  0  0
 15 16  1  0  0  0  0
 16 17  1  0  0  0  0
 16 31  1  0  0  0  0
 16 32  1  0  0  0  0
 17 33  1  0  0  0  0
 17 34  1  0  0  0  0
M  END
> <s_m_source_file>
AV-unprocessed.smi

> <i_m_source_file_index>
2243

> <i_lp_mmshare_version>
43012

> <i_f3d_flags>
0

> <s_epik_input>
W0NIMl0xW0NIMl1PW0NIMl1bQ0gyXVtDSF0xW0NASF0oW0NIM10pW05IXUMoPU8pW05IXWMybltjSF1bY0hdbzI=

> <s_epik_cmdline>
J2VwaWtfcHl0aG9uJywgJy1waCcsICc3LjAnLCAnLXRuJywgJzgnLCAnLW1hJywgJzIwMCcsICctbWV0YWxfYmluZGluZycsICctaW1hZScsICc8aW5maWxlLm1hZT4nLCAnLW9tYWUnLCAnPG91dGZpbGUubWFlPic=

> <r_lp_tautomer_probability>
0.785861

> <r_epik_Ionization_Penalty>
5.17761e-05

> <r_epik_Ionization_Penalty_Charging>
0

> <r_epik_Ionization_Penalty_Neutral>
5.17761e-05

> <r_epik_State_Penalty>
0.0447104

> <r_epik_Charging_Adjusted_Penalty>
0.0447104

> <i_epik_Tot_Q>
0

> <i_epik_Tot_abs_Q>
0

> <r_epik_Metal_State_Penalty>
0.0593601

> <b_epik_Metal_Only>
0

> <s_lp_Force_Field>
OPLS_2005

> <r_lp_Energy>
10.6877

> <b_lp_Chiralities_Consistent>
1

> <s_lp_Variant>
AV-unprocessed.smi:2243-1

> <Gold.Version>
5.8.1

> <Gold.Id.Protein>
6NUR|6NUR_protein|mol2

> <Gold.PLP.Fitness>
38.0055

> <Gold.PLP.PLP>
-29.6624

> <Gold.PLP.part.hbond>
-2.0000

> <Gold.PLP.part.metal>
0.0000

> <Gold.PLP.part.buried>
-3.7247

> <Gold.PLP.part.nonpolar>
-26.6022

> <Gold.PLP.part.repulsive>
2.0048

> <Gold.PLP.ligand.clash>
0.0000

> <Gold.PLP.ligand.torsion>
0.2280

> <Gold.PLP.Chemscore.Hbond>
1.9280

> <Gold.PLP.Chemscore.CHOScore>
1.0000

> <Gold.PLP.Chemscore.Metal>
0.0000

> <Gold.Chemscore.Hbonds>
donor molecule, donor type, donor heavy atom, donor atom, acceptor molecule, acceptor atom, score
      P1  H  7954  7966       L1     5  1.00
      P1  H  7989  7998       L1    15  0.91
      L1  C     9    24       P1  7921  1.00

> <Gold.PLP.Chemscore.Internal.Correction>
0.0151

> <Gold.Rescore>
     Score         DG    S(hbond)    S(metal)    S(lipo)     H(rot)  DE(clash)    DE(int)     intcor
     11.24     -13.11       1.17        0.00      60.86       1.32       0.45       1.42       ----

> <Gold.Chemscore.Fitness>
11.2411

> <Gold.Chemscore.DG>
-13.1147

> <Gold.Chemscore.ZeroCoef>
-5.4800

> <Gold.Chemscore.Hbond>
1.1658

> <Gold.Chemscore.Metal>
0.0000

> <Gold.Chemscore.Lipo>
60.8574

> <Gold.Chemscore.Internal_Hbond>
0.0000

> <Gold.Chemscore.DEClash>
0.4524

> <Gold.Chemscore.DEInternal>
1.4213

> <Gold.Chemscore.Rot>
1.3201

> <Gold.Chemscore.Internal.Correction>
   9.000000E+99

> <Gold.Chemscore.Hbonds>
donor molecule, donor type, donor heavy atom, donor atom, acceptor molecule, acceptor atom, score
      P1  H  7954  7966       L1     5  0.95
      P1  H  7989  7998       L1    15  0.08

> <Gold.Chemscore.Hbond.Weighted>
-3.8938

> <Gold.Chemscore.Metal.Weighted>
-0.0000

> <Gold.Chemscore.Lipo.Weighted>
-7.1203

> <Gold.Chemscore.Internal_Hbond.Weighted>
0.0000

> <Gold.Chemscore.DEClash.Weighted>
0.4524

> <Gold.Chemscore.DEInternal.Weighted>
1.4213

> <Gold.Chemscore.Rot.Weighted>
3.3794

> <Gold.Chemscore.Internal.Correction.Weighted>
   9.000000E+99

> <Gold.Protein.RotatedTorsions>
[ 6907 6896 6895 6894 ] final  106.68 input  -60.11 | X-H torsion
[ 7974 7965 7964 7962 ] final  -57.09 input  175.53 | X-H torsion
[ 8008 7997 7996 7995 ] final -121.04 input   59.86 | X-H torsion
[ 10167 10162 10161 10158 ] final  137.66 input  -65.29 | X-H torsion
[ 10718 10713 10712 10709 ] final   83.99 input   66.30 | X-H torsion
[ 10763 10752 10751 10750 ] final  -69.29 input  -60.55 | X-H torsion
[ 11005 11000 10999 10996 ] final  -48.83 input  -57.11 | X-H torsion

> <Gold.Protein.ActiveResidues>
 VAL166  LYS551  ARG553  GLY616  TRP617  ASP618  TYR619  PRO620  LYS621  CYS622 
 ASP623  PHE694  ASN695  SER759  ASP760  ASP761  ALA762  ILE779  LEU786  VAL792 
 PHE793  MET794  SER795  GLU796  ALA797  LYS798  CYS799  TRP800  GLU811  SER814 

> <Gold.Protein.RotatedAtoms>
  152.5184  133.9346  159.7596 H   0  0  0  0  0  0  0  0  0  0  0  0  # atno 6907 bound_to 6896
  150.9689  133.6357  159.2748 H   0  0  0  0  0  0  0  0  0  0  0  0  # atno 6908 bound_to 6896
  151.3575  135.0903  159.9476 H   0  0  0  0  0  0  0  0  0  0  0  0  # atno 6909 bound_to 6896
  145.8551  140.8325  142.9966 H   0  0  0  0  0  0  0  0  0  0  0  0  # atno 7974 bound_to 7965
  155.1415  140.0402  157.2799 H   0  0  0  0  0  0  0  0  0  0  0  0  # atno 8008 bound_to 7997
  154.6469  140.2560  155.7231 H   0  0  0  0  0  0  0  0  0  0  0  0  # atno 8009 bound_to 7997
  156.2559  140.2844  156.0887 H   0  0  0  0  0  0  0  0  0  0  0  0  # atno 8010 bound_to 7997
  139.5137  144.6397  151.5601 H   0  0  0  0  0  0  0  0  0  0  0  0  # atno 10167 bound_to 10162
  157.6889  131.0114  150.2605 H   0  0  0  0  0  0  0  0  0  0  0  0  # atno 10718 bound_to 10713
  154.4012  135.6030  153.5898 H   0  0  0  0  0  0  0  0  0  0  0  0  # atno 10763 bound_to 10752
  152.9788  135.5907  154.4181 H   0  0  0  0  0  0  0  0  0  0  0  0  # atno 10764 bound_to 10752
  154.3980  135.2842  155.2092 H   0  0  0  0  0  0  0  0  0  0  0  0  # atno 10765 bound_to 10752
  141.0724  133.6675  156.3497 H   0  0  0  0  0  0  0  0  0  0  0  0  # atno 11005 bound_to 11000
  144.6728  140.1011  143.7460 LP  0  0  0  0  0  0  0  0  0  0  0  0  # atno 17320 bound_to 7965
  145.9313  139.2608  143.1323 LP  0  0  0  0  0  0  0  0  0  0  0  0  # atno 17321 bound_to 7965
  140.6159  143.9349  150.6488 LP  0  0  0  0  0  0  0  0  0  0  0  0  # atno 17342 bound_to 10162
  140.2607  143.3526  152.1325 LP  0  0  0  0  0  0  0  0  0  0  0  0  # atno 17343 bound_to 10162
  156.3185  130.3782  149.7596 LP  0  0  0  0  0  0  0  0  0  0  0  0  # atno 17370 bound_to 10713
  156.5174  130.8199  151.3191 LP  0  0  0  0  0  0  0  0  0  0  0  0  # atno 17371 bound_to 10713
  140.5646  134.5900  157.5442 LP  0  0  0  0  0  0  0  0  0  0  0  0  # atno 17394 bound_to 11000
  139.9536  134.7573  156.0391 LP  0  0  0  0  0  0  0  0  0  0  0  0  # atno 17395 bound_to 11000

$$$$
