AV-unprocessed.smi:3030|AV-procd|sdf|11534|dock8
  -GOLD-   2272016483D 1   1.00000     0.00000
 Structure written by MMmdl.
 52 53  0  0  0  0  0  0  0  0  1 V2000
  150.1074  144.4791  159.1610 C   0  0  0  0  0  0  0  0  0  0  0  0
  151.0588  143.2783  159.1183 C   0  0  0  0  0  0  0  0  0  0  0  0
  151.6922  143.0450  160.4083 N   0  0  0  0  0  0  0  0  0  0  0  0
  151.4681  143.8950  161.4864 C   0  0  0  0  0  0  0  0  0  0  0  0
  152.0684  143.7680  162.6855 C   0  0  0  0  0  0  0  0  0  0  0  0
  153.0336  142.6708  162.8992 C   0  0  0  0  0  0  0  0  0  0  0  0
  153.6033  142.5275  163.9810 O   0  0  0  0  0  0  0  0  0  0  0  0
  153.2745  141.7630  161.7468 C   0  0  0  0  0  0  0  0  0  0  0  0
  154.2053  140.7315  161.9502 N   0  0  0  0  0  0  0  0  0  0  0  0
  154.3478  139.5736  161.2806 C   0  0  0  0  0  0  0  0  0  0  0  0
  153.6267  139.1767  160.3655 O   0  0  0  0  0  0  0  0  0  0  0  0
  155.3886  138.8736  161.7546 N   0  0  0  0  0  0  0  0  0  0  0  0
  155.8168  137.5618  161.2782 C   0  0  1  0  0  0  0  0  0  0  0  0
  157.3230  137.5542  160.9558 C   0  0  0  0  0  0  0  0  0  0  0  0
  157.7306  136.2416  160.2559 C   0  0  1  0  0  0  0  0  0  0  0  0
  159.2390  136.1986  159.9744 C   0  0  0  0  0  0  0  0  0  0  0  0
  157.2707  135.0125  161.0667 C   0  0  0  0  0  0  0  0  0  0  0  0
  155.7721  135.0865  161.4197 C   0  0  0  0  0  0  0  0  0  0  0  0
  155.4215  136.3742  162.2078 C   0  0  1  0  0  0  0  0  0  0  0  0
  156.0156  136.3883  163.6610 C   0  0  0  0  0  0  0  0  0  0  0  0
  155.6029  135.1470  164.4781 C   0  0  0  0  0  0  0  0  0  0  0  0
  155.6456  137.6404  164.4807 C   0  0  0  0  0  0  0  0  0  0  0  0
  152.6054  142.0084  160.5913 C   0  0  0  0  0  0  0  0  0  0  0  0
  149.6438  144.6405  158.1877 H   0  0  0  0  0  0  0  0  0  0  0  0
  150.6372  145.3926  159.4326 H   0  0  0  0  0  0  0  0  0  0  0  0
  149.3101  144.3243  159.8887 H   0  0  0  0  0  0  0  0  0  0  0  0
  150.5133  142.3846  158.8124 H   0  0  0  0  0  0  0  0  0  0  0  0
  151.8265  143.4411  158.3606 H   0  0  0  0  0  0  0  0  0  0  0  0
  150.7547  144.6828  161.2915 H   0  0  0  0  0  0  0  0  0  0  0  0
  151.8600  144.4507  163.4959 H   0  0  0  0  0  0  0  0  0  0  0  0
  154.8389  140.8853  162.7212 H   0  0  0  0  0  0  0  0  0  0  0  0
  155.9223  139.2744  162.5118 H   0  0  0  0  0  0  0  0  0  0  0  0
  155.3045  137.4159  160.3245 H   0  0  0  0  0  0  0  0  0  0  0  0
  157.5626  138.3963  160.3049 H   0  0  0  0  0  0  0  0  0  0  0  0
  157.9075  137.6988  161.8647 H   0  0  0  0  0  0  0  0  0  0  0  0
  157.2190  136.2091  159.2927 H   0  0  0  0  0  0  0  0  0  0  0  0
  159.8159  136.2334  160.8991 H   0  0  0  0  0  0  0  0  0  0  0  0
  159.5479  137.0430  159.3576 H   0  0  0  0  0  0  0  0  0  0  0  0
  159.5136  135.2861  159.4447 H   0  0  0  0  0  0  0  0  0  0  0  0
  157.4630  134.1039  160.4953 H   0  0  0  0  0  0  0  0  0  0  0  0
  157.8614  134.9245  161.9788 H   0  0  0  0  0  0  0  0  0  0  0  0
  155.1953  135.0682  160.4939 H   0  0  0  0  0  0  0  0  0  0  0  0
  155.4613  134.1886  161.9509 H   0  0  0  0  0  0  0  0  0  0  0  0
  154.3356  136.3868  162.3134 H   0  0  0  0  0  0  0  0  0  0  0  0
  157.1028  136.3663  163.5987 H   0  0  0  0  0  0  0  0  0  0  0  0
  154.5191  135.0298  164.5024 H   0  0  0  0  0  0  0  0  0  0  0  0
  155.9494  135.2180  165.5096 H   0  0  0  0  0  0  0  0  0  0  0  0
  156.0363  134.2306  164.0796 H   0  0  0  0  0  0  0  0  0  0  0  0
  154.5732  137.8357  164.4499 H   0  0  0  0  0  0  0  0  0  0  0  0
  156.1689  138.5275  164.1291 H   0  0  0  0  0  0  0  0  0  0  0  0
  155.9282  137.5278  165.5276 H   0  0  0  0  0  0  0  0  0  0  0  0
  152.7362  141.4143  159.7007 H   0  0  0  0  0  0  0  0  0  0  0  0
  1  2  1  0  0  0  0
  1 24  1  0  0  0  0
  1 25  1  0  0  0  0
  1 26  1  0  0  0  0
  2  3  1  0  0  0  0
  2 27  1  0  0  0  0
  2 28  1  0  0  0  0
  3 23  1  0  0  0  0
  3  4  1  0  0  0  0
  4  5  2  0  0  0  0
  4 29  1  0  0  0  0
  5  6  1  0  0  0  0
  5 30  1  0  0  0  0
  6  7  2  0  0  0  0
  6  8  1  0  0  0  0
  8  9  1  0  0  0  0
  8 23  2  0  0  0  0
  9 10  1  0  0  0  0
  9 31  1  0  0  0  0
 10 11  2  0  0  0  0
 10 12  1  0  0  0  0
 12 13  1  0  0  0  0
 12 32  1  0  0  0  0
 13 19  1  0  0  0  0
 13 14  1  0  0  0  0
 13 33  1  0  0  0  0
 14 15  1  0  0  0  0
 14 34  1  0  0  0  0
 14 35  1  0  0  0  0
 15 16  1  0  0  0  0
 15 17  1  0  0  0  0
 15 36  1  0  0  0  0
 16 37  1  0  0  0  0
 16 38  1  0  0  0  0
 16 39  1  0  0  0  0
 17 18  1  0  0  0  0
 17 40  1  0  0  0  0
 17 41  1  0  0  0  0
 18 19  1  0  0  0  0
 18 42  1  0  0  0  0
 18 43  1  0  0  0  0
 19 20  1  0  0  0  0
 19 44  1  0  0  0  0
 20 21  1  0  0  0  0
 20 22  1  0  0  0  0
 20 45  1  0  0  0  0
 21 46  1  0  0  0  0
 21 47  1  0  0  0  0
 21 48  1  0  0  0  0
 22 49  1  0  0  0  0
 22 50  1  0  0  0  0
 22 51  1  0  0  0  0
 23 52  1  0  0  0  0
M  END
> <s_m_source_file>
AV-unprocessed.smi

> <i_m_source_file_index>
3030

> <i_lp_mmshare_version>
43012

> <i_f3d_flags>
0

> <s_epik_input>
W0NIM11bQ0gyXW4xW2NIXVtjSF1jKD1PKWMoW2NIXTEpW05IXUMoPU8pW05IXVtDQEBIXTJbQ0gyXVtDQEBIXShbQ0gzXSlbQ0gyXVtDSDJdW0NASF0yW0NIXShbQ0gzXSlbQ0gzXQ==

> <s_epik_cmdline>
J2VwaWtfcHl0aG9uJywgJy1waCcsICc3LjAnLCAnLXRuJywgJzgnLCAnLW1hJywgJzIwMCcsICctbWV0YWxfYmluZGluZycsICctaW1hZScsICc8aW5maWxlLm1hZT4nLCAnLW9tYWUnLCAnPG91dGZpbGUubWFlPic=

> <r_lp_tautomer_probability>
1

> <r_epik_Ionization_Penalty>
0.00147933

> <r_epik_Ionization_Penalty_Charging>
0.00145753

> <r_epik_Ionization_Penalty_Neutral>
2.17987e-05

> <r_epik_State_Penalty>
0.00097457

> <r_epik_Charging_Adjusted_Penalty>
0.0024321

> <i_epik_Tot_Q>
0

> <i_epik_Tot_abs_Q>
0

> <r_epik_Metal_State_Penalty>
-0

> <b_epik_Metal_Only>
0

> <s_lp_Force_Field>
OPLS_2005

> <r_lp_Energy>
13.818

> <b_lp_Chiralities_Consistent>
1

> <s_lp_Variant>
AV-unprocessed.smi:3030-2

> <Gold.Version>
5.8.1

> <Gold.Id.Protein>
6NUR|6NUR_protein|mol2

> <Gold.PLP.Fitness>
45.1224

> <Gold.PLP.PLP>
-45.5898

> <Gold.PLP.part.hbond>
-0.1034

> <Gold.PLP.part.metal>
0.0000

> <Gold.PLP.part.buried>
-5.7798

> <Gold.PLP.part.nonpolar>
-39.2831

> <Gold.PLP.part.repulsive>
0.0794

> <Gold.PLP.ligand.clash>
0.0000

> <Gold.PLP.ligand.torsion>
0.2668

> <Gold.PLP.Chemscore.Hbond>
0.0000

> <Gold.PLP.Chemscore.CHOScore>
0.0000

> <Gold.PLP.Chemscore.Metal>
0.0000

> <Gold.PLP.Chemscore.Internal.Correction>
0.0661

> <Gold.Rescore>
     Score         DG    S(hbond)    S(metal)    S(lipo)     H(rot)  DE(clash)    DE(int)     intcor
     13.90     -15.50       0.00        0.00     113.40       1.27       0.10       1.50       ----

> <Gold.Chemscore.Fitness>
13.8953

> <Gold.Chemscore.DG>
-15.4999

> <Gold.Chemscore.ZeroCoef>
-5.4800

> <Gold.Chemscore.Hbond>
0.0000

> <Gold.Chemscore.Metal>
0.0000

> <Gold.Chemscore.Lipo>
113.3961

> <Gold.Chemscore.Internal_Hbond>
0.0000

> <Gold.Chemscore.DEClash>
0.1035

> <Gold.Chemscore.DEInternal>
1.5011

> <Gold.Chemscore.Rot>
1.2685

> <Gold.Chemscore.Internal.Correction>
   9.000000E+99

> <Gold.Chemscore.Hbond.Weighted>
-0.0000

> <Gold.Chemscore.Metal.Weighted>
-0.0000

> <Gold.Chemscore.Lipo.Weighted>
-13.2673

> <Gold.Chemscore.Internal_Hbond.Weighted>
0.0000

> <Gold.Chemscore.DEClash.Weighted>
0.1035

> <Gold.Chemscore.DEInternal.Weighted>
1.5011

> <Gold.Chemscore.Rot.Weighted>
3.2474

> <Gold.Chemscore.Internal.Correction.Weighted>
   9.000000E+99

> <Gold.Protein.RotatedTorsions>
[ 6907 6896 6895 6894 ] final -114.60 input  -60.11 | X-H torsion
[ 7974 7965 7964 7962 ] final  -36.63 input  175.53 | X-H torsion
[ 8008 7997 7996 7995 ] final  -14.95 input   59.86 | X-H torsion
[ 10167 10162 10161 10158 ] final -110.07 input  -65.29 | X-H torsion
[ 10718 10713 10712 10709 ] final -106.35 input   66.30 | X-H torsion
[ 10763 10752 10751 10750 ] final   50.21 input  -60.55 | X-H torsion
[ 11005 11000 10999 10996 ] final -177.42 input  -57.11 | X-H torsion

> <Gold.Protein.ActiveResidues>
 VAL166  LYS551  ARG553  GLY616  TRP617  ASP618  TYR619  PRO620  LYS621  CYS622 
 ASP623  PHE694  ASN695  SER759  ASP760  ASP761  ALA762  ILE779  LEU786  VAL792 
 PHE793  MET794  SER795  GLU796  ALA797  LYS798  CYS799  TRP800  GLU811  SER814 

> <Gold.Protein.RotatedAtoms>
  150.7914  133.8778  159.3276 H   0  0  0  0  0  0  0  0  0  0  0  0  # atno 6907 bound_to 6896
  151.6615  135.0987  160.0190 H   0  0  0  0  0  0  0  0  0  0  0  0  # atno 6908 bound_to 6896
  152.3989  133.6749  159.6335 H   0  0  0  0  0  0  0  0  0  0  0  0  # atno 6909 bound_to 6896
  146.0645  140.6301  142.8981 H   0  0  0  0  0  0  0  0  0  0  0  0  # atno 7974 bound_to 7965
  154.5169  140.2209  155.9050 H   0  0  0  0  0  0  0  0  0  0  0  0  # atno 8008 bound_to 7997
  156.1617  140.3140  155.8784 H   0  0  0  0  0  0  0  0  0  0  0  0  # atno 8009 bound_to 7997
  155.3737  140.0468  157.3035 H   0  0  0  0  0  0  0  0  0  0  0  0  # atno 8010 bound_to 7997
  140.1485  143.4219  152.1512 H   0  0  0  0  0  0  0  0  0  0  0  0  # atno 10167 bound_to 10162
  156.0386  130.5608  150.7668 H   0  0  0  0  0  0  0  0  0  0  0  0  # atno 10718 bound_to 10713
  152.9785  135.5886  154.4215 H   0  0  0  0  0  0  0  0  0  0  0  0  # atno 10763 bound_to 10752
  154.3839  135.2767  155.2197 H   0  0  0  0  0  0  0  0  0  0  0  0  # atno 10764 bound_to 10752
  154.4099  135.6084  153.6001 H   0  0  0  0  0  0  0  0  0  0  0  0  # atno 10765 bound_to 10752
  140.4411  134.6431  157.4758 H   0  0  0  0  0  0  0  0  0  0  0  0  # atno 11005 bound_to 11000
  144.7194  140.4322  143.7019 LP  0  0  0  0  0  0  0  0  0  0  0  0  # atno 17320 bound_to 7965
  145.6502  139.1564  143.2866 LP  0  0  0  0  0  0  0  0  0  0  0  0  # atno 17321 bound_to 7965
  139.5437  144.7280  151.4650 LP  0  0  0  0  0  0  0  0  0  0  0  0  # atno 17342 bound_to 10162
  140.6717  143.8279  150.7008 LP  0  0  0  0  0  0  0  0  0  0  0  0  # atno 17343 bound_to 10162
  157.5172  131.0929  151.0124 LP  0  0  0  0  0  0  0  0  0  0  0  0  # atno 17370 bound_to 10713
  157.0464  130.5769  149.5363 LP  0  0  0  0  0  0  0  0  0  0  0  0  # atno 17371 bound_to 10713
  140.0069  134.6749  155.9440 LP  0  0  0  0  0  0  0  0  0  0  0  0  # atno 17394 bound_to 11000
  141.1705  133.6537  156.4635 LP  0  0  0  0  0  0  0  0  0  0  0  0  # atno 17395 bound_to 11000

$$$$
