AV-unprocessed.smi:66|AV-procd|sdf|628|dock8
  -GOLD-   2262016523D 1   1.00000     0.00000
 Structure written by MMmdl.
 27 29  0  0  0  0  0  0  0  0  3 V2000
  153.7674  139.8955  158.0630 O   0  0  0  0  0  0  0  0  0  0  0  0
  152.9295  140.3674  158.8625 C   0  0  0  0  0  0  0  0  0  0  0  0
  153.1161  140.5338  160.0889 O   0  5  0  0  0  0  0  0  0  0  0  0
  151.5600  140.7565  158.2814 C   0  0  1  0  0  0  0  0  0  0  0  0
  151.1189  142.1656  158.7136 C   0  0  0  0  0  0  0  0  0  0  0  0
  151.5401  143.0525  157.5429 C   0  0  2  0  0  0  0  0  0  0  0  0
  150.7765  144.2380  157.4609 O   0  0  0  0  0  0  0  0  0  0  0  0
  151.3395  142.1437  156.3290 C   0  0  0  0  0  0  0  0  0  0  0  0
  151.5885  140.7935  156.8163 N   0  0  0  0  0  0  0  0  0  0  0  0
  151.3545  139.6364  156.0337 C   0  0  0  0  0  0  0  0  0  0  0  0
  150.7234  139.8096  154.8434 N   0  0  0  0  0  0  0  0  0  0  0  0
  150.4880  138.7338  154.0865 C   0  0  0  0  0  0  0  0  0  0  0  0
  150.8132  137.4695  154.3654 N   0  0  0  0  0  0  0  0  0  0  0  0
  151.4404  137.2726  155.5423 C   0  0  0  0  0  0  0  0  0  0  0  0
  151.8930  136.1752  156.1270 N   0  5  0  0  0  0  0  0  0  0  0  0
  152.4389  136.5456  157.3120 C   0  0  0  0  0  0  0  0  0  0  0  0
  152.3686  137.8713  157.5443 N   0  0  0  0  0  0  0  0  0  0  0  0
  151.7364  138.3199  156.4176 C   0  0  0  0  0  0  0  0  0  0  0  0
  150.8170  140.0382  158.6310 H   0  0  0  0  0  0  0  0  0  0  0  0
  150.0335  142.1797  158.8237 H   0  0  0  0  0  0  0  0  0  0  0  0
  151.5481  142.4904  159.6626 H   0  0  0  0  0  0  0  0  0  0  0  0
  152.5955  143.3112  157.6394 H   0  0  0  0  0  0  0  0  0  0  0  0
  150.2105  144.1734  156.7073 H   0  0  0  0  0  0  0  0  0  0  0  0
  150.3156  142.2051  155.9566 H   0  0  0  0  0  0  0  0  0  0  0  0
  152.0235  142.4194  155.5262 H   0  0  0  0  0  0  0  0  0  0  0  0
  149.9836  138.9064  153.1473 H   0  0  0  0  0  0  0  0  0  0  0  0
  152.8718  135.7962  157.9632 H   0  0  0  0  0  0  0  0  0  0  0  0
  1  2  2  0  0  0  0
  2  3  1  0  0  0  0
  2  4  1  0  0  0  0
  4  5  1  0  0  0  0
  4 19  1  0  0  0  0
  4  9  1  0  0  0  0
  5  6  1  0  0  0  0
  5 20  1  0  0  0  0
  5 21  1  0  0  0  0
  6  7  1  0  0  0  0
  6  8  1  0  0  0  0
  6 22  1  0  0  0  0
  7 23  1  0  0  0  0
  8 24  1  0  0  0  0
  8 25  1  0  0  0  0
  8  9  1  0  0  0  0
  9 10  1  0  0  0  0
 10 11  1  0  0  0  0
 10 18  2  0  0  0  0
 11 12  2  0  0  0  0
 12 26  1  0  0  0  0
 12 13  1  0  0  0  0
 13 14  2  0  0  0  0
 14 15  1  0  0  0  0
 14 18  1  0  0  0  0
 15 16  1  0  0  0  0
 16 17  2  0  0  0  0
 16 27  1  0  0  0  0
 17 18  1  0  0  0  0
M  CHG  1   3  -1
M  CHG  1  15  -1
M  END
> <s_m_source_file>
AV-unprocessed.smi

> <i_m_source_file_index>
66

> <i_lp_mmshare_version>
43012

> <i_f3d_flags>
0

> <s_epik_input>
Tz1DKFtPSF0pW0NAQEhdMVtDSDJdW0NAQEhdKFtPSF0pW0NIMl1OMWMobltjSF1uMiljKGMyMylbbkhdW2NIXW4z

> <s_epik_cmdline>
J2VwaWtfcHl0aG9uJywgJy1waCcsICc3LjAnLCAnLXRuJywgJzgnLCAnLW1hJywgJzIwMCcsICctbWV0YWxfYmluZGluZycsICctaW1hZScsICc8aW5maWxlLm1hZT4nLCAnLW9tYWUnLCAnPG91dGZpbGUubWFlPic=

> <r_lp_tautomer_probability>
0.955585

> <r_epik_Ionization_Penalty>
7.65809

> <r_epik_Ionization_Penalty_Charging>
3.4974

> <r_epik_Ionization_Penalty_Neutral>
4.16069

> <r_epik_State_Penalty>
3.51624

> <r_epik_Charging_Adjusted_Penalty>
7.01364

> <i_epik_Tot_Q>
-2

> <i_epik_Tot_abs_Q>
2

> <r_epik_Metal_State_Penalty>
0.522662

> <b_epik_Metal_Only>
1

> <s_lp_Force_Field>
OPLS_2005

> <r_lp_Energy>
43.3227

> <b_lp_Chiralities_Consistent>
1

> <s_lp_Variant>
AV-unprocessed.smi:66-12

> <Gold.Version>
5.8.1

> <Gold.Id.Protein>
6NUR|6NUR_protein|mol2

> <Gold.PLP.Fitness>
42.0105

> <Gold.PLP.PLP>
-22.4737

> <Gold.PLP.part.hbond>
-3.9832

> <Gold.PLP.part.metal>
0.0000

> <Gold.PLP.part.buried>
-4.4109

> <Gold.PLP.part.nonpolar>
-14.1924

> <Gold.PLP.part.repulsive>
0.2826

> <Gold.PLP.ligand.clash>
0.0000

> <Gold.PLP.ligand.torsion>
0.5082

> <Gold.PLP.Chemscore.Hbond>
5.8000

> <Gold.PLP.Chemscore.CHOScore>
1.0000

> <Gold.PLP.Chemscore.Metal>
0.0000

> <Gold.Chemscore.Hbonds>
donor molecule, donor type, donor heavy atom, donor atom, acceptor molecule, acceptor atom, score
      L1  H     7    23       P1  8028  1.00
      P1  H  7989  7998       L1    11  0.85
      P1  H  7997  8010       L1     1  1.16
      P1  H 10752 10764       L1    15  2.00
      L1  C    12    26       P1  7957  1.00

> <Gold.PLP.Chemscore.Internal.Correction>
0.1532

> <Gold.Rescore>
     Score         DG    S(hbond)    S(metal)    S(lipo)     H(rot)  DE(clash)    DE(int)     intcor
      9.69     -13.86       2.62        0.00      35.67       1.78       0.82       3.35       ----

> <Gold.Chemscore.Fitness>
9.6925

> <Gold.Chemscore.DG>
-13.8605

> <Gold.Chemscore.ZeroCoef>
-5.4800

> <Gold.Chemscore.Hbond>
2.6203

> <Gold.Chemscore.Metal>
0.0000

> <Gold.Chemscore.Lipo>
35.6736

> <Gold.Chemscore.Internal_Hbond>
0.0000

> <Gold.Chemscore.DEClash>
0.8228

> <Gold.Chemscore.DEInternal>
3.3452

> <Gold.Chemscore.Rot>
1.7754

> <Gold.Chemscore.Internal.Correction>
   9.000000E+99

> <Gold.Chemscore.Hbonds>
donor molecule, donor type, donor heavy atom, donor atom, acceptor molecule, acceptor atom, score
      L1  H     7    23       P1  8028  0.95
      P1  H  7989  7998       L1    11  0.14
      P1  H  7997  8010       L1     1  0.54
      P1  H 10752 10764       L1    15  0.46

> <Gold.Chemscore.Hbond.Weighted>
-8.7518

> <Gold.Chemscore.Metal.Weighted>
-0.0000

> <Gold.Chemscore.Lipo.Weighted>
-4.1738

> <Gold.Chemscore.Internal_Hbond.Weighted>
0.0000

> <Gold.Chemscore.DEClash.Weighted>
0.8228

> <Gold.Chemscore.DEInternal.Weighted>
3.3452

> <Gold.Chemscore.Rot.Weighted>
4.5451

> <Gold.Chemscore.Internal.Correction.Weighted>
   9.000000E+99

> <Gold.Protein.RotatedTorsions>
[ 6907 6896 6895 6894 ] final  116.93 input  -60.11 | X-H torsion
[ 7974 7965 7964 7962 ] final  175.58 input  175.53 | X-H torsion
[ 8008 7997 7996 7995 ] final   15.84 input   59.86 | X-H torsion
[ 10167 10162 10161 10158 ] final  103.33 input  -65.29 | X-H torsion
[ 10718 10713 10712 10709 ] final  -68.99 input   66.30 | X-H torsion
[ 10763 10752 10751 10750 ] final  -27.34 input  -60.55 | X-H torsion
[ 11005 11000 10999 10996 ] final -176.01 input  -57.11 | X-H torsion

> <Gold.Protein.ActiveResidues>
 VAL166  LYS551  ARG553  GLY616  TRP617  ASP618  TYR619  PRO620  LYS621  CYS622 
 ASP623  PHE694  ASN695  SER759  ASP760  ASP761  ALA762  ILE779  LEU786  VAL792 
 PHE793  MET794  SER795  GLU796  ALA797  LYS798  CYS799  TRP800  GLU811  SER814 

> <Gold.Protein.RotatedAtoms>
  152.4646  133.7895  159.6893 H   0  0  0  0  0  0  0  0  0  0  0  0  # atno 6907 bound_to 6896
  150.8604  133.7642  159.3000 H   0  0  0  0  0  0  0  0  0  0  0  0  # atno 6908 bound_to 6896
  151.5209  135.1070  159.9930 H   0  0  0  0  0  0  0  0  0  0  0  0  # atno 6909 bound_to 6896
  144.7199  139.9968  143.6440 H   0  0  0  0  0  0  0  0  0  0  0  0  # atno 7974 bound_to 7965
  154.8685  140.2955  155.5496 H   0  0  0  0  0  0  0  0  0  0  0  0  # atno 8008 bound_to 7997
  156.3021  140.2465  156.3603 H   0  0  0  0  0  0  0  0  0  0  0  0  # atno 8009 bound_to 7997
  154.8843  140.0397  157.1790 H   0  0  0  0  0  0  0  0  0  0  0  0  # atno 8010 bound_to 7997
  139.7272  144.7044  151.0779 H   0  0  0  0  0  0  0  0  0  0  0  0  # atno 10167 bound_to 10162
  156.0477  130.4304  150.2082 H   0  0  0  0  0  0  0  0  0  0  0  0  # atno 10718 bound_to 10713
  153.7305  135.6939  153.4990 H   0  0  0  0  0  0  0  0  0  0  0  0  # atno 10763 bound_to 10752
  153.2140  135.4393  155.0411 H   0  0  0  0  0  0  0  0  0  0  0  0  # atno 10764 bound_to 10752
  154.8255  135.3444  154.6834 H   0  0  0  0  0  0  0  0  0  0  0  0  # atno 10765 bound_to 10752
  140.4568  134.6292  157.4825 H   0  0  0  0  0  0  0  0  0  0  0  0  # atno 11005 bound_to 11000
  146.0368  139.3384  143.0722 LP  0  0  0  0  0  0  0  0  0  0  0  0  # atno 17320 bound_to 7965
  145.8385  140.9593  143.0812 LP  0  0  0  0  0  0  0  0  0  0  0  0  # atno 17321 bound_to 7965
  140.7765  143.5089  150.9677 LP  0  0  0  0  0  0  0  0  0  0  0  0  # atno 17342 bound_to 10162
  139.8777  143.7111  152.3160 LP  0  0  0  0  0  0  0  0  0  0  0  0  # atno 17343 bound_to 10162
  157.0170  130.9968  151.3350 LP  0  0  0  0  0  0  0  0  0  0  0  0  # atno 17370 bound_to 10713
  157.5371  130.8096  149.7985 LP  0  0  0  0  0  0  0  0  0  0  0  0  # atno 17371 bound_to 10713
  139.9971  134.6894  155.9592 LP  0  0  0  0  0  0  0  0  0  0  0  0  # atno 17394 bound_to 11000
  141.1639  133.6537  156.4413 LP  0  0  0  0  0  0  0  0  0  0  0  0  # atno 17395 bound_to 11000

$$$$
