AV-unprocessed.smi:2066|AV-procd|sdf|8419|dock9
  -GOLD-   2272011113D 1   1.00000     0.00000
 Structure written by MMmdl.
 39 40  0  0  0  0  0  0  0  0  1 V2000
  146.7249  142.3439  153.7951 C   0  0  0  0  0  0  0  0  0  0  0  0
  147.3210  140.9778  154.2121 C   0  0  0  0  0  0  0  0  0  0  0  0
  146.9315  139.9587  153.1110 C   0  0  0  0  0  0  0  0  0  0  0  0
  148.8718  141.1198  154.1616 C   0  0  0  0  0  0  0  0  0  0  0  0
  149.3878  142.0941  155.1234 N   0  0  0  0  0  0  0  0  0  0  0  0
  150.3132  141.8536  156.0629 C   0  0  0  0  0  0  0  0  0  0  0  0
  150.8662  140.7633  156.2111 O   0  0  0  0  0  0  0  0  0  0  0  0
  150.5404  142.9476  156.8106 N   0  0  0  0  0  0  0  0  0  0  0  0
  151.4227  143.0890  157.9135 C   0  0  0  0  0  0  0  0  0  0  0  0
  152.0455  142.0701  158.5174 N   0  0  0  0  0  0  0  0  0  0  0  0
  152.8506  142.5000  159.5751 C   0  0  0  0  0  0  0  0  0  0  0  0
  152.8283  143.8595  159.7640 C   0  0  0  0  0  0  0  0  0  0  0  0
  151.7904  144.6588  158.6132 S   0  0  0  0  0  0  0  0  0  0  0  0
  146.8543  140.5220  155.5519 N   0  0  0  0  0  0  0  0  0  0  0  0
  147.4822  139.2887  156.0396 C   0  0  0  0  0  0  0  0  0  0  0  0
  147.0490  138.9489  157.4759 C   0  0  0  0  0  0  0  0  0  0  0  0
  145.6317  138.8467  157.5386 O   0  0  0  0  0  0  0  0  0  0  0  0
  144.9830  140.0438  157.1276 C   0  0  0  0  0  0  0  0  0  0  0  0
  145.3988  140.3905  155.6879 C   0  0  0  0  0  0  0  0  0  0  0  0
  147.0780  142.6374  152.8057 H   0  0  0  0  0  0  0  0  0  0  0  0
  147.0088  143.1435  154.4789 H   0  0  0  0  0  0  0  0  0  0  0  0
  145.6365  142.3213  153.7444 H   0  0  0  0  0  0  0  0  0  0  0  0
  147.4286  140.1810  152.1659 H   0  0  0  0  0  0  0  0  0  0  0  0
  145.8622  139.9662  152.9001 H   0  0  0  0  0  0  0  0  0  0  0  0
  147.2037  138.9402  153.3892 H   0  0  0  0  0  0  0  0  0  0  0  0
  149.3468  140.1485  154.3114 H   0  0  0  0  0  0  0  0  0  0  0  0
  149.2016  141.4289  153.1701 H   0  0  0  0  0  0  0  0  0  0  0  0
  148.9854  143.0189  155.0832 H   0  0  0  0  0  0  0  0  0  0  0  0
  150.0109  143.7728  156.5710 H   0  0  0  0  0  0  0  0  0  0  0  0
  153.4070  141.7682  160.1422 H   0  0  0  0  0  0  0  0  0  0  0  0
  153.3577  144.4362  160.5078 H   0  0  0  0  0  0  0  0  0  0  0  0
  147.2272  138.4526  155.3884 H   0  0  0  0  0  0  0  0  0  0  0  0
  148.5672  139.3755  156.0341 H   0  0  0  0  0  0  0  0  0  0  0  0
  147.4884  138.0020  157.7898 H   0  0  0  0  0  0  0  0  0  0  0  0
  147.3976  139.7113  158.1745 H   0  0  0  0  0  0  0  0  0  0  0  0
  143.9038  139.9022  157.1868 H   0  0  0  0  0  0  0  0  0  0  0  0
  145.2371  140.8573  157.8091 H   0  0  0  0  0  0  0  0  0  0  0  0
  144.8952  141.3148  155.4111 H   0  0  0  0  0  0  0  0  0  0  0  0
  145.0263  139.6143  155.0192 H   0  0  0  0  0  0  0  0  0  0  0  0
  1  2  1  0  0  0  0
  1 20  1  0  0  0  0
  1 21  1  0  0  0  0
  1 22  1  0  0  0  0
  2  3  1  0  0  0  0
  2  4  1  0  0  0  0
  2 14  1  0  0  0  0
  3 23  1  0  0  0  0
  3 24  1  0  0  0  0
  3 25  1  0  0  0  0
  4  5  1  0  0  0  0
  4 26  1  0  0  0  0
  4 27  1  0  0  0  0
  5  6  1  0  0  0  0
  5 28  1  0  0  0  0
  6  7  2  0  0  0  0
  6  8  1  0  0  0  0
  8  9  1  0  0  0  0
  8 29  1  0  0  0  0
  9 13  1  0  0  0  0
  9 10  2  0  0  0  0
 10 11  1  0  0  0  0
 11 12  2  0  0  0  0
 11 30  1  0  0  0  0
 12 13  1  0  0  0  0
 12 31  1  0  0  0  0
 14 19  1  0  0  0  0
 14 15  1  0  0  0  0
 15 16  1  0  0  0  0
 15 32  1  0  0  0  0
 15 33  1  0  0  0  0
 16 17  1  0  0  0  0
 16 34  1  0  0  0  0
 16 35  1  0  0  0  0
 17 18  1  0  0  0  0
 18 19  1  0  0  0  0
 18 36  1  0  0  0  0
 18 37  1  0  0  0  0
 19 38  1  0  0  0  0
 19 39  1  0  0  0  0
M  END
> <s_m_source_file>
AV-unprocessed.smi

> <i_m_source_file_index>
2066

> <i_lp_mmshare_version>
43012

> <i_f3d_flags>
0

> <s_epik_input>
W0NIMl0xW0NIMl1PW0NIMl1bQ0gyXU4xQyhbQ0gzXSkoW0NIM10pW0NIMl1bTkhdQyg9TylbTkhdYzJuW2NIXVtjSF1zMg==

> <s_epik_cmdline>
J2VwaWtfcHl0aG9uJywgJy1waCcsICc3LjAnLCAnLXRuJywgJzgnLCAnLW1hJywgJzIwMCcsICctbWV0YWxfYmluZGluZycsICctaW1hZScsICc8aW5maWxlLm1hZT4nLCAnLW9tYWUnLCAnPG91dGZpbGUubWFlPic=

> <r_lp_tautomer_probability>
0.999

> <r_epik_Ionization_Penalty>
0.219202

> <r_epik_Ionization_Penalty_Charging>
0

> <r_epik_Ionization_Penalty_Neutral>
0.219202

> <r_epik_State_Penalty>
0.209349

> <r_epik_Charging_Adjusted_Penalty>
0.209349

> <i_epik_Tot_Q>
0

> <i_epik_Tot_abs_Q>
0

> <r_epik_Metal_State_Penalty>
0.2479

> <b_epik_Metal_Only>
0

> <s_lp_Force_Field>
OPLS_2005

> <r_lp_Energy>
39.7757

> <b_lp_Chiralities_Consistent>
1

> <s_lp_Variant>
AV-unprocessed.smi:2066-1

> <Gold.Version>
5.8.1

> <Gold.Id.Protein>
6NUR|6NUR_protein|mol2

> <Gold.PLP.Fitness>
38.6006

> <Gold.PLP.PLP>
-32.6585

> <Gold.PLP.part.hbond>
-2.0000

> <Gold.PLP.part.metal>
0.0000

> <Gold.PLP.part.buried>
-5.3285

> <Gold.PLP.part.nonpolar>
-26.4257

> <Gold.PLP.part.repulsive>
0.3109

> <Gold.PLP.ligand.clash>
0.0000

> <Gold.PLP.ligand.torsion>
0.0608

> <Gold.PLP.Chemscore.Hbond>
2.0000

> <Gold.PLP.Chemscore.CHOScore>
0.0000

> <Gold.PLP.Chemscore.Metal>
0.0000

> <Gold.Chemscore.Hbonds>
donor molecule, donor type, donor heavy atom, donor atom, acceptor molecule, acceptor atom, score
      L1  H     5    28       P1  8028  1.00
      L1  H     8    29       P1  8028  1.00

> <Gold.PLP.Chemscore.Internal.Correction>
0.0637

> <Gold.Rescore>
     Score         DG    S(hbond)    S(metal)    S(lipo)     H(rot)  DE(clash)    DE(int)     intcor
     14.73     -16.08       1.95        0.00      69.56       1.58       0.02       1.32       ----

> <Gold.Chemscore.Fitness>
14.7317

> <Gold.Chemscore.DG>
-16.0759

> <Gold.Chemscore.ZeroCoef>
-5.4800

> <Gold.Chemscore.Hbond>
1.9473

> <Gold.Chemscore.Metal>
0.0000

> <Gold.Chemscore.Lipo>
69.5612

> <Gold.Chemscore.Internal_Hbond>
0.0000

> <Gold.Chemscore.DEClash>
0.0203

> <Gold.Chemscore.DEInternal>
1.3240

> <Gold.Chemscore.Rot>
1.5807

> <Gold.Chemscore.Internal.Correction>
   9.000000E+99

> <Gold.Chemscore.Hbonds>
donor molecule, donor type, donor heavy atom, donor atom, acceptor molecule, acceptor atom, score
      L1  H     5    28       P1  8028  0.96
      L1  H     8    29       P1  8028  0.99

> <Gold.Chemscore.Hbond.Weighted>
-6.5039

> <Gold.Chemscore.Metal.Weighted>
-0.0000

> <Gold.Chemscore.Lipo.Weighted>
-8.1387

> <Gold.Chemscore.Internal_Hbond.Weighted>
0.0000

> <Gold.Chemscore.DEClash.Weighted>
0.0203

> <Gold.Chemscore.DEInternal.Weighted>
1.3240

> <Gold.Chemscore.Rot.Weighted>
4.0466

> <Gold.Chemscore.Internal.Correction.Weighted>
   9.000000E+99

> <Gold.Protein.RotatedTorsions>
[ 6907 6896 6895 6894 ] final  105.38 input  -60.11 | X-H torsion
[ 7974 7965 7964 7962 ] final   -7.60 input  175.53 | X-H torsion
[ 8008 7997 7996 7995 ] final -112.05 input   59.86 | X-H torsion
[ 10167 10162 10161 10158 ] final  -40.58 input  -65.29 | X-H torsion
[ 10718 10713 10712 10709 ] final  177.69 input   66.30 | X-H torsion
[ 10763 10752 10751 10750 ] final  108.27 input  -60.55 | X-H torsion
[ 11005 11000 10999 10996 ] final  -40.20 input  -57.11 | X-H torsion

> <Gold.Protein.ActiveResidues>
 VAL166  LYS551  ARG553  GLY616  TRP617  ASP618  TYR619  PRO620  LYS621  CYS622 
 ASP623  PHE694  ASN695  SER759  ASP760  ASP761  ALA762  ILE779  LEU786  VAL792 
 PHE793  MET794  SER795  GLU796  ALA797  LYS798  CYS799  TRP800  GLU811  SER814 

> <Gold.Protein.RotatedAtoms>
  152.5232  133.9537  159.7683 H   0  0  0  0  0  0  0  0  0  0  0  0  # atno 6907 bound_to 6896
  150.9841  133.6207  159.2725 H   0  0  0  0  0  0  0  0  0  0  0  0  # atno 6908 bound_to 6896
  151.3374  135.0861  159.9412 H   0  0  0  0  0  0  0  0  0  0  0  0  # atno 6909 bound_to 6896
  146.2302  140.2344  142.8341 H   0  0  0  0  0  0  0  0  0  0  0  0  # atno 7974 bound_to 7965
  154.9992  140.0394  157.2353 H   0  0  0  0  0  0  0  0  0  0  0  0  # atno 8008 bound_to 7997
  154.7559  140.2775  155.6231 H   0  0  0  0  0  0  0  0  0  0  0  0  # atno 8009 bound_to 7997
  156.2894  140.2638  156.2325 H   0  0  0  0  0  0  0  0  0  0  0  0  # atno 8010 bound_to 7997
  140.7030  143.3145  151.2944 H   0  0  0  0  0  0  0  0  0  0  0  0  # atno 10167 bound_to 10162
  156.9016  130.9880  151.3035 H   0  0  0  0  0  0  0  0  0  0  0  0  # atno 10718 bound_to 10713
  153.4183  135.3817  155.2094 H   0  0  0  0  0  0  0  0  0  0  0  0  # atno 10763 bound_to 10752
  154.8743  135.3811  154.4416 H   0  0  0  0  0  0  0  0  0  0  0  0  # atno 10764 bound_to 10752
  153.4933  135.7088  153.5935 H   0  0  0  0  0  0  0  0  0  0  0  0  # atno 10765 bound_to 10752
  141.0157  133.6886  156.2290 H   0  0  0  0  0  0  0  0  0  0  0  0  # atno 11005 bound_to 11000
  144.9533  140.8200  143.5559 LP  0  0  0  0  0  0  0  0  0  0  0  0  # atno 17320 bound_to 7965
  145.2307  139.2116  143.5044 LP  0  0  0  0  0  0  0  0  0  0  0  0  # atno 17321 bound_to 7965
  139.6579  144.0242  152.2672 LP  0  0  0  0  0  0  0  0  0  0  0  0  # atno 17342 bound_to 10162
  139.9800  144.6435  150.7909 LP  0  0  0  0  0  0  0  0  0  0  0  0  # atno 17343 bound_to 10162
  157.6022  130.8521  149.8820 LP  0  0  0  0  0  0  0  0  0  0  0  0  # atno 17370 bound_to 10713
  156.0579  130.3705  150.1049 LP  0  0  0  0  0  0  0  0  0  0  0  0  # atno 17371 bound_to 10713
  140.6658  134.4920  157.5585 LP  0  0  0  0  0  0  0  0  0  0  0  0  # atno 17394 bound_to 11000
  139.9116  134.8333  156.1509 LP  0  0  0  0  0  0  0  0  0  0  0  0  # atno 17395 bound_to 11000

$$$$
