AV-unprocessed.smi:1413|AV-procd|sdf|5752|dock1
  -GOLD-   22720 5393D 1   1.00000     0.00000
 Structure written by MMmdl.
 53 55  0  0  0  0  0  0  0  0  1 V2000
  151.4524  144.6487  158.0449 C   0  0  0  0  0  0  0  0  0  0  0  0
  152.0886  143.2690  158.2440 C   0  0  2  0  0  0  0  0  0  0  0  0
  151.3137  142.1667  157.4993 C   0  0  0  0  0  0  0  0  0  0  0  0
  151.8846  140.8626  157.8042 N   0  0  0  0  0  0  0  0  0  0  0  0
  151.3374  139.8259  157.0353 C   0  0  0  0  0  0  0  0  0  0  0  0
  151.5272  139.8379  155.6383 C   0  0  0  0  0  0  0  0  0  0  0  0
  150.9774  138.7933  154.8717 C   0  0  0  0  0  0  0  0  0  0  0  0
  150.2452  137.7776  155.5184 C   0  0  0  0  0  0  0  0  0  0  0  0
  149.7205  136.7223  154.7250 N   0  0  0  0  0  0  0  0  0  0  0  0
  149.4451  135.4602  155.0949 C   0  0  0  0  0  0  0  0  0  0  0  0
  149.5706  135.0122  156.2342 O   0  0  0  0  0  0  0  0  0  0  0  0
  148.9835  134.7451  154.0586 N   0  0  0  0  0  0  0  0  0  0  0  0
  148.5266  133.3581  154.1111 C   0  0  2  0  0  0  0  0  0  0  0  0
  149.7220  132.4549  154.4517 C   0  0  0  0  0  0  0  0  0  0  0  0
  147.8728  132.9867  152.7655 C   0  0  1  0  0  0  0  0  0  0  0  0
  147.1212  131.6518  152.7623 C   0  0  0  0  0  0  0  0  0  0  0  0
  146.0027  131.8533  151.7484 C   0  0  0  0  0  0  0  0  0  0  0  0
  146.0936  133.3344  151.3797 C   0  0  0  0  0  0  0  0  0  0  0  0
  146.8484  133.9119  152.4323 O   0  0  0  0  0  0  0  0  0  0  0  0
  150.1169  137.8515  156.9266 C   0  0  0  0  0  0  0  0  0  0  0  0
  150.6457  138.8487  157.6678 N   0  0  0  0  0  0  0  0  0  0  0  0
  151.9064  140.5890  159.2361 C   0  0  0  0  0  0  0  0  0  0  0  0
  152.6459  141.7093  159.9944 C   0  0  1  0  0  0  0  0  0  0  0  0
  154.1741  141.6659  159.8163 C   0  0  0  0  0  0  0  0  0  0  0  0
  152.0988  142.9837  159.6436 O   0  0  0  0  0  0  0  0  0  0  0  0
  151.4280  144.9211  156.9895 H   0  0  0  0  0  0  0  0  0  0  0  0
  152.0162  145.4178  158.5735 H   0  0  0  0  0  0  0  0  0  0  0  0
  150.4287  144.6687  158.4200 H   0  0  0  0  0  0  0  0  0  0  0  0
  153.1123  143.3119  157.8713 H   0  0  0  0  0  0  0  0  0  0  0  0
  150.2629  142.1834  157.7932 H   0  0  0  0  0  0  0  0  0  0  0  0
  151.3507  142.3434  156.4234 H   0  0  0  0  0  0  0  0  0  0  0  0
  152.0870  140.6295  155.1621 H   0  0  0  0  0  0  0  0  0  0  0  0
  151.1150  138.7770  153.8003 H   0  0  0  0  0  0  0  0  0  0  0  0
  149.4736  136.9720  153.7786 H   0  0  0  0  0  0  0  0  0  0  0  0
  148.9126  135.2067  153.1639 H   0  0  0  0  0  0  0  0  0  0  0  0
  147.7830  133.2353  154.9005 H   0  0  0  0  0  0  0  0  0  0  0  0
  149.4189  131.4116  154.5396 H   0  0  0  0  0  0  0  0  0  0  0  0
  150.1718  132.7429  155.4025 H   0  0  0  0  0  0  0  0  0  0  0  0
  150.4961  132.5131  153.6857 H   0  0  0  0  0  0  0  0  0  0  0  0
  148.6178  132.9911  151.9670 H   0  0  0  0  0  0  0  0  0  0  0  0
  147.7722  130.8146  152.5082 H   0  0  0  0  0  0  0  0  0  0  0  0
  146.6886  131.4523  153.7436 H   0  0  0  0  0  0  0  0  0  0  0  0
  146.1215  131.2186  150.8699 H   0  0  0  0  0  0  0  0  0  0  0  0
  145.0377  131.6229  152.2011 H   0  0  0  0  0  0  0  0  0  0  0  0
  146.6305  133.4657  150.4390 H   0  0  0  0  0  0  0  0  0  0  0  0
  145.1155  133.8063  151.2838 H   0  0  0  0  0  0  0  0  0  0  0  0
  149.6021  137.0915  157.4936 H   0  0  0  0  0  0  0  0  0  0  0  0
  150.8819  140.5193  159.6047 H   0  0  0  0  0  0  0  0  0  0  0  0
  152.3797  139.6248  159.4259 H   0  0  0  0  0  0  0  0  0  0  0  0
  152.4489  141.5760  161.0586 H   0  0  0  0  0  0  0  0  0  0  0  0
  154.5813  140.7336  160.2087 H   0  0  0  0  0  0  0  0  0  0  0  0
  154.6515  142.4861  160.3529 H   0  0  0  0  0  0  0  0  0  0  0  0
  154.4709  141.7324  158.7699 H   0  0  0  0  0  0  0  0  0  0  0  0
  1  2  1  0  0  0  0
  1 26  1  0  0  0  0
  1 27  1  0  0  0  0
  1 28  1  0  0  0  0
  2 25  1  0  0  0  0
  2  3  1  0  0  0  0
  2 29  1  0  0  0  0
  3  4  1  0  0  0  0
  3 30  1  0  0  0  0
  3 31  1  0  0  0  0
  4  5  1  0  0  0  0
  4 22  1  0  0  0  0
  5 21  1  0  0  0  0
  5  6  2  0  0  0  0
  6  7  1  0  0  0  0
  6 32  1  0  0  0  0
  7  8  2  0  0  0  0
  7 33  1  0  0  0  0
  8  9  1  0  0  0  0
  8 20  1  0  0  0  0
  9 10  1  0  0  0  0
  9 34  1  0  0  0  0
 10 11  2  0  0  0  0
 10 12  1  0  0  0  0
 12 13  1  0  0  0  0
 12 35  1  0  0  0  0
 13 14  1  0  0  0  0
 13 15  1  0  0  0  0
 13 36  1  0  0  0  0
 14 37  1  0  0  0  0
 14 38  1  0  0  0  0
 14 39  1  0  0  0  0
 15 19  1  0  0  0  0
 15 16  1  0  0  0  0
 15 40  1  0  0  0  0
 16 17  1  0  0  0  0
 16 41  1  0  0  0  0
 16 42  1  0  0  0  0
 17 18  1  0  0  0  0
 17 43  1  0  0  0  0
 17 44  1  0  0  0  0
 18 19  1  0  0  0  0
 18 45  1  0  0  0  0
 18 46  1  0  0  0  0
 20 21  2  0  0  0  0
 20 47  1  0  0  0  0
 22 23  1  0  0  0  0
 22 48  1  0  0  0  0
 22 49  1  0  0  0  0
 23 24  1  0  0  0  0
 23 25  1  0  0  0  0
 23 50  1  0  0  0  0
 24 51  1  0  0  0  0
 24 52  1  0  0  0  0
 24 53  1  0  0  0  0
M  END
> <s_m_source_file>
AV-unprocessed.smi

> <i_m_source_file_index>
1413

> <i_lp_mmshare_version>
43012

> <i_f3d_flags>
0

> <s_epik_input>
W0NIM11bQ0BASF0xW0NIMl1OKFtDSDJdW0NASF0oTzEpW0NIM10pYzJbY0hdW2NIXWMoW2NIXW4yKVtOSF1DKD1PKVtOSF1bQ0BIXShbQ0gzXSlbQ0BASF0zW0NIMl1bQ0gyXVtDSDJdTzM=

> <s_epik_cmdline>
J2VwaWtfcHl0aG9uJywgJy1waCcsICc3LjAnLCAnLXRuJywgJzgnLCAnLW1hJywgJzIwMCcsICctbWV0YWxfYmluZGluZycsICctaW1hZScsICc8aW5maWxlLm1hZT4nLCAnLW9tYWUnLCAnPG91dGZpbGUubWFlPic=

> <r_lp_tautomer_probability>
1

> <r_epik_Ionization_Penalty>
0.00271172

> <r_epik_Ionization_Penalty_Charging>
0

> <r_epik_Ionization_Penalty_Neutral>
0.00271172

> <r_epik_State_Penalty>
0.00186503

> <r_epik_Charging_Adjusted_Penalty>
0.00186503

> <i_epik_Tot_Q>
0

> <i_epik_Tot_abs_Q>
0

> <r_epik_Metal_State_Penalty>
-0

> <b_epik_Metal_Only>
0

> <s_lp_Force_Field>
OPLS_2005

> <r_lp_Energy>
38.8739

> <b_lp_Chiralities_Consistent>
1

> <s_lp_Variant>
AV-unprocessed.smi:1413-5

> <Gold.Version>
5.8.1

> <Gold.Id.Protein>
6NUR|6NUR_protein|mol2

> <Gold.PLP.Fitness>
49.1252

> <Gold.PLP.PLP>
-44.2870

> <Gold.PLP.part.hbond>
-2.0000

> <Gold.PLP.part.metal>
0.0000

> <Gold.PLP.part.buried>
-5.2957

> <Gold.PLP.part.nonpolar>
-36.8746

> <Gold.PLP.part.repulsive>
0.3847

> <Gold.PLP.ligand.clash>
0.0000

> <Gold.PLP.ligand.torsion>
0.4449

> <Gold.PLP.Chemscore.Hbond>
1.8445

> <Gold.PLP.Chemscore.CHOScore>
0.0000

> <Gold.PLP.Chemscore.Metal>
0.0000

> <Gold.Chemscore.Hbonds>
donor molecule, donor type, donor heavy atom, donor atom, acceptor molecule, acceptor atom, score
      L1  H     9    34       P1  7948  0.77
      L1  H    12    35       P1  7948  1.00

> <Gold.PLP.Chemscore.Internal.Correction>
0.1946

> <Gold.Rescore>
     Score         DG    S(hbond)    S(metal)    S(lipo)     H(rot)  DE(clash)    DE(int)     intcor
     19.09     -20.85       1.63        0.00     114.29       1.35       0.16       1.60       ----

> <Gold.Chemscore.Fitness>
19.0854

> <Gold.Chemscore.DG>
-20.8466

> <Gold.Chemscore.ZeroCoef>
-5.4800

> <Gold.Chemscore.Hbond>
1.6298

> <Gold.Chemscore.Metal>
0.0000

> <Gold.Chemscore.Lipo>
114.2870

> <Gold.Chemscore.Internal_Hbond>
0.0000

> <Gold.Chemscore.DEClash>
0.1634

> <Gold.Chemscore.DEInternal>
1.5978

> <Gold.Chemscore.Rot>
1.3471

> <Gold.Chemscore.Internal.Correction>
   9.000000E+99

> <Gold.Chemscore.Hbonds>
donor molecule, donor type, donor heavy atom, donor atom, acceptor molecule, acceptor atom, score
      L1  H     9    34       P1  7948  0.66
      L1  H    12    35       P1  7948  0.44

> <Gold.Chemscore.Hbond.Weighted>
-5.4435

> <Gold.Chemscore.Metal.Weighted>
-0.0000

> <Gold.Chemscore.Lipo.Weighted>
-13.3716

> <Gold.Chemscore.Internal_Hbond.Weighted>
0.0000

> <Gold.Chemscore.DEClash.Weighted>
0.1634

> <Gold.Chemscore.DEInternal.Weighted>
1.5978

> <Gold.Chemscore.Rot.Weighted>
3.4485

> <Gold.Chemscore.Internal.Correction.Weighted>
   9.000000E+99

> <Gold.Protein.RotatedTorsions>
[ 6907 6896 6895 6894 ] final -132.98 input  -60.11 | X-H torsion
[ 7974 7965 7964 7962 ] final -141.68 input  175.53 | X-H torsion
[ 8008 7997 7996 7995 ] final    1.65 input   59.86 | X-H torsion
[ 10167 10162 10161 10158 ] final   65.74 input  -65.29 | X-H torsion
[ 10718 10713 10712 10709 ] final  -27.22 input   66.30 | X-H torsion
[ 10763 10752 10751 10750 ] final   -4.66 input  -60.55 | X-H torsion
[ 11005 11000 10999 10996 ] final  165.80 input  -57.11 | X-H torsion

> <Gold.Protein.ActiveResidues>
 VAL166  LYS551  ARG553  GLY616  TRP617  ASP618  TYR619  PRO620  LYS621  CYS622 
 ASP623  PHE694  ASN695  SER759  ASP760  ASP761  ALA762  ILE779  LEU786  VAL792 
 PHE793  MET794  SER795  GLU796  ALA797  LYS798  CYS799  TRP800  GLU811  SER814 

> <Gold.Protein.RotatedAtoms>
  150.9686  133.6368  159.2741 H   0  0  0  0  0  0  0  0  0  0  0  0  # atno 6907 bound_to 6896
  151.3665  135.0913  159.9461 H   0  0  0  0  0  0  0  0  0  0  0  0  # atno 6908 bound_to 6896
  152.5174  133.9249  159.7607 H   0  0  0  0  0  0  0  0  0  0  0  0  # atno 6909 bound_to 6896
  144.8501  140.6050  143.5396 H   0  0  0  0  0  0  0  0  0  0  0  0  # atno 7974 bound_to 7965
  154.6823  140.2635  155.6896 H   0  0  0  0  0  0  0  0  0  0  0  0  # atno 8008 bound_to 7997
  156.2701  140.2808  156.1294 H   0  0  0  0  0  0  0  0  0  0  0  0  # atno 8009 bound_to 7997
  155.1014  140.0374  157.2688 H   0  0  0  0  0  0  0  0  0  0  0  0  # atno 8010 bound_to 7997
  140.1080  144.4844  150.6995 H   0  0  0  0  0  0  0  0  0  0  0  0  # atno 10167 bound_to 10162
  156.4410  130.4464  149.7053 H   0  0  0  0  0  0  0  0  0  0  0  0  # atno 10718 bound_to 10713
  153.3878  135.7001  153.6517 H   0  0  0  0  0  0  0  0  0  0  0  0  # atno 10763 bound_to 10752
  153.5102  135.3633  155.2583 H   0  0  0  0  0  0  0  0  0  0  0  0  # atno 10764 bound_to 10752
  154.8699  135.4133  154.3189 H   0  0  0  0  0  0  0  0  0  0  0  0  # atno 10765 bound_to 10752
  140.2599  134.7910  157.3580 H   0  0  0  0  0  0  0  0  0  0  0  0  # atno 11005 bound_to 11000
  145.4518  139.1523  143.3914 LP  0  0  0  0  0  0  0  0  0  0  0  0  # atno 17320 bound_to 7965
  146.2777  140.4644  142.8789 LP  0  0  0  0  0  0  0  0  0  0  0  0  # atno 17321 bound_to 7965
  140.6941  143.2393  151.5049 LP  0  0  0  0  0  0  0  0  0  0  0  0  # atno 17342 bound_to 10162
  139.5634  144.2100  152.1728 LP  0  0  0  0  0  0  0  0  0  0  0  0  # atno 17343 bound_to 10162
  156.3917  130.7630  151.2632 LP  0  0  0  0  0  0  0  0  0  0  0  0  # atno 17370 bound_to 10713
  157.7506  131.0266  150.3968 LP  0  0  0  0  0  0  0  0  0  0  0  0  # atno 17371 bound_to 10713
  140.1475  134.4892  155.7985 LP  0  0  0  0  0  0  0  0  0  0  0  0  # atno 17394 bound_to 11000
  141.2191  133.6849  156.7319 LP  0  0  0  0  0  0  0  0  0  0  0  0  # atno 17395 bound_to 11000

$$$$
