AV-unprocessed.smi:2424|AV-procd|sdf|9567|dock4
  -GOLD-   2272013193D 1   1.00000     0.00000
 Structure written by MMmdl.
 49 50  0  0  0  0  0  0  0  0  2 V2000
  147.5564  141.1101  153.5456 C   0  0  0  0  0  0  0  0  0  0  0  0
  147.3101  139.6024  153.7170 C   0  0  0  0  0  0  0  0  0  0  0  0
  147.8292  138.9971  155.0481 C   0  0  0  0  0  0  0  0  0  0  0  0
  147.2955  139.8559  156.2214 C   0  0  0  0  0  0  0  0  0  0  0  0
  147.9963  139.6345  157.5724 C   0  0  0  0  0  0  0  0  0  0  0  0
  147.6561  137.4643  155.2626 C   0  0  1  0  0  0  0  0  0  0  0  0
  147.5557  136.7057  154.0140 N   0  0  0  0  0  0  0  0  0  0  0  0
  146.6094  135.8038  153.7246 C   0  0  0  0  0  0  0  0  0  0  0  0
  145.7099  135.4914  154.5045 O   0  0  0  0  0  0  0  0  0  0  0  0
  146.7839  135.3163  152.4838 N   0  0  0  0  0  0  0  0  0  0  0  0
  146.0282  134.3497  151.8086 C   0  0  0  0  0  0  0  0  0  0  0  0
  145.0617  134.7311  150.9003 C   0  0  0  0  0  0  0  0  0  0  0  0
  144.2407  133.9549  150.1604 N   0  5  0  0  0  0  0  0  0  0  0  0
  144.3441  132.6015  150.2929 C   0  0  0  0  0  0  0  0  0  0  0  0
  143.6252  131.8318  149.6566 O   0  0  0  0  0  0  0  0  0  0  0  0
  145.3485  132.0520  151.2258 C   0  0  0  0  0  0  0  0  0  0  0  0
  145.4711  130.5439  151.3608 C   0  0  0  0  0  0  0  0  0  0  0  0
  146.1372  132.8967  151.9360 C   0  0  0  0  0  0  0  0  0  0  0  0
  149.0740  137.4050  155.8560 C   0  0  1  0  0  0  0  0  0  0  0  0
  149.9653  136.1808  155.6560 C   0  0  0  0  0  0  0  0  0  0  0  0
  149.3578  138.7310  155.1255 C   0  0  1  0  0  0  0  0  0  0  0  0
  149.9320  138.5344  153.8375 O   0  0  0  0  0  0  0  0  0  0  0  0
  151.3144  138.2252  153.8847 C   0  0  0  0  0  0  0  0  0  0  0  0
  147.2819  141.4280  152.5395 H   0  0  0  0  0  0  0  0  0  0  0  0
  148.6067  141.3615  153.6943 H   0  0  0  0  0  0  0  0  0  0  0  0
  146.9628  141.7031  154.2404 H   0  0  0  0  0  0  0  0  0  0  0  0
  146.2505  139.3885  153.5814 H   0  0  0  0  0  0  0  0  0  0  0  0
  147.7891  139.1171  152.8669 H   0  0  0  0  0  0  0  0  0  0  0  0
  147.3981  140.9135  155.9789 H   0  0  0  0  0  0  0  0  0  0  0  0
  146.2222  139.7164  156.3471 H   0  0  0  0  0  0  0  0  0  0  0  0
  147.6473  140.3621  158.3054 H   0  0  0  0  0  0  0  0  0  0  0  0
  149.0771  139.7457  157.4896 H   0  0  0  0  0  0  0  0  0  0  0  0
  147.7884  138.6463  157.9815 H   0  0  0  0  0  0  0  0  0  0  0  0
  146.8940  137.2107  156.0007 H   0  0  0  0  0  0  0  0  0  0  0  0
  148.2566  136.8978  153.3132 H   0  0  0  0  0  0  0  0  0  0  0  0
  147.5574  135.6938  151.9561 H   0  0  0  0  0  0  0  0  0  0  0  0
  144.9239  135.8237  150.7494 H   0  0  0  0  0  0  0  0  0  0  0  0
  146.2562  130.2700  152.0661 H   0  0  0  0  0  0  0  0  0  0  0  0
  145.7122  130.0932  150.3977 H   0  0  0  0  0  0  0  0  0  0  0  0
  144.5336  130.1160  151.7171 H   0  0  0  0  0  0  0  0  0  0  0  0
  146.8637  132.4591  152.6010 H   0  0  0  0  0  0  0  0  0  0  0  0
  148.9981  137.6149  156.9241 H   0  0  0  0  0  0  0  0  0  0  0  0
  150.1400  135.9688  154.6009 H   0  0  0  0  0  0  0  0  0  0  0  0
  149.5129  135.2924  156.0969 H   0  0  0  0  0  0  0  0  0  0  0  0
  150.9374  136.3215  156.1279 H   0  0  0  0  0  0  0  0  0  0  0  0
  149.8876  139.4721  155.7274 H   0  0  0  0  0  0  0  0  0  0  0  0
  151.6821  138.0435  152.8750 H   0  0  0  0  0  0  0  0  0  0  0  0
  151.5080  137.3325  154.4793 H   0  0  0  0  0  0  0  0  0  0  0  0
  151.8846  139.0543  154.3054 H   0  0  0  0  0  0  0  0  0  0  0  0
  1  2  1  0  0  0  0
  1 24  1  0  0  0  0
  1 25  1  0  0  0  0
  1 26  1  0  0  0  0
  2  3  1  0  0  0  0
  2 27  1  0  0  0  0
  2 28  1  0  0  0  0
  3 21  1  0  0  0  0
  3  4  1  0  0  0  0
  3  6  1  0  0  0  0
  4  5  1  0  0  0  0
  4 29  1  0  0  0  0
  4 30  1  0  0  0  0
  5 31  1  0  0  0  0
  5 32  1  0  0  0  0
  5 33  1  0  0  0  0
  6  7  1  0  0  0  0
  6 19  1  0  0  0  0
  6 34  1  0  0  0  0
  7  8  1  0  0  0  0
  7 35  1  0  0  0  0
  8  9  2  0  0  0  0
  8 10  1  0  0  0  0
 10 11  1  0  0  0  0
 10 36  1  0  0  0  0
 11 18  1  0  0  0  0
 11 12  2  0  0  0  0
 12 13  1  0  0  0  0
 12 37  1  0  0  0  0
 13 14  1  0  0  0  0
 14 15  2  0  0  0  0
 14 16  1  0  0  0  0
 16 17  1  0  0  0  0
 16 18  2  0  0  0  0
 17 38  1  0  0  0  0
 17 39  1  0  0  0  0
 17 40  1  0  0  0  0
 18 41  1  0  0  0  0
 19 20  1  0  0  0  0
 19 21  1  0  0  0  0
 19 42  1  0  0  0  0
 20 43  1  0  0  0  0
 20 44  1  0  0  0  0
 20 45  1  0  0  0  0
 21 22  1  0  0  0  0
 21 46  1  0  0  0  0
 22 23  1  0  0  0  0
 23 47  1  0  0  0  0
 23 48  1  0  0  0  0
 23 49  1  0  0  0  0
M  CHG  1  13  -1
M  END
> <s_m_source_file>
AV-unprocessed.smi

> <i_m_source_file_index>
2424

> <i_lp_mmshare_version>
43012

> <i_f3d_flags>
0

> <s_epik_input>
W0NIM11PW0NAQEhdMVtDQEhdKFtDSDNdKVtDQEBIXShDMShbQ0gyXVtDSDNdKVtDSDJdW0NIM10pW05IXUMoPU8pW05IXWMyW2NIXVtuSF1jKD1PKWMoW0NIM10pW2NIXTI=

> <s_epik_cmdline>
J2VwaWtfcHl0aG9uJywgJy1waCcsICc3LjAnLCAnLXRuJywgJzgnLCAnLW1hJywgJzIwMCcsICctbWV0YWxfYmluZGluZycsICctaW1hZScsICc8aW5maWxlLm1hZT4nLCAnLW9tYWUnLCAnPG91dGZpbGUubWFlPic=

> <r_lp_tautomer_probability>
1

> <r_epik_Ionization_Penalty>
7.6122

> <r_epik_Ionization_Penalty_Charging>
1.53843

> <r_epik_Ionization_Penalty_Neutral>
6.07377

> <r_epik_State_Penalty>
6.07371

> <r_epik_Charging_Adjusted_Penalty>
7.61214

> <i_epik_Tot_Q>
-1

> <i_epik_Tot_abs_Q>
1

> <r_epik_Metal_State_Penalty>
2.02136

> <b_epik_Metal_Only>
1

> <s_lp_Force_Field>
OPLS_2005

> <r_lp_Energy>
42.7103

> <b_lp_Chiralities_Consistent>
1

> <s_lp_Variant>
AV-unprocessed.smi:2424-9

> <Gold.Version>
5.8.1

> <Gold.Id.Protein>
6NUR|6NUR_protein|mol2

> <Gold.PLP.Fitness>
36.0636

> <Gold.PLP.PLP>
-29.1543

> <Gold.PLP.part.hbond>
-2.8822

> <Gold.PLP.part.metal>
0.0000

> <Gold.PLP.part.buried>
-6.7957

> <Gold.PLP.part.nonpolar>
-21.0129

> <Gold.PLP.part.repulsive>
0.7546

> <Gold.PLP.ligand.clash>
0.0000

> <Gold.PLP.ligand.torsion>
1.2170

> <Gold.PLP.Chemscore.Hbond>
2.8960

> <Gold.PLP.Chemscore.CHOScore>
0.0000

> <Gold.PLP.Chemscore.Metal>
0.0000

> <Gold.Chemscore.Hbonds>
donor molecule, donor type, donor heavy atom, donor atom, acceptor molecule, acceptor atom, score
      L1  H     7    35       P1  7948  0.85
      L1  H    10    36       P1  7948  0.84
      P1  H 10785 10796       L1    15  0.94

> <Gold.PLP.Chemscore.Internal.Correction>
0.6553

> <Gold.Rescore>
     Score         DG    S(hbond)    S(metal)    S(lipo)     H(rot)  DE(clash)    DE(int)     intcor
     16.11     -18.50       2.71        0.00      67.02       1.52       0.13       2.26       ----

> <Gold.Chemscore.Fitness>
16.1056

> <Gold.Chemscore.DG>
-18.4957

> <Gold.Chemscore.ZeroCoef>
-5.4800

> <Gold.Chemscore.Hbond>
2.7146

> <Gold.Chemscore.Metal>
0.0000

> <Gold.Chemscore.Lipo>
67.0189

> <Gold.Chemscore.Internal_Hbond>
0.0000

> <Gold.Chemscore.DEClash>
0.1271

> <Gold.Chemscore.DEInternal>
2.2630

> <Gold.Chemscore.Rot>
1.5204

> <Gold.Chemscore.Internal.Correction>
   9.000000E+99

> <Gold.Chemscore.Hbonds>
donor molecule, donor type, donor heavy atom, donor atom, acceptor molecule, acceptor atom, score
      L1  H     7    35       P1  7948  0.83
      L1  H    10    36       P1  7948  0.80
      P1  H 10785 10796       L1    15  0.89

> <Gold.Chemscore.Hbond.Weighted>
-9.0668

> <Gold.Chemscore.Metal.Weighted>
-0.0000

> <Gold.Chemscore.Lipo.Weighted>
-7.8412

> <Gold.Chemscore.Internal_Hbond.Weighted>
0.0000

> <Gold.Chemscore.DEClash.Weighted>
0.1271

> <Gold.Chemscore.DEInternal.Weighted>
2.2630

> <Gold.Chemscore.Rot.Weighted>
3.8922

> <Gold.Chemscore.Internal.Correction.Weighted>
   9.000000E+99

> <Gold.Protein.RotatedTorsions>
[ 6907 6896 6895 6894 ] final    5.45 input  -60.11 | X-H torsion
[ 7974 7965 7964 7962 ] final  176.96 input  175.53 | X-H torsion
[ 8008 7997 7996 7995 ] final   11.99 input   59.86 | X-H torsion
[ 10167 10162 10161 10158 ] final  137.18 input  -65.29 | X-H torsion
[ 10718 10713 10712 10709 ] final   52.82 input   66.30 | X-H torsion
[ 10763 10752 10751 10750 ] final   69.34 input  -60.55 | X-H torsion
[ 11005 11000 10999 10996 ] final  -84.75 input  -57.11 | X-H torsion

> <Gold.Protein.ActiveResidues>
 VAL166  LYS551  ARG553  GLY616  TRP617  ASP618  TYR619  PRO620  LYS621  CYS622 
 ASP623  PHE694  ASN695  SER759  ASP760  ASP761  ALA762  ILE779  LEU786  VAL792 
 PHE793  MET794  SER795  GLU796  ALA797  LYS798  CYS799  TRP800  GLU811  SER814 

> <Gold.Protein.RotatedAtoms>
  151.6577  135.0993  160.0173 H   0  0  0  0  0  0  0  0  0  0  0  0  # atno 6907 bound_to 6896
  152.3964  133.6749  159.6288 H   0  0  0  0  0  0  0  0  0  0  0  0  # atno 6908 bound_to 6896
  150.7871  133.8783  159.3319 H   0  0  0  0  0  0  0  0  0  0  0  0  # atno 6909 bound_to 6896
  144.7176  140.0176  143.6440 H   0  0  0  0  0  0  0  0  0  0  0  0  # atno 7974 bound_to 7965
  154.8145  140.2873  155.5830 H   0  0  0  0  0  0  0  0  0  0  0  0  # atno 8008 bound_to 7997
  156.2991  140.2562  156.2969 H   0  0  0  0  0  0  0  0  0  0  0  0  # atno 8009 bound_to 7997
  154.9410  140.0381  157.2086 H   0  0  0  0  0  0  0  0  0  0  0  0  # atno 8010 bound_to 7997
  139.5153  144.6424  151.5532 H   0  0  0  0  0  0  0  0  0  0  0  0  # atno 10167 bound_to 10162
  157.5110  130.8501  149.8435 H   0  0  0  0  0  0  0  0  0  0  0  0  # atno 10718 bound_to 10713
  153.0282  135.5214  154.7273 H   0  0  0  0  0  0  0  0  0  0  0  0  # atno 10763 bound_to 10752
  154.6311  135.2900  155.0218 H   0  0  0  0  0  0  0  0  0  0  0  0  # atno 10764 bound_to 10752
  154.1169  135.6613  153.4948 H   0  0  0  0  0  0  0  0  0  0  0  0  # atno 10765 bound_to 10752
  141.1648  133.7362  156.8914 H   0  0  0  0  0  0  0  0  0  0  0  0  # atno 11005 bound_to 11000
  146.0207  139.3249  143.0814 LP  0  0  0  0  0  0  0  0  0  0  0  0  # atno 17320 bound_to 7965
  145.8571  140.9496  143.0719 LP  0  0  0  0  0  0  0  0  0  0  0  0  # atno 17321 bound_to 7965
  140.6196  143.9284  150.6515 LP  0  0  0  0  0  0  0  0  0  0  0  0  # atno 17342 bound_to 10162
  140.2553  143.3563  152.1370 LP  0  0  0  0  0  0  0  0  0  0  0  0  # atno 17343 bound_to 10162
  156.0289  130.3771  150.1744 LP  0  0  0  0  0  0  0  0  0  0  0  0  # atno 17370 bound_to 10713
  156.9933  130.9900  151.3409 LP  0  0  0  0  0  0  0  0  0  0  0  0  # atno 17371 bound_to 10713
  140.1646  134.9142  157.2757 LP  0  0  0  0  0  0  0  0  0  0  0  0  # atno 17394 bound_to 11000
  140.2572  134.3614  155.7420 LP  0  0  0  0  0  0  0  0  0  0  0  0  # atno 17395 bound_to 11000

$$$$
