AV-unprocessed.smi:54|AV-procd|sdf|530|dock5
  -GOLD-   2262016403D 1   1.00000     0.00000
 Structure written by MMmdl.
 44 46  0  0  0  0  0  0  0  0  1 V2000
  150.4386  132.9528  155.9114 C   0  0  0  0  0  0  0  0  0  0  0  0
  149.3958  134.0211  155.5457 C   0  0  0  0  0  0  0  0  0  0  0  0
  148.7048  133.6936  154.2119 C   0  0  0  0  0  0  0  0  0  0  0  0
  150.0431  135.4100  155.4949 C   0  0  0  0  0  0  0  0  0  0  0  0
  150.8966  135.7030  154.6569 O   0  0  0  0  0  0  0  0  0  0  0  0
  149.5868  136.3457  156.5067 N   0  0  0  0  0  0  0  0  0  0  0  0
  149.9943  137.6234  156.6871 C   0  0  0  0  0  0  0  0  0  0  0  0
  149.6822  138.6092  155.8573 N   0  0  0  0  0  0  0  0  0  0  0  0
  150.1829  139.8303  156.2141 C   0  0  0  0  0  0  0  0  0  0  0  0
  150.9539  140.1131  157.3219 C   0  0  0  0  0  0  0  0  0  0  0  0
  151.2816  141.4641  157.3455 N   0  0  0  0  0  0  0  0  0  0  0  0
  150.7124  141.9469  156.2759 C   0  0  0  0  0  0  0  0  0  0  0  0
  150.0243  141.0168  155.5318 N   0  0  0  0  0  0  0  0  0  0  0  0
  149.2535  141.1959  154.2598 C   0  0  1  0  0  0  0  0  0  0  0  0
  148.8974  139.9305  153.7833 O   0  0  0  0  0  0  0  0  0  0  0  0
  147.4978  139.7409  153.9412 C   0  0  2  0  0  0  0  0  0  0  0  0
  146.9891  138.6279  153.0076 C   0  0  0  0  0  0  0  0  0  0  0  0
  147.6396  138.6468  151.7537 O   0  0  0  0  0  0  0  0  0  0  0  0
  146.9232  141.1432  153.7362 C   0  0  1  0  0  0  0  0  0  0  0  0
  145.6077  141.2847  154.2389 O   0  0  0  0  0  0  0  0  0  0  0  0
  147.9477  142.0058  154.4677 C   0  0  1  0  0  0  0  0  0  0  0  0
  147.6069  142.1992  155.8337 O   0  0  0  0  0  0  0  0  0  0  0  0
  151.2913  139.0590  158.2342 C   0  0  0  0  0  0  0  0  0  0  0  0
  151.9575  139.1270  159.2648 O   0  0  0  0  0  0  0  0  0  0  0  0
  150.7602  137.8255  157.8354 N   0  0  0  0  0  0  0  0  0  0  0  0
  149.9566  141.6670  153.5717 H   0  0  0  0  0  0  0  0  0  0  0  0
  147.3333  139.4307  154.9750 H   0  0  0  0  0  0  0  0  0  0  0  0
  146.9316  141.4082  152.6786 H   0  0  0  0  0  0  0  0  0  0  0  0
  148.0499  142.9855  153.9994 H   0  0  0  0  0  0  0  0  0  0  0  0
  150.9278  133.1837  156.8587 H   0  0  0  0  0  0  0  0  0  0  0  0
  151.2129  132.8692  155.1477 H   0  0  0  0  0  0  0  0  0  0  0  0
  149.9720  131.9728  156.0161 H   0  0  0  0  0  0  0  0  0  0  0  0
  148.6330  134.0297  156.3257 H   0  0  0  0  0  0  0  0  0  0  0  0
  147.9732  134.4573  153.9452 H   0  0  0  0  0  0  0  0  0  0  0  0
  148.1762  132.7417  154.2710 H   0  0  0  0  0  0  0  0  0  0  0  0
  149.4236  133.6203  153.3946 H   0  0  0  0  0  0  0  0  0  0  0  0
  148.9118  135.9877  157.1662 H   0  0  0  0  0  0  0  0  0  0  0  0
  150.7818  142.9904  156.0059 H   0  0  0  0  0  0  0  0  0  0  0  0
  147.1179  137.6498  153.4715 H   0  0  0  0  0  0  0  0  0  0  0  0
  145.9215  138.7586  152.8301 H   0  0  0  0  0  0  0  0  0  0  0  0
  148.2855  139.3366  151.7602 H   0  0  0  0  0  0  0  0  0  0  0  0
  145.0026  141.0277  153.5596 H   0  0  0  0  0  0  0  0  0  0  0  0
  147.9004  143.0595  156.0928 H   0  0  0  0  0  0  0  0  0  0  0  0
  150.9595  137.0359  158.4318 H   0  0  0  0  0  0  0  0  0  0  0  0
  1  2  1  0  0  0  0
  1 30  1  0  0  0  0
  1 31  1  0  0  0  0
  1 32  1  0  0  0  0
  2  3  1  0  0  0  0
  2  4  1  0  0  0  0
  2 33  1  0  0  0  0
  3 34  1  0  0  0  0
  3 35  1  0  0  0  0
  3 36  1  0  0  0  0
  4  5  2  0  0  0  0
  4  6  1  0  0  0  0
  6 37  1  0  0  0  0
  6  7  1  0  0  0  0
  7 25  1  0  0  0  0
  7  8  2  0  0  0  0
  8  9  1  0  0  0  0
  9 13  1  0  0  0  0
  9 10  2  0  0  0  0
 10 11  1  0  0  0  0
 10 23  1  0  0  0  0
 11 12  2  0  0  0  0
 12 13  1  0  0  0  0
 12 38  1  0  0  0  0
 13 14  1  0  0  0  0
 14 26  1  0  0  0  0
 14 21  1  0  0  0  0
 14 15  1  0  0  0  0
 15 16  1  0  0  0  0
 16 27  1  0  0  0  0
 16 17  1  0  0  0  0
 16 19  1  0  0  0  0
 17 18  1  0  0  0  0
 17 39  1  0  0  0  0
 17 40  1  0  0  0  0
 18 41  1  0  0  0  0
 19 28  1  0  0  0  0
 19 20  1  0  0  0  0
 19 21  1  0  0  0  0
 20 42  1  0  0  0  0
 21 29  1  0  0  0  0
 21 22  1  0  0  0  0
 22 43  1  0  0  0  0
 23 24  2  0  0  0  0
 23 25  1  0  0  0  0
 25 44  1  0  0  0  0
M  END
> <s_m_source_file>
AV-unprocessed.smi

> <i_m_source_file_index>
54

> <i_lp_mmshare_version>
43012

> <i_f3d_flags>
0

> <s_epik_input>
W0NIM11bQ0hdKFtDSDNdKUMoPU8pW05IXWMobjEpW25IXWMoPU8pYyhjMTIpbltjSF1uMltDQEBIXTNPW0NASF0oW0NIMl1bT0hdKVtDQEBIXShbT0hdKVtDQEhdM1tPSF0=

> <s_epik_cmdline>
J2VwaWtfcHl0aG9uJywgJy1waCcsICc3LjAnLCAnLXRuJywgJzgnLCAnLW1hJywgJzIwMCcsICctbWV0YWxfYmluZGluZycsICctaW1hZScsICc8aW5maWxlLm1hZT4nLCAnLW9tYWUnLCAnPG91dGZpbGUubWFlPic=

> <r_lp_tautomer_probability>
0.85571

> <r_epik_Ionization_Penalty>
0.0316551

> <r_epik_Ionization_Penalty_Charging>
0.0316043

> <r_epik_Ionization_Penalty_Neutral>
5.07097e-05

> <r_epik_State_Penalty>
3.15494e-07

> <r_epik_Charging_Adjusted_Penalty>
0.0316047

> <i_epik_Tot_Q>
0

> <i_epik_Tot_abs_Q>
0

> <r_epik_Metal_State_Penalty>
0.421206

> <b_epik_Metal_Only>
0

> <s_epik_Chemistry_Notes>
This compound contains an acetal/aminal-like group ( X-CH(R)-Y where X, Y are N, S, or O) that may be acid/base labile, releasing an aldehyde.

> <s_lp_Force_Field>
OPLS_2005

> <r_lp_Energy>
47.6187

> <b_lp_Chiralities_Consistent>
1

> <s_lp_Variant>
AV-unprocessed.smi:54-2

> <Gold.Version>
5.8.1

> <Gold.Id.Protein>
6NUR|6NUR_protein|mol2

> <Gold.PLP.Fitness>
47.3422

> <Gold.PLP.PLP>
-32.3800

> <Gold.PLP.part.hbond>
-5.6320

> <Gold.PLP.part.metal>
0.0000

> <Gold.PLP.part.buried>
-1.9403

> <Gold.PLP.part.nonpolar>
-27.2501

> <Gold.PLP.part.repulsive>
3.1604

> <Gold.PLP.ligand.clash>
0.0000

> <Gold.PLP.ligand.torsion>
1.0868

> <Gold.PLP.Chemscore.Hbond>
4.7038

> <Gold.PLP.Chemscore.CHOScore>
1.0000

> <Gold.PLP.Chemscore.Metal>
0.0000

> <Gold.Chemscore.Hbonds>
donor molecule, donor type, donor heavy atom, donor atom, acceptor molecule, acceptor atom, score
      L1  H    18    41       P1  7957  0.99
      L1  H    20    42       P1 10175  1.00
      L1  H    22    43       P1  8028  0.99
      P1  H  7954  7966       L1    18  0.63
      P1  H 10752 10765       L1     5  0.99
      L1  C    12    38       P1  8028  0.87

> <Gold.PLP.Chemscore.Internal.Correction>
0.0244

> <Gold.Rescore>
     Score         DG    S(hbond)    S(metal)    S(lipo)     H(rot)  DE(clash)    DE(int)     intcor
      8.38     -12.41       3.70        0.00      42.26       4.05       1.25       2.78       ----

> <Gold.Chemscore.Fitness>
8.3755

> <Gold.Chemscore.DG>
-12.4064

> <Gold.Chemscore.ZeroCoef>
-5.4800

> <Gold.Chemscore.Hbond>
3.6970

> <Gold.Chemscore.Metal>
0.0000

> <Gold.Chemscore.Lipo>
42.2636

> <Gold.Chemscore.Internal_Hbond>
0.0000

> <Gold.Chemscore.DEClash>
1.2528

> <Gold.Chemscore.DEInternal>
2.7782

> <Gold.Chemscore.Rot>
4.0493

> <Gold.Chemscore.Internal.Correction>
   9.000000E+99

> <Gold.Chemscore.Hbonds>
donor molecule, donor type, donor heavy atom, donor atom, acceptor molecule, acceptor atom, score
      L1  H    18    41       P1  7957  0.91
      L1  H    20    42       P1 10175  0.65
      L1  H    22    43       P1  8028  0.37
      P1  H  7954  7966       L1    18  0.07
      P1  H 10752 10765       L1     5  0.91

> <Gold.Chemscore.Hbond.Weighted>
-12.3478

> <Gold.Chemscore.Metal.Weighted>
-0.0000

> <Gold.Chemscore.Lipo.Weighted>
-4.9448

> <Gold.Chemscore.Internal_Hbond.Weighted>
0.0000

> <Gold.Chemscore.DEClash.Weighted>
1.2528

> <Gold.Chemscore.DEInternal.Weighted>
2.7782

> <Gold.Chemscore.Rot.Weighted>
10.3662

> <Gold.Chemscore.Internal.Correction.Weighted>
   9.000000E+99

> <Gold.Protein.RotatedTorsions>
[ 6907 6896 6895 6894 ] final   31.40 input  -60.11 | X-H torsion
[ 7974 7965 7964 7962 ] final   81.48 input  175.53 | X-H torsion
[ 8008 7997 7996 7995 ] final  103.71 input   59.86 | X-H torsion
[ 10167 10162 10161 10158 ] final -123.99 input  -65.29 | X-H torsion
[ 10718 10713 10712 10709 ] final -103.95 input   66.30 | X-H torsion
[ 10763 10752 10751 10750 ] final  178.98 input  -60.55 | X-H torsion
[ 11005 11000 10999 10996 ] final -161.79 input  -57.11 | X-H torsion

> <Gold.Protein.ActiveResidues>
 VAL166  LYS551  ARG553  GLY616  TRP617  ASP618  TYR619  PRO620  LYS621  CYS622 
 ASP623  PHE694  ASN695  SER759  ASP760  ASP761  ALA762  ILE779  LEU786  VAL792 
 PHE793  MET794  SER795  GLU796  ALA797  LYS798  CYS799  TRP800  GLU811  SER814 

> <Gold.Protein.RotatedAtoms>
  152.0598  134.9601  160.0574 H   0  0  0  0  0  0  0  0  0  0  0  0  # atno 6907 bound_to 6896
  152.0969  133.4225  159.4577 H   0  0  0  0  0  0  0  0  0  0  0  0  # atno 6908 bound_to 6896
  150.6838  134.2725  159.4637 H   0  0  0  0  0  0  0  0  0  0  0  0  # atno 6909 bound_to 6896
  145.6376  139.2418  143.2049 H   0  0  0  0  0  0  0  0  0  0  0  0  # atno 7974 bound_to 7965
  156.1508  140.3160  155.8645 H   0  0  0  0  0  0  0  0  0  0  0  0  # atno 8008 bound_to 7997
  155.3975  140.0497  157.3055 H   0  0  0  0  0  0  0  0  0  0  0  0  # atno 8009 bound_to 7997
  154.5057  140.2146  155.9268 H   0  0  0  0  0  0  0  0  0  0  0  0  # atno 8010 bound_to 7997
  139.9976  143.5574  152.2317 H   0  0  0  0  0  0  0  0  0  0  0  0  # atno 10167 bound_to 10162
  156.0285  130.5491  150.7326 H   0  0  0  0  0  0  0  0  0  0  0  0  # atno 10718 bound_to 10713
  154.5148  135.2790  155.1312 H   0  0  0  0  0  0  0  0  0  0  0  0  # atno 10763 bound_to 10752
  154.2893  135.6270  153.5382 H   0  0  0  0  0  0  0  0  0  0  0  0  # atno 10764 bound_to 10752
  152.9925  135.5670  154.5622 H   0  0  0  0  0  0  0  0  0  0  0  0  # atno 10765 bound_to 10752
  140.6165  134.4795  157.5220 H   0  0  0  0  0  0  0  0  0  0  0  0  # atno 11005 bound_to 11000
  146.1306  140.7190  142.9414 LP  0  0  0  0  0  0  0  0  0  0  0  0  # atno 17320 bound_to 7965
  144.7169  140.4242  143.7037 LP  0  0  0  0  0  0  0  0  0  0  0  0  # atno 17321 bound_to 7965
  139.6295  144.7642  151.2567 LP  0  0  0  0  0  0  0  0  0  0  0  0  # atno 17342 bound_to 10162
  140.7431  143.6505  150.8253 LP  0  0  0  0  0  0  0  0  0  0  0  0  # atno 17343 bound_to 10162
  157.4914  131.0911  151.0422 LP  0  0  0  0  0  0  0  0  0  0  0  0  # atno 17370 bound_to 10713
  157.0827  130.5910  149.5424 LP  0  0  0  0  0  0  0  0  0  0  0  0  # atno 17371 bound_to 10713
  139.9171  134.8224  156.1331 LP  0  0  0  0  0  0  0  0  0  0  0  0  # atno 17394 bound_to 11000
  141.0772  133.6770  156.2261 LP  0  0  0  0  0  0  0  0  0  0  0  0  # atno 17395 bound_to 11000

$$$$
