AV-unprocessed.smi:72|AV-procd|sdf|699|dock2
  -GOLD-   2262017 13D 1   1.00000     0.00000
 Structure written by MMmdl.
 30 31  0  0  0  0  0  0  0  0  2 V2000
  145.8861  138.6788  152.0362 N   0  0  0  0  0  0  0  0  0  0  0  0
  146.7904  139.3945  152.7930 C   0  0  0  0  0  0  0  0  0  0  0  0
  148.0305  138.8245  153.0206 N   0  3  0  0  0  0  0  0  0  0  0  0
  149.0195  139.3886  153.7271 C   0  0  0  0  0  0  0  0  0  0  0  0
  148.8307  140.5833  154.2490 N   0  0  0  0  0  0  0  0  0  0  0  0
  149.9056  141.2544  155.0578 C   0  0  2  0  0  0  0  0  0  0  0  0
  151.0429  140.4487  155.0028 O   0  0  0  0  0  0  0  0  0  0  0  0
  151.5832  140.2781  156.3083 C   0  0  2  0  0  0  0  0  0  0  0  0
  152.4282  138.9956  156.4031 C   0  0  0  0  0  0  0  0  0  0  0  0
  153.3931  138.9757  155.3735 O   0  0  0  0  0  0  0  0  0  0  0  0
  150.3448  140.3252  157.2126 C   0  0  2  0  0  0  0  0  0  0  0  0
  149.6857  139.0714  157.2430 O   0  0  0  0  0  0  0  0  0  0  0  0
  149.4668  141.3625  156.5278 C   0  0  1  0  0  0  0  0  0  0  0  0
  149.7277  142.6510  157.0461 O   0  0  0  0  0  0  0  0  0  0  0  0
  147.5818  141.2361  154.0940 C   0  0  0  0  0  0  0  0  0  0  0  0
  147.3829  142.3324  154.6162 O   0  0  0  0  0  0  0  0  0  0  0  0
  146.6101  140.5673  153.3351 N   0  0  0  0  0  0  0  0  0  0  0  0
  150.1096  142.2110  154.5732 H   0  0  0  0  0  0  0  0  0  0  0  0
  152.1996  141.1494  156.5384 H   0  0  0  0  0  0  0  0  0  0  0  0
  150.5962  140.5998  158.2381 H   0  0  0  0  0  0  0  0  0  0  0  0
  148.4017  141.1560  156.6481 H   0  0  0  0  0  0  0  0  0  0  0  0
  144.9567  139.0128  151.8220 H   0  0  0  0  0  0  0  0  0  0  0  0
  146.0758  137.7689  151.6413 H   0  0  0  0  0  0  0  0  0  0  0  0
  149.9511  138.8533  153.8610 H   0  0  0  0  0  0  0  0  0  0  0  0
  152.9655  138.9704  157.3516 H   0  0  0  0  0  0  0  0  0  0  0  0
  151.8061  138.1013  156.3554 H   0  0  0  0  0  0  0  0  0  0  0  0
  153.8522  138.1500  155.4051 H   0  0  0  0  0  0  0  0  0  0  0  0
  150.2032  138.4737  157.7614 H   0  0  0  0  0  0  0  0  0  0  0  0
  149.2845  143.2898  156.5081 H   0  0  0  0  0  0  0  0  0  0  0  0
  148.2001  137.9116  152.6231 H   0  0  0  0  0  0  0  0  0  0  0  0
  1  2  1  0  0  0  0
  1 22  1  0  0  0  0
  1 23  1  0  0  0  0
  2 17  2  0  0  0  0
  2  3  1  0  0  0  0
  3  4  2  0  0  0  0
  3 30  1  0  0  0  0
  4  5  1  0  0  0  0
  4 24  1  0  0  0  0
  5  6  1  0  0  0  0
  5 15  1  0  0  0  0
  6 18  1  0  0  0  0
  6 13  1  0  0  0  0
  6  7  1  0  0  0  0
  7  8  1  0  0  0  0
  8 19  1  0  0  0  0
  8  9  1  0  0  0  0
  8 11  1  0  0  0  0
  9 10  1  0  0  0  0
  9 25  1  0  0  0  0
  9 26  1  0  0  0  0
 10 27  1  0  0  0  0
 11 20  1  0  0  0  0
 11 12  1  0  0  0  0
 11 13  1  0  0  0  0
 12 28  1  0  0  0  0
 13 21  1  0  0  0  0
 13 14  1  0  0  0  0
 14 29  1  0  0  0  0
 15 16  2  0  0  0  0
 15 17  1  0  0  0  0
M  CHG  1   3   1
M  END
> <s_m_source_file>
AV-unprocessed.smi

> <i_m_source_file_index>
72

> <i_lp_mmshare_version>
43012

> <i_f3d_flags>
0

> <s_epik_input>
W05IMl1jMW5bY0hdbihjKD1PKW4xKVtDQEBIXTJPW0NASF0oW0NIMl1bT0hdKVtDQEBIXShbT0hdKVtDQEhdMltPSF0=

> <s_epik_cmdline>
J2VwaWtfcHl0aG9uJywgJy1waCcsICc3LjAnLCAnLXRuJywgJzgnLCAnLW1hJywgJzIwMCcsICctbWV0YWxfYmluZGluZycsICctaW1hZScsICc8aW5maWxlLm1hZT4nLCAnLW9tYWUnLCAnPG91dGZpbGUubWFlPic=

> <r_lp_tautomer_probability>
4.77166e-05

> <r_epik_Ionization_Penalty>
0.104979

> <r_epik_Ionization_Penalty_Charging>
0.0999619

> <r_epik_Ionization_Penalty_Neutral>
0.00501745

> <r_epik_State_Penalty>
2.51541

> <r_epik_Charging_Adjusted_Penalty>
2.61537

> <i_epik_Tot_Q>
1

> <i_epik_Tot_abs_Q>
1

> <r_epik_Metal_State_Penalty>
3.53763

> <b_epik_Metal_Only>
0

> <s_epik_Chemistry_Notes>
This compound contains an acetal/aminal-like group ( X-CH(R)-Y where X, Y are N, S, or O) that may be acid/base labile, releasing an aldehyde.

> <s_lp_Force_Field>
OPLS_2005

> <r_lp_Energy>
28.7493

> <b_lp_Chiralities_Consistent>
1

> <s_lp_Variant>
AV-unprocessed.smi:72-37

> <Gold.Version>
5.8.1

> <Gold.Id.Protein>
6NUR|6NUR_protein|mol2

> <Gold.PLP.Fitness>
43.0418

> <Gold.PLP.PLP>
-25.8756

> <Gold.PLP.part.hbond>
-7.0000

> <Gold.PLP.part.metal>
0.0000

> <Gold.PLP.part.buried>
-0.1787

> <Gold.PLP.part.nonpolar>
-19.8019

> <Gold.PLP.part.repulsive>
1.9953

> <Gold.PLP.ligand.clash>
0.0000

> <Gold.PLP.ligand.torsion>
0.1002

> <Gold.PLP.Chemscore.Hbond>
5.7840

> <Gold.PLP.Chemscore.CHOScore>
0.0000

> <Gold.PLP.Chemscore.Metal>
0.0000

> <Gold.Chemscore.Hbonds>
donor molecule, donor type, donor heavy atom, donor atom, acceptor molecule, acceptor atom, score
      L1  H     1    22       P1 10175  0.78
      L1  H     3    30       P1  7948  2.00
      L1  H    14    29       P1  8028  1.00
      P1  H  7989  7998       L1     7  1.00
      P1  H  7997  8010       L1    10  1.00

> <Gold.PLP.Chemscore.Internal.Correction>
0.0147

> <Gold.Rescore>
     Score         DG    S(hbond)    S(metal)    S(lipo)     H(rot)  DE(clash)    DE(int)     intcor
      7.42      -9.33       3.60        0.00      19.49       4.08       0.73       1.19       ----

> <Gold.Chemscore.Fitness>
7.4151

> <Gold.Chemscore.DG>
-9.3342

> <Gold.Chemscore.ZeroCoef>
-5.4800

> <Gold.Chemscore.Hbond>
3.5973

> <Gold.Chemscore.Metal>
0.0000

> <Gold.Chemscore.Lipo>
19.4852

> <Gold.Chemscore.Internal_Hbond>
0.0000

> <Gold.Chemscore.DEClash>
0.7274

> <Gold.Chemscore.DEInternal>
1.1917

> <Gold.Chemscore.Rot>
4.0783

> <Gold.Chemscore.Internal.Correction>
   9.000000E+99

> <Gold.Chemscore.Hbonds>
donor molecule, donor type, donor heavy atom, donor atom, acceptor molecule, acceptor atom, score
      L1  H     1    22       P1 10175  0.73
      L1  H     3    30       P1  7948  0.98
      L1  H    14    29       P1  8028  1.00
      P1  H  7989  7998       L1     7  0.25
      P1  H  7997  8010       L1    10  0.23

> <Gold.Chemscore.Hbond.Weighted>
-12.0148

> <Gold.Chemscore.Metal.Weighted>
-0.0000

> <Gold.Chemscore.Lipo.Weighted>
-2.2798

> <Gold.Chemscore.Internal_Hbond.Weighted>
0.0000

> <Gold.Chemscore.DEClash.Weighted>
0.7274

> <Gold.Chemscore.DEInternal.Weighted>
1.1917

> <Gold.Chemscore.Rot.Weighted>
10.4404

> <Gold.Chemscore.Internal.Correction.Weighted>
   9.000000E+99

> <Gold.Protein.RotatedTorsions>
[ 6907 6896 6895 6894 ] final   -5.89 input  -60.11 | X-H torsion
[ 7974 7965 7964 7962 ] final   98.70 input  175.53 | X-H torsion
[ 8008 7997 7996 7995 ] final  106.77 input   59.86 | X-H torsion
[ 10167 10162 10161 10158 ] final  -59.27 input  -65.29 | X-H torsion
[ 10718 10713 10712 10709 ] final  127.64 input   66.30 | X-H torsion
[ 10763 10752 10751 10750 ] final  173.70 input  -60.55 | X-H torsion
[ 11005 11000 10999 10996 ] final  153.26 input  -57.11 | X-H torsion

> <Gold.Protein.ActiveResidues>
 VAL166  LYS551  ARG553  GLY616  TRP617  ASP618  TYR619  PRO620  LYS621  CYS622 
 ASP623  PHE694  ASN695  SER759  ASP760  ASP761  ALA762  ILE779  LEU786  VAL792 
 PHE793  MET794  SER795  GLU796  ALA797  LYS798  CYS799  TRP800  GLU811  SER814 

> <Gold.Protein.RotatedAtoms>
  151.4743  135.1048  159.9759 H   0  0  0  0  0  0  0  0  0  0  0  0  # atno 6907 bound_to 6896
  152.4804  133.8237  159.7077 H   0  0  0  0  0  0  0  0  0  0  0  0  # atno 6908 bound_to 6896
  150.8872  133.7231  159.2941 H   0  0  0  0  0  0  0  0  0  0  0  0  # atno 6909 bound_to 6896
  145.4086  139.2337  143.3260 H   0  0  0  0  0  0  0  0  0  0  0  0  # atno 7974 bound_to 7965
  156.1770  140.3107  155.9078 H   0  0  0  0  0  0  0  0  0  0  0  0  # atno 8008 bound_to 7997
  155.3466  140.0468  157.3062 H   0  0  0  0  0  0  0  0  0  0  0  0  # atno 8009 bound_to 7997
  154.5301  140.2227  155.8830 H   0  0  0  0  0  0  0  0  0  0  0  0  # atno 8010 bound_to 7997
  140.6146  143.2398  151.5629 H   0  0  0  0  0  0  0  0  0  0  0  0  # atno 10167 bound_to 10162
  157.5315  131.1098  150.9002 H   0  0  0  0  0  0  0  0  0  0  0  0  # atno 10718 bound_to 10713
  154.4437  135.2763  155.1830 H   0  0  0  0  0  0  0  0  0  0  0  0  # atno 10763 bound_to 10752
  154.3686  135.6113  153.5731 H   0  0  0  0  0  0  0  0  0  0  0  0  # atno 10764 bound_to 10752
  152.9842  135.5852  154.4769 H   0  0  0  0  0  0  0  0  0  0  0  0  # atno 10765 bound_to 10752
  140.1381  134.8757  157.2295 H   0  0  0  0  0  0  0  0  0  0  0  0  # atno 11005 bound_to 11000
  146.2716  140.4795  142.8812 LP  0  0  0  0  0  0  0  0  0  0  0  0  # atno 17320 bound_to 7965
  144.8324  140.6728  143.6282 LP  0  0  0  0  0  0  0  0  0  0  0  0  # atno 17321 bound_to 7965
  139.5388  144.2706  152.1308 LP  0  0  0  0  0  0  0  0  0  0  0  0  # atno 17342 bound_to 10162
  140.1912  144.4750  150.6478 LP  0  0  0  0  0  0  0  0  0  0  0  0  # atno 17343 bound_to 10162
  156.9582  130.5445  149.5285 LP  0  0  0  0  0  0  0  0  0  0  0  0  # atno 17370 bound_to 10713
  156.0426  130.5506  150.8806 LP  0  0  0  0  0  0  0  0  0  0  0  0  # atno 17371 bound_to 10713
  140.2756  134.3409  155.7359 LP  0  0  0  0  0  0  0  0  0  0  0  0  # atno 17394 bound_to 11000
  141.2181  133.7448  156.9288 LP  0  0  0  0  0  0  0  0  0  0  0  0  # atno 17395 bound_to 11000

$$$$
