AV-unprocessed.smi:34|AV-procd|sdf|221|dock9
  -GOLD-   2262015543D 1   1.00000     0.00000
 Structure written by MMmdl.
 55 59  0  0  0  0  0  0  0  0  1 V2000
  152.4439  140.3258  156.6638 O   0  0  0  0  0  0  0  0  0  0  0  0
  151.5784  141.1668  156.9086 C   0  0  0  0  0  0  0  0  0  0  0  0
  150.3286  141.2268  156.1709 N   0  0  0  0  0  0  0  0  0  0  0  0
  149.8758  140.3737  155.2221 C   0  0  0  0  0  0  0  0  0  0  0  0
  150.7082  139.5807  154.4970 N   0  0  0  0  0  0  0  0  0  0  0  0
  150.2126  138.7487  153.5764 C   0  0  0  0  0  0  0  0  0  0  0  0
  148.9395  138.5543  153.2280 N   0  0  0  0  0  0  0  0  0  0  0  0
  148.0969  139.3470  153.9509 C   0  0  0  0  0  0  0  0  0  0  0  0
  148.4849  140.2751  154.9570 C   0  0  0  0  0  0  0  0  0  0  0  0
  147.3597  140.9013  155.4777 N   0  0  0  0  0  0  0  0  0  0  0  0
  146.3668  140.3692  154.8163 C   0  0  0  0  0  0  0  0  0  0  0  0
  146.7214  139.4269  153.8767 N   0  0  0  0  0  0  0  0  0  0  0  0
  145.8184  138.6461  152.9797 C   0  0  2  0  0  0  0  0  0  0  0  0
  144.8818  137.9960  153.7787 O   0  0  0  0  0  0  0  0  0  0  0  0
  144.5520  136.7613  153.1636 C   0  0  2  0  0  0  0  0  0  0  0  0
  143.8997  135.8052  154.1694 C   0  0  0  0  0  0  0  0  0  0  0  0
  142.6888  136.3764  154.6366 O   0  0  0  0  0  0  0  0  0  0  0  0
  141.5114  135.7863  154.3526 C   0  0  0  0  0  0  0  0  0  0  0  0
  141.3858  134.5769  154.1491 O   0  0  0  0  0  0  0  0  0  0  0  0
  140.3745  136.7509  154.3090 C   0  0  0  0  0  0  0  0  0  0  0  0
  139.0538  136.2742  154.4809 C   0  0  0  0  0  0  0  0  0  0  0  0
  137.9606  137.1615  154.4462 C   0  0  0  0  0  0  0  0  0  0  0  0
  138.1748  138.5368  154.2402 C   0  0  0  0  0  0  0  0  0  0  0  0
  139.4836  139.0238  154.0685 C   0  0  0  0  0  0  0  0  0  0  0  0
  140.5780  138.1379  154.1022 C   0  0  0  0  0  0  0  0  0  0  0  0
  145.8954  136.2790  152.6116 C   0  0  2  0  0  0  0  0  0  0  0  0
  146.6086  135.6667  153.5582 F   0  0  0  0  0  0  0  0  0  0  0  0
  146.5971  137.5694  152.2018 C   0  0  1  0  0  0  0  0  0  0  0  0
  146.4889  137.7470  150.8037 O   0  0  0  0  0  0  0  0  0  0  0  0
  151.7939  142.2460  157.9300 C   0  0  0  0  0  0  0  0  0  0  0  0
  151.0616  143.4519  157.8492 C   0  0  0  0  0  0  0  0  0  0  0  0
  151.2692  144.4770  158.7928 C   0  0  0  0  0  0  0  0  0  0  0  0
  152.2156  144.3079  159.8211 C   0  0  0  0  0  0  0  0  0  0  0  0
  152.9585  143.1151  159.9018 C   0  0  0  0  0  0  0  0  0  0  0  0
  152.7523  142.0894  158.9587 C   0  0  0  0  0  0  0  0  0  0  0  0
  149.7091  141.9860  156.4137 H   0  0  0  0  0  0  0  0  0  0  0  0
  150.9397  138.1541  153.0434 H   0  0  0  0  0  0  0  0  0  0  0  0
  145.3399  140.6521  154.9975 H   0  0  0  0  0  0  0  0  0  0  0  0
  145.3342  139.3869  152.3413 H   0  0  0  0  0  0  0  0  0  0  0  0
  143.8741  136.9545  152.3300 H   0  0  0  0  0  0  0  0  0  0  0  0
  143.6789  134.8525  153.6862 H   0  0  0  0  0  0  0  0  0  0  0  0
  144.5759  135.6054  155.0020 H   0  0  0  0  0  0  0  0  0  0  0  0
  138.8645  135.2223  154.6405 H   0  0  0  0  0  0  0  0  0  0  0  0
  136.9564  136.7858  154.5779 H   0  0  0  0  0  0  0  0  0  0  0  0
  137.3365  139.2174  154.2139 H   0  0  0  0  0  0  0  0  0  0  0  0
  139.6494  140.0794  153.9110 H   0  0  0  0  0  0  0  0  0  0  0  0
  141.5696  138.5452  153.9687 H   0  0  0  0  0  0  0  0  0  0  0  0
  145.7818  135.5616  151.7979 H   0  0  0  0  0  0  0  0  0  0  0  0
  147.6520  137.5633  152.4810 H   0  0  0  0  0  0  0  0  0  0  0  0
  145.7942  138.3646  150.6334 H   0  0  0  0  0  0  0  0  0  0  0  0
  150.3323  143.5982  157.0653 H   0  0  0  0  0  0  0  0  0  0  0  0
  150.7025  145.3940  158.7263 H   0  0  0  0  0  0  0  0  0  0  0  0
  152.3746  145.0939  160.5445 H   0  0  0  0  0  0  0  0  0  0  0  0
  153.6897  142.9877  160.6867 H   0  0  0  0  0  0  0  0  0  0  0  0
  153.3410  141.1865  159.0339 H   0  0  0  0  0  0  0  0  0  0  0  0
  1  2  2  0  0  0  0
  2  3  1  0  0  0  0
  2 30  1  0  0  0  0
  3  4  1  0  0  0  0
  3 36  1  0  0  0  0
  4  9  1  0  0  0  0
  4  5  2  0  0  0  0
  5  6  1  0  0  0  0
  6  7  2  0  0  0  0
  6 37  1  0  0  0  0
  7  8  1  0  0  0  0
  8 12  1  0  0  0  0
  8  9  2  0  0  0  0
  9 10  1  0  0  0  0
 10 11  2  0  0  0  0
 11 12  1  0  0  0  0
 11 38  1  0  0  0  0
 12 13  1  0  0  0  0
 13 28  1  0  0  0  0
 13 14  1  0  0  0  0
 13 39  1  0  0  0  0
 14 15  1  0  0  0  0
 15 16  1  0  0  0  0
 15 26  1  0  0  0  0
 15 40  1  0  0  0  0
 16 17  1  0  0  0  0
 16 41  1  0  0  0  0
 16 42  1  0  0  0  0
 17 18  1  0  0  0  0
 18 19  2  0  0  0  0
 18 20  1  0  0  0  0
 20 25  1  0  0  0  0
 20 21  2  0  0  0  0
 21 22  1  0  0  0  0
 21 43  1  0  0  0  0
 22 23  2  0  0  0  0
 22 44  1  0  0  0  0
 23 24  1  0  0  0  0
 23 45  1  0  0  0  0
 24 25  2  0  0  0  0
 24 46  1  0  0  0  0
 25 47  1  0  0  0  0
 26 27  1  0  0  0  0
 26 28  1  0  0  0  0
 26 48  1  0  0  0  0
 28 29  1  0  0  0  0
 28 49  1  0  0  0  0
 29 50  1  0  0  0  0
 30 35  1  0  0  0  0
 30 31  2  0  0  0  0
 31 32  1  0  0  0  0
 31 51  1  0  0  0  0
 32 33  2  0  0  0  0
 32 52  1  0  0  0  0
 33 34  1  0  0  0  0
 33 53  1  0  0  0  0
 34 35  2  0  0  0  0
 34 54  1  0  0  0  0
 35 55  1  0  0  0  0
M  END
> <s_m_source_file>
AV-unprocessed.smi

> <i_m_source_file_index>
34

> <i_lp_mmshare_version>
43012

> <i_f3d_flags>
0

> <s_epik_input>
W2NIXTFbY0hdW2NIXVtjSF1bY0hdYzFDKD1PKVtOSF1jKG5bY0hdbjIpYyhjMjMpbltjSF1uM1tDQEBIXTRPW0NASF0oW0NAQEhdKEYpW0NASF00W09IXSlbQ0gyXU9DKD1PKWM1W2NIXVtjSF1bY0hdW2NIXVtjSF01

> <s_epik_cmdline>
J2VwaWtfcHl0aG9uJywgJy1waCcsICc3LjAnLCAnLXRuJywgJzgnLCAnLW1hJywgJzIwMCcsICctbWV0YWxfYmluZGluZycsICctaW1hZScsICc8aW5maWxlLm1hZT4nLCAnLW9tYWUnLCAnPG91dGZpbGUubWFlPic=

> <r_lp_tautomer_probability>
1

> <r_epik_Ionization_Penalty>
0.00257489

> <r_epik_Ionization_Penalty_Charging>
0

> <r_epik_Ionization_Penalty_Neutral>
0.00257489

> <r_epik_State_Penalty>
0.00519398

> <r_epik_Charging_Adjusted_Penalty>
0.00519398

> <i_epik_Tot_Q>
0

> <i_epik_Tot_abs_Q>
0

> <r_epik_Metal_State_Penalty>
0.335891

> <b_epik_Metal_Only>
0

> <s_epik_Chemistry_Notes>
This compound has an ester and may undergo hydrolysis at high or low pH. This compound contains an acetal/aminal-like group ( X-CH(R)-Y where X, Y are N, S, or O) that may be acid/base labile, releasing an aldehyde.

> <s_lp_Force_Field>
OPLS_2005

> <r_lp_Energy>
45.7986

> <b_lp_Chiralities_Consistent>
1

> <s_lp_Variant>
AV-unprocessed.smi:34-7

> <Gold.Version>
5.8.1

> <Gold.Id.Protein>
6NUR|6NUR_protein|mol2

> <Gold.PLP.Fitness>
59.8796

> <Gold.PLP.PLP>
-46.9665

> <Gold.PLP.part.hbond>
-5.9505

> <Gold.PLP.part.metal>
0.0000

> <Gold.PLP.part.buried>
-0.5245

> <Gold.PLP.part.nonpolar>
-48.9232

> <Gold.PLP.part.repulsive>
8.5543

> <Gold.PLP.ligand.clash>
0.3468

> <Gold.PLP.ligand.torsion>
1.3211

> <Gold.PLP.Chemscore.Hbond>
4.5090

> <Gold.PLP.Chemscore.CHOScore>
0.7399

> <Gold.PLP.Chemscore.Metal>
0.0000

> <Gold.Chemscore.Hbonds>
donor molecule, donor type, donor heavy atom, donor atom, acceptor molecule, acceptor atom, score
      L1  H    29    50       P1 10171  0.77
      P1  H  7954  7966       L1    29  1.00
      P1  H  7989  7998       L1     5  1.00
      P1  H  7997  8008       L1     1  0.99
      P1  H 11000 11005       L1    19  0.47
      L1  C     6    37       P1  7949  0.65

> <Gold.PLP.Chemscore.Internal.Correction>
0.1553

> <Gold.Rescore>
     Score         DG    S(hbond)    S(metal)    S(lipo)     H(rot)  DE(clash)    DE(int)     intcor
     14.48     -21.90       2.79        0.00     120.34       2.72       3.45       3.97       ----

> <Gold.Chemscore.Fitness>
14.4798

> <Gold.Chemscore.DG>
-21.8997

> <Gold.Chemscore.ZeroCoef>
-5.4800

> <Gold.Chemscore.Hbond>
2.7864

> <Gold.Chemscore.Metal>
0.0000

> <Gold.Chemscore.Lipo>
120.3433

> <Gold.Chemscore.Internal_Hbond>
0.0000

> <Gold.Chemscore.DEClash>
3.4542

> <Gold.Chemscore.DEInternal>
3.9656

> <Gold.Chemscore.Rot>
2.7215

> <Gold.Chemscore.Internal.Correction>
   9.000000E+99

> <Gold.Chemscore.Hbonds>
donor molecule, donor type, donor heavy atom, donor atom, acceptor molecule, acceptor atom, score
      L1  H    29    50       P1 10171  0.74
      P1  H  7954  7966       L1    29  0.87
      P1  H  7989  7998       L1     5  0.13
      P1  H  7997  8008       L1     1  0.94
      P1  H 11000 11005       L1    19  0.03

> <Gold.Chemscore.Hbond.Weighted>
-9.3065

> <Gold.Chemscore.Metal.Weighted>
-0.0000

> <Gold.Chemscore.Lipo.Weighted>
-14.0802

> <Gold.Chemscore.Internal_Hbond.Weighted>
0.0000

> <Gold.Chemscore.DEClash.Weighted>
3.4542

> <Gold.Chemscore.DEInternal.Weighted>
3.9656

> <Gold.Chemscore.Rot.Weighted>
6.9670

> <Gold.Chemscore.Internal.Correction.Weighted>
   9.000000E+99

> <Gold.Protein.RotatedTorsions>
[ 6907 6896 6895 6894 ] final   20.91 input  -60.11 | X-H torsion
[ 7974 7965 7964 7962 ] final   38.31 input  175.53 | X-H torsion
[ 8008 7997 7996 7995 ] final  -55.21 input   59.86 | X-H torsion
[ 10167 10162 10161 10158 ] final -166.61 input  -65.29 | X-H torsion
[ 10718 10713 10712 10709 ] final -135.23 input   66.30 | X-H torsion
[ 10763 10752 10751 10750 ] final  125.83 input  -60.55 | X-H torsion
[ 11005 11000 10999 10996 ] final   37.48 input  -57.11 | X-H torsion

> <Gold.Protein.ActiveResidues>
 VAL166  LYS551  ARG553  GLY616  TRP617  ASP618  TYR619  PRO620  LYS621  CYS622 
 ASP623  PHE694  ASN695  SER759  ASP760  ASP761  ALA762  ILE779  LEU786  VAL792 
 PHE793  MET794  SER795  GLU796  ALA797  LYS798  CYS799  TRP800  GLU811  SER814 

> <Gold.Protein.RotatedAtoms>
  151.9037  135.0367  160.0508 H   0  0  0  0  0  0  0  0  0  0  0  0  # atno 6907 bound_to 6896
  152.2337  133.5074  159.5238 H   0  0  0  0  0  0  0  0  0  0  0  0  # atno 6908 bound_to 6896
  150.7033  134.1099  159.4039 H   0  0  0  0  0  0  0  0  0  0  0  0  # atno 6909 bound_to 6896
  146.1072  139.5788  142.9376 H   0  0  0  0  0  0  0  0  0  0  0  0  # atno 7974 bound_to 7965
  154.4187  140.1158  156.5439 H   0  0  0  0  0  0  0  0  0  0  0  0  # atno 8008 bound_to 7997
  155.6479  140.3496  155.4719 H   0  0  0  0  0  0  0  0  0  0  0  0  # atno 8009 bound_to 7997
  155.9817  140.1161  157.0710 H   0  0  0  0  0  0  0  0  0  0  0  0  # atno 8010 bound_to 7997
  139.6104  144.0827  152.1836 H   0  0  0  0  0  0  0  0  0  0  0  0  # atno 10167 bound_to 10162
  156.2639  130.7226  151.1170 H   0  0  0  0  0  0  0  0  0  0  0  0  # atno 10718 bound_to 10713
  153.6836  135.3310  155.3184 H   0  0  0  0  0  0  0  0  0  0  0  0  # atno 10763 bound_to 10752
  154.8459  135.4415  154.1581 H   0  0  0  0  0  0  0  0  0  0  0  0  # atno 10764 bound_to 10752
  153.2604  135.6990  153.7662 H   0  0  0  0  0  0  0  0  0  0  0  0  # atno 10765 bound_to 10752
  140.2221  134.3628  155.8000 H   0  0  0  0  0  0  0  0  0  0  0  0  # atno 11005 bound_to 11000
  145.5737  141.0391  143.2160 LP  0  0  0  0  0  0  0  0  0  0  0  0  # atno 17320 bound_to 7965
  144.7480  139.7267  143.7284 LP  0  0  0  0  0  0  0  0  0  0  0  0  # atno 17321 bound_to 7965
  140.0444  144.5982  150.7385 LP  0  0  0  0  0  0  0  0  0  0  0  0  # atno 17342 bound_to 10162
  140.7315  143.2695  151.3935 LP  0  0  0  0  0  0  0  0  0  0  0  0  # atno 17343 bound_to 10162
  157.7260  131.0649  150.5926 LP  0  0  0  0  0  0  0  0  0  0  0  0  # atno 17370 bound_to 10713
  156.6016  130.4356  149.5895 LP  0  0  0  0  0  0  0  0  0  0  0  0  # atno 17371 bound_to 10713
  141.2222  133.7199  156.8593 LP  0  0  0  0  0  0  0  0  0  0  0  0  # atno 17394 bound_to 11000
  140.1839  134.9014  157.2981 LP  0  0  0  0  0  0  0  0  0  0  0  0  # atno 17395 bound_to 11000

$$$$
