AV-unprocessed.smi:534|AV-procd|sdf|2857|dock10
  -GOLD-   2262023353D 1   1.00000     0.00000
 Structure written by MMmdl.
 39 40  0  0  0  0  0  0  0  0  2 V2000
  151.0296  144.9479  160.0262 C   0  0  0  0  0  0  0  0  0  0  0  0
  151.3725  143.8631  160.8698 O   0  0  0  0  0  0  0  0  0  0  0  0
  152.5781  144.0887  161.5822 C   0  0  0  0  0  0  0  0  0  0  0  0
  152.8810  142.8630  162.4522 C   0  0  0  0  0  0  0  0  0  0  0  0
  153.4132  141.7708  161.6606 N   0  0  0  0  0  0  0  0  0  0  0  0
  153.1085  141.3170  160.3832 C   0  0  0  0  0  0  0  0  0  0  0  0
  152.1669  141.8435  159.5987 N   0  0  0  0  0  0  0  0  0  0  0  0
  152.2265  141.0358  158.4710 C   0  0  0  0  0  0  0  0  0  0  0  0
  153.1728  140.0674  158.6066 C   0  0  0  0  0  0  0  0  0  0  0  0
  153.4526  139.0373  157.5836 C   0  0  0  0  0  0  0  0  0  0  0  0
  154.3088  138.1747  157.7700 O   0  0  0  0  0  0  0  0  0  0  0  0
  152.6578  139.1812  156.4760 N   0  5  0  0  0  0  0  0  0  0  0  0
  151.6910  140.1470  156.2928 C   0  0  0  0  0  0  0  0  0  0  0  0
  151.0144  140.2023  155.2649 O   0  0  0  0  0  0  0  0  0  0  0  0
  151.4628  141.0780  157.2726 N   0  0  0  0  0  0  0  0  0  0  0  0
  150.4391  142.1138  157.1069 C   0  0  0  0  0  0  0  0  0  0  0  0
  153.7640  140.2527  159.8585 N   0  0  0  0  0  0  0  0  0  0  0  0
  154.8253  139.4678  160.4827 C   0  0  0  0  0  0  0  0  0  0  0  0
  154.3974  138.9118  161.8486 C   0  0  0  0  0  0  0  0  0  0  0  0
  154.6008  137.5076  161.8762 O   0  0  0  0  0  0  0  0  0  0  0  0
  154.0079  136.8920  163.0050 C   0  0  0  0  0  0  0  0  0  0  0  0
  150.0894  144.7332  159.5184 H   0  0  0  0  0  0  0  0  0  0  0  0
  151.7935  145.1094  159.2645 H   0  0  0  0  0  0  0  0  0  0  0  0
  150.9027  145.8684  160.5970 H   0  0  0  0  0  0  0  0  0  0  0  0
  153.4055  144.2873  160.8983 H   0  0  0  0  0  0  0  0  0  0  0  0
  152.4619  144.9686  162.2166 H   0  0  0  0  0  0  0  0  0  0  0  0
  153.6153  143.1227  163.2152 H   0  0  0  0  0  0  0  0  0  0  0  0
  151.9831  142.5304  162.9731 H   0  0  0  0  0  0  0  0  0  0  0  0
  154.0239  141.1586  162.1821 H   0  0  0  0  0  0  0  0  0  0  0  0
  150.6180  142.6898  156.1980 H   0  0  0  0  0  0  0  0  0  0  0  0
  150.4182  142.8202  157.9364 H   0  0  0  0  0  0  0  0  0  0  0  0
  149.4493  141.6615  157.0357 H   0  0  0  0  0  0  0  0  0  0  0  0
  155.1176  138.6605  159.8125 H   0  0  0  0  0  0  0  0  0  0  0  0
  155.7158  140.0867  160.5941 H   0  0  0  0  0  0  0  0  0  0  0  0
  154.9736  139.3892  162.6427 H   0  0  0  0  0  0  0  0  0  0  0  0
  153.3456  139.1382  162.0277 H   0  0  0  0  0  0  0  0  0  0  0  0
  154.1888  135.8178  162.9725 H   0  0  0  0  0  0  0  0  0  0  0  0
  152.9293  137.0525  163.0210 H   0  0  0  0  0  0  0  0  0  0  0  0
  154.4342  137.2768  163.9324 H   0  0  0  0  0  0  0  0  0  0  0  0
  1  2  1  0  0  0  0
  1 22  1  0  0  0  0
  1 23  1  0  0  0  0
  1 24  1  0  0  0  0
  2  3  1  0  0  0  0
  3  4  1  0  0  0  0
  3 25  1  0  0  0  0
  3 26  1  0  0  0  0
  4  5  1  0  0  0  0
  4 27  1  0  0  0  0
  4 28  1  0  0  0  0
  5  6  1  0  0  0  0
  5 29  1  0  0  0  0
  6 17  1  0  0  0  0
  6  7  2  0  0  0  0
  7  8  1  0  0  0  0
  8 15  1  0  0  0  0
  8  9  2  0  0  0  0
  9 10  1  0  0  0  0
  9 17  1  0  0  0  0
 10 11  2  0  0  0  0
 10 12  1  0  0  0  0
 12 13  1  0  0  0  0
 13 14  2  0  0  0  0
 13 15  1  0  0  0  0
 15 16  1  0  0  0  0
 16 30  1  0  0  0  0
 16 31  1  0  0  0  0
 16 32  1  0  0  0  0
 17 18  1  0  0  0  0
 18 19  1  0  0  0  0
 18 33  1  0  0  0  0
 18 34  1  0  0  0  0
 19 20  1  0  0  0  0
 19 35  1  0  0  0  0
 19 36  1  0  0  0  0
 20 21  1  0  0  0  0
 21 37  1  0  0  0  0
 21 38  1  0  0  0  0
 21 39  1  0  0  0  0
M  CHG  1  12  -1
M  END
> <s_m_source_file>
AV-unprocessed.smi

> <i_m_source_file_index>
534

> <i_lp_mmshare_version>
43012

> <i_f3d_flags>
0

> <s_epik_input>
W0NIM11PW0NIMl1bQ0gyXVtOSF1jKG4xKW4oW0NIMl1bQ0gyXU9bQ0gzXSljKGMxMiljKD1PKVtuSF1jKD1PKW4yW0NIM10=

> <s_epik_cmdline>
J2VwaWtfcHl0aG9uJywgJy1waCcsICc3LjAnLCAnLXRuJywgJzgnLCAnLW1hJywgJzIwMCcsICctbWV0YWxfYmluZGluZycsICctaW1hZScsICc8aW5maWxlLm1hZT4nLCAnLW9tYWUnLCAnPG91dGZpbGUubWFlPic=

> <r_lp_tautomer_probability>
1

> <r_epik_Ionization_Penalty>
5.88862

> <r_epik_Ionization_Penalty_Charging>
1.42184e-08

> <r_epik_Ionization_Penalty_Neutral>
5.88862

> <r_epik_State_Penalty>
5.88846

> <r_epik_Charging_Adjusted_Penalty>
5.88846

> <i_epik_Tot_Q>
-1

> <i_epik_Tot_abs_Q>
1

> <r_epik_Metal_State_Penalty>
1.85033

> <b_epik_Metal_Only>
1

> <s_lp_Force_Field>
OPLS_2005

> <r_lp_Energy>
24.5539

> <b_lp_Chiralities_Consistent>
1

> <s_lp_Variant>
AV-unprocessed.smi:534-2

> <Gold.Version>
5.8.1

> <Gold.Id.Protein>
6NUR|6NUR_protein|mol2

> <Gold.PLP.Fitness>
38.3326

> <Gold.PLP.PLP>
-36.5915

> <Gold.PLP.part.hbond>
-3.3714

> <Gold.PLP.part.metal>
0.0000

> <Gold.PLP.part.buried>
-2.2644

> <Gold.PLP.part.nonpolar>
-29.6487

> <Gold.PLP.part.repulsive>
0.2328

> <Gold.PLP.ligand.clash>
0.0000

> <Gold.PLP.ligand.torsion>
0.6383

> <Gold.PLP.Chemscore.Hbond>
1.0000

> <Gold.PLP.Chemscore.CHOScore>
0.0000

> <Gold.PLP.Chemscore.Metal>
0.0000

> <Gold.Chemscore.Hbonds>
donor molecule, donor type, donor heavy atom, donor atom, acceptor molecule, acceptor atom, score
      P1  H  7989  7998       L1    14  1.00

> <Gold.PLP.Chemscore.Internal.Correction>
0.0176

> <Gold.Rescore>
     Score         DG    S(hbond)    S(metal)    S(lipo)     H(rot)  DE(clash)    DE(int)     intcor
      7.42     -11.03       0.98        0.00      71.97       2.40       1.39       2.22       ----

> <Gold.Chemscore.Fitness>
7.4206

> <Gold.Chemscore.DG>
-11.0273

> <Gold.Chemscore.ZeroCoef>
-5.4800

> <Gold.Chemscore.Hbond>
0.9804

> <Gold.Chemscore.Metal>
0.0000

> <Gold.Chemscore.Lipo>
71.9714

> <Gold.Chemscore.Internal_Hbond>
0.0000

> <Gold.Chemscore.DEClash>
1.3903

> <Gold.Chemscore.DEInternal>
2.2164

> <Gold.Chemscore.Rot>
2.4016

> <Gold.Chemscore.Internal.Correction>
   9.000000E+99

> <Gold.Chemscore.Hbonds>
donor molecule, donor type, donor heavy atom, donor atom, acceptor molecule, acceptor atom, score
      P1  H  7989  7998       L1    14  0.96

> <Gold.Chemscore.Hbond.Weighted>
-3.2747

> <Gold.Chemscore.Metal.Weighted>
-0.0000

> <Gold.Chemscore.Lipo.Weighted>
-8.4206

> <Gold.Chemscore.Internal_Hbond.Weighted>
0.0000

> <Gold.Chemscore.DEClash.Weighted>
1.3903

> <Gold.Chemscore.DEInternal.Weighted>
2.2164

> <Gold.Chemscore.Rot.Weighted>
6.1481

> <Gold.Chemscore.Internal.Correction.Weighted>
   9.000000E+99

> <Gold.Protein.RotatedTorsions>
[ 6907 6896 6895 6894 ] final  -98.58 input  -60.11 | X-H torsion
[ 7974 7965 7964 7962 ] final    2.18 input  175.53 | X-H torsion
[ 8008 7997 7996 7995 ] final   67.04 input   59.86 | X-H torsion
[ 10167 10162 10161 10158 ] final   10.57 input  -65.29 | X-H torsion
[ 10718 10713 10712 10709 ] final  105.04 input   66.30 | X-H torsion
[ 10763 10752 10751 10750 ] final -139.64 input  -60.55 | X-H torsion
[ 11005 11000 10999 10996 ] final   81.86 input  -57.11 | X-H torsion

> <Gold.Protein.ActiveResidues>
 VAL166  LYS551  ARG553  GLY616  TRP617  ASP618  TYR619  PRO620  LYS621  CYS622 
 ASP623  PHE694  ASN695  SER759  ASP760  ASP761  ALA762  ILE779  LEU786  VAL792 
 PHE793  MET794  SER795  GLU796  ALA797  LYS798  CYS799  TRP800  GLU811  SER814 

> <Gold.Protein.RotatedAtoms>
  150.7051  134.1172  159.4021 H   0  0  0  0  0  0  0  0  0  0  0  0  # atno 6907 bound_to 6896
  151.9158  135.0317  160.0527 H   0  0  0  0  0  0  0  0  0  0  0  0  # atno 6908 bound_to 6896
  152.2297  133.5013  159.5246 H   0  0  0  0  0  0  0  0  0  0  0  0  # atno 6909 bound_to 6896
  146.2443  140.0875  142.8354 H   0  0  0  0  0  0  0  0  0  0  0  0  # atno 7974 bound_to 7965
  155.6867  140.3496  155.4877 H   0  0  0  0  0  0  0  0  0  0  0  0  # atno 8008 bound_to 7997
  155.9560  140.1128  157.0959 H   0  0  0  0  0  0  0  0  0  0  0  0  # atno 8009 bound_to 7997
  154.4132  140.1185  156.5102 H   0  0  0  0  0  0  0  0  0  0  0  0  # atno 8010 bound_to 7997
  140.6186  143.8253  150.7148 H   0  0  0  0  0  0  0  0  0  0  0  0  # atno 10167 bound_to 10162
  157.6719  131.0818  150.5796 H   0  0  0  0  0  0  0  0  0  0  0  0  # atno 10718 bound_to 10713
  154.8603  135.3576  154.5578 H   0  0  0  0  0  0  0  0  0  0  0  0  # atno 10763 bound_to 10752
  153.6194  135.7006  153.5321 H   0  0  0  0  0  0  0  0  0  0  0  0  # atno 10764 bound_to 10752
  153.3141  135.4170  155.1321 H   0  0  0  0  0  0  0  0  0  0  0  0  # atno 10765 bound_to 10752
  139.9083  134.8028  156.2098 H   0  0  0  0  0  0  0  0  0  0  0  0  # atno 11005 bound_to 11000
  145.0680  140.9135  143.4899 LP  0  0  0  0  0  0  0  0  0  0  0  0  # atno 17320 bound_to 7965
  145.1003  139.2827  143.5690 LP  0  0  0  0  0  0  0  0  0  0  0  0  # atno 17321 bound_to 7965
  140.1838  143.4092  152.1913 LP  0  0  0  0  0  0  0  0  0  0  0  0  # atno 17342 bound_to 10162
  139.5419  144.7264  151.4705 LP  0  0  0  0  0  0  0  0  0  0  0  0  # atno 17343 bound_to 10162
  156.6097  130.4376  149.5864 LP  0  0  0  0  0  0  0  0  0  0  0  0  # atno 17370 bound_to 10713
  156.2440  130.6868  151.1583 LP  0  0  0  0  0  0  0  0  0  0  0  0  # atno 17371 bound_to 10713
  141.0473  133.6907  156.1706 LP  0  0  0  0  0  0  0  0  0  0  0  0  # atno 17394 bound_to 11000
  140.6865  134.4712  157.5589 LP  0  0  0  0  0  0  0  0  0  0  0  0  # atno 17395 bound_to 11000

$$$$
