AV-unprocessed.smi:2516|AV-procd|sdf|9898|dock3
  -GOLD-   2272013533D 1   1.00000     0.00000
 Structure written by MMmdl.
 47 48  0  0  0  0  0  0  0  0  1 V2000
  152.3193  143.6210  161.6049 C   0  0  0  0  0  0  0  0  0  0  0  0
  153.1495  142.9272  160.5189 C   0  0  0  0  0  0  0  0  0  0  0  0
  152.3185  142.4827  159.4120 N   0  0  0  0  0  0  0  0  0  0  0  0
  152.4818  141.2199  158.9481 N   0  0  0  0  0  0  0  0  0  0  0  0
  151.6139  141.0933  157.9585 C   0  0  0  0  0  0  0  0  0  0  0  0
  151.5154  139.7908  157.2179 C   0  0  0  0  0  0  0  0  0  0  0  0
  150.9000  142.3042  157.7569 C   0  0  0  0  0  0  0  0  0  0  0  0
  149.8900  142.4858  156.7795 N   0  0  0  0  0  0  0  0  0  0  0  0
  148.9499  141.5959  156.4260 C   0  0  0  0  0  0  0  0  0  0  0  0
  148.8632  140.4503  156.8684 O   0  0  0  0  0  0  0  0  0  0  0  0
  148.0950  142.1191  155.5356 N   0  0  0  0  0  0  0  0  0  0  0  0
  146.9334  141.4367  154.9667 C   0  0  2  0  0  0  0  0  0  0  0  0
  147.2369  141.0889  153.4977 C   0  0  0  0  0  0  0  0  0  0  0  0
  145.6642  142.3107  155.1444 C   0  0  0  0  0  0  0  0  0  0  0  0
  145.6297  143.5040  154.1649 C   0  0  0  0  0  0  0  0  0  0  0  0
  144.4003  144.3936  154.4093 C   0  0  0  0  0  0  0  0  0  0  0  0
  144.3921  144.8517  155.7555 O   0  0  0  0  0  0  0  0  0  0  0  0
  144.2947  143.7888  156.6953 C   0  0  0  0  0  0  0  0  0  0  0  0
  145.5172  142.8642  156.5764 C   0  0  0  0  0  0  0  0  0  0  0  0
  151.3360  143.1762  158.7197 C   0  0  0  0  0  0  0  0  0  0  0  0
  150.9314  144.5749  159.0710 C   0  0  0  0  0  0  0  0  0  0  0  0
  152.9565  143.9651  162.4194 H   0  0  0  0  0  0  0  0  0  0  0  0
  151.5758  142.9448  162.0274 H   0  0  0  0  0  0  0  0  0  0  0  0
  151.7943  144.4885  161.2034 H   0  0  0  0  0  0  0  0  0  0  0  0
  153.9115  143.6109  160.1413 H   0  0  0  0  0  0  0  0  0  0  0  0
  153.6839  142.0721  160.9317 H   0  0  0  0  0  0  0  0  0  0  0  0
  150.8185  139.8577  156.3825 H   0  0  0  0  0  0  0  0  0  0  0  0
  151.1685  138.9931  157.8751 H   0  0  0  0  0  0  0  0  0  0  0  0
  152.4844  139.4943  156.8155 H   0  0  0  0  0  0  0  0  0  0  0  0
  149.7835  143.4237  156.4215 H   0  0  0  0  0  0  0  0  0  0  0  0
  148.2506  143.0702  155.2354 H   0  0  0  0  0  0  0  0  0  0  0  0
  146.7709  140.5026  155.5079 H   0  0  0  0  0  0  0  0  0  0  0  0
  146.4573  140.4669  153.0595 H   0  0  0  0  0  0  0  0  0  0  0  0
  148.1692  140.5292  153.4120 H   0  0  0  0  0  0  0  0  0  0  0  0
  147.3333  141.9878  152.8879 H   0  0  0  0  0  0  0  0  0  0  0  0
  144.7928  141.6866  154.9380 H   0  0  0  0  0  0  0  0  0  0  0  0
  146.5351  144.1015  154.2801 H   0  0  0  0  0  0  0  0  0  0  0  0
  145.6159  143.1589  153.1309 H   0  0  0  0  0  0  0  0  0  0  0  0
  144.4265  145.2577  153.7453 H   0  0  0  0  0  0  0  0  0  0  0  0
  143.4784  143.8526  154.1905 H   0  0  0  0  0  0  0  0  0  0  0  0
  144.2428  144.2120  157.6986 H   0  0  0  0  0  0  0  0  0  0  0  0
  143.3693  143.2325  156.5373 H   0  0  0  0  0  0  0  0  0  0  0  0
  145.4125  142.0531  157.2964 H   0  0  0  0  0  0  0  0  0  0  0  0
  146.4161  143.4159  156.8539 H   0  0  0  0  0  0  0  0  0  0  0  0
  149.9045  144.7729  158.7649 H   0  0  0  0  0  0  0  0  0  0  0  0
  151.5784  145.2993  158.5761 H   0  0  0  0  0  0  0  0  0  0  0  0
  150.9831  144.7525  160.1444 H   0  0  0  0  0  0  0  0  0  0  0  0
  1  2  1  0  0  0  0
  1 22  1  0  0  0  0
  1 23  1  0  0  0  0
  1 24  1  0  0  0  0
  2  3  1  0  0  0  0
  2 25  1  0  0  0  0
  2 26  1  0  0  0  0
  3 20  1  0  0  0  0
  3  4  1  0  0  0  0
  4  5  2  0  0  0  0
  5  6  1  0  0  0  0
  5  7  1  0  0  0  0
  6 27  1  0  0  0  0
  6 28  1  0  0  0  0
  6 29  1  0  0  0  0
  7  8  1  0  0  0  0
  7 20  2  0  0  0  0
  8  9  1  0  0  0  0
  8 30  1  0  0  0  0
  9 10  2  0  0  0  0
  9 11  1  0  0  0  0
 11 12  1  0  0  0  0
 11 31  1  0  0  0  0
 12 13  1  0  0  0  0
 12 14  1  0  0  0  0
 12 32  1  0  0  0  0
 13 33  1  0  0  0  0
 13 34  1  0  0  0  0
 13 35  1  0  0  0  0
 14 19  1  0  0  0  0
 14 15  1  0  0  0  0
 14 36  1  0  0  0  0
 15 16  1  0  0  0  0
 15 37  1  0  0  0  0
 15 38  1  0  0  0  0
 16 17  1  0  0  0  0
 16 39  1  0  0  0  0
 16 40  1  0  0  0  0
 17 18  1  0  0  0  0
 18 19  1  0  0  0  0
 18 41  1  0  0  0  0
 18 42  1  0  0  0  0
 19 43  1  0  0  0  0
 19 44  1  0  0  0  0
 20 21  1  0  0  0  0
 21 45  1  0  0  0  0
 21 46  1  0  0  0  0
 21 47  1  0  0  0  0
M  END
> <s_m_source_file>
AV-unprocessed.smi

> <i_m_source_file_index>
2516

> <i_lp_mmshare_version>
43012

> <i_f3d_flags>
0

> <s_epik_input>
W0NIM11bQ0gyXW4xbmMoW0NIM10pYyhjMVtDSDNdKVtOSF1DKD1PKVtOSF1bQ0BIXShbQ0gzXSlbQ0hdMltDSDJdW0NIMl1PW0NIMl1bQ0gyXTI=

> <s_epik_cmdline>
J2VwaWtfcHl0aG9uJywgJy1waCcsICc3LjAnLCAnLXRuJywgJzgnLCAnLW1hJywgJzIwMCcsICctbWV0YWxfYmluZGluZycsICctaW1hZScsICc8aW5maWxlLm1hZT4nLCAnLW9tYWUnLCAnPG91dGZpbGUubWFlPic=

> <r_lp_tautomer_probability>
1

> <r_epik_Ionization_Penalty>
0.00383358

> <r_epik_Ionization_Penalty_Charging>
0

> <r_epik_Ionization_Penalty_Neutral>
0.00383358

> <r_epik_State_Penalty>
0.00270714

> <r_epik_Charging_Adjusted_Penalty>
0.00270714

> <i_epik_Tot_Q>
0

> <i_epik_Tot_abs_Q>
0

> <r_epik_Metal_State_Penalty>
-0

> <b_epik_Metal_Only>
0

> <s_lp_Force_Field>
OPLS_2005

> <r_lp_Energy>
15.1794

> <b_lp_Chiralities_Consistent>
1

> <s_lp_Variant>
AV-unprocessed.smi:2516-1

> <Gold.Version>
5.8.1

> <Gold.Id.Protein>
6NUR|6NUR_protein|mol2

> <Gold.PLP.Fitness>
45.7087

> <Gold.PLP.PLP>
-40.7853

> <Gold.PLP.part.hbond>
-2.0000

> <Gold.PLP.part.metal>
0.0000

> <Gold.PLP.part.buried>
-6.9332

> <Gold.PLP.part.nonpolar>
-32.2253

> <Gold.PLP.part.repulsive>
0.2558

> <Gold.PLP.ligand.clash>
0.0000

> <Gold.PLP.ligand.torsion>
0.7252

> <Gold.PLP.Chemscore.Hbond>
1.9760

> <Gold.PLP.Chemscore.CHOScore>
0.0000

> <Gold.PLP.Chemscore.Metal>
0.0000

> <Gold.Chemscore.Hbonds>
donor molecule, donor type, donor heavy atom, donor atom, acceptor molecule, acceptor atom, score
      L1  H     8    30       P1  8028  1.00
      L1  H    11    31       P1  8028  0.96

> <Gold.PLP.Chemscore.Internal.Correction>
0.4457

> <Gold.Rescore>
     Score         DG    S(hbond)    S(metal)    S(lipo)     H(rot)  DE(clash)    DE(int)     intcor
     16.09     -19.46       1.88        0.00      94.37       1.30       0.02       3.34       ----

> <Gold.Chemscore.Fitness>
16.0944

> <Gold.Chemscore.DG>
-19.4584

> <Gold.Chemscore.ZeroCoef>
-5.4800

> <Gold.Chemscore.Hbond>
1.8751

> <Gold.Chemscore.Metal>
0.0000

> <Gold.Chemscore.Lipo>
94.3668

> <Gold.Chemscore.Internal_Hbond>
0.0000

> <Gold.Chemscore.DEClash>
0.0212

> <Gold.Chemscore.DEInternal>
3.3427

> <Gold.Chemscore.Rot>
1.2990

> <Gold.Chemscore.Internal.Correction>
   9.000000E+99

> <Gold.Chemscore.Hbonds>
donor molecule, donor type, donor heavy atom, donor atom, acceptor molecule, acceptor atom, score
      L1  H     8    30       P1  8028  0.98
      L1  H    11    31       P1  8028  0.90

> <Gold.Chemscore.Hbond.Weighted>
-6.2629

> <Gold.Chemscore.Metal.Weighted>
-0.0000

> <Gold.Chemscore.Lipo.Weighted>
-11.0409

> <Gold.Chemscore.Internal_Hbond.Weighted>
0.0000

> <Gold.Chemscore.DEClash.Weighted>
0.0212

> <Gold.Chemscore.DEInternal.Weighted>
3.3427

> <Gold.Chemscore.Rot.Weighted>
3.3254

> <Gold.Chemscore.Internal.Correction.Weighted>
   9.000000E+99

> <Gold.Protein.RotatedTorsions>
[ 6907 6896 6895 6894 ] final -149.55 input  -60.11 | X-H torsion
[ 7974 7965 7964 7962 ] final  104.14 input  175.53 | X-H torsion
[ 8008 7997 7996 7995 ] final -172.84 input   59.86 | X-H torsion
[ 10167 10162 10161 10158 ] final  160.25 input  -65.29 | X-H torsion
[ 10718 10713 10712 10709 ] final  127.42 input   66.30 | X-H torsion
[ 10763 10752 10751 10750 ] final  133.70 input  -60.55 | X-H torsion
[ 11005 11000 10999 10996 ] final  -25.87 input  -57.11 | X-H torsion

> <Gold.Protein.ActiveResidues>
 VAL166  LYS551  ARG553  GLY616  TRP617  ASP618  TYR619  PRO620  LYS621  CYS622 
 ASP623  PHE694  ASN695  SER759  ASP760  ASP761  ALA762  ILE779  LEU786  VAL792 
 PHE793  MET794  SER795  GLU796  ALA797  LYS798  CYS799  TRP800  GLU811  SER814 

> <Gold.Protein.RotatedAtoms>
  151.1857  133.4698  159.2594 H   0  0  0  0  0  0  0  0  0  0  0  0  # atno 6907 bound_to 6896
  151.1214  135.0081  159.8550 H   0  0  0  0  0  0  0  0  0  0  0  0  # atno 6908 bound_to 6896
  152.5456  134.1768  159.8672 H   0  0  0  0  0  0  0  0  0  0  0  0  # atno 6909 bound_to 6896
  145.3366  139.2473  143.3632 H   0  0  0  0  0  0  0  0  0  0  0  0  # atno 7974 bound_to 7965
  155.9497  140.1124  157.0987 H   0  0  0  0  0  0  0  0  0  0  0  0  # atno 8008 bound_to 7997
  154.4107  140.1203  156.5103 H   0  0  0  0  0  0  0  0  0  0  0  0  # atno 8009 bound_to 7997
  155.6857  140.3473  155.4875 H   0  0  0  0  0  0  0  0  0  0  0  0  # atno 8010 bound_to 7997
  139.4838  144.4652  151.8651 H   0  0  0  0  0  0  0  0  0  0  0  0  # atno 10167 bound_to 10162
  157.5334  131.1098  150.8973 H   0  0  0  0  0  0  0  0  0  0  0  0  # atno 10718 bound_to 10713
  153.8115  135.3128  155.3401 H   0  0  0  0  0  0  0  0  0  0  0  0  # atno 10763 bound_to 10752
  154.8049  135.4704  154.0371 H   0  0  0  0  0  0  0  0  0  0  0  0  # atno 10764 bound_to 10752
  153.1751  135.6884  153.8643 H   0  0  0  0  0  0  0  0  0  0  0  0  # atno 10765 bound_to 10752
  140.8977  133.7545  156.0503 H   0  0  0  0  0  0  0  0  0  0  0  0  # atno 11005 bound_to 11000
  146.3024  140.3955  142.8699 LP  0  0  0  0  0  0  0  0  0  0  0  0  # atno 17320 bound_to 7965
  144.8822  140.7416  143.5979 LP  0  0  0  0  0  0  0  0  0  0  0  0  # atno 17321 bound_to 7965
  140.4117  144.2360  150.5888 LP  0  0  0  0  0  0  0  0  0  0  0  0  # atno 17342 bound_to 10162
  140.4960  143.2332  151.8749 LP  0  0  0  0  0  0  0  0  0  0  0  0  # atno 17343 bound_to 10162
  156.9548  130.5433  149.5283 LP  0  0  0  0  0  0  0  0  0  0  0  0  # atno 17370 bound_to 10713
  156.0440  130.5519  150.8837 LP  0  0  0  0  0  0  0  0  0  0  0  0  # atno 17371 bound_to 10713
  140.8268  134.3225  157.5363 LP  0  0  0  0  0  0  0  0  0  0  0  0  # atno 17394 bound_to 11000
  139.8738  134.9341  156.3597 LP  0  0  0  0  0  0  0  0  0  0  0  0  # atno 17395 bound_to 11000

$$$$
