AV-unprocessed.smi:230|AV-procd|sdf|1764|dock6
  -GOLD-   2262020293D 1   1.00000     0.00000
 Structure written by MMmdl.
 56 59  0  0  0  0  0  0  0  0  1 V2000
  146.5451  142.1249  154.0411 C   0  0  0  0  0  0  0  0  0  0  0  0
  146.7721  140.7483  154.6812 C   0  0  0  0  0  0  0  0  0  0  0  0
  148.1732  140.1402  154.4051 C   0  0  1  0  0  0  0  0  0  0  0  0
  149.2926  141.1418  154.7696 C   0  0  0  0  0  0  0  0  0  0  0  0
  150.5848  140.5725  154.5724 O   0  0  0  0  0  0  0  0  0  0  0  0
  150.8360  139.3626  155.2897 C   0  0  0  0  0  0  0  0  0  0  0  0
  152.2046  138.8688  154.7959 C   0  0  0  0  0  0  0  0  0  0  0  0
  150.9018  139.6121  156.8118 C   0  0  0  0  0  0  0  0  0  0  0  0
  149.7442  138.3406  154.9162 C   0  0  0  0  0  0  0  0  0  0  0  0
  148.4086  138.8882  155.1343 N   0  0  0  0  0  0  0  0  0  0  0  0
  147.4426  137.9499  155.0075 C   0  0  0  0  0  0  0  0  0  0  0  0
  147.1769  137.0980  156.0329 N   0  0  0  0  0  0  0  0  0  0  0  0
  146.2434  136.1522  155.8877 C   0  0  0  0  0  0  0  0  0  0  0  0
  145.4846  135.8838  154.8221 N   0  0  0  0  0  0  0  0  0  0  0  0
  145.7561  136.7365  153.7921 C   0  0  0  0  0  0  0  0  0  0  0  0
  146.7073  137.7935  153.8041 C   0  0  0  0  0  0  0  0  0  0  0  0
  146.7110  138.4497  152.5804 N   0  0  0  0  0  0  0  0  0  0  0  0
  145.8162  137.8091  151.8781 C   0  0  0  0  0  0  0  0  0  0  0  0
  145.2029  136.7587  152.5239 N   0  0  0  0  0  0  0  0  0  0  0  0
  144.1916  135.8694  151.9736 C   0  0  0  0  0  0  0  0  0  0  0  0
  144.7174  134.4463  151.6605 C   0  0  0  0  0  0  0  0  0  0  0  0
  145.1047  133.8523  152.8880 O   0  0  0  0  0  0  0  0  0  0  0  0
  143.6495  133.5476  150.9983 C   0  0  0  0  0  0  0  0  0  0  0  0
  144.2377  132.2125  150.5080 C   0  0  0  0  0  0  0  0  0  0  0  0
  145.3355  132.4505  149.6353 O   0  0  0  0  0  0  0  0  0  0  0  0
  146.4116  133.1248  150.2762 C   0  0  0  0  0  0  0  0  0  0  0  0
  145.9549  134.5182  150.7437 C   0  0  0  0  0  0  0  0  0  0  0  0
  145.5147  142.4496  154.1868 H   0  0  0  0  0  0  0  0  0  0  0  0
  146.7327  142.0943  152.9675 H   0  0  0  0  0  0  0  0  0  0  0  0
  147.1882  142.8889  154.4771 H   0  0  0  0  0  0  0  0  0  0  0  0
  146.6023  140.8139  155.7567 H   0  0  0  0  0  0  0  0  0  0  0  0
  145.9925  140.0933  154.2921 H   0  0  0  0  0  0  0  0  0  0  0  0
  148.2480  139.9166  153.3397 H   0  0  0  0  0  0  0  0  0  0  0  0
  149.2337  142.0261  154.1364 H   0  0  0  0  0  0  0  0  0  0  0  0
  149.1842  141.4939  155.7955 H   0  0  0  0  0  0  0  0  0  0  0  0
  152.4798  137.9241  155.2660 H   0  0  0  0  0  0  0  0  0  0  0  0
  152.9895  139.5919  155.0201 H   0  0  0  0  0  0  0  0  0  0  0  0
  152.2023  138.7130  153.7165 H   0  0  0  0  0  0  0  0  0  0  0  0
  151.2003  138.7069  157.3411 H   0  0  0  0  0  0  0  0  0  0  0  0
  149.9419  139.9178  157.2268 H   0  0  0  0  0  0  0  0  0  0  0  0
  151.6281  140.3890  157.0519 H   0  0  0  0  0  0  0  0  0  0  0  0
  149.8478  138.0657  153.8651 H   0  0  0  0  0  0  0  0  0  0  0  0
  149.8728  137.4259  155.4976 H   0  0  0  0  0  0  0  0  0  0  0  0
  146.0862  135.5154  156.7459 H   0  0  0  0  0  0  0  0  0  0  0  0
  145.5851  138.0785  150.8577 H   0  0  0  0  0  0  0  0  0  0  0  0
  143.3664  135.8154  152.6847 H   0  0  0  0  0  0  0  0  0  0  0  0
  143.7850  136.3314  151.0726 H   0  0  0  0  0  0  0  0  0  0  0  0
  145.0753  132.9128  152.7887 H   0  0  0  0  0  0  0  0  0  0  0  0
  142.8234  133.3524  151.6833 H   0  0  0  0  0  0  0  0  0  0  0  0
  143.2209  134.0715  150.1427 H   0  0  0  0  0  0  0  0  0  0  0  0
  144.5532  131.5899  151.3467 H   0  0  0  0  0  0  0  0  0  0  0  0
  143.4771  131.6489  149.9673 H   0  0  0  0  0  0  0  0  0  0  0  0
  146.7837  132.5298  151.1117 H   0  0  0  0  0  0  0  0  0  0  0  0
  147.2350  133.2220  149.5685 H   0  0  0  0  0  0  0  0  0  0  0  0
  145.7149  135.1143  149.8621 H   0  0  0  0  0  0  0  0  0  0  0  0
  146.7751  135.0332  151.2455 H   0  0  0  0  0  0  0  0  0  0  0  0
  1  2  1  0  0  0  0
  1 28  1  0  0  0  0
  1 29  1  0  0  0  0
  1 30  1  0  0  0  0
  2  3  1  0  0  0  0
  2 31  1  0  0  0  0
  2 32  1  0  0  0  0
  3 10  1  0  0  0  0
  3  4  1  0  0  0  0
  3 33  1  0  0  0  0
  4  5  1  0  0  0  0
  4 34  1  0  0  0  0
  4 35  1  0  0  0  0
  5  6  1  0  0  0  0
  6  7  1  0  0  0  0
  6  8  1  0  0  0  0
  6  9  1  0  0  0  0
  7 36  1  0  0  0  0
  7 37  1  0  0  0  0
  7 38  1  0  0  0  0
  8 39  1  0  0  0  0
  8 40  1  0  0  0  0
  8 41  1  0  0  0  0
  9 10  1  0  0  0  0
  9 42  1  0  0  0  0
  9 43  1  0  0  0  0
 10 11  1  0  0  0  0
 11 16  1  0  0  0  0
 11 12  2  0  0  0  0
 12 13  1  0  0  0  0
 13 14  2  0  0  0  0
 13 44  1  0  0  0  0
 14 15  1  0  0  0  0
 15 19  1  0  0  0  0
 15 16  2  0  0  0  0
 16 17  1  0  0  0  0
 17 18  2  0  0  0  0
 18 19  1  0  0  0  0
 18 45  1  0  0  0  0
 19 20  1  0  0  0  0
 20 21  1  0  0  0  0
 20 46  1  0  0  0  0
 20 47  1  0  0  0  0
 21 27  1  0  0  0  0
 21 22  1  0  0  0  0
 21 23  1  0  0  0  0
 22 48  1  0  0  0  0
 23 24  1  0  0  0  0
 23 49  1  0  0  0  0
 23 50  1  0  0  0  0
 24 25  1  0  0  0  0
 24 51  1  0  0  0  0
 24 52  1  0  0  0  0
 25 26  1  0  0  0  0
 26 27  1  0  0  0  0
 26 53  1  0  0  0  0
 26 54  1  0  0  0  0
 27 55  1  0  0  0  0
 27 56  1  0  0  0  0
M  END
> <s_m_source_file>
AV-unprocessed.smi

> <i_m_source_file_index>
230

> <i_lp_mmshare_version>
43012

> <i_f3d_flags>
0

> <s_epik_input>
W0NIM11DMShbQ0gzXSlPW0NIMl1bQ0BASF0oW0NIMl1bQ0gzXSlOKFtDSDJdMSljKG5bY0hdbjIpYyhjMjMpbltjSF1uM1tDSDJdQzQoW09IXSlbQ0gyXVtDSDJdT1tDSDJdW0NIMl00

> <s_epik_cmdline>
J2VwaWtfcHl0aG9uJywgJy1waCcsICc3LjAnLCAnLXRuJywgJzgnLCAnLW1hJywgJzIwMCcsICctbWV0YWxfYmluZGluZycsICctaW1hZScsICc8aW5maWxlLm1hZT4nLCAnLW9tYWUnLCAnPG91dGZpbGUubWFlPic=

> <r_lp_tautomer_probability>
1

> <r_epik_Ionization_Penalty>
0.000120535

> <r_epik_Ionization_Penalty_Charging>
0

> <r_epik_Ionization_Penalty_Neutral>
0.000120535

> <r_epik_State_Penalty>
-0

> <r_epik_Charging_Adjusted_Penalty>
0

> <i_epik_Tot_Q>
0

> <i_epik_Tot_abs_Q>
0

> <r_epik_Metal_State_Penalty>
-0

> <b_epik_Metal_Only>
0

> <s_lp_Force_Field>
OPLS_2005

> <r_lp_Energy>
34.4524

> <b_lp_Chiralities_Consistent>
1

> <s_lp_Variant>
AV-unprocessed.smi:230-2

> <Gold.Version>
5.8.1

> <Gold.Id.Protein>
6NUR|6NUR_protein|mol2

> <Gold.PLP.Fitness>
42.0617

> <Gold.PLP.PLP>
-37.5852

> <Gold.PLP.part.hbond>
-0.7603

> <Gold.PLP.part.metal>
0.0000

> <Gold.PLP.part.buried>
-5.3100

> <Gold.PLP.part.nonpolar>
-33.5723

> <Gold.PLP.part.repulsive>
0.7265

> <Gold.PLP.ligand.clash>
0.0000

> <Gold.PLP.ligand.torsion>
0.8550

> <Gold.PLP.Chemscore.Hbond>
1.0000

> <Gold.PLP.Chemscore.CHOScore>
1.0000

> <Gold.PLP.Chemscore.Metal>
0.0000

> <Gold.Chemscore.Hbonds>
donor molecule, donor type, donor heavy atom, donor atom, acceptor molecule, acceptor atom, score
      P1  H  7989  7998       L1     5  0.98
      L1  C    18    45       P1 10171  1.00

> <Gold.PLP.Chemscore.Internal.Correction>
0.1865

> <Gold.Rescore>
     Score         DG    S(hbond)    S(metal)    S(lipo)     H(rot)  DE(clash)    DE(int)     intcor
     10.96     -13.18       0.95        0.00      87.17       2.21       0.06       2.17       ----

> <Gold.Chemscore.Fitness>
10.9610

> <Gold.Chemscore.DG>
-13.1828

> <Gold.Chemscore.ZeroCoef>
-5.4800

> <Gold.Chemscore.Hbond>
0.9473

> <Gold.Chemscore.Metal>
0.0000

> <Gold.Chemscore.Lipo>
87.1660

> <Gold.Chemscore.Internal_Hbond>
0.0000

> <Gold.Chemscore.DEClash>
0.0558

> <Gold.Chemscore.DEInternal>
2.1660

> <Gold.Chemscore.Rot>
2.2107

> <Gold.Chemscore.Internal.Correction>
   9.000000E+99

> <Gold.Chemscore.Hbonds>
donor molecule, donor type, donor heavy atom, donor atom, acceptor molecule, acceptor atom, score
      P1  H  7989  7998       L1     5  0.76

> <Gold.Chemscore.Hbond.Weighted>
-3.1639

> <Gold.Chemscore.Metal.Weighted>
-0.0000

> <Gold.Chemscore.Lipo.Weighted>
-10.1984

> <Gold.Chemscore.Internal_Hbond.Weighted>
0.0000

> <Gold.Chemscore.DEClash.Weighted>
0.0558

> <Gold.Chemscore.DEInternal.Weighted>
2.1660

> <Gold.Chemscore.Rot.Weighted>
5.6595

> <Gold.Chemscore.Internal.Correction.Weighted>
   9.000000E+99

> <Gold.Protein.RotatedTorsions>
[ 6907 6896 6895 6894 ] final  -31.07 input  -60.11 | X-H torsion
[ 7974 7965 7964 7962 ] final  -82.84 input  175.53 | X-H torsion
[ 8008 7997 7996 7995 ] final  -98.80 input   59.86 | X-H torsion
[ 10167 10162 10161 10158 ] final -135.13 input  -65.29 | X-H torsion
[ 10718 10713 10712 10709 ] final  146.80 input   66.30 | X-H torsion
[ 10763 10752 10751 10750 ] final  -33.63 input  -60.55 | X-H torsion
[ 11005 11000 10999 10996 ] final  140.36 input  -57.11 | X-H torsion

> <Gold.Protein.ActiveResidues>
 VAL166  LYS551  ARG553  GLY616  TRP617  ASP618  TYR619  PRO620  LYS621  CYS622 
 ASP623  PHE694  ASN695  SER759  ASP760  ASP761  ALA762  ILE779  LEU786  VAL792 
 PHE793  MET794  SER795  GLU796  ALA797  LYS798  CYS799  TRP800  GLU811  SER814 

> <Gold.Protein.RotatedAtoms>
  151.0970  134.9950  159.8430 H   0  0  0  0  0  0  0  0  0  0  0  0  # atno 6907 bound_to 6896
  152.5434  134.1996  159.8717 H   0  0  0  0  0  0  0  0  0  0  0  0  # atno 6908 bound_to 6896
  151.2036  133.4552  159.2630 H   0  0  0  0  0  0  0  0  0  0  0  0  # atno 6909 bound_to 6896
  145.5279  140.9524  143.1619 H   0  0  0  0  0  0  0  0  0  0  0  0  # atno 7974 bound_to 7965
  154.8061  140.0452  157.1308 H   0  0  0  0  0  0  0  0  0  0  0  0  # atno 8008 bound_to 7997
  154.9422  140.3054  155.5095 H   0  0  0  0  0  0  0  0  0  0  0  0  # atno 8009 bound_to 7997
  156.2967  140.2303  156.4492 H   0  0  0  0  0  0  0  0  0  0  0  0  # atno 8010 bound_to 7997
  139.8810  143.6839  152.2627 H   0  0  0  0  0  0  0  0  0  0  0  0  # atno 10167 bound_to 10162
  157.3288  131.0917  151.1180 H   0  0  0  0  0  0  0  0  0  0  0  0  # atno 10718 bound_to 10713
  153.8334  135.6864  153.4811 H   0  0  0  0  0  0  0  0  0  0  0  0  # atno 10763 bound_to 10752
  153.1497  135.4623  154.9617 H   0  0  0  0  0  0  0  0  0  0  0  0  # atno 10764 bound_to 10752
  154.7877  135.3290  154.7795 H   0  0  0  0  0  0  0  0  0  0  0  0  # atno 10765 bound_to 10752
  140.0322  134.9346  157.0684 H   0  0  0  0  0  0  0  0  0  0  0  0  # atno 11005 bound_to 11000
  144.7641  139.6886  143.7222 LP  0  0  0  0  0  0  0  0  0  0  0  0  # atno 17320 bound_to 7965
  146.2063  139.5390  142.9710 LP  0  0  0  0  0  0  0  0  0  0  0  0  # atno 17321 bound_to 7965
  139.7196  144.7605  151.0977 LP  0  0  0  0  0  0  0  0  0  0  0  0  # atno 17342 bound_to 10162
  140.7744  143.5225  150.9519 LP  0  0  0  0  0  0  0  0  0  0  0  0  # atno 17343 bound_to 10162
  157.2437  130.6581  149.5901 LP  0  0  0  0  0  0  0  0  0  0  0  0  # atno 17370 bound_to 10713
  155.9693  130.4560  150.5910 LP  0  0  0  0  0  0  0  0  0  0  0  0  # atno 17371 bound_to 10713
  140.4207  134.1884  155.7164 LP  0  0  0  0  0  0  0  0  0  0  0  0  # atno 17394 bound_to 11000
  141.1837  133.8359  157.1165 LP  0  0  0  0  0  0  0  0  0  0  0  0  # atno 17395 bound_to 11000

$$$$
