AV-unprocessed.smi:2467|AV-procd|sdf|9728|dock7
  -GOLD-   2272013373D 1   1.00000     0.00000
 Structure written by MMmdl.
 46 47  0  0  0  0  0  0  0  0  1 V2000
  142.5134  141.9227  156.3522 C   0  0  0  0  0  0  0  0  0  0  0  0
  142.6495  143.3046  155.6942 C   0  0  0  0  0  0  0  0  0  0  0  0
  143.9049  144.1138  156.1156 C   0  0  0  0  0  0  0  0  0  0  0  0
  143.8095  145.5688  155.5809 C   0  0  0  0  0  0  0  0  0  0  0  0
  143.7895  145.7261  154.0547 C   0  0  0  0  0  0  0  0  0  0  0  0
  145.2256  143.4203  155.6649 C   0  0  1  0  0  0  0  0  0  0  0  0
  145.5117  142.1031  156.4297 C   0  0  0  0  0  0  0  0  0  0  0  0
  146.8413  141.4720  155.9879 C   0  0  2  0  0  0  0  0  0  0  0  0
  147.9520  142.2955  156.4569 N   0  0  0  0  0  0  0  0  0  0  0  0
  148.8458  141.9727  157.4037 C   0  0  0  0  0  0  0  0  0  0  0  0
  148.8283  140.8951  157.9960 O   0  0  0  0  0  0  0  0  0  0  0  0
  149.7834  142.9067  157.6753 N   0  0  0  0  0  0  0  0  0  0  0  0
  150.8707  142.9130  158.6009 C   0  0  0  0  0  0  0  0  0  0  0  0
  151.4385  144.1871  158.8298 C   0  0  0  0  0  0  0  0  0  0  0  0
  152.5202  144.3178  159.7223 C   0  0  0  0  0  0  0  0  0  0  0  0
  153.0107  143.1686  160.3668 C   0  0  0  0  0  0  0  0  0  0  0  0
  152.3919  141.9374  160.0859 C   0  0  0  0  0  0  0  0  0  0  0  0
  151.3553  141.8116  159.2310 N   0  0  0  0  0  0  0  0  0  0  0  0
  146.8505  141.3226  154.4570 C   0  0  0  0  0  0  0  0  0  0  0  0
  146.4458  142.6354  153.7671 C   0  0  0  0  0  0  0  0  0  0  0  0
  145.1939  143.0856  154.2765 O   0  0  0  0  0  0  0  0  0  0  0  0
  141.6971  141.3621  155.8962 H   0  0  0  0  0  0  0  0  0  0  0  0
  142.2933  141.9951  157.4166 H   0  0  0  0  0  0  0  0  0  0  0  0
  143.4238  141.3352  156.2308 H   0  0  0  0  0  0  0  0  0  0  0  0
  142.6762  143.1269  154.6189 H   0  0  0  0  0  0  0  0  0  0  0  0
  141.7483  143.8893  155.8834 H   0  0  0  0  0  0  0  0  0  0  0  0
  143.8979  144.1496  157.2060 H   0  0  0  0  0  0  0  0  0  0  0  0
  142.9253  146.0538  155.9967 H   0  0  0  0  0  0  0  0  0  0  0  0
  144.6617  146.1435  155.9400 H   0  0  0  0  0  0  0  0  0  0  0  0
  143.8424  146.7794  153.7789 H   0  0  0  0  0  0  0  0  0  0  0  0
  142.8719  145.3301  153.6206 H   0  0  0  0  0  0  0  0  0  0  0  0
  144.6385  145.2220  153.5927 H   0  0  0  0  0  0  0  0  0  0  0  0
  146.0427  144.1292  155.8106 H   0  0  0  0  0  0  0  0  0  0  0  0
  145.5222  142.2526  157.5073 H   0  0  0  0  0  0  0  0  0  0  0  0
  144.7023  141.3974  156.2377 H   0  0  0  0  0  0  0  0  0  0  0  0
  146.9287  140.4853  156.4460 H   0  0  0  0  0  0  0  0  0  0  0  0
  148.0493  143.2037  156.0245 H   0  0  0  0  0  0  0  0  0  0  0  0
  149.7051  143.7470  157.1209 H   0  0  0  0  0  0  0  0  0  0  0  0
  151.0509  145.0616  158.3271 H   0  0  0  0  0  0  0  0  0  0  0  0
  152.9654  145.2840  159.9087 H   0  0  0  0  0  0  0  0  0  0  0  0
  153.8383  143.2286  161.0579 H   0  0  0  0  0  0  0  0  0  0  0  0
  152.7362  141.0292  160.5582 H   0  0  0  0  0  0  0  0  0  0  0  0
  147.8266  140.9903  154.1016 H   0  0  0  0  0  0  0  0  0  0  0  0
  146.1419  140.5439  154.1728 H   0  0  0  0  0  0  0  0  0  0  0  0
  147.2081  143.4036  153.9060 H   0  0  0  0  0  0  0  0  0  0  0  0
  146.3508  142.4769  152.6929 H   0  0  0  0  0  0  0  0  0  0  0  0
  1  2  1  0  0  0  0
  1 22  1  0  0  0  0
  1 23  1  0  0  0  0
  1 24  1  0  0  0  0
  2  3  1  0  0  0  0
  2 25  1  0  0  0  0
  2 26  1  0  0  0  0
  3  4  1  0  0  0  0
  3  6  1  0  0  0  0
  3 27  1  0  0  0  0
  4  5  1  0  0  0  0
  4 28  1  0  0  0  0
  4 29  1  0  0  0  0
  5 30  1  0  0  0  0
  5 31  1  0  0  0  0
  5 32  1  0  0  0  0
  6 21  1  0  0  0  0
  6  7  1  0  0  0  0
  6 33  1  0  0  0  0
  7  8  1  0  0  0  0
  7 34  1  0  0  0  0
  7 35  1  0  0  0  0
  8  9  1  0  0  0  0
  8 19  1  0  0  0  0
  8 36  1  0  0  0  0
  9 10  1  0  0  0  0
  9 37  1  0  0  0  0
 10 11  2  0  0  0  0
 10 12  1  0  0  0  0
 12 13  1  0  0  0  0
 12 38  1  0  0  0  0
 13 18  1  0  0  0  0
 13 14  2  0  0  0  0
 14 15  1  0  0  0  0
 14 39  1  0  0  0  0
 15 16  2  0  0  0  0
 15 40  1  0  0  0  0
 16 17  1  0  0  0  0
 16 41  1  0  0  0  0
 17 18  2  0  0  0  0
 17 42  1  0  0  0  0
 19 20  1  0  0  0  0
 19 43  1  0  0  0  0
 19 44  1  0  0  0  0
 20 21  1  0  0  0  0
 20 45  1  0  0  0  0
 20 46  1  0  0  0  0
M  END
> <s_m_source_file>
AV-unprocessed.smi

> <i_m_source_file_index>
2467

> <i_lp_mmshare_version>
43012

> <i_f3d_flags>
0

> <s_epik_input>
W0NIM11bQ0gyXVtDSF0oW0NIMl1bQ0gzXSlbQ0BASF0xW0NIMl1bQ0BIXShbQ0gyXVtDSDJdTzEpW05IXUMoPU8pW05IXWMyW2NIXVtjSF1bY0hdW2NIXW4y

> <s_epik_cmdline>
J2VwaWtfcHl0aG9uJywgJy1waCcsICc3LjAnLCAnLXRuJywgJzgnLCAnLW1hJywgJzIwMCcsICctbWV0YWxfYmluZGluZycsICctaW1hZScsICc8aW5maWxlLm1hZT4nLCAnLW9tYWUnLCAnPG91dGZpbGUubWFlPic=

> <r_lp_tautomer_probability>
1

> <r_epik_Ionization_Penalty>
4.80427e-05

> <r_epik_Ionization_Penalty_Charging>
0

> <r_epik_Ionization_Penalty_Neutral>
4.80427e-05

> <r_epik_State_Penalty>
-0

> <r_epik_Charging_Adjusted_Penalty>
0

> <i_epik_Tot_Q>
0

> <i_epik_Tot_abs_Q>
0

> <r_epik_Metal_State_Penalty>
-0

> <b_epik_Metal_Only>
0

> <s_lp_Force_Field>
OPLS_2005

> <r_lp_Energy>
20.8854

> <b_lp_Chiralities_Consistent>
1

> <s_lp_Variant>
AV-unprocessed.smi:2467-4

> <Gold.Version>
5.8.1

> <Gold.Id.Protein>
6NUR|6NUR_protein|mol2

> <Gold.PLP.Fitness>
42.7837

> <Gold.PLP.PLP>
-37.2815

> <Gold.PLP.part.hbond>
-2.0170

> <Gold.PLP.part.metal>
0.0000

> <Gold.PLP.part.buried>
-7.0418

> <Gold.PLP.part.nonpolar>
-28.1614

> <Gold.PLP.part.repulsive>
0.2838

> <Gold.PLP.ligand.clash>
0.0000

> <Gold.PLP.ligand.torsion>
0.2707

> <Gold.PLP.Chemscore.Hbond>
2.0000

> <Gold.PLP.Chemscore.CHOScore>
0.0000

> <Gold.PLP.Chemscore.Metal>
0.0000

> <Gold.Chemscore.Hbonds>
donor molecule, donor type, donor heavy atom, donor atom, acceptor molecule, acceptor atom, score
      L1  H     9    37       P1  8028  1.00
      L1  H    12    38       P1  8028  1.00

> <Gold.PLP.Chemscore.Internal.Correction>
0.0435

> <Gold.Rescore>
     Score         DG    S(hbond)    S(metal)    S(lipo)     H(rot)  DE(clash)    DE(int)     intcor
     16.14     -18.00       1.78        0.00      88.55       1.49       0.07       1.79       ----

> <Gold.Chemscore.Fitness>
16.1361

> <Gold.Chemscore.DG>
-17.9967

> <Gold.Chemscore.ZeroCoef>
-5.4800

> <Gold.Chemscore.Hbond>
1.7844

> <Gold.Chemscore.Metal>
0.0000

> <Gold.Chemscore.Lipo>
88.5463

> <Gold.Chemscore.Internal_Hbond>
0.0000

> <Gold.Chemscore.DEClash>
0.0716

> <Gold.Chemscore.DEInternal>
1.7890

> <Gold.Chemscore.Rot>
1.4856

> <Gold.Chemscore.Internal.Correction>
   9.000000E+99

> <Gold.Chemscore.Hbonds>
donor molecule, donor type, donor heavy atom, donor atom, acceptor molecule, acceptor atom, score
      L1  H     9    37       P1  8028  0.49
      L1  H    12    38       P1  8028  0.84

> <Gold.Chemscore.Hbond.Weighted>
-5.9598

> <Gold.Chemscore.Metal.Weighted>
-0.0000

> <Gold.Chemscore.Lipo.Weighted>
-10.3599

> <Gold.Chemscore.Internal_Hbond.Weighted>
0.0000

> <Gold.Chemscore.DEClash.Weighted>
0.0716

> <Gold.Chemscore.DEInternal.Weighted>
1.7890

> <Gold.Chemscore.Rot.Weighted>
3.8031

> <Gold.Chemscore.Internal.Correction.Weighted>
   9.000000E+99

> <Gold.Protein.RotatedTorsions>
[ 6907 6896 6895 6894 ] final  152.82 input  -60.11 | X-H torsion
[ 7974 7965 7964 7962 ] final -146.71 input  175.53 | X-H torsion
[ 8008 7997 7996 7995 ] final  166.41 input   59.86 | X-H torsion
[ 10167 10162 10161 10158 ] final  -22.39 input  -65.29 | X-H torsion
[ 10718 10713 10712 10709 ] final   54.32 input   66.30 | X-H torsion
[ 10763 10752 10751 10750 ] final -177.90 input  -60.55 | X-H torsion
[ 11005 11000 10999 10996 ] final   27.41 input  -57.11 | X-H torsion

> <Gold.Protein.ActiveResidues>
 VAL166  LYS551  ARG553  GLY616  TRP617  ASP618  TYR619  PRO620  LYS621  CYS622 
 ASP623  PHE694  ASN695  SER759  ASP760  ASP761  ALA762  ILE779  LEU786  VAL792 
 PHE793  MET794  SER795  GLU796  ALA797  LYS798  CYS799  TRP800  GLU811  SER814 

> <Gold.Protein.RotatedAtoms>
  152.0814  133.4154  159.4502 H   0  0  0  0  0  0  0  0  0  0  0  0  # atno 6907 bound_to 6896
  150.6862  134.2978  159.4703 H   0  0  0  0  0  0  0  0  0  0  0  0  # atno 6908 bound_to 6896
  152.0820  134.9464  160.0624 H   0  0  0  0  0  0  0  0  0  0  0  0  # atno 6909 bound_to 6896
  144.8141  140.5421  143.5622 H   0  0  0  0  0  0  0  0  0  0  0  0  # atno 7974 bound_to 7965
  156.1720  140.1644  156.8430 H   0  0  0  0  0  0  0  0  0  0  0  0  # atno 8008 bound_to 7997
  154.5267  140.0766  156.8305 H   0  0  0  0  0  0  0  0  0  0  0  0  # atno 8009 bound_to 7997
  155.3492  140.3389  155.4241 H   0  0  0  0  0  0  0  0  0  0  0  0  # atno 8010 bound_to 7997
  140.7286  143.4539  151.0477 H   0  0  0  0  0  0  0  0  0  0  0  0  # atno 10167 bound_to 10162
  157.5246  130.8588  149.8605 H   0  0  0  0  0  0  0  0  0  0  0  0  # atno 10718 bound_to 10713
  154.5544  135.2815  155.0978 H   0  0  0  0  0  0  0  0  0  0  0  0  # atno 10763 bound_to 10752
  154.2411  135.6357  153.5211 H   0  0  0  0  0  0  0  0  0  0  0  0  # atno 10764 bound_to 10752
  153.0012  135.5560  154.6120 H   0  0  0  0  0  0  0  0  0  0  0  0  # atno 10765 bound_to 10752
  140.3266  134.2484  155.7708 H   0  0  0  0  0  0  0  0  0  0  0  0  # atno 11005 bound_to 11000
  145.5254  139.1476  143.3529 LP  0  0  0  0  0  0  0  0  0  0  0  0  # atno 17320 bound_to 7965
  146.2443  140.5395  142.8920 LP  0  0  0  0  0  0  0  0  0  0  0  0  # atno 17321 bound_to 7965
  139.8217  143.7810  152.3177 LP  0  0  0  0  0  0  0  0  0  0  0  0  # atno 17342 bound_to 10162
  139.7895  144.7415  150.9974 LP  0  0  0  0  0  0  0  0  0  0  0  0  # atno 17343 bound_to 10162
  156.0378  130.3747  150.1515 LP  0  0  0  0  0  0  0  0  0  0  0  0  # atno 17370 bound_to 10713
  156.9701  130.9832  151.3460 LP  0  0  0  0  0  0  0  0  0  0  0  0  # atno 17371 bound_to 10713
  141.2074  133.7808  157.0123 LP  0  0  0  0  0  0  0  0  0  0  0  0  # atno 17394 bound_to 11000
  140.0896  134.9600  157.1755 LP  0  0  0  0  0  0  0  0  0  0  0  0  # atno 17395 bound_to 11000

$$$$
