AV-unprocessed.smi:148|AV-procd|sdf|1222|dock8
  -GOLD-   2262018413D 1   1.00000     0.00000
 Structure written by MMmdl.
 63 67  0  0  0  0  0  0  0  0  1 V2000
  147.7320  138.4784  152.9533 O   0  0  0  0  0  0  0  0  0  0  0  0
  148.5971  138.8978  153.9880 C   0  0  0  0  0  0  0  0  0  0  0  0
  149.1544  137.6874  154.7766 C   0  0  2  0  0  0  0  0  0  0  0  0
  148.0886  137.0387  155.7019 C   0  0  0  0  0  0  0  0  0  0  0  0
  147.5250  135.8206  155.1490 N   0  0  0  0  0  0  0  0  0  0  0  0
  146.1892  135.5375  154.9680 C   0  0  0  0  0  0  0  0  0  0  0  0
  145.9345  134.3784  154.4247 N   0  0  0  0  0  0  0  0  0  0  0  0
  147.1903  133.8195  154.2285 C   0  0  0  0  0  0  0  0  0  0  0  0
  147.6495  132.6045  153.6581 C   0  0  0  0  0  0  0  0  0  0  0  0
  146.7955  131.6943  153.1436 N   0  0  0  0  0  0  0  0  0  0  0  0
  147.3482  130.3459  153.2874 C   0  0  0  0  0  0  0  0  0  0  0  0
  146.2855  129.2764  153.0180 C   0  0  0  0  0  0  0  0  0  0  0  0
  145.6704  129.4936  151.6348 C   0  0  0  0  0  0  0  0  0  0  0  0
  145.1134  130.9192  151.5287 C   0  0  0  0  0  0  0  0  0  0  0  0
  146.1803  132.0065  151.8360 C   0  0  1  0  0  0  0  0  0  0  0  0
  145.5432  133.4391  151.7506 C   0  0  1  0  0  0  0  0  0  0  0  0
  146.4911  134.6112  151.4080 C   0  0  0  0  0  0  0  0  0  0  0  0
  145.6268  135.7302  150.8091 C   0  0  0  0  0  0  0  0  0  0  0  0
  144.2320  135.1312  150.6089 C   0  0  0  0  0  0  0  0  0  0  0  0
  144.4280  133.6173  150.6979 C   0  0  1  0  0  0  0  0  0  0  0  0
  144.8355  133.1436  149.4260 O   0  0  0  0  0  0  0  0  0  0  0  0
  148.9892  132.3758  153.6288 N   0  0  0  0  0  0  0  0  0  0  0  0
  149.8296  133.2931  154.1183 C   0  0  0  0  0  0  0  0  0  0  0  0
  149.5471  134.4797  154.6620 N   0  0  0  0  0  0  0  0  0  0  0  0
  148.2017  134.7036  154.6937 C   0  0  0  0  0  0  0  0  0  0  0  0
  150.4781  138.0304  155.5169 C   0  0  1  0  0  0  0  0  0  0  0  0
  151.7613  137.6635  154.7645 C   0  0  0  0  0  0  0  0  0  0  0  0
  152.6065  138.9334  154.8273 C   0  0  0  0  0  0  0  0  0  0  0  0
  151.6410  139.9672  154.9134 O   0  0  0  0  0  0  0  0  0  0  0  0
  150.6568  139.5232  155.8334 C   0  0  0  0  0  0  0  0  0  0  0  0
  148.2221  137.9416  152.3491 H   0  0  0  0  0  0  0  0  0  0  0  0
  149.4036  139.4966  153.5646 H   0  0  0  0  0  0  0  0  0  0  0  0
  148.0183  139.5580  154.6338 H   0  0  0  0  0  0  0  0  0  0  0  0
  149.4115  136.9322  154.0321 H   0  0  0  0  0  0  0  0  0  0  0  0
  148.5144  136.7892  156.6736 H   0  0  0  0  0  0  0  0  0  0  0  0
  147.2674  137.7271  155.8976 H   0  0  0  0  0  0  0  0  0  0  0  0
  145.4047  136.2289  155.2394 H   0  0  0  0  0  0  0  0  0  0  0  0
  148.1803  130.2171  152.5935 H   0  0  0  0  0  0  0  0  0  0  0  0
  147.7493  130.2110  154.2935 H   0  0  0  0  0  0  0  0  0  0  0  0
  146.7275  128.2819  153.0831 H   0  0  0  0  0  0  0  0  0  0  0  0
  145.5086  129.3261  153.7820 H   0  0  0  0  0  0  0  0  0  0  0  0
  146.4244  129.3329  150.8633 H   0  0  0  0  0  0  0  0  0  0  0  0
  144.8785  128.7656  151.4569 H   0  0  0  0  0  0  0  0  0  0  0  0
  144.7039  131.0383  150.5269 H   0  0  0  0  0  0  0  0  0  0  0  0
  144.2746  131.0281  152.2179 H   0  0  0  0  0  0  0  0  0  0  0  0
  146.9618  131.9310  151.0786 H   0  0  0  0  0  0  0  0  0  0  0  0
  145.0904  133.6567  152.7198 H   0  0  0  0  0  0  0  0  0  0  0  0
  147.0329  134.9880  152.2729 H   0  0  0  0  0  0  0  0  0  0  0  0
  147.2306  134.2912  150.6727 H   0  0  0  0  0  0  0  0  0  0  0  0
  145.5834  136.5982  151.4680 H   0  0  0  0  0  0  0  0  0  0  0  0
  146.0471  136.0618  149.8591 H   0  0  0  0  0  0  0  0  0  0  0  0
  143.5840  135.4566  151.4238 H   0  0  0  0  0  0  0  0  0  0  0  0
  143.7638  135.4504  149.6768 H   0  0  0  0  0  0  0  0  0  0  0  0
  143.5016  133.1197  150.9861 H   0  0  0  0  0  0  0  0  0  0  0  0
  145.4013  133.7898  149.0320 H   0  0  0  0  0  0  0  0  0  0  0  0
  150.8787  133.0439  154.0585 H   0  0  0  0  0  0  0  0  0  0  0  0
  150.4760  137.5063  156.4733 H   0  0  0  0  0  0  0  0  0  0  0  0
  152.2757  136.8133  155.2133 H   0  0  0  0  0  0  0  0  0  0  0  0
  151.5643  137.4048  153.7254 H   0  0  0  0  0  0  0  0  0  0  0  0
  153.2318  138.9420  155.7215 H   0  0  0  0  0  0  0  0  0  0  0  0
  153.2505  139.0542  153.9560 H   0  0  0  0  0  0  0  0  0  0  0  0
  149.7372  140.1036  155.7553 H   0  0  0  0  0  0  0  0  0  0  0  0
  151.0401  139.6537  156.8468 H   0  0  0  0  0  0  0  0  0  0  0  0
  1  2  1  0  0  0  0
  1 31  1  0  0  0  0
  2  3  1  0  0  0  0
  2 32  1  0  0  0  0
  2 33  1  0  0  0  0
  3  4  1  0  0  0  0
  3 26  1  0  0  0  0
  3 34  1  0  0  0  0
  4  5  1  0  0  0  0
  4 35  1  0  0  0  0
  4 36  1  0  0  0  0
  5 25  1  0  0  0  0
  5  6  1  0  0  0  0
  6  7  2  0  0  0  0
  6 37  1  0  0  0  0
  7  8  1  0  0  0  0
  8 25  2  0  0  0  0
  8  9  1  0  0  0  0
  9 10  1  0  0  0  0
  9 22  2  0  0  0  0
 10 15  1  0  0  0  0
 10 11  1  0  0  0  0
 11 12  1  0  0  0  0
 11 38  1  0  0  0  0
 11 39  1  0  0  0  0
 12 13  1  0  0  0  0
 12 40  1  0  0  0  0
 12 41  1  0  0  0  0
 13 14  1  0  0  0  0
 13 42  1  0  0  0  0
 13 43  1  0  0  0  0
 14 15  1  0  0  0  0
 14 44  1  0  0  0  0
 14 45  1  0  0  0  0
 15 16  1  0  0  0  0
 15 46  1  0  0  0  0
 16 20  1  0  0  0  0
 16 17  1  0  0  0  0
 16 47  1  0  0  0  0
 17 18  1  0  0  0  0
 17 48  1  0  0  0  0
 17 49  1  0  0  0  0
 18 19  1  0  0  0  0
 18 50  1  0  0  0  0
 18 51  1  0  0  0  0
 19 20  1  0  0  0  0
 19 52  1  0  0  0  0
 19 53  1  0  0  0  0
 20 21  1  0  0  0  0
 20 54  1  0  0  0  0
 21 55  1  0  0  0  0
 22 23  1  0  0  0  0
 23 24  2  0  0  0  0
 23 56  1  0  0  0  0
 24 25  1  0  0  0  0
 26 30  1  0  0  0  0
 26 27  1  0  0  0  0
 26 57  1  0  0  0  0
 27 28  1  0  0  0  0
 27 58  1  0  0  0  0
 27 59  1  0  0  0  0
 28 29  1  0  0  0  0
 28 60  1  0  0  0  0
 28 61  1  0  0  0  0
 29 30  1  0  0  0  0
 30 62  1  0  0  0  0
 30 63  1  0  0  0  0
M  END
> <s_m_source_file>
AV-unprocessed.smi

> <i_m_source_file_index>
148

> <i_lp_mmshare_version>
43012

> <i_f3d_flags>
0

> <s_epik_input>
W0NIMl0xT1tDSDJdW0NIMl1bQ0BIXTFbQ0BIXShbQ0gyXVtPSF0pW0NIMl1uKFtjSF1uMiljKGMyMyluW2NIXW5jM040W0NIMl1bQ0gyXVtDSDJdW0NIMl1bQ0BIXTRbQ0BASF01W0NIMl1bQ0gyXVtDSDJdW0NASF01W09IXQ==

> <s_epik_cmdline>
J2VwaWtfcHl0aG9uJywgJy1waCcsICc3LjAnLCAnLXRuJywgJzgnLCAnLW1hJywgJzIwMCcsICctbWV0YWxfYmluZGluZycsICctaW1hZScsICc8aW5maWxlLm1hZT4nLCAnLW9tYWUnLCAnPG91dGZpbGUubWFlPic=

> <r_lp_tautomer_probability>
1

> <r_epik_Ionization_Penalty>
0.00556303

> <r_epik_Ionization_Penalty_Charging>
0

> <r_epik_Ionization_Penalty_Neutral>
0.00556303

> <r_epik_State_Penalty>
0.00401767

> <r_epik_Charging_Adjusted_Penalty>
0.00401767

> <i_epik_Tot_Q>
0

> <i_epik_Tot_abs_Q>
0

> <r_epik_Metal_State_Penalty>
-0

> <b_epik_Metal_Only>
0

> <s_lp_Force_Field>
OPLS_2005

> <r_lp_Energy>
71.6968

> <b_lp_Chiralities_Consistent>
1

> <s_lp_Variant>
AV-unprocessed.smi:148-21

> <Gold.Version>
5.8.1

> <Gold.Id.Protein>
6NUR|6NUR_protein|mol2

> <Gold.PLP.Fitness>
47.8984

> <Gold.PLP.PLP>
-44.4300

> <Gold.PLP.part.hbond>
-3.9606

> <Gold.PLP.part.metal>
0.0000

> <Gold.PLP.part.buried>
-6.9830

> <Gold.PLP.part.nonpolar>
-34.5227

> <Gold.PLP.part.repulsive>
0.5360

> <Gold.PLP.ligand.clash>
0.0138

> <Gold.PLP.ligand.torsion>
3.0701

> <Gold.PLP.Chemscore.Hbond>
3.0000

> <Gold.PLP.Chemscore.CHOScore>
0.0000

> <Gold.PLP.Chemscore.Metal>
0.0000

> <Gold.Chemscore.Hbonds>
donor molecule, donor type, donor heavy atom, donor atom, acceptor molecule, acceptor atom, score
      L1  H     1    31       P1  7948  1.00
      L1  H    21    55       P1  7921  1.00
      P1  H  7989  7998       L1    29  1.00

> <Gold.PLP.Chemscore.Internal.Correction>
0.6225

> <Gold.Rescore>
     Score         DG    S(hbond)    S(metal)    S(lipo)     H(rot)  DE(clash)    DE(int)     intcor
     12.28     -19.87       2.94        0.00     111.62       3.32       0.97       6.62       ----

> <Gold.Chemscore.Fitness>
12.2753

> <Gold.Chemscore.DG>
-19.8666

> <Gold.Chemscore.ZeroCoef>
-5.4800

> <Gold.Chemscore.Hbond>
2.9423

> <Gold.Chemscore.Metal>
0.0000

> <Gold.Chemscore.Lipo>
111.6179

> <Gold.Chemscore.Internal_Hbond>
0.0000

> <Gold.Chemscore.DEClash>
0.9676

> <Gold.Chemscore.DEInternal>
6.6238

> <Gold.Chemscore.Rot>
3.3203

> <Gold.Chemscore.Internal.Correction>
   9.000000E+99

> <Gold.Chemscore.Hbonds>
donor molecule, donor type, donor heavy atom, donor atom, acceptor molecule, acceptor atom, score
      L1  H     1    31       P1  7948  0.95
      L1  H    21    55       P1  7921  0.64
      P1  H  7989  7998       L1    29  0.68

> <Gold.Chemscore.Hbond.Weighted>
-9.8273

> <Gold.Chemscore.Metal.Weighted>
-0.0000

> <Gold.Chemscore.Lipo.Weighted>
-13.0593

> <Gold.Chemscore.Internal_Hbond.Weighted>
0.0000

> <Gold.Chemscore.DEClash.Weighted>
0.9676

> <Gold.Chemscore.DEInternal.Weighted>
6.6238

> <Gold.Chemscore.Rot.Weighted>
8.5000

> <Gold.Chemscore.Internal.Correction.Weighted>
   9.000000E+99

> <Gold.Protein.RotatedTorsions>
[ 6907 6896 6895 6894 ] final   48.18 input  -60.11 | X-H torsion
[ 7974 7965 7964 7962 ] final  174.97 input  175.53 | X-H torsion
[ 8008 7997 7996 7995 ] final  111.06 input   59.86 | X-H torsion
[ 10167 10162 10161 10158 ] final -105.30 input  -65.29 | X-H torsion
[ 10718 10713 10712 10709 ] final  108.49 input   66.30 | X-H torsion
[ 10763 10752 10751 10750 ] final   87.35 input  -60.55 | X-H torsion
[ 11005 11000 10999 10996 ] final  -61.41 input  -57.11 | X-H torsion

> <Gold.Protein.ActiveResidues>
 VAL166  LYS551  ARG553  GLY616  TRP617  ASP618  TYR619  PRO620  LYS621  CYS622 
 ASP623  PHE694  ASN695  SER759  ASP760  ASP761  ALA762  ILE779  LEU786  VAL792 
 PHE793  MET794  SER795  GLU796  ALA797  LYS798  CYS799  TRP800  GLU811  SER814 

> <Gold.Protein.RotatedAtoms>
  152.2765  134.7875  160.0404 H   0  0  0  0  0  0  0  0  0  0  0  0  # atno 6907 bound_to 6896
  151.8469  133.3428  159.3669 H   0  0  0  0  0  0  0  0  0  0  0  0  # atno 6908 bound_to 6896
  150.7172  134.5264  159.5723 H   0  0  0  0  0  0  0  0  0  0  0  0  # atno 6909 bound_to 6896
  144.7211  139.9876  143.6439 H   0  0  0  0  0  0  0  0  0  0  0  0  # atno 7974 bound_to 7965
  156.2097  140.3026  155.9705 H   0  0  0  0  0  0  0  0  0  0  0  0  # atno 8008 bound_to 7997
  155.2754  140.0435  157.3028 H   0  0  0  0  0  0  0  0  0  0  0  0  # atno 8009 bound_to 7997
  154.5682  140.2340  155.8240 H   0  0  0  0  0  0  0  0  0  0  0  0  # atno 8010 bound_to 7997
  140.2001  143.3825  152.1137 H   0  0  0  0  0  0  0  0  0  0  0  0  # atno 10167 bound_to 10162
  157.6584  131.0895  150.6313 H   0  0  0  0  0  0  0  0  0  0  0  0  # atno 10718 bound_to 10713
  153.1660  135.4546  154.9837 H   0  0  0  0  0  0  0  0  0  0  0  0  # atno 10763 bound_to 10752
  154.7932  135.3228  154.7731 H   0  0  0  0  0  0  0  0  0  0  0  0  # atno 10764 bound_to 10752
  153.8214  135.6946  153.4881 H   0  0  0  0  0  0  0  0  0  0  0  0  # atno 10765 bound_to 10752
  141.1323  133.6630  156.5371 H   0  0  0  0  0  0  0  0  0  0  0  0  # atno 11005 bound_to 11000
  146.0437  139.3446  143.0682 LP  0  0  0  0  0  0  0  0  0  0  0  0  # atno 17320 bound_to 7965
  145.8302  140.9634  143.0853 LP  0  0  0  0  0  0  0  0  0  0  0  0  # atno 17321 bound_to 7965
  139.5221  144.7054  151.5369 LP  0  0  0  0  0  0  0  0  0  0  0  0  # atno 17342 bound_to 10162
  140.6396  143.8914  150.6680 LP  0  0  0  0  0  0  0  0  0  0  0  0  # atno 17343 bound_to 10162
  156.6618  130.4514  149.5685 LP  0  0  0  0  0  0  0  0  0  0  0  0  # atno 17370 bound_to 10713
  156.2061  130.6650  151.1220 LP  0  0  0  0  0  0  0  0  0  0  0  0  # atno 17371 bound_to 10713
  140.4169  134.7222  157.4868 LP  0  0  0  0  0  0  0  0  0  0  0  0  # atno 17394 bound_to 11000
  140.0387  134.6299  155.9009 LP  0  0  0  0  0  0  0  0  0  0  0  0  # atno 17395 bound_to 11000

$$$$
