AV-unprocessed.smi:2538|AV-procd|sdf|9982|dock6
  -GOLD-   2272014 33D 1   1.00000     0.00000
 Structure written by MMmdl.
 48 49  0  0  0  0  0  0  0  0  1 V2000
  152.6520  145.1306  158.4270 C   0  0  0  0  0  0  0  0  0  0  0  0
  152.3447  143.6527  158.2604 C   0  0  0  0  0  0  0  0  0  0  0  0
  151.7924  143.1991  157.0413 C   0  0  0  0  0  0  0  0  0  0  0  0
  151.4933  141.8333  156.8451 C   0  0  0  0  0  0  0  0  0  0  0  0
  150.9603  141.1792  155.7474 N   0  0  0  0  0  0  0  0  0  0  0  0
  150.9215  139.9218  156.1781 C   0  0  0  0  0  0  0  0  0  0  0  0
  151.3689  139.6837  157.4260 N   0  0  0  0  0  0  0  0  0  0  0  0
  151.4193  138.3985  158.0977 C   0  0  0  0  0  0  0  0  0  0  0  0
  150.0139  137.8031  158.3197 C   0  0  1  0  0  0  0  0  0  0  0  0
  149.5642  137.2848  157.0826 O   0  0  0  0  0  0  0  0  0  0  0  0
  150.0075  136.6703  159.3724 C   0  0  0  0  0  0  0  0  0  0  0  0
  148.6334  136.2807  159.7340 N   0  0  0  0  0  0  0  0  0  0  0  0
  148.0306  135.2473  158.8858 C   0  0  0  0  0  0  0  0  0  0  0  0
  148.0809  136.4224  161.3730 S   0  0  0  0  0  0  0  0  0  0  0  0
  149.2635  136.6826  162.2088 O   0  0  0  0  0  0  0  0  0  0  0  0
  146.9491  137.3614  161.3954 O   0  0  0  0  0  0  0  0  0  0  0  0
  147.4375  134.7130  161.7123 C   0  0  0  0  0  0  0  0  0  0  0  0
  145.9501  134.7546  162.0912 C   0  0  0  0  0  0  0  0  0  0  0  0
  148.2817  134.0208  162.7916 C   0  0  0  0  0  0  0  0  0  0  0  0
  151.7620  140.9259  157.9115 C   0  0  0  0  0  0  0  0  0  0  0  0
  152.3129  141.3645  159.1286 C   0  0  0  0  0  0  0  0  0  0  0  0
  152.6080  142.7325  159.3069 C   0  0  0  0  0  0  0  0  0  0  0  0
  153.2078  143.1956  160.6228 C   0  0  0  0  0  0  0  0  0  0  0  0
  152.3512  145.7012  157.5479 H   0  0  0  0  0  0  0  0  0  0  0  0
  153.7212  145.2827  158.5754 H   0  0  0  0  0  0  0  0  0  0  0  0
  152.1204  145.5388  159.2869 H   0  0  0  0  0  0  0  0  0  0  0  0
  151.5940  143.8989  156.2431 H   0  0  0  0  0  0  0  0  0  0  0  0
  150.5491  139.1250  155.5503 H   0  0  0  0  0  0  0  0  0  0  0  0
  152.0409  137.7161  157.5165 H   0  0  0  0  0  0  0  0  0  0  0  0
  151.9346  138.5419  159.0469 H   0  0  0  0  0  0  0  0  0  0  0  0
  149.3270  138.5984  158.6135 H   0  0  0  0  0  0  0  0  0  0  0  0
  148.7000  137.6273  156.9113 H   0  0  0  0  0  0  0  0  0  0  0  0
  150.5593  135.8024  159.0067 H   0  0  0  0  0  0  0  0  0  0  0  0
  150.5245  136.9787  160.2819 H   0  0  0  0  0  0  0  0  0  0  0  0
  148.1348  135.5060  157.8318 H   0  0  0  0  0  0  0  0  0  0  0  0
  146.9679  135.1463  159.1058 H   0  0  0  0  0  0  0  0  0  0  0  0
  148.5129  134.2859  159.0644 H   0  0  0  0  0  0  0  0  0  0  0  0
  147.5343  134.1441  160.7875 H   0  0  0  0  0  0  0  0  0  0  0  0
  145.5600  133.7497  162.2551 H   0  0  0  0  0  0  0  0  0  0  0  0
  145.3556  135.2112  161.2992 H   0  0  0  0  0  0  0  0  0  0  0  0
  145.7897  135.3273  163.0050 H   0  0  0  0  0  0  0  0  0  0  0  0
  147.9232  133.0090  162.9819 H   0  0  0  0  0  0  0  0  0  0  0  0
  148.2463  134.5694  163.7334 H   0  0  0  0  0  0  0  0  0  0  0  0
  149.3257  133.9458  162.4864 H   0  0  0  0  0  0  0  0  0  0  0  0
  152.5089  140.6529  159.9173 H   0  0  0  0  0  0  0  0  0  0  0  0
  153.3572  142.3601  161.3072 H   0  0  0  0  0  0  0  0  0  0  0  0
  152.5501  143.9151  161.1110 H   0  0  0  0  0  0  0  0  0  0  0  0
  154.1762  143.6680  160.4561 H   0  0  0  0  0  0  0  0  0  0  0  0
  1  2  1  0  0  0  0
  1 24  1  0  0  0  0
  1 25  1  0  0  0  0
  1 26  1  0  0  0  0
  2 22  1  0  0  0  0
  2  3  2  0  0  0  0
  3  4  1  0  0  0  0
  3 27  1  0  0  0  0
  4 20  2  0  0  0  0
  4  5  1  0  0  0  0
  5  6  2  0  0  0  0
  6  7  1  0  0  0  0
  6 28  1  0  0  0  0
  7  8  1  0  0  0  0
  7 20  1  0  0  0  0
  8  9  1  0  0  0  0
  8 29  1  0  0  0  0
  8 30  1  0  0  0  0
  9 10  1  0  0  0  0
  9 11  1  0  0  0  0
  9 31  1  0  0  0  0
 10 32  1  0  0  0  0
 11 12  1  0  0  0  0
 11 33  1  0  0  0  0
 11 34  1  0  0  0  0
 12 13  1  0  0  0  0
 12 14  1  0  0  0  0
 13 35  1  0  0  0  0
 13 36  1  0  0  0  0
 13 37  1  0  0  0  0
 14 15  2  0  0  0  0
 14 16  2  0  0  0  0
 14 17  1  0  0  0  0
 17 18  1  0  0  0  0
 17 19  1  0  0  0  0
 17 38  1  0  0  0  0
 18 39  1  0  0  0  0
 18 40  1  0  0  0  0
 18 41  1  0  0  0  0
 19 42  1  0  0  0  0
 19 43  1  0  0  0  0
 19 44  1  0  0  0  0
 20 21  1  0  0  0  0
 21 22  2  0  0  0  0
 21 45  1  0  0  0  0
 22 23  1  0  0  0  0
 23 46  1  0  0  0  0
 23 47  1  0  0  0  0
 23 48  1  0  0  0  0
M  END
> <s_m_source_file>
AV-unprocessed.smi

> <i_m_source_file_index>
2538

> <i_lp_mmshare_version>
43012

> <i_f3d_flags>
0

> <s_epik_input>
W0NIM11jKFtjSF0xKWMoW0NIM10pW2NIXWMoYzEyKW4oW2NIXW4yKVtDSDJdW0NASF0oW09IXSlbQ0gyXU4oW0NIM10pUyg9TykoPU8pW0NIXShbQ0gzXSlbQ0gzXQ==

> <s_epik_cmdline>
J2VwaWtfcHl0aG9uJywgJy1waCcsICc3LjAnLCAnLXRuJywgJzgnLCAnLW1hJywgJzIwMCcsICctbWV0YWxfYmluZGluZycsICctaW1hZScsICc8aW5maWxlLm1hZT4nLCAnLW9tYWUnLCAnPG91dGZpbGUubWFlPic=

> <r_epik_Ionization_Penalty>
0.105018

> <r_epik_Ionization_Penalty_Charging>
0

> <r_epik_Ionization_Penalty_Neutral>
0.105018

> <r_epik_State_Penalty>
0.094904

> <r_epik_Charging_Adjusted_Penalty>
0.094904

> <i_epik_Tot_Q>
0

> <i_epik_Tot_abs_Q>
0

> <r_epik_Metal_State_Penalty>
0.000102919

> <b_epik_Metal_Only>
0

> <s_lp_Force_Field>
OPLS_2005

> <r_lp_Energy>
6.99225

> <b_lp_Chiralities_Consistent>
1

> <s_lp_Variant>
AV-unprocessed.smi:2538-2

> <Gold.Version>
5.8.1

> <Gold.Id.Protein>
6NUR|6NUR_protein|mol2

> <Gold.PLP.Fitness>
52.2097

> <Gold.PLP.PLP>
-46.9803

> <Gold.PLP.part.hbond>
-2.0000

> <Gold.PLP.part.metal>
0.0000

> <Gold.PLP.part.buried>
-7.0064

> <Gold.PLP.part.nonpolar>
-38.9177

> <Gold.PLP.part.repulsive>
0.0604

> <Gold.PLP.ligand.clash>
0.0000

> <Gold.PLP.ligand.torsion>
1.6410

> <Gold.PLP.Chemscore.Hbond>
1.9500

> <Gold.PLP.Chemscore.CHOScore>
0.0000

> <Gold.PLP.Chemscore.Metal>
0.0000

> <Gold.Chemscore.Hbonds>
donor molecule, donor type, donor heavy atom, donor atom, acceptor molecule, acceptor atom, score
      P1  H  6931  6943       L1    15  0.42
      P1  H  6934  6947       L1    16  1.00
      P1  H  7989  7998       L1     5  0.12

> <Gold.PLP.Chemscore.Internal.Correction>
2.6614

> <Gold.Rescore>
     Score         DG    S(hbond)    S(metal)    S(lipo)     H(rot)  DE(clash)    DE(int)     intcor
     13.97     -15.68       0.95        0.00     110.35       2.29       0.04       1.67       ----

> <Gold.Chemscore.Fitness>
13.9749

> <Gold.Chemscore.DG>
-15.6813

> <Gold.Chemscore.ZeroCoef>
-5.4800

> <Gold.Chemscore.Hbond>
0.9454

> <Gold.Chemscore.Metal>
0.0000

> <Gold.Chemscore.Lipo>
110.3452

> <Gold.Chemscore.Internal_Hbond>
0.0000

> <Gold.Chemscore.DEClash>
0.0357

> <Gold.Chemscore.DEInternal>
1.6707

> <Gold.Chemscore.Rot>
2.2917

> <Gold.Chemscore.Internal.Correction>
   9.000000E+99

> <Gold.Chemscore.Hbonds>
donor molecule, donor type, donor heavy atom, donor atom, acceptor molecule, acceptor atom, score
      P1  H  6931  6943       L1    15  0.01
      P1  H  6934  6947       L1    16  0.97
      P1  H  7989  7998       L1     5  0.04

> <Gold.Chemscore.Hbond.Weighted>
-3.1578

> <Gold.Chemscore.Metal.Weighted>
-0.0000

> <Gold.Chemscore.Lipo.Weighted>
-12.9104

> <Gold.Chemscore.Internal_Hbond.Weighted>
0.0000

> <Gold.Chemscore.DEClash.Weighted>
0.0357

> <Gold.Chemscore.DEInternal.Weighted>
1.6707

> <Gold.Chemscore.Rot.Weighted>
5.8669

> <Gold.Chemscore.Internal.Correction.Weighted>
   9.000000E+99

> <Gold.Protein.RotatedTorsions>
[ 6907 6896 6895 6894 ] final   34.11 input  -60.11 | X-H torsion
[ 7974 7965 7964 7962 ] final  106.41 input  175.53 | X-H torsion
[ 8008 7997 7996 7995 ] final  -47.32 input   59.86 | X-H torsion
[ 10167 10162 10161 10158 ] final  -37.15 input  -65.29 | X-H torsion
[ 10718 10713 10712 10709 ] final  -52.76 input   66.30 | X-H torsion
[ 10763 10752 10751 10750 ] final -145.25 input  -60.55 | X-H torsion
[ 11005 11000 10999 10996 ] final   -6.51 input  -57.11 | X-H torsion

> <Gold.Protein.ActiveResidues>
 VAL166  LYS551  ARG553  GLY616  TRP617  ASP618  TYR619  PRO620  LYS621  CYS622 
 ASP623  PHE694  ASN695  SER759  ASP760  ASP761  ALA762  ILE779  LEU786  VAL792 
 PHE793  MET794  SER795  GLU796  ALA797  LYS798  CYS799  TRP800  GLU811  SER814 

> <Gold.Protein.RotatedAtoms>
  152.0979  134.9362  160.0570 H   0  0  0  0  0  0  0  0  0  0  0  0  # atno 6907 bound_to 6896
  152.0588  133.4048  159.4417 H   0  0  0  0  0  0  0  0  0  0  0  0  # atno 6908 bound_to 6896
  150.6838  134.3144  159.4803 H   0  0  0  0  0  0  0  0  0  0  0  0  # atno 6909 bound_to 6896
  145.3069  139.2552  143.3784 H   0  0  0  0  0  0  0  0  0  0  0  0  # atno 7974 bound_to 7965
  154.4015  140.1349  156.4155 H   0  0  0  0  0  0  0  0  0  0  0  0  # atno 8008 bound_to 7997
  155.7692  140.3484  155.5218 H   0  0  0  0  0  0  0  0  0  0  0  0  # atno 8009 bound_to 7997
  155.8783  140.0983  157.1493 H   0  0  0  0  0  0  0  0  0  0  0  0  # atno 8010 bound_to 7997
  140.7125  143.3361  151.2460 H   0  0  0  0  0  0  0  0  0  0  0  0  # atno 10167 bound_to 10162
  156.1593  130.4150  149.9819 H   0  0  0  0  0  0  0  0  0  0  0  0  # atno 10718 bound_to 10713
  154.8392  135.3418  154.6474 H   0  0  0  0  0  0  0  0  0  0  0  0  # atno 10763 bound_to 10752
  153.7087  135.6965  153.5048 H   0  0  0  0  0  0  0  0  0  0  0  0  # atno 10764 bound_to 10752
  153.2468  135.4366  155.0710 H   0  0  0  0  0  0  0  0  0  0  0  0  # atno 10765 bound_to 10752
  140.7028  133.8975  155.8695 H   0  0  0  0  0  0  0  0  0  0  0  0  # atno 11005 bound_to 11000
  146.3132  140.3596  142.8663 LP  0  0  0  0  0  0  0  0  0  0  0  0  # atno 17320 bound_to 7965
  144.9047  140.7686  143.5845 LP  0  0  0  0  0  0  0  0  0  0  0  0  # atno 17321 bound_to 7965
  139.6856  143.9779  152.2832 LP  0  0  0  0  0  0  0  0  0  0  0  0  # atno 17342 bound_to 10162
  139.9423  144.6673  150.8254 LP  0  0  0  0  0  0  0  0  0  0  0  0  # atno 17343 bound_to 10162
  156.7653  130.9166  151.3643 LP  0  0  0  0  0  0  0  0  0  0  0  0  # atno 17370 bound_to 10713
  157.6720  130.9059  150.0062 LP  0  0  0  0  0  0  0  0  0  0  0  0  # atno 17371 bound_to 10713
  141.0149  134.0969  157.4182 LP  0  0  0  0  0  0  0  0  0  0  0  0  # atno 17394 bound_to 11000
  139.8892  135.0103  156.6666 LP  0  0  0  0  0  0  0  0  0  0  0  0  # atno 17395 bound_to 11000

$$$$
