AV-unprocessed.smi:1075|AV-procd|sdf|4696|dock8
  -GOLD-   22720 3213D 1   1.00000     0.00000
 Structure written by MMmdl.
 50 51  0  0  0  0  0  0  0  0  1 V2000
  153.3429  137.6754  159.9879 C   0  0  0  0  0  0  0  0  0  0  0  0
  152.8394  139.0611  159.7005 C   0  0  0  0  0  0  0  0  0  0  0  0
  153.3752  140.0872  160.3390 N   0  0  0  0  0  0  0  0  0  0  0  0
  152.7253  141.1663  159.8619 N   0  0  0  0  0  0  0  0  0  0  0  0
  153.0784  142.4818  160.3602 C   0  0  0  0  0  0  0  0  0  0  0  0
  151.7781  140.8227  158.9159 C   0  0  0  0  0  0  0  0  0  0  0  0
  150.9328  141.8519  158.2329 C   0  0  0  0  0  0  0  0  0  0  0  0
  151.8166  139.4564  158.7878 C   0  0  0  0  0  0  0  0  0  0  0  0
  151.0040  138.5416  157.8930 C   0  0  1  0  0  0  0  0  0  0  0  0
  151.8887  137.7758  156.8909 C   0  0  0  0  0  0  0  0  0  0  0  0
  150.1310  137.6220  158.7616 C   0  0  0  0  0  0  0  0  0  0  0  0
  150.6350  136.9239  159.6420 O   0  0  0  0  0  0  0  0  0  0  0  0
  148.8122  137.6510  158.4947 N   0  0  0  0  0  0  0  0  0  0  0  0
  147.7172  136.9602  159.1859 C   0  0  1  0  0  0  0  0  0  0  0  0
  146.3877  137.7140  158.9462 C   0  0  0  0  0  0  0  0  0  0  0  0
  147.6417  135.4866  158.6997 C   0  0  0  0  0  0  0  0  0  0  0  0
  146.7592  134.5903  159.5859 C   0  0  0  0  0  0  0  0  0  0  0  0
  147.2007  134.6300  161.0581 C   0  0  2  0  0  0  0  0  0  0  0  0
  146.3210  133.7283  161.9357 C   0  0  0  0  0  0  0  0  0  0  0  0
  147.2045  136.0809  161.5660 C   0  0  0  0  0  0  0  0  0  0  0  0
  148.0892  136.9849  160.6901 C   0  0  0  0  0  0  0  0  0  0  0  0
  153.5917  137.1519  159.0644 H   0  0  0  0  0  0  0  0  0  0  0  0
  152.5878  137.0883  160.5108 H   0  0  0  0  0  0  0  0  0  0  0  0
  154.2399  137.6905  160.6081 H   0  0  0  0  0  0  0  0  0  0  0  0
  153.5796  143.0474  159.5745 H   0  0  0  0  0  0  0  0  0  0  0  0
  153.7458  142.4029  161.2197 H   0  0  0  0  0  0  0  0  0  0  0  0
  152.1773  143.0147  160.6640 H   0  0  0  0  0  0  0  0  0  0  0  0
  150.6068  141.5094  157.2518 H   0  0  0  0  0  0  0  0  0  0  0  0
  151.4804  142.7825  158.0835 H   0  0  0  0  0  0  0  0  0  0  0  0
  150.0443  142.0732  158.8246 H   0  0  0  0  0  0  0  0  0  0  0  0
  150.3091  139.1327  157.2956 H   0  0  0  0  0  0  0  0  0  0  0  0
  152.6143  137.1330  157.3890 H   0  0  0  0  0  0  0  0  0  0  0  0
  152.4436  138.4688  156.2580 H   0  0  0  0  0  0  0  0  0  0  0  0
  151.2875  137.1468  156.2336 H   0  0  0  0  0  0  0  0  0  0  0  0
  148.5264  138.2621  157.7433 H   0  0  0  0  0  0  0  0  0  0  0  0
  145.5653  137.2810  159.5140 H   0  0  0  0  0  0  0  0  0  0  0  0
  146.0887  137.6912  157.8984 H   0  0  0  0  0  0  0  0  0  0  0  0
  146.4687  138.7606  159.2413 H   0  0  0  0  0  0  0  0  0  0  0  0
  147.2768  135.4375  157.6736 H   0  0  0  0  0  0  0  0  0  0  0  0
  148.6470  135.0620  158.6800 H   0  0  0  0  0  0  0  0  0  0  0  0
  145.7167  134.8989  159.5015 H   0  0  0  0  0  0  0  0  0  0  0  0
  146.8016  133.5655  159.2155 H   0  0  0  0  0  0  0  0  0  0  0  0
  148.2218  134.2496  161.1148 H   0  0  0  0  0  0  0  0  0  0  0  0
  145.2809  134.0558  161.9244 H   0  0  0  0  0  0  0  0  0  0  0  0
  146.6615  133.7362  162.9713 H   0  0  0  0  0  0  0  0  0  0  0  0
  146.3486  132.6954  161.5882 H   0  0  0  0  0  0  0  0  0  0  0  0
  146.1858  136.4686  161.5941 H   0  0  0  0  0  0  0  0  0  0  0  0
  147.5668  136.1112  162.5941 H   0  0  0  0  0  0  0  0  0  0  0  0
  149.1235  136.6575  160.8109 H   0  0  0  0  0  0  0  0  0  0  0  0
  148.0558  138.0071  161.0699 H   0  0  0  0  0  0  0  0  0  0  0  0
  1  2  1  0  0  0  0
  1 22  1  0  0  0  0
  1 23  1  0  0  0  0
  1 24  1  0  0  0  0
  2  8  1  0  0  0  0
  2  3  2  0  0  0  0
  3  4  1  0  0  0  0
  4  5  1  0  0  0  0
  4  6  1  0  0  0  0
  5 25  1  0  0  0  0
  5 26  1  0  0  0  0
  5 27  1  0  0  0  0
  6  7  1  0  0  0  0
  6  8  2  0  0  0  0
  7 28  1  0  0  0  0
  7 29  1  0  0  0  0
  7 30  1  0  0  0  0
  8  9  1  0  0  0  0
  9 10  1  0  0  0  0
  9 11  1  0  0  0  0
  9 31  1  0  0  0  0
 10 32  1  0  0  0  0
 10 33  1  0  0  0  0
 10 34  1  0  0  0  0
 11 12  2  0  0  0  0
 11 13  1  0  0  0  0
 13 14  1  0  0  0  0
 13 35  1  0  0  0  0
 14 21  1  0  0  0  0
 14 15  1  0  0  0  0
 14 16  1  0  0  0  0
 15 36  1  0  0  0  0
 15 37  1  0  0  0  0
 15 38  1  0  0  0  0
 16 17  1  0  0  0  0
 16 39  1  0  0  0  0
 16 40  1  0  0  0  0
 17 18  1  0  0  0  0
 17 41  1  0  0  0  0
 17 42  1  0  0  0  0
 18 19  1  0  0  0  0
 18 20  1  0  0  0  0
 18 43  1  0  0  0  0
 19 44  1  0  0  0  0
 19 45  1  0  0  0  0
 19 46  1  0  0  0  0
 20 21  1  0  0  0  0
 20 47  1  0  0  0  0
 20 48  1  0  0  0  0
 21 49  1  0  0  0  0
 21 50  1  0  0  0  0
M  END
> <s_m_source_file>
AV-unprocessed.smi

> <i_m_source_file_index>
1075

> <i_lp_mmshare_version>
43012

> <i_f3d_flags>
0

> <s_epik_input>
W0NIM11jMW5uKFtDSDNdKWMoW0NIM10pYzFbQ0BIXShbQ0gzXSlDKD1PKVtOSF1bQ0BAXTIoW0NIM10pW0NIMl1bQ0gyXVtDQEBIXShbQ0gzXSlbQ0gyXVtDSDJdMg==

> <s_epik_cmdline>
J2VwaWtfcHl0aG9uJywgJy1waCcsICc3LjAnLCAnLXRuJywgJzgnLCAnLW1hJywgJzIwMCcsICctbWV0YWxfYmluZGluZycsICctaW1hZScsICc8aW5maWxlLm1hZT4nLCAnLW9tYWUnLCAnPG91dGZpbGUubWFlPic=

> <r_lp_tautomer_probability>
1

> <r_epik_Ionization_Penalty>
0.00502928

> <r_epik_Ionization_Penalty_Charging>
0

> <r_epik_Ionization_Penalty_Neutral>
0.00502928

> <r_epik_State_Penalty>
0.0036576

> <r_epik_Charging_Adjusted_Penalty>
0.0036576

> <i_epik_Tot_Q>
0

> <i_epik_Tot_abs_Q>
0

> <r_epik_Metal_State_Penalty>
-0

> <b_epik_Metal_Only>
0

> <s_lp_Force_Field>
OPLS_2005

> <r_lp_Energy>
7.42101

> <b_lp_Chiralities_Consistent>
1

> <s_lp_Variant>
AV-unprocessed.smi:1075-4

> <Gold.Version>
5.8.1

> <Gold.Id.Protein>
6NUR|6NUR_protein|mol2

> <Gold.PLP.Fitness>
34.4661

> <Gold.PLP.PLP>
-32.6602

> <Gold.PLP.part.hbond>
-1.0000

> <Gold.PLP.part.metal>
0.0000

> <Gold.PLP.part.buried>
-2.3741

> <Gold.PLP.part.nonpolar>
-29.5342

> <Gold.PLP.part.repulsive>
0.1509

> <Gold.PLP.ligand.clash>
0.0000

> <Gold.PLP.ligand.torsion>
0.6411

> <Gold.PLP.Chemscore.Hbond>
1.0000

> <Gold.PLP.Chemscore.CHOScore>
0.0000

> <Gold.PLP.Chemscore.Metal>
0.0000

> <Gold.Chemscore.Hbonds>
donor molecule, donor type, donor heavy atom, donor atom, acceptor molecule, acceptor atom, score
      P1  H  6896  6909       L1    12  1.00

> <Gold.PLP.Chemscore.Internal.Correction>
0.0881

> <Gold.Rescore>
     Score         DG    S(hbond)    S(metal)    S(lipo)     H(rot)  DE(clash)    DE(int)     intcor
     13.23     -16.10       0.98        0.00      89.86       1.23       0.65       2.23       ----

> <Gold.Chemscore.Fitness>
13.2285

> <Gold.Chemscore.DG>
-16.1029

> <Gold.Chemscore.ZeroCoef>
-5.4800

> <Gold.Chemscore.Hbond>
0.9772

> <Gold.Chemscore.Metal>
0.0000

> <Gold.Chemscore.Lipo>
89.8553

> <Gold.Chemscore.Internal_Hbond>
0.0000

> <Gold.Chemscore.DEClash>
0.6457

> <Gold.Chemscore.DEInternal>
2.2287

> <Gold.Chemscore.Rot>
1.2321

> <Gold.Chemscore.Internal.Correction>
   9.000000E+99

> <Gold.Chemscore.Hbonds>
donor molecule, donor type, donor heavy atom, donor atom, acceptor molecule, acceptor atom, score
      P1  H  6896  6909       L1    12  1.00

> <Gold.Chemscore.Hbond.Weighted>
-3.2639

> <Gold.Chemscore.Metal.Weighted>
-0.0000

> <Gold.Chemscore.Lipo.Weighted>
-10.5131

> <Gold.Chemscore.Internal_Hbond.Weighted>
0.0000

> <Gold.Chemscore.DEClash.Weighted>
0.6457

> <Gold.Chemscore.DEInternal.Weighted>
2.2287

> <Gold.Chemscore.Rot.Weighted>
3.1541

> <Gold.Chemscore.Internal.Correction.Weighted>
   9.000000E+99

> <Gold.Protein.RotatedTorsions>
[ 6907 6896 6895 6894 ] final   87.75 input  -60.11 | X-H torsion
[ 7974 7965 7964 7962 ] final  -92.38 input  175.53 | X-H torsion
[ 8008 7997 7996 7995 ] final -108.32 input   59.86 | X-H torsion
[ 10167 10162 10161 10158 ] final  -42.87 input  -65.29 | X-H torsion
[ 10718 10713 10712 10709 ] final  126.87 input   66.30 | X-H torsion
[ 10763 10752 10751 10750 ] final  -71.66 input  -60.55 | X-H torsion
[ 11005 11000 10999 10996 ] final  176.10 input  -57.11 | X-H torsion

> <Gold.Protein.ActiveResidues>
 VAL166  LYS551  ARG553  GLY616  TRP617  ASP618  TYR619  PRO620  LYS621  CYS622 
 ASP623  PHE694  ASN695  SER759  ASP760  ASP761  ALA762  ILE779  LEU786  VAL792 
 PHE793  MET794  SER795  GLU796  ALA797  LYS798  CYS799  TRP800  GLU811  SER814 

> <Gold.Protein.RotatedAtoms>
  152.5415  134.2228  159.8793 H   0  0  0  0  0  0  0  0  0  0  0  0  # atno 6907 bound_to 6896
  151.2204  133.4499  159.2608 H   0  0  0  0  0  0  0  0  0  0  0  0  # atno 6908 bound_to 6896
  151.0811  134.9872  159.8412 H   0  0  0  0  0  0  0  0  0  0  0  0  # atno 6909 bound_to 6896
  145.4006  140.9537  143.2289 H   0  0  0  0  0  0  0  0  0  0  0  0  # atno 7974 bound_to 7965
  154.9425  140.0402  157.2104 H   0  0  0  0  0  0  0  0  0  0  0  0  # atno 8008 bound_to 7997
  154.8055  140.2859  155.5868 H   0  0  0  0  0  0  0  0  0  0  0  0  # atno 8009 bound_to 7997
  156.2966  140.2547  156.2932 H   0  0  0  0  0  0  0  0  0  0  0  0  # atno 8010 bound_to 7997
  140.6954  143.3014  151.3270 H   0  0  0  0  0  0  0  0  0  0  0  0  # atno 10167 bound_to 10162
  157.5382  131.1097  150.8901 H   0  0  0  0  0  0  0  0  0  0  0  0  # atno 10718 bound_to 10713
  154.4349  135.5955  153.6092 H   0  0  0  0  0  0  0  0  0  0  0  0  # atno 10763 bound_to 10752
  152.9801  135.5984  154.3794 H   0  0  0  0  0  0  0  0  0  0  0  0  # atno 10764 bound_to 10752
  154.3636  135.2841  155.2284 H   0  0  0  0  0  0  0  0  0  0  0  0  # atno 10765 bound_to 10752
  140.3694  134.7043  157.4382 H   0  0  0  0  0  0  0  0  0  0  0  0  # atno 11005 bound_to 11000
  144.8377  139.5523  143.6915 LP  0  0  0  0  0  0  0  0  0  0  0  0  # atno 17320 bound_to 7965
  146.2754  139.6739  142.9267 LP  0  0  0  0  0  0  0  0  0  0  0  0  # atno 17321 bound_to 7965
  139.6403  144.0551  152.2549 LP  0  0  0  0  0  0  0  0  0  0  0  0  # atno 17342 bound_to 10162
  140.0055  144.6262  150.7693 LP  0  0  0  0  0  0  0  0  0  0  0  0  # atno 17343 bound_to 10162
  156.9462  130.5403  149.5281 LP  0  0  0  0  0  0  0  0  0  0  0  0  # atno 17370 bound_to 10713
  156.0475  130.5550  150.8915 LP  0  0  0  0  0  0  0  0  0  0  0  0  # atno 17371 bound_to 10713
  140.0564  134.6058  155.8800 LP  0  0  0  0  0  0  0  0  0  0  0  0  # atno 17394 bound_to 11000
  141.1959  133.6589  156.5667 LP  0  0  0  0  0  0  0  0  0  0  0  0  # atno 17395 bound_to 11000

$$$$
