AV-unprocessed.smi:2137|AV-procd|sdf|8709|dock3
  -GOLD-   2272011473D 1   1.00000     0.00000
 Structure written by MMmdl.
 50 51  0  0  0  0  0  0  0  0  2 V2000
  145.4807  131.7837  150.7887 C   0  0  0  0  0  0  0  0  0  0  0  0
  145.8378  133.1821  151.3118 C   0  0  1  0  0  0  0  0  0  0  0  0
  144.6565  134.1557  151.1644 C   0  0  0  0  0  0  0  0  0  0  0  0
  145.0327  135.5354  151.7186 C   0  0  0  0  0  0  0  0  0  0  0  0
  145.5239  135.4295  153.1711 C   0  0  0  0  0  0  0  0  0  0  0  0
  146.6668  134.4865  153.2828 N   0  3  1  0  0  0  0  0  0  0  0  0
  147.2477  134.4663  154.6493 C   0  0  0  0  0  0  0  0  0  0  0  0
  148.5913  133.7187  154.7049 C   0  0  0  0  0  0  0  0  0  0  0  0
  149.6840  134.5368  155.4055 C   0  0  0  0  0  0  0  0  0  0  0  0
  149.9563  135.7626  154.6660 N   0  0  0  0  0  0  0  0  0  0  0  0
  150.9502  136.6194  154.9403 C   0  0  0  0  0  0  0  0  0  0  0  0
  151.7317  136.4699  155.8802 O   0  0  0  0  0  0  0  0  0  0  0  0
  151.0613  137.8433  154.0218 C   0  0  0  0  0  0  0  0  0  0  0  0
  150.7738  139.1016  154.7219 N   0  0  0  0  0  0  0  0  0  0  0  0
  149.7180  139.8929  154.3070 C   0  0  0  0  0  0  0  0  0  0  0  0
  149.3863  141.0616  154.8979 C   0  0  0  0  0  0  0  0  0  0  0  0
  150.1417  141.5643  156.0389 C   0  0  0  0  0  0  0  0  0  0  0  0
  149.8899  142.6355  156.5924 O   0  0  0  0  0  0  0  0  0  0  0  0
  151.2040  140.7269  156.4550 N   0  0  0  0  0  0  0  0  0  0  0  0
  152.0165  141.1607  157.5730 C   0  0  0  0  0  0  0  0  0  0  0  0
  151.5574  139.5141  155.8214 C   0  0  0  0  0  0  0  0  0  0  0  0
  152.5146  138.8332  156.1984 O   0  0  0  0  0  0  0  0  0  0  0  0
  146.3080  133.1326  152.7795 C   0  0  0  0  0  0  0  0  0  0  0  0
  144.6553  131.3474  151.3524 H   0  0  0  0  0  0  0  0  0  0  0  0
  146.3313  131.1056  150.8655 H   0  0  0  0  0  0  0  0  0  0  0  0
  145.1845  131.8211  149.7399 H   0  0  0  0  0  0  0  0  0  0  0  0
  146.6638  133.5577  150.7057 H   0  0  0  0  0  0  0  0  0  0  0  0
  144.3655  134.2434  150.1169 H   0  0  0  0  0  0  0  0  0  0  0  0
  143.7863  133.7713  151.6987 H   0  0  0  0  0  0  0  0  0  0  0  0
  145.8121  135.9803  151.0982 H   0  0  0  0  0  0  0  0  0  0  0  0
  144.1739  136.2050  151.6632 H   0  0  0  0  0  0  0  0  0  0  0  0
  145.8252  136.4193  153.5168 H   0  0  0  0  0  0  0  0  0  0  0  0
  144.7120  135.0993  153.8213 H   0  0  0  0  0  0  0  0  0  0  0  0
  147.4227  135.4908  154.9811 H   0  0  0  0  0  0  0  0  0  0  0  0
  146.5319  134.0349  155.3508 H   0  0  0  0  0  0  0  0  0  0  0  0
  148.4772  132.7698  155.2288 H   0  0  0  0  0  0  0  0  0  0  0  0
  148.9131  133.4762  153.6911 H   0  0  0  0  0  0  0  0  0  0  0  0
  149.3747  134.7986  156.4182 H   0  0  0  0  0  0  0  0  0  0  0  0
  150.5895  133.9332  155.4921 H   0  0  0  0  0  0  0  0  0  0  0  0
  149.3556  135.9696  153.8811 H   0  0  0  0  0  0  0  0  0  0  0  0
  152.0535  137.8857  153.5687 H   0  0  0  0  0  0  0  0  0  0  0  0
  150.3653  137.7090  153.1927 H   0  0  0  0  0  0  0  0  0  0  0  0
  149.1254  139.5621  153.4664 H   0  0  0  0  0  0  0  0  0  0  0  0
  148.5514  141.6333  154.5203 H   0  0  0  0  0  0  0  0  0  0  0  0
  152.3416  140.2876  158.1410 H   0  0  0  0  0  0  0  0  0  0  0  0
  151.4261  141.7918  158.2384 H   0  0  0  0  0  0  0  0  0  0  0  0
  152.8646  141.7053  157.1558 H   0  0  0  0  0  0  0  0  0  0  0  0
  145.5274  132.7055  153.4116 H   0  0  0  0  0  0  0  0  0  0  0  0
  147.1673  132.4670  152.8514 H   0  0  0  0  0  0  0  0  0  0  0  0
  147.3860  134.8471  152.6722 H   0  0  0  0  0  0  0  0  0  0  0  0
  1  2  1  0  0  0  0
  1 24  1  0  0  0  0
  1 25  1  0  0  0  0
  1 26  1  0  0  0  0
  2 23  1  0  0  0  0
  2  3  1  0  0  0  0
  2 27  1  0  0  0  0
  3  4  1  0  0  0  0
  3 28  1  0  0  0  0
  3 29  1  0  0  0  0
  4  5  1  0  0  0  0
  4 30  1  0  0  0  0
  4 31  1  0  0  0  0
  5  6  1  0  0  0  0
  5 32  1  0  0  0  0
  5 33  1  0  0  0  0
  6  7  1  0  0  0  0
  6 23  1  0  0  0  0
  6 50  1  0  0  0  0
  7  8  1  0  0  0  0
  7 34  1  0  0  0  0
  7 35  1  0  0  0  0
  8  9  1  0  0  0  0
  8 36  1  0  0  0  0
  8 37  1  0  0  0  0
  9 10  1  0  0  0  0
  9 38  1  0  0  0  0
  9 39  1  0  0  0  0
 10 11  1  0  0  0  0
 10 40  1  0  0  0  0
 11 12  2  0  0  0  0
 11 13  1  0  0  0  0
 13 14  1  0  0  0  0
 13 41  1  0  0  0  0
 13 42  1  0  0  0  0
 14 21  1  0  0  0  0
 14 15  1  0  0  0  0
 15 16  2  0  0  0  0
 15 43  1  0  0  0  0
 16 17  1  0  0  0  0
 16 44  1  0  0  0  0
 17 18  2  0  0  0  0
 17 19  1  0  0  0  0
 19 20  1  0  0  0  0
 19 21  1  0  0  0  0
 20 45  1  0  0  0  0
 20 46  1  0  0  0  0
 20 47  1  0  0  0  0
 21 22  2  0  0  0  0
 23 48  1  0  0  0  0
 23 49  1  0  0  0  0
M  CHG  1   6   1
M  END
> <s_m_source_file>
AV-unprocessed.smi

> <i_m_source_file_index>
2137

> <i_lp_mmshare_version>
43012

> <i_f3d_flags>
0

> <s_epik_input>
W0NIM11bQ0BASF0xW0NIMl1bQ0gyXVtDSDJdTihbQ0gyXTEpW0NIMl1bQ0gyXVtDSDJdW05IXUMoPU8pW0NIMl1uMltjSF1bY0hdYyg9TyluKFtDSDNdKWMyPU8=

> <s_epik_cmdline>
J2VwaWtfcHl0aG9uJywgJy1waCcsICc3LjAnLCAnLXRuJywgJzgnLCAnLW1hJywgJzIwMCcsICctbWV0YWxfYmluZGluZycsICctaW1hZScsICc8aW5maWxlLm1hZT4nLCAnLW9tYWUnLCAnPG91dGZpbGUubWFlPic=

> <r_lp_tautomer_probability>
1

> <r_epik_Ionization_Penalty>
0.000384839

> <r_epik_Ionization_Penalty_Charging>
0.000384812

> <r_epik_Ionization_Penalty_Neutral>
2.6907e-08

> <r_epik_State_Penalty>
0.000235226

> <r_epik_Charging_Adjusted_Penalty>
0.000620038

> <i_epik_Tot_Q>
1

> <i_epik_Tot_abs_Q>
1

> <r_epik_Metal_State_Penalty>
-0

> <b_epik_Metal_Only>
0

> <s_lp_Force_Field>
OPLS_2005

> <r_lp_Energy>
25.3587

> <b_lp_Chiralities_Consistent>
1

> <s_lp_Variant>
AV-unprocessed.smi:2137-4

> <Gold.Version>
5.8.1

> <Gold.Id.Protein>
6NUR|6NUR_protein|mol2

> <Gold.PLP.Fitness>
59.7301

> <Gold.PLP.PLP>
-43.2263

> <Gold.PLP.part.hbond>
-5.0000

> <Gold.PLP.part.metal>
0.0000

> <Gold.PLP.part.buried>
-2.1145

> <Gold.PLP.part.nonpolar>
-36.5001

> <Gold.PLP.part.repulsive>
1.3235

> <Gold.PLP.ligand.clash>
0.0000

> <Gold.PLP.ligand.torsion>
0.4534

> <Gold.PLP.Chemscore.Hbond>
5.0000

> <Gold.PLP.Chemscore.CHOScore>
0.7559

> <Gold.PLP.Chemscore.Metal>
0.0000

> <Gold.Chemscore.Hbonds>
donor molecule, donor type, donor heavy atom, donor atom, acceptor molecule, acceptor atom, score
      L1  H     6    50       P1  7948  1.07
      L1  H    10    40       P1  7948  0.96
      P1  H  7997  8009       L1    22  0.47
      P1  H 10752 10765       L1    12  0.80
      L1  C    15    43       P1  7957  0.91

> <Gold.PLP.Chemscore.Internal.Correction>
0.1430

> <Gold.Rescore>
     Score         DG    S(hbond)    S(metal)    S(lipo)     H(rot)  DE(clash)    DE(int)     intcor
     16.61     -18.82       3.13        0.00      74.31       2.27       0.19       2.01       ----

> <Gold.Chemscore.Fitness>
16.6145

> <Gold.Chemscore.DG>
-18.8180

> <Gold.Chemscore.ZeroCoef>
-5.4800

> <Gold.Chemscore.Hbond>
3.1338

> <Gold.Chemscore.Metal>
0.0000

> <Gold.Chemscore.Lipo>
74.3108

> <Gold.Chemscore.Internal_Hbond>
0.0000

> <Gold.Chemscore.DEClash>
0.1925

> <Gold.Chemscore.DEInternal>
2.0109

> <Gold.Chemscore.Rot>
2.2748

> <Gold.Chemscore.Internal.Correction>
   9.000000E+99

> <Gold.Chemscore.Hbonds>
donor molecule, donor type, donor heavy atom, donor atom, acceptor molecule, acceptor atom, score
      L1  H     6    50       P1  7948  0.53
      L1  H    10    40       P1  7948  0.61
      P1  H  7997  8009       L1    22  0.39
      P1  H 10752 10765       L1    12  0.12

> <Gold.Chemscore.Hbond.Weighted>
-10.4670

> <Gold.Chemscore.Metal.Weighted>
-0.0000

> <Gold.Chemscore.Lipo.Weighted>
-8.6944

> <Gold.Chemscore.Internal_Hbond.Weighted>
0.0000

> <Gold.Chemscore.DEClash.Weighted>
0.1925

> <Gold.Chemscore.DEInternal.Weighted>
2.0109

> <Gold.Chemscore.Rot.Weighted>
5.8234

> <Gold.Chemscore.Internal.Correction.Weighted>
   9.000000E+99

> <Gold.Protein.RotatedTorsions>
[ 6907 6896 6895 6894 ] final  174.80 input  -60.11 | X-H torsion
[ 7974 7965 7964 7962 ] final   94.22 input  175.53 | X-H torsion
[ 8008 7997 7996 7995 ] final -171.80 input   59.86 | X-H torsion
[ 10167 10162 10161 10158 ] final -145.11 input  -65.29 | X-H torsion
[ 10718 10713 10712 10709 ] final   97.30 input   66.30 | X-H torsion
[ 10763 10752 10751 10750 ] final -161.98 input  -60.55 | X-H torsion
[ 11005 11000 10999 10996 ] final -129.64 input  -57.11 | X-H torsion

> <Gold.Protein.ActiveResidues>
 VAL166  LYS551  ARG553  GLY616  TRP617  ASP618  TYR619  PRO620  LYS621  CYS622 
 ASP623  PHE694  ASN695  SER759  ASP760  ASP761  ALA762  ILE779  LEU786  VAL792 
 PHE793  MET794  SER795  GLU796  ALA797  LYS798  CYS799  TRP800  GLU811  SER814 

> <Gold.Protein.RotatedAtoms>
  151.7465  133.3325  159.3379 H   0  0  0  0  0  0  0  0  0  0  0  0  # atno 6907 bound_to 6896
  150.7552  134.6231  159.6156 H   0  0  0  0  0  0  0  0  0  0  0  0  # atno 6908 bound_to 6896
  152.3496  134.7025  160.0292 H   0  0  0  0  0  0  0  0  0  0  0  0  # atno 6909 bound_to 6896
  145.4685  139.2283  143.2948 H   0  0  0  0  0  0  0  0  0  0  0  0  # atno 7974 bound_to 7965
  155.9363  140.1100  157.1092 H   0  0  0  0  0  0  0  0  0  0  0  0  # atno 8008 bound_to 7997
  154.4080  140.1228  156.4934 H   0  0  0  0  0  0  0  0  0  0  0  0  # atno 8009 bound_to 7997
  155.7017  140.3472  155.4938 H   0  0  0  0  0  0  0  0  0  0  0  0  # atno 8010 bound_to 7997
  139.7836  143.8065  152.2642 H   0  0  0  0  0  0  0  0  0  0  0  0  # atno 10167 bound_to 10162
  157.6914  131.0605  150.4622 H   0  0  0  0  0  0  0  0  0  0  0  0  # atno 10718 bound_to 10713
  154.7255  135.3035  154.8978 H   0  0  0  0  0  0  0  0  0  0  0  0  # atno 10763 bound_to 10752
  153.9837  135.6727  153.4755 H   0  0  0  0  0  0  0  0  0  0  0  0  # atno 10764 bound_to 10752
  153.0871  135.4978  154.8537 H   0  0  0  0  0  0  0  0  0  0  0  0  # atno 10765 bound_to 10752
  140.9414  134.1187  157.4147 H   0  0  0  0  0  0  0  0  0  0  0  0  # atno 11005 bound_to 11000
  146.2410  140.5461  142.8934 LP  0  0  0  0  0  0  0  0  0  0  0  0  # atno 17320 bound_to 7965
  144.7960  140.6122  143.6510 LP  0  0  0  0  0  0  0  0  0  0  0  0  # atno 17321 bound_to 7965
  139.8135  144.7326  150.9665 LP  0  0  0  0  0  0  0  0  0  0  0  0  # atno 17342 bound_to 10162
  140.7819  143.4227  151.0816 LP  0  0  0  0  0  0  0  0  0  0  0  0  # atno 17343 bound_to 10162
  156.4966  130.4107  149.6376 LP  0  0  0  0  0  0  0  0  0  0  0  0  # atno 17370 bound_to 10713
  156.3367  130.7360  151.2299 LP  0  0  0  0  0  0  0  0  0  0  0  0  # atno 17371 bound_to 10713
  139.8821  135.0038  156.6208 LP  0  0  0  0  0  0  0  0  0  0  0  0  # atno 17394 bound_to 11000
  140.7728  133.8724  155.8505 LP  0  0  0  0  0  0  0  0  0  0  0  0  # atno 17395 bound_to 11000

$$$$
