AV-unprocessed.smi:1304|AV-procd|sdf|5429|dock4
  -GOLD-   22720 4593D 1   1.00000     0.00000
 Structure written by MMmdl.
 47 48  0  0  0  0  0  0  0  0  1 V2000
  150.7698  139.9851  154.8753 C   0  0  0  0  0  0  0  0  0  0  0  0
  151.1553  139.5855  156.3112 C   0  0  0  0  0  0  0  0  0  0  0  0
  150.2930  140.2235  157.4471 C   0  0  1  0  0  0  0  0  0  0  0  0
  148.8834  140.4618  156.8409 C   0  0  0  0  0  0  0  0  0  0  0  0
  150.1518  139.1933  158.6151 C   0  0  0  0  0  0  0  0  0  0  0  0
  149.1620  138.1463  158.3628 N   0  0  0  0  0  0  0  0  0  0  0  0
  149.3576  136.8280  158.5173 C   0  0  0  0  0  0  0  0  0  0  0  0
  150.4080  136.3426  158.9387 O   0  0  0  0  0  0  0  0  0  0  0  0
  148.1783  135.9217  158.1406 C   0  0  0  0  0  0  0  0  0  0  0  0
  147.6620  135.1581  159.2883 N   0  0  0  0  0  0  0  0  0  0  0  0
  147.6154  133.7554  159.1613 C   0  0  0  0  0  0  0  0  0  0  0  0
  147.1599  132.9680  160.1486 C   0  0  0  0  0  0  0  0  0  0  0  0
  146.7098  133.5944  161.3689 C   0  0  0  0  0  0  0  0  0  0  0  0
  146.7474  134.9354  161.4999 C   0  0  0  0  0  0  0  0  0  0  0  0
  147.2417  135.8003  160.4224 C   0  0  0  0  0  0  0  0  0  0  0  0
  147.2763  137.0265  160.5322 O   0  0  0  0  0  0  0  0  0  0  0  0
  150.8892  141.5100  157.9076 N   0  0  0  0  0  0  0  0  0  0  0  0
  152.1594  141.3891  158.6334 C   0  0  0  0  0  0  0  0  0  0  0  0
  152.6317  142.7403  159.1974 C   0  0  0  0  0  0  0  0  0  0  0  0
  152.7450  143.6881  158.1426 O   0  0  0  0  0  0  0  0  0  0  0  0
  151.5181  143.8771  157.4478 C   0  0  0  0  0  0  0  0  0  0  0  0
  151.0406  142.5353  156.8676 C   0  0  0  0  0  0  0  0  0  0  0  0
  151.4282  139.4978  154.1561 H   0  0  0  0  0  0  0  0  0  0  0  0
  150.8538  141.0597  154.7150 H   0  0  0  0  0  0  0  0  0  0  0  0
  149.7502  139.6877  154.6323 H   0  0  0  0  0  0  0  0  0  0  0  0
  151.0972  138.4981  156.3648 H   0  0  0  0  0  0  0  0  0  0  0  0
  152.2106  139.8087  156.4677 H   0  0  0  0  0  0  0  0  0  0  0  0
  148.5224  139.5938  156.2881 H   0  0  0  0  0  0  0  0  0  0  0  0
  148.8793  141.3052  156.1501 H   0  0  0  0  0  0  0  0  0  0  0  0
  148.1378  140.6675  157.6089 H   0  0  0  0  0  0  0  0  0  0  0  0
  151.1134  138.7389  158.8543 H   0  0  0  0  0  0  0  0  0  0  0  0
  149.8288  139.6942  159.5268 H   0  0  0  0  0  0  0  0  0  0  0  0
  148.2643  138.4504  158.0145 H   0  0  0  0  0  0  0  0  0  0  0  0
  147.3968  136.5467  157.7065 H   0  0  0  0  0  0  0  0  0  0  0  0
  148.4737  135.2369  157.3429 H   0  0  0  0  0  0  0  0  0  0  0  0
  147.9635  133.3660  158.2157 H   0  0  0  0  0  0  0  0  0  0  0  0
  147.1273  131.8947  160.0317 H   0  0  0  0  0  0  0  0  0  0  0  0
  146.3399  132.9852  162.1802 H   0  0  0  0  0  0  0  0  0  0  0  0
  146.4059  135.3866  162.4200 H   0  0  0  0  0  0  0  0  0  0  0  0
  152.0675  140.6959  159.4679 H   0  0  0  0  0  0  0  0  0  0  0  0
  152.9352  140.9956  157.9772 H   0  0  0  0  0  0  0  0  0  0  0  0
  151.9364  143.1075  159.9539 H   0  0  0  0  0  0  0  0  0  0  0  0
  153.6021  142.6300  159.6816 H   0  0  0  0  0  0  0  0  0  0  0  0
  150.7686  144.2948  158.1220 H   0  0  0  0  0  0  0  0  0  0  0  0
  151.6696  144.6024  156.6485 H   0  0  0  0  0  0  0  0  0  0  0  0
  151.7573  142.2085  156.1144 H   0  0  0  0  0  0  0  0  0  0  0  0
  150.0990  142.7119  156.3512 H   0  0  0  0  0  0  0  0  0  0  0  0
  1  2  1  0  0  0  0
  1 23  1  0  0  0  0
  1 24  1  0  0  0  0
  1 25  1  0  0  0  0
  2  3  1  0  0  0  0
  2 26  1  0  0  0  0
  2 27  1  0  0  0  0
  3  4  1  0  0  0  0
  3  5  1  0  0  0  0
  3 17  1  0  0  0  0
  4 28  1  0  0  0  0
  4 29  1  0  0  0  0
  4 30  1  0  0  0  0
  5  6  1  0  0  0  0
  5 31  1  0  0  0  0
  5 32  1  0  0  0  0
  6  7  1  0  0  0  0
  6 33  1  0  0  0  0
  7  8  2  0  0  0  0
  7  9  1  0  0  0  0
  9 10  1  0  0  0  0
  9 34  1  0  0  0  0
  9 35  1  0  0  0  0
 10 15  1  0  0  0  0
 10 11  1  0  0  0  0
 11 12  2  0  0  0  0
 11 36  1  0  0  0  0
 12 13  1  0  0  0  0
 12 37  1  0  0  0  0
 13 14  2  0  0  0  0
 13 38  1  0  0  0  0
 14 15  1  0  0  0  0
 14 39  1  0  0  0  0
 15 16  2  0  0  0  0
 17 22  1  0  0  0  0
 17 18  1  0  0  0  0
 18 19  1  0  0  0  0
 18 40  1  0  0  0  0
 18 41  1  0  0  0  0
 19 20  1  0  0  0  0
 19 42  1  0  0  0  0
 19 43  1  0  0  0  0
 20 21  1  0  0  0  0
 21 22  1  0  0  0  0
 21 44  1  0  0  0  0
 21 45  1  0  0  0  0
 22 46  1  0  0  0  0
 22 47  1  0  0  0  0
M  END
> <s_m_source_file>
AV-unprocessed.smi

> <i_m_source_file_index>
1304

> <i_lp_mmshare_version>
43012

> <i_f3d_flags>
0

> <s_epik_input>
W0NIMl0xW0NIMl1PW0NIMl1bQ0gyXU4xW0NAQF0oW0NIM10pKFtDSDJdW0NIM10pW0NIMl1bTkhdQyg9TylbQ0gyXW4yW2NIXVtjSF1bY0hdW2NIXWMyPU8=

> <s_epik_cmdline>
J2VwaWtfcHl0aG9uJywgJy1waCcsICc3LjAnLCAnLXRuJywgJzgnLCAnLW1hJywgJzIwMCcsICctbWV0YWxfYmluZGluZycsICctaW1hZScsICc8aW5maWxlLm1hZT4nLCAnLW9tYWUnLCAnPG91dGZpbGUubWFlPic=

> <r_lp_tautomer_probability>
1

> <r_epik_Ionization_Penalty>
0.318667

> <r_epik_Ionization_Penalty_Charging>
3.55364e-07

> <r_epik_Ionization_Penalty_Neutral>
0.318667

> <r_epik_State_Penalty>
0.313095

> <r_epik_Charging_Adjusted_Penalty>
0.313095

> <i_epik_Tot_Q>
0

> <i_epik_Tot_abs_Q>
0

> <r_epik_Metal_State_Penalty>
0.313065

> <b_epik_Metal_Only>
0

> <s_lp_Force_Field>
OPLS_2005

> <r_lp_Energy>
51.6355

> <b_lp_Chiralities_Consistent>
1

> <s_lp_Variant>
AV-unprocessed.smi:1304-1

> <Gold.Version>
5.8.1

> <Gold.Id.Protein>
6NUR|6NUR_protein|mol2

> <Gold.PLP.Fitness>
42.8832

> <Gold.PLP.PLP>
-36.4939

> <Gold.PLP.part.hbond>
-3.0000

> <Gold.PLP.part.metal>
0.0000

> <Gold.PLP.part.buried>
-1.5502

> <Gold.PLP.part.nonpolar>
-32.8189

> <Gold.PLP.part.repulsive>
0.2397

> <Gold.PLP.ligand.clash>
0.0000

> <Gold.PLP.ligand.torsion>
1.0413

> <Gold.PLP.Chemscore.Hbond>
2.7760

> <Gold.PLP.Chemscore.CHOScore>
0.0000

> <Gold.PLP.Chemscore.Metal>
0.0000

> <Gold.Chemscore.Hbonds>
donor molecule, donor type, donor heavy atom, donor atom, acceptor molecule, acceptor atom, score
      P1  H  6896  6909       L1     8  1.00
      P1  H  6934  6947       L1    16  0.99

> <Gold.PLP.Chemscore.Internal.Correction>
0.1438

> <Gold.Rescore>
     Score         DG    S(hbond)    S(metal)    S(lipo)     H(rot)  DE(clash)    DE(int)     intcor
     18.09     -20.85       2.78        0.00      94.77       1.95       0.20       2.56       ----

> <Gold.Chemscore.Fitness>
18.0885

> <Gold.Chemscore.DG>
-20.8484

> <Gold.Chemscore.ZeroCoef>
-5.4800

> <Gold.Chemscore.Hbond>
2.7774

> <Gold.Chemscore.Metal>
0.0000

> <Gold.Chemscore.Lipo>
94.7651

> <Gold.Chemscore.Internal_Hbond>
0.0000

> <Gold.Chemscore.DEClash>
0.2019

> <Gold.Chemscore.DEInternal>
2.5579

> <Gold.Chemscore.Rot>
1.9515

> <Gold.Chemscore.Internal.Correction>
   9.000000E+99

> <Gold.Chemscore.Hbonds>
donor molecule, donor type, donor heavy atom, donor atom, acceptor molecule, acceptor atom, score
      P1  H  6896  6909       L1     8  0.99
      P1  H  6934  6947       L1    16  0.92

> <Gold.Chemscore.Hbond.Weighted>
-9.2767

> <Gold.Chemscore.Metal.Weighted>
-0.0000

> <Gold.Chemscore.Lipo.Weighted>
-11.0875

> <Gold.Chemscore.Internal_Hbond.Weighted>
0.0000

> <Gold.Chemscore.DEClash.Weighted>
0.2019

> <Gold.Chemscore.DEInternal.Weighted>
2.5579

> <Gold.Chemscore.Rot.Weighted>
4.9958

> <Gold.Chemscore.Internal.Correction.Weighted>
   9.000000E+99

> <Gold.Protein.RotatedTorsions>
[ 6907 6896 6895 6894 ] final   78.96 input  -60.11 | X-H torsion
[ 7974 7965 7964 7962 ] final  159.20 input  175.53 | X-H torsion
[ 8008 7997 7996 7995 ] final -140.02 input   59.86 | X-H torsion
[ 10167 10162 10161 10158 ] final  121.41 input  -65.29 | X-H torsion
[ 10718 10713 10712 10709 ] final  134.59 input   66.30 | X-H torsion
[ 10763 10752 10751 10750 ] final -123.18 input  -60.55 | X-H torsion
[ 11005 11000 10999 10996 ] final   68.83 input  -57.11 | X-H torsion

> <Gold.Protein.ActiveResidues>
 VAL166  LYS551  ARG553  GLY616  TRP617  ASP618  TYR619  PRO620  LYS621  CYS622 
 ASP623  PHE694  ASN695  SER759  ASP760  ASP761  ALA762  ILE779  LEU786  VAL792 
 PHE793  MET794  SER795  GLU796  ALA797  LYS798  CYS799  TRP800  GLU811  SER814 

> <Gold.Protein.RotatedAtoms>
  152.5180  134.3584  159.9275 H   0  0  0  0  0  0  0  0  0  0  0  0  # atno 6907 bound_to 6896
  151.3536  133.3910  159.2690 H   0  0  0  0  0  0  0  0  0  0  0  0  # atno 6908 bound_to 6896
  150.9708  134.9100  159.7844 H   0  0  0  0  0  0  0  0  0  0  0  0  # atno 6909 bound_to 6896
  144.7803  139.7585  143.6262 H   0  0  0  0  0  0  0  0  0  0  0  0  # atno 7974 bound_to 7965
  155.4545  140.0541  157.2997 H   0  0  0  0  0  0  0  0  0  0  0  0  # atno 8008 bound_to 7997
  154.4763  140.2062  155.9826 H   0  0  0  0  0  0  0  0  0  0  0  0  # atno 8009 bound_to 7997
  156.1137  140.3200  155.8113 H   0  0  0  0  0  0  0  0  0  0  0  0  # atno 8010 bound_to 7997
  139.5922  144.7029  151.3264 H   0  0  0  0  0  0  0  0  0  0  0  0  # atno 10167 bound_to 10162
  157.4657  131.1076  150.9865 H   0  0  0  0  0  0  0  0  0  0  0  0  # atno 10718 bound_to 10713
  154.8703  135.4107  154.2901 H   0  0  0  0  0  0  0  0  0  0  0  0  # atno 10763 bound_to 10752
  153.3778  135.7010  153.6593 H   0  0  0  0  0  0  0  0  0  0  0  0  # atno 10764 bound_to 10752
  153.5428  135.3644  155.2697 H   0  0  0  0  0  0  0  0  0  0  0  0  # atno 10765 bound_to 10752
  139.9689  134.6934  156.0488 H   0  0  0  0  0  0  0  0  0  0  0  0  # atno 11005 bound_to 11000
  146.2007  139.5300  142.9745 LP  0  0  0  0  0  0  0  0  0  0  0  0  # atno 17320 bound_to 7965
  145.6069  141.0346  143.1988 LP  0  0  0  0  0  0  0  0  0  0  0  0  # atno 17321 bound_to 7965
  140.7182  143.7208  150.7697 LP  0  0  0  0  0  0  0  0  0  0  0  0  # atno 17342 bound_to 10162
  140.0767  143.5009  152.2552 LP  0  0  0  0  0  0  0  0  0  0  0  0  # atno 17343 bound_to 10162
  157.0647  130.5840  149.5392 LP  0  0  0  0  0  0  0  0  0  0  0  0  # atno 17370 bound_to 10713
  156.0049  130.5134  150.7795 LP  0  0  0  0  0  0  0  0  0  0  0  0  # atno 17371 bound_to 10713
  141.1369  133.6573  156.3618 LP  0  0  0  0  0  0  0  0  0  0  0  0  # atno 17394 bound_to 11000
  140.5336  134.6188  157.5358 LP  0  0  0  0  0  0  0  0  0  0  0  0  # atno 17395 bound_to 11000

$$$$
