AV-unprocessed.smi:3014|AV-procd|sdf|11466|dock6
  -GOLD-   2272016403D 1   1.00000     0.00000
 Structure written by MMmdl.
 45 46  0  0  0  0  0  0  0  0  1 V2000
  151.5332  145.5891  159.4721 C   0  0  0  0  0  0  0  0  0  0  0  0
  151.8247  144.1571  159.9426 C   0  0  2  0  0  0  0  0  0  0  0  0
  152.2439  144.1277  161.4251 C   0  0  0  0  0  0  0  0  0  0  0  0
  152.5487  142.6982  161.8997 C   0  0  0  0  0  0  0  0  0  0  0  0
  153.6126  142.0294  161.0136 C   0  0  0  0  0  0  0  0  0  0  0  0
  153.2086  142.0435  159.5289 C   0  0  1  0  0  0  0  0  0  0  0  0
  152.0704  141.2031  159.3858 O   0  0  0  0  0  0  0  0  0  0  0  0
  152.1756  140.2190  158.3638 C   0  0  0  0  0  0  0  0  0  0  0  0
  153.2798  139.2200  158.7190 C   0  0  0  0  0  0  0  0  0  0  0  0
  154.2400  139.0986  157.9585 O   0  0  0  0  0  0  0  0  0  0  0  0
  153.1272  138.5378  159.8705 N   0  0  0  0  0  0  0  0  0  0  0  0
  153.9711  137.5387  160.4197 C   0  0  0  0  0  0  0  0  0  0  0  0
  154.6667  136.7400  159.4869 C   0  0  0  0  0  0  0  0  0  0  0  0
  155.5164  135.7433  160.0040 C   0  0  0  0  0  0  0  0  0  0  0  0
  155.6655  135.5555  161.3311 N   0  0  0  0  0  0  0  0  0  0  0  0
  154.9708  136.3572  162.1474 C   0  0  0  0  0  0  0  0  0  0  0  0
  155.1262  136.1697  163.5237 N   0  0  0  0  0  0  0  0  0  0  0  0
  154.6127  137.1458  164.4808 C   0  0  0  0  0  0  0  0  0  0  0  0
  155.8322  135.0068  164.0535 C   0  0  0  0  0  0  0  0  0  0  0  0
  154.1395  137.3281  161.7480 N   0  0  0  0  0  0  0  0  0  0  0  0
  152.8987  143.4831  159.0647 C   0  0  0  0  0  0  0  0  0  0  0  0
  152.4205  146.2188  159.5446 H   0  0  0  0  0  0  0  0  0  0  0  0
  150.7491  146.0480  160.0751 H   0  0  0  0  0  0  0  0  0  0  0  0
  151.1994  145.6014  158.4343 H   0  0  0  0  0  0  0  0  0  0  0  0
  150.9001  143.5866  159.8424 H   0  0  0  0  0  0  0  0  0  0  0  0
  153.1256  144.7531  161.5709 H   0  0  0  0  0  0  0  0  0  0  0  0
  151.4555  144.5568  162.0445 H   0  0  0  0  0  0  0  0  0  0  0  0
  152.8873  142.7162  162.9359 H   0  0  0  0  0  0  0  0  0  0  0  0
  151.6332  142.1055  161.8862 H   0  0  0  0  0  0  0  0  0  0  0  0
  154.5619  142.5526  161.1352 H   0  0  0  0  0  0  0  0  0  0  0  0
  153.7833  141.0046  161.3450 H   0  0  0  0  0  0  0  0  0  0  0  0
  154.0365  141.6367  158.9457 H   0  0  0  0  0  0  0  0  0  0  0  0
  151.2386  139.6753  158.2437 H   0  0  0  0  0  0  0  0  0  0  0  0
  152.4143  140.6890  157.4090 H   0  0  0  0  0  0  0  0  0  0  0  0
  152.2975  138.7520  160.4043 H   0  0  0  0  0  0  0  0  0  0  0  0
  154.5580  136.8812  158.4215 H   0  0  0  0  0  0  0  0  0  0  0  0
  156.0793  135.0950  159.3491 H   0  0  0  0  0  0  0  0  0  0  0  0
  153.5398  137.2867  164.3438 H   0  0  0  0  0  0  0  0  0  0  0  0
  155.1059  138.1083  164.3416 H   0  0  0  0  0  0  0  0  0  0  0  0
  154.7765  136.8320  165.5117 H   0  0  0  0  0  0  0  0  0  0  0  0
  156.8492  134.9682  163.6617 H   0  0  0  0  0  0  0  0  0  0  0  0
  155.3185  134.0882  163.7684 H   0  0  0  0  0  0  0  0  0  0  0  0
  155.8967  135.0295  165.1414 H   0  0  0  0  0  0  0  0  0  0  0  0
  152.5881  143.4926  158.0203 H   0  0  0  0  0  0  0  0  0  0  0  0
  153.8163  144.0717  159.1052 H   0  0  0  0  0  0  0  0  0  0  0  0
  1  2  1  0  0  0  0
  1 22  1  0  0  0  0
  1 23  1  0  0  0  0
  1 24  1  0  0  0  0
  2 21  1  0  0  0  0
  2  3  1  0  0  0  0
  2 25  1  0  0  0  0
  3  4  1  0  0  0  0
  3 26  1  0  0  0  0
  3 27  1  0  0  0  0
  4  5  1  0  0  0  0
  4 28  1  0  0  0  0
  4 29  1  0  0  0  0
  5  6  1  0  0  0  0
  5 30  1  0  0  0  0
  5 31  1  0  0  0  0
  6  7  1  0  0  0  0
  6 21  1  0  0  0  0
  6 32  1  0  0  0  0
  7  8  1  0  0  0  0
  8  9  1  0  0  0  0
  8 33  1  0  0  0  0
  8 34  1  0  0  0  0
  9 10  2  0  0  0  0
  9 11  1  0  0  0  0
 11 12  1  0  0  0  0
 11 35  1  0  0  0  0
 12 20  1  0  0  0  0
 12 13  2  0  0  0  0
 13 14  1  0  0  0  0
 13 36  1  0  0  0  0
 14 15  2  0  0  0  0
 14 37  1  0  0  0  0
 15 16  1  0  0  0  0
 16 17  1  0  0  0  0
 16 20  2  0  0  0  0
 17 18  1  0  0  0  0
 17 19  1  0  0  0  0
 18 38  1  0  0  0  0
 18 39  1  0  0  0  0
 18 40  1  0  0  0  0
 19 41  1  0  0  0  0
 19 42  1  0  0  0  0
 19 43  1  0  0  0  0
 21 44  1  0  0  0  0
 21 45  1  0  0  0  0
M  END
> <s_m_source_file>
AV-unprocessed.smi

> <i_m_source_file_index>
3014

> <i_lp_mmshare_version>
43012

> <i_f3d_flags>
0

> <s_epik_input>
W0NIM11bQ0BASF0xW0NIMl1bQ0gyXVtDSDJdW0NASF0oW0NIMl0xKU9bQ0gyXUMoPU8pW05IXWMyW2NIXVtjSF1uYyhuMilOKFtDSDNdKVtDSDNd

> <s_epik_cmdline>
J2VwaWtfcHl0aG9uJywgJy1waCcsICc3LjAnLCAnLXRuJywgJzgnLCAnLW1hJywgJzIwMCcsICctbWV0YWxfYmluZGluZycsICctaW1hZScsICc8aW5maWxlLm1hZT4nLCAnLW9tYWUnLCAnPG91dGZpbGUubWFlPic=

> <r_lp_tautomer_probability>
1

> <r_epik_Ionization_Penalty>
0.000308195

> <r_epik_Ionization_Penalty_Charging>
0

> <r_epik_Ionization_Penalty_Neutral>
0.000308195

> <r_epik_State_Penalty>
-0

> <r_epik_Charging_Adjusted_Penalty>
0

> <i_epik_Tot_Q>
0

> <i_epik_Tot_abs_Q>
0

> <r_epik_Metal_State_Penalty>
-0

> <b_epik_Metal_Only>
0

> <s_lp_Force_Field>
OPLS_2005

> <r_lp_Energy>
6.70314

> <b_lp_Chiralities_Consistent>
1

> <s_lp_Variant>
AV-unprocessed.smi:3014-1

> <Gold.Version>
5.8.1

> <Gold.Id.Protein>
6NUR|6NUR_protein|mol2

> <Gold.PLP.Fitness>
49.7625

> <Gold.PLP.PLP>
-48.6777

> <Gold.PLP.part.hbond>
-0.8836

> <Gold.PLP.part.metal>
0.0000

> <Gold.PLP.part.buried>
-5.4337

> <Gold.PLP.part.nonpolar>
-42.2284

> <Gold.PLP.part.repulsive>
0.0880

> <Gold.PLP.ligand.clash>
0.0000

> <Gold.PLP.ligand.torsion>
0.9714

> <Gold.PLP.Chemscore.Hbond>
1.0000

> <Gold.PLP.Chemscore.CHOScore>
0.0000

> <Gold.PLP.Chemscore.Metal>
0.0000

> <Gold.Chemscore.Hbonds>
donor molecule, donor type, donor heavy atom, donor atom, acceptor molecule, acceptor atom, score
      P1  H  7997  8010       L1    10  0.60

> <Gold.PLP.Chemscore.Internal.Correction>
0.0276

> <Gold.Rescore>
     Score         DG    S(hbond)    S(metal)    S(lipo)     H(rot)  DE(clash)    DE(int)     intcor
     16.41     -18.58       1.00        0.00     114.83       1.43       0.03       2.14       ----

> <Gold.Chemscore.Fitness>
16.4108

> <Gold.Chemscore.DG>
-18.5798

> <Gold.Chemscore.ZeroCoef>
-5.4800

> <Gold.Chemscore.Hbond>
0.9964

> <Gold.Chemscore.Metal>
0.0000

> <Gold.Chemscore.Lipo>
114.8301

> <Gold.Chemscore.Internal_Hbond>
0.0000

> <Gold.Chemscore.DEClash>
0.0251

> <Gold.Chemscore.DEInternal>
2.1439

> <Gold.Chemscore.Rot>
1.4310

> <Gold.Chemscore.Internal.Correction>
   9.000000E+99

> <Gold.Chemscore.Hbonds>
donor molecule, donor type, donor heavy atom, donor atom, acceptor molecule, acceptor atom, score
      P1  H  7997  8010       L1    10  0.57

> <Gold.Chemscore.Hbond.Weighted>
-3.3279

> <Gold.Chemscore.Metal.Weighted>
-0.0000

> <Gold.Chemscore.Lipo.Weighted>
-13.4351

> <Gold.Chemscore.Internal_Hbond.Weighted>
0.0000

> <Gold.Chemscore.DEClash.Weighted>
0.0251

> <Gold.Chemscore.DEInternal.Weighted>
2.1439

> <Gold.Chemscore.Rot.Weighted>
3.6632

> <Gold.Chemscore.Internal.Correction.Weighted>
   9.000000E+99

> <Gold.Protein.RotatedTorsions>
[ 6907 6896 6895 6894 ] final  179.77 input  -60.11 | X-H torsion
[ 7974 7965 7964 7962 ] final   65.29 input  175.53 | X-H torsion
[ 8008 7997 7996 7995 ] final   36.81 input   59.86 | X-H torsion
[ 10167 10162 10161 10158 ] final -160.62 input  -65.29 | X-H torsion
[ 10718 10713 10712 10709 ] final  -82.09 input   66.30 | X-H torsion
[ 10763 10752 10751 10750 ] final  108.69 input  -60.55 | X-H torsion
[ 11005 11000 10999 10996 ] final -178.46 input  -57.11 | X-H torsion

> <Gold.Protein.ActiveResidues>
 VAL166  LYS551  ARG553  GLY616  TRP617  ASP618  TYR619  PRO620  LYS621  CYS622 
 ASP623  PHE694  ASN695  SER759  ASP760  ASP761  ALA762  ILE779  LEU786  VAL792 
 PHE793  MET794  SER795  GLU796  ALA797  LYS798  CYS799  TRP800  GLU811  SER814 

> <Gold.Protein.RotatedAtoms>
  151.6662  133.3315  159.3185 H   0  0  0  0  0  0  0  0  0  0  0  0  # atno 6907 bound_to 6896
  150.7889  134.6901  159.6501 H   0  0  0  0  0  0  0  0  0  0  0  0  # atno 6908 bound_to 6896
  152.3965  134.6360  160.0139 H   0  0  0  0  0  0  0  0  0  0  0  0  # atno 6909 bound_to 6896
  145.8402  139.3191  143.0936 H   0  0  0  0  0  0  0  0  0  0  0  0  # atno 7974 bound_to 7965
  155.1935  140.3310  155.4354 H   0  0  0  0  0  0  0  0  0  0  0  0  # atno 8008 bound_to 7997
  156.2433  140.1906  156.6976 H   0  0  0  0  0  0  0  0  0  0  0  0  # atno 8009 bound_to 7997
  154.6190  140.0598  156.9576 H   0  0  0  0  0  0  0  0  0  0  0  0  # atno 8010 bound_to 7997
  139.6526  144.0056  152.2172 H   0  0  0  0  0  0  0  0  0  0  0  0  # atno 10167 bound_to 10162
  156.0039  130.4624  150.4052 H   0  0  0  0  0  0  0  0  0  0  0  0  # atno 10718 bound_to 10713
  153.4242  135.3804  155.2130 H   0  0  0  0  0  0  0  0  0  0  0  0  # atno 10763 bound_to 10752
  154.8746  135.3824  154.4347 H   0  0  0  0  0  0  0  0  0  0  0  0  # atno 10764 bound_to 10752
  153.4871  135.7088  153.5968 H   0  0  0  0  0  0  0  0  0  0  0  0  # atno 10765 bound_to 10752
  140.4295  134.6532  157.4705 H   0  0  0  0  0  0  0  0  0  0  0  0  # atno 11005 bound_to 11000
  145.9474  140.8934  143.0277 LP  0  0  0  0  0  0  0  0  0  0  0  0  # atno 17320 bound_to 7965
  144.6734  140.1632  143.7420 LP  0  0  0  0  0  0  0  0  0  0  0  0  # atno 17321 bound_to 7965
  139.9774  144.6452  150.7932 LP  0  0  0  0  0  0  0  0  0  0  0  0  # atno 17342 bound_to 10162
  140.7544  143.3027  151.3039 LP  0  0  0  0  0  0  0  0  0  0  0  0  # atno 17343 bound_to 10162
  157.2119  131.0462  151.2595 LP  0  0  0  0  0  0  0  0  0  0  0  0  # atno 17370 bound_to 10713
  157.3881  130.7267  149.6678 LP  0  0  0  0  0  0  0  0  0  0  0  0  # atno 17371 bound_to 10713
  140.0144  134.6641  155.9332 LP  0  0  0  0  0  0  0  0  0  0  0  0  # atno 17394 bound_to 11000
  141.1751  133.6540  156.4799 LP  0  0  0  0  0  0  0  0  0  0  0  0  # atno 17395 bound_to 11000

$$$$
