AV-unprocessed.smi:977|AV-procd|sdf|4306|dock8
  -GOLD-   22720 2213D 1   1.00000     0.00000
 Structure written by MMmdl.
 37 38  0  0  0  0  0  0  0  0  1 V2000
  147.4309  141.5824  153.6934 C   0  0  0  0  0  0  0  0  0  0  0  0
  148.6501  140.8026  154.1012 C   0  0  0  0  0  0  0  0  0  0  0  0
  149.6491  141.4338  154.7006 N   0  0  0  0  0  0  0  0  0  0  0  0
  150.6651  140.4855  154.8973 O   0  0  0  0  0  0  0  0  0  0  0  0
  150.2504  139.2882  154.4066 C   0  0  0  0  0  0  0  0  0  0  0  0
  151.2047  138.1466  154.5067 C   0  0  0  0  0  0  0  0  0  0  0  0
  148.9828  139.4276  153.9240 C   0  0  0  0  0  0  0  0  0  0  0  0
  148.2319  138.3946  153.3099 N   0  0  0  0  0  0  0  0  0  0  0  0
  146.8968  138.2653  153.3173 C   0  0  0  0  0  0  0  0  0  0  0  0
  146.1243  139.0070  153.9242 O   0  0  0  0  0  0  0  0  0  0  0  0
  146.5025  137.2073  152.5940 N   0  0  0  0  0  0  0  0  0  0  0  0
  145.1168  136.7891  152.3910 C   0  0  2  0  0  0  0  0  0  0  0  0
  144.5507  136.3102  153.7371 C   0  0  0  0  0  0  0  0  0  0  0  0
  145.0421  135.6964  151.3017 C   0  0  1  0  0  0  0  0  0  0  0  0
  146.0206  134.5347  151.5040 C   0  0  0  0  0  0  0  0  0  0  0  0
  145.2961  133.3858  150.8417 C   0  0  0  0  0  0  0  0  0  0  0  0
  143.8562  133.6715  151.2456 C   0  0  0  0  0  0  0  0  0  0  0  0
  143.7485  135.0900  151.2737 O   0  0  0  0  0  0  0  0  0  0  0  0
  146.9982  141.1866  152.7744 H   0  0  0  0  0  0  0  0  0  0  0  0
  147.6695  142.6311  153.5134 H   0  0  0  0  0  0  0  0  0  0  0  0
  146.6652  141.5461  154.4683 H   0  0  0  0  0  0  0  0  0  0  0  0
  150.8486  137.2857  153.9407 H   0  0  0  0  0  0  0  0  0  0  0  0
  151.3297  137.8402  155.5451 H   0  0  0  0  0  0  0  0  0  0  0  0
  152.1834  138.4253  154.1156 H   0  0  0  0  0  0  0  0  0  0  0  0
  148.7630  137.6458  152.8901 H   0  0  0  0  0  0  0  0  0  0  0  0
  147.2127  136.6557  152.1358 H   0  0  0  0  0  0  0  0  0  0  0  0
  144.5240  137.6475  152.0696 H   0  0  0  0  0  0  0  0  0  0  0  0
  143.4969  136.0440  153.6543 H   0  0  0  0  0  0  0  0  0  0  0  0
  144.6282  137.0907  154.4948 H   0  0  0  0  0  0  0  0  0  0  0  0
  145.0872  135.4348  154.1045 H   0  0  0  0  0  0  0  0  0  0  0  0
  145.2125  136.1357  150.3174 H   0  0  0  0  0  0  0  0  0  0  0  0
  147.0027  134.7254  151.0705 H   0  0  0  0  0  0  0  0  0  0  0  0
  146.1523  134.3213  152.5659 H   0  0  0  0  0  0  0  0  0  0  0  0
  145.4053  133.4447  149.7579 H   0  0  0  0  0  0  0  0  0  0  0  0
  145.6460  132.4077  151.1723 H   0  0  0  0  0  0  0  0  0  0  0  0
  143.1308  133.2276  150.5636 H   0  0  0  0  0  0  0  0  0  0  0  0
  143.6595  133.2893  152.2479 H   0  0  0  0  0  0  0  0  0  0  0  0
  1  2  1  0  0  0  0
  1 19  1  0  0  0  0
  1 20  1  0  0  0  0
  1 21  1  0  0  0  0
  2  7  1  0  0  0  0
  2  3  2  0  0  0  0
  3  4  1  0  0  0  0
  4  5  1  0  0  0  0
  5  6  1  0  0  0  0
  5  7  2  0  0  0  0
  6 22  1  0  0  0  0
  6 23  1  0  0  0  0
  6 24  1  0  0  0  0
  7  8  1  0  0  0  0
  8  9  1  0  0  0  0
  8 25  1  0  0  0  0
  9 10  2  0  0  0  0
  9 11  1  0  0  0  0
 11 12  1  0  0  0  0
 11 26  1  0  0  0  0
 12 13  1  0  0  0  0
 12 14  1  0  0  0  0
 12 27  1  0  0  0  0
 13 28  1  0  0  0  0
 13 29  1  0  0  0  0
 13 30  1  0  0  0  0
 14 18  1  0  0  0  0
 14 15  1  0  0  0  0
 14 31  1  0  0  0  0
 15 16  1  0  0  0  0
 15 32  1  0  0  0  0
 15 33  1  0  0  0  0
 16 17  1  0  0  0  0
 16 34  1  0  0  0  0
 16 35  1  0  0  0  0
 17 18  1  0  0  0  0
 17 36  1  0  0  0  0
 17 37  1  0  0  0  0
M  END
> <s_m_source_file>
AV-unprocessed.smi

> <i_m_source_file_index>
977

> <i_lp_mmshare_version>
43012

> <i_f3d_flags>
0

> <s_epik_input>
W0NIM11jMW5vYyhbQ0gzXSljMVtOSF1DKD1PKVtOSF1bQ0BIXShbQ0gzXSlbQ0BASF0yW0NIMl1bQ0gyXVtDSDJdTzI=

> <s_epik_cmdline>
J2VwaWtfcHl0aG9uJywgJy1waCcsICc3LjAnLCAnLXRuJywgJzgnLCAnLW1hJywgJzIwMCcsICctbWV0YWxfYmluZGluZycsICctaW1hZScsICc8aW5maWxlLm1hZT4nLCAnLW9tYWUnLCAnPG91dGZpbGUubWFlPic=

> <r_lp_tautomer_probability>
1

> <r_epik_Ionization_Penalty>
3.41601e-05

> <r_epik_Ionization_Penalty_Charging>
0

> <r_epik_Ionization_Penalty_Neutral>
3.41601e-05

> <r_epik_State_Penalty>
-0

> <r_epik_Charging_Adjusted_Penalty>
0

> <i_epik_Tot_Q>
0

> <i_epik_Tot_abs_Q>
0

> <r_epik_Metal_State_Penalty>
-0

> <b_epik_Metal_Only>
0

> <s_lp_Force_Field>
OPLS_2005

> <r_lp_Energy>
19.7512

> <b_lp_Chiralities_Consistent>
1

> <s_lp_Variant>
AV-unprocessed.smi:977-3

> <Gold.Version>
5.8.1

> <Gold.Id.Protein>
6NUR|6NUR_protein|mol2

> <Gold.PLP.Fitness>
38.9155

> <Gold.PLP.PLP>
-31.2317

> <Gold.PLP.part.hbond>
-5.0019

> <Gold.PLP.part.metal>
0.0000

> <Gold.PLP.part.buried>
-3.0010

> <Gold.PLP.part.nonpolar>
-24.2409

> <Gold.PLP.part.repulsive>
0.6473

> <Gold.PLP.ligand.clash>
0.0000

> <Gold.PLP.ligand.torsion>
0.4107

> <Gold.PLP.Chemscore.Hbond>
2.7500

> <Gold.PLP.Chemscore.CHOScore>
0.0000

> <Gold.PLP.Chemscore.Metal>
0.0000

> <Gold.Chemscore.Hbonds>
donor molecule, donor type, donor heavy atom, donor atom, acceptor molecule, acceptor atom, score
      L1  H     8    25       P1  7948  1.00
      L1  H    11    26       P1  7948  1.00
      P1  H  7989  7998       L1     4  0.68

> <Gold.PLP.Chemscore.Internal.Correction>
0.2553

> <Gold.Rescore>
     Score         DG    S(hbond)    S(metal)    S(lipo)     H(rot)  DE(clash)    DE(int)     intcor
     16.25     -16.77       1.94        0.00      67.65       1.22       0.03       0.50       ----

> <Gold.Chemscore.Fitness>
16.2464

> <Gold.Chemscore.DG>
-16.7676

> <Gold.Chemscore.ZeroCoef>
-5.4800

> <Gold.Chemscore.Hbond>
1.9450

> <Gold.Chemscore.Metal>
0.0000

> <Gold.Chemscore.Lipo>
67.6459

> <Gold.Chemscore.Internal_Hbond>
0.0000

> <Gold.Chemscore.DEClash>
0.0256

> <Gold.Chemscore.DEInternal>
0.4956

> <Gold.Chemscore.Rot>
1.2200

> <Gold.Chemscore.Internal.Correction>
   9.000000E+99

> <Gold.Chemscore.Hbonds>
donor molecule, donor type, donor heavy atom, donor atom, acceptor molecule, acceptor atom, score
      L1  H     8    25       P1  7948  0.98
      L1  H    11    26       P1  7948  0.96
      P1  H  7989  7998       L1     4  0.02

> <Gold.Chemscore.Hbond.Weighted>
-6.4962

> <Gold.Chemscore.Metal.Weighted>
-0.0000

> <Gold.Chemscore.Lipo.Weighted>
-7.9146

> <Gold.Chemscore.Internal_Hbond.Weighted>
0.0000

> <Gold.Chemscore.DEClash.Weighted>
0.0256

> <Gold.Chemscore.DEInternal.Weighted>
0.4956

> <Gold.Chemscore.Rot.Weighted>
3.1232

> <Gold.Chemscore.Internal.Correction.Weighted>
   9.000000E+99

> <Gold.Protein.RotatedTorsions>
[ 6907 6896 6895 6894 ] final   45.82 input  -60.11 | X-H torsion
[ 7974 7965 7964 7962 ] final  102.21 input  175.53 | X-H torsion
[ 8008 7997 7996 7995 ] final -105.52 input   59.86 | X-H torsion
[ 10167 10162 10161 10158 ] final  118.43 input  -65.29 | X-H torsion
[ 10718 10713 10712 10709 ] final  -55.37 input   66.30 | X-H torsion
[ 10763 10752 10751 10750 ] final  -50.44 input  -60.55 | X-H torsion
[ 11005 11000 10999 10996 ] final -165.41 input  -57.11 | X-H torsion

> <Gold.Protein.ActiveResidues>
 VAL166  LYS551  ARG553  GLY616  TRP617  ASP618  TYR619  PRO620  LYS621  CYS622 
 ASP623  PHE694  ASN695  SER759  ASP760  ASP761  ALA762  ILE779  LEU786  VAL792 
 PHE793  MET794  SER795  GLU796  ALA797  LYS798  CYS799  TRP800  GLU811  SER814 

> <Gold.Protein.RotatedAtoms>
  152.2490  134.8151  160.0448 H   0  0  0  0  0  0  0  0  0  0  0  0  # atno 6907 bound_to 6896
  151.8839  133.3496  159.3783 H   0  0  0  0  0  0  0  0  0  0  0  0  # atno 6908 bound_to 6896
  150.7078  134.4918  159.5563 H   0  0  0  0  0  0  0  0  0  0  0  0  # atno 6909 bound_to 6896
  145.3622  139.2415  143.3500 H   0  0  0  0  0  0  0  0  0  0  0  0  # atno 7974 bound_to 7965
  154.9011  140.0413  157.1894 H   0  0  0  0  0  0  0  0  0  0  0  0  # atno 8008 bound_to 7997
  154.8443  140.2919  155.5618 H   0  0  0  0  0  0  0  0  0  0  0  0  # atno 8009 bound_to 7997
  156.2993  140.2477  156.3390 H   0  0  0  0  0  0  0  0  0  0  0  0  # atno 8010 bound_to 7997
  139.6112  144.7082  151.2841 H   0  0  0  0  0  0  0  0  0  0  0  0  # atno 10167 bound_to 10162
  156.1374  130.4156  150.0162 H   0  0  0  0  0  0  0  0  0  0  0  0  # atno 10718 bound_to 10713
  154.1103  135.6550  153.4884 H   0  0  0  0  0  0  0  0  0  0  0  0  # atno 10763 bound_to 10752
  153.0258  135.5246  154.7198 H   0  0  0  0  0  0  0  0  0  0  0  0  # atno 10764 bound_to 10752
  154.6376  135.2984  155.0112 H   0  0  0  0  0  0  0  0  0  0  0  0  # atno 10765 bound_to 10752
  140.5760  134.5189  157.5170 H   0  0  0  0  0  0  0  0  0  0  0  0  # atno 11005 bound_to 11000
  146.2922  140.4258  142.8735 LP  0  0  0  0  0  0  0  0  0  0  0  0  # atno 17320 bound_to 7965
  144.8638  140.7177  143.6090 LP  0  0  0  0  0  0  0  0  0  0  0  0  # atno 17321 bound_to 7965
  140.7320  143.6836  150.7981 LP  0  0  0  0  0  0  0  0  0  0  0  0  # atno 17342 bound_to 10162
  140.0430  143.5326  152.2709 LP  0  0  0  0  0  0  0  0  0  0  0  0  # atno 17343 bound_to 10162
  156.8058  130.9307  151.3645 LP  0  0  0  0  0  0  0  0  0  0  0  0  # atno 17370 bound_to 10713
  157.6544  130.8912  149.9699 LP  0  0  0  0  0  0  0  0  0  0  0  0  # atno 17371 bound_to 10713
  139.9339  134.7911  156.0855 LP  0  0  0  0  0  0  0  0  0  0  0  0  # atno 17394 bound_to 11000
  141.1026  133.6671  156.2789 LP  0  0  0  0  0  0  0  0  0  0  0  0  # atno 17395 bound_to 11000

$$$$
