AV-unprocessed.smi:1724|AV-procd|sdf|6949|dock6
  -GOLD-   22720 8163D 1   1.00000     0.00000
 Structure written by MMmdl.
 38 39  0  0  0  0  0  0  0  0  1 V2000
  145.8997  135.1170  155.1118 O   0  0  0  0  0  0  0  0  0  0  0  0
  146.9575  135.3010  154.5106 C   0  0  0  0  0  0  0  0  0  0  0  0
  148.1274  135.5181  155.1295 N   0  0  0  0  0  0  0  0  0  0  0  0
  148.3250  135.5860  156.5752 C   0  0  0  0  0  0  0  0  0  0  0  0
  149.4695  134.6704  157.0571 C   0  0  2  0  0  0  0  0  0  0  0  0
  150.5472  134.4324  155.9819 C   0  0  0  0  0  0  0  0  0  0  0  0
  151.5977  133.4397  156.4923 C   0  0  0  0  0  0  0  0  0  0  0  0
  150.9236  132.1571  157.0011 C   0  0  0  0  0  0  0  0  0  0  0  0
  149.9758  132.4821  158.0113 O   0  0  0  0  0  0  0  0  0  0  0  0
  148.9198  133.3110  157.5366 C   0  0  0  0  0  0  0  0  0  0  0  0
  147.1172  135.2939  153.1742 N   0  0  0  0  0  0  0  0  0  0  0  0
  146.1590  135.1198  152.1605 C   0  0  0  0  0  0  0  0  0  0  0  0
  145.8835  133.9417  151.5416 C   0  0  0  0  0  0  0  0  0  0  0  0
  144.8695  133.8322  150.5058 C   0  0  0  0  0  0  0  0  0  0  0  0
  144.6277  132.5284  149.7612 C   0  0  0  0  0  0  0  0  0  0  0  0
  143.7920  132.7049  148.7369 F   0  0  0  0  0  0  0  0  0  0  0  0
  145.7690  132.0271  149.2885 F   0  0  0  0  0  0  0  0  0  0  0  0
  144.0900  131.6299  150.5851 F   0  0  0  0  0  0  0  0  0  0  0  0
  144.2169  134.9639  150.1829 C   0  0  0  0  0  0  0  0  0  0  0  0
  144.4776  136.1739  150.8296 N   0  0  0  0  0  0  0  0  0  0  0  0
  145.4052  136.3325  151.8002 C   0  0  0  0  0  0  0  0  0  0  0  0
  145.5760  137.4344  152.3209 O   0  0  0  0  0  0  0  0  0  0  0  0
  143.9335  136.9746  150.5419 H   0  0  0  0  0  0  0  0  0  0  0  0
  148.9476  135.6505  154.5558 H   0  0  0  0  0  0  0  0  0  0  0  0
  148.5604  136.6221  156.8202 H   0  0  0  0  0  0  0  0  0  0  0  0
  147.4024  135.3534  157.1098 H   0  0  0  0  0  0  0  0  0  0  0  0
  149.9474  135.1520  157.9118 H   0  0  0  0  0  0  0  0  0  0  0  0
  150.0844  134.0420  155.0748 H   0  0  0  0  0  0  0  0  0  0  0  0
  151.0358  135.3670  155.7065 H   0  0  0  0  0  0  0  0  0  0  0  0
  152.3092  133.2037  155.7006 H   0  0  0  0  0  0  0  0  0  0  0  0
  152.1696  133.8955  157.3016 H   0  0  0  0  0  0  0  0  0  0  0  0
  150.4342  131.6230  156.1852 H   0  0  0  0  0  0  0  0  0  0  0  0
  151.6696  131.4824  157.4213 H   0  0  0  0  0  0  0  0  0  0  0  0
  148.2094  133.4587  158.3503 H   0  0  0  0  0  0  0  0  0  0  0  0
  148.3804  132.8027  156.7356 H   0  0  0  0  0  0  0  0  0  0  0  0
  148.0640  135.3971  152.8383 H   0  0  0  0  0  0  0  0  0  0  0  0
  146.3989  133.0356  151.8142 H   0  0  0  0  0  0  0  0  0  0  0  0
  143.4616  135.0321  149.4139 H   0  0  0  0  0  0  0  0  0  0  0  0
  1  2  2  0  0  0  0
  2  3  1  0  0  0  0
  2 11  1  0  0  0  0
  3  4  1  0  0  0  0
  3 24  1  0  0  0  0
  4  5  1  0  0  0  0
  4 25  1  0  0  0  0
  4 26  1  0  0  0  0
  5 10  1  0  0  0  0
  5  6  1  0  0  0  0
  5 27  1  0  0  0  0
  6  7  1  0  0  0  0
  6 28  1  0  0  0  0
  6 29  1  0  0  0  0
  7  8  1  0  0  0  0
  7 30  1  0  0  0  0
  7 31  1  0  0  0  0
  8  9  1  0  0  0  0
  8 32  1  0  0  0  0
  8 33  1  0  0  0  0
  9 10  1  0  0  0  0
 10 34  1  0  0  0  0
 10 35  1  0  0  0  0
 11 12  1  0  0  0  0
 11 36  1  0  0  0  0
 12 21  1  0  0  0  0
 12 13  2  0  0  0  0
 13 14  1  0  0  0  0
 13 37  1  0  0  0  0
 14 15  1  0  0  0  0
 14 19  2  0  0  0  0
 15 16  1  0  0  0  0
 15 17  1  0  0  0  0
 15 18  1  0  0  0  0
 19 20  1  0  0  0  0
 19 38  1  0  0  0  0
 20 23  1  0  0  0  0
 20 21  1  0  0  0  0
 21 22  2  0  0  0  0
M  END
> <s_m_source_file>
AV-unprocessed.smi

> <i_m_source_file_index>
1724

> <i_lp_mmshare_version>
43012

> <i_f3d_flags>
0

> <s_epik_input>
Tz1jMVtuSF1bY0hdYyhDKEYpKEYpRilbY0hdYzFbTkhdQyg9TylbTkhdW0NIMl1bQ0BASF0yW0NIMl1bQ0gyXVtDSDJdT1tDSDJdMg==

> <s_epik_cmdline>
J2VwaWtfcHl0aG9uJywgJy1waCcsICc3LjAnLCAnLXRuJywgJzgnLCAnLW1hJywgJzIwMCcsICctbWV0YWxfYmluZGluZycsICctaW1hZScsICc8aW5maWxlLm1hZT4nLCAnLW9tYWUnLCAnPG91dGZpbGUubWFlPic=

> <r_lp_tautomer_probability>
1

> <r_epik_Ionization_Penalty>
0.00384958

> <r_epik_Ionization_Penalty_Charging>
0.00382926

> <r_epik_Ionization_Penalty_Neutral>
2.03186e-05

> <r_epik_State_Penalty>
-0

> <r_epik_Charging_Adjusted_Penalty>
0.00382926

> <i_epik_Tot_Q>
0

> <i_epik_Tot_abs_Q>
0

> <r_epik_Metal_State_Penalty>
0.371494

> <b_epik_Metal_Only>
0

> <s_lp_Force_Field>
OPLS_2005

> <r_lp_Energy>
21.9541

> <b_lp_Chiralities_Consistent>
1

> <s_lp_Variant>
AV-unprocessed.smi:1724-1

> <Gold.Version>
5.8.1

> <Gold.Id.Protein>
6NUR|6NUR_protein|mol2

> <Gold.PLP.Fitness>
41.3672

> <Gold.PLP.PLP>
-33.7325

> <Gold.PLP.part.hbond>
-2.6566

> <Gold.PLP.part.metal>
0.0000

> <Gold.PLP.part.buried>
-3.3216

> <Gold.PLP.part.nonpolar>
-27.3712

> <Gold.PLP.part.repulsive>
0.3251

> <Gold.PLP.ligand.clash>
1.2411

> <Gold.PLP.ligand.torsion>
1.3810

> <Gold.PLP.Chemscore.Hbond>
2.8800

> <Gold.PLP.Chemscore.CHOScore>
0.9841

> <Gold.PLP.Chemscore.Metal>
0.0000

> <Gold.Chemscore.Hbonds>
donor molecule, donor type, donor heavy atom, donor atom, acceptor molecule, acceptor atom, score
      L1  H    11    36       P1  7948  0.88
      L1  H    20    23       P1 10171  0.99
      P1  H  6896  6909       L1     9  1.00
      L1  C    19    38       P1 10186  0.99

> <Gold.PLP.Chemscore.Internal.Correction>
0.0455

> <Gold.Rescore>
     Score         DG    S(hbond)    S(metal)    S(lipo)     H(rot)  DE(clash)    DE(int)     intcor
     14.93     -16.67       2.43        0.00      55.36       1.33       0.21       1.53       ----

> <Gold.Chemscore.Fitness>
14.9281

> <Gold.Chemscore.DG>
-16.6703

> <Gold.Chemscore.ZeroCoef>
-5.4800

> <Gold.Chemscore.Hbond>
2.4339

> <Gold.Chemscore.Metal>
0.0000

> <Gold.Chemscore.Lipo>
55.3604

> <Gold.Chemscore.Internal_Hbond>
0.0000

> <Gold.Chemscore.DEClash>
0.2078

> <Gold.Chemscore.DEInternal>
1.5344

> <Gold.Chemscore.Rot>
1.3344

> <Gold.Chemscore.Internal.Correction>
   9.000000E+99

> <Gold.Chemscore.Hbonds>
donor molecule, donor type, donor heavy atom, donor atom, acceptor molecule, acceptor atom, score
      L1  H    11    36       P1  7948  0.82
      L1  H    20    23       P1 10171  0.94
      P1  H  6896  6909       L1     9  0.23

> <Gold.Chemscore.Hbond.Weighted>
-8.1291

> <Gold.Chemscore.Metal.Weighted>
-0.0000

> <Gold.Chemscore.Lipo.Weighted>
-6.4772

> <Gold.Chemscore.Internal_Hbond.Weighted>
0.0000

> <Gold.Chemscore.DEClash.Weighted>
0.2078

> <Gold.Chemscore.DEInternal.Weighted>
1.5344

> <Gold.Chemscore.Rot.Weighted>
3.4160

> <Gold.Chemscore.Internal.Correction.Weighted>
   9.000000E+99

> <Gold.Protein.RotatedTorsions>
[ 6907 6896 6895 6894 ] final  -22.03 input  -60.11 | X-H torsion
[ 7974 7965 7964 7962 ] final  -12.20 input  175.53 | X-H torsion
[ 8008 7997 7996 7995 ] final   40.50 input   59.86 | X-H torsion
[ 10167 10162 10161 10158 ] final  165.70 input  -65.29 | X-H torsion
[ 10718 10713 10712 10709 ] final  122.82 input   66.30 | X-H torsion
[ 10763 10752 10751 10750 ] final -156.18 input  -60.55 | X-H torsion
[ 11005 11000 10999 10996 ] final  -99.44 input  -57.11 | X-H torsion

> <Gold.Protein.ActiveResidues>
 VAL166  LYS551  ARG553  GLY616  TRP617  ASP618  TYR619  PRO620  LYS621  CYS622 
 ASP623  PHE694  ASN695  SER759  ASP760  ASP761  ALA762  ILE779  LEU786  VAL792 
 PHE793  MET794  SER795  GLU796  ALA797  LYS798  CYS799  TRP800  GLU811  SER814 

> <Gold.Protein.RotatedAtoms>
  151.2246  135.0531  159.8963 H   0  0  0  0  0  0  0  0  0  0  0  0  # atno 6907 bound_to 6896
  152.5412  134.0603  159.8159 H   0  0  0  0  0  0  0  0  0  0  0  0  # atno 6908 bound_to 6896
  151.0774  133.5369  159.2654 H   0  0  0  0  0  0  0  0  0  0  0  0  # atno 6909 bound_to 6896
  146.2160  140.3022  142.8376 H   0  0  0  0  0  0  0  0  0  0  0  0  # atno 7974 bound_to 7965
  155.2542  140.3354  155.4279 H   0  0  0  0  0  0  0  0  0  0  0  0  # atno 8008 bound_to 7997
  156.2202  140.1806  156.7537 H   0  0  0  0  0  0  0  0  0  0  0  0  # atno 8009 bound_to 7997
  154.5814  140.0653  156.9095 H   0  0  0  0  0  0  0  0  0  0  0  0  # atno 8010 bound_to 7997
  139.4910  144.4105  151.9305 H   0  0  0  0  0  0  0  0  0  0  0  0  # atno 10167 bound_to 10162
  157.5713  131.1083  150.8361 H   0  0  0  0  0  0  0  0  0  0  0  0  # atno 10718 bound_to 10713
  154.7732  135.3151  154.8147 H   0  0  0  0  0  0  0  0  0  0  0  0  # atno 10763 bound_to 10752
  153.8877  135.6828  153.4767 H   0  0  0  0  0  0  0  0  0  0  0  0  # atno 10764 bound_to 10752
  153.1350  135.4764  154.9343 H   0  0  0  0  0  0  0  0  0  0  0  0  # atno 10765 bound_to 10752
  141.1308  133.8321  157.0971 H   0  0  0  0  0  0  0  0  0  0  0  0  # atno 11005 bound_to 11000
  144.9049  140.7687  143.5844 LP  0  0  0  0  0  0  0  0  0  0  0  0  # atno 17320 bound_to 7965
  145.2950  139.1870  143.4720 LP  0  0  0  0  0  0  0  0  0  0  0  0  # atno 17321 bound_to 7965
  140.3546  144.3047  150.5943 LP  0  0  0  0  0  0  0  0  0  0  0  0  # atno 17342 bound_to 10162
  140.5455  143.2215  151.8014 LP  0  0  0  0  0  0  0  0  0  0  0  0  # atno 17343 bound_to 10162
  156.8832  130.5187  149.5290 LP  0  0  0  0  0  0  0  0  0  0  0  0  # atno 17370 bound_to 10713
  156.0758  130.5781  150.9471 LP  0  0  0  0  0  0  0  0  0  0  0  0  # atno 17371 bound_to 10713
  140.0356  134.9880  157.0865 LP  0  0  0  0  0  0  0  0  0  0  0  0  # atno 17394 bound_to 11000
  140.4216  134.1875  155.7164 LP  0  0  0  0  0  0  0  0  0  0  0  0  # atno 17395 bound_to 11000

$$$$
