AV-unprocessed.smi:1201|AV-procd|sdf|5027|dock6
  -GOLD-   22720 4 53D 1   1.00000     0.00000
 Structure written by MMmdl.
 31 32  0  0  0  0  0  0  0  0  1 V2000
  150.6626  142.5777  157.4147 C   0  0  0  0  0  0  0  0  0  0  0  0
  151.2341  141.8752  156.3166 O   0  0  0  0  0  0  0  0  0  0  0  0
  150.4328  141.0041  155.6075 C   0  0  0  0  0  0  0  0  0  0  0  0
  149.0401  141.2170  155.6081 C   0  0  0  0  0  0  0  0  0  0  0  0
  148.2144  140.3326  154.8880 C   0  0  0  0  0  0  0  0  0  0  0  0
  148.8117  139.2620  154.1800 C   0  0  0  0  0  0  0  0  0  0  0  0
  148.0953  138.2903  153.4289 N   0  0  0  0  0  0  0  0  0  0  0  0
  146.7672  138.1062  153.3333 C   0  0  0  0  0  0  0  0  0  0  0  0
  145.9085  138.7914  153.8879 O   0  0  0  0  0  0  0  0  0  0  0  0
  146.4809  137.0727  152.5297 N   0  0  0  0  0  0  0  0  0  0  0  0
  145.1366  136.6037  152.2205 C   0  0  0  0  0  0  0  0  0  0  0  0
  145.0771  135.2700  151.5009 C   0  0  0  0  0  0  0  0  0  0  0  0
  144.4128  135.1636  150.1481 C   0  0  0  0  0  0  0  0  0  0  0  0
  143.7757  134.5154  151.3532 C   0  0  0  0  0  0  0  0  0  0  0  0
  150.2140  139.1312  154.2522 C   0  0  0  0  0  0  0  0  0  0  0  0
  151.0113  139.9749  154.9407 N   0  0  0  0  0  0  0  0  0  0  0  0
  151.4211  143.2147  157.8696 H   0  0  0  0  0  0  0  0  0  0  0  0
  150.3026  141.8927  158.1836 H   0  0  0  0  0  0  0  0  0  0  0  0
  149.8414  143.2196  157.0929 H   0  0  0  0  0  0  0  0  0  0  0  0
  148.6108  142.0427  156.1561 H   0  0  0  0  0  0  0  0  0  0  0  0
  147.1477  140.4898  154.9071 H   0  0  0  0  0  0  0  0  0  0  0  0
  148.6655  137.6830  152.8588 H   0  0  0  0  0  0  0  0  0  0  0  0
  147.2474  136.5683  152.1087 H   0  0  0  0  0  0  0  0  0  0  0  0
  144.5358  136.5588  153.1307 H   0  0  0  0  0  0  0  0  0  0  0  0
  144.6669  137.3527  151.5829 H   0  0  0  0  0  0  0  0  0  0  0  0
  145.9725  134.6644  151.6286 H   0  0  0  0  0  0  0  0  0  0  0  0
  143.9319  136.0532  149.7460 H   0  0  0  0  0  0  0  0  0  0  0  0
  144.8766  134.5109  149.4113 H   0  0  0  0  0  0  0  0  0  0  0  0
  143.8155  133.4304  151.4221 H   0  0  0  0  0  0  0  0  0  0  0  0
  142.8736  134.9747  151.7525 H   0  0  0  0  0  0  0  0  0  0  0  0
  150.7160  138.3244  153.7382 H   0  0  0  0  0  0  0  0  0  0  0  0
  1  2  1  0  0  0  0
  1 17  1  0  0  0  0
  1 18  1  0  0  0  0
  1 19  1  0  0  0  0
  2  3  1  0  0  0  0
  3 16  1  0  0  0  0
  3  4  2  0  0  0  0
  4  5  1  0  0  0  0
  4 20  1  0  0  0  0
  5  6  2  0  0  0  0
  5 21  1  0  0  0  0
  6  7  1  0  0  0  0
  6 15  1  0  0  0  0
  7  8  1  0  0  0  0
  7 22  1  0  0  0  0
  8  9  2  0  0  0  0
  8 10  1  0  0  0  0
 10 11  1  0  0  0  0
 10 23  1  0  0  0  0
 11 12  1  0  0  0  0
 11 24  1  0  0  0  0
 11 25  1  0  0  0  0
 12 14  1  0  0  0  0
 12 13  1  0  0  0  0
 12 26  1  0  0  0  0
 13 14  1  0  0  0  0
 13 27  1  0  0  0  0
 13 28  1  0  0  0  0
 14 29  1  0  0  0  0
 14 30  1  0  0  0  0
 15 16  2  0  0  0  0
 15 31  1  0  0  0  0
M  END
> <s_m_source_file>
AV-unprocessed.smi

> <i_m_source_file_index>
1201

> <i_lp_mmshare_version>
43012

> <i_f3d_flags>
0

> <s_epik_input>
W0NIM11PYzFbY0hdW2NIXWMoW2NIXW4xKVtOSF1DKD1PKVtOSF1bQ0gyXVtDSF0yW0NIMl1bQ0gyXTI=

> <s_epik_cmdline>
J2VwaWtfcHl0aG9uJywgJy1waCcsICc3LjAnLCAnLXRuJywgJzgnLCAnLW1hJywgJzIwMCcsICctbWV0YWxfYmluZGluZycsICctaW1hZScsICc8aW5maWxlLm1hZT4nLCAnLW9tYWUnLCAnPG91dGZpbGUubWFlPic=

> <r_lp_tautomer_probability>
1

> <r_epik_Ionization_Penalty>
9.92182e-05

> <r_epik_Ionization_Penalty_Charging>
0

> <r_epik_Ionization_Penalty_Neutral>
9.92182e-05

> <r_epik_State_Penalty>
-0

> <r_epik_Charging_Adjusted_Penalty>
0

> <i_epik_Tot_Q>
0

> <i_epik_Tot_abs_Q>
0

> <r_epik_Metal_State_Penalty>
-0

> <b_epik_Metal_Only>
0

> <s_lp_Force_Field>
OPLS_2005

> <r_lp_Energy>
14.9196

> <b_lp_Chiralities_Consistent>
1

> <s_lp_Variant>
AV-unprocessed.smi:1201-1

> <Gold.Version>
5.8.1

> <Gold.Id.Protein>
6NUR|6NUR_protein|mol2

> <Gold.PLP.Fitness>
32.3747

> <Gold.PLP.PLP>
-24.9504

> <Gold.PLP.part.hbond>
-3.2926

> <Gold.PLP.part.metal>
0.0000

> <Gold.PLP.part.buried>
-0.6844

> <Gold.PLP.part.nonpolar>
-20.7670

> <Gold.PLP.part.repulsive>
0.3382

> <Gold.PLP.ligand.clash>
0.0000

> <Gold.PLP.ligand.torsion>
0.8322

> <Gold.PLP.Chemscore.Hbond>
2.8500

> <Gold.PLP.Chemscore.CHOScore>
0.0000

> <Gold.PLP.Chemscore.Metal>
0.0000

> <Gold.Chemscore.Hbonds>
donor molecule, donor type, donor heavy atom, donor atom, acceptor molecule, acceptor atom, score
      L1  H     7    22       P1  7948  1.00
      L1  H    10    23       P1  7948  1.00
      P1  H  7989  7998       L1    16  0.76

> <Gold.PLP.Chemscore.Internal.Correction>
0.5387

> <Gold.Rescore>
     Score         DG    S(hbond)    S(metal)    S(lipo)     H(rot)  DE(clash)    DE(int)     intcor
     12.59     -14.76       2.02        0.00      53.46       1.45       0.24       1.93       ----

> <Gold.Chemscore.Fitness>
12.5881

> <Gold.Chemscore.DG>
-14.7605

> <Gold.Chemscore.ZeroCoef>
-5.4800

> <Gold.Chemscore.Hbond>
2.0169

> <Gold.Chemscore.Metal>
0.0000

> <Gold.Chemscore.Lipo>
53.4636

> <Gold.Chemscore.Internal_Hbond>
0.0000

> <Gold.Chemscore.DEClash>
0.2380

> <Gold.Chemscore.DEInternal>
1.9344

> <Gold.Chemscore.Rot>
1.4497

> <Gold.Chemscore.Internal.Correction>
   9.000000E+99

> <Gold.Chemscore.Hbonds>
donor molecule, donor type, donor heavy atom, donor atom, acceptor molecule, acceptor atom, score
      L1  H     7    22       P1  7948  0.98
      L1  H    10    23       P1  7948  0.98
      P1  H  7989  7998       L1    16  0.03

> <Gold.Chemscore.Hbond.Weighted>
-6.7364

> <Gold.Chemscore.Metal.Weighted>
-0.0000

> <Gold.Chemscore.Lipo.Weighted>
-6.2552

> <Gold.Chemscore.Internal_Hbond.Weighted>
0.0000

> <Gold.Chemscore.DEClash.Weighted>
0.2380

> <Gold.Chemscore.DEInternal.Weighted>
1.9344

> <Gold.Chemscore.Rot.Weighted>
3.7111

> <Gold.Chemscore.Internal.Correction.Weighted>
   9.000000E+99

> <Gold.Protein.RotatedTorsions>
[ 6907 6896 6895 6894 ] final  -45.42 input  -60.11 | X-H torsion
[ 7974 7965 7964 7962 ] final  -52.60 input  175.53 | X-H torsion
[ 8008 7997 7996 7995 ] final   94.58 input   59.86 | X-H torsion
[ 10167 10162 10161 10158 ] final  -33.74 input  -65.29 | X-H torsion
[ 10718 10713 10712 10709 ] final  -31.82 input   66.30 | X-H torsion
[ 10763 10752 10751 10750 ] final    0.19 input  -60.55 | X-H torsion
[ 11005 11000 10999 10996 ] final -158.26 input  -57.11 | X-H torsion

> <Gold.Protein.ActiveResidues>
 VAL166  LYS551  ARG553  GLY616  TRP617  ASP618  TYR619  PRO620  LYS621  CYS622 
 ASP623  PHE694  ASN695  SER759  ASP760  ASP761  ALA762  ILE779  LEU786  VAL792 
 PHE793  MET794  SER795  GLU796  ALA797  LYS798  CYS799  TRP800  GLU811  SER814 

> <Gold.Protein.RotatedAtoms>
  150.9221  134.8638  159.7495 H   0  0  0  0  0  0  0  0  0  0  0  0  # atno 6907 bound_to 6896
  152.4997  134.4203  159.9488 H   0  0  0  0  0  0  0  0  0  0  0  0  # atno 6908 bound_to 6896
  151.4236  133.3651  159.2794 H   0  0  0  0  0  0  0  0  0  0  0  0  # atno 6909 bound_to 6896
  145.9062  140.7953  142.9718 H   0  0  0  0  0  0  0  0  0  0  0  0  # atno 7974 bound_to 7965
  156.0595  140.3298  155.7444 H   0  0  0  0  0  0  0  0  0  0  0  0  # atno 8008 bound_to 7997
  155.5477  140.0607  157.2874 H   0  0  0  0  0  0  0  0  0  0  0  0  # atno 8009 bound_to 7997
  154.4474  140.1899  156.0643 H   0  0  0  0  0  0  0  0  0  0  0  0  # atno 8010 bound_to 7997
  140.7199  143.3598  151.1985 H   0  0  0  0  0  0  0  0  0  0  0  0  # atno 10167 bound_to 10162
  156.3825  130.4358  149.7458 H   0  0  0  0  0  0  0  0  0  0  0  0  # atno 10718 bound_to 10713
  153.3239  135.6971  153.7007 H   0  0  0  0  0  0  0  0  0  0  0  0  # atno 10763 bound_to 10752
  153.5836  135.3493  155.2885 H   0  0  0  0  0  0  0  0  0  0  0  0  # atno 10764 bound_to 10752
  154.8603  135.4301  154.2410 H   0  0  0  0  0  0  0  0  0  0  0  0  # atno 10765 bound_to 10752
  140.6556  134.4404  157.5235 H   0  0  0  0  0  0  0  0  0  0  0  0  # atno 11005 bound_to 11000
  144.6739  140.1754  143.7410 LP  0  0  0  0  0  0  0  0  0  0  0  0  # atno 17320 bound_to 7965
  145.8729  139.2282  143.1650 LP  0  0  0  0  0  0  0  0  0  0  0  0  # atno 17321 bound_to 7965
  139.7148  143.9318  152.2962 LP  0  0  0  0  0  0  0  0  0  0  0  0  # atno 17342 bound_to 10162
  139.9055  144.6887  150.8618 LP  0  0  0  0  0  0  0  0  0  0  0  0  # atno 17343 bound_to 10162
  156.4542  130.7921  151.2942 LP  0  0  0  0  0  0  0  0  0  0  0  0  # atno 17370 bound_to 10713
  157.7493  131.0086  150.3234 LP  0  0  0  0  0  0  0  0  0  0  0  0  # atno 17371 bound_to 10713
  139.9031  134.8511  156.1816 LP  0  0  0  0  0  0  0  0  0  0  0  0  # atno 17394 bound_to 11000
  141.0504  133.6891  156.1761 LP  0  0  0  0  0  0  0  0  0  0  0  0  # atno 17395 bound_to 11000

$$$$
