AV-unprocessed.smi:709|AV-procd|sdf|3461|dock3
  -GOLD-   22720 0453D 1   1.00000     0.00000
 Structure written by MMmdl.
 48 50  0  0  0  0  0  0  0  0  1 V2000
  153.2902  138.6868  154.4263 C   0  0  0  0  0  0  0  0  0  0  0  0
  152.3374  139.3121  155.4474 C   0  0  0  0  0  0  0  0  0  0  0  0
  151.2832  139.9581  154.7538 O   0  0  0  0  0  0  0  0  0  0  0  0
  150.2308  139.0739  154.4026 C   0  0  1  0  0  0  0  0  0  0  0  0
  149.7241  138.1943  155.5504 C   0  0  0  0  0  0  0  0  0  0  0  0
  148.3047  138.4539  155.0320 C   0  0  2  0  0  0  0  0  0  0  0  0
  147.8946  137.4129  154.0889 N   0  0  0  0  0  0  0  0  0  0  0  0
  146.6655  136.8832  154.0259 C   0  0  0  0  0  0  0  0  0  0  0  0
  145.7451  137.2311  154.7648 O   0  0  0  0  0  0  0  0  0  0  0  0
  146.5972  135.9550  153.0538 N   0  0  0  0  0  0  0  0  0  0  0  0
  145.5169  135.1548  152.6406 C   0  0  0  0  0  0  0  0  0  0  0  0
  144.2067  135.4519  152.8350 C   0  0  0  0  0  0  0  0  0  0  0  0
  143.1679  134.5610  152.3764 C   0  0  0  0  0  0  0  0  0  0  0  0
  143.5267  133.4275  151.7583 C   0  0  0  0  0  0  0  0  0  0  0  0
  144.8761  133.0966  151.5509 N   0  0  0  0  0  0  0  0  0  0  0  0
  145.1678  131.8336  150.8677 C   0  0  0  0  0  0  0  0  0  0  0  0
  145.9009  133.9031  151.9581 C   0  0  0  0  0  0  0  0  0  0  0  0
  147.0770  133.5880  151.7591 O   0  0  0  0  0  0  0  0  0  0  0  0
  148.8421  139.7506  154.3607 C   0  0  0  0  0  0  0  0  0  0  0  0
  148.6356  141.0282  155.1785 C   0  0  0  0  0  0  0  0  0  0  0  0
  147.3193  141.6492  154.7009 C   0  0  0  0  0  0  0  0  0  0  0  0
  147.0962  141.1055  153.2857 C   0  0  0  0  0  0  0  0  0  0  0  0
  148.2944  140.1956  153.0038 C   0  0  0  0  0  0  0  0  0  0  0  0
  154.1143  138.1757  154.9246 H   0  0  0  0  0  0  0  0  0  0  0  0
  153.7149  139.4473  153.7708 H   0  0  0  0  0  0  0  0  0  0  0  0
  152.7719  137.9577  153.8031 H   0  0  0  0  0  0  0  0  0  0  0  0
  151.9370  138.5383  156.1040 H   0  0  0  0  0  0  0  0  0  0  0  0
  152.8769  140.0270  156.0697 H   0  0  0  0  0  0  0  0  0  0  0  0
  150.4333  138.5053  153.4919 H   0  0  0  0  0  0  0  0  0  0  0  0
  150.0564  137.1562  155.5116 H   0  0  0  0  0  0  0  0  0  0  0  0
  149.9010  138.6346  156.5331 H   0  0  0  0  0  0  0  0  0  0  0  0
  147.5885  138.6339  155.8358 H   0  0  0  0  0  0  0  0  0  0  0  0
  148.5949  137.0769  153.4441 H   0  0  0  0  0  0  0  0  0  0  0  0
  147.4434  135.8102  152.5224 H   0  0  0  0  0  0  0  0  0  0  0  0
  143.8887  136.3486  153.3396 H   0  0  0  0  0  0  0  0  0  0  0  0
  142.1263  134.8023  152.5285 H   0  0  0  0  0  0  0  0  0  0  0  0
  142.8091  132.7102  151.3873 H   0  0  0  0  0  0  0  0  0  0  0  0
  145.7140  132.0172  149.9415 H   0  0  0  0  0  0  0  0  0  0  0  0
  144.2670  131.2763  150.6090 H   0  0  0  0  0  0  0  0  0  0  0  0
  145.7779  131.1870  151.5001 H   0  0  0  0  0  0  0  0  0  0  0  0
  148.6210  140.8446  156.2533 H   0  0  0  0  0  0  0  0  0  0  0  0
  149.4471  141.7327  154.9920 H   0  0  0  0  0  0  0  0  0  0  0  0
  146.4987  141.3384  155.3489 H   0  0  0  0  0  0  0  0  0  0  0  0
  147.3609  142.7386  154.7214 H   0  0  0  0  0  0  0  0  0  0  0  0
  146.1702  140.5307  153.2521 H   0  0  0  0  0  0  0  0  0  0  0  0
  147.0162  141.9028  152.5461 H   0  0  0  0  0  0  0  0  0  0  0  0
  149.0581  140.7671  152.4745 H   0  0  0  0  0  0  0  0  0  0  0  0
  148.0251  139.3705  152.3457 H   0  0  0  0  0  0  0  0  0  0  0  0
  1  2  1  0  0  0  0
  1 24  1  0  0  0  0
  1 25  1  0  0  0  0
  1 26  1  0  0  0  0
  2  3  1  0  0  0  0
  2 27  1  0  0  0  0
  2 28  1  0  0  0  0
  3  4  1  0  0  0  0
  4 19  1  0  0  0  0
  4  5  1  0  0  0  0
  4 29  1  0  0  0  0
  5  6  1  0  0  0  0
  5 30  1  0  0  0  0
  5 31  1  0  0  0  0
  6  7  1  0  0  0  0
  6 19  1  0  0  0  0
  6 32  1  0  0  0  0
  7  8  1  0  0  0  0
  7 33  1  0  0  0  0
  8  9  2  0  0  0  0
  8 10  1  0  0  0  0
 10 11  1  0  0  0  0
 10 34  1  0  0  0  0
 11 17  1  0  0  0  0
 11 12  2  0  0  0  0
 12 13  1  0  0  0  0
 12 35  1  0  0  0  0
 13 14  2  0  0  0  0
 13 36  1  0  0  0  0
 14 15  1  0  0  0  0
 14 37  1  0  0  0  0
 15 16  1  0  0  0  0
 15 17  1  0  0  0  0
 16 38  1  0  0  0  0
 16 39  1  0  0  0  0
 16 40  1  0  0  0  0
 17 18  2  0  0  0  0
 19 23  1  0  0  0  0
 19 20  1  0  0  0  0
 20 21  1  0  0  0  0
 20 41  1  0  0  0  0
 20 42  1  0  0  0  0
 21 22  1  0  0  0  0
 21 43  1  0  0  0  0
 21 44  1  0  0  0  0
 22 23  1  0  0  0  0
 22 45  1  0  0  0  0
 22 46  1  0  0  0  0
 23 47  1  0  0  0  0
 23 48  1  0  0  0  0
M  END
> <s_m_source_file>
AV-unprocessed.smi

> <i_m_source_file_index>
709

> <i_lp_mmshare_version>
43012

> <i_f3d_flags>
0

> <s_epik_input>
W0NIMl0xW0NIMl1bQ0gyXVtDSDJdQzEyW0NASF0oT1tDSDJdW0NIM10pW0NIMl1bQ0BIXTJbTkhdQyg9TylbTkhdYzNbY0hdW2NIXVtjSF1uKFtDSDNdKWMzPU8=

> <s_epik_cmdline>
J2VwaWtfcHl0aG9uJywgJy1waCcsICc3LjAnLCAnLXRuJywgJzgnLCAnLW1hJywgJzIwMCcsICctbWV0YWxfYmluZGluZycsICctaW1hZScsICc8aW5maWxlLm1hZT4nLCAnLW9tYWUnLCAnPG91dGZpbGUubWFlPic=

> <r_lp_tautomer_probability>
1

> <r_epik_Ionization_Penalty>
2.50859e-05

> <r_epik_Ionization_Penalty_Charging>
5.10493e-06

> <r_epik_Ionization_Penalty_Neutral>
1.9981e-05

> <r_epik_State_Penalty>
-0

> <r_epik_Charging_Adjusted_Penalty>
5.10493e-06

> <i_epik_Tot_Q>
0

> <i_epik_Tot_abs_Q>
0

> <r_epik_Metal_State_Penalty>
-0

> <b_epik_Metal_Only>
0

> <s_lp_Force_Field>
OPLS_2005

> <r_lp_Energy>
51.0091

> <b_lp_Chiralities_Consistent>
1

> <s_lp_Variant>
AV-unprocessed.smi:709-4

> <Gold.Version>
5.8.1

> <Gold.Id.Protein>
6NUR|6NUR_protein|mol2

> <Gold.PLP.Fitness>
43.8215

> <Gold.PLP.PLP>
-35.7842

> <Gold.PLP.part.hbond>
-3.0000

> <Gold.PLP.part.metal>
0.0000

> <Gold.PLP.part.buried>
-1.3319

> <Gold.PLP.part.nonpolar>
-31.1176

> <Gold.PLP.part.repulsive>
0.3455

> <Gold.PLP.ligand.clash>
0.0000

> <Gold.PLP.ligand.torsion>
0.6238

> <Gold.PLP.Chemscore.Hbond>
2.9760

> <Gold.PLP.Chemscore.CHOScore>
0.0000

> <Gold.PLP.Chemscore.Metal>
0.0000

> <Gold.Chemscore.Hbonds>
donor molecule, donor type, donor heavy atom, donor atom, acceptor molecule, acceptor atom, score
      L1  H     7    33       P1  7948  0.96
      L1  H    10    34       P1  7948  1.00
      P1  H  7989  7998       L1     3  1.00

> <Gold.PLP.Chemscore.Internal.Correction>
0.3569

> <Gold.Rescore>
     Score         DG    S(hbond)    S(metal)    S(lipo)     H(rot)  DE(clash)    DE(int)     intcor
     19.52     -22.20       2.80        0.00      92.67       1.36       1.95       0.73       ----

> <Gold.Chemscore.Fitness>
19.5183

> <Gold.Chemscore.DG>
-22.1980

> <Gold.Chemscore.ZeroCoef>
-5.4800

> <Gold.Chemscore.Hbond>
2.8015

> <Gold.Chemscore.Metal>
0.0000

> <Gold.Chemscore.Lipo>
92.6692

> <Gold.Chemscore.Internal_Hbond>
0.0000

> <Gold.Chemscore.DEClash>
1.9520

> <Gold.Chemscore.DEInternal>
0.7278

> <Gold.Chemscore.Rot>
1.3599

> <Gold.Chemscore.Internal.Correction>
   9.000000E+99

> <Gold.Chemscore.Hbonds>
donor molecule, donor type, donor heavy atom, donor atom, acceptor molecule, acceptor atom, score
      L1  H     7    33       P1  7948  0.92
      L1  H    10    34       P1  7948  0.99
      P1  H  7989  7998       L1     3  0.66

> <Gold.Chemscore.Hbond.Weighted>
-9.3570

> <Gold.Chemscore.Metal.Weighted>
-0.0000

> <Gold.Chemscore.Lipo.Weighted>
-10.8423

> <Gold.Chemscore.Internal_Hbond.Weighted>
0.0000

> <Gold.Chemscore.DEClash.Weighted>
1.9520

> <Gold.Chemscore.DEInternal.Weighted>
0.7278

> <Gold.Chemscore.Rot.Weighted>
3.4813

> <Gold.Chemscore.Internal.Correction.Weighted>
   9.000000E+99

> <Gold.Protein.RotatedTorsions>
[ 6907 6896 6895 6894 ] final  170.22 input  -60.11 | X-H torsion
[ 7974 7965 7964 7962 ] final  -98.22 input  175.53 | X-H torsion
[ 8008 7997 7996 7995 ] final    8.17 input   59.86 | X-H torsion
[ 10167 10162 10161 10158 ] final  -59.84 input  -65.29 | X-H torsion
[ 10718 10713 10712 10709 ] final  117.97 input   66.30 | X-H torsion
[ 10763 10752 10751 10750 ] final  169.17 input  -60.55 | X-H torsion
[ 11005 11000 10999 10996 ] final  128.94 input  -57.11 | X-H torsion

> <Gold.Protein.ActiveResidues>
 VAL166  LYS551  ARG553  GLY616  TRP617  ASP618  TYR619  PRO620  LYS621  CYS622 
 ASP623  PHE694  ASN695  SER759  ASP760  ASP761  ALA762  ILE779  LEU786  VAL792 
 PHE793  MET794  SER795  GLU796  ALA797  LYS798  CYS799  TRP800  GLU811  SER814 

> <Gold.Protein.RotatedAtoms>
  151.8196  133.3393  159.3579 H   0  0  0  0  0  0  0  0  0  0  0  0  # atno 6907 bound_to 6896
  150.7299  134.5586  159.5840 H   0  0  0  0  0  0  0  0  0  0  0  0  # atno 6908 bound_to 6896
  152.3016  134.7606  160.0408 H   0  0  0  0  0  0  0  0  0  0  0  0  # atno 6909 bound_to 6896
  145.3235  140.9426  143.2702 H   0  0  0  0  0  0  0  0  0  0  0  0  # atno 7974 bound_to 7965
  154.7633  140.2788  155.6196 H   0  0  0  0  0  0  0  0  0  0  0  0  # atno 8008 bound_to 7997
  156.2920  140.2655  156.2344 H   0  0  0  0  0  0  0  0  0  0  0  0  # atno 8009 bound_to 7997
  154.9990  140.0373  157.2342 H   0  0  0  0  0  0  0  0  0  0  0  0  # atno 8010 bound_to 7997
  140.6109  143.2387  151.5711 H   0  0  0  0  0  0  0  0  0  0  0  0  # atno 10167 bound_to 10162
  157.6061  131.1043  150.7690 H   0  0  0  0  0  0  0  0  0  0  0  0  # atno 10718 bound_to 10713
  154.3792  135.2753  155.2221 H   0  0  0  0  0  0  0  0  0  0  0  0  # atno 10763 bound_to 10752
  154.4335  135.5971  153.6087 H   0  0  0  0  0  0  0  0  0  0  0  0  # atno 10764 bound_to 10752
  152.9835  135.6001  154.4033 H   0  0  0  0  0  0  0  0  0  0  0  0  # atno 10765 bound_to 10752
  139.9588  134.9607  156.9076 H   0  0  0  0  0  0  0  0  0  0  0  0  # atno 11005 bound_to 11000
  144.8921  139.4761  143.6673 LP  0  0  0  0  0  0  0  0  0  0  0  0  # atno 17320 bound_to 7965
  146.3073  139.7625  142.9046 LP  0  0  0  0  0  0  0  0  0  0  0  0  # atno 17321 bound_to 7965
  139.5361  144.2778  152.1253 LP  0  0  0  0  0  0  0  0  0  0  0  0  # atno 17342 bound_to 10162
  140.1977  144.4689  150.6447 LP  0  0  0  0  0  0  0  0  0  0  0  0  # atno 17343 bound_to 10162
  156.8078  130.4942  149.5360 LP  0  0  0  0  0  0  0  0  0  0  0  0  # atno 17370 bound_to 10713
  156.1148  130.6067  151.0104 LP  0  0  0  0  0  0  0  0  0  0  0  0  # atno 17371 bound_to 10713
  140.5547  134.0593  155.7380 LP  0  0  0  0  0  0  0  0  0  0  0  0  # atno 17394 bound_to 11000
  141.1263  133.9377  157.2628 LP  0  0  0  0  0  0  0  0  0  0  0  0  # atno 17395 bound_to 11000

$$$$
