AV-unprocessed.smi:389|AV-procd|sdf|2477|dock8
  -GOLD-   2262022413D 1   1.00000     0.00000
 Structure written by MMmdl.
 33 33  0  0  0  0  0  0  0  0  2 V2000
  151.7222  145.4742  160.1182 C   0  0  0  0  0  0  0  0  0  0  0  0
  152.5554  144.4046  159.3921 C   0  0  0  0  0  0  0  0  0  0  0  0
  152.3877  144.5381  157.8707 C   0  0  0  0  0  0  0  0  0  0  0  0
  152.2129  142.9742  159.8560 C   0  0  0  0  0  0  0  0  0  0  0  0
  153.2641  141.9192  159.4616 C   0  0  0  0  0  0  0  0  0  0  0  0
  152.7556  140.5630  159.6289 N   0  0  0  0  0  0  0  0  0  0  0  0
  153.4485  139.4425  159.3754 C   0  0  0  0  0  0  0  0  0  0  0  0
  154.6040  139.4475  158.9480 O   0  0  0  0  0  0  0  0  0  0  0  0
  152.7034  138.1227  159.6193 C   0  0  0  0  0  0  0  0  0  0  0  0
  153.3228  137.2909  160.6637 N   0  0  0  0  0  0  0  0  0  0  0  0
  153.3703  137.8108  161.9692 C   0  0  0  0  0  0  0  0  0  0  0  0
  153.9130  137.1201  162.9898 C   0  0  0  0  0  0  0  0  0  0  0  0
  154.4617  135.7981  162.7139 C   0  0  0  0  0  0  0  0  0  0  0  0
  154.9660  135.1553  163.6326 O   0  0  0  0  0  0  0  0  0  0  0  0
  154.3868  135.3348  161.4318 N   0  5  0  0  0  0  0  0  0  0  0  0
  153.8281  136.0472  160.4043 C   0  0  0  0  0  0  0  0  0  0  0  0
  153.7666  135.6083  159.2552 O   0  0  0  0  0  0  0  0  0  0  0  0
  150.6543  145.3154  159.9646 H   0  0  0  0  0  0  0  0  0  0  0  0
  151.9635  146.4730  159.7534 H   0  0  0  0  0  0  0  0  0  0  0  0
  151.9100  145.4730  161.1915 H   0  0  0  0  0  0  0  0  0  0  0  0
  153.6069  144.5887  159.6166 H   0  0  0  0  0  0  0  0  0  0  0  0
  151.3539  144.3669  157.5687 H   0  0  0  0  0  0  0  0  0  0  0  0
  153.0128  143.8192  157.3403 H   0  0  0  0  0  0  0  0  0  0  0  0
  152.6737  145.5333  157.5293 H   0  0  0  0  0  0  0  0  0  0  0  0
  152.0662  142.9626  160.9370 H   0  0  0  0  0  0  0  0  0  0  0  0
  151.2542  142.6886  159.4210 H   0  0  0  0  0  0  0  0  0  0  0  0
  153.5918  142.0692  158.4314 H   0  0  0  0  0  0  0  0  0  0  0  0
  154.1509  142.0128  160.0876 H   0  0  0  0  0  0  0  0  0  0  0  0
  151.8121  140.4678  159.9757 H   0  0  0  0  0  0  0  0  0  0  0  0
  151.6627  138.3324  159.8737 H   0  0  0  0  0  0  0  0  0  0  0  0
  152.6624  137.5765  158.6760 H   0  0  0  0  0  0  0  0  0  0  0  0
  152.9356  138.7923  162.0891 H   0  0  0  0  0  0  0  0  0  0  0  0
  153.9379  137.5322  163.9879 H   0  0  0  0  0  0  0  0  0  0  0  0
  1  2  1  0  0  0  0
  1 18  1  0  0  0  0
  1 19  1  0  0  0  0
  1 20  1  0  0  0  0
  2  3  1  0  0  0  0
  2  4  1  0  0  0  0
  2 21  1  0  0  0  0
  3 22  1  0  0  0  0
  3 23  1  0  0  0  0
  3 24  1  0  0  0  0
  4  5  1  0  0  0  0
  4 25  1  0  0  0  0
  4 26  1  0  0  0  0
  5  6  1  0  0  0  0
  5 27  1  0  0  0  0
  5 28  1  0  0  0  0
  6  7  1  0  0  0  0
  6 29  1  0  0  0  0
  7  8  2  0  0  0  0
  7  9  1  0  0  0  0
  9 10  1  0  0  0  0
  9 30  1  0  0  0  0
  9 31  1  0  0  0  0
 10 16  1  0  0  0  0
 10 11  1  0  0  0  0
 11 12  2  0  0  0  0
 11 32  1  0  0  0  0
 12 13  1  0  0  0  0
 12 33  1  0  0  0  0
 13 14  2  0  0  0  0
 13 15  1  0  0  0  0
 15 16  1  0  0  0  0
 16 17  2  0  0  0  0
M  CHG  1  15  -1
M  END
> <s_m_source_file>
AV-unprocessed.smi

> <i_m_source_file_index>
389

> <i_lp_mmshare_version>
43012

> <i_f3d_flags>
0

> <s_epik_input>
W0NIM11bQ0hdKFtDSDNdKVtDSDJdW0NIMl1bTkhdQyg9TylbQ0gyXW4xW2NIXVtjSF1jKD1PKVtuSF1jMT1P

> <s_epik_cmdline>
J2VwaWtfcHl0aG9uJywgJy1waCcsICc3LjAnLCAnLXRuJywgJzgnLCAnLW1hJywgJzIwMCcsICctbWV0YWxfYmluZGluZycsICctaW1hZScsICc8aW5maWxlLm1hZT4nLCAnLW9tYWUnLCAnPG91dGZpbGUubWFlPic=

> <r_lp_tautomer_probability>
0.999537

> <r_epik_Ionization_Penalty>
3.12283

> <r_epik_Ionization_Penalty_Charging>
2.83566e-08

> <r_epik_Ionization_Penalty_Neutral>
3.12283

> <r_epik_State_Penalty>
3.12192

> <r_epik_Charging_Adjusted_Penalty>
3.12192

> <i_epik_Tot_Q>
-1

> <i_epik_Tot_abs_Q>
1

> <r_epik_Metal_State_Penalty>
0.463748

> <b_epik_Metal_Only>
1

> <s_lp_Force_Field>
OPLS_2005

> <r_lp_Energy>
12.9702

> <b_lp_Chiralities_Consistent>
1

> <s_lp_Variant>
AV-unprocessed.smi:389-2

> <Gold.Version>
5.8.1

> <Gold.Id.Protein>
6NUR|6NUR_protein|mol2

> <Gold.PLP.Fitness>
42.1694

> <Gold.PLP.PLP>
-36.4836

> <Gold.PLP.part.hbond>
-2.0000

> <Gold.PLP.part.metal>
0.0000

> <Gold.PLP.part.buried>
-4.1885

> <Gold.PLP.part.nonpolar>
-30.0535

> <Gold.PLP.part.repulsive>
0.1593

> <Gold.PLP.ligand.clash>
0.0000

> <Gold.PLP.ligand.torsion>
0.1626

> <Gold.PLP.Chemscore.Hbond>
2.0000

> <Gold.PLP.Chemscore.CHOScore>
0.0000

> <Gold.PLP.Chemscore.Metal>
0.0000

> <Gold.Chemscore.Hbonds>
donor molecule, donor type, donor heavy atom, donor atom, acceptor molecule, acceptor atom, score
      P1  H  7997  8009       L1     8  1.00

> <Gold.PLP.Chemscore.Internal.Correction>
0.0110

> <Gold.Rescore>
     Score         DG    S(hbond)    S(metal)    S(lipo)     H(rot)  DE(clash)    DE(int)     intcor
     16.27     -16.36       2.00        0.00      83.75       2.18       0.02       0.07       ----

> <Gold.Chemscore.Fitness>
16.2686

> <Gold.Chemscore.DG>
-16.3580

> <Gold.Chemscore.ZeroCoef>
-5.4800

> <Gold.Chemscore.Hbond>
1.9965

> <Gold.Chemscore.Metal>
0.0000

> <Gold.Chemscore.Lipo>
83.7534

> <Gold.Chemscore.Internal_Hbond>
0.0000

> <Gold.Chemscore.DEClash>
0.0155

> <Gold.Chemscore.DEInternal>
0.0739

> <Gold.Chemscore.Rot>
2.1834

> <Gold.Chemscore.Internal.Correction>
   9.000000E+99

> <Gold.Chemscore.Hbonds>
donor molecule, donor type, donor heavy atom, donor atom, acceptor molecule, acceptor atom, score
      P1  H  7997  8009       L1     8  1.00

> <Gold.Chemscore.Hbond.Weighted>
-6.6684

> <Gold.Chemscore.Metal.Weighted>
-0.0000

> <Gold.Chemscore.Lipo.Weighted>
-9.7991

> <Gold.Chemscore.Internal_Hbond.Weighted>
0.0000

> <Gold.Chemscore.DEClash.Weighted>
0.0155

> <Gold.Chemscore.DEInternal.Weighted>
0.0739

> <Gold.Chemscore.Rot.Weighted>
5.5895

> <Gold.Chemscore.Internal.Correction.Weighted>
   9.000000E+99

> <Gold.Protein.RotatedTorsions>
[ 6907 6896 6895 6894 ] final  170.46 input  -60.11 | X-H torsion
[ 7974 7965 7964 7962 ] final   -3.87 input  175.53 | X-H torsion
[ 8008 7997 7996 7995 ] final  123.42 input   59.86 | X-H torsion
[ 10167 10162 10161 10158 ] final   77.08 input  -65.29 | X-H torsion
[ 10718 10713 10712 10709 ] final  -16.38 input   66.30 | X-H torsion
[ 10763 10752 10751 10750 ] final  -93.99 input  -60.55 | X-H torsion
[ 11005 11000 10999 10996 ] final  -90.09 input  -57.11 | X-H torsion

> <Gold.Protein.ActiveResidues>
 VAL166  LYS551  ARG553  GLY616  TRP617  ASP618  TYR619  PRO620  LYS621  CYS622 
 ASP623  PHE694  ASN695  SER759  ASP760  ASP761  ALA762  ILE779  LEU786  VAL792 
 PHE793  MET794  SER795  GLU796  ALA797  LYS798  CYS799  TRP800  GLU811  SER814 

> <Gold.Protein.RotatedAtoms>
  151.8157  133.3387  159.3568 H   0  0  0  0  0  0  0  0  0  0  0  0  # atno 6907 bound_to 6896
  150.7311  134.5621  159.5857 H   0  0  0  0  0  0  0  0  0  0  0  0  # atno 6908 bound_to 6896
  152.3042  134.7575  160.0402 H   0  0  0  0  0  0  0  0  0  0  0  0  # atno 6909 bound_to 6896
  146.2382  140.1786  142.8332 H   0  0  0  0  0  0  0  0  0  0  0  0  # atno 7974 bound_to 7965
  156.2765  140.2763  156.1625 H   0  0  0  0  0  0  0  0  0  0  0  0  # atno 8008 bound_to 7997
  155.0739  140.0387  157.2635 H   0  0  0  0  0  0  0  0  0  0  0  0  # atno 8009 bound_to 7997
  154.7018  140.2650  155.6718 H   0  0  0  0  0  0  0  0  0  0  0  0  # atno 8010 bound_to 7997
  139.9854  144.5796  150.7864 H   0  0  0  0  0  0  0  0  0  0  0  0  # atno 10167 bound_to 10162
  156.5884  130.4792  149.6290 H   0  0  0  0  0  0  0  0  0  0  0  0  # atno 10718 bound_to 10713
  154.7013  135.5174  153.8530 H   0  0  0  0  0  0  0  0  0  0  0  0  # atno 10763 bound_to 10752
  153.0706  135.6600  154.0266 H   0  0  0  0  0  0  0  0  0  0  0  0  # atno 10764 bound_to 10752
  154.0124  135.3001  155.3370 H   0  0  0  0  0  0  0  0  0  0  0  0  # atno 10765 bound_to 10752
  141.1572  133.7670  156.9687 H   0  0  0  0  0  0  0  0  0  0  0  0  # atno 11005 bound_to 11000
  144.9953  140.8584  143.5314 LP  0  0  0  0  0  0  0  0  0  0  0  0  # atno 17320 bound_to 7965
  145.1797  139.2358  143.5299 LP  0  0  0  0  0  0  0  0  0  0  0  0  # atno 17321 bound_to 7965
  140.7474  143.2906  151.3342 LP  0  0  0  0  0  0  0  0  0  0  0  0  # atno 17342 bound_to 10162
  139.6379  144.0596  152.2530 LP  0  0  0  0  0  0  0  0  0  0  0  0  # atno 17343 bound_to 10162
  156.2571  130.6940  151.1697 LP  0  0  0  0  0  0  0  0  0  0  0  0  # atno 17370 bound_to 10713
  157.7309  131.0612  150.5701 LP  0  0  0  0  0  0  0  0  0  0  0  0  # atno 17371 bound_to 10713
  140.1144  134.9457  157.2112 LP  0  0  0  0  0  0  0  0  0  0  0  0  # atno 17394 bound_to 11000
  140.3153  134.2978  155.7258 LP  0  0  0  0  0  0  0  0  0  0  0  0  # atno 17395 bound_to 11000

$$$$
