AV-unprocessed.smi:2825|AV-procd|sdf|10889|dock7
  -GOLD-   2272015333D 1   1.00000     0.00000
 Structure written by MMmdl.
 48 49  0  0  0  0  0  0  0  0  1 V2000
  143.8256  145.9153  153.8417 C   0  0  0  0  0  0  0  0  0  0  0  0
  143.9665  144.9264  155.0033 C   0  0  0  0  0  0  0  0  0  0  0  0
  144.8112  143.7000  154.6303 C   0  0  0  0  0  0  0  0  0  0  0  0
  145.1095  142.6053  156.0871 S   0  0  0  0  0  0  0  0  0  0  0  0
  145.8913  143.3476  157.0877 O   0  0  0  0  0  0  0  0  0  0  0  0
  143.8337  141.9775  156.4655 O   0  0  0  0  0  0  0  0  0  0  0  0
  146.1415  141.3737  155.4316 N   0  0  0  0  0  0  0  0  0  0  0  0
  145.5581  140.0741  155.0840 C   0  0  0  0  0  0  0  0  0  0  0  0
  147.3225  141.7626  154.6452 C   0  0  0  0  0  0  0  0  0  0  0  0
  148.4527  140.7241  154.7874 C   0  0  1  0  0  0  0  0  0  0  0  0
  148.4064  139.8535  153.6731 O   0  0  0  0  0  0  0  0  0  0  0  0
  149.8382  141.3944  154.8420 C   0  0  0  0  0  0  0  0  0  0  0  0
  150.6603  140.8808  155.9227 N   0  0  0  0  0  0  0  0  0  0  0  0
  151.0438  139.6033  156.1092 C   0  0  0  0  0  0  0  0  0  0  0  0
  151.8014  139.3439  157.1707 N   0  0  0  0  0  0  0  0  0  0  0  0
  151.9249  140.6004  157.7385 C   0  0  0  0  0  0  0  0  0  0  0  0
  152.6117  141.0178  158.8997 C   0  0  0  0  0  0  0  0  0  0  0  0
  152.6053  142.3738  159.2978 C   0  0  0  0  0  0  0  0  0  0  0  0
  153.3559  142.7784  160.5543 C   0  0  0  0  0  0  0  0  0  0  0  0
  151.9052  143.3370  158.5277 C   0  0  0  0  0  0  0  0  0  0  0  0
  151.8873  144.8004  158.9333 C   0  0  0  0  0  0  0  0  0  0  0  0
  151.2118  142.9367  157.3663 C   0  0  0  0  0  0  0  0  0  0  0  0
  151.2240  141.5843  156.9816 C   0  0  0  0  0  0  0  0  0  0  0  0
  143.2149  146.7702  154.1328 H   0  0  0  0  0  0  0  0  0  0  0  0
  143.3503  145.4449  152.9804 H   0  0  0  0  0  0  0  0  0  0  0  0
  144.7983  146.2930  153.5252 H   0  0  0  0  0  0  0  0  0  0  0  0
  144.4102  145.4376  155.8581 H   0  0  0  0  0  0  0  0  0  0  0  0
  142.9736  144.6031  155.3161 H   0  0  0  0  0  0  0  0  0  0  0  0
  144.3387  143.1155  153.8419 H   0  0  0  0  0  0  0  0  0  0  0  0
  145.7846  144.0197  154.2575 H   0  0  0  0  0  0  0  0  0  0  0  0
  146.3289  139.3030  155.0615 H   0  0  0  0  0  0  0  0  0  0  0  0
  145.0819  140.1257  154.1047 H   0  0  0  0  0  0  0  0  0  0  0  0
  144.8081  139.7803  155.8173 H   0  0  0  0  0  0  0  0  0  0  0  0
  147.0644  141.9086  153.5948 H   0  0  0  0  0  0  0  0  0  0  0  0
  147.6565  142.7360  155.0066 H   0  0  0  0  0  0  0  0  0  0  0  0
  148.3204  140.1309  155.6916 H   0  0  0  0  0  0  0  0  0  0  0  0
  148.9997  140.1777  153.0132 H   0  0  0  0  0  0  0  0  0  0  0  0
  150.3698  141.2589  153.8992 H   0  0  0  0  0  0  0  0  0  0  0  0
  149.7284  142.4703  154.9846 H   0  0  0  0  0  0  0  0  0  0  0  0
  150.7504  138.8202  155.4253 H   0  0  0  0  0  0  0  0  0  0  0  0
  153.1465  140.2835  159.4840 H   0  0  0  0  0  0  0  0  0  0  0  0
  154.1575  143.4765  160.3117 H   0  0  0  0  0  0  0  0  0  0  0  0
  153.8020  141.9144  161.0477 H   0  0  0  0  0  0  0  0  0  0  0  0
  152.6820  143.2575  161.2651 H   0  0  0  0  0  0  0  0  0  0  0  0
  151.3454  145.4079  158.2077 H   0  0  0  0  0  0  0  0  0  0  0  0
  152.9027  145.1913  159.0038 H   0  0  0  0  0  0  0  0  0  0  0  0
  151.4008  144.9211  159.9015 H   0  0  0  0  0  0  0  0  0  0  0  0
  150.6751  143.6600  156.7707 H   0  0  0  0  0  0  0  0  0  0  0  0
  1  2  1  0  0  0  0
  1 24  1  0  0  0  0
  1 25  1  0  0  0  0
  1 26  1  0  0  0  0
  2  3  1  0  0  0  0
  2 27  1  0  0  0  0
  2 28  1  0  0  0  0
  3  4  1  0  0  0  0
  3 29  1  0  0  0  0
  3 30  1  0  0  0  0
  4  5  2  0  0  0  0
  4  6  2  0  0  0  0
  4  7  1  0  0  0  0
  7  8  1  0  0  0  0
  7  9  1  0  0  0  0
  8 31  1  0  0  0  0
  8 32  1  0  0  0  0
  8 33  1  0  0  0  0
  9 10  1  0  0  0  0
  9 34  1  0  0  0  0
  9 35  1  0  0  0  0
 10 11  1  0  0  0  0
 10 12  1  0  0  0  0
 10 36  1  0  0  0  0
 11 37  1  0  0  0  0
 12 13  1  0  0  0  0
 12 38  1  0  0  0  0
 12 39  1  0  0  0  0
 13 23  1  0  0  0  0
 13 14  1  0  0  0  0
 14 15  2  0  0  0  0
 14 40  1  0  0  0  0
 15 16  1  0  0  0  0
 16 23  2  0  0  0  0
 16 17  1  0  0  0  0
 17 18  2  0  0  0  0
 17 41  1  0  0  0  0
 18 19  1  0  0  0  0
 18 20  1  0  0  0  0
 19 42  1  0  0  0  0
 19 43  1  0  0  0  0
 19 44  1  0  0  0  0
 20 21  1  0  0  0  0
 20 22  2  0  0  0  0
 21 45  1  0  0  0  0
 21 46  1  0  0  0  0
 21 47  1  0  0  0  0
 22 23  1  0  0  0  0
 22 48  1  0  0  0  0
M  END
> <s_m_source_file>
AV-unprocessed.smi

> <i_m_source_file_index>
2825

> <i_lp_mmshare_version>
43012

> <i_f3d_flags>
0

> <s_epik_input>
W0NIM11bQ0gyXVtDSDJdUyg9TykoPU8pTihbQ0gzXSlbQ0gyXVtDQEhdKFtPSF0pW0NIMl1uKFtjSF1uMSljKGMxMilbY0hdYyhbQ0gzXSljKFtjSF0yKVtDSDNd

> <s_epik_cmdline>
J2VwaWtfcHl0aG9uJywgJy1waCcsICc3LjAnLCAnLXRuJywgJzgnLCAnLW1hJywgJzIwMCcsICctbWV0YWxfYmluZGluZycsICctaW1hZScsICc8aW5maWxlLm1hZT4nLCAnLW9tYWUnLCAnPG91dGZpbGUubWFlPic=

> <r_epik_Ionization_Penalty>
0.104931

> <r_epik_Ionization_Penalty_Charging>
0

> <r_epik_Ionization_Penalty_Neutral>
0.104931

> <r_epik_State_Penalty>
0.0948201

> <r_epik_Charging_Adjusted_Penalty>
0.0948201

> <i_epik_Tot_Q>
0

> <i_epik_Tot_abs_Q>
0

> <r_epik_Metal_State_Penalty>
0.00010282

> <b_epik_Metal_Only>
0

> <s_lp_Force_Field>
OPLS_2005

> <r_lp_Energy>
7.6372

> <b_lp_Chiralities_Consistent>
1

> <s_lp_Variant>
AV-unprocessed.smi:2825-2

> <Gold.Version>
5.8.1

> <Gold.Id.Protein>
6NUR|6NUR_protein|mol2

> <Gold.PLP.Fitness>
45.1646

> <Gold.PLP.PLP>
-44.9728

> <Gold.PLP.part.hbond>
-1.0000

> <Gold.PLP.part.metal>
0.0000

> <Gold.PLP.part.buried>
-4.3054

> <Gold.PLP.part.nonpolar>
-40.2664

> <Gold.PLP.part.repulsive>
0.2208

> <Gold.PLP.ligand.clash>
0.0000

> <Gold.PLP.ligand.torsion>
2.5069

> <Gold.PLP.Chemscore.Hbond>
0.8960

> <Gold.PLP.Chemscore.CHOScore>
0.0000

> <Gold.PLP.Chemscore.Metal>
0.0000

> <Gold.Chemscore.Hbonds>
donor molecule, donor type, donor heavy atom, donor atom, acceptor molecule, acceptor atom, score
      L1  H    11    37       P1  7957  0.93

> <Gold.PLP.Chemscore.Internal.Correction>
2.5176

> <Gold.Rescore>
     Score         DG    S(hbond)    S(metal)    S(lipo)     H(rot)  DE(clash)    DE(int)     intcor
     13.53     -16.12       0.84        0.00     120.20       2.43       0.18       2.41       ----

> <Gold.Chemscore.Fitness>
13.5331

> <Gold.Chemscore.DG>
-16.1204

> <Gold.Chemscore.ZeroCoef>
-5.4800

> <Gold.Chemscore.Hbond>
0.8401

> <Gold.Chemscore.Metal>
0.0000

> <Gold.Chemscore.Lipo>
120.2003

> <Gold.Chemscore.Internal_Hbond>
0.0000

> <Gold.Chemscore.DEClash>
0.1777

> <Gold.Chemscore.DEInternal>
2.4097

> <Gold.Chemscore.Rot>
2.4332

> <Gold.Chemscore.Internal.Correction>
   9.000000E+99

> <Gold.Chemscore.Hbonds>
donor molecule, donor type, donor heavy atom, donor atom, acceptor molecule, acceptor atom, score
      L1  H    11    37       P1  7957  0.88

> <Gold.Chemscore.Hbond.Weighted>
-2.8060

> <Gold.Chemscore.Metal.Weighted>
-0.0000

> <Gold.Chemscore.Lipo.Weighted>
-14.0634

> <Gold.Chemscore.Internal_Hbond.Weighted>
0.0000

> <Gold.Chemscore.DEClash.Weighted>
0.1777

> <Gold.Chemscore.DEInternal.Weighted>
2.4097

> <Gold.Chemscore.Rot.Weighted>
6.2289

> <Gold.Chemscore.Internal.Correction.Weighted>
   9.000000E+99

> <Gold.Protein.RotatedTorsions>
[ 6907 6896 6895 6894 ] final -165.49 input  -60.11 | X-H torsion
[ 7974 7965 7964 7962 ] final  -53.32 input  175.53 | X-H torsion
[ 8008 7997 7996 7995 ] final   88.43 input   59.86 | X-H torsion
[ 10167 10162 10161 10158 ] final   81.69 input  -65.29 | X-H torsion
[ 10718 10713 10712 10709 ] final  177.61 input   66.30 | X-H torsion
[ 10763 10752 10751 10750 ] final   23.37 input  -60.55 | X-H torsion
[ 11005 11000 10999 10996 ] final  -30.58 input  -57.11 | X-H torsion

> <Gold.Protein.ActiveResidues>
 VAL166  LYS551  ARG553  GLY616  TRP617  ASP618  TYR619  PRO620  LYS621  CYS622 
 ASP623  PHE694  ASN695  SER759  ASP760  ASP761  ALA762  ILE779  LEU786  VAL792 
 PHE793  MET794  SER795  GLU796  ALA797  LYS798  CYS799  TRP800  GLU811  SER814 

> <Gold.Protein.RotatedAtoms>
  151.4284  133.3677  159.2765 H   0  0  0  0  0  0  0  0  0  0  0  0  # atno 6907 bound_to 6896
  150.9242  134.8661  159.7520 H   0  0  0  0  0  0  0  0  0  0  0  0  # atno 6908 bound_to 6896
  152.4997  134.4224  159.9537 H   0  0  0  0  0  0  0  0  0  0  0  0  # atno 6909 bound_to 6896
  145.8981  140.8016  142.9757 H   0  0  0  0  0  0  0  0  0  0  0  0  # atno 7974 bound_to 7965
  155.9877  140.3371  155.6723 H   0  0  0  0  0  0  0  0  0  0  0  0  # atno 8008 bound_to 7997
  155.6463  140.0701  157.2620 H   0  0  0  0  0  0  0  0  0  0  0  0  # atno 8009 bound_to 7997
  154.4210  140.1733  156.1615 H   0  0  0  0  0  0  0  0  0  0  0  0  # atno 8010 bound_to 7997
  139.9366  144.6117  150.8293 H   0  0  0  0  0  0  0  0  0  0  0  0  # atno 10167 bound_to 10162
  156.9028  130.9884  151.3033 H   0  0  0  0  0  0  0  0  0  0  0  0  # atno 10718 bound_to 10713
  153.0843  135.6628  153.9980 H   0  0  0  0  0  0  0  0  0  0  0  0  # atno 10763 bound_to 10752
  153.9594  135.2975  155.3436 H   0  0  0  0  0  0  0  0  0  0  0  0  # atno 10764 bound_to 10752
  154.7249  135.5148  153.8942 H   0  0  0  0  0  0  0  0  0  0  0  0  # atno 10765 bound_to 10752
  140.9395  133.7288  156.1054 H   0  0  0  0  0  0  0  0  0  0  0  0  # atno 11005 bound_to 11000
  144.6734  140.1634  143.7420 LP  0  0  0  0  0  0  0  0  0  0  0  0  # atno 17320 bound_to 7965
  145.8825  139.2331  143.1597 LP  0  0  0  0  0  0  0  0  0  0  0  0  # atno 17321 bound_to 7965
  140.7623  143.3194  151.2657 LP  0  0  0  0  0  0  0  0  0  0  0  0  # atno 17342 bound_to 10162
  139.6739  143.9972  152.2769 LP  0  0  0  0  0  0  0  0  0  0  0  0  # atno 17343 bound_to 10162
  157.6015  130.8516  149.8810 LP  0  0  0  0  0  0  0  0  0  0  0  0  # atno 17370 bound_to 10713
  156.0573  130.3706  150.1061 LP  0  0  0  0  0  0  0  0  0  0  0  0  # atno 17371 bound_to 10713
  140.7754  134.3786  157.5499 LP  0  0  0  0  0  0  0  0  0  0  0  0  # atno 17394 bound_to 11000
  139.8816  134.9048  156.2886 LP  0  0  0  0  0  0  0  0  0  0  0  0  # atno 17395 bound_to 11000

$$$$
