AV-unprocessed.smi:195|AV-procd|sdf|1526|dock4
  -GOLD-   2262019373D 1   1.00000     0.00000
 Structure written by MMmdl.
 45 48  0  0  0  0  0  0  0  0  1 V2000
  149.0032  134.9835  159.2630 N   0  0  0  0  0  0  0  0  0  0  0  0
  148.7250  135.6015  158.3253 C   0  0  0  0  0  0  0  0  0  0  0  0
  148.3698  136.3871  157.1330 C   0  0  0  0  0  0  0  0  0  0  0  0
  148.5807  135.6294  155.8189 C   0  0  0  0  0  0  0  0  0  0  0  0
  147.5062  134.7153  155.7525 O   0  0  0  0  0  0  0  0  0  0  0  0
  148.8048  136.4633  154.5536 C   0  0  0  0  0  0  0  0  0  0  0  0
  150.2307  136.1711  154.6776 N   0  0  0  0  0  0  0  0  0  0  0  0
  150.9936  137.2529  155.2200 C   0  0  0  0  0  0  0  0  0  0  0  0
  152.2839  137.0711  155.6124 N   0  0  0  0  0  0  0  0  0  0  0  0
  153.0039  138.0774  156.1164 C   0  0  0  0  0  0  0  0  0  0  0  0
  152.6422  139.3461  156.3072 N   0  0  0  0  0  0  0  0  0  0  0  0
  151.3589  139.5523  155.8986 C   0  0  0  0  0  0  0  0  0  0  0  0
  150.4802  138.5759  155.3483 C   0  0  0  0  0  0  0  0  0  0  0  0
  149.2577  139.1636  155.0432 N   0  0  0  0  0  0  0  0  0  0  0  0
  149.4030  140.4111  155.3994 C   0  0  0  0  0  0  0  0  0  0  0  0
  150.6337  140.7294  155.9259 N   0  0  0  0  0  0  0  0  0  0  0  0
  151.0697  142.0291  156.4054 C   0  0  0  0  0  0  0  0  0  0  0  0
  150.4595  142.3828  157.7763 C   0  0  2  0  0  0  0  0  0  0  0  0
  149.2540  143.0964  157.5759 O   0  0  0  0  0  0  0  0  0  0  0  0
  151.4077  143.2382  158.6375 C   0  0  1  0  0  0  0  0  0  0  0  0
  151.8084  144.5714  158.0010 C   0  0  0  0  0  0  0  0  0  0  0  0
  152.1401  145.4066  159.2156 C   0  0  0  0  0  0  0  0  0  0  0  0
  151.0630  144.9571  160.1965 C   0  0  0  0  0  0  0  0  0  0  0  0
  150.7772  143.6006  159.8654 O   0  0  0  0  0  0  0  0  0  0  0  0
  149.9626  135.0251  155.5471 C   0  0  0  0  0  0  0  0  0  0  0  0
  147.3341  136.7115  157.2392 H   0  0  0  0  0  0  0  0  0  0  0  0
  148.9767  137.2917  157.1620 H   0  0  0  0  0  0  0  0  0  0  0  0
  147.8358  133.9313  155.3402 H   0  0  0  0  0  0  0  0  0  0  0  0
  148.3757  136.0160  153.6561 H   0  0  0  0  0  0  0  0  0  0  0  0
  148.5255  137.5126  154.6569 H   0  0  0  0  0  0  0  0  0  0  0  0
  154.0145  137.8298  156.4066 H   0  0  0  0  0  0  0  0  0  0  0  0
  148.6099  141.1366  155.2910 H   0  0  0  0  0  0  0  0  0  0  0  0
  152.1585  142.0170  156.4662 H   0  0  0  0  0  0  0  0  0  0  0  0
  150.8084  142.7834  155.6618 H   0  0  0  0  0  0  0  0  0  0  0  0
  150.2207  141.4630  158.3123 H   0  0  0  0  0  0  0  0  0  0  0  0
  149.3389  143.6124  156.7886 H   0  0  0  0  0  0  0  0  0  0  0  0
  152.3094  142.6746  158.8834 H   0  0  0  0  0  0  0  0  0  0  0  0
  152.6438  144.4780  157.3066 H   0  0  0  0  0  0  0  0  0  0  0  0
  150.9665  145.0125  157.4653 H   0  0  0  0  0  0  0  0  0  0  0  0
  153.1291  145.1434  159.5933 H   0  0  0  0  0  0  0  0  0  0  0  0
  152.1205  146.4790  159.0207 H   0  0  0  0  0  0  0  0  0  0  0  0
  151.3773  145.0580  161.2357 H   0  0  0  0  0  0  0  0  0  0  0  0
  150.1543  145.5446  160.0586 H   0  0  0  0  0  0  0  0  0  0  0  0
  150.5948  134.9080  156.4268 H   0  0  0  0  0  0  0  0  0  0  0  0
  149.9157  134.0975  154.9746 H   0  0  0  0  0  0  0  0  0  0  0  0
  1  2  3  0  0  0  0
  2  3  1  0  0  0  0
  3  4  1  0  0  0  0
  3 26  1  0  0  0  0
  3 27  1  0  0  0  0
  4 25  1  0  0  0  0
  4  5  1  0  0  0  0
  4  6  1  0  0  0  0
  5 28  1  0  0  0  0
  6  7  1  0  0  0  0
  6 29  1  0  0  0  0
  6 30  1  0  0  0  0
  7  8  1  0  0  0  0
  7 25  1  0  0  0  0
  8 13  1  0  0  0  0
  8  9  2  0  0  0  0
  9 10  1  0  0  0  0
 10 11  2  0  0  0  0
 10 31  1  0  0  0  0
 11 12  1  0  0  0  0
 12 16  1  0  0  0  0
 12 13  2  0  0  0  0
 13 14  1  0  0  0  0
 14 15  2  0  0  0  0
 15 16  1  0  0  0  0
 15 32  1  0  0  0  0
 16 17  1  0  0  0  0
 17 18  1  0  0  0  0
 17 33  1  0  0  0  0
 17 34  1  0  0  0  0
 18 19  1  0  0  0  0
 18 20  1  0  0  0  0
 18 35  1  0  0  0  0
 19 36  1  0  0  0  0
 20 24  1  0  0  0  0
 20 21  1  0  0  0  0
 20 37  1  0  0  0  0
 21 22  1  0  0  0  0
 21 38  1  0  0  0  0
 21 39  1  0  0  0  0
 22 23  1  0  0  0  0
 22 40  1  0  0  0  0
 22 41  1  0  0  0  0
 23 24  1  0  0  0  0
 23 42  1  0  0  0  0
 23 43  1  0  0  0  0
 25 44  1  0  0  0  0
 25 45  1  0  0  0  0
M  END
> <s_m_source_file>
AV-unprocessed.smi

> <i_m_source_file_index>
195

> <i_lp_mmshare_version>
43012

> <i_f3d_flags>
0

> <s_epik_input>
TiNDW0NIMl1DMShbT0hdKVtDSDJdTihbQ0gyXTEpYyhuW2NIXW4yKWMoYzIzKW5bY0hdbjNbQ0gyXVtDQEhdKFtPSF0pW0NAQEhdNFtDSDJdW0NIMl1bQ0gyXU80

> <s_epik_cmdline>
J2VwaWtfcHl0aG9uJywgJy1waCcsICc3LjAnLCAnLXRuJywgJzgnLCAnLW1hJywgJzIwMCcsICctbWV0YWxfYmluZGluZycsICctaW1hZScsICc8aW5maWxlLm1hZT4nLCAnLW9tYWUnLCAnPG91dGZpbGUubWFlPic=

> <r_lp_tautomer_probability>
1

> <r_epik_Ionization_Penalty>
0.00307146

> <r_epik_Ionization_Penalty_Charging>
0

> <r_epik_Ionization_Penalty_Neutral>
0.00307146

> <r_epik_State_Penalty>
0.0020279

> <r_epik_Charging_Adjusted_Penalty>
0.0020279

> <i_epik_Tot_Q>
0

> <i_epik_Tot_abs_Q>
0

> <r_epik_Metal_State_Penalty>
-0

> <b_epik_Metal_Only>
0

> <s_lp_Force_Field>
OPLS_2005

> <r_lp_Energy>
44.1004

> <b_lp_Chiralities_Consistent>
1

> <s_lp_Variant>
AV-unprocessed.smi:195-3

> <Gold.Version>
5.8.1

> <Gold.Id.Protein>
6NUR|6NUR_protein|mol2

> <Gold.PLP.Fitness>
45.6101

> <Gold.PLP.PLP>
-35.4950

> <Gold.PLP.part.hbond>
-4.8923

> <Gold.PLP.part.metal>
0.0000

> <Gold.PLP.part.buried>
-3.2348

> <Gold.PLP.part.nonpolar>
-28.8013

> <Gold.PLP.part.repulsive>
0.9118

> <Gold.PLP.ligand.clash>
0.0000

> <Gold.PLP.ligand.torsion>
0.9538

> <Gold.PLP.Chemscore.Hbond>
3.8960

> <Gold.PLP.Chemscore.CHOScore>
0.0000

> <Gold.PLP.Chemscore.Metal>
0.0000

> <Gold.Chemscore.Hbonds>
donor molecule, donor type, donor heavy atom, donor atom, acceptor molecule, acceptor atom, score
      L1  H    19    36       P1  8028  1.00
      P1  H  6896  6907       L1     1  1.00
      P1  H  7997  8008       L1    11  0.95
      P1  H 10752 10763       L1     9  0.85

> <Gold.PLP.Chemscore.Internal.Correction>
0.3347

> <Gold.Rescore>
     Score         DG    S(hbond)    S(metal)    S(lipo)     H(rot)  DE(clash)    DE(int)     intcor
     12.71     -16.19       3.23        0.00      80.73       3.72       1.32       2.16       ----

> <Gold.Chemscore.Fitness>
12.7114

> <Gold.Chemscore.DG>
-16.1909

> <Gold.Chemscore.ZeroCoef>
-5.4800

> <Gold.Chemscore.Hbond>
3.2307

> <Gold.Chemscore.Metal>
0.0000

> <Gold.Chemscore.Lipo>
80.7339

> <Gold.Chemscore.Internal_Hbond>
0.0000

> <Gold.Chemscore.DEClash>
1.3223

> <Gold.Chemscore.DEInternal>
2.1572

> <Gold.Chemscore.Rot>
3.7210

> <Gold.Chemscore.Internal.Correction>
   9.000000E+99

> <Gold.Chemscore.Hbonds>
donor molecule, donor type, donor heavy atom, donor atom, acceptor molecule, acceptor atom, score
      L1  H    19    36       P1  8028  0.92
      P1  H  6896  6907       L1     1  0.92
      P1  H  7997  8008       L1    11  0.22
      P1  H 10752 10763       L1     9  0.69

> <Gold.Chemscore.Hbond.Weighted>
-10.7907

> <Gold.Chemscore.Metal.Weighted>
-0.0000

> <Gold.Chemscore.Lipo.Weighted>
-9.4459

> <Gold.Chemscore.Internal_Hbond.Weighted>
0.0000

> <Gold.Chemscore.DEClash.Weighted>
1.3223

> <Gold.Chemscore.DEInternal.Weighted>
2.1572

> <Gold.Chemscore.Rot.Weighted>
9.5256

> <Gold.Chemscore.Internal.Correction.Weighted>
   9.000000E+99

> <Gold.Protein.RotatedTorsions>
[ 6907 6896 6895 6894 ] final  -59.32 input  -60.11 | X-H torsion
[ 7974 7965 7964 7962 ] final   99.24 input  175.53 | X-H torsion
[ 8008 7997 7996 7995 ] final  -37.61 input   59.86 | X-H torsion
[ 10167 10162 10161 10158 ] final  -49.98 input  -65.29 | X-H torsion
[ 10718 10713 10712 10709 ] final  175.21 input   66.30 | X-H torsion
[ 10763 10752 10751 10750 ] final   74.25 input  -60.55 | X-H torsion
[ 11005 11000 10999 10996 ] final  -98.04 input  -57.11 | X-H torsion

> <Gold.Protein.ActiveResidues>
 VAL166  LYS551  ARG553  GLY616  TRP617  ASP618  TYR619  PRO620  LYS621  CYS622 
 ASP623  PHE694  ASN695  SER759  ASP760  ASP761  ALA762  ILE779  LEU786  VAL792 
 PHE793  MET794  SER795  GLU796  ALA797  LYS798  CYS799  TRP800  GLU811  SER814 

> <Gold.Protein.RotatedAtoms>
  150.7939  134.6984  159.6535 H   0  0  0  0  0  0  0  0  0  0  0  0  # atno 6907 bound_to 6896
  152.4049  134.6220  160.0063 H   0  0  0  0  0  0  0  0  0  0  0  0  # atno 6908 bound_to 6896
  151.6481  133.3285  159.3181 H   0  0  0  0  0  0  0  0  0  0  0  0  # atno 6909 bound_to 6896
  145.4015  139.2347  143.3297 H   0  0  0  0  0  0  0  0  0  0  0  0  # atno 7974 bound_to 7965
  154.4050  140.1600  156.2564 H   0  0  0  0  0  0  0  0  0  0  0  0  # atno 8008 bound_to 7997
  155.9074  140.3429  155.6050 H   0  0  0  0  0  0  0  0  0  0  0  0  # atno 8009 bound_to 7997
  155.7376  140.0788  157.2251 H   0  0  0  0  0  0  0  0  0  0  0  0  # atno 8010 bound_to 7997
  140.6659  143.2676  151.4293 H   0  0  0  0  0  0  0  0  0  0  0  0  # atno 10167 bound_to 10162
  156.9382  130.9993  151.2974 H   0  0  0  0  0  0  0  0  0  0  0  0  # atno 10718 bound_to 10713
  153.0574  135.5033  154.8014 H   0  0  0  0  0  0  0  0  0  0  0  0  # atno 10763 bound_to 10752
  154.6829  135.2971  154.9590 H   0  0  0  0  0  0  0  0  0  0  0  0  # atno 10764 bound_to 10752
  154.0370  135.6722  153.4839 H   0  0  0  0  0  0  0  0  0  0  0  0  # atno 10765 bound_to 10752
  141.1358  133.8215  157.0786 H   0  0  0  0  0  0  0  0  0  0  0  0  # atno 11005 bound_to 11000
  146.2749  140.4714  142.8799 LP  0  0  0  0  0  0  0  0  0  0  0  0  # atno 17320 bound_to 7965
  144.8370  140.6798  143.6254 LP  0  0  0  0  0  0  0  0  0  0  0  0  # atno 17321 bound_to 7965
  139.5908  144.1503  152.2086 LP  0  0  0  0  0  0  0  0  0  0  0  0  # atno 17342 bound_to 10162
  140.0857  144.5663  150.7090 LP  0  0  0  0  0  0  0  0  0  0  0  0  # atno 17343 bound_to 10162
  157.5802  130.8371  149.8512 LP  0  0  0  0  0  0  0  0  0  0  0  0  # atno 17370 bound_to 10713
  156.0416  130.3737  150.1421 LP  0  0  0  0  0  0  0  0  0  0  0  0  # atno 17371 bound_to 10713
  140.0466  134.9827  157.1060 LP  0  0  0  0  0  0  0  0  0  0  0  0  # atno 17394 bound_to 11000
  140.4054  134.2038  155.7163 LP  0  0  0  0  0  0  0  0  0  0  0  0  # atno 17395 bound_to 11000

$$$$
