AV-unprocessed.smi:1363|AV-procd|sdf|5564|dock2
  -GOLD-   22720 5153D 1   1.00000     0.00000
 Structure written by MMmdl.
 44 45  0  0  0  0  0  0  0  0  1 V2000
  146.3586  137.9821  152.0877 C   0  0  0  0  0  0  0  0  0  0  0  0
  147.0335  139.1433  152.7865 C   0  0  0  0  0  0  0  0  0  0  0  0
  146.4392  140.2538  153.0766 N   0  0  0  0  0  0  0  0  0  0  0  0
  147.1710  141.2607  153.7215 C   0  0  0  0  0  0  0  0  0  0  0  0
  146.4057  142.5384  154.0214 C   0  0  0  0  0  0  0  0  0  0  0  0
  148.4858  141.0922  154.0493 C   0  0  0  0  0  0  0  0  0  0  0  0
  149.3103  142.1740  154.7458 C   0  0  0  0  0  0  0  0  0  0  0  0
  150.1092  141.7165  155.9687 C   0  0  0  0  0  0  0  0  0  0  0  0
  150.1666  140.5224  156.2638 O   0  0  0  0  0  0  0  0  0  0  0  0
  150.7303  142.6787  156.6674 N   0  0  0  0  0  0  0  0  0  0  0  0
  151.5645  142.4537  157.8418 C   0  0  0  0  0  0  0  0  0  0  0  0
  151.5160  143.6578  158.8030 C   0  0  0  0  0  0  0  0  0  0  0  0
  152.1505  143.4401  160.1731 C   0  0  0  0  0  0  0  0  0  0  0  0
  152.1943  144.3725  161.1491 C   0  0  0  0  0  0  0  0  0  0  0  0
  152.7961  144.1423  162.5246 C   0  0  0  0  0  0  0  0  0  0  0  0
  153.0254  142.6521  162.8233 C   0  0  0  0  0  0  0  0  0  0  0  0
  153.6391  141.9379  161.6141 C   0  0  0  0  0  0  0  0  0  0  0  0
  152.7278  142.0443  160.3786 C   0  0  0  0  0  0  0  0  0  0  0  0
  149.1538  139.8196  153.7142 C   0  0  0  0  0  0  0  0  0  0  0  0
  150.3324  139.5646  153.9571 O   0  0  0  0  0  0  0  0  0  0  0  0
  148.3727  138.9074  153.0934 N   0  0  0  0  0  0  0  0  0  0  0  0
  148.7844  138.0208  152.8409 H   0  0  0  0  0  0  0  0  0  0  0  0
  145.9854  138.2971  151.1130 H   0  0  0  0  0  0  0  0  0  0  0  0
  145.5150  137.6271  152.6799 H   0  0  0  0  0  0  0  0  0  0  0  0
  147.0452  137.1480  151.9364 H   0  0  0  0  0  0  0  0  0  0  0  0
  146.3433  142.7040  155.0969 H   0  0  0  0  0  0  0  0  0  0  0  0
  145.3882  142.4910  153.6316 H   0  0  0  0  0  0  0  0  0  0  0  0
  146.8962  143.3982  153.5650 H   0  0  0  0  0  0  0  0  0  0  0  0
  149.9994  142.6026  154.0171 H   0  0  0  0  0  0  0  0  0  0  0  0
  148.6744  143.0066  155.0482 H   0  0  0  0  0  0  0  0  0  0  0  0
  150.6278  143.6339  156.3559 H   0  0  0  0  0  0  0  0  0  0  0  0
  151.1953  141.5582  158.3424 H   0  0  0  0  0  0  0  0  0  0  0  0
  152.5898  142.2446  157.5314 H   0  0  0  0  0  0  0  0  0  0  0  0
  152.0142  144.5113  158.3414 H   0  0  0  0  0  0  0  0  0  0  0  0
  150.4773  143.9530  158.9557 H   0  0  0  0  0  0  0  0  0  0  0  0
  151.7940  145.3617  160.9885 H   0  0  0  0  0  0  0  0  0  0  0  0
  153.7392  144.6873  162.5755 H   0  0  0  0  0  0  0  0  0  0  0  0
  152.1392  144.5735  163.2806 H   0  0  0  0  0  0  0  0  0  0  0  0
  153.6669  142.5408  163.6978 H   0  0  0  0  0  0  0  0  0  0  0  0
  152.0749  142.1792  163.0741 H   0  0  0  0  0  0  0  0  0  0  0  0
  154.6092  142.3836  161.3904 H   0  0  0  0  0  0  0  0  0  0  0  0
  153.8281  140.8899  161.8478 H   0  0  0  0  0  0  0  0  0  0  0  0
  151.8939  141.3477  160.4714 H   0  0  0  0  0  0  0  0  0  0  0  0
  153.2883  141.7463  159.4917 H   0  0  0  0  0  0  0  0  0  0  0  0
  1  2  1  0  0  0  0
  1 23  1  0  0  0  0
  1 24  1  0  0  0  0
  1 25  1  0  0  0  0
  2 21  1  0  0  0  0
  2  3  2  0  0  0  0
  3  4  1  0  0  0  0
  4  5  1  0  0  0  0
  4  6  2  0  0  0  0
  5 26  1  0  0  0  0
  5 27  1  0  0  0  0
  5 28  1  0  0  0  0
  6  7  1  0  0  0  0
  6 19  1  0  0  0  0
  7  8  1  0  0  0  0
  7 29  1  0  0  0  0
  7 30  1  0  0  0  0
  8  9  2  0  0  0  0
  8 10  1  0  0  0  0
 10 11  1  0  0  0  0
 10 31  1  0  0  0  0
 11 12  1  0  0  0  0
 11 32  1  0  0  0  0
 11 33  1  0  0  0  0
 12 13  1  0  0  0  0
 12 34  1  0  0  0  0
 12 35  1  0  0  0  0
 13 18  1  0  0  0  0
 13 14  2  0  0  0  0
 14 15  1  0  0  0  0
 14 36  1  0  0  0  0
 15 16  1  0  0  0  0
 15 37  1  0  0  0  0
 15 38  1  0  0  0  0
 16 17  1  0  0  0  0
 16 39  1  0  0  0  0
 16 40  1  0  0  0  0
 17 18  1  0  0  0  0
 17 41  1  0  0  0  0
 17 42  1  0  0  0  0
 18 43  1  0  0  0  0
 18 44  1  0  0  0  0
 19 20  2  0  0  0  0
 19 21  1  0  0  0  0
 21 22  1  0  0  0  0
M  END
> <s_m_source_file>
AV-unprocessed.smi

> <i_m_source_file_index>
1363

> <i_lp_mmshare_version>
43012

> <i_f3d_flags>
0

> <s_epik_input>
W0NIM11jMW5jKFtDSDNdKWMoYyg9TylbbkhdMSlbQ0gyXUMoPU8pW05IXVtDSDJdW0NIMl1DMj1bQ0hdW0NIMl1bQ0gyXVtDSDJdW0NIMl0y

> <s_epik_cmdline>
J2VwaWtfcHl0aG9uJywgJy1waCcsICc3LjAnLCAnLXRuJywgJzgnLCAnLW1hJywgJzIwMCcsICctbWV0YWxfYmluZGluZycsICctaW1hZScsICc8aW5maWxlLm1hZT4nLCAnLW9tYWUnLCAnPG91dGZpbGUubWFlPic=

> <r_lp_tautomer_probability>
0.839158

> <r_epik_Ionization_Penalty>
0.000390001

> <r_epik_Ionization_Penalty_Charging>
0.000357609

> <r_epik_Ionization_Penalty_Neutral>
3.23917e-05

> <r_epik_State_Penalty>
0.0470088

> <r_epik_Charging_Adjusted_Penalty>
0.0473664

> <i_epik_Tot_Q>
0

> <i_epik_Tot_abs_Q>
0

> <r_epik_Metal_State_Penalty>
0.223611

> <b_epik_Metal_Only>
0

> <s_lp_Force_Field>
OPLS_2005

> <r_lp_Energy>
9.33337

> <b_lp_Chiralities_Consistent>
1

> <s_lp_Variant>
AV-unprocessed.smi:1363-1

> <Gold.Version>
5.8.1

> <Gold.Id.Protein>
6NUR|6NUR_protein|mol2

> <Gold.PLP.Fitness>
52.2910

> <Gold.PLP.PLP>
-45.4304

> <Gold.PLP.part.hbond>
-4.0000

> <Gold.PLP.part.metal>
0.0000

> <Gold.PLP.part.buried>
2.6609

> <Gold.PLP.part.nonpolar>
-46.3621

> <Gold.PLP.part.repulsive>
3.8475

> <Gold.PLP.ligand.clash>
0.0000

> <Gold.PLP.ligand.torsion>
0.3647

> <Gold.PLP.Chemscore.Hbond>
2.5262

> <Gold.PLP.Chemscore.CHOScore>
0.0000

> <Gold.PLP.Chemscore.Metal>
0.0000

> <Gold.Chemscore.Hbonds>
donor molecule, donor type, donor heavy atom, donor atom, acceptor molecule, acceptor atom, score
      L1  H    10    31       P1  8028  0.44
      L1  H    21    22       P1  7948  1.00
      P1  H  7989  7998       L1    20  1.00

> <Gold.PLP.Chemscore.Internal.Correction>
0.0112

> <Gold.Rescore>
     Score         DG    S(hbond)    S(metal)    S(lipo)     H(rot)  DE(clash)    DE(int)     intcor
     15.11     -24.02       2.66        0.00     123.33       1.86       4.55       4.36       ----

> <Gold.Chemscore.Fitness>
15.1103

> <Gold.Chemscore.DG>
-24.0155

> <Gold.Chemscore.ZeroCoef>
-5.4800

> <Gold.Chemscore.Hbond>
2.6574

> <Gold.Chemscore.Metal>
0.0000

> <Gold.Chemscore.Lipo>
123.3277

> <Gold.Chemscore.Internal_Hbond>
0.0000

> <Gold.Chemscore.DEClash>
4.5470

> <Gold.Chemscore.DEInternal>
4.3581

> <Gold.Chemscore.Rot>
1.8631

> <Gold.Chemscore.Internal.Correction>
   9.000000E+99

> <Gold.Chemscore.Hbonds>
donor molecule, donor type, donor heavy atom, donor atom, acceptor molecule, acceptor atom, score
      L1  H    10    31       P1  8028  0.44
      L1  H    21    22       P1  7948  0.93
      P1  H  7989  7998       L1    20  0.91

> <Gold.Chemscore.Hbond.Weighted>
-8.8758

> <Gold.Chemscore.Metal.Weighted>
-0.0000

> <Gold.Chemscore.Lipo.Weighted>
-14.4293

> <Gold.Chemscore.Internal_Hbond.Weighted>
0.0000

> <Gold.Chemscore.DEClash.Weighted>
4.5470

> <Gold.Chemscore.DEInternal.Weighted>
4.3581

> <Gold.Chemscore.Rot.Weighted>
4.7697

> <Gold.Chemscore.Internal.Correction.Weighted>
   9.000000E+99

> <Gold.Protein.RotatedTorsions>
[ 6907 6896 6895 6894 ] final -108.89 input  -60.11 | X-H torsion
[ 7974 7965 7964 7962 ] final -162.57 input  175.53 | X-H torsion
[ 8008 7997 7996 7995 ] final -119.26 input   59.86 | X-H torsion
[ 10167 10162 10161 10158 ] final -131.58 input  -65.29 | X-H torsion
[ 10718 10713 10712 10709 ] final   70.72 input   66.30 | X-H torsion
[ 10763 10752 10751 10750 ] final  -37.37 input  -60.55 | X-H torsion
[ 11005 11000 10999 10996 ] final    2.49 input  -57.11 | X-H torsion

> <Gold.Protein.ActiveResidues>
 VAL166  LYS551  ARG553  GLY616  TRP617  ASP618  TYR619  PRO620  LYS621  CYS622 
 ASP623  PHE694  ASN695  SER759  ASP760  ASP761  ALA762  ILE779  LEU786  VAL792 
 PHE793  MET794  SER795  GLU796  ALA797  LYS798  CYS799  TRP800  GLU811  SER814 

> <Gold.Protein.RotatedAtoms>
  150.7528  133.9611  159.3515 H   0  0  0  0  0  0  0  0  0  0  0  0  # atno 6907 bound_to 6896
  151.7536  135.0825  160.0344 H   0  0  0  0  0  0  0  0  0  0  0  0  # atno 6908 bound_to 6896
  152.3449  133.6074  159.5939 H   0  0  0  0  0  0  0  0  0  0  0  0  # atno 6909 bound_to 6896
  144.7353  140.3233  143.6167 H   0  0  0  0  0  0  0  0  0  0  0  0  # atno 7974 bound_to 7965
  155.1128  140.0397  157.2729 H   0  0  0  0  0  0  0  0  0  0  0  0  # atno 8008 bound_to 7997
  154.6672  140.2604  155.7020 H   0  0  0  0  0  0  0  0  0  0  0  0  # atno 8009 bound_to 7997
  156.2644  140.2805  156.1167 H   0  0  0  0  0  0  0  0  0  0  0  0  # atno 8010 bound_to 7997
  139.9174  143.6422  152.2561 H   0  0  0  0  0  0  0  0  0  0  0  0  # atno 10167 bound_to 10162
  157.6415  130.9492  150.0690 H   0  0  0  0  0  0  0  0  0  0  0  0  # atno 10718 bound_to 10713
  153.8951  135.6808  153.4758 H   0  0  0  0  0  0  0  0  0  0  0  0  # atno 10763 bound_to 10752
  153.1160  135.4761  154.9113 H   0  0  0  0  0  0  0  0  0  0  0  0  # atno 10764 bound_to 10752
  154.7603  135.3209  154.8344 H   0  0  0  0  0  0  0  0  0  0  0  0  # atno 10765 bound_to 10752
  140.6037  133.9812  155.8144 H   0  0  0  0  0  0  0  0  0  0  0  0  # atno 11005 bound_to 11000
  145.7546  139.1805  143.2302 LP  0  0  0  0  0  0  0  0  0  0  0  0  # atno 17320 bound_to 7965
  146.1034  140.7516  142.9538 LP  0  0  0  0  0  0  0  0  0  0  0  0  # atno 17321 bound_to 7965
  139.6890  144.7649  151.1472 LP  0  0  0  0  0  0  0  0  0  0  0  0  # atno 17342 bound_to 10162
  140.7670  143.5616  150.9093 LP  0  0  0  0  0  0  0  0  0  0  0  0  # atno 17343 bound_to 10162
  156.1700  130.3646  149.9178 LP  0  0  0  0  0  0  0  0  0  0  0  0  # atno 17370 bound_to 10713
  156.7156  130.8987  151.3613 LP  0  0  0  0  0  0  0  0  0  0  0  0  # atno 17371 bound_to 10713
  141.0855  133.9997  157.3320 LP  0  0  0  0  0  0  0  0  0  0  0  0  # atno 17394 bound_to 11000
  139.9221  135.0201  156.8104 LP  0  0  0  0  0  0  0  0  0  0  0  0  # atno 17395 bound_to 11000

$$$$
