AV-unprocessed.smi:2460|AV-procd|sdf|9715|dock9
  -GOLD-   2272013353D 1   1.00000     0.00000
 Structure written by MMmdl.
 46 48  0  0  0  0  0  0  0  0  1 V2000
  138.5159  140.8133  156.1115 C   0  0  0  0  0  0  0  0  0  0  0  0
  138.8294  140.6716  154.6123 C   0  0  0  0  0  0  0  0  0  0  0  0
  138.1579  141.7898  153.8004 C   0  0  0  0  0  0  0  0  0  0  0  0
  140.3377  140.5858  154.3469 C   0  0  0  0  0  0  0  0  0  0  0  0
  140.6145  139.0965  154.4044 C   0  0  2  0  0  0  0  0  0  0  0  0
  141.8190  138.7425  153.6559 N   0  0  0  0  0  0  0  0  0  0  0  0
  142.2226  137.4926  153.3920 C   0  0  0  0  0  0  0  0  0  0  0  0
  141.6323  136.4887  153.7896 O   0  0  0  0  0  0  0  0  0  0  0  0
  143.3261  137.4913  152.6258 N   0  0  0  0  0  0  0  0  0  0  0  0
  144.0245  136.3719  152.1007 C   0  0  0  0  0  0  0  0  0  0  0  0
  143.5293  135.0749  152.3510 C   0  0  0  0  0  0  0  0  0  0  0  0
  144.1428  133.9705  151.8747 N   0  0  0  0  0  0  0  0  0  0  0  0
  145.2488  134.1606  151.1498 C   0  0  0  0  0  0  0  0  0  0  0  0
  145.9109  132.9362  150.5988 C   0  0  0  0  0  0  0  0  0  0  0  0
  145.2438  132.1153  149.5141 C   0  0  0  0  0  0  0  0  0  0  0  0
  145.3642  131.5562  150.9043 C   0  0  0  0  0  0  0  0  0  0  0  0
  145.7933  135.3354  150.8216 N   0  0  0  0  0  0  0  0  0  0  0  0
  145.1878  136.4457  151.2956 C   0  0  0  0  0  0  0  0  0  0  0  0
  139.3175  138.4942  153.8204 C   0  0  0  0  0  0  0  0  0  0  0  0
  139.2961  138.4019  152.2798 C   0  0  0  0  0  0  0  0  0  0  0  0
  138.9690  137.1365  154.4505 C   0  0  0  0  0  0  0  0  0  0  0  0
  138.2948  139.4197  154.1850 O   0  0  0  0  0  0  0  0  0  0  0  0
  138.9066  141.7498  156.5102 H   0  0  0  0  0  0  0  0  0  0  0  0
  138.9520  139.9988  156.6904 H   0  0  0  0  0  0  0  0  0  0  0  0
  137.4404  140.8005  156.2898 H   0  0  0  0  0  0  0  0  0  0  0  0
  138.5542  142.7679  154.0741 H   0  0  0  0  0  0  0  0  0  0  0  0
  137.0810  141.8071  153.9701 H   0  0  0  0  0  0  0  0  0  0  0  0
  138.3194  141.6530  152.7308 H   0  0  0  0  0  0  0  0  0  0  0  0
  140.5697  140.9701  153.3523 H   0  0  0  0  0  0  0  0  0  0  0  0
  140.9326  141.1545  155.0624 H   0  0  0  0  0  0  0  0  0  0  0  0
  140.7219  138.8140  155.4537 H   0  0  0  0  0  0  0  0  0  0  0  0
  142.3647  139.5070  153.2866 H   0  0  0  0  0  0  0  0  0  0  0  0
  143.6569  138.3940  152.3181 H   0  0  0  0  0  0  0  0  0  0  0  0
  142.6388  134.9188  152.9420 H   0  0  0  0  0  0  0  0  0  0  0  0
  146.9917  133.0560  150.5535 H   0  0  0  0  0  0  0  0  0  0  0  0
  144.2534  132.4202  149.1818 H   0  0  0  0  0  0  0  0  0  0  0  0
  145.8833  131.6901  148.7434 H   0  0  0  0  0  0  0  0  0  0  0  0
  146.0835  130.7559  151.0646 H   0  0  0  0  0  0  0  0  0  0  0  0
  144.4536  131.4890  151.4965 H   0  0  0  0  0  0  0  0  0  0  0  0
  145.6371  137.3820  151.0038 H   0  0  0  0  0  0  0  0  0  0  0  0
  140.0178  137.6729  151.9102 H   0  0  0  0  0  0  0  0  0  0  0  0
  139.5237  139.3614  151.8152 H   0  0  0  0  0  0  0  0  0  0  0  0
  138.3134  138.0937  151.9220 H   0  0  0  0  0  0  0  0  0  0  0  0
  139.7150  136.3813  154.2029 H   0  0  0  0  0  0  0  0  0  0  0  0
  138.0033  136.7746  154.0968 H   0  0  0  0  0  0  0  0  0  0  0  0
  138.9148  137.2072  155.5371 H   0  0  0  0  0  0  0  0  0  0  0  0
  1  2  1  0  0  0  0
  1 23  1  0  0  0  0
  1 24  1  0  0  0  0
  1 25  1  0  0  0  0
  2 22  1  0  0  0  0
  2  3  1  0  0  0  0
  2  4  1  0  0  0  0
  3 26  1  0  0  0  0
  3 27  1  0  0  0  0
  3 28  1  0  0  0  0
  4  5  1  0  0  0  0
  4 29  1  0  0  0  0
  4 30  1  0  0  0  0
  5  6  1  0  0  0  0
  5 19  1  0  0  0  0
  5 31  1  0  0  0  0
  6  7  1  0  0  0  0
  6 32  1  0  0  0  0
  7  8  2  0  0  0  0
  7  9  1  0  0  0  0
  9 10  1  0  0  0  0
  9 33  1  0  0  0  0
 10 18  1  0  0  0  0
 10 11  2  0  0  0  0
 11 12  1  0  0  0  0
 11 34  1  0  0  0  0
 12 13  2  0  0  0  0
 13 14  1  0  0  0  0
 13 17  1  0  0  0  0
 14 16  1  0  0  0  0
 14 15  1  0  0  0  0
 14 35  1  0  0  0  0
 15 16  1  0  0  0  0
 15 36  1  0  0  0  0
 15 37  1  0  0  0  0
 16 38  1  0  0  0  0
 16 39  1  0  0  0  0
 17 18  2  0  0  0  0
 18 40  1  0  0  0  0
 19 20  1  0  0  0  0
 19 21  1  0  0  0  0
 19 22  1  0  0  0  0
 20 41  1  0  0  0  0
 20 42  1  0  0  0  0
 20 43  1  0  0  0  0
 21 44  1  0  0  0  0
 21 45  1  0  0  0  0
 21 46  1  0  0  0  0
M  END
> <s_m_source_file>
AV-unprocessed.smi

> <i_m_source_file_index>
2460

> <i_lp_mmshare_version>
43012

> <i_f3d_flags>
0

> <s_epik_input>
W0NIM11DMShbQ0gzXSlbQ0gyXVtDQEhdKEMoTzEpKFtDSDNdKVtDSDNdKVtOSF1DKD1PKVtOSF1jMltjSF1uYyhuW2NIXTIpW0NIXTNbQ0gyXVtDSDJdMw==

> <s_epik_cmdline>
J2VwaWtfcHl0aG9uJywgJy1waCcsICc3LjAnLCAnLXRuJywgJzgnLCAnLW1hJywgJzIwMCcsICctbWV0YWxfYmluZGluZycsICctaW1hZScsICc8aW5maWxlLm1hZT4nLCAnLW9tYWUnLCAnPG91dGZpbGUubWFlPic=

> <r_lp_tautomer_probability>
1

> <r_epik_Ionization_Penalty>
2.38399e-05

> <r_epik_Ionization_Penalty_Charging>
0

> <r_epik_Ionization_Penalty_Neutral>
2.38399e-05

> <r_epik_State_Penalty>
-0

> <r_epik_Charging_Adjusted_Penalty>
0

> <i_epik_Tot_Q>
0

> <i_epik_Tot_abs_Q>
0

> <r_epik_Metal_State_Penalty>
-0

> <b_epik_Metal_Only>
0

> <s_lp_Force_Field>
OPLS_2005

> <r_lp_Energy>
17.9428

> <b_lp_Chiralities_Consistent>
1

> <s_lp_Variant>
AV-unprocessed.smi:2460-2

> <Gold.Version>
5.8.1

> <Gold.Id.Protein>
6NUR|6NUR_protein|mol2

> <Gold.PLP.Fitness>
40.5717

> <Gold.PLP.PLP>
-33.2423

> <Gold.PLP.part.hbond>
-2.9644

> <Gold.PLP.part.metal>
0.0000

> <Gold.PLP.part.buried>
-2.5675

> <Gold.PLP.part.nonpolar>
-28.0149

> <Gold.PLP.part.repulsive>
0.5262

> <Gold.PLP.ligand.clash>
0.0000

> <Gold.PLP.ligand.torsion>
0.1328

> <Gold.PLP.Chemscore.Hbond>
1.9750

> <Gold.PLP.Chemscore.CHOScore>
0.5136

> <Gold.PLP.Chemscore.Metal>
0.0000

> <Gold.Chemscore.Hbonds>
donor molecule, donor type, donor heavy atom, donor atom, acceptor molecule, acceptor atom, score
      L1  H     6    32       P1 10175  1.00
      L1  H     9    33       P1 10175  0.98
      L1  C    18    40       P1 10171  0.51

> <Gold.PLP.Chemscore.Internal.Correction>
0.1292

> <Gold.Rescore>
     Score         DG    S(hbond)    S(metal)    S(lipo)     H(rot)  DE(clash)    DE(int)     intcor
     14.70     -18.77       1.92        0.00      84.66       1.18       1.25       2.81       ----

> <Gold.Chemscore.Fitness>
14.6986

> <Gold.Chemscore.DG>
-18.7660

> <Gold.Chemscore.ZeroCoef>
-5.4800

> <Gold.Chemscore.Hbond>
1.9155

> <Gold.Chemscore.Metal>
0.0000

> <Gold.Chemscore.Lipo>
84.6602

> <Gold.Chemscore.Internal_Hbond>
0.0000

> <Gold.Chemscore.DEClash>
1.2532

> <Gold.Chemscore.DEInternal>
2.8141

> <Gold.Chemscore.Rot>
1.1785

> <Gold.Chemscore.Internal.Correction>
   9.000000E+99

> <Gold.Chemscore.Hbonds>
donor molecule, donor type, donor heavy atom, donor atom, acceptor molecule, acceptor atom, score
      L1  H     6    32       P1 10175  0.99
      L1  H     9    33       P1 10175  0.86

> <Gold.Chemscore.Hbond.Weighted>
-6.3977

> <Gold.Chemscore.Metal.Weighted>
-0.0000

> <Gold.Chemscore.Lipo.Weighted>
-9.9052

> <Gold.Chemscore.Internal_Hbond.Weighted>
0.0000

> <Gold.Chemscore.DEClash.Weighted>
1.2532

> <Gold.Chemscore.DEInternal.Weighted>
2.8141

> <Gold.Chemscore.Rot.Weighted>
3.0169

> <Gold.Chemscore.Internal.Correction.Weighted>
   9.000000E+99

> <Gold.Protein.RotatedTorsions>
[ 6907 6896 6895 6894 ] final -130.42 input  -60.11 | X-H torsion
[ 7974 7965 7964 7962 ] final   41.64 input  175.53 | X-H torsion
[ 8008 7997 7996 7995 ] final  -77.19 input   59.86 | X-H torsion
[ 10167 10162 10161 10158 ] final   33.48 input  -65.29 | X-H torsion
[ 10718 10713 10712 10709 ] final   -4.11 input   66.30 | X-H torsion
[ 10763 10752 10751 10750 ] final  -49.26 input  -60.55 | X-H torsion
[ 11005 11000 10999 10996 ] final   28.69 input  -57.11 | X-H torsion

> <Gold.Protein.ActiveResidues>
 VAL166  LYS551  ARG553  GLY616  TRP617  ASP618  TYR619  PRO620  LYS621  CYS622 
 ASP623  PHE694  ASN695  SER759  ASP760  ASP761  ALA762  ILE779  LEU786  VAL792 
 PHE793  MET794  SER795  GLU796  ALA797  LYS798  CYS799  TRP800  GLU811  SER814 

> <Gold.Protein.RotatedAtoms>
  150.9395  133.6673  159.2793 H   0  0  0  0  0  0  0  0  0  0  0  0  # atno 6907 bound_to 6896
  151.4067  135.0978  159.9582 H   0  0  0  0  0  0  0  0  0  0  0  0  # atno 6908 bound_to 6896
  152.5063  133.8877  159.7433 H   0  0  0  0  0  0  0  0  0  0  0  0  # atno 6909 bound_to 6896
  146.0806  139.5392  142.9539 H   0  0  0  0  0  0  0  0  0  0  0  0  # atno 7974 bound_to 7965
  154.5573  140.0714  156.8763 H   0  0  0  0  0  0  0  0  0  0  0  0  # atno 8008 bound_to 7997
  155.2878  140.3376  155.4236 H   0  0  0  0  0  0  0  0  0  0  0  0  # atno 8009 bound_to 7997
  156.2013  140.1723  156.7880 H   0  0  0  0  0  0  0  0  0  0  0  0  # atno 8010 bound_to 7997
  140.4404  144.1196  150.6173 H   0  0  0  0  0  0  0  0  0  0  0  0  # atno 10167 bound_to 10162
  156.7661  130.5285  149.5776 H   0  0  0  0  0  0  0  0  0  0  0  0  # atno 10718 bound_to 10713
  154.0912  135.6577  153.4853 H   0  0  0  0  0  0  0  0  0  0  0  0  # atno 10763 bound_to 10752
  153.0321  135.5203  154.7378 H   0  0  0  0  0  0  0  0  0  0  0  0  # atno 10764 bound_to 10752
  154.6502  135.3000  154.9964 H   0  0  0  0  0  0  0  0  0  0  0  0  # atno 10765 bound_to 10752
  140.3129  134.2630  155.7731 H   0  0  0  0  0  0  0  0  0  0  0  0  # atno 11005 bound_to 11000
  145.6224  141.0320  143.1907 LP  0  0  0  0  0  0  0  0  0  0  0  0  # atno 17320 bound_to 7965
  144.7291  139.7782  143.7354 LP  0  0  0  0  0  0  0  0  0  0  0  0  # atno 17321 bound_to 7965
  140.4325  143.2562  151.9577 LP  0  0  0  0  0  0  0  0  0  0  0  0  # atno 17342 bound_to 10162
  139.4789  144.5730  151.8057 LP  0  0  0  0  0  0  0  0  0  0  0  0  # atno 17343 bound_to 10162
  156.1308  130.6176  151.0330 LP  0  0  0  0  0  0  0  0  0  0  0  0  # atno 17370 bound_to 10713
  157.6712  131.0861  150.7607 LP  0  0  0  0  0  0  0  0  0  0  0  0  # atno 17371 bound_to 10713
  141.2104  133.7720  156.9933 LP  0  0  0  0  0  0  0  0  0  0  0  0  # atno 17394 bound_to 11000
  140.1009  134.9536  157.1922 LP  0  0  0  0  0  0  0  0  0  0  0  0  # atno 17395 bound_to 11000

$$$$
