AV-unprocessed.smi:2154|AV-procd|sdf|8770|dock2
  -GOLD-   2272011553D 1   1.00000     0.00000
 Structure written by MMmdl.
 32 33  0  0  0  0  0  0  0  0  1 V2000
  153.1289  142.5296  162.2525 C   0  0  0  0  0  0  0  0  0  0  0  0
  152.5440  142.3193  160.8726 C   0  0  2  0  0  0  0  0  0  0  0  0
  153.3453  142.6606  159.6375 C   0  0  0  0  0  0  0  0  0  0  0  0
  152.1461  143.4990  160.0140 C   0  0  1  0  0  0  0  0  0  0  0  0
  150.8723  143.4538  159.1911 C   0  0  0  0  0  0  0  0  0  0  0  0
  151.0460  143.0222  157.8101 N   0  0  0  0  0  0  0  0  0  0  0  0
  150.3328  142.0578  157.2094 C   0  0  0  0  0  0  0  0  0  0  0  0
  149.4334  141.4342  157.7755 O   0  0  0  0  0  0  0  0  0  0  0  0
  150.6835  141.7764  155.7408 C   0  0  0  0  0  0  0  0  0  0  0  0
  150.8900  140.3483  155.4577 N   0  0  0  0  0  0  0  0  0  0  0  0
  150.1921  139.7303  154.4294 C   0  0  0  0  0  0  0  0  0  0  0  0
  150.3239  138.4183  154.1217 C   0  0  0  0  0  0  0  0  0  0  0  0
  151.2342  137.5689  154.8825 C   0  0  0  0  0  0  0  0  0  0  0  0
  151.4233  136.3716  154.6796 O   0  0  0  0  0  0  0  0  0  0  0  0
  151.9162  138.2262  155.9102 N   0  0  0  0  0  0  0  0  0  0  0  0
  151.7839  139.5777  156.2334 C   0  0  0  0  0  0  0  0  0  0  0  0
  152.4307  140.0569  157.1639 O   0  0  0  0  0  0  0  0  0  0  0  0
  152.5553  137.6775  156.4669 H   0  0  0  0  0  0  0  0  0  0  0  0
  153.7566  143.4210  162.2764 H   0  0  0  0  0  0  0  0  0  0  0  0
  153.7355  141.6697  162.5367 H   0  0  0  0  0  0  0  0  0  0  0  0
  152.3286  142.6482  162.9832 H   0  0  0  0  0  0  0  0  0  0  0  0
  151.9118  141.4362  160.7983 H   0  0  0  0  0  0  0  0  0  0  0  0
  154.3289  143.1054  159.7755 H   0  0  0  0  0  0  0  0  0  0  0  0
  153.2523  141.9960  158.7809 H   0  0  0  0  0  0  0  0  0  0  0  0
  152.3594  144.4788  160.4377 H   0  0  0  0  0  0  0  0  0  0  0  0
  150.1606  142.7799  159.6691 H   0  0  0  0  0  0  0  0  0  0  0  0
  150.4117  144.4428  159.2074 H   0  0  0  0  0  0  0  0  0  0  0  0
  151.7622  143.4890  157.2724 H   0  0  0  0  0  0  0  0  0  0  0  0
  149.8791  142.1714  155.1186 H   0  0  0  0  0  0  0  0  0  0  0  0
  151.5709  142.3473  155.4599 H   0  0  0  0  0  0  0  0  0  0  0  0
  149.5027  140.3197  153.8416 H   0  0  0  0  0  0  0  0  0  0  0  0
  149.7517  137.9943  153.3091 H   0  0  0  0  0  0  0  0  0  0  0  0
  1  2  1  0  0  0  0
  1 19  1  0  0  0  0
  1 20  1  0  0  0  0
  1 21  1  0  0  0  0
  2  4  1  0  0  0  0
  2  3  1  0  0  0  0
  2 22  1  0  0  0  0
  3  4  1  0  0  0  0
  3 23  1  0  0  0  0
  3 24  1  0  0  0  0
  4  5  1  0  0  0  0
  4 25  1  0  0  0  0
  5  6  1  0  0  0  0
  5 26  1  0  0  0  0
  5 27  1  0  0  0  0
  6  7  1  0  0  0  0
  6 28  1  0  0  0  0
  7  8  2  0  0  0  0
  7  9  1  0  0  0  0
  9 10  1  0  0  0  0
  9 29  1  0  0  0  0
  9 30  1  0  0  0  0
 10 16  1  0  0  0  0
 10 11  1  0  0  0  0
 11 12  2  0  0  0  0
 11 31  1  0  0  0  0
 12 13  1  0  0  0  0
 12 32  1  0  0  0  0
 13 14  2  0  0  0  0
 13 15  1  0  0  0  0
 15 18  1  0  0  0  0
 15 16  1  0  0  0  0
 16 17  2  0  0  0  0
M  END
> <s_m_source_file>
AV-unprocessed.smi

> <i_m_source_file_index>
2154

> <i_lp_mmshare_version>
43012

> <i_f3d_flags>
0

> <s_epik_input>
W0NIM11bQ0BASF0xW0NIMl1bQ0BIXTFbQ0gyXVtOSF1DKD1PKVtDSDJdbjJbY0hdW2NIXWMoPU8pW25IXWMyPU8=

> <s_epik_cmdline>
J2VwaWtfcHl0aG9uJywgJy1waCcsICc3LjAnLCAnLXRuJywgJzgnLCAnLW1hJywgJzIwMCcsICctbWV0YWxfYmluZGluZycsICctaW1hZScsICc8aW5maWxlLm1hZT4nLCAnLW9tYWUnLCAnPG91dGZpbGUubWFlPic=

> <r_lp_tautomer_probability>
0.999537

> <r_epik_Ionization_Penalty>
0.00305319

> <r_epik_Ionization_Penalty_Charging>
0.00305317

> <r_epik_Ionization_Penalty_Neutral>
2.06703e-08

> <r_epik_State_Penalty>
0.00214626

> <r_epik_Charging_Adjusted_Penalty>
0.00519944

> <i_epik_Tot_Q>
0

> <i_epik_Tot_abs_Q>
0

> <r_epik_Metal_State_Penalty>
0.361976

> <b_epik_Metal_Only>
0

> <s_lp_Force_Field>
OPLS_2005

> <r_lp_Energy>
14.8424

> <b_lp_Chiralities_Consistent>
1

> <s_lp_Variant>
AV-unprocessed.smi:2154-1

> <Gold.Version>
5.8.1

> <Gold.Id.Protein>
6NUR|6NUR_protein|mol2

> <Gold.PLP.Fitness>
43.5996

> <Gold.PLP.PLP>
-37.2071

> <Gold.PLP.part.hbond>
-2.0000

> <Gold.PLP.part.metal>
0.0000

> <Gold.PLP.part.buried>
-2.5933

> <Gold.PLP.part.nonpolar>
-32.3198

> <Gold.PLP.part.repulsive>
0.3484

> <Gold.PLP.ligand.clash>
0.0000

> <Gold.PLP.ligand.torsion>
0.6681

> <Gold.PLP.Chemscore.Hbond>
2.0000

> <Gold.PLP.Chemscore.CHOScore>
0.3897

> <Gold.PLP.Chemscore.Metal>
0.0000

> <Gold.Chemscore.Hbonds>
donor molecule, donor type, donor heavy atom, donor atom, acceptor molecule, acceptor atom, score
      P1  H  7997  8009       L1    17  1.00
      P1  H 10752 10765       L1    14  1.00
      L1  C    11    31       P1  7957  0.44

> <Gold.PLP.Chemscore.Internal.Correction>
0.5596

> <Gold.Rescore>
     Score         DG    S(hbond)    S(metal)    S(lipo)     H(rot)  DE(clash)    DE(int)     intcor
     14.43     -16.02       1.95        0.00      78.46       2.01       0.03       1.56       ----

> <Gold.Chemscore.Fitness>
14.4320

> <Gold.Chemscore.DG>
-16.0215

> <Gold.Chemscore.ZeroCoef>
-5.4800

> <Gold.Chemscore.Hbond>
1.9455

> <Gold.Chemscore.Metal>
0.0000

> <Gold.Chemscore.Lipo>
78.4629

> <Gold.Chemscore.Internal_Hbond>
0.0000

> <Gold.Chemscore.DEClash>
0.0303

> <Gold.Chemscore.DEInternal>
1.5593

> <Gold.Chemscore.Rot>
2.0065

> <Gold.Chemscore.Internal.Correction>
   9.000000E+99

> <Gold.Chemscore.Hbonds>
donor molecule, donor type, donor heavy atom, donor atom, acceptor molecule, acceptor atom, score
      P1  H  7997  8009       L1    17  0.69
      P1  H 10752 10765       L1    14  1.00

> <Gold.Chemscore.Hbond.Weighted>
-6.4980

> <Gold.Chemscore.Metal.Weighted>
-0.0000

> <Gold.Chemscore.Lipo.Weighted>
-9.1802

> <Gold.Chemscore.Internal_Hbond.Weighted>
0.0000

> <Gold.Chemscore.DEClash.Weighted>
0.0303

> <Gold.Chemscore.DEInternal.Weighted>
1.5593

> <Gold.Chemscore.Rot.Weighted>
5.1366

> <Gold.Chemscore.Internal.Correction.Weighted>
   9.000000E+99

> <Gold.Protein.RotatedTorsions>
[ 6907 6896 6895 6894 ] final  -51.37 input  -60.11 | X-H torsion
[ 7974 7965 7964 7962 ] final  -87.01 input  175.53 | X-H torsion
[ 8008 7997 7996 7995 ] final  175.73 input   59.86 | X-H torsion
[ 10167 10162 10161 10158 ] final  139.22 input  -65.29 | X-H torsion
[ 10718 10713 10712 10709 ] final   37.55 input   66.30 | X-H torsion
[ 10763 10752 10751 10750 ] final  171.46 input  -60.55 | X-H torsion
[ 11005 11000 10999 10996 ] final  -99.13 input  -57.11 | X-H torsion

> <Gold.Protein.ActiveResidues>
 VAL166  LYS551  ARG553  GLY616  TRP617  ASP618  TYR619  PRO620  LYS621  CYS622 
 ASP623  PHE694  ASN695  SER759  ASP760  ASP761  ALA762  ILE779  LEU786  VAL792 
 PHE793  MET794  SER795  GLU796  ALA797  LYS798  CYS799  TRP800  GLU811  SER814 

> <Gold.Protein.RotatedAtoms>
  150.8617  134.7971  159.7087 H   0  0  0  0  0  0  0  0  0  0  0  0  # atno 6907 bound_to 6896
  152.4652  134.5089  159.9757 H   0  0  0  0  0  0  0  0  0  0  0  0  # atno 6908 bound_to 6896
  151.5191  133.3431  159.2934 H   0  0  0  0  0  0  0  0  0  0  0  0  # atno 6909 bound_to 6896
  145.4722  140.9559  143.1910 H   0  0  0  0  0  0  0  0  0  0  0  0  # atno 7974 bound_to 7965
  156.0840  140.1401  156.9676 H   0  0  0  0  0  0  0  0  0  0  0  0  # atno 8008 bound_to 7997
  154.4602  140.0946  156.6919 H   0  0  0  0  0  0  0  0  0  0  0  0  # atno 8009 bound_to 7997
  155.5029  140.3451  155.4376 H   0  0  0  0  0  0  0  0  0  0  0  0  # atno 8010 bound_to 7997
  139.5086  144.6308  151.5823 H   0  0  0  0  0  0  0  0  0  0  0  0  # atno 10167 bound_to 10162
  157.3483  130.7584  149.6960 H   0  0  0  0  0  0  0  0  0  0  0  0  # atno 10718 bound_to 10713
  154.4122  135.2756  155.2030 H   0  0  0  0  0  0  0  0  0  0  0  0  # atno 10763 bound_to 10752
  154.4011  135.6044  153.5901 H   0  0  0  0  0  0  0  0  0  0  0  0  # atno 10764 bound_to 10752
  152.9831  135.5926  154.4405 H   0  0  0  0  0  0  0  0  0  0  0  0  # atno 10765 bound_to 10752
  141.1320  133.8298  157.0931 H   0  0  0  0  0  0  0  0  0  0  0  0  # atno 11005 bound_to 11000
  144.7938  139.6275  143.7101 LP  0  0  0  0  0  0  0  0  0  0  0  0  # atno 17320 bound_to 7965
  146.2390  139.5962  142.9504 LP  0  0  0  0  0  0  0  0  0  0  0  0  # atno 17321 bound_to 7965
  140.6039  143.9559  150.6405 LP  0  0  0  0  0  0  0  0  0  0  0  0  # atno 17342 bound_to 10162
  140.2780  143.3409  152.1178 LP  0  0  0  0  0  0  0  0  0  0  0  0  # atno 17343 bound_to 10162
  155.9717  130.4148  150.4149 LP  0  0  0  0  0  0  0  0  0  0  0  0  # atno 17370 bound_to 10713
  157.2208  131.0482  151.2547 LP  0  0  0  0  0  0  0  0  0  0  0  0  # atno 17371 bound_to 10713
  140.0380  134.9869  157.0907 LP  0  0  0  0  0  0  0  0  0  0  0  0  # atno 17394 bound_to 11000
  140.4181  134.1910  155.7164 LP  0  0  0  0  0  0  0  0  0  0  0  0  # atno 17395 bound_to 11000

$$$$
