AV-unprocessed.smi:895|AV-procd|sdf|4073|dock4
  -GOLD-   22720 1563D 1   1.00000     0.00000
 Structure written by MMmdl.
 44 45  0  0  0  0  0  0  0  0  1 V2000
  146.5550  131.5106  153.3784 C   0  0  0  0  0  0  0  0  0  0  0  0
  147.3359  132.8070  153.1040 C   0  0  0  0  0  0  0  0  0  0  0  0
  148.7400  132.7303  153.7356 C   0  0  0  0  0  0  0  0  0  0  0  0
  147.4777  132.8716  151.6988 O   0  0  0  0  0  0  0  0  0  0  0  0
  146.5041  134.0320  153.5643 C   0  0  0  0  0  0  0  0  0  0  0  0
  147.2121  135.3043  153.4513 N   0  0  0  0  0  0  0  0  0  0  0  0
  146.9481  136.4004  154.1746 C   0  0  0  0  0  0  0  0  0  0  0  0
  146.0638  136.4658  155.0279 O   0  0  0  0  0  0  0  0  0  0  0  0
  147.7678  137.4122  153.8555 N   0  0  0  0  0  0  0  0  0  0  0  0
  147.7600  138.7437  154.4619 C   0  0  2  0  0  0  0  0  0  0  0  0
  146.5380  139.5151  153.9244 C   0  0  0  0  0  0  0  0  0  0  0  0
  146.5027  140.9640  154.4324 C   0  0  0  0  0  0  0  0  0  0  0  0
  147.8006  141.7027  154.0790 C   0  0  0  0  0  0  0  0  0  0  0  0
  149.0209  140.9616  154.6433 C   0  0  0  0  0  0  0  0  0  0  0  0
  149.0796  139.4994  154.1485 C   0  0  1  0  0  0  0  0  0  0  0  0
  150.2465  138.8107  154.6882 N   0  0  0  0  0  0  0  0  0  0  0  0
  150.2756  137.6815  155.4803 C   0  0  0  0  0  0  0  0  0  0  0  0
  151.5832  137.4199  155.7734 C   0  0  0  0  0  0  0  0  0  0  0  0
  152.2920  138.4598  155.1102 C   0  0  0  0  0  0  0  0  0  0  0  0
  151.4912  139.2899  154.4635 N   0  0  0  0  0  0  0  0  0  0  0  0
  146.4024  131.3616  154.4477 H   0  0  0  0  0  0  0  0  0  0  0  0
  147.0854  130.6363  152.9987 H   0  0  0  0  0  0  0  0  0  0  0  0
  145.5721  131.5304  152.9059 H   0  0  0  0  0  0  0  0  0  0  0  0
  148.6791  132.7113  154.8242 H   0  0  0  0  0  0  0  0  0  0  0  0
  149.3638  133.5785  153.4516 H   0  0  0  0  0  0  0  0  0  0  0  0
  149.2656  131.8281  153.4208 H   0  0  0  0  0  0  0  0  0  0  0  0
  148.0742  132.1904  151.4260 H   0  0  0  0  0  0  0  0  0  0  0  0
  145.5417  134.0741  153.0501 H   0  0  0  0  0  0  0  0  0  0  0  0
  146.2672  133.9219  154.6231 H   0  0  0  0  0  0  0  0  0  0  0  0
  147.9582  135.3497  152.7730 H   0  0  0  0  0  0  0  0  0  0  0  0
  148.4584  137.2493  153.1378 H   0  0  0  0  0  0  0  0  0  0  0  0
  147.6468  138.6616  155.5447 H   0  0  0  0  0  0  0  0  0  0  0  0
  146.5556  139.5206  152.8334 H   0  0  0  0  0  0  0  0  0  0  0  0
  145.6189  139.0047  154.2144 H   0  0  0  0  0  0  0  0  0  0  0  0
  145.6483  141.4875  154.0026 H   0  0  0  0  0  0  0  0  0  0  0  0
  146.3592  140.9707  155.5136 H   0  0  0  0  0  0  0  0  0  0  0  0
  147.8914  141.7910  152.9957 H   0  0  0  0  0  0  0  0  0  0  0  0
  147.7685  142.7193  154.4721 H   0  0  0  0  0  0  0  0  0  0  0  0
  149.9328  141.4875  154.3585 H   0  0  0  0  0  0  0  0  0  0  0  0
  148.9767  140.9893  155.7328 H   0  0  0  0  0  0  0  0  0  0  0  0
  149.2017  139.5284  153.0643 H   0  0  0  0  0  0  0  0  0  0  0  0
  149.3722  137.1665  155.7717 H   0  0  0  0  0  0  0  0  0  0  0  0
  151.9738  136.6118  156.3736 H   0  0  0  0  0  0  0  0  0  0  0  0
  153.3571  138.6361  155.0814 H   0  0  0  0  0  0  0  0  0  0  0  0
  1  2  1  0  0  0  0
  1 21  1  0  0  0  0
  1 22  1  0  0  0  0
  1 23  1  0  0  0  0
  2  3  1  0  0  0  0
  2  4  1  0  0  0  0
  2  5  1  0  0  0  0
  3 24  1  0  0  0  0
  3 25  1  0  0  0  0
  3 26  1  0  0  0  0
  4 27  1  0  0  0  0
  5  6  1  0  0  0  0
  5 28  1  0  0  0  0
  5 29  1  0  0  0  0
  6  7  1  0  0  0  0
  6 30  1  0  0  0  0
  7  8  2  0  0  0  0
  7  9  1  0  0  0  0
  9 10  1  0  0  0  0
  9 31  1  0  0  0  0
 10 15  1  0  0  0  0
 10 11  1  0  0  0  0
 10 32  1  0  0  0  0
 11 12  1  0  0  0  0
 11 33  1  0  0  0  0
 11 34  1  0  0  0  0
 12 13  1  0  0  0  0
 12 35  1  0  0  0  0
 12 36  1  0  0  0  0
 13 14  1  0  0  0  0
 13 37  1  0  0  0  0
 13 38  1  0  0  0  0
 14 15  1  0  0  0  0
 14 39  1  0  0  0  0
 14 40  1  0  0  0  0
 15 16  1  0  0  0  0
 15 41  1  0  0  0  0
 16 20  1  0  0  0  0
 16 17  1  0  0  0  0
 17 18  2  0  0  0  0
 17 42  1  0  0  0  0
 18 19  1  0  0  0  0
 18 43  1  0  0  0  0
 19 20  2  0  0  0  0
 19 44  1  0  0  0  0
M  END
> <s_m_source_file>
AV-unprocessed.smi

> <i_m_source_file_index>
895

> <i_lp_mmshare_version>
43012

> <i_f3d_flags>
0

> <s_epik_input>
W0NIM11DKFtDSDNdKShbT0hdKVtDSDJdW05IXUMoPU8pW05IXVtDQEBIXTFbQ0gyXVtDSDJdW0NIMl1bQ0gyXVtDQEhdMW4yW2NIXVtjSF1bY0hdbjI=

> <s_epik_cmdline>
J2VwaWtfcHl0aG9uJywgJy1waCcsICc3LjAnLCAnLXRuJywgJzgnLCAnLW1hJywgJzIwMCcsICctbWV0YWxfYmluZGluZycsICctaW1hZScsICc8aW5maWxlLm1hZT4nLCAnLW9tYWUnLCAnPG91dGZpbGUubWFlPic=

> <r_lp_tautomer_probability>
1

> <r_epik_Ionization_Penalty>
0.000440451

> <r_epik_Ionization_Penalty_Charging>
0

> <r_epik_Ionization_Penalty_Neutral>
0.000440451

> <r_epik_State_Penalty>
-0

> <r_epik_Charging_Adjusted_Penalty>
0

> <i_epik_Tot_Q>
0

> <i_epik_Tot_abs_Q>
0

> <r_epik_Metal_State_Penalty>
-0

> <b_epik_Metal_Only>
0

> <s_lp_Force_Field>
OPLS_2005

> <r_lp_Energy>
10.7008

> <b_lp_Chiralities_Consistent>
1

> <s_lp_Variant>
AV-unprocessed.smi:895-1

> <Gold.Version>
5.8.1

> <Gold.Id.Protein>
6NUR|6NUR_protein|mol2

> <Gold.PLP.Fitness>
41.2645

> <Gold.PLP.PLP>
-30.2697

> <Gold.PLP.part.hbond>
-3.8339

> <Gold.PLP.part.metal>
0.0000

> <Gold.PLP.part.buried>
-1.7180

> <Gold.PLP.part.nonpolar>
-25.4102

> <Gold.PLP.part.repulsive>
0.1747

> <Gold.PLP.ligand.clash>
0.0000

> <Gold.PLP.ligand.torsion>
0.4410

> <Gold.PLP.Chemscore.Hbond>
3.9440

> <Gold.PLP.Chemscore.CHOScore>
0.0000

> <Gold.PLP.Chemscore.Metal>
0.0000

> <Gold.Chemscore.Hbonds>
donor molecule, donor type, donor heavy atom, donor atom, acceptor molecule, acceptor atom, score
      L1  H     4    27       P1 10747  1.00
      L1  H     6    30       P1  7948  1.00
      L1  H     9    31       P1  7948  0.94
      P1  H  7989  7998       L1    20  1.00

> <Gold.PLP.Chemscore.Internal.Correction>
0.0449

> <Gold.Rescore>
     Score         DG    S(hbond)    S(metal)    S(lipo)     H(rot)  DE(clash)    DE(int)     intcor
     19.11     -20.58       3.89        0.00      66.06       2.19       0.08       1.39       ----

> <Gold.Chemscore.Fitness>
19.1099

> <Gold.Chemscore.DG>
-20.5788

> <Gold.Chemscore.ZeroCoef>
-5.4800

> <Gold.Chemscore.Hbond>
3.8867

> <Gold.Chemscore.Metal>
0.0000

> <Gold.Chemscore.Lipo>
66.0563

> <Gold.Chemscore.Internal_Hbond>
0.0000

> <Gold.Chemscore.DEClash>
0.0757

> <Gold.Chemscore.DEInternal>
1.3931

> <Gold.Chemscore.Rot>
2.1919

> <Gold.Chemscore.Internal.Correction>
   9.000000E+99

> <Gold.Chemscore.Hbonds>
donor molecule, donor type, donor heavy atom, donor atom, acceptor molecule, acceptor atom, score
      L1  H     4    27       P1 10747  0.98
      L1  H     6    30       P1  7948  0.94
      L1  H     9    31       P1  7948  0.91
      P1  H  7989  7998       L1    20  0.95

> <Gold.Chemscore.Hbond.Weighted>
-12.9815

> <Gold.Chemscore.Metal.Weighted>
-0.0000

> <Gold.Chemscore.Lipo.Weighted>
-7.7286

> <Gold.Chemscore.Internal_Hbond.Weighted>
0.0000

> <Gold.Chemscore.DEClash.Weighted>
0.0757

> <Gold.Chemscore.DEInternal.Weighted>
1.3931

> <Gold.Chemscore.Rot.Weighted>
5.6113

> <Gold.Chemscore.Internal.Correction.Weighted>
   9.000000E+99

> <Gold.Protein.RotatedTorsions>
[ 6907 6896 6895 6894 ] final  110.22 input  -60.11 | X-H torsion
[ 7974 7965 7964 7962 ] final -164.76 input  175.53 | X-H torsion
[ 8008 7997 7996 7995 ] final  -99.22 input   59.86 | X-H torsion
[ 10167 10162 10161 10158 ] final  171.75 input  -65.29 | X-H torsion
[ 10718 10713 10712 10709 ] final  114.15 input   66.30 | X-H torsion
[ 10763 10752 10751 10750 ] final   15.01 input  -60.55 | X-H torsion
[ 11005 11000 10999 10996 ] final -142.24 input  -57.11 | X-H torsion

> <Gold.Protein.ActiveResidues>
 VAL166  LYS551  ARG553  GLY616  TRP617  ASP618  TYR619  PRO620  LYS621  CYS622 
 ASP623  PHE694  ASN695  SER759  ASP760  ASP761  ALA762  ILE779  LEU786  VAL792 
 PHE793  MET794  SER795  GLU796  ALA797  LYS798  CYS799  TRP800  GLU811  SER814 

> <Gold.Protein.RotatedAtoms>
  152.5030  133.8831  159.7355 H   0  0  0  0  0  0  0  0  0  0  0  0  # atno 6907 bound_to 6896
  150.9288  133.6782  159.2822 H   0  0  0  0  0  0  0  0  0  0  0  0  # atno 6908 bound_to 6896
  151.4134  135.0993  159.9644 H   0  0  0  0  0  0  0  0  0  0  0  0  # atno 6909 bound_to 6896
  144.7288  140.2914  143.6220 H   0  0  0  0  0  0  0  0  0  0  0  0  # atno 7974 bound_to 7965
  154.8118  140.0449  157.1348 H   0  0  0  0  0  0  0  0  0  0  0  0  # atno 8008 bound_to 7997
  154.9359  140.3046  155.5124 H   0  0  0  0  0  0  0  0  0  0  0  0  # atno 8009 bound_to 7997
  156.2972  140.2314  156.4424 H   0  0  0  0  0  0  0  0  0  0  0  0  # atno 8010 bound_to 7997
  139.5056  144.3451  151.9979 H   0  0  0  0  0  0  0  0  0  0  0  0  # atno 10167 bound_to 10162
  157.6298  131.0994  150.7144 H   0  0  0  0  0  0  0  0  0  0  0  0  # atno 10718 bound_to 10713
  153.1566  135.6788  153.8803 H   0  0  0  0  0  0  0  0  0  0  0  0  # atno 10763 bound_to 10752
  153.8212  135.3130  155.3411 H   0  0  0  0  0  0  0  0  0  0  0  0  # atno 10764 bound_to 10752
  154.7902  135.4839  154.0123 H   0  0  0  0  0  0  0  0  0  0  0  0  # atno 10765 bound_to 10752
  140.8245  134.2591  157.4885 H   0  0  0  0  0  0  0  0  0  0  0  0  # atno 11005 bound_to 11000
  145.7851  139.1906  143.2135 LP  0  0  0  0  0  0  0  0  0  0  0  0  # atno 17320 bound_to 7965
  146.0802  140.7773  142.9645 LP  0  0  0  0  0  0  0  0  0  0  0  0  # atno 17321 bound_to 7965
  140.2888  144.3777  150.6095 LP  0  0  0  0  0  0  0  0  0  0  0  0  # atno 17342 bound_to 10162
  140.5962  143.2167  151.7159 LP  0  0  0  0  0  0  0  0  0  0  0  0  # atno 17343 bound_to 10162
  156.7486  130.4761  149.5461 LP  0  0  0  0  0  0  0  0  0  0  0  0  # atno 17370 bound_to 10713
  156.1493  130.6299  151.0574 LP  0  0  0  0  0  0  0  0  0  0  0  0  # atno 17371 bound_to 10713
  139.8707  134.9553  156.4203 LP  0  0  0  0  0  0  0  0  0  0  0  0  # atno 17394 bound_to 11000
  140.9063  133.7743  155.9739 LP  0  0  0  0  0  0  0  0  0  0  0  0  # atno 17395 bound_to 11000

$$$$
