AV-unprocessed.smi:140|AV-procd|sdf|1186|dock2
  -GOLD-   2262018343D 1   1.00000     0.00000
 Structure written by MMmdl.
 52 55  0  0  0  0  0  0  0  0  1 V2000
  149.5885  133.4172  155.4629 C   0  0  0  0  0  0  0  0  0  0  0  0
  149.1677  134.8425  155.2984 C   0  0  0  0  0  0  0  0  0  0  0  0
  149.8741  135.9860  155.5271 C   0  0  0  0  0  0  0  0  0  0  0  0
  149.0435  137.1005  155.2251 C   0  0  0  0  0  0  0  0  0  0  0  0
  149.3650  138.5459  155.3349 C   0  0  0  0  0  0  0  0  0  0  0  0
  148.5095  139.4320  155.3033 O   0  0  0  0  0  0  0  0  0  0  0  0
  150.8578  138.8875  155.5001 C   0  0  0  0  0  0  0  0  0  0  0  0
  151.1292  139.7082  156.6734 N   0  0  0  0  0  0  0  0  0  0  0  0
  151.5446  139.0531  157.8597 C   0  0  0  0  0  0  0  0  0  0  0  0
  151.6800  137.8298  157.9199 O   0  0  0  0  0  0  0  0  0  0  0  0
  151.7829  139.9430  158.9906 C   0  0  0  0  0  0  0  0  0  0  0  0
  152.1932  139.4310  160.1635 F   0  0  0  0  0  0  0  0  0  0  0  0
  151.5988  141.2767  158.8812 C   0  0  0  0  0  0  0  0  0  0  0  0
  151.1755  141.8881  157.7121 N   0  0  0  0  0  0  0  0  0  0  0  0
  150.9662  143.3839  157.6169 C   0  0  1  0  0  0  0  0  0  0  0  0
  149.9700  143.8604  158.6900 C   0  0  0  0  0  0  0  0  0  0  0  0
  150.7032  145.0209  159.3322 C   0  0  0  0  0  0  0  0  0  0  0  0
  152.1566  144.6057  159.1607 C   0  0  0  0  0  0  0  0  0  0  0  0
  152.1748  144.0493  157.8523 O   0  0  0  0  0  0  0  0  0  0  0  0
  150.9270  141.1050  156.5642 C   0  0  0  0  0  0  0  0  0  0  0  0
  150.5375  141.6275  155.5169 O   0  0  0  0  0  0  0  0  0  0  0  0
  147.8319  136.6059  154.7999 C   0  0  0  0  0  0  0  0  0  0  0  0
  146.5902  137.3185  154.3396 C   0  0  0  0  0  0  0  0  0  0  0  0
  147.9013  135.2125  154.8603 N   0  0  0  0  0  0  0  0  0  0  0  0
  146.8279  134.2849  154.5146 C   0  0  0  0  0  0  0  0  0  0  0  0
  146.7299  134.0243  153.0439 C   0  0  0  0  0  0  0  0  0  0  0  0
  147.0130  132.8642  152.3670 C   0  0  0  0  0  0  0  0  0  0  0  0
  146.8083  132.9697  150.9603 C   0  0  0  0  0  0  0  0  0  0  0  0
  146.3685  134.2093  150.5798 C   0  0  0  0  0  0  0  0  0  0  0  0
  146.1955  135.2738  151.9477 S   0  0  0  0  0  0  0  0  0  0  0  0
  150.6523  133.3513  155.6921 H   0  0  0  0  0  0  0  0  0  0  0  0
  149.4105  132.8459  154.5518 H   0  0  0  0  0  0  0  0  0  0  0  0
  149.0427  132.9419  156.2781 H   0  0  0  0  0  0  0  0  0  0  0  0
  150.8934  136.0152  155.8833 H   0  0  0  0  0  0  0  0  0  0  0  0
  151.4602  137.9809  155.5736 H   0  0  0  0  0  0  0  0  0  0  0  0
  151.2377  139.4156  154.6242 H   0  0  0  0  0  0  0  0  0  0  0  0
  151.7963  141.8747  159.7576 H   0  0  0  0  0  0  0  0  0  0  0  0
  150.6450  143.5758  156.5916 H   0  0  0  0  0  0  0  0  0  0  0  0
  149.0173  144.1454  158.2425 H   0  0  0  0  0  0  0  0  0  0  0  0
  149.7961  143.0693  159.4213 H   0  0  0  0  0  0  0  0  0  0  0  0
  150.5094  145.9408  158.7792 H   0  0  0  0  0  0  0  0  0  0  0  0
  150.4244  145.1804  160.3741 H   0  0  0  0  0  0  0  0  0  0  0  0
  152.8494  145.4424  159.2503 H   0  0  0  0  0  0  0  0  0  0  0  0
  152.4320  143.8488  159.8964 H   0  0  0  0  0  0  0  0  0  0  0  0
  146.8382  138.1161  153.6395 H   0  0  0  0  0  0  0  0  0  0  0  0
  146.0683  137.7641  155.1864 H   0  0  0  0  0  0  0  0  0  0  0  0
  145.8899  136.6654  153.8229 H   0  0  0  0  0  0  0  0  0  0  0  0
  146.9722  133.3430  155.0425 H   0  0  0  0  0  0  0  0  0  0  0  0
  145.8879  134.6840  154.8963 H   0  0  0  0  0  0  0  0  0  0  0  0
  147.3608  131.9517  152.8283 H   0  0  0  0  0  0  0  0  0  0  0  0
  146.9889  132.1445  150.2872 H   0  0  0  0  0  0  0  0  0  0  0  0
  146.1367  134.5607  149.5852 H   0  0  0  0  0  0  0  0  0  0  0  0
  1  2  1  0  0  0  0
  1 31  1  0  0  0  0
  1 32  1  0  0  0  0
  1 33  1  0  0  0  0
  2 24  1  0  0  0  0
  2  3  2  0  0  0  0
  3  4  1  0  0  0  0
  3 34  1  0  0  0  0
  4  5  1  0  0  0  0
  4 22  2  0  0  0  0
  5  6  2  0  0  0  0
  5  7  1  0  0  0  0
  7  8  1  0  0  0  0
  7 35  1  0  0  0  0
  7 36  1  0  0  0  0
  8 20  1  0  0  0  0
  8  9  1  0  0  0  0
  9 10  2  0  0  0  0
  9 11  1  0  0  0  0
 11 12  1  0  0  0  0
 11 13  2  0  0  0  0
 13 14  1  0  0  0  0
 13 37  1  0  0  0  0
 14 15  1  0  0  0  0
 14 20  1  0  0  0  0
 15 19  1  0  0  0  0
 15 16  1  0  0  0  0
 15 38  1  0  0  0  0
 16 17  1  0  0  0  0
 16 39  1  0  0  0  0
 16 40  1  0  0  0  0
 17 18  1  0  0  0  0
 17 41  1  0  0  0  0
 17 42  1  0  0  0  0
 18 19  1  0  0  0  0
 18 43  1  0  0  0  0
 18 44  1  0  0  0  0
 20 21  2  0  0  0  0
 22 23  1  0  0  0  0
 22 24  1  0  0  0  0
 23 45  1  0  0  0  0
 23 46  1  0  0  0  0
 23 47  1  0  0  0  0
 24 25  1  0  0  0  0
 25 26  1  0  0  0  0
 25 48  1  0  0  0  0
 25 49  1  0  0  0  0
 26 30  1  0  0  0  0
 26 27  2  0  0  0  0
 27 28  1  0  0  0  0
 27 50  1  0  0  0  0
 28 29  2  0  0  0  0
 28 51  1  0  0  0  0
 29 30  1  0  0  0  0
 29 52  1  0  0  0  0
M  END
> <s_m_source_file>
AV-unprocessed.smi

> <i_m_source_file_index>
140

> <i_lp_mmshare_version>
43012

> <i_f3d_flags>
0

> <s_epik_input>
czFbY0hdW2NIXVtjSF1jMVtDSDJdbjJjKFtDSDNdKWMoW2NIXWMyW0NIM10pQyg9TylbQ0gyXW4zYyg9TyljKEYpW2NIXW4oYzM9TylbQ0BASF00W0NIMl1bQ0gyXVtDSDJdTzQ=

> <s_epik_cmdline>
J2VwaWtfcHl0aG9uJywgJy1waCcsICc3LjAnLCAnLXRuJywgJzgnLCAnLW1hJywgJzIwMCcsICctbWV0YWxfYmluZGluZycsICctaW1hZScsICc8aW5maWxlLm1hZT4nLCAnLW9tYWUnLCAnPG91dGZpbGUubWFlPic=

> <r_lp_tautomer_probability>
1

> <r_epik_Ionization_Penalty>
5.024e-09

> <r_epik_Ionization_Penalty_Charging>
5.01743e-09

> <r_epik_Ionization_Penalty_Neutral>
6.5712e-12

> <r_epik_State_Penalty>
-0

> <r_epik_Charging_Adjusted_Penalty>
5.01743e-09

> <i_epik_Tot_Q>
0

> <i_epik_Tot_abs_Q>
0

> <r_epik_Metal_State_Penalty>
-0

> <b_epik_Metal_Only>
0

> <s_epik_Chemistry_Notes>
This compound contains an acetal/aminal-like group ( X-CH(R)-Y where X, Y are N, S, or O) that may be acid/base labile, releasing an aldehyde.

> <s_lp_Force_Field>
OPLS_2005

> <r_lp_Energy>
38.6163

> <b_lp_Chiralities_Consistent>
1

> <s_lp_Variant>
AV-unprocessed.smi:140-2

> <Gold.Version>
5.8.1

> <Gold.Id.Protein>
6NUR|6NUR_protein|mol2

> <Gold.PLP.Fitness>
46.8765

> <Gold.PLP.PLP>
-45.5303

> <Gold.PLP.part.hbond>
-0.3449

> <Gold.PLP.part.metal>
0.0000

> <Gold.PLP.part.buried>
-4.7830

> <Gold.PLP.part.nonpolar>
-41.0976

> <Gold.PLP.part.repulsive>
0.2207

> <Gold.PLP.ligand.clash>
0.0000

> <Gold.PLP.ligand.torsion>
0.8620

> <Gold.PLP.Chemscore.Hbond>
0.0000

> <Gold.PLP.Chemscore.CHOScore>
1.0000

> <Gold.PLP.Chemscore.Metal>
0.0000

> <Gold.Chemscore.Hbonds>
donor molecule, donor type, donor heavy atom, donor atom, acceptor molecule, acceptor atom, score
      P1  H  7989  7998       L1    21  0.04
      L1  C    29    52       P1  7921  0.82

> <Gold.PLP.Chemscore.Internal.Correction>
0.0702

> <Gold.Rescore>
     Score         DG    S(hbond)    S(metal)    S(lipo)     H(rot)  DE(clash)    DE(int)     intcor
      9.79     -13.15       0.25        0.00      99.47       1.87       0.40       2.96       ----

> <Gold.Chemscore.Fitness>
9.7884

> <Gold.Chemscore.DG>
-13.1455

> <Gold.Chemscore.ZeroCoef>
-5.4800

> <Gold.Chemscore.Hbond>
0.2451

> <Gold.Chemscore.Metal>
0.0000

> <Gold.Chemscore.Lipo>
99.4650

> <Gold.Chemscore.Internal_Hbond>
0.0000

> <Gold.Chemscore.DEClash>
0.3963

> <Gold.Chemscore.DEInternal>
2.9608

> <Gold.Chemscore.Rot>
1.8713

> <Gold.Chemscore.Internal.Correction>
   9.000000E+99

> <Gold.Chemscore.Hbonds>
donor molecule, donor type, donor heavy atom, donor atom, acceptor molecule, acceptor atom, score
      P1  H  7989  7998       L1    21  0.05

> <Gold.Chemscore.Hbond.Weighted>
-0.8185

> <Gold.Chemscore.Metal.Weighted>
-0.0000

> <Gold.Chemscore.Lipo.Weighted>
-11.6374

> <Gold.Chemscore.Internal_Hbond.Weighted>
0.0000

> <Gold.Chemscore.DEClash.Weighted>
0.3963

> <Gold.Chemscore.DEInternal.Weighted>
2.9608

> <Gold.Chemscore.Rot.Weighted>
4.7905

> <Gold.Chemscore.Internal.Correction.Weighted>
   9.000000E+99

> <Gold.Protein.RotatedTorsions>
[ 6907 6896 6895 6894 ] final -147.26 input  -60.11 | X-H torsion
[ 7974 7965 7964 7962 ] final  -11.32 input  175.53 | X-H torsion
[ 8008 7997 7996 7995 ] final -144.21 input   59.86 | X-H torsion
[ 10167 10162 10161 10158 ] final  125.50 input  -65.29 | X-H torsion
[ 10718 10713 10712 10709 ] final   79.36 input   66.30 | X-H torsion
[ 10763 10752 10751 10750 ] final -136.93 input  -60.55 | X-H torsion
[ 11005 11000 10999 10996 ] final   51.80 input  -57.11 | X-H torsion

> <Gold.Protein.ActiveResidues>
 VAL166  LYS551  ARG553  GLY616  TRP617  ASP618  TYR619  PRO620  LYS621  CYS622 
 ASP623  PHE694  ASN695  SER759  ASP760  ASP761  ALA762  ILE779  LEU786  VAL792 
 PHE793  MET794  SER795  GLU796  ALA797  LYS798  CYS799  TRP800  GLU811  SER814 

> <Gold.Protein.RotatedAtoms>
  151.1532  133.4893  159.2594 H   0  0  0  0  0  0  0  0  0  0  0  0  # atno 6907 bound_to 6896
  151.1532  135.0237  159.8687 H   0  0  0  0  0  0  0  0  0  0  0  0  # atno 6908 bound_to 6896
  152.5463  134.1414  159.8533 H   0  0  0  0  0  0  0  0  0  0  0  0  # atno 6909 bound_to 6896
  146.2191  140.2894  142.8367 H   0  0  0  0  0  0  0  0  0  0  0  0  # atno 7974 bound_to 7965
  155.5232  140.0593  157.2903 H   0  0  0  0  0  0  0  0  0  0  0  0  # atno 8008 bound_to 7997
  154.4510  140.1949  156.0465 H   0  0  0  0  0  0  0  0  0  0  0  0  # atno 8009 bound_to 7997
  156.0704  140.3261  155.7573 H   0  0  0  0  0  0  0  0  0  0  0  0  # atno 8010 bound_to 7997
  139.5682  144.6924  151.3851 H   0  0  0  0  0  0  0  0  0  0  0  0  # atno 10167 bound_to 10162
  157.6774  130.9911  150.1922 H   0  0  0  0  0  0  0  0  0  0  0  0  # atno 10718 bound_to 10713
  154.8673  135.3658  154.5140 H   0  0  0  0  0  0  0  0  0  0  0  0  # atno 10763 bound_to 10752
  153.5773  135.7019  153.5483 H   0  0  0  0  0  0  0  0  0  0  0  0  # atno 10764 bound_to 10752
  153.3488  135.4078  155.1592 H   0  0  0  0  0  0  0  0  0  0  0  0  # atno 10765 bound_to 10752
  140.0903  134.5219  155.8859 H   0  0  0  0  0  0  0  0  0  0  0  0  # atno 11005 bound_to 11000
  144.9138  140.7788  143.5791 LP  0  0  0  0  0  0  0  0  0  0  0  0  # atno 17320 bound_to 7965
  145.2827  139.1912  143.4782 LP  0  0  0  0  0  0  0  0  0  0  0  0  # atno 17321 bound_to 7965
  140.6966  143.7734  150.7336 LP  0  0  0  0  0  0  0  0  0  0  0  0  # atno 17342 bound_to 10162
  140.1232  143.4593  152.2300 LP  0  0  0  0  0  0  0  0  0  0  0  0  # atno 17343 bound_to 10162
  156.2631  130.3713  149.8110 LP  0  0  0  0  0  0  0  0  0  0  0  0  # atno 17370 bound_to 10713
  156.5849  130.8481  151.3393 LP  0  0  0  0  0  0  0  0  0  0  0  0  # atno 17371 bound_to 10713
  141.2075  133.6665  156.6313 LP  0  0  0  0  0  0  0  0  0  0  0  0  # atno 17394 bound_to 11000
  140.3362  134.7887  157.4364 LP  0  0  0  0  0  0  0  0  0  0  0  0  # atno 17395 bound_to 11000

$$$$
