AV-unprocessed.smi:72|AV-procd|sdf|752|dock10
  -GOLD-   2262017 93D 1   1.00000     0.00000
 Structure written by MMmdl.
 29 30  0  0  0  0  0  0  0  0  1 V2000
  152.9722  141.0405  158.9599 N   0  0  0  0  0  0  0  0  0  0  0  0
  152.1072  141.0559  157.8863 C   0  0  0  0  0  0  0  0  0  0  0  0
  151.0080  141.9189  157.9847 N   0  0  0  0  0  0  0  0  0  0  0  0
  150.2009  141.9484  156.9722 C   0  0  0  0  0  0  0  0  0  0  0  0
  150.4454  141.1456  155.7832 N   0  0  0  0  0  0  0  0  0  0  0  0
  149.5038  141.1354  154.5874 C   0  0  1  0  0  0  0  0  0  0  0  0
  149.2080  139.8235  154.2109 O   0  0  0  0  0  0  0  0  0  0  0  0
  148.0075  139.4033  154.8475 C   0  0  2  0  0  0  0  0  0  0  0  0
  147.4161  138.1952  154.1062 C   0  0  0  0  0  0  0  0  0  0  0  0
  148.1514  137.0313  154.4189 O   0  0  0  0  0  0  0  0  0  0  0  0
  147.1440  140.6628  154.7605 C   0  0  1  0  0  0  0  0  0  0  0  0
  146.1948  140.6800  155.8075 O   0  0  0  0  0  0  0  0  0  0  0  0
  148.1504  141.8008  154.9258 C   0  0  2  0  0  0  0  0  0  0  0  0
  147.8486  142.8500  154.0287 O   0  0  0  0  0  0  0  0  0  0  0  0
  151.5536  140.2520  155.7789 C   0  0  0  0  0  0  0  0  0  0  0  0
  151.7420  139.5055  154.8183 O   0  0  0  0  0  0  0  0  0  0  0  0
  152.3987  140.2651  156.8944 N   0  0  0  0  0  0  0  0  0  0  0  0
  150.0655  141.6300  153.7928 H   0  0  0  0  0  0  0  0  0  0  0  0
  148.2022  139.1622  155.8943 H   0  0  0  0  0  0  0  0  0  0  0  0
  146.6460  140.7133  153.7905 H   0  0  0  0  0  0  0  0  0  0  0  0
  148.1602  142.1786  155.9496 H   0  0  0  0  0  0  0  0  0  0  0  0
  153.7952  140.4571  159.0015 H   0  0  0  0  0  0  0  0  0  0  0  0
  152.8440  141.6073  159.7854 H   0  0  0  0  0  0  0  0  0  0  0  0
  149.3036  142.5670  156.9576 H   0  0  0  0  0  0  0  0  0  0  0  0
  146.3869  138.0271  154.4249 H   0  0  0  0  0  0  0  0  0  0  0  0
  147.4001  138.3580  153.0283 H   0  0  0  0  0  0  0  0  0  0  0  0
  148.4007  136.6070  153.6121 H   0  0  0  0  0  0  0  0  0  0  0  0
  145.6008  139.9552  155.6839 H   0  0  0  0  0  0  0  0  0  0  0  0
  147.9144  143.6702  154.4935 H   0  0  0  0  0  0  0  0  0  0  0  0
  1  2  1  0  0  0  0
  1 22  1  0  0  0  0
  1 23  1  0  0  0  0
  2 17  2  0  0  0  0
  2  3  1  0  0  0  0
  3  4  2  0  0  0  0
  4  5  1  0  0  0  0
  4 24  1  0  0  0  0
  5  6  1  0  0  0  0
  5 15  1  0  0  0  0
  6 18  1  0  0  0  0
  6 13  1  0  0  0  0
  6  7  1  0  0  0  0
  7  8  1  0  0  0  0
  8 19  1  0  0  0  0
  8  9  1  0  0  0  0
  8 11  1  0  0  0  0
  9 10  1  0  0  0  0
  9 25  1  0  0  0  0
  9 26  1  0  0  0  0
 10 27  1  0  0  0  0
 11 20  1  0  0  0  0
 11 12  1  0  0  0  0
 11 13  1  0  0  0  0
 12 28  1  0  0  0  0
 13 21  1  0  0  0  0
 13 14  1  0  0  0  0
 14 29  1  0  0  0  0
 15 16  2  0  0  0  0
 15 17  1  0  0  0  0
M  END
> <s_m_source_file>
AV-unprocessed.smi

> <i_m_source_file_index>
72

> <i_lp_mmshare_version>
43012

> <i_f3d_flags>
0

> <s_epik_input>
W05IMl1jMW5bY0hdbihjKD1PKW4xKVtDQEBIXTJPW0NASF0oW0NIMl1bT0hdKVtDQEBIXShbT0hdKVtDQEhdMltPSF0=

> <s_epik_cmdline>
J2VwaWtfcHl0aG9uJywgJy1waCcsICc3LjAnLCAnLXRuJywgJzgnLCAnLW1hJywgJzIwMCcsICctbWV0YWxfYmluZGluZycsICctaW1hZScsICc8aW5maWxlLm1hZT4nLCAnLW9tYWUnLCAnPG91dGZpbGUubWFlPic=

> <r_lp_tautomer_probability>
4.77166e-05

> <r_epik_Ionization_Penalty>
1.3546

> <r_epik_Ionization_Penalty_Charging>
1.46833e-10

> <r_epik_Ionization_Penalty_Neutral>
1.3546

> <r_epik_State_Penalty>
3.51908

> <r_epik_Charging_Adjusted_Penalty>
3.51908

> <i_epik_Tot_Q>
0

> <i_epik_Tot_abs_Q>
0

> <r_epik_Metal_State_Penalty>
3.44088

> <b_epik_Metal_Only>
1

> <s_epik_Chemistry_Notes>
This compound contains an acetal/aminal-like group ( X-CH(R)-Y where X, Y are N, S, or O) that may be acid/base labile, releasing an aldehyde.

> <s_lp_Force_Field>
OPLS_2005

> <r_lp_Energy>
23.1081

> <b_lp_Chiralities_Consistent>
1

> <s_lp_Variant>
AV-unprocessed.smi:72-90

> <Gold.Version>
5.8.1

> <Gold.Id.Protein>
6NUR|6NUR_protein|mol2

> <Gold.PLP.Fitness>
36.3689

> <Gold.PLP.PLP>
-23.0014

> <Gold.PLP.part.hbond>
-6.0000

> <Gold.PLP.part.metal>
0.0000

> <Gold.PLP.part.buried>
0.1294

> <Gold.PLP.part.nonpolar>
-16.4446

> <Gold.PLP.part.repulsive>
0.7383

> <Gold.PLP.ligand.clash>
0.0000

> <Gold.PLP.ligand.torsion>
0.4340

> <Gold.PLP.Chemscore.Hbond>
3.8000

> <Gold.PLP.Chemscore.CHOScore>
0.9311

> <Gold.PLP.Chemscore.Metal>
0.0000

> <Gold.Chemscore.Hbonds>
donor molecule, donor type, donor heavy atom, donor atom, acceptor molecule, acceptor atom, score
      L1  H    10    27       P1  7948  1.00
      L1  H    14    29       P1  8028  0.98
      P1  H  7989  7998       L1    16  0.80
      P1  H  7997  8008       L1    17  0.98
      L1  C     4    24       P1  8028  0.94

> <Gold.PLP.Chemscore.Internal.Correction>
0.0422

> <Gold.Rescore>
     Score         DG    S(hbond)    S(metal)    S(lipo)     H(rot)  DE(clash)    DE(int)     intcor
      3.94      -5.84       2.72        0.00      14.33       4.06       0.05       1.86       ----

> <Gold.Chemscore.Fitness>
3.9378

> <Gold.Chemscore.DG>
-5.8434

> <Gold.Chemscore.ZeroCoef>
-5.4800

> <Gold.Chemscore.Hbond>
2.7189

> <Gold.Chemscore.Metal>
0.0000

> <Gold.Chemscore.Lipo>
14.3252

> <Gold.Chemscore.Internal_Hbond>
0.0000

> <Gold.Chemscore.DEClash>
0.0457

> <Gold.Chemscore.DEInternal>
1.8600

> <Gold.Chemscore.Rot>
4.0600

> <Gold.Chemscore.Internal.Correction>
   9.000000E+99

> <Gold.Chemscore.Hbonds>
donor molecule, donor type, donor heavy atom, donor atom, acceptor molecule, acceptor atom, score
      L1  H    10    27       P1  7948  1.00
      L1  H    14    29       P1  8028  0.52
      P1  H  7989  7998       L1    16  0.12
      P1  H  7997  8008       L1    17  0.68

> <Gold.Chemscore.Hbond.Weighted>
-9.0810

> <Gold.Chemscore.Metal.Weighted>
-0.0000

> <Gold.Chemscore.Lipo.Weighted>
-1.6760

> <Gold.Chemscore.Internal_Hbond.Weighted>
0.0000

> <Gold.Chemscore.DEClash.Weighted>
0.0457

> <Gold.Chemscore.DEInternal.Weighted>
1.8600

> <Gold.Chemscore.Rot.Weighted>
10.3936

> <Gold.Chemscore.Internal.Correction.Weighted>
   9.000000E+99

> <Gold.Protein.RotatedTorsions>
[ 6907 6896 6895 6894 ] final  -34.06 input  -60.11 | X-H torsion
[ 7974 7965 7964 7962 ] final   47.61 input  175.53 | X-H torsion
[ 8008 7997 7996 7995 ] final  -43.61 input   59.86 | X-H torsion
[ 10167 10162 10161 10158 ] final  151.34 input  -65.29 | X-H torsion
[ 10718 10713 10712 10709 ] final   76.51 input   66.30 | X-H torsion
[ 10763 10752 10751 10750 ] final -143.84 input  -60.55 | X-H torsion
[ 11005 11000 10999 10996 ] final -125.13 input  -57.11 | X-H torsion

> <Gold.Protein.ActiveResidues>
 VAL166  LYS551  ARG553  GLY616  TRP617  ASP618  TYR619  PRO620  LYS621  CYS622 
 ASP623  PHE694  ASN695  SER759  ASP760  ASP761  ALA762  ILE779  LEU786  VAL792 
 PHE793  MET794  SER795  GLU796  ALA797  LYS798  CYS799  TRP800  GLU811  SER814 

> <Gold.Protein.RotatedAtoms>
  151.0574  134.9714  159.8242 H   0  0  0  0  0  0  0  0  0  0  0  0  # atno 6907 bound_to 6896
  152.5390  134.2460  159.8890 H   0  0  0  0  0  0  0  0  0  0  0  0  # atno 6908 bound_to 6896
  151.2478  133.4322  159.2644 H   0  0  0  0  0  0  0  0  0  0  0  0  # atno 6909 bound_to 6896
  146.0282  139.4731  142.9854 H   0  0  0  0  0  0  0  0  0  0  0  0  # atno 7974 bound_to 7965
  154.3997  140.1443  156.3548 H   0  0  0  0  0  0  0  0  0  0  0  0  # atno 8008 bound_to 7997
  155.8236  140.3468  155.5508 H   0  0  0  0  0  0  0  0  0  0  0  0  # atno 8009 bound_to 7997
  155.8262  140.0905  157.1810 H   0  0  0  0  0  0  0  0  0  0  0  0  # atno 8010 bound_to 7997
  139.4841  144.5448  151.7502 H   0  0  0  0  0  0  0  0  0  0  0  0  # atno 10167 bound_to 10162
  157.6676  130.9778  150.1508 H   0  0  0  0  0  0  0  0  0  0  0  0  # atno 10718 bound_to 10713
  154.8453  135.3457  154.6251 H   0  0  0  0  0  0  0  0  0  0  0  0  # atno 10763 bound_to 10752
  153.6860  135.6977  153.5108 H   0  0  0  0  0  0  0  0  0  0  0  0  # atno 10764 bound_to 10752
  153.2631  135.4316  155.0870 H   0  0  0  0  0  0  0  0  0  0  0  0  # atno 10765 bound_to 10752
  140.9786  134.0705  157.3790 H   0  0  0  0  0  0  0  0  0  0  0  0  # atno 11005 bound_to 11000
  145.7084  141.0114  143.1467 LP  0  0  0  0  0  0  0  0  0  0  0  0  # atno 17320 bound_to 7965
  144.7018  139.8727  143.7442 LP  0  0  0  0  0  0  0  0  0  0  0  0  # atno 17321 bound_to 7965
  140.4993  144.1193  150.5967 LP  0  0  0  0  0  0  0  0  0  0  0  0  # atno 17342 bound_to 10162
  140.4080  143.2670  151.9867 LP  0  0  0  0  0  0  0  0  0  0  0  0  # atno 17343 bound_to 10162
  156.2307  130.3682  149.8448 LP  0  0  0  0  0  0  0  0  0  0  0  0  # atno 17370 bound_to 10713
  156.6275  130.8652  151.3488 LP  0  0  0  0  0  0  0  0  0  0  0  0  # atno 17371 bound_to 10713
  139.8941  135.0134  156.6932 LP  0  0  0  0  0  0  0  0  0  0  0  0  # atno 17394 bound_to 11000
  140.7221  133.9132  155.8154 LP  0  0  0  0  0  0  0  0  0  0  0  0  # atno 17395 bound_to 11000

$$$$
