AV-unprocessed.smi:3150|AV-procd|sdf|12014|dock7
  -GOLD-   2272017423D 1   1.00000     0.00000
 Structure written by MMmdl.
 32 33  0  0  0  0  0  0  0  0  2 V2000
  147.9821  137.9728  156.7811 C   0  0  0  0  0  0  0  0  0  0  0  0
  149.0814  138.2647  157.8137 C   0  0  1  0  0  0  0  0  0  0  0  0
  148.7262  139.4666  158.4930 O   0  0  0  0  0  0  0  0  0  0  0  0
  148.6922  140.6355  157.6829 C   0  0  0  0  0  0  0  0  0  0  0  0
  150.1064  141.1404  157.4951 C   0  0  0  0  0  0  0  0  0  0  0  0
  150.3955  142.2432  156.5019 C   0  0  0  0  0  0  0  0  0  0  0  0
  150.8707  140.8397  156.2253 C   0  0  0  0  0  0  0  0  0  0  0  0
  149.2359  137.1090  158.8164 C   0  0  0  0  0  0  0  0  0  0  0  0
  150.3059  136.5029  158.8907 O   0  0  0  0  0  0  0  0  0  0  0  0
  148.1438  136.8297  159.5516 N   0  0  0  0  0  0  0  0  0  0  0  0
  147.9667  135.8211  160.5384 C   0  0  0  0  0  0  0  0  0  0  0  0
  148.4647  134.5657  160.4068 N   0  0  0  0  0  0  0  0  0  0  0  0
  148.2534  133.6646  161.3882 C   0  0  0  0  0  0  0  0  0  0  0  0
  147.5345  133.9558  162.5607 C   0  0  0  0  0  0  0  0  0  0  0  0
  147.0121  135.2521  162.7113 C   0  0  0  0  0  0  0  0  0  0  0  0
  147.2282  136.1996  161.6908 C   0  0  0  0  0  0  0  0  0  0  0  0
  146.7178  137.4613  161.8377 O   0  5  0  0  0  0  0  0  0  0  0  0
  148.1850  137.0501  156.2366 H   0  0  0  0  0  0  0  0  0  0  0  0
  147.9167  138.7784  156.0496 H   0  0  0  0  0  0  0  0  0  0  0  0
  147.0030  137.8772  157.2522 H   0  0  0  0  0  0  0  0  0  0  0  0
  150.0201  138.4162  157.2768 H   0  0  0  0  0  0  0  0  0  0  0  0
  148.2463  140.4374  156.7075 H   0  0  0  0  0  0  0  0  0  0  0  0
  148.1025  141.4138  158.1685 H   0  0  0  0  0  0  0  0  0  0  0  0
  150.6894  141.1686  158.4138 H   0  0  0  0  0  0  0  0  0  0  0  0
  149.5668  142.6182  155.9044 H   0  0  0  0  0  0  0  0  0  0  0  0
  151.1445  142.9831  156.7765 H   0  0  0  0  0  0  0  0  0  0  0  0
  151.9366  140.6411  156.3173 H   0  0  0  0  0  0  0  0  0  0  0  0
  150.3579  140.2790  155.4462 H   0  0  0  0  0  0  0  0  0  0  0  0
  147.3279  137.4002  159.3822 H   0  0  0  0  0  0  0  0  0  0  0  0
  148.6711  132.6809  161.2327 H   0  0  0  0  0  0  0  0  0  0  0  0
  147.3875  133.2056  163.3232 H   0  0  0  0  0  0  0  0  0  0  0  0
  146.4532  135.5137  163.5982 H   0  0  0  0  0  0  0  0  0  0  0  0
  1  2  1  0  0  0  0
  1 18  1  0  0  0  0
  1 19  1  0  0  0  0
  1 20  1  0  0  0  0
  2  3  1  0  0  0  0
  2  8  1  0  0  0  0
  2 21  1  0  0  0  0
  3  4  1  0  0  0  0
  4  5  1  0  0  0  0
  4 22  1  0  0  0  0
  4 23  1  0  0  0  0
  5  7  1  0  0  0  0
  5  6  1  0  0  0  0
  5 24  1  0  0  0  0
  6  7  1  0  0  0  0
  6 25  1  0  0  0  0
  6 26  1  0  0  0  0
  7 27  1  0  0  0  0
  7 28  1  0  0  0  0
  8  9  2  0  0  0  0
  8 10  1  0  0  0  0
 10 29  1  0  0  0  0
 10 11  1  0  0  0  0
 11 16  2  0  0  0  0
 11 12  1  0  0  0  0
 12 13  2  0  0  0  0
 13 30  1  0  0  0  0
 13 14  1  0  0  0  0
 14 31  1  0  0  0  0
 14 15  2  0  0  0  0
 15 16  1  0  0  0  0
 15 32  1  0  0  0  0
 16 17  1  0  0  0  0
M  CHG  1  17  -1
M  END
> <s_m_source_file>
AV-unprocessed.smi

> <i_m_source_file_index>
3150

> <i_lp_mmshare_version>
43012

> <i_f3d_flags>
0

> <s_epik_input>
W0NIMl0xW0NIMl1bQ0hdMVtDSDJdT1tDQEBIXShbQ0gzXSlDKD1PKVtOSF1jMm5bY0hdW2NIXVtjSF1jMltPSF0=

> <s_epik_cmdline>
J2VwaWtfcHl0aG9uJywgJy1waCcsICc3LjAnLCAnLXRuJywgJzgnLCAnLW1hJywgJzIwMCcsICctbWV0YWxfYmluZGluZycsICctaW1hZScsICc8aW5maWxlLm1hZT4nLCAnLW9tYWUnLCAnPG91dGZpbGUubWFlPic=

> <r_epik_Ionization_Penalty>
4.12024

> <r_epik_Ionization_Penalty_Charging>
2.08551

> <r_epik_Ionization_Penalty_Neutral>
2.03473

> <r_epik_State_Penalty>
2.65726

> <r_epik_Charging_Adjusted_Penalty>
4.74277

> <i_epik_Tot_Q>
-1

> <i_epik_Tot_abs_Q>
1

> <r_epik_Metal_State_Penalty>
0.600747

> <b_epik_Metal_Only>
0

> <s_lp_Force_Field>
OPLS_2005

> <r_lp_Energy>
13.8702

> <b_lp_Chiralities_Consistent>
1

> <s_lp_Variant>
AV-unprocessed.smi:3150-8

> <Gold.Version>
5.8.1

> <Gold.Id.Protein>
6NUR|6NUR_protein|mol2

> <Gold.PLP.Fitness>
40.8838

> <Gold.PLP.PLP>
-30.2043

> <Gold.PLP.part.hbond>
-3.7747

> <Gold.PLP.part.metal>
0.0000

> <Gold.PLP.part.buried>
-4.0434

> <Gold.PLP.part.nonpolar>
-22.6879

> <Gold.PLP.part.repulsive>
0.1652

> <Gold.PLP.ligand.clash>
0.0000

> <Gold.PLP.ligand.torsion>
0.7278

> <Gold.PLP.Chemscore.Hbond>
3.8480

> <Gold.PLP.Chemscore.CHOScore>
0.0000

> <Gold.PLP.Chemscore.Metal>
0.0000

> <Gold.Chemscore.Hbonds>
donor molecule, donor type, donor heavy atom, donor atom, acceptor molecule, acceptor atom, score
      P1  H  6896  6908       L1     9  1.00
      P1  H  6934  6947       L1    17  1.76

> <Gold.PLP.Chemscore.Internal.Correction>
0.5910

> <Gold.Rescore>
     Score         DG    S(hbond)    S(metal)    S(lipo)     H(rot)  DE(clash)    DE(int)     intcor
     14.45     -16.00       2.51        0.00      54.02       1.64       0.00       1.55       ----

> <Gold.Chemscore.Fitness>
14.4482

> <Gold.Chemscore.DG>
-15.9973

> <Gold.Chemscore.ZeroCoef>
-5.4800

> <Gold.Chemscore.Hbond>
2.5127

> <Gold.Chemscore.Metal>
0.0000

> <Gold.Chemscore.Lipo>
54.0181

> <Gold.Chemscore.Internal_Hbond>
0.0000

> <Gold.Chemscore.DEClash>
0.0000

> <Gold.Chemscore.DEInternal>
1.5491

> <Gold.Chemscore.Rot>
1.6387

> <Gold.Chemscore.Internal.Correction>
   9.000000E+99

> <Gold.Chemscore.Hbonds>
donor molecule, donor type, donor heavy atom, donor atom, acceptor molecule, acceptor atom, score
      P1  H  6896  6908       L1     9  0.97
      P1  H  6934  6947       L1    17  0.86

> <Gold.Chemscore.Hbond.Weighted>
-8.3923

> <Gold.Chemscore.Metal.Weighted>
-0.0000

> <Gold.Chemscore.Lipo.Weighted>
-6.3201

> <Gold.Chemscore.Internal_Hbond.Weighted>
0.0000

> <Gold.Chemscore.DEClash.Weighted>
0.0000

> <Gold.Chemscore.DEInternal.Weighted>
1.5491

> <Gold.Chemscore.Rot.Weighted>
4.1950

> <Gold.Chemscore.Internal.Correction.Weighted>
   9.000000E+99

> <Gold.Protein.RotatedTorsions>
[ 6907 6896 6895 6894 ] final -171.50 input  -60.11 | X-H torsion
[ 7974 7965 7964 7962 ] final    7.54 input  175.53 | X-H torsion
[ 8008 7997 7996 7995 ] final -113.40 input   59.86 | X-H torsion
[ 10167 10162 10161 10158 ] final -114.14 input  -65.29 | X-H torsion
[ 10718 10713 10712 10709 ] final   95.68 input   66.30 | X-H torsion
[ 10763 10752 10751 10750 ] final  -83.26 input  -60.55 | X-H torsion
[ 11005 11000 10999 10996 ] final  -78.46 input  -57.11 | X-H torsion

> <Gold.Protein.ActiveResidues>
 VAL166  LYS551  ARG553  GLY616  TRP617  ASP618  TYR619  PRO620  LYS621  CYS622 
 ASP623  PHE694  ASN695  SER759  ASP760  ASP761  ALA762  ILE779  LEU786  VAL792 
 PHE793  MET794  SER795  GLU796  ALA797  LYS798  CYS799  TRP800  GLU811  SER814 

> <Gold.Protein.RotatedAtoms>
  151.5248  133.3460  159.2907 H   0  0  0  0  0  0  0  0  0  0  0  0  # atno 6907 bound_to 6896
  150.8630  134.7988  159.7108 H   0  0  0  0  0  0  0  0  0  0  0  0  # atno 6908 bound_to 6896
  152.4643  134.5120  159.9808 H   0  0  0  0  0  0  0  0  0  0  0  0  # atno 6909 bound_to 6896
  146.2425  140.0068  142.8410 H   0  0  0  0  0  0  0  0  0  0  0  0  # atno 7974 bound_to 7965
  155.0201  140.0393  157.2434 H   0  0  0  0  0  0  0  0  0  0  0  0  # atno 8008 bound_to 7997
  154.7385  140.2744  155.6370 H   0  0  0  0  0  0  0  0  0  0  0  0  # atno 8009 bound_to 7997
  156.2859  140.2670  156.2106 H   0  0  0  0  0  0  0  0  0  0  0  0  # atno 8010 bound_to 7997
  140.1042  143.4586  152.1793 H   0  0  0  0  0  0  0  0  0  0  0  0  # atno 10167 bound_to 10162
  157.6936  131.0553  150.4376 H   0  0  0  0  0  0  0  0  0  0  0  0  # atno 10718 bound_to 10713
  154.5856  135.5562  153.7228 H   0  0  0  0  0  0  0  0  0  0  0  0  # atno 10763 bound_to 10752
  153.0097  135.6331  154.1921 H   0  0  0  0  0  0  0  0  0  0  0  0  # atno 10764 bound_to 10752
  154.1862  135.2884  155.3016 H   0  0  0  0  0  0  0  0  0  0  0  0  # atno 10765 bound_to 10752
  141.1665  133.7064  156.7975 H   0  0  0  0  0  0  0  0  0  0  0  0  # atno 11005 bound_to 11000
  145.1364  140.9547  143.4514 LP  0  0  0  0  0  0  0  0  0  0  0  0  # atno 17320 bound_to 7965
  145.0338  139.3318  143.6011 LP  0  0  0  0  0  0  0  0  0  0  0  0  # atno 17321 bound_to 7965
  139.5654  144.7432  151.4036 LP  0  0  0  0  0  0  0  0  0  0  0  0  # atno 17342 bound_to 10162
  140.6961  143.7745  150.7329 LP  0  0  0  0  0  0  0  0  0  0  0  0  # atno 17343 bound_to 10162
  156.4737  130.4058  149.6503 LP  0  0  0  0  0  0  0  0  0  0  0  0  # atno 17370 bound_to 10713
  156.3574  130.7463  151.2431 LP  0  0  0  0  0  0  0  0  0  0  0  0  # atno 17371 bound_to 10713
  140.2281  134.8707  157.3447 LP  0  0  0  0  0  0  0  0  0  0  0  0  # atno 17394 bound_to 11000
  140.1919  134.4361  155.7711 LP  0  0  0  0  0  0  0  0  0  0  0  0  # atno 17395 bound_to 11000

$$$$
