AV-unprocessed.smi:1261|AV-procd|sdf|5306|dock2
  -GOLD-   22720 4423D 1   1.00000     0.00000
 Structure written by MMmdl.
 50 51  0  0  0  0  0  0  0  0  2 V2000
  145.2894  132.8086  150.5240 C   0  0  0  0  0  0  0  0  0  0  0  0
  145.7851  132.0136  151.7405 C   0  0  1  0  0  0  0  0  0  0  0  0
  145.9927  130.5295  151.3948 C   0  0  0  0  0  0  0  0  0  0  0  0
  146.5106  129.7554  152.6185 C   0  0  1  0  0  0  0  0  0  0  0  0
  146.7437  128.2743  152.2882 C   0  0  0  0  0  0  0  0  0  0  0  0
  147.7883  130.4200  153.1665 C   0  0  0  0  0  0  0  0  0  0  0  0
  147.5554  131.8491  153.4998 N   0  3  1  0  0  0  0  0  0  0  0  0
  148.7293  132.4682  154.1665 C   0  0  0  0  0  0  0  0  0  0  0  0
  148.6929  134.0048  154.1125 C   0  0  0  0  0  0  0  0  0  0  0  0
  149.8646  134.6443  154.8753 C   0  0  0  0  0  0  0  0  0  0  0  0
  150.1356  135.9941  154.3973 N   0  0  0  0  0  0  0  0  0  0  0  0
  151.0670  136.8228  154.9000 C   0  0  0  0  0  0  0  0  0  0  0  0
  151.7857  136.5150  155.8504 O   0  0  0  0  0  0  0  0  0  0  0  0
  151.2434  138.2050  154.2464 C   0  0  0  0  0  0  0  0  0  0  0  0
  151.0060  139.3521  155.1382 N   0  0  0  0  0  0  0  0  0  0  0  0
  149.9623  140.1736  154.7391 N   0  0  0  0  0  0  0  0  0  0  0  0
  149.6528  141.2109  155.4413 C   0  0  0  0  0  0  0  0  0  0  0  0
  148.6137  141.9980  155.0093 O   0  0  0  0  0  0  0  0  0  0  0  0
  150.3770  141.5398  156.6497 C   0  0  0  0  0  0  0  0  0  0  0  0
  151.3931  140.7346  157.0299 C   0  0  0  0  0  0  0  0  0  0  0  0
  151.7730  139.5525  156.2541 C   0  0  0  0  0  0  0  0  0  0  0  0
  152.7036  138.8108  156.5680 O   0  0  0  0  0  0  0  0  0  0  0  0
  147.0822  132.6145  152.3156 C   0  0  0  0  0  0  0  0  0  0  0  0
  148.6414  142.7716  155.5509 H   0  0  0  0  0  0  0  0  0  0  0  0
  146.0176  132.7884  149.7125 H   0  0  0  0  0  0  0  0  0  0  0  0
  145.1090  133.8524  150.7830 H   0  0  0  0  0  0  0  0  0  0  0  0
  144.3540  132.3986  150.1420 H   0  0  0  0  0  0  0  0  0  0  0  0
  145.0138  132.0774  152.5099 H   0  0  0  0  0  0  0  0  0  0  0  0
  145.0548  130.0932  151.0488 H   0  0  0  0  0  0  0  0  0  0  0  0
  146.7017  130.4367  150.5704 H   0  0  0  0  0  0  0  0  0  0  0  0
  145.7462  129.8009  153.3961 H   0  0  0  0  0  0  0  0  0  0  0  0
  147.5005  128.1544  151.5123 H   0  0  0  0  0  0  0  0  0  0  0  0
  145.8268  127.8022  151.9342 H   0  0  0  0  0  0  0  0  0  0  0  0
  147.0781  127.7232  153.1675 H   0  0  0  0  0  0  0  0  0  0  0  0
  148.1122  129.8859  154.0610 H   0  0  0  0  0  0  0  0  0  0  0  0
  148.5997  130.3439  152.4404 H   0  0  0  0  0  0  0  0  0  0  0  0
  148.7429  132.1720  155.2163 H   0  0  0  0  0  0  0  0  0  0  0  0
  149.6518  132.0851  153.7271 H   0  0  0  0  0  0  0  0  0  0  0  0
  148.7157  134.3459  153.0780 H   0  0  0  0  0  0  0  0  0  0  0  0
  147.7515  134.3607  154.5335 H   0  0  0  0  0  0  0  0  0  0  0  0
  149.6297  134.7039  155.9384 H   0  0  0  0  0  0  0  0  0  0  0  0
  150.7617  134.0287  154.7887 H   0  0  0  0  0  0  0  0  0  0  0  0
  149.5826  136.3242  153.6193 H   0  0  0  0  0  0  0  0  0  0  0  0
  152.2560  138.2544  153.8420 H   0  0  0  0  0  0  0  0  0  0  0  0
  150.5854  138.2656  153.3776 H   0  0  0  0  0  0  0  0  0  0  0  0
  150.1048  142.4098  157.2289 H   0  0  0  0  0  0  0  0  0  0  0  0
  151.9416  140.9678  157.9306 H   0  0  0  0  0  0  0  0  0  0  0  0
  147.8641  132.6257  151.5542 H   0  0  0  0  0  0  0  0  0  0  0  0
  146.8971  133.6525  152.5891 H   0  0  0  0  0  0  0  0  0  0  0  0
  146.8056  131.8591  154.1765 H   0  0  0  0  0  0  0  0  0  0  0  0
  1  2  1  0  0  0  0
  1 25  1  0  0  0  0
  1 26  1  0  0  0  0
  1 27  1  0  0  0  0
  2 23  1  0  0  0  0
  2  3  1  0  0  0  0
  2 28  1  0  0  0  0
  3  4  1  0  0  0  0
  3 29  1  0  0  0  0
  3 30  1  0  0  0  0
  4  5  1  0  0  0  0
  4  6  1  0  0  0  0
  4 31  1  0  0  0  0
  5 32  1  0  0  0  0
  5 33  1  0  0  0  0
  5 34  1  0  0  0  0
  6  7  1  0  0  0  0
  6 35  1  0  0  0  0
  6 36  1  0  0  0  0
  7  8  1  0  0  0  0
  7 23  1  0  0  0  0
  7 50  1  0  0  0  0
  8  9  1  0  0  0  0
  8 37  1  0  0  0  0
  8 38  1  0  0  0  0
  9 10  1  0  0  0  0
  9 39  1  0  0  0  0
  9 40  1  0  0  0  0
 10 11  1  0  0  0  0
 10 41  1  0  0  0  0
 10 42  1  0  0  0  0
 11 12  1  0  0  0  0
 11 43  1  0  0  0  0
 12 13  2  0  0  0  0
 12 14  1  0  0  0  0
 14 44  1  0  0  0  0
 14 45  1  0  0  0  0
 14 15  1  0  0  0  0
 15 16  1  0  0  0  0
 15 21  1  0  0  0  0
 16 17  2  0  0  0  0
 17 18  1  0  0  0  0
 17 19  1  0  0  0  0
 18 24  1  0  0  0  0
 19 46  1  0  0  0  0
 19 20  2  0  0  0  0
 20 47  1  0  0  0  0
 20 21  1  0  0  0  0
 21 22  2  0  0  0  0
 23 48  1  0  0  0  0
 23 49  1  0  0  0  0
M  CHG  1   7   1
M  END
> <s_m_source_file>
AV-unprocessed.smi

> <i_m_source_file_index>
1261

> <i_lp_mmshare_version>
43012

> <i_f3d_flags>
0

> <s_epik_input>
W0NIM11bQ0BASF0xW0NIMl1bQ0BASF0oW0NIM10pW0NIMl1OKFtDSDJdMSlbQ0gyXVtDSDJdW0NIMl1bTkhdQyg9TylbQ0gyXW4yW25IXWMoPU8pW2NIXVtjSF1jMj1P

> <s_epik_cmdline>
J2VwaWtfcHl0aG9uJywgJy1waCcsICc3LjAnLCAnLXRuJywgJzgnLCAnLW1hJywgJzIwMCcsICctbWV0YWxfYmluZGluZycsICctaW1hZScsICc8aW5maWxlLm1hZT4nLCAnLW9tYWUnLCAnPG91dGZpbGUubWFlPic=

> <r_lp_tautomer_probability>
0.9996

> <r_epik_Ionization_Penalty>
2.1425

> <r_epik_Ionization_Penalty_Charging>
0.000312112

> <r_epik_Ionization_Penalty_Neutral>
2.14218

> <r_epik_State_Penalty>
1.71978

> <r_epik_Charging_Adjusted_Penalty>
1.72009

> <i_epik_Tot_Q>
1

> <i_epik_Tot_abs_Q>
1

> <r_epik_Metal_State_Penalty>
1.71978

> <b_epik_Metal_Only>
0

> <s_lp_Force_Field>
OPLS_2005

> <r_lp_Energy>
26.9224

> <b_lp_Chiralities_Consistent>
1

> <s_lp_Variant>
AV-unprocessed.smi:1261-6

> <Gold.Version>
5.8.1

> <Gold.Id.Protein>
6NUR|6NUR_protein|mol2

> <Gold.PLP.Fitness>
58.0572

> <Gold.PLP.PLP>
-46.6580

> <Gold.PLP.part.hbond>
-6.9996

> <Gold.PLP.part.metal>
0.0000

> <Gold.PLP.part.buried>
-2.6476

> <Gold.PLP.part.nonpolar>
-37.3862

> <Gold.PLP.part.repulsive>
0.2141

> <Gold.PLP.ligand.clash>
0.0000

> <Gold.PLP.ligand.torsion>
0.3503

> <Gold.PLP.Chemscore.Hbond>
4.0000

> <Gold.PLP.Chemscore.CHOScore>
0.0000

> <Gold.PLP.Chemscore.Metal>
0.0000

> <Gold.Chemscore.Hbonds>
donor molecule, donor type, donor heavy atom, donor atom, acceptor molecule, acceptor atom, score
      L1  H    11    43       P1  7948  1.00
      L1  H    18    24       P1  8028  0.94
      P1  H  7997  8008       L1    22  0.86
      P1  H 10752 10765       L1    13  1.00

> <Gold.PLP.Chemscore.Internal.Correction>
0.0997

> <Gold.Rescore>
     Score         DG    S(hbond)    S(metal)    S(lipo)     H(rot)  DE(clash)    DE(int)     intcor
     16.15     -18.73       3.27        0.00      88.56       3.14       0.65       1.93       ----

> <Gold.Chemscore.Fitness>
16.1479

> <Gold.Chemscore.DG>
-18.7257

> <Gold.Chemscore.ZeroCoef>
-5.4800

> <Gold.Chemscore.Hbond>
3.2666

> <Gold.Chemscore.Metal>
0.0000

> <Gold.Chemscore.Lipo>
88.5574

> <Gold.Chemscore.Internal_Hbond>
0.0000

> <Gold.Chemscore.DEClash>
0.6505

> <Gold.Chemscore.DEInternal>
1.9272

> <Gold.Chemscore.Rot>
3.1352

> <Gold.Chemscore.Internal.Correction>
   9.000000E+99

> <Gold.Chemscore.Hbonds>
donor molecule, donor type, donor heavy atom, donor atom, acceptor molecule, acceptor atom, score
      L1  H    11    43       P1  7948  0.53
      L1  H    18    24       P1  8028  0.90
      P1  H  7997  8008       L1    22  0.33
      P1  H 10752 10765       L1    13  0.40

> <Gold.Chemscore.Hbond.Weighted>
-10.9105

> <Gold.Chemscore.Metal.Weighted>
-0.0000

> <Gold.Chemscore.Lipo.Weighted>
-10.3612

> <Gold.Chemscore.Internal_Hbond.Weighted>
0.0000

> <Gold.Chemscore.DEClash.Weighted>
0.6505

> <Gold.Chemscore.DEInternal.Weighted>
1.9272

> <Gold.Chemscore.Rot.Weighted>
8.0260

> <Gold.Chemscore.Internal.Correction.Weighted>
   9.000000E+99

> <Gold.Protein.RotatedTorsions>
[ 6907 6896 6895 6894 ] final   85.32 input  -60.11 | X-H torsion
[ 7974 7965 7964 7962 ] final  114.96 input  175.53 | X-H torsion
[ 8008 7997 7996 7995 ] final  -52.59 input   59.86 | X-H torsion
[ 10167 10162 10161 10158 ] final  -39.95 input  -65.29 | X-H torsion
[ 10718 10713 10712 10709 ] final  170.12 input   66.30 | X-H torsion
[ 10763 10752 10751 10750 ] final -150.87 input  -60.55 | X-H torsion
[ 11005 11000 10999 10996 ] final   87.04 input  -57.11 | X-H torsion

> <Gold.Protein.ActiveResidues>
 VAL166  LYS551  ARG553  GLY616  TRP617  ASP618  TYR619  PRO620  LYS621  CYS622 
 ASP623  PHE694  ASN695  SER759  ASP760  ASP761  ALA762  ILE779  LEU786  VAL792 
 PHE793  MET794  SER795  GLU796  ALA797  LYS798  CYS799  TRP800  GLU811  SER814 

> <Gold.Protein.RotatedAtoms>
  152.5372  134.2604  159.8932 H   0  0  0  0  0  0  0  0  0  0  0  0  # atno 6907 bound_to 6896
  151.2564  133.4317  159.2621 H   0  0  0  0  0  0  0  0  0  0  0  0  # atno 6908 bound_to 6896
  151.0492  134.9676  159.8259 H   0  0  0  0  0  0  0  0  0  0  0  0  # atno 6909 bound_to 6896
  145.1980  139.2967  143.4333 H   0  0  0  0  0  0  0  0  0  0  0  0  # atno 7974 bound_to 7965
  154.4111  140.1220  156.5017 H   0  0  0  0  0  0  0  0  0  0  0  0  # atno 8008 bound_to 7997
  155.6888  140.3495  155.4866 H   0  0  0  0  0  0  0  0  0  0  0  0  # atno 8009 bound_to 7997
  155.9487  140.1100  157.0985 H   0  0  0  0  0  0  0  0  0  0  0  0  # atno 8010 bound_to 7997
  140.7049  143.3183  151.2856 H   0  0  0  0  0  0  0  0  0  0  0  0  # atno 10167 bound_to 10162
  157.0127  131.0209  151.2798 H   0  0  0  0  0  0  0  0  0  0  0  0  # atno 10718 bound_to 10713
  154.8092  135.3274  154.7349 H   0  0  0  0  0  0  0  0  0  0  0  0  # atno 10763 bound_to 10752
  153.8001  135.6904  153.4861 H   0  0  0  0  0  0  0  0  0  0  0  0  # atno 10764 bound_to 10752
  153.1859  135.4569  155.0034 H   0  0  0  0  0  0  0  0  0  0  0  0  # atno 10765 bound_to 10752
  139.8929  134.8396  156.2804 H   0  0  0  0  0  0  0  0  0  0  0  0  # atno 11005 bound_to 11000
  146.3423  140.2215  142.8591 LP  0  0  0  0  0  0  0  0  0  0  0  0  # atno 17320 bound_to 7965
  144.9976  140.8603  143.5301 LP  0  0  0  0  0  0  0  0  0  0  0  0  # atno 17321 bound_to 7965
  139.6628  144.0158  152.2703 LP  0  0  0  0  0  0  0  0  0  0  0  0  # atno 17342 bound_to 10162
  139.9731  144.6480  150.7970 LP  0  0  0  0  0  0  0  0  0  0  0  0  # atno 17343 bound_to 10162
  157.5308  130.8057  149.7915 LP  0  0  0  0  0  0  0  0  0  0  0  0  # atno 17370 bound_to 10713
  156.0130  130.3825  150.2201 LP  0  0  0  0  0  0  0  0  0  0  0  0  # atno 17371 bound_to 10713
  141.0042  133.7133  156.1008 LP  0  0  0  0  0  0  0  0  0  0  0  0  # atno 17394 bound_to 11000
  140.7456  134.4102  157.5549 LP  0  0  0  0  0  0  0  0  0  0  0  0  # atno 17395 bound_to 11000

$$$$
