AV-unprocessed.smi:1263|AV-procd|sdf|5312|dock2
  -GOLD-   22720 4433D 1   1.00000     0.00000
 Structure written by MMmdl.
 43 45  0  0  0  0  0  0  0  0  1 V2000
  155.6251  139.7115  161.3393 C   0  0  0  0  0  0  0  0  0  0  0  0
  154.5593  140.5028  160.8253 O   0  0  0  0  0  0  0  0  0  0  0  0
  154.0399  141.5065  161.6208 C   0  0  0  0  0  0  0  0  0  0  0  0
  154.5715  141.6903  162.8556 N   0  0  0  0  0  0  0  0  0  0  0  0
  154.0709  142.6736  163.6313 C   0  0  0  0  0  0  0  0  0  0  0  0
  153.0276  143.5231  163.2203 C   0  0  0  0  0  0  0  0  0  0  0  0
  152.4737  143.3340  161.9408 C   0  0  0  0  0  0  0  0  0  0  0  0
  152.9783  142.2961  161.1200 C   0  0  0  0  0  0  0  0  0  0  0  0
  152.5064  142.0331  159.8043 N   0  0  0  0  0  0  0  0  0  0  0  0
  151.3355  142.3854  159.2466 C   0  0  0  0  0  0  0  0  0  0  0  0
  150.4248  142.9806  159.8225 O   0  0  0  0  0  0  0  0  0  0  0  0
  151.2720  141.9832  157.9693 N   0  0  0  0  0  0  0  0  0  0  0  0
  150.1449  142.1848  157.0624 C   0  0  0  0  0  0  0  0  0  0  0  0
  148.8521  141.6534  157.7015 C   0  0  0  0  0  0  0  0  0  0  0  0
  147.6820  141.7007  156.7033 C   0  0  0  0  0  0  0  0  0  0  0  0
  148.0046  140.9191  155.5092 N   0  0  0  0  0  0  0  0  0  0  0  0
  146.8632  140.9442  154.6092 C   0  0  0  0  0  0  0  0  0  0  0  0
  147.1344  140.7659  153.1328 C   0  0  0  0  0  0  0  0  0  0  0  0
  146.7399  142.1212  153.6687 C   0  0  0  0  0  0  0  0  0  0  0  0
  149.1588  141.5056  154.8276 C   0  0  0  0  0  0  0  0  0  0  0  0
  150.3982  141.4480  155.7378 C   0  0  0  0  0  0  0  0  0  0  0  0
  155.9173  138.9716  160.5941 H   0  0  0  0  0  0  0  0  0  0  0  0
  155.3243  139.1730  162.2392 H   0  0  0  0  0  0  0  0  0  0  0  0
  156.5025  140.3203  161.5623 H   0  0  0  0  0  0  0  0  0  0  0  0
  154.5210  142.7911  164.6060 H   0  0  0  0  0  0  0  0  0  0  0  0
  152.6642  144.3057  163.8697 H   0  0  0  0  0  0  0  0  0  0  0  0
  151.6883  143.9960  161.6108 H   0  0  0  0  0  0  0  0  0  0  0  0
  153.1146  141.4614  159.2362 H   0  0  0  0  0  0  0  0  0  0  0  0
  152.0705  141.4955  157.5901 H   0  0  0  0  0  0  0  0  0  0  0  0
  150.0091  143.2451  156.8420 H   0  0  0  0  0  0  0  0  0  0  0  0
  148.9963  140.6260  158.0398 H   0  0  0  0  0  0  0  0  0  0  0  0
  148.6050  142.2394  158.5875 H   0  0  0  0  0  0  0  0  0  0  0  0
  146.7869  141.2932  157.1748 H   0  0  0  0  0  0  0  0  0  0  0  0
  147.4581  142.7333  156.4302 H   0  0  0  0  0  0  0  0  0  0  0  0
  145.9182  140.5314  154.9589 H   0  0  0  0  0  0  0  0  0  0  0  0
  148.1673  140.6331  152.8166 H   0  0  0  0  0  0  0  0  0  0  0  0
  146.3951  140.2202  152.5500 H   0  0  0  0  0  0  0  0  0  0  0  0
  145.7376  142.4792  153.4425 H   0  0  0  0  0  0  0  0  0  0  0  0
  147.5106  142.8887  153.7080 H   0  0  0  0  0  0  0  0  0  0  0  0
  149.3585  140.9539  153.9083 H   0  0  0  0  0  0  0  0  0  0  0  0
  148.9454  142.5370  154.5416 H   0  0  0  0  0  0  0  0  0  0  0  0
  151.2536  141.8875  155.2237 H   0  0  0  0  0  0  0  0  0  0  0  0
  150.6556  140.4055  155.9317 H   0  0  0  0  0  0  0  0  0  0  0  0
  1  2  1  0  0  0  0
  1 22  1  0  0  0  0
  1 23  1  0  0  0  0
  1 24  1  0  0  0  0
  2  3  1  0  0  0  0
  3  8  1  0  0  0  0
  3  4  2  0  0  0  0
  4  5  1  0  0  0  0
  5  6  2  0  0  0  0
  5 25  1  0  0  0  0
  6  7  1  0  0  0  0
  6 26  1  0  0  0  0
  7  8  2  0  0  0  0
  7 27  1  0  0  0  0
  8  9  1  0  0  0  0
  9 10  1  0  0  0  0
  9 28  1  0  0  0  0
 10 11  2  0  0  0  0
 10 12  1  0  0  0  0
 12 13  1  0  0  0  0
 12 29  1  0  0  0  0
 13 21  1  0  0  0  0
 13 14  1  0  0  0  0
 13 30  1  0  0  0  0
 14 15  1  0  0  0  0
 14 31  1  0  0  0  0
 14 32  1  0  0  0  0
 15 16  1  0  0  0  0
 15 33  1  0  0  0  0
 15 34  1  0  0  0  0
 16 17  1  0  0  0  0
 16 20  1  0  0  0  0
 17 19  1  0  0  0  0
 17 18  1  0  0  0  0
 17 35  1  0  0  0  0
 18 19  1  0  0  0  0
 18 36  1  0  0  0  0
 18 37  1  0  0  0  0
 19 38  1  0  0  0  0
 19 39  1  0  0  0  0
 20 21  1  0  0  0  0
 20 40  1  0  0  0  0
 20 41  1  0  0  0  0
 21 42  1  0  0  0  0
 21 43  1  0  0  0  0
M  END
> <s_m_source_file>
AV-unprocessed.smi

> <i_m_source_file_index>
1263

> <i_lp_mmshare_version>
43012

> <i_f3d_flags>
0

> <s_epik_input>
W0NIM11PYzFuW2NIXVtjSF1bY0hdYzFbTkhdQyg9TylbTkhdW0NIXTJbQ0gyXVtDSDJdTihbQ0gyXVtDSDJdMilbQ0hdM1tDSDJdW0NIMl0z

> <s_epik_cmdline>
J2VwaWtfcHl0aG9uJywgJy1waCcsICc3LjAnLCAnLXRuJywgJzgnLCAnLW1hJywgJzIwMCcsICctbWV0YWxfYmluZGluZycsICctaW1hZScsICc8aW5maWxlLm1hZT4nLCAnLW9tYWUnLCAnPG91dGZpbGUubWFlPic=

> <r_lp_tautomer_probability>
1

> <r_epik_Ionization_Penalty>
1.02543

> <r_epik_Ionization_Penalty_Charging>
0

> <r_epik_Ionization_Penalty_Neutral>
1.02543

> <r_epik_State_Penalty>
1.07599

> <r_epik_Charging_Adjusted_Penalty>
1.07599

> <i_epik_Tot_Q>
0

> <i_epik_Tot_abs_Q>
0

> <r_epik_Metal_State_Penalty>
1.07599

> <b_epik_Metal_Only>
0

> <s_lp_Force_Field>
OPLS_2005

> <r_lp_Energy>
24.353

> <b_lp_Chiralities_Consistent>
1

> <s_lp_Variant>
AV-unprocessed.smi:1263-3

> <Gold.Version>
5.8.1

> <Gold.Id.Protein>
6NUR|6NUR_protein|mol2

> <Gold.PLP.Fitness>
41.3297

> <Gold.PLP.PLP>
-41.8562

> <Gold.PLP.part.hbond>
-2.0000

> <Gold.PLP.part.metal>
0.0000

> <Gold.PLP.part.buried>
-4.6210

> <Gold.PLP.part.nonpolar>
-34.7135

> <Gold.PLP.part.repulsive>
0.2677

> <Gold.PLP.ligand.clash>
0.2976

> <Gold.PLP.ligand.torsion>
0.7101

> <Gold.PLP.Chemscore.Hbond>
0.0000

> <Gold.PLP.Chemscore.CHOScore>
0.0000

> <Gold.PLP.Chemscore.Metal>
0.0000

> <Gold.PLP.Chemscore.Internal.Correction>
1.1914

> <Gold.Rescore>
     Score         DG    S(hbond)    S(metal)    S(lipo)     H(rot)  DE(clash)    DE(int)     intcor
     10.34     -13.71       0.00        0.00     101.10       1.41       0.41       2.97       ----

> <Gold.Chemscore.Fitness>
10.3359

> <Gold.Chemscore.DG>
-13.7116

> <Gold.Chemscore.ZeroCoef>
-5.4800

> <Gold.Chemscore.Hbond>
0.0000

> <Gold.Chemscore.Metal>
0.0000

> <Gold.Chemscore.Lipo>
101.1035

> <Gold.Chemscore.Internal_Hbond>
0.0000

> <Gold.Chemscore.DEClash>
0.4103

> <Gold.Chemscore.DEInternal>
2.9653

> <Gold.Chemscore.Rot>
1.4053

> <Gold.Chemscore.Internal.Correction>
   9.000000E+99

> <Gold.Chemscore.Hbond.Weighted>
-0.0001

> <Gold.Chemscore.Metal.Weighted>
-0.0000

> <Gold.Chemscore.Lipo.Weighted>
-11.8291

> <Gold.Chemscore.Internal_Hbond.Weighted>
0.0000

> <Gold.Chemscore.DEClash.Weighted>
0.4103

> <Gold.Chemscore.DEInternal.Weighted>
2.9653

> <Gold.Chemscore.Rot.Weighted>
3.5977

> <Gold.Chemscore.Internal.Correction.Weighted>
   9.000000E+99

> <Gold.Protein.RotatedTorsions>
[ 6907 6896 6895 6894 ] final -126.49 input  -60.11 | X-H torsion
[ 7974 7965 7964 7962 ] final  177.26 input  175.53 | X-H torsion
[ 8008 7997 7996 7995 ] final    5.64 input   59.86 | X-H torsion
[ 10167 10162 10161 10158 ] final  -98.59 input  -65.29 | X-H torsion
[ 10718 10713 10712 10709 ] final  -59.71 input   66.30 | X-H torsion
[ 10763 10752 10751 10750 ] final   31.57 input  -60.55 | X-H torsion
[ 11005 11000 10999 10996 ] final -161.93 input  -57.11 | X-H torsion

> <Gold.Protein.ActiveResidues>
 VAL166  LYS551  ARG553  GLY616  TRP617  ASP618  TYR619  PRO620  LYS621  CYS622 
 ASP623  PHE694  ASN695  SER759  ASP760  ASP761  ALA762  ILE779  LEU786  VAL792 
 PHE793  MET794  SER795  GLU796  ALA797  LYS798  CYS799  TRP800  GLU811  SER814 

> <Gold.Protein.RotatedAtoms>
  150.8975  133.7162  159.2887 H   0  0  0  0  0  0  0  0  0  0  0  0  # atno 6907 bound_to 6896
  151.4691  135.1043  159.9756 H   0  0  0  0  0  0  0  0  0  0  0  0  # atno 6908 bound_to 6896
  152.4857  133.8319  159.7163 H   0  0  0  0  0  0  0  0  0  0  0  0  # atno 6909 bound_to 6896
  144.7172  140.0220  143.6440 H   0  0  0  0  0  0  0  0  0  0  0  0  # atno 7974 bound_to 7965
  154.7309  140.2730  155.6457 H   0  0  0  0  0  0  0  0  0  0  0  0  # atno 8008 bound_to 7997
  156.2849  140.2716  156.1934 H   0  0  0  0  0  0  0  0  0  0  0  0  # atno 8009 bound_to 7997
  155.0383  140.0371  157.2490 H   0  0  0  0  0  0  0  0  0  0  0  0  # atno 8010 bound_to 7997
  140.2713  143.3342  152.0531 H   0  0  0  0  0  0  0  0  0  0  0  0  # atno 10167 bound_to 10162
  156.1042  130.4182  150.0753 H   0  0  0  0  0  0  0  0  0  0  0  0  # atno 10718 bound_to 10713
  153.0309  135.6435  154.1219 H   0  0  0  0  0  0  0  0  0  0  0  0  # atno 10763 bound_to 10752
  154.0941  135.2864  155.3267 H   0  0  0  0  0  0  0  0  0  0  0  0  # atno 10764 bound_to 10752
  154.6444  135.5448  153.7890 H   0  0  0  0  0  0  0  0  0  0  0  0  # atno 10765 bound_to 10752
  140.6149  134.4810  157.5219 H   0  0  0  0  0  0  0  0  0  0  0  0  # atno 11005 bound_to 11000
  146.0173  139.3221  143.0834 LP  0  0  0  0  0  0  0  0  0  0  0  0  # atno 17320 bound_to 7965
  145.8610  140.9475  143.0700 LP  0  0  0  0  0  0  0  0  0  0  0  0  # atno 17321 bound_to 7965
  139.4988  144.6654  151.6368 LP  0  0  0  0  0  0  0  0  0  0  0  0  # atno 17342 bound_to 10162
  140.5887  143.9818  150.6311 LP  0  0  0  0  0  0  0  0  0  0  0  0  # atno 17343 bound_to 10162
  156.8733  130.9531  151.3607 LP  0  0  0  0  0  0  0  0  0  0  0  0  # atno 17370 bound_to 10713
  157.6216  130.8660  149.9119 LP  0  0  0  0  0  0  0  0  0  0  0  0  # atno 17371 bound_to 10713
  139.9177  134.8213  156.1313 LP  0  0  0  0  0  0  0  0  0  0  0  0  # atno 17394 bound_to 11000
  141.0782  133.6766  156.2281 LP  0  0  0  0  0  0  0  0  0  0  0  0  # atno 17395 bound_to 11000

$$$$
