AV-unprocessed.smi:1010|AV-procd|sdf|4418|dock7
  -GOLD-   22720 2363D 1   1.00000     0.00000
 Structure written by MMmdl.
 55 57  0  0  0  0  0  0  0  0  4 V2000
  150.4576  137.6598  158.3966 C   0  0  0  0  0  0  0  0  0  0  0  0
  149.7320  138.0305  157.1486 N   0  3  0  0  0  0  0  0  0  0  0  0
  148.3725  137.4159  157.1366 C   0  0  0  0  0  0  0  0  0  0  0  0
  150.5160  138.0461  155.8412 C   0  0  0  0  0  0  0  0  0  0  0  0
  150.9678  136.6152  155.3423 C   0  0  0  0  0  0  0  0  0  0  0  0
  149.8426  135.8078  154.8658 N   0  5  0  0  0  0  0  0  0  0  0  0
  149.7941  134.4497  154.8817 C   0  0  0  0  0  0  0  0  0  0  0  0
  150.3236  133.6811  155.6919 O   0  0  0  0  0  0  0  0  0  0  0  0
  149.0621  133.9628  153.8664 N   0  0  0  0  0  0  0  0  0  0  0  0
  148.6632  132.6169  153.6449 C   0  0  0  0  0  0  0  0  0  0  0  0
  149.4518  131.5315  154.1004 C   0  0  0  0  0  0  0  0  0  0  0  0
  149.0460  130.2102  153.8290 C   0  0  0  0  0  0  0  0  0  0  0  0
  147.8642  129.9955  153.0962 C   0  0  0  0  0  0  0  0  0  0  0  0
  147.1430  131.0510  152.6629 N   0  3  0  0  0  0  0  0  0  0  0  0
  147.4844  132.3380  152.8982 C   0  0  0  0  0  0  0  0  0  0  0  0
  146.6125  133.3053  152.3700 N   0  0  0  0  0  0  0  0  0  0  0  0
  146.5079  133.3745  150.9155 C   0  0  0  0  0  0  0  0  0  0  0  0
  145.0139  133.3126  150.5833 C   0  0  0  0  0  0  0  0  0  0  0  0
  144.3508  133.8364  151.8524 C   0  0  0  0  0  0  0  0  0  0  0  0
  145.2779  133.3287  152.9556 C   0  0  0  0  0  0  0  0  0  0  0  0
  149.6266  138.7007  154.7335 C   0  0  0  0  0  0  0  0  0  0  0  0
  149.2863  140.1700  155.0469 C   0  0  0  0  0  0  0  0  0  0  0  0
  150.4831  140.9282  155.1541 O   0  0  0  0  0  0  0  0  0  0  0  0
  151.3394  140.4695  156.1910 C   0  0  0  0  0  0  0  0  0  0  0  0
  151.7491  139.0065  155.9294 C   0  0  0  0  0  0  0  0  0  0  0  0
  150.6951  136.5984  158.4379 H   0  0  0  0  0  0  0  0  0  0  0  0
  149.8314  137.8755  159.2627 H   0  0  0  0  0  0  0  0  0  0  0  0
  151.3739  138.2267  158.5451 H   0  0  0  0  0  0  0  0  0  0  0  0
  148.4203  136.3272  157.0926 H   0  0  0  0  0  0  0  0  0  0  0  0
  147.7557  137.7656  156.3118 H   0  0  0  0  0  0  0  0  0  0  0  0
  147.8388  137.6762  158.0510 H   0  0  0  0  0  0  0  0  0  0  0  0
  151.7414  136.7418  154.5838 H   0  0  0  0  0  0  0  0  0  0  0  0
  151.4706  136.1034  156.1631 H   0  0  0  0  0  0  0  0  0  0  0  0
  148.5954  134.6572  153.3015 H   0  0  0  0  0  0  0  0  0  0  0  0
  150.3702  131.6990  154.6433 H   0  0  0  0  0  0  0  0  0  0  0  0
  149.6374  129.3744  154.1732 H   0  0  0  0  0  0  0  0  0  0  0  0
  147.4791  129.0191  152.8401 H   0  0  0  0  0  0  0  0  0  0  0  0
  146.9234  134.3300  150.5946 H   0  0  0  0  0  0  0  0  0  0  0  0
  147.0677  132.5896  150.4055 H   0  0  0  0  0  0  0  0  0  0  0  0
  144.7531  133.8892  149.6958 H   0  0  0  0  0  0  0  0  0  0  0  0
  144.7116  132.2792  150.4107 H   0  0  0  0  0  0  0  0  0  0  0  0
  144.3470  134.9271  151.8431 H   0  0  0  0  0  0  0  0  0  0  0  0
  143.3223  133.4944  151.9704 H   0  0  0  0  0  0  0  0  0  0  0  0
  144.9765  132.3302  153.2744 H   0  0  0  0  0  0  0  0  0  0  0  0
  145.2489  133.9794  153.8299 H   0  0  0  0  0  0  0  0  0  0  0  0
  150.1421  138.7035  153.7691 H   0  0  0  0  0  0  0  0  0  0  0  0
  148.7034  138.1496  154.5534 H   0  0  0  0  0  0  0  0  0  0  0  0
  148.6827  140.5907  154.2425 H   0  0  0  0  0  0  0  0  0  0  0  0
  148.6972  140.2600  155.9605 H   0  0  0  0  0  0  0  0  0  0  0  0
  152.2253  141.1043  156.2136 H   0  0  0  0  0  0  0  0  0  0  0  0
  150.8481  140.5837  157.1577 H   0  0  0  0  0  0  0  0  0  0  0  0
  152.4736  138.6901  156.6811 H   0  0  0  0  0  0  0  0  0  0  0  0
  152.3076  139.0022  154.9898 H   0  0  0  0  0  0  0  0  0  0  0  0
  149.5411  139.0119  157.2890 H   0  0  0  0  0  0  0  0  0  0  0  0
  146.2919  130.8685  152.1310 H   0  0  0  0  0  0  0  0  0  0  0  0
  1  2  1  0  0  0  0
  1 26  1  0  0  0  0
  1 27  1  0  0  0  0
  1 28  1  0  0  0  0
  2  3  1  0  0  0  0
  2  4  1  0  0  0  0
  2 54  1  0  0  0  0
  3 29  1  0  0  0  0
  3 30  1  0  0  0  0
  3 31  1  0  0  0  0
  4 25  1  0  0  0  0
  4  5  1  0  0  0  0
  4 21  1  0  0  0  0
  5  6  1  0  0  0  0
  5 32  1  0  0  0  0
  5 33  1  0  0  0  0
  6  7  1  0  0  0  0
  7  8  2  0  0  0  0
  7  9  1  0  0  0  0
  9 10  1  0  0  0  0
  9 34  1  0  0  0  0
 10 15  1  0  0  0  0
 10 11  2  0  0  0  0
 11 12  1  0  0  0  0
 11 35  1  0  0  0  0
 12 13  2  0  0  0  0
 12 36  1  0  0  0  0
 13 14  1  0  0  0  0
 13 37  1  0  0  0  0
 14 15  2  0  0  0  0
 14 55  1  0  0  0  0
 15 16  1  0  0  0  0
 16 20  1  0  0  0  0
 16 17  1  0  0  0  0
 17 18  1  0  0  0  0
 17 38  1  0  0  0  0
 17 39  1  0  0  0  0
 18 19  1  0  0  0  0
 18 40  1  0  0  0  0
 18 41  1  0  0  0  0
 19 20  1  0  0  0  0
 19 42  1  0  0  0  0
 19 43  1  0  0  0  0
 20 44  1  0  0  0  0
 20 45  1  0  0  0  0
 21 22  1  0  0  0  0
 21 46  1  0  0  0  0
 21 47  1  0  0  0  0
 22 23  1  0  0  0  0
 22 48  1  0  0  0  0
 22 49  1  0  0  0  0
 23 24  1  0  0  0  0
 24 25  1  0  0  0  0
 24 50  1  0  0  0  0
 24 51  1  0  0  0  0
 25 52  1  0  0  0  0
 25 53  1  0  0  0  0
M  CHG  1   2   1
M  CHG  1   6  -1
M  CHG  1  14   1
M  END
> <s_m_source_file>
AV-unprocessed.smi

> <i_m_source_file_index>
1010

> <i_lp_mmshare_version>
43012

> <i_f3d_flags>
0

> <s_epik_input>
W0NIMl0xW0NIMl1PW0NIMl1bQ0gyXUMxKE4oW0NIM10pW0NIM10pW0NIMl1bTkhdQyg9TylbTkhdYzJbY0hdW2NIXVtjSF1uYzJOM1tDSDJdW0NIMl1bQ0gyXVtDSDJdMw==

> <s_epik_cmdline>
J2VwaWtfcHl0aG9uJywgJy1waCcsICc3LjAnLCAnLXRuJywgJzgnLCAnLW1hJywgJzIwMCcsICctbWV0YWxfYmluZGluZycsICctaW1hZScsICc8aW5maWxlLm1hZT4nLCAnLW9tYWUnLCAnPG91dGZpbGUubWFlPic=

> <r_lp_tautomer_probability>
0.999994

> <r_epik_Ionization_Penalty>
8.43521

> <r_epik_Ionization_Penalty_Charging>
8.43521

> <r_epik_Ionization_Penalty_Neutral>
3.38325e-06

> <r_epik_State_Penalty>
7.95094

> <r_epik_Charging_Adjusted_Penalty>
16.3861

> <i_epik_Tot_Q>
1

> <i_epik_Tot_abs_Q>
3

> <r_epik_Metal_State_Penalty>
3.94206

> <b_epik_Metal_Only>
1

> <s_lp_Force_Field>
OPLS_2005

> <r_lp_Energy>
62.009

> <b_lp_Chiralities_Consistent>
1

> <s_lp_Variant>
AV-unprocessed.smi:1010-4

> <Gold.Version>
5.8.1

> <Gold.Id.Protein>
6NUR|6NUR_protein|mol2

> <Gold.PLP.Fitness>
41.4768

> <Gold.PLP.PLP>
-37.6551

> <Gold.PLP.part.hbond>
-2.9266

> <Gold.PLP.part.metal>
0.0000

> <Gold.PLP.part.buried>
-3.0527

> <Gold.PLP.part.nonpolar>
-31.4867

> <Gold.PLP.part.repulsive>
1.2722

> <Gold.PLP.ligand.clash>
0.0000

> <Gold.PLP.ligand.torsion>
0.8494

> <Gold.PLP.Chemscore.Hbond>
1.6560

> <Gold.PLP.Chemscore.CHOScore>
0.0000

> <Gold.PLP.Chemscore.Metal>
0.0000

> <Gold.Chemscore.Hbonds>
donor molecule, donor type, donor heavy atom, donor atom, acceptor molecule, acceptor atom, score
      L1  H     9    34       P1  7948  0.64
      P1  H  7989  7998       L1    23  0.77

> <Gold.PLP.Chemscore.Internal.Correction>
0.5523

> <Gold.Rescore>
     Score         DG    S(hbond)    S(metal)    S(lipo)     H(rot)  DE(clash)    DE(int)     intcor
     12.13     -14.57       1.02        0.00      83.58       1.60       0.23       2.21       ----

> <Gold.Chemscore.Fitness>
12.1339

> <Gold.Chemscore.DG>
-14.5718

> <Gold.Chemscore.ZeroCoef>
-5.4800

> <Gold.Chemscore.Hbond>
1.0231

> <Gold.Chemscore.Metal>
0.0000

> <Gold.Chemscore.Lipo>
83.5824

> <Gold.Chemscore.Internal_Hbond>
0.0000

> <Gold.Chemscore.DEClash>
0.2262

> <Gold.Chemscore.DEInternal>
2.2116

> <Gold.Chemscore.Rot>
1.6033

> <Gold.Chemscore.Internal.Correction>
   9.000000E+99

> <Gold.Chemscore.Hbonds>
donor molecule, donor type, donor heavy atom, donor atom, acceptor molecule, acceptor atom, score
      L1  H     9    34       P1  7948  0.28
      P1  H  7989  7998       L1    23  0.32

> <Gold.Chemscore.Hbond.Weighted>
-3.4172

> <Gold.Chemscore.Metal.Weighted>
-0.0000

> <Gold.Chemscore.Lipo.Weighted>
-9.7791

> <Gold.Chemscore.Internal_Hbond.Weighted>
0.0000

> <Gold.Chemscore.DEClash.Weighted>
0.2262

> <Gold.Chemscore.DEInternal.Weighted>
2.2116

> <Gold.Chemscore.Rot.Weighted>
4.1046

> <Gold.Chemscore.Internal.Correction.Weighted>
   9.000000E+99

> <Gold.Protein.RotatedTorsions>
[ 6907 6896 6895 6894 ] final  173.03 input  -60.11 | X-H torsion
[ 7974 7965 7964 7962 ] final -127.26 input  175.53 | X-H torsion
[ 8008 7997 7996 7995 ] final -112.83 input   59.86 | X-H torsion
[ 10167 10162 10161 10158 ] final  -24.63 input  -65.29 | X-H torsion
[ 10718 10713 10712 10709 ] final   15.90 input   66.30 | X-H torsion
[ 10763 10752 10751 10750 ] final  -49.58 input  -60.55 | X-H torsion
[ 11005 11000 10999 10996 ] final   95.12 input  -57.11 | X-H torsion

> <Gold.Protein.ActiveResidues>
 VAL166  LYS551  ARG553  GLY616  TRP617  ASP618  TYR619  PRO620  LYS621  CYS622 
 ASP623  PHE694  ASN695  SER759  ASP760  ASP761  ALA762  ILE779  LEU786  VAL792 
 PHE793  MET794  SER795  GLU796  ALA797  LYS798  CYS799  TRP800  GLU811  SER814 

> <Gold.Protein.RotatedAtoms>
  151.7749  133.3344  159.3454 H   0  0  0  0  0  0  0  0  0  0  0  0  # atno 6907 bound_to 6896
  150.7448  134.5984  159.6033 H   0  0  0  0  0  0  0  0  0  0  0  0  # atno 6908 bound_to 6896
  152.3316  134.7254  160.0339 H   0  0  0  0  0  0  0  0  0  0  0  0  # atno 6909 bound_to 6896
  144.9789  140.7620  143.4625 H   0  0  0  0  0  0  0  0  0  0  0  0  # atno 7974 bound_to 7965
  155.0113  140.0393  157.2400 H   0  0  0  0  0  0  0  0  0  0  0  0  # atno 8008 bound_to 7997
  154.7457  140.2757  155.6312 H   0  0  0  0  0  0  0  0  0  0  0  0  # atno 8009 bound_to 7997
  156.2874  140.2656  156.2197 H   0  0  0  0  0  0  0  0  0  0  0  0  # atno 8010 bound_to 7997
  140.7288  143.4336  151.0764 H   0  0  0  0  0  0  0  0  0  0  0  0  # atno 10167 bound_to 10162
  157.0601  130.6305  149.5784 H   0  0  0  0  0  0  0  0  0  0  0  0  # atno 10718 bound_to 10713
  154.0965  135.6569  153.4861 H   0  0  0  0  0  0  0  0  0  0  0  0  # atno 10763 bound_to 10752
  153.0303  135.5215  154.7329 H   0  0  0  0  0  0  0  0  0  0  0  0  # atno 10764 bound_to 10752
  154.6468  135.2996  155.0005 H   0  0  0  0  0  0  0  0  0  0  0  0  # atno 10765 bound_to 10752
  139.8792  134.8882  156.3965 H   0  0  0  0  0  0  0  0  0  0  0  0  # atno 11005 bound_to 11000
  145.2450  139.2056  143.4972 LP  0  0  0  0  0  0  0  0  0  0  0  0  # atno 17320 bound_to 7965
  146.3403  140.2353  142.8594 LP  0  0  0  0  0  0  0  0  0  0  0  0  # atno 17321 bound_to 7965
  139.7996  143.8103  152.3161 LP  0  0  0  0  0  0  0  0  0  0  0  0  # atno 17342 bound_to 10162
  139.8115  144.7334  150.9691 LP  0  0  0  0  0  0  0  0  0  0  0  0  # atno 17343 bound_to 10162
  155.9981  130.5054  150.7558 LP  0  0  0  0  0  0  0  0  0  0  0  0  # atno 17370 bound_to 10713
  157.4961  131.0915  151.0369 LP  0  0  0  0  0  0  0  0  0  0  0  0  # atno 17371 bound_to 10713
  140.9297  133.7588  156.0009 LP  0  0  0  0  0  0  0  0  0  0  0  0  # atno 17394 bound_to 11000
  140.8345  134.3139  157.5337 LP  0  0  0  0  0  0  0  0  0  0  0  0  # atno 17395 bound_to 11000

$$$$
