AV-unprocessed.smi:2923|AV-procd|sdf|11210|dock6
  -GOLD-   2272016103D 1   1.00000     0.00000
 Structure written by MMmdl.
 46 48  0  0  0  0  0  0  0  0  1 V2000
  153.8661  135.9890  157.9291 C   0  0  0  0  0  0  0  0  0  0  0  0
  153.0566  137.1292  157.5283 N   0  0  0  0  0  0  0  0  0  0  0  0
  152.7708  138.1121  158.5624 C   0  0  0  0  0  0  0  0  0  0  0  0
  151.9217  136.7608  156.7944 C   0  0  0  0  0  0  0  0  0  0  0  0
  150.8028  136.1655  157.4199 C   0  0  0  0  0  0  0  0  0  0  0  0
  149.6896  135.8181  156.6309 C   0  0  0  0  0  0  0  0  0  0  0  0
  149.7331  136.0704  155.2391 C   0  0  0  0  0  0  0  0  0  0  0  0
  148.6682  135.7904  154.3415 N   0  0  0  0  0  0  0  0  0  0  0  0
  147.5197  135.1359  154.5827 C   0  0  0  0  0  0  0  0  0  0  0  0
  147.2031  134.6194  155.6540 O   0  0  0  0  0  0  0  0  0  0  0  0
  146.7487  135.0977  153.4883 N   0  0  0  0  0  0  0  0  0  0  0  0
  145.4410  134.4379  153.4106 C   0  0  2  0  0  0  0  0  0  0  0  0
  145.3742  133.4026  152.2849 C   0  0  2  0  0  0  0  0  0  0  0  0
  146.3637  132.6651  151.4569 C   0  0  0  0  0  0  0  0  0  0  0  0
  145.6188  132.7974  150.1007 C   0  0  0  0  0  0  0  0  0  0  0  0
  144.5411  133.7421  150.3271 O   0  0  0  0  0  0  0  0  0  0  0  0
  145.0220  134.5612  151.3744 C   0  0  1  0  0  0  0  0  0  0  0  0
  144.3303  135.2114  152.5934 C   0  0  0  0  0  0  0  0  0  0  0  0
  142.8635  134.8246  152.8560 C   0  0  0  0  0  0  0  0  0  0  0  0
  144.3698  136.7431  152.6329 C   0  0  0  0  0  0  0  0  0  0  0  0
  150.8937  136.6789  154.7182 C   0  0  0  0  0  0  0  0  0  0  0  0
  151.9647  137.0131  155.4684 N   0  0  0  0  0  0  0  0  0  0  0  0
  154.0231  135.3097  157.0903 H   0  0  0  0  0  0  0  0  0  0  0  0
  153.3883  135.4345  158.7374 H   0  0  0  0  0  0  0  0  0  0  0  0
  154.8432  136.3255  158.2763 H   0  0  0  0  0  0  0  0  0  0  0  0
  152.1753  138.9340  158.1627 H   0  0  0  0  0  0  0  0  0  0  0  0
  153.6997  138.5288  158.9522 H   0  0  0  0  0  0  0  0  0  0  0  0
  152.2247  137.6618  159.3918 H   0  0  0  0  0  0  0  0  0  0  0  0
  150.7916  135.9816  158.4843 H   0  0  0  0  0  0  0  0  0  0  0  0
  148.8262  135.3827  157.1092 H   0  0  0  0  0  0  0  0  0  0  0  0
  148.8203  136.0825  153.3872 H   0  0  0  0  0  0  0  0  0  0  0  0
  147.0865  135.5442  152.6485 H   0  0  0  0  0  0  0  0  0  0  0  0
  145.0849  134.0480  154.3657 H   0  0  0  0  0  0  0  0  0  0  0  0
  144.5249  132.7426  152.4778 H   0  0  0  0  0  0  0  0  0  0  0  0
  147.3374  133.1563  151.4396 H   0  0  0  0  0  0  0  0  0  0  0  0
  146.4899  131.6278  151.7674 H   0  0  0  0  0  0  0  0  0  0  0  0
  146.2901  133.1657  149.3236 H   0  0  0  0  0  0  0  0  0  0  0  0
  145.2058  131.8448  149.7675 H   0  0  0  0  0  0  0  0  0  0  0  0
  145.8858  135.1424  151.0353 H   0  0  0  0  0  0  0  0  0  0  0  0
  142.2143  135.1764  152.0536 H   0  0  0  0  0  0  0  0  0  0  0  0
  142.4986  135.2638  153.7851 H   0  0  0  0  0  0  0  0  0  0  0  0
  142.7036  133.7511  152.9399 H   0  0  0  0  0  0  0  0  0  0  0  0
  143.6380  137.1812  151.9536 H   0  0  0  0  0  0  0  0  0  0  0  0
  145.3434  137.1354  152.3391 H   0  0  0  0  0  0  0  0  0  0  0  0
  144.1581  137.1203  153.6339 H   0  0  0  0  0  0  0  0  0  0  0  0
  150.9691  136.9026  153.6641 H   0  0  0  0  0  0  0  0  0  0  0  0
  1  2  1  0  0  0  0
  1 23  1  0  0  0  0
  1 24  1  0  0  0  0
  1 25  1  0  0  0  0
  2  3  1  0  0  0  0
  2  4  1  0  0  0  0
  3 26  1  0  0  0  0
  3 27  1  0  0  0  0
  3 28  1  0  0  0  0
  4 22  1  0  0  0  0
  4  5  2  0  0  0  0
  5  6  1  0  0  0  0
  5 29  1  0  0  0  0
  6  7  2  0  0  0  0
  6 30  1  0  0  0  0
  7  8  1  0  0  0  0
  7 21  1  0  0  0  0
  8  9  1  0  0  0  0
  8 31  1  0  0  0  0
  9 10  2  0  0  0  0
  9 11  1  0  0  0  0
 11 12  1  0  0  0  0
 11 32  1  0  0  0  0
 12 18  1  0  0  0  0
 12 13  1  0  0  0  0
 12 33  1  0  0  0  0
 13 17  1  0  0  0  0
 13 14  1  0  0  0  0
 13 34  1  0  0  0  0
 14 15  1  0  0  0  0
 14 35  1  0  0  0  0
 14 36  1  0  0  0  0
 15 16  1  0  0  0  0
 15 37  1  0  0  0  0
 15 38  1  0  0  0  0
 16 17  1  0  0  0  0
 17 18  1  0  0  0  0
 17 39  1  0  0  0  0
 18 19  1  0  0  0  0
 18 20  1  0  0  0  0
 19 40  1  0  0  0  0
 19 41  1  0  0  0  0
 19 42  1  0  0  0  0
 20 43  1  0  0  0  0
 20 44  1  0  0  0  0
 20 45  1  0  0  0  0
 21 22  2  0  0  0  0
 21 46  1  0  0  0  0
M  END
> <s_m_source_file>
AV-unprocessed.smi

> <i_m_source_file_index>
2923

> <i_lp_mmshare_version>
43012

> <i_f3d_flags>
0

> <s_epik_input>
W0NIM11OKFtDSDNdKWMxW2NIXVtjSF1jKFtjSF1uMSlbTkhdQyg9TylbTkhdW0NASF0yQyhbQ0gzXSkoW0NIM10pW0NAQEhdKFtDQEhdMjMpT1tDSDJdW0NIMl0z

> <s_epik_cmdline>
J2VwaWtfcHl0aG9uJywgJy1waCcsICc3LjAnLCAnLXRuJywgJzgnLCAnLW1hJywgJzIwMCcsICctbWV0YWxfYmluZGluZycsICctaW1hZScsICc8aW5maWxlLm1hZT4nLCAnLW9tYWUnLCAnPG91dGZpbGUubWFlPic=

> <r_lp_tautomer_probability>
1

> <r_epik_Ionization_Penalty>
0.628785

> <r_epik_Ionization_Penalty_Charging>
0

> <r_epik_Ionization_Penalty_Neutral>
0.628785

> <r_epik_State_Penalty>
0.644286

> <r_epik_Charging_Adjusted_Penalty>
0.644286

> <i_epik_Tot_Q>
0

> <i_epik_Tot_abs_Q>
0

> <r_epik_Metal_State_Penalty>
0.308404

> <b_epik_Metal_Only>
0

> <s_lp_Force_Field>
OPLS_2005

> <r_lp_Energy>
70.0189

> <b_lp_Chiralities_Consistent>
1

> <s_lp_Variant>
AV-unprocessed.smi:2923-9

> <Gold.Version>
5.8.1

> <Gold.Id.Protein>
6NUR|6NUR_protein|mol2

> <Gold.PLP.Fitness>
34.4866

> <Gold.PLP.PLP>
-24.3546

> <Gold.PLP.part.hbond>
-2.9733

> <Gold.PLP.part.metal>
0.0000

> <Gold.PLP.part.buried>
-5.4392

> <Gold.PLP.part.nonpolar>
-17.9063

> <Gold.PLP.part.repulsive>
0.2326

> <Gold.PLP.ligand.clash>
0.0000

> <Gold.PLP.ligand.torsion>
0.3280

> <Gold.PLP.Chemscore.Hbond>
2.3579

> <Gold.PLP.Chemscore.CHOScore>
1.0814

> <Gold.PLP.Chemscore.Metal>
0.0000

> <Gold.Chemscore.Hbonds>
donor molecule, donor type, donor heavy atom, donor atom, acceptor molecule, acceptor atom, score
      L1  H     8    31       P1  7948  0.99
      L1  H    11    32       P1  7948  0.59
      P1  H 10752 10765       L1    22  0.71
      L1  C    21    46       P1  7948  0.08
      L1  C    21    46       P1  7949  1.00

> <Gold.PLP.Chemscore.Internal.Correction>
0.4702

> <Gold.Rescore>
     Score         DG    S(hbond)    S(metal)    S(lipo)     H(rot)  DE(clash)    DE(int)     intcor
     14.39     -15.91       1.81        0.00      63.58       1.19       0.02       1.49       ----

> <Gold.Chemscore.Fitness>
14.3939

> <Gold.Chemscore.DG>
-15.9122

> <Gold.Chemscore.ZeroCoef>
-5.4800

> <Gold.Chemscore.Hbond>
1.8110

> <Gold.Chemscore.Metal>
0.0000

> <Gold.Chemscore.Lipo>
63.5849

> <Gold.Chemscore.Internal_Hbond>
0.0000

> <Gold.Chemscore.DEClash>
0.0248

> <Gold.Chemscore.DEInternal>
1.4936

> <Gold.Chemscore.Rot>
1.1937

> <Gold.Chemscore.Internal.Correction>
   9.000000E+99

> <Gold.Chemscore.Hbonds>
donor molecule, donor type, donor heavy atom, donor atom, acceptor molecule, acceptor atom, score
      L1  H     8    31       P1  7948  0.92
      L1  H    11    32       P1  7948  0.58
      P1  H 10752 10765       L1    22  0.02

> <Gold.Chemscore.Hbond.Weighted>
-6.0487

> <Gold.Chemscore.Metal.Weighted>
-0.0000

> <Gold.Chemscore.Lipo.Weighted>
-7.4394

> <Gold.Chemscore.Internal_Hbond.Weighted>
0.0000

> <Gold.Chemscore.DEClash.Weighted>
0.0248

> <Gold.Chemscore.DEInternal.Weighted>
1.4936

> <Gold.Chemscore.Rot.Weighted>
3.0559

> <Gold.Chemscore.Internal.Correction.Weighted>
   9.000000E+99

> <Gold.Protein.RotatedTorsions>
[ 6907 6896 6895 6894 ] final -145.92 input  -60.11 | X-H torsion
[ 7974 7965 7964 7962 ] final   14.13 input  175.53 | X-H torsion
[ 8008 7997 7996 7995 ] final -126.31 input   59.86 | X-H torsion
[ 10167 10162 10161 10158 ] final -151.65 input  -65.29 | X-H torsion
[ 10718 10713 10712 10709 ] final  -54.41 input   66.30 | X-H torsion
[ 10763 10752 10751 10750 ] final -156.56 input  -60.55 | X-H torsion
[ 11005 11000 10999 10996 ] final  -21.51 input  -57.11 | X-H torsion

> <Gold.Protein.ActiveResidues>
 VAL166  LYS551  ARG553  GLY616  TRP617  ASP618  TYR619  PRO620  LYS621  CYS622 
 ASP623  PHE694  ASN695  SER759  ASP760  ASP761  ALA762  ILE779  LEU786  VAL792 
 PHE793  MET794  SER795  GLU796  ALA797  LYS798  CYS799  TRP800  GLU811  SER814 

> <Gold.Protein.RotatedAtoms>
  151.1344  133.5014  159.2598 H   0  0  0  0  0  0  0  0  0  0  0  0  # atno 6907 bound_to 6896
  151.1722  135.0322  159.8766 H   0  0  0  0  0  0  0  0  0  0  0  0  # atno 6908 bound_to 6896
  152.5461  134.1206  159.8450 H   0  0  0  0  0  0  0  0  0  0  0  0  # atno 6909 bound_to 6896
  146.2313  139.9087  142.8528 H   0  0  0  0  0  0  0  0  0  0  0  0  # atno 7974 bound_to 7965
  155.2276  140.0424  157.2957 H   0  0  0  0  0  0  0  0  0  0  0  0  # atno 8008 bound_to 7997
  154.5909  140.2426  155.7892 H   0  0  0  0  0  0  0  0  0  0  0  0  # atno 8009 bound_to 7997
  156.2258  140.2955  156.0073 H   0  0  0  0  0  0  0  0  0  0  0  0  # atno 8010 bound_to 7997
  139.7249  143.8898  152.2516 H   0  0  0  0  0  0  0  0  0  0  0  0  # atno 10167 bound_to 10162
  156.1453  130.4153  150.0035 H   0  0  0  0  0  0  0  0  0  0  0  0  # atno 10718 bound_to 10713
  154.7703  135.3143  154.8202 H   0  0  0  0  0  0  0  0  0  0  0  0  # atno 10763 bound_to 10752
  153.8939  135.6822  153.4763 H   0  0  0  0  0  0  0  0  0  0  0  0  # atno 10764 bound_to 10752
  153.1316  135.4778  154.9292 H   0  0  0  0  0  0  0  0  0  0  0  0  # atno 10765 bound_to 10752
  140.8568  133.7817  156.0029 H   0  0  0  0  0  0  0  0  0  0  0  0  # atno 11005 bound_to 11000
  145.2251  140.9951  143.4023 LP  0  0  0  0  0  0  0  0  0  0  0  0  # atno 17320 bound_to 7965
  144.9577  139.4013  143.6371 LP  0  0  0  0  0  0  0  0  0  0  0  0  # atno 17321 bound_to 7965
  139.8805  144.7020  150.8883 LP  0  0  0  0  0  0  0  0  0  0  0  0  # atno 17342 bound_to 10162
  140.7761  143.3665  151.1729 LP  0  0  0  0  0  0  0  0  0  0  0  0  # atno 17343 bound_to 10162
  156.7908  130.9255  151.3646 LP  0  0  0  0  0  0  0  0  0  0  0  0  # atno 17370 bound_to 10713
  157.6611  130.8967  149.9832 LP  0  0  0  0  0  0  0  0  0  0  0  0  # atno 17371 bound_to 10713
  140.8728  134.2706  157.5182 LP  0  0  0  0  0  0  0  0  0  0  0  0  # atno 17394 bound_to 11000
  139.8705  134.9576  156.4273 LP  0  0  0  0  0  0  0  0  0  0  0  0  # atno 17395 bound_to 11000

$$$$
