AV-unprocessed.smi:69|AV-procd|sdf|652|dock10
  -GOLD-   2262016553D 1   1.00000     0.00000
 Structure written by MMmdl.
 32 34  0  0  0  0  0  0  0  0  1 V2000
  138.3599  136.6725  154.4383 N   0  0  0  0  0  0  0  0  0  0  0  0
  139.6159  136.8842  154.0218 C   0  0  0  0  0  0  0  0  0  0  0  0
  140.0405  138.1622  153.8809 N   0  0  0  0  0  0  0  0  0  0  0  0
  141.2908  138.3998  153.4695 C   0  0  0  0  0  0  0  0  0  0  0  0
  142.2481  137.5229  153.1529 N   0  0  0  0  0  0  0  0  0  0  0  0
  141.8141  136.2358  153.2932 C   0  0  0  0  0  0  0  0  0  0  0  0
  140.5205  135.8339  153.7241 C   0  0  0  0  0  0  0  0  0  0  0  0
  140.4449  134.4482  153.7583 N   0  0  0  0  0  0  0  0  0  0  0  0
  141.6312  134.0583  153.3726 C   0  0  0  0  0  0  0  0  0  0  0  0
  142.5125  135.0720  153.0535 N   0  0  0  0  0  0  0  0  0  0  0  0
  143.9393  134.9915  152.5995 C   0  0  1  0  0  0  0  0  0  0  0  0
  144.2925  133.6499  152.4666 O   0  0  0  0  0  0  0  0  0  0  0  0
  144.0255  133.2255  151.1364 C   0  0  2  0  0  0  0  0  0  0  0  0
  144.8201  131.9487  150.8249 C   0  0  0  0  0  0  0  0  0  0  0  0
  144.9731  131.8035  149.4290 O   0  0  0  0  0  0  0  0  0  0  0  0
  144.4702  134.4416  150.3187 C   0  0  1  0  0  0  0  0  0  0  0  0
  143.7677  134.4915  149.0928 O   0  0  0  0  0  0  0  0  0  0  0  0
  144.0953  135.6294  151.2045 C   0  0  2  0  0  0  0  0  0  0  0  0
  145.1201  136.6021  151.1872 O   0  0  0  0  0  0  0  0  0  0  0  0
  144.5035  135.4770  153.3974 H   0  0  0  0  0  0  0  0  0  0  0  0
  142.9539  133.0619  151.0059 H   0  0  0  0  0  0  0  0  0  0  0  0
  145.5468  134.4062  150.1423 H   0  0  0  0  0  0  0  0  0  0  0  0
  143.1545  136.0860  150.8918 H   0  0  0  0  0  0  0  0  0  0  0  0
  138.0222  135.7276  154.5521 H   0  0  0  0  0  0  0  0  0  0  0  0
  137.7545  137.4561  154.6352 H   0  0  0  0  0  0  0  0  0  0  0  0
  141.5631  139.4412  153.3813 H   0  0  0  0  0  0  0  0  0  0  0  0
  141.8904  133.0114  153.3128 H   0  0  0  0  0  0  0  0  0  0  0  0
  145.8186  132.0138  151.2581 H   0  0  0  0  0  0  0  0  0  0  0  0
  144.3389  131.0672  151.2495 H   0  0  0  0  0  0  0  0  0  0  0  0
  145.6181  131.1323  149.2659 H   0  0  0  0  0  0  0  0  0  0  0  0
  142.8413  134.5084  149.2802 H   0  0  0  0  0  0  0  0  0  0  0  0
  144.8944  137.2604  150.5473 H   0  0  0  0  0  0  0  0  0  0  0  0
  1  2  1  0  0  0  0
  1 24  1  0  0  0  0
  1 25  1  0  0  0  0
  2  7  1  0  0  0  0
  2  3  2  0  0  0  0
  3  4  1  0  0  0  0
  4  5  2  0  0  0  0
  4 26  1  0  0  0  0
  5  6  1  0  0  0  0
  6 10  1  0  0  0  0
  6  7  2  0  0  0  0
  7  8  1  0  0  0  0
  8  9  2  0  0  0  0
  9 10  1  0  0  0  0
  9 27  1  0  0  0  0
 10 11  1  0  0  0  0
 11 20  1  0  0  0  0
 11 18  1  0  0  0  0
 11 12  1  0  0  0  0
 12 13  1  0  0  0  0
 13 21  1  0  0  0  0
 13 14  1  0  0  0  0
 13 16  1  0  0  0  0
 14 15  1  0  0  0  0
 14 28  1  0  0  0  0
 14 29  1  0  0  0  0
 15 30  1  0  0  0  0
 16 22  1  0  0  0  0
 16 17  1  0  0  0  0
 16 18  1  0  0  0  0
 17 31  1  0  0  0  0
 18 23  1  0  0  0  0
 18 19  1  0  0  0  0
 19 32  1  0  0  0  0
M  END
> <s_m_source_file>
AV-unprocessed.smi

> <i_m_source_file_index>
69

> <i_lp_mmshare_version>
43012

> <i_f3d_flags>
0

> <s_epik_input>
bjFbY0hdbmMoW05IMl0pYyhjMTIpbltjSF1uMltDQEBIXTNPW0NASF0oW0NIMl1bT0hdKVtDQEBIXShbT0hdKVtDQEhdM1tPSF0=

> <s_epik_cmdline>
J2VwaWtfcHl0aG9uJywgJy1waCcsICc3LjAnLCAnLXRuJywgJzgnLCAnLW1hJywgJzIwMCcsICctbWV0YWxfYmluZGluZycsICctaW1hZScsICc8aW5maWxlLm1hZT4nLCAnLW9tYWUnLCAnPG91dGZpbGUubWFlPic=

> <r_lp_tautomer_probability>
1

> <r_epik_Ionization_Penalty>
0.000428445

> <r_epik_Ionization_Penalty_Charging>
0

> <r_epik_Ionization_Penalty_Neutral>
0.000428445

> <r_epik_State_Penalty>
-0

> <r_epik_Charging_Adjusted_Penalty>
0

> <i_epik_Tot_Q>
0

> <i_epik_Tot_abs_Q>
0

> <r_epik_Metal_State_Penalty>
-0

> <b_epik_Metal_Only>
0

> <s_epik_Chemistry_Notes>
This compound contains an acetal/aminal-like group ( X-CH(R)-Y where X, Y are N, S, or O) that may be acid/base labile, releasing an aldehyde.

> <s_lp_Force_Field>
OPLS_2005

> <r_lp_Energy>
31.7018

> <b_lp_Chiralities_Consistent>
1

> <s_lp_Variant>
AV-unprocessed.smi:69-10

> <Gold.Version>
5.8.1

> <Gold.Id.Protein>
6NUR|6NUR_protein|mol2

> <Gold.PLP.Fitness>
46.3401

> <Gold.PLP.PLP>
-31.6238

> <Gold.PLP.part.hbond>
-5.9661

> <Gold.PLP.part.metal>
0.0000

> <Gold.PLP.part.buried>
-3.9311

> <Gold.PLP.part.nonpolar>
-23.2339

> <Gold.PLP.part.repulsive>
1.1715

> <Gold.PLP.ligand.clash>
0.0000

> <Gold.PLP.ligand.torsion>
0.1792

> <Gold.PLP.Chemscore.Hbond>
3.0148

> <Gold.PLP.Chemscore.CHOScore>
2.0000

> <Gold.PLP.Chemscore.Metal>
0.0000

> <Gold.Chemscore.Hbonds>
donor molecule, donor type, donor heavy atom, donor atom, acceptor molecule, acceptor atom, score
      L1  H    17    31       P1 10186  1.00
      L1  H    19    32       P1 10171  1.00
      P1  H 10995 11001       L1     8  0.17
      P1  H 11000 11005       L1     8  1.00
      L1  C     4    26       P1 10175  1.00
      L1  C     9    27       P1 10957  1.00

> <Gold.PLP.Chemscore.Internal.Correction>
0.0304

> <Gold.Rescore>
     Score         DG    S(hbond)    S(metal)    S(lipo)     H(rot)  DE(clash)    DE(int)     intcor
      4.77      -7.23       2.24        0.00      39.24       4.03       2.23       0.23       ----

> <Gold.Chemscore.Fitness>
4.7690

> <Gold.Chemscore.DG>
-7.2297

> <Gold.Chemscore.ZeroCoef>
-5.4800

> <Gold.Chemscore.Hbond>
2.2365

> <Gold.Chemscore.Metal>
0.0000

> <Gold.Chemscore.Lipo>
39.2376

> <Gold.Chemscore.Internal_Hbond>
0.0000

> <Gold.Chemscore.DEClash>
2.2312

> <Gold.Chemscore.DEInternal>
0.2296

> <Gold.Chemscore.Rot>
4.0277

> <Gold.Chemscore.Internal.Correction>
   9.000000E+99

> <Gold.Chemscore.Hbonds>
donor molecule, donor type, donor heavy atom, donor atom, acceptor molecule, acceptor atom, score
      L1  H    17    31       P1 10186  1.00
      L1  H    19    32       P1 10171  0.99
      P1  H 10995 11001       L1     8  0.13
      P1  H 11000 11005       L1     8  0.10

> <Gold.Chemscore.Hbond.Weighted>
-7.4699

> <Gold.Chemscore.Metal.Weighted>
-0.0000

> <Gold.Chemscore.Lipo.Weighted>
-4.5908

> <Gold.Chemscore.Internal_Hbond.Weighted>
0.0000

> <Gold.Chemscore.DEClash.Weighted>
2.2312

> <Gold.Chemscore.DEInternal.Weighted>
0.2296

> <Gold.Chemscore.Rot.Weighted>
10.3110

> <Gold.Chemscore.Internal.Correction.Weighted>
   9.000000E+99

> <Gold.Protein.RotatedTorsions>
[ 6907 6896 6895 6894 ] final  126.85 input  -60.11 | X-H torsion
[ 7974 7965 7964 7962 ] final   37.63 input  175.53 | X-H torsion
[ 8008 7997 7996 7995 ] final  -71.32 input   59.86 | X-H torsion
[ 10167 10162 10161 10158 ] final  -90.09 input  -65.29 | X-H torsion
[ 10718 10713 10712 10709 ] final -168.99 input   66.30 | X-H torsion
[ 10763 10752 10751 10750 ] final -146.87 input  -60.55 | X-H torsion
[ 11005 11000 10999 10996 ] final    7.12 input  -57.11 | X-H torsion

> <Gold.Protein.ActiveResidues>
 VAL166  LYS551  ARG553  GLY616  TRP617  ASP618  TYR619  PRO620  LYS621  CYS622 
 ASP623  PHE694  ASN695  SER759  ASP760  ASP761  ALA762  ILE779  LEU786  VAL792 
 PHE793  MET794  SER795  GLU796  ALA797  LYS798  CYS799  TRP800  GLU811  SER814 

> <Gold.Protein.RotatedAtoms>
  152.3866  133.6620  159.6203 H   0  0  0  0  0  0  0  0  0  0  0  0  # atno 6907 bound_to 6896
  150.7784  133.9025  159.3354 H   0  0  0  0  0  0  0  0  0  0  0  0  # atno 6908 bound_to 6896
  151.6820  135.0961  160.0269 H   0  0  0  0  0  0  0  0  0  0  0  0  # atno 6909 bound_to 6896
  146.1123  139.5870  142.9344 H   0  0  0  0  0  0  0  0  0  0  0  0  # atno 7974 bound_to 7965
  154.5079  140.0818  156.7931 H   0  0  0  0  0  0  0  0  0  0  0  0  # atno 8008 bound_to 7997
  155.3852  140.3430  155.4230 H   0  0  0  0  0  0  0  0  0  0  0  0  # atno 8009 bound_to 7997
  156.1538  140.1566  156.8714 H   0  0  0  0  0  0  0  0  0  0  0  0  # atno 8010 bound_to 7997
  140.3583  143.2855  151.9645 H   0  0  0  0  0  0  0  0  0  0  0  0  # atno 10167 bound_to 10162
  156.7051  130.9211  151.3083 H   0  0  0  0  0  0  0  0  0  0  0  0  # atno 10718 bound_to 10713
  154.8314  135.3375  154.6729 H   0  0  0  0  0  0  0  0  0  0  0  0  # atno 10763 bound_to 10752
  153.7348  135.6949  153.4985 H   0  0  0  0  0  0  0  0  0  0  0  0  # atno 10764 bound_to 10752
  153.2286  135.4424  155.0521 H   0  0  0  0  0  0  0  0  0  0  0  0  # atno 10765 bound_to 10752
  140.5518  134.0276  155.7939 H   0  0  0  0  0  0  0  0  0  0  0  0  # atno 11005 bound_to 11000
  145.5639  141.0401  143.2211 LP  0  0  0  0  0  0  0  0  0  0  0  0  # atno 17320 bound_to 7965
  144.7522  139.7165  143.7268 LP  0  0  0  0  0  0  0  0  0  0  0  0  # atno 17321 bound_to 7965
  139.4817  144.6015  151.7597 LP  0  0  0  0  0  0  0  0  0  0  0  0  # atno 17342 bound_to 10162
  140.5152  144.0964  150.6006 LP  0  0  0  0  0  0  0  0  0  0  0  0  # atno 17343 bound_to 10162
  157.6958  130.9280  150.0641 LP  0  0  0  0  0  0  0  0  0  0  0  0  # atno 17370 bound_to 10713
  156.1701  130.3646  149.9177 LP  0  0  0  0  0  0  0  0  0  0  0  0  # atno 17371 bound_to 10713
  141.1167  133.9528  157.2809 LP  0  0  0  0  0  0  0  0  0  0  0  0  # atno 17394 bound_to 11000
  139.9451  135.0185  156.8828 LP  0  0  0  0  0  0  0  0  0  0  0  0  # atno 17395 bound_to 11000

$$$$
