AV-unprocessed.smi:1207|AV-procd|sdf|5054|dock6
  -GOLD-   22720 4 83D 1   1.00000     0.00000
 Structure written by MMmdl.
 52 54  0  0  0  0  0  0  0  0  2 V2000
  150.8514  144.1312  159.5183 C   0  0  0  0  0  0  0  0  0  0  0  0
  151.8587  143.3299  160.3243 C   0  0  0  0  0  0  0  0  0  0  0  0
  152.1607  143.7348  161.6441 C   0  0  0  0  0  0  0  0  0  0  0  0
  153.0892  143.0158  162.4279 C   0  0  0  0  0  0  0  0  0  0  0  0
  153.5257  143.2271  163.7245 N   0  0  0  0  0  0  0  0  0  0  0  0
  154.3827  142.2236  163.8863 C   0  0  0  0  0  0  0  0  0  0  0  0
  154.5530  141.3845  162.8467 N   0  0  0  0  0  0  0  0  0  0  0  0
  155.4227  140.2231  162.7953 C   0  0  0  0  0  0  0  0  0  0  0  0
  154.6495  138.9007  162.9615 C   0  0  1  0  0  0  0  0  0  0  0  0
  154.2191  138.4401  161.6938 O   0  0  0  0  0  0  0  0  0  0  0  0
  155.5163  137.8066  163.6097 C   0  0  0  0  0  0  0  0  0  0  0  0
  154.8538  136.4763  163.5466 N   0  3  2  0  0  0  0  0  0  0  0  0
  153.6909  136.3742  164.4578 C   0  0  0  0  0  0  0  0  0  0  0  0
  155.7865  135.3321  163.7009 C   0  0  0  0  0  0  0  0  0  0  0  0
  155.0855  134.0170  163.4692 C   0  0  0  0  0  0  0  0  0  0  0  0
  155.0871  133.2159  162.2909 C   0  0  0  0  0  0  0  0  0  0  0  0
  155.7946  133.4677  160.9898 C   0  0  0  0  0  0  0  0  0  0  0  0
  154.3464  132.1301  162.4322 N   0  0  0  0  0  0  0  0  0  0  0  0
  153.8336  132.1812  163.7316 O   0  0  0  0  0  0  0  0  0  0  0  0
  154.2900  133.3104  164.3291 C   0  0  0  0  0  0  0  0  0  0  0  0
  153.8394  133.5506  165.7300 C   0  0  0  0  0  0  0  0  0  0  0  0
  153.7142  141.8723  161.8499 C   0  0  0  0  0  0  0  0  0  0  0  0
  153.4237  141.4607  160.5372 C   0  0  0  0  0  0  0  0  0  0  0  0
  152.4915  142.1889  159.7689 C   0  0  0  0  0  0  0  0  0  0  0  0
  152.1813  141.7337  158.3540 C   0  0  0  0  0  0  0  0  0  0  0  0
  150.4866  144.9917  160.0799 H   0  0  0  0  0  0  0  0  0  0  0  0
  149.9921  143.5126  159.2583 H   0  0  0  0  0  0  0  0  0  0  0  0
  151.3045  144.5007  158.5981 H   0  0  0  0  0  0  0  0  0  0  0  0
  151.6786  144.6038  162.0676 H   0  0  0  0  0  0  0  0  0  0  0  0
  154.9160  142.0879  164.8158 H   0  0  0  0  0  0  0  0  0  0  0  0
  155.9651  140.2362  161.8490 H   0  0  0  0  0  0  0  0  0  0  0  0
  156.1711  140.3223  163.5828 H   0  0  0  0  0  0  0  0  0  0  0  0
  153.7650  139.0857  163.5716 H   0  0  0  0  0  0  0  0  0  0  0  0
  154.7193  138.8810  161.0236 H   0  0  0  0  0  0  0  0  0  0  0  0
  156.4808  137.7903  163.1024 H   0  0  0  0  0  0  0  0  0  0  0  0
  155.7362  138.0543  164.6493 H   0  0  0  0  0  0  0  0  0  0  0  0
  154.0073  136.4149  165.5010 H   0  0  0  0  0  0  0  0  0  0  0  0
  153.1586  135.4356  164.2998 H   0  0  0  0  0  0  0  0  0  0  0  0
  152.9822  137.1839  164.2849 H   0  0  0  0  0  0  0  0  0  0  0  0
  156.6303  135.4655  163.0226 H   0  0  0  0  0  0  0  0  0  0  0  0
  156.2067  135.3487  164.7073 H   0  0  0  0  0  0  0  0  0  0  0  0
  155.5076  134.4309  160.5682 H   0  0  0  0  0  0  0  0  0  0  0  0
  155.5645  132.7018  160.2480 H   0  0  0  0  0  0  0  0  0  0  0  0
  156.8754  133.4758  161.1308 H   0  0  0  0  0  0  0  0  0  0  0  0
  154.4650  134.2963  166.2205 H   0  0  0  0  0  0  0  0  0  0  0  0
  153.8880  132.6326  166.3163 H   0  0  0  0  0  0  0  0  0  0  0  0
  152.8100  133.9089  165.7464 H   0  0  0  0  0  0  0  0  0  0  0  0
  153.9120  140.5897  160.1259 H   0  0  0  0  0  0  0  0  0  0  0  0
  152.7286  140.8257  158.0991 H   0  0  0  0  0  0  0  0  0  0  0  0
  152.4594  142.5054  157.6361 H   0  0  0  0  0  0  0  0  0  0  0  0
  151.1172  141.5240  158.2440 H   0  0  0  0  0  0  0  0  0  0  0  0
  154.4866  136.3979  162.6086 H   0  0  0  0  0  0  0  0  0  0  0  0
  1  2  1  0  0  0  0
  1 26  1  0  0  0  0
  1 27  1  0  0  0  0
  1 28  1  0  0  0  0
  2 24  1  0  0  0  0
  2  3  2  0  0  0  0
  3  4  1  0  0  0  0
  3 29  1  0  0  0  0
  4 22  2  0  0  0  0
  4  5  1  0  0  0  0
  5  6  2  0  0  0  0
  6  7  1  0  0  0  0
  6 30  1  0  0  0  0
  7  8  1  0  0  0  0
  7 22  1  0  0  0  0
  8  9  1  0  0  0  0
  8 31  1  0  0  0  0
  8 32  1  0  0  0  0
  9 10  1  0  0  0  0
  9 11  1  0  0  0  0
  9 33  1  0  0  0  0
 10 34  1  0  0  0  0
 11 12  1  0  0  0  0
 11 35  1  0  0  0  0
 11 36  1  0  0  0  0
 12 13  1  0  0  0  0
 12 14  1  0  0  0  0
 12 52  1  0  0  0  0
 13 37  1  0  0  0  0
 13 38  1  0  0  0  0
 13 39  1  0  0  0  0
 14 15  1  0  0  0  0
 14 40  1  0  0  0  0
 14 41  1  0  0  0  0
 15 20  2  0  0  0  0
 15 16  1  0  0  0  0
 16 17  1  0  0  0  0
 16 18  2  0  0  0  0
 17 42  1  0  0  0  0
 17 43  1  0  0  0  0
 17 44  1  0  0  0  0
 18 19  1  0  0  0  0
 19 20  1  0  0  0  0
 20 21  1  0  0  0  0
 21 45  1  0  0  0  0
 21 46  1  0  0  0  0
 21 47  1  0  0  0  0
 22 23  1  0  0  0  0
 23 24  2  0  0  0  0
 23 48  1  0  0  0  0
 24 25  1  0  0  0  0
 25 49  1  0  0  0  0
 25 50  1  0  0  0  0
 25 51  1  0  0  0  0
M  CHG  1  12   1
M  END
> <s_m_source_file>
AV-unprocessed.smi

> <i_m_source_file_index>
1207

> <i_lp_mmshare_version>
43012

> <i_f3d_flags>
0

> <s_epik_input>
W0NIM11jKFtjSF0xKWMoW0NIM10pW2NIXWMoYzEyKW4oW2NIXW4yKVtDSDJdW0NASF0oW09IXSlbQ0gyXU4oW0NIM10pW0NIMl1jM2MoW0NIM10pbm9jM1tDSDNd

> <s_epik_cmdline>
J2VwaWtfcHl0aG9uJywgJy1waCcsICc3LjAnLCAnLXRuJywgJzgnLCAnLW1hJywgJzIwMCcsICctbWV0YWxfYmluZGluZycsICctaW1hZScsICc8aW5maWxlLm1hZT4nLCAnLW9tYWUnLCAnPG91dGZpbGUubWFlPic=

> <r_epik_Ionization_Penalty>
0.646518

> <r_epik_Ionization_Penalty_Charging>
0.559419

> <r_epik_Ionization_Penalty_Neutral>
0.0870981

> <r_epik_State_Penalty>
0.661677

> <r_epik_Charging_Adjusted_Penalty>
1.2211

> <i_epik_Tot_Q>
1

> <i_epik_Tot_abs_Q>
1

> <r_epik_Metal_State_Penalty>
0.649158

> <b_epik_Metal_Only>
0

> <s_lp_Force_Field>
OPLS_2005

> <r_lp_Energy>
8.09598

> <b_lp_Chiralities_Consistent>
1

> <s_lp_Variant>
AV-unprocessed.smi:1207-6

> <Gold.Version>
5.8.1

> <Gold.Id.Protein>
6NUR|6NUR_protein|mol2

> <Gold.PLP.Fitness>
47.5918

> <Gold.PLP.PLP>
-49.4357

> <Gold.PLP.part.hbond>
-0.0147

> <Gold.PLP.part.metal>
0.0000

> <Gold.PLP.part.buried>
-1.6164

> <Gold.PLP.part.nonpolar>
-46.9856

> <Gold.PLP.part.repulsive>
0.1100

> <Gold.PLP.ligand.clash>
0.0000

> <Gold.PLP.ligand.torsion>
1.0707

> <Gold.PLP.Chemscore.Hbond>
0.0000

> <Gold.PLP.Chemscore.CHOScore>
0.0000

> <Gold.PLP.Chemscore.Metal>
0.0000

> <Gold.PLP.Chemscore.Internal.Correction>
0.2977

> <Gold.Rescore>
     Score         DG    S(hbond)    S(metal)    S(lipo)     H(rot)  DE(clash)    DE(int)     intcor
     14.84     -16.20       0.00        0.00     145.34       2.46       0.17       1.19       ----

> <Gold.Chemscore.Fitness>
14.8445

> <Gold.Chemscore.DG>
-16.1960

> <Gold.Chemscore.ZeroCoef>
-5.4800

> <Gold.Chemscore.Hbond>
0.0000

> <Gold.Chemscore.Metal>
0.0000

> <Gold.Chemscore.Lipo>
145.3390

> <Gold.Chemscore.Internal_Hbond>
0.0000

> <Gold.Chemscore.DEClash>
0.1653

> <Gold.Chemscore.DEInternal>
1.1861

> <Gold.Chemscore.Rot>
2.4565

> <Gold.Chemscore.Internal.Correction>
   9.000000E+99

> <Gold.Chemscore.Hbond.Weighted>
-0.0000

> <Gold.Chemscore.Metal.Weighted>
-0.0000

> <Gold.Chemscore.Lipo.Weighted>
-17.0047

> <Gold.Chemscore.Internal_Hbond.Weighted>
0.0000

> <Gold.Chemscore.DEClash.Weighted>
0.1653

> <Gold.Chemscore.DEInternal.Weighted>
1.1861

> <Gold.Chemscore.Rot.Weighted>
6.2887

> <Gold.Chemscore.Internal.Correction.Weighted>
   9.000000E+99

> <Gold.Protein.RotatedTorsions>
[ 6907 6896 6895 6894 ] final  119.57 input  -60.11 | X-H torsion
[ 7974 7965 7964 7962 ] final  122.25 input  175.53 | X-H torsion
[ 8008 7997 7996 7995 ] final  -45.64 input   59.86 | X-H torsion
[ 10167 10162 10161 10158 ] final  -94.75 input  -65.29 | X-H torsion
[ 10718 10713 10712 10709 ] final  -27.25 input   66.30 | X-H torsion
[ 10763 10752 10751 10750 ] final  -93.88 input  -60.55 | X-H torsion
[ 11005 11000 10999 10996 ] final  108.64 input  -57.11 | X-H torsion

> <Gold.Protein.ActiveResidues>
 VAL166  LYS551  ARG553  GLY616  TRP617  ASP618  TYR619  PRO620  LYS621  CYS622 
 ASP623  PHE694  ASN695  SER759  ASP760  ASP761  ALA762  ILE779  LEU786  VAL792 
 PHE793  MET794  SER795  GLU796  ALA797  LYS798  CYS799  TRP800  GLU811  SER814 

> <Gold.Protein.RotatedAtoms>
  152.4462  133.7541  159.6709 H   0  0  0  0  0  0  0  0  0  0  0  0  # atno 6907 bound_to 6896
  150.8362  133.7999  159.3084 H   0  0  0  0  0  0  0  0  0  0  0  0  # atno 6908 bound_to 6896
  151.5637  135.1067  160.0030 H   0  0  0  0  0  0  0  0  0  0  0  0  # atno 6909 bound_to 6896
  145.1097  139.3461  143.4769 H   0  0  0  0  0  0  0  0  0  0  0  0  # atno 7974 bound_to 7965
  154.4002  140.1391  156.3880 H   0  0  0  0  0  0  0  0  0  0  0  0  # atno 8008 bound_to 7997
  155.7941  140.3478  155.5345 H   0  0  0  0  0  0  0  0  0  0  0  0  # atno 8009 bound_to 7997
  155.8550  140.0947  157.1641 H   0  0  0  0  0  0  0  0  0  0  0  0  # atno 8010 bound_to 7997
  140.3112  143.3104  152.0146 H   0  0  0  0  0  0  0  0  0  0  0  0  # atno 10167 bound_to 10162
  156.4407  130.4463  149.7055 H   0  0  0  0  0  0  0  0  0  0  0  0  # atno 10718 bound_to 10713
  154.7002  135.5178  153.8516 H   0  0  0  0  0  0  0  0  0  0  0  0  # atno 10763 bound_to 10752
  153.0698  135.6597  154.0282 H   0  0  0  0  0  0  0  0  0  0  0  0  # atno 10764 bound_to 10752
  154.0142  135.2999  155.3368 H   0  0  0  0  0  0  0  0  0  0  0  0  # atno 10765 bound_to 10752
  139.8847  134.9436  156.6003 H   0  0  0  0  0  0  0  0  0  0  0  0  # atno 11005 bound_to 11000
  146.3527  140.1011  142.8608 LP  0  0  0  0  0  0  0  0  0  0  0  0  # atno 17320 bound_to 7965
  145.0861  140.9253  143.4797 LP  0  0  0  0  0  0  0  0  0  0  0  0  # atno 17321 bound_to 7965
  139.4893  144.6383  151.6930 LP  0  0  0  0  0  0  0  0  0  0  0  0  # atno 17342 bound_to 10162
  140.5567  144.0337  150.6151 LP  0  0  0  0  0  0  0  0  0  0  0  0  # atno 17343 bound_to 10162
  156.3921  130.7632  151.2634 LP  0  0  0  0  0  0  0  0  0  0  0  0  # atno 17370 bound_to 10713
  157.7506  131.0265  150.3964 LP  0  0  0  0  0  0  0  0  0  0  0  0  # atno 17371 bound_to 10713
  140.7888  133.8599  155.8629 LP  0  0  0  0  0  0  0  0  0  0  0  0  # atno 17394 bound_to 11000
  140.9695  134.1549  157.4588 LP  0  0  0  0  0  0  0  0  0  0  0  0  # atno 17395 bound_to 11000

$$$$
