AV-unprocessed.smi:3197|AV-procd|sdf|12225|dock7
  -GOLD-   2272018 53D 1   1.00000     0.00000
 Structure written by MMmdl.
 33 34  0  0  0  0  0  0  0  0  1 V2000
  144.4648  132.2132  150.6714 C   0  0  0  0  0  0  0  0  0  0  0  0
  143.7443  133.3772  151.0056 C   0  0  0  0  0  0  0  0  0  0  0  0
  144.3674  134.5388  151.3022 N   0  0  0  0  0  0  0  0  0  0  0  0
  145.7024  134.5383  151.2652 C   0  0  0  0  0  0  0  0  0  0  0  0
  146.3065  135.7420  151.5749 N   0  0  0  0  0  0  0  0  0  0  0  0
  145.5845  136.9392  151.9782 C   0  0  0  0  0  0  0  0  0  0  0  0
  146.4524  138.1945  151.8419 C   0  0  0  0  0  0  0  0  0  0  0  0
  147.1042  138.4472  153.0757 O   0  0  0  0  0  0  0  0  0  0  0  0
  147.1307  139.8251  153.4095 C   0  0  0  0  0  0  0  0  0  0  0  0
  148.2149  140.0642  154.4697 C   0  0  2  0  0  0  0  0  0  0  0  0
  148.6254  141.5152  154.6154 C   0  0  0  0  0  0  0  0  0  0  0  0
  149.9717  141.3897  155.3213 C   0  0  0  0  0  0  0  0  0  0  0  0
  150.5407  140.1701  154.8544 O   0  0  0  0  0  0  0  0  0  0  0  0
  149.5603  139.4094  154.1535 C   0  0  0  0  0  0  0  0  0  0  0  0
  146.4854  133.4954  150.9628 N   0  0  0  0  0  0  0  0  0  0  0  0
  145.8688  132.3310  150.6648 C   0  0  0  0  0  0  0  0  0  0  0  0
  143.9694  131.2835  150.4338 H   0  0  0  0  0  0  0  0  0  0  0  0
  142.6649  133.3766  151.0355 H   0  0  0  0  0  0  0  0  0  0  0  0
  147.3155  135.7721  151.5613 H   0  0  0  0  0  0  0  0  0  0  0  0
  144.7033  137.0393  151.3435 H   0  0  0  0  0  0  0  0  0  0  0  0
  145.2313  136.8307  153.0042 H   0  0  0  0  0  0  0  0  0  0  0  0
  147.1771  138.0744  151.0347 H   0  0  0  0  0  0  0  0  0  0  0  0
  145.8198  139.0463  151.5883 H   0  0  0  0  0  0  0  0  0  0  0  0
  147.3273  140.4259  152.5199 H   0  0  0  0  0  0  0  0  0  0  0  0
  146.1582  140.1280  153.8008 H   0  0  0  0  0  0  0  0  0  0  0  0
  147.8634  139.7041  155.4382 H   0  0  0  0  0  0  0  0  0  0  0  0
  148.7596  141.9742  153.6346 H   0  0  0  0  0  0  0  0  0  0  0  0
  147.9057  142.1115  155.1773 H   0  0  0  0  0  0  0  0  0  0  0  0
  150.6273  142.2381  155.1238 H   0  0  0  0  0  0  0  0  0  0  0  0
  149.8293  141.3152  156.4001 H   0  0  0  0  0  0  0  0  0  0  0  0
  149.5896  138.3591  154.4443 H   0  0  0  0  0  0  0  0  0  0  0  0
  149.7798  139.4693  153.0866 H   0  0  0  0  0  0  0  0  0  0  0  0
  146.4991  131.4890  150.4198 H   0  0  0  0  0  0  0  0  0  0  0  0
  1 16  1  0  0  0  0
  1  2  2  0  0  0  0
  1 17  1  0  0  0  0
  2  3  1  0  0  0  0
  2 18  1  0  0  0  0
  3  4  2  0  0  0  0
  4  5  1  0  0  0  0
  4 15  1  0  0  0  0
  5  6  1  0  0  0  0
  5 19  1  0  0  0  0
  6  7  1  0  0  0  0
  6 20  1  0  0  0  0
  6 21  1  0  0  0  0
  7  8  1  0  0  0  0
  7 22  1  0  0  0  0
  7 23  1  0  0  0  0
  8  9  1  0  0  0  0
  9 10  1  0  0  0  0
  9 24  1  0  0  0  0
  9 25  1  0  0  0  0
 10 14  1  0  0  0  0
 10 11  1  0  0  0  0
 10 26  1  0  0  0  0
 11 12  1  0  0  0  0
 11 27  1  0  0  0  0
 11 28  1  0  0  0  0
 12 13  1  0  0  0  0
 12 29  1  0  0  0  0
 12 30  1  0  0  0  0
 13 14  1  0  0  0  0
 14 31  1  0  0  0  0
 14 32  1  0  0  0  0
 15 16  2  0  0  0  0
 16 33  1  0  0  0  0
M  END
> <s_m_source_file>
AV-unprocessed.smi

> <i_m_source_file_index>
3197

> <i_lp_mmshare_version>
43012

> <i_f3d_flags>
0

> <s_epik_input>
bjFbY0hdW2NIXVtjSF1uYzFbTkhdW0NIMl1bQ0gyXU9bQ0gyXVtDQEBIXTJbQ0gyXVtDSDJdT1tDSDJdMg==

> <s_epik_cmdline>
J2VwaWtfcHl0aG9uJywgJy1waCcsICc3LjAnLCAnLXRuJywgJzgnLCAnLW1hJywgJzIwMCcsICctbWV0YWxfYmluZGluZycsICctaW1hZScsICc8aW5maWxlLm1hZT4nLCAnLW9tYWUnLCAnPG91dGZpbGUubWFlPic=

> <r_lp_tautomer_probability>
1

> <r_epik_Ionization_Penalty>
0.000570263

> <r_epik_Ionization_Penalty_Charging>
0

> <r_epik_Ionization_Penalty_Neutral>
0.000570263

> <r_epik_State_Penalty>
0.000357543

> <r_epik_Charging_Adjusted_Penalty>
0.000357543

> <i_epik_Tot_Q>
0

> <i_epik_Tot_abs_Q>
0

> <r_epik_Metal_State_Penalty>
-0

> <b_epik_Metal_Only>
0

> <s_lp_Force_Field>
OPLS_2005

> <r_lp_Energy>
12.4723

> <b_lp_Chiralities_Consistent>
1

> <s_lp_Variant>
AV-unprocessed.smi:3197-1

> <Gold.Version>
5.8.1

> <Gold.Id.Protein>
6NUR|6NUR_protein|mol2

> <Gold.PLP.Fitness>
40.4154

> <Gold.PLP.PLP>
-29.9876

> <Gold.PLP.part.hbond>
-2.0000

> <Gold.PLP.part.metal>
0.0000

> <Gold.PLP.part.buried>
-3.1043

> <Gold.PLP.part.nonpolar>
-26.6074

> <Gold.PLP.part.repulsive>
0.8792

> <Gold.PLP.ligand.clash>
0.0000

> <Gold.PLP.ligand.torsion>
0.8094

> <Gold.PLP.Chemscore.Hbond>
2.0000

> <Gold.PLP.Chemscore.CHOScore>
2.0000

> <Gold.PLP.Chemscore.Metal>
0.0000

> <Gold.Chemscore.Hbonds>
donor molecule, donor type, donor heavy atom, donor atom, acceptor molecule, acceptor atom, score
      L1  H     5    19       P1  7948  1.00
      P1  H  7989  7998       L1    13  0.90
      L1  C     2    18       P1 10186  1.00
      L1  C    16    33       P1 10747  0.94

> <Gold.PLP.Chemscore.Internal.Correction>
0.0465

> <Gold.Rescore>
     Score         DG    S(hbond)    S(metal)    S(lipo)     H(rot)  DE(clash)    DE(int)     intcor
     12.89     -13.97       1.40        0.00      73.69       1.88       0.25       0.82       ----

> <Gold.Chemscore.Fitness>
12.8923

> <Gold.Chemscore.DG>
-13.9680

> <Gold.Chemscore.ZeroCoef>
-5.4800

> <Gold.Chemscore.Hbond>
1.3996

> <Gold.Chemscore.Metal>
0.0000

> <Gold.Chemscore.Lipo>
73.6929

> <Gold.Chemscore.Internal_Hbond>
0.0000

> <Gold.Chemscore.DEClash>
0.2544

> <Gold.Chemscore.DEInternal>
0.8213

> <Gold.Chemscore.Rot>
1.8784

> <Gold.Chemscore.Internal.Correction>
   9.000000E+99

> <Gold.Chemscore.Hbonds>
donor molecule, donor type, donor heavy atom, donor atom, acceptor molecule, acceptor atom, score
      L1  H     5    19       P1  7948  1.00
      P1  H  7989  7998       L1    13  0.08

> <Gold.Chemscore.Hbond.Weighted>
-4.6746

> <Gold.Chemscore.Metal.Weighted>
-0.0000

> <Gold.Chemscore.Lipo.Weighted>
-8.6221

> <Gold.Chemscore.Internal_Hbond.Weighted>
0.0000

> <Gold.Chemscore.DEClash.Weighted>
0.2544

> <Gold.Chemscore.DEInternal.Weighted>
0.8213

> <Gold.Chemscore.Rot.Weighted>
4.8087

> <Gold.Chemscore.Internal.Correction.Weighted>
   9.000000E+99

> <Gold.Protein.RotatedTorsions>
[ 6907 6896 6895 6894 ] final  -97.56 input  -60.11 | X-H torsion
[ 7974 7965 7964 7962 ] final  -10.09 input  175.53 | X-H torsion
[ 8008 7997 7996 7995 ] final -162.64 input   59.86 | X-H torsion
[ 10167 10162 10161 10158 ] final    9.15 input  -65.29 | X-H torsion
[ 10718 10713 10712 10709 ] final  167.29 input   66.30 | X-H torsion
[ 10763 10752 10751 10750 ] final -110.16 input  -60.55 | X-H torsion
[ 11005 11000 10999 10996 ] final   -4.07 input  -57.11 | X-H torsion

> <Gold.Protein.ActiveResidues>
 VAL166  LYS551  ARG553  GLY616  TRP617  ASP618  TYR619  PRO620  LYS621  CYS622 
 ASP623  PHE694  ASN695  SER759  ASP760  ASP761  ALA762  ILE779  LEU786  VAL792 
 PHE793  MET794  SER795  GLU796  ALA797  LYS798  CYS799  TRP800  GLU811  SER814 

> <Gold.Protein.RotatedAtoms>
  150.7020  134.1329  159.4076 H   0  0  0  0  0  0  0  0  0  0  0  0  # atno 6907 bound_to 6896
  151.9315  135.0252  160.0539 H   0  0  0  0  0  0  0  0  0  0  0  0  # atno 6908 bound_to 6896
  152.2172  133.4920  159.5179 H   0  0  0  0  0  0  0  0  0  0  0  0  # atno 6909 bound_to 6896
  146.2231  140.2712  142.8357 H   0  0  0  0  0  0  0  0  0  0  0  0  # atno 7974 bound_to 7965
  155.8097  140.0904  157.1911 H   0  0  0  0  0  0  0  0  0  0  0  0  # atno 8008 bound_to 7997
  154.3980  140.1457  156.3431 H   0  0  0  0  0  0  0  0  0  0  0  0  # atno 8009 bound_to 7997
  155.8378  140.3440  155.5615 H   0  0  0  0  0  0  0  0  0  0  0  0  # atno 8010 bound_to 7997
  140.6272  143.8074  150.7248 H   0  0  0  0  0  0  0  0  0  0  0  0  # atno 10167 bound_to 10162
  157.0536  131.0320  151.2672 H   0  0  0  0  0  0  0  0  0  0  0  0  # atno 10718 bound_to 10713
  154.8233  135.4574  154.0843 H   0  0  0  0  0  0  0  0  0  0  0  0  # atno 10763 bound_to 10752
  153.2178  135.6890  153.8042 H   0  0  0  0  0  0  0  0  0  0  0  0  # atno 10764 bound_to 10752
  153.7470  135.3304  155.3291 H   0  0  0  0  0  0  0  0  0  0  0  0  # atno 10765 bound_to 10752
  140.6762  133.9193  155.8526 H   0  0  0  0  0  0  0  0  0  0  0  0  # atno 11005 bound_to 11000
  144.9266  140.7928  143.5715 LP  0  0  0  0  0  0  0  0  0  0  0  0  # atno 17320 bound_to 7965
  145.2653  139.1976  143.4870 LP  0  0  0  0  0  0  0  0  0  0  0  0  # atno 17321 bound_to 7965
  140.1678  143.4220  152.2022 LP  0  0  0  0  0  0  0  0  0  0  0  0  # atno 17342 bound_to 10162
  139.5491  144.7323  151.4491 LP  0  0  0  0  0  0  0  0  0  0  0  0  # atno 17343 bound_to 10162
  157.5010  130.7880  149.7605 LP  0  0  0  0  0  0  0  0  0  0  0  0  # atno 17370 bound_to 10713
  156.0000  130.3886  150.2644 LP  0  0  0  0  0  0  0  0  0  0  0  0  # atno 17371 bound_to 10713
  141.0353  134.0698  157.3966 LP  0  0  0  0  0  0  0  0  0  0  0  0  # atno 17394 bound_to 11000
  139.8966  135.0146  156.7058 LP  0  0  0  0  0  0  0  0  0  0  0  0  # atno 17395 bound_to 11000

$$$$
