AV-unprocessed.smi:2273|AV-procd|sdf|9165|dock4
  -GOLD-   2272012373D 1   1.00000     0.00000
 Structure written by MMmdl.
 53 54  0  0  0  0  0  0  0  0  1 V2000
  153.0121  138.2351  159.3798 C   0  0  0  0  0  0  0  0  0  0  0  0
  151.6475  137.5816  159.1132 C   0  0  0  0  0  0  0  0  0  0  0  0
  151.3089  137.3932  157.6126 C   0  0  0  0  0  0  0  0  0  0  0  0
  151.4036  138.7335  156.8411 C   0  0  0  0  0  0  0  0  0  0  0  0
  151.6264  138.5853  155.3281 C   0  0  0  0  0  0  0  0  0  0  0  0
  149.9275  136.7184  157.4036 C   0  0  1  0  0  0  0  0  0  0  0  0
  149.5532  136.4737  155.9263 C   0  0  0  0  0  0  0  0  0  0  0  0
  148.1607  135.8261  155.8264 C   0  0  1  0  0  0  0  0  0  0  0  0
  147.8398  135.4758  154.4413 N   0  0  0  0  0  0  0  0  0  0  0  0
  146.9243  134.5965  153.9952 C   0  0  0  0  0  0  0  0  0  0  0  0
  146.2358  133.9375  154.7730 O   0  0  0  0  0  0  0  0  0  0  0  0
  146.8616  134.4913  152.6522 N   0  0  0  0  0  0  0  0  0  0  0  0
  146.0431  133.6154  151.9232 C   0  0  0  0  0  0  0  0  0  0  0  0
  145.1745  134.1309  151.0139 C   0  0  0  0  0  0  0  0  0  0  0  0
  145.0952  135.6243  150.7390 C   0  0  0  0  0  0  0  0  0  0  0  0
  144.3174  133.2310  150.2707 C   0  0  0  0  0  0  0  0  0  0  0  0
  144.3896  131.9130  150.4993 C   0  0  0  0  0  0  0  0  0  0  0  0
  145.2653  131.3780  151.4548 N   0  0  0  0  0  0  0  0  0  0  0  0
  145.2560  129.9252  151.6448 C   0  0  0  0  0  0  0  0  0  0  0  0
  146.0804  132.1624  152.2171 C   0  0  0  0  0  0  0  0  0  0  0  0
  146.7818  131.6697  153.1037 O   0  0  0  0  0  0  0  0  0  0  0  0
  148.1349  134.5643  156.7016 C   0  0  0  0  0  0  0  0  0  0  0  0
  148.5913  134.8867  158.1338 C   0  0  0  0  0  0  0  0  0  0  0  0
  149.8840  135.4840  158.1169 O   0  0  0  0  0  0  0  0  0  0  0  0
  153.2317  138.2382  160.4476 H   0  0  0  0  0  0  0  0  0  0  0  0
  153.0461  139.2705  159.0436 H   0  0  0  0  0  0  0  0  0  0  0  0
  153.8140  137.6910  158.8803 H   0  0  0  0  0  0  0  0  0  0  0  0
  151.6596  136.6184  159.6188 H   0  0  0  0  0  0  0  0  0  0  0  0
  150.8633  138.1610  159.6018 H   0  0  0  0  0  0  0  0  0  0  0  0
  152.0608  136.7235  157.1929 H   0  0  0  0  0  0  0  0  0  0  0  0
  150.5108  139.3326  157.0232 H   0  0  0  0  0  0  0  0  0  0  0  0
  152.2353  139.3228  157.2232 H   0  0  0  0  0  0  0  0  0  0  0  0
  151.7881  139.5610  154.8691 H   0  0  0  0  0  0  0  0  0  0  0  0
  150.7709  138.1343  154.8272 H   0  0  0  0  0  0  0  0  0  0  0  0
  152.5038  137.9736  155.1171 H   0  0  0  0  0  0  0  0  0  0  0  0
  149.1606  137.3748  157.8136 H   0  0  0  0  0  0  0  0  0  0  0  0
  149.5763  137.4166  155.3809 H   0  0  0  0  0  0  0  0  0  0  0  0
  150.2792  135.8195  155.4455 H   0  0  0  0  0  0  0  0  0  0  0  0
  147.4096  136.5174  156.2131 H   0  0  0  0  0  0  0  0  0  0  0  0
  148.3837  135.9502  153.7347 H   0  0  0  0  0  0  0  0  0  0  0  0
  147.5563  134.9919  152.1179 H   0  0  0  0  0  0  0  0  0  0  0  0
  144.3619  135.8450  149.9631 H   0  0  0  0  0  0  0  0  0  0  0  0
  146.0609  136.0042  150.4043 H   0  0  0  0  0  0  0  0  0  0  0  0
  144.8021  136.1636  151.6403 H   0  0  0  0  0  0  0  0  0  0  0  0
  143.6288  133.6127  149.5311 H   0  0  0  0  0  0  0  0  0  0  0  0
  143.7782  131.1935  149.9745 H   0  0  0  0  0  0  0  0  0  0  0  0
  146.2648  129.5175  151.5615 H   0  0  0  0  0  0  0  0  0  0  0  0
  144.6399  129.4087  150.9079 H   0  0  0  0  0  0  0  0  0  0  0  0
  144.8678  129.6737  152.6328 H   0  0  0  0  0  0  0  0  0  0  0  0
  147.1327  134.1344  156.7182 H   0  0  0  0  0  0  0  0  0  0  0  0
  148.7942  133.8048  156.2787 H   0  0  0  0  0  0  0  0  0  0  0  0
  147.8803  135.5506  158.6278 H   0  0  0  0  0  0  0  0  0  0  0  0
  148.6350  133.9731  158.7268 H   0  0  0  0  0  0  0  0  0  0  0  0
  1  2  1  0  0  0  0
  1 25  1  0  0  0  0
  1 26  1  0  0  0  0
  1 27  1  0  0  0  0
  2  3  1  0  0  0  0
  2 28  1  0  0  0  0
  2 29  1  0  0  0  0
  3  4  1  0  0  0  0
  3  6  1  0  0  0  0
  3 30  1  0  0  0  0
  4  5  1  0  0  0  0
  4 31  1  0  0  0  0
  4 32  1  0  0  0  0
  5 33  1  0  0  0  0
  5 34  1  0  0  0  0
  5 35  1  0  0  0  0
  6 24  1  0  0  0  0
  6  7  1  0  0  0  0
  6 36  1  0  0  0  0
  7  8  1  0  0  0  0
  7 37  1  0  0  0  0
  7 38  1  0  0  0  0
  8  9  1  0  0  0  0
  8 22  1  0  0  0  0
  8 39  1  0  0  0  0
  9 10  1  0  0  0  0
  9 40  1  0  0  0  0
 10 11  2  0  0  0  0
 10 12  1  0  0  0  0
 12 13  1  0  0  0  0
 12 41  1  0  0  0  0
 13 20  1  0  0  0  0
 13 14  2  0  0  0  0
 14 15  1  0  0  0  0
 14 16  1  0  0  0  0
 15 42  1  0  0  0  0
 15 43  1  0  0  0  0
 15 44  1  0  0  0  0
 16 17  2  0  0  0  0
 16 45  1  0  0  0  0
 17 18  1  0  0  0  0
 17 46  1  0  0  0  0
 18 19  1  0  0  0  0
 18 20  1  0  0  0  0
 19 47  1  0  0  0  0
 19 48  1  0  0  0  0
 19 49  1  0  0  0  0
 20 21  2  0  0  0  0
 22 23  1  0  0  0  0
 22 50  1  0  0  0  0
 22 51  1  0  0  0  0
 23 24  1  0  0  0  0
 23 52  1  0  0  0  0
 23 53  1  0  0  0  0
M  END
> <s_m_source_file>
AV-unprocessed.smi

> <i_m_source_file_index>
2273

> <i_lp_mmshare_version>
43012

> <i_f3d_flags>
0

> <s_epik_input>
W0NIM11bQ0gyXVtDSF0oW0NIMl1bQ0gzXSlbQ0BASF0xW0NIMl1bQ0BIXShbQ0gyXVtDSDJdTzEpW05IXUMoPU8pW05IXWMyYyhbQ0gzXSlbY0hdW2NIXW4oW0NIM10pYzI9Tw==

> <s_epik_cmdline>
J2VwaWtfcHl0aG9uJywgJy1waCcsICc3LjAnLCAnLXRuJywgJzgnLCAnLW1hJywgJzIwMCcsICctbWV0YWxfYmluZGluZycsICctaW1hZScsICc8aW5maWxlLm1hZT4nLCAnLW9tYWUnLCAnPG91dGZpbGUubWFlPic=

> <r_lp_tautomer_probability>
1

> <r_epik_Ionization_Penalty>
2.66245e-05

> <r_epik_Ionization_Penalty_Charging>
6.91055e-06

> <r_epik_Ionization_Penalty_Neutral>
1.97139e-05

> <r_epik_State_Penalty>
-0

> <r_epik_Charging_Adjusted_Penalty>
6.91055e-06

> <i_epik_Tot_Q>
0

> <i_epik_Tot_abs_Q>
0

> <r_epik_Metal_State_Penalty>
-0

> <b_epik_Metal_Only>
0

> <s_lp_Force_Field>
OPLS_2005

> <r_lp_Energy>
39.8716

> <b_lp_Chiralities_Consistent>
1

> <s_lp_Variant>
AV-unprocessed.smi:2273-2

> <Gold.Version>
5.8.1

> <Gold.Id.Protein>
6NUR|6NUR_protein|mol2

> <Gold.PLP.Fitness>
41.2133

> <Gold.PLP.PLP>
-33.4986

> <Gold.PLP.part.hbond>
-3.0000

> <Gold.PLP.part.metal>
0.0000

> <Gold.PLP.part.buried>
-7.2702

> <Gold.PLP.part.nonpolar>
-24.4614

> <Gold.PLP.part.repulsive>
0.1833

> <Gold.PLP.ligand.clash>
0.0000

> <Gold.PLP.ligand.torsion>
0.9946

> <Gold.PLP.Chemscore.Hbond>
3.0000

> <Gold.PLP.Chemscore.CHOScore>
0.0000

> <Gold.PLP.Chemscore.Metal>
0.0000

> <Gold.Chemscore.Hbonds>
donor molecule, donor type, donor heavy atom, donor atom, acceptor molecule, acceptor atom, score
      L1  H     9    40       P1  7948  1.00
      L1  H    12    41       P1  7948  1.00
      P1  H  6896  6907       L1    24  0.99

> <Gold.PLP.Chemscore.Internal.Correction>
0.7040

> <Gold.Rescore>
     Score         DG    S(hbond)    S(metal)    S(lipo)     H(rot)  DE(clash)    DE(int)     intcor
     17.08     -19.83       2.63        0.00      78.88       1.42       0.27       2.48       ----

> <Gold.Chemscore.Fitness>
17.0823

> <Gold.Chemscore.DG>
-19.8344

> <Gold.Chemscore.ZeroCoef>
-5.4800

> <Gold.Chemscore.Hbond>
2.6257

> <Gold.Chemscore.Metal>
0.0000

> <Gold.Chemscore.Lipo>
78.8819

> <Gold.Chemscore.Internal_Hbond>
0.0000

> <Gold.Chemscore.DEClash>
0.2727

> <Gold.Chemscore.DEInternal>
2.4795

> <Gold.Chemscore.Rot>
1.4236

> <Gold.Chemscore.Internal.Correction>
   9.000000E+99

> <Gold.Chemscore.Hbonds>
donor molecule, donor type, donor heavy atom, donor atom, acceptor molecule, acceptor atom, score
      L1  H     9    40       P1  7948  0.95
      L1  H    12    41       P1  7948  0.92
      P1  H  6896  6907       L1    24  0.28

> <Gold.Chemscore.Hbond.Weighted>
-8.7697

> <Gold.Chemscore.Metal.Weighted>
-0.0000

> <Gold.Chemscore.Lipo.Weighted>
-9.2292

> <Gold.Chemscore.Internal_Hbond.Weighted>
0.0000

> <Gold.Chemscore.DEClash.Weighted>
0.2727

> <Gold.Chemscore.DEInternal.Weighted>
2.4795

> <Gold.Chemscore.Rot.Weighted>
3.6445

> <Gold.Chemscore.Internal.Correction.Weighted>
   9.000000E+99

> <Gold.Protein.RotatedTorsions>
[ 6907 6896 6895 6894 ] final  -68.29 input  -60.11 | X-H torsion
[ 7974 7965 7964 7962 ] final   68.87 input  175.53 | X-H torsion
[ 8008 7997 7996 7995 ] final   29.70 input   59.86 | X-H torsion
[ 10167 10162 10161 10158 ] final   59.03 input  -65.29 | X-H torsion
[ 10718 10713 10712 10709 ] final -160.17 input   66.30 | X-H torsion
[ 10763 10752 10751 10750 ] final -140.41 input  -60.55 | X-H torsion
[ 11005 11000 10999 10996 ] final  -95.53 input  -57.11 | X-H torsion

> <Gold.Protein.ActiveResidues>
 VAL166  LYS551  ARG553  GLY616  TRP617  ASP618  TYR619  PRO620  LYS621  CYS622 
 ASP623  PHE694  ASN695  SER759  ASP760  ASP761  ALA762  ILE779  LEU786  VAL792 
 PHE793  MET794  SER795  GLU796  ALA797  LYS798  CYS799  TRP800  GLU811  SER814 

> <Gold.Protein.RotatedAtoms>
  150.7364  134.5760  159.5914 H   0  0  0  0  0  0  0  0  0  0  0  0  # atno 6907 bound_to 6896
  152.3186  134.7405  160.0328 H   0  0  0  0  0  0  0  0  0  0  0  0  # atno 6908 bound_to 6896
  151.7929  133.3325  159.3541 H   0  0  0  0  0  0  0  0  0  0  0  0  # atno 6909 bound_to 6896
  145.7973  139.2964  143.1175 H   0  0  0  0  0  0  0  0  0  0  0  0  # atno 7974 bound_to 7965
  155.0787  140.3208  155.4608 H   0  0  0  0  0  0  0  0  0  0  0  0  # atno 8008 bound_to 7997
  156.2772  140.2099  156.5860 H   0  0  0  0  0  0  0  0  0  0  0  0  # atno 8009 bound_to 7997
  154.6996  140.0508  157.0432 H   0  0  0  0  0  0  0  0  0  0  0  0  # atno 8010 bound_to 7997
  140.1808  144.4183  150.6616 H   0  0  0  0  0  0  0  0  0  0  0  0  # atno 10167 bound_to 10162
  156.5784  130.8719  151.2857 H   0  0  0  0  0  0  0  0  0  0  0  0  # atno 10718 bound_to 10713
  154.8579  135.3554  154.5704 H   0  0  0  0  0  0  0  0  0  0  0  0  # atno 10763 bound_to 10752
  153.6317  135.7002  153.5278 H   0  0  0  0  0  0  0  0  0  0  0  0  # atno 10764 bound_to 10752
  153.3044  135.4197  155.1241 H   0  0  0  0  0  0  0  0  0  0  0  0  # atno 10765 bound_to 10752
  141.1439  133.8032  157.0447 H   0  0  0  0  0  0  0  0  0  0  0  0  # atno 11005 bound_to 11000
  145.9914  140.8599  143.0064 LP  0  0  0  0  0  0  0  0  0  0  0  0  # atno 17320 bound_to 7965
  144.6773  140.2221  143.7365 LP  0  0  0  0  0  0  0  0  0  0  0  0  # atno 17321 bound_to 7965
  140.6521  143.2227  151.6054 LP  0  0  0  0  0  0  0  0  0  0  0  0  # atno 17342 bound_to 10162
  139.5297  144.2953  152.1118 LP  0  0  0  0  0  0  0  0  0  0  0  0  # atno 17343 bound_to 10162
  157.7332  130.9727  150.1967 LP  0  0  0  0  0  0  0  0  0  0  0  0  # atno 17370 bound_to 10713
  156.2653  130.3715  149.8088 LP  0  0  0  0  0  0  0  0  0  0  0  0  # atno 17371 bound_to 10713
  140.0670  134.9723  157.1402 LP  0  0  0  0  0  0  0  0  0  0  0  0  # atno 17394 bound_to 11000
  140.3766  134.2333  155.7174 LP  0  0  0  0  0  0  0  0  0  0  0  0  # atno 17395 bound_to 11000

$$$$
