AV-unprocessed.smi:1552|AV-procd|sdf|6234|dock7
  -GOLD-   22720 6413D 1   1.00000     0.00000
 Structure written by MMmdl.
 50 51  0  0  0  0  0  0  0  0  2 V2000
  152.2282  139.6371  157.4333 C   0  0  0  0  0  0  0  0  0  0  0  0
  151.0235  140.3354  157.9419 N   0  3  0  0  0  0  0  0  0  0  0  0
  149.7971  139.5217  157.7713 C   0  0  0  0  0  0  0  0  0  0  0  0
  150.8652  141.7607  157.5139 C   0  0  2  0  0  0  0  0  0  0  0  0
  150.9554  141.9444  155.9727 C   0  0  0  0  0  0  0  0  0  0  0  0
  149.6469  142.0049  155.3262 N   0  0  0  0  0  0  0  0  0  0  0  0
  149.1203  141.0960  154.4909 C   0  0  0  0  0  0  0  0  0  0  0  0
  149.7426  140.0735  154.2080 O   0  0  0  0  0  0  0  0  0  0  0  0
  147.7150  141.3416  153.9079 C   0  0  0  0  0  0  0  0  0  0  0  0
  147.0480  140.1082  153.4643 N   0  0  0  0  0  0  0  0  0  0  0  0
  147.0660  139.7448  152.1249 C   0  0  0  0  0  0  0  0  0  0  0  0
  146.4649  138.6296  151.6466 C   0  0  0  0  0  0  0  0  0  0  0  0
  145.7485  137.7324  152.5469 C   0  0  0  0  0  0  0  0  0  0  0  0
  145.1742  136.6995  152.2100 O   0  0  0  0  0  0  0  0  0  0  0  0
  145.7505  138.1336  153.8857 N   0  0  0  0  0  0  0  0  0  0  0  0
  146.3660  139.2825  154.3849 C   0  0  0  0  0  0  0  0  0  0  0  0
  146.3028  139.5466  155.5851 O   0  0  0  0  0  0  0  0  0  0  0  0
  151.7774  142.7166  158.3410 C   0  0  0  0  0  0  0  0  0  0  0  0
  151.7457  142.3801  159.8528 C   0  0  0  0  0  0  0  0  0  0  0  0
  152.6422  143.3196  160.6749 C   0  0  0  0  0  0  0  0  0  0  0  0
  152.2531  144.7879  160.4607 C   0  0  0  0  0  0  0  0  0  0  0  0
  152.2861  145.1473  158.9696 C   0  0  0  0  0  0  0  0  0  0  0  0
  151.3930  144.2043  158.1473 C   0  0  0  0  0  0  0  0  0  0  0  0
  145.2641  137.5444  154.5458 H   0  0  0  0  0  0  0  0  0  0  0  0
  152.1482  139.4281  156.3662 H   0  0  0  0  0  0  0  0  0  0  0  0
  152.3539  138.6838  157.9473 H   0  0  0  0  0  0  0  0  0  0  0  0
  153.1326  140.2194  157.6062 H   0  0  0  0  0  0  0  0  0  0  0  0
  149.5651  139.3592  156.7187 H   0  0  0  0  0  0  0  0  0  0  0  0
  148.9392  140.0013  158.2432 H   0  0  0  0  0  0  0  0  0  0  0  0
  149.9223  138.5455  158.2405 H   0  0  0  0  0  0  0  0  0  0  0  0
  149.8441  142.0336  157.7851 H   0  0  0  0  0  0  0  0  0  0  0  0
  151.5420  142.8290  155.7254 H   0  0  0  0  0  0  0  0  0  0  0  0
  151.4977  141.1013  155.5432 H   0  0  0  0  0  0  0  0  0  0  0  0
  149.0788  142.8124  155.5383 H   0  0  0  0  0  0  0  0  0  0  0  0
  147.1097  141.8378  154.6679 H   0  0  0  0  0  0  0  0  0  0  0  0
  147.7714  142.0457  153.0758 H   0  0  0  0  0  0  0  0  0  0  0  0
  147.5811  140.3818  151.4201 H   0  0  0  0  0  0  0  0  0  0  0  0
  146.5132  138.4003  150.5917 H   0  0  0  0  0  0  0  0  0  0  0  0
  152.8075  142.6010  158.0028 H   0  0  0  0  0  0  0  0  0  0  0  0
  150.7215  142.4417  160.2232 H   0  0  0  0  0  0  0  0  0  0  0  0
  152.0742  141.3556  160.0273 H   0  0  0  0  0  0  0  0  0  0  0  0
  152.5716  143.0685  161.7337 H   0  0  0  0  0  0  0  0  0  0  0  0
  153.6850  143.1715  160.3914 H   0  0  0  0  0  0  0  0  0  0  0  0
  151.2532  144.9651  160.8590 H   0  0  0  0  0  0  0  0  0  0  0  0
  152.9286  145.4383  161.0173 H   0  0  0  0  0  0  0  0  0  0  0  0
  151.9630  146.1795  158.8304 H   0  0  0  0  0  0  0  0  0  0  0  0
  153.3117  145.0931  158.6016 H   0  0  0  0  0  0  0  0  0  0  0  0
  151.4710  144.4915  157.0991 H   0  0  0  0  0  0  0  0  0  0  0  0
  150.3503  144.3556  158.4294 H   0  0  0  0  0  0  0  0  0  0  0  0
  151.1534  140.3892  158.9423 H   0  0  0  0  0  0  0  0  0  0  0  0
  1  2  1  0  0  0  0
  1 25  1  0  0  0  0
  1 26  1  0  0  0  0
  1 27  1  0  0  0  0
  2  3  1  0  0  0  0
  2  4  1  0  0  0  0
  2 50  1  0  0  0  0
  3 28  1  0  0  0  0
  3 29  1  0  0  0  0
  3 30  1  0  0  0  0
  4  5  1  0  0  0  0
  4 18  1  0  0  0  0
  4 31  1  0  0  0  0
  5  6  1  0  0  0  0
  5 32  1  0  0  0  0
  5 33  1  0  0  0  0
  6  7  1  0  0  0  0
  6 34  1  0  0  0  0
  7  8  2  0  0  0  0
  7  9  1  0  0  0  0
  9 10  1  0  0  0  0
  9 35  1  0  0  0  0
  9 36  1  0  0  0  0
 10 16  1  0  0  0  0
 10 11  1  0  0  0  0
 11 12  2  0  0  0  0
 11 37  1  0  0  0  0
 12 13  1  0  0  0  0
 12 38  1  0  0  0  0
 13 14  2  0  0  0  0
 13 15  1  0  0  0  0
 15 24  1  0  0  0  0
 15 16  1  0  0  0  0
 16 17  2  0  0  0  0
 18 23  1  0  0  0  0
 18 19  1  0  0  0  0
 18 39  1  0  0  0  0
 19 20  1  0  0  0  0
 19 40  1  0  0  0  0
 19 41  1  0  0  0  0
 20 21  1  0  0  0  0
 20 42  1  0  0  0  0
 20 43  1  0  0  0  0
 21 22  1  0  0  0  0
 21 44  1  0  0  0  0
 21 45  1  0  0  0  0
 22 23  1  0  0  0  0
 22 46  1  0  0  0  0
 22 47  1  0  0  0  0
 23 48  1  0  0  0  0
 23 49  1  0  0  0  0
M  CHG  1   2   1
M  END
> <s_m_source_file>
AV-unprocessed.smi

> <i_m_source_file_index>
1552

> <i_lp_mmshare_version>
43012

> <i_f3d_flags>
0

> <s_epik_input>
W0NIMl0xW0NIMl1bQ0gyXVtDSDJdW0NIMl1bQ0hdMVtDQEhdKE4oW0NIM10pW0NIM10pW0NIMl1bTkhdQyg9TylbQ0gyXW4yW2NIXVtjSF1jKD1PKVtuSF1jMj1P

> <s_epik_cmdline>
J2VwaWtfcHl0aG9uJywgJy1waCcsICc3LjAnLCAnLXRuJywgJzgnLCAnLW1hJywgJzIwMCcsICctbWV0YWxfYmluZGluZycsICctaW1hZScsICc8aW5maWxlLm1hZT4nLCAnLW9tYWUnLCAnPG91dGZpbGUubWFlPic=

> <r_lp_tautomer_probability>
1

> <r_epik_Ionization_Penalty>
0.00705217

> <r_epik_Ionization_Penalty_Charging>
0.00705209

> <r_epik_Ionization_Penalty_Neutral>
7.66101e-08

> <r_epik_State_Penalty>
-0

> <r_epik_Charging_Adjusted_Penalty>
0.00705209

> <i_epik_Tot_Q>
1

> <i_epik_Tot_abs_Q>
1

> <r_epik_Metal_State_Penalty>
0.375122

> <b_epik_Metal_Only>
0

> <s_lp_Force_Field>
OPLS_2005

> <r_lp_Energy>
35.9588

> <b_lp_Chiralities_Consistent>
1

> <s_lp_Variant>
AV-unprocessed.smi:1552-1

> <Gold.Version>
5.8.1

> <Gold.Id.Protein>
6NUR|6NUR_protein|mol2

> <Gold.PLP.Fitness>
48.1614

> <Gold.PLP.PLP>
-44.1234

> <Gold.PLP.part.hbond>
-2.0000

> <Gold.PLP.part.metal>
0.0000

> <Gold.PLP.part.buried>
-1.4377

> <Gold.PLP.part.nonpolar>
-41.5602

> <Gold.PLP.part.repulsive>
1.7999

> <Gold.PLP.ligand.clash>
0.0000

> <Gold.PLP.ligand.torsion>
1.7383

> <Gold.PLP.Chemscore.Hbond>
1.7687

> <Gold.PLP.Chemscore.CHOScore>
0.6327

> <Gold.PLP.Chemscore.Metal>
0.0000

> <Gold.Chemscore.Hbonds>
donor molecule, donor type, donor heavy atom, donor atom, acceptor molecule, acceptor atom, score
      L1  H     6    34       P1  8028  0.99
      P1  H  7989  7998       L1     8  0.61
      L1  C    11    37       P1  7957  0.75

> <Gold.PLP.Chemscore.Internal.Correction>
0.3103

> <Gold.Rescore>
     Score         DG    S(hbond)    S(metal)    S(lipo)     H(rot)  DE(clash)    DE(int)     intcor
     14.13     -17.50       1.38        0.00     117.84       2.50       1.36       2.01       ----

> <Gold.Chemscore.Fitness>
14.1324

> <Gold.Chemscore.DG>
-17.5016

> <Gold.Chemscore.ZeroCoef>
-5.4800

> <Gold.Chemscore.Hbond>
1.3849

> <Gold.Chemscore.Metal>
0.0000

> <Gold.Chemscore.Lipo>
117.8420

> <Gold.Chemscore.Internal_Hbond>
0.0000

> <Gold.Chemscore.DEClash>
1.3606

> <Gold.Chemscore.DEInternal>
2.0086

> <Gold.Chemscore.Rot>
2.4968

> <Gold.Chemscore.Internal.Correction>
   9.000000E+99

> <Gold.Chemscore.Hbonds>
donor molecule, donor type, donor heavy atom, donor atom, acceptor molecule, acceptor atom, score
      L1  H     6    34       P1  8028  0.94
      P1  H  7989  7998       L1     8  0.21

> <Gold.Chemscore.Hbond.Weighted>
-4.6257

> <Gold.Chemscore.Metal.Weighted>
-0.0000

> <Gold.Chemscore.Lipo.Weighted>
-13.7875

> <Gold.Chemscore.Internal_Hbond.Weighted>
0.0000

> <Gold.Chemscore.DEClash.Weighted>
1.3606

> <Gold.Chemscore.DEInternal.Weighted>
2.0086

> <Gold.Chemscore.Rot.Weighted>
6.3917

> <Gold.Chemscore.Internal.Correction.Weighted>
   9.000000E+99

> <Gold.Protein.RotatedTorsions>
[ 6907 6896 6895 6894 ] final -159.70 input  -60.11 | X-H torsion
[ 7974 7965 7964 7962 ] final   40.25 input  175.53 | X-H torsion
[ 8008 7997 7996 7995 ] final  140.36 input   59.86 | X-H torsion
[ 10167 10162 10161 10158 ] final   50.94 input  -65.29 | X-H torsion
[ 10718 10713 10712 10709 ] final -153.62 input   66.30 | X-H torsion
[ 10763 10752 10751 10750 ] final  106.57 input  -60.55 | X-H torsion
[ 11005 11000 10999 10996 ] final  177.10 input  -57.11 | X-H torsion

> <Gold.Protein.ActiveResidues>
 VAL166  LYS551  ARG553  GLY616  TRP617  ASP618  TYR619  PRO620  LYS621  CYS622 
 ASP623  PHE694  ASN695  SER759  ASP760  ASP761  ALA762  ILE779  LEU786  VAL792 
 PHE793  MET794  SER795  GLU796  ALA797  LYS798  CYS799  TRP800  GLU811  SER814 

> <Gold.Protein.RotatedAtoms>
  151.3377  133.3975  159.2668 H   0  0  0  0  0  0  0  0  0  0  0  0  # atno 6907 bound_to 6896
  150.9903  134.9240  159.7906 H   0  0  0  0  0  0  0  0  0  0  0  0  # atno 6908 bound_to 6896
  152.5245  134.3342  159.9246 H   0  0  0  0  0  0  0  0  0  0  0  0  # atno 6909 bound_to 6896
  146.0919  139.5555  142.9470 H   0  0  0  0  0  0  0  0  0  0  0  0  # atno 7974 bound_to 7965
  156.2980  140.2343  156.4389 H   0  0  0  0  0  0  0  0  0  0  0  0  # atno 8008 bound_to 7997
  154.8204  140.0438  157.1427 H   0  0  0  0  0  0  0  0  0  0  0  0  # atno 8009 bound_to 7997
  154.9322  140.3018  155.5166 H   0  0  0  0  0  0  0  0  0  0  0  0  # atno 8010 bound_to 7997
  140.2671  144.3307  150.6301 H   0  0  0  0  0  0  0  0  0  0  0  0  # atno 10167 bound_to 10162
  156.4883  130.8335  151.2559 H   0  0  0  0  0  0  0  0  0  0  0  0  # atno 10718 bound_to 10713
  153.3948  135.3873  155.1947 H   0  0  0  0  0  0  0  0  0  0  0  0  # atno 10763 bound_to 10752
  154.8723  135.3757  154.4692 H   0  0  0  0  0  0  0  0  0  0  0  0  # atno 10764 bound_to 10752
  153.5183  135.7087  153.5806 H   0  0  0  0  0  0  0  0  0  0  0  0  # atno 10765 bound_to 10752
  140.3804  134.6951  157.4447 H   0  0  0  0  0  0  0  0  0  0  0  0  # atno 11005 bound_to 11000
  145.6022  141.0353  143.2012 LP  0  0  0  0  0  0  0  0  0  0  0  0  # atno 17320 bound_to 7965
  144.7367  139.7566  143.7326 LP  0  0  0  0  0  0  0  0  0  0  0  0  # atno 17321 bound_to 7965
  140.5919  143.2168  151.7236 LP  0  0  0  0  0  0  0  0  0  0  0  0  # atno 17342 bound_to 10162
  139.4999  144.3925  152.0265 LP  0  0  0  0  0  0  0  0  0  0  0  0  # atno 17343 bound_to 10162
  157.7476  131.0022  150.2992 LP  0  0  0  0  0  0  0  0  0  0  0  0  # atno 17370 bound_to 10713
  156.3452  130.3822  149.7375 LP  0  0  0  0  0  0  0  0  0  0  0  0  # atno 17371 bound_to 10713
  140.0483  134.6168  155.8894 LP  0  0  0  0  0  0  0  0  0  0  0  0  # atno 17394 bound_to 11000
  141.1925  133.6575  156.5506 LP  0  0  0  0  0  0  0  0  0  0  0  0  # atno 17395 bound_to 11000

$$$$
