AV-unprocessed.smi:2314|AV-procd|sdf|9266|dock3
  -GOLD-   2272012493D 1   1.00000     0.00000
 Structure written by MMmdl.
 37 38  0  0  0  0  0  0  0  0  1 V2000
  150.3011  139.8632  154.7174 C   0  0  0  0  0  0  0  0  0  0  0  0
  149.0423  140.7358  154.5637 C   0  0  0  0  0  0  0  0  0  0  0  0
  148.5192  141.2378  155.9188 C   0  0  0  0  0  0  0  0  0  0  0  0
  147.9720  140.0541  153.8235 N   0  0  0  0  0  0  0  0  0  0  0  0
  147.2910  140.6680  152.6950 C   0  0  0  0  0  0  0  0  0  0  0  0
  146.5351  139.5148  152.0280 C   0  0  0  0  0  0  0  0  0  0  0  0
  146.4010  138.4231  153.1016 C   0  0  1  0  0  0  0  0  0  0  0  0
  146.6329  137.1047  152.5144 N   0  0  0  0  0  0  0  0  0  0  0  0
  145.6731  136.2818  152.0671 C   0  0  0  0  0  0  0  0  0  0  0  0
  144.4768  136.5708  152.0756 O   0  0  0  0  0  0  0  0  0  0  0  0
  146.1962  135.1319  151.6074 N   0  0  0  0  0  0  0  0  0  0  0  0
  145.5316  134.0027  151.0539 C   0  0  0  0  0  0  0  0  0  0  0  0
  144.3870  134.0756  150.2227 C   0  0  0  0  0  0  0  0  0  0  0  0
  143.8170  132.8758  149.7515 C   0  0  0  0  0  0  0  0  0  0  0  0
  144.2992  131.6524  150.0557 N   0  0  0  0  0  0  0  0  0  0  0  0
  145.3821  131.5858  150.8587 C   0  0  0  0  0  0  0  0  0  0  0  0
  146.0280  132.7234  151.3832 C   0  0  0  0  0  0  0  0  0  0  0  0
  147.1103  132.5847  152.1870 F   0  0  0  0  0  0  0  0  0  0  0  0
  147.5307  138.8103  154.0567 C   0  0  0  0  0  0  0  0  0  0  0  0
  147.9508  138.0540  154.9329 O   0  0  0  0  0  0  0  0  0  0  0  0
  151.1097  140.4295  155.1797 H   0  0  0  0  0  0  0  0  0  0  0  0
  150.6595  139.5158  153.7477 H   0  0  0  0  0  0  0  0  0  0  0  0
  150.1176  138.9894  155.3431 H   0  0  0  0  0  0  0  0  0  0  0  0
  149.3425  141.6104  153.9836 H   0  0  0  0  0  0  0  0  0  0  0  0
  149.2911  141.7886  156.4567 H   0  0  0  0  0  0  0  0  0  0  0  0
  148.1998  140.4091  156.5516 H   0  0  0  0  0  0  0  0  0  0  0  0
  147.6678  141.9076  155.7914 H   0  0  0  0  0  0  0  0  0  0  0  0
  146.5954  141.4255  153.0589 H   0  0  0  0  0  0  0  0  0  0  0  0
  147.9907  141.1419  152.0056 H   0  0  0  0  0  0  0  0  0  0  0  0
  145.5652  139.8318  151.6431 H   0  0  0  0  0  0  0  0  0  0  0  0
  147.1166  139.1536  151.1775 H   0  0  0  0  0  0  0  0  0  0  0  0
  145.4415  138.4929  153.6171 H   0  0  0  0  0  0  0  0  0  0  0  0
  147.5906  136.7897  152.4686 H   0  0  0  0  0  0  0  0  0  0  0  0
  147.2041  135.0741  151.6088 H   0  0  0  0  0  0  0  0  0  0  0  0
  143.9299  135.0129  149.9472 H   0  0  0  0  0  0  0  0  0  0  0  0
  142.9442  132.9004  149.1158 H   0  0  0  0  0  0  0  0  0  0  0  0
  145.7447  130.5956  151.0919 H   0  0  0  0  0  0  0  0  0  0  0  0
  1  2  1  0  0  0  0
  1 21  1  0  0  0  0
  1 22  1  0  0  0  0
  1 23  1  0  0  0  0
  2  3  1  0  0  0  0
  2  4  1  0  0  0  0
  2 24  1  0  0  0  0
  3 25  1  0  0  0  0
  3 26  1  0  0  0  0
  3 27  1  0  0  0  0
  4 19  1  0  0  0  0
  4  5  1  0  0  0  0
  5  6  1  0  0  0  0
  5 28  1  0  0  0  0
  5 29  1  0  0  0  0
  6  7  1  0  0  0  0
  6 30  1  0  0  0  0
  6 31  1  0  0  0  0
  7  8  1  0  0  0  0
  7 19  1  0  0  0  0
  7 32  1  0  0  0  0
  8  9  1  0  0  0  0
  8 33  1  0  0  0  0
  9 10  2  0  0  0  0
  9 11  1  0  0  0  0
 11 12  1  0  0  0  0
 11 34  1  0  0  0  0
 12 17  1  0  0  0  0
 12 13  2  0  0  0  0
 13 14  1  0  0  0  0
 13 35  1  0  0  0  0
 14 15  2  0  0  0  0
 14 36  1  0  0  0  0
 15 16  1  0  0  0  0
 16 17  2  0  0  0  0
 16 37  1  0  0  0  0
 17 18  1  0  0  0  0
 19 20  2  0  0  0  0
M  END
> <s_m_source_file>
AV-unprocessed.smi

> <i_m_source_file_index>
2314

> <i_lp_mmshare_version>
43012

> <i_f3d_flags>
0

> <s_epik_input>
W0NIM11bQ0hdKFtDSDNdKU4xW0NIMl1bQ0gyXVtDQEhdKEMxPU8pW05IXUMoPU8pW05IXWMyW2NIXVtjSF1uW2NIXWMyRg==

> <s_epik_cmdline>
J2VwaWtfcHl0aG9uJywgJy1waCcsICc3LjAnLCAnLXRuJywgJzgnLCAnLW1hJywgJzIwMCcsICctbWV0YWxfYmluZGluZycsICctaW1hZScsICc8aW5maWxlLm1hZT4nLCAnLW9tYWUnLCAnPG91dGZpbGUubWFlPic=

> <r_epik_Ionization_Penalty>
0.00267735

> <r_epik_Ionization_Penalty_Charging>
0

> <r_epik_Ionization_Penalty_Neutral>
0.00267735

> <r_epik_State_Penalty>
0.00184148

> <r_epik_Charging_Adjusted_Penalty>
0.00184148

> <i_epik_Tot_Q>
0

> <i_epik_Tot_abs_Q>
0

> <r_epik_Metal_State_Penalty>
-0

> <b_epik_Metal_Only>
0

> <s_lp_Force_Field>
OPLS_2005

> <r_lp_Energy>
26.6557

> <b_lp_Chiralities_Consistent>
1

> <s_lp_Variant>
AV-unprocessed.smi:2314-1

> <Gold.Version>
5.8.1

> <Gold.Id.Protein>
6NUR|6NUR_protein|mol2

> <Gold.PLP.Fitness>
39.1908

> <Gold.PLP.PLP>
-32.2470

> <Gold.PLP.part.hbond>
-3.0000

> <Gold.PLP.part.metal>
0.0000

> <Gold.PLP.part.buried>
2.5123

> <Gold.PLP.part.nonpolar>
-31.7401

> <Gold.PLP.part.repulsive>
1.0000

> <Gold.PLP.ligand.clash>
0.0000

> <Gold.PLP.ligand.torsion>
0.9448

> <Gold.PLP.Chemscore.Hbond>
2.0720

> <Gold.PLP.Chemscore.CHOScore>
0.8452

> <Gold.PLP.Chemscore.Metal>
0.0000

> <Gold.Chemscore.Hbonds>
donor molecule, donor type, donor heavy atom, donor atom, acceptor molecule, acceptor atom, score
      L1  H     8    33       P1  7948  1.00
      L1  H    11    34       P1  7948  0.80
      P1  H 10785 10796       L1    15  0.24
      L1  C    14    36       P1 10186  0.86

> <Gold.PLP.Chemscore.Internal.Correction>
0.0819

> <Gold.Rescore>
     Score         DG    S(hbond)    S(metal)    S(lipo)     H(rot)  DE(clash)    DE(int)     intcor
     15.67     -17.90       1.97        0.00      77.53       1.26       0.60       1.63       ----

> <Gold.Chemscore.Fitness>
15.6673

> <Gold.Chemscore.DG>
-17.9014

> <Gold.Chemscore.ZeroCoef>
-5.4800

> <Gold.Chemscore.Hbond>
1.9709

> <Gold.Chemscore.Metal>
0.0000

> <Gold.Chemscore.Lipo>
77.5286

> <Gold.Chemscore.Internal_Hbond>
0.0000

> <Gold.Chemscore.DEClash>
0.6026

> <Gold.Chemscore.DEInternal>
1.6315

> <Gold.Chemscore.Rot>
1.2626

> <Gold.Chemscore.Internal.Correction>
   9.000000E+99

> <Gold.Chemscore.Hbonds>
donor molecule, donor type, donor heavy atom, donor atom, acceptor molecule, acceptor atom, score
      L1  H     8    33       P1  7948  0.97
      L1  H    11    34       P1  7948  0.68
      P1  H 10785 10796       L1    15  0.15

> <Gold.Chemscore.Hbond.Weighted>
-6.5828

> <Gold.Chemscore.Metal.Weighted>
-0.0000

> <Gold.Chemscore.Lipo.Weighted>
-9.0708

> <Gold.Chemscore.Internal_Hbond.Weighted>
0.0000

> <Gold.Chemscore.DEClash.Weighted>
0.6026

> <Gold.Chemscore.DEInternal.Weighted>
1.6315

> <Gold.Chemscore.Rot.Weighted>
3.2322

> <Gold.Chemscore.Internal.Correction.Weighted>
   9.000000E+99

> <Gold.Protein.RotatedTorsions>
[ 6907 6896 6895 6894 ] final  175.33 input  -60.11 | X-H torsion
[ 7974 7965 7964 7962 ] final  155.19 input  175.53 | X-H torsion
[ 8008 7997 7996 7995 ] final -141.91 input   59.86 | X-H torsion
[ 10167 10162 10161 10158 ] final  -79.07 input  -65.29 | X-H torsion
[ 10718 10713 10712 10709 ] final   13.29 input   66.30 | X-H torsion
[ 10763 10752 10751 10750 ] final  -42.60 input  -60.55 | X-H torsion
[ 11005 11000 10999 10996 ] final   83.08 input  -57.11 | X-H torsion

> <Gold.Protein.ActiveResidues>
 VAL166  LYS551  ARG553  GLY616  TRP617  ASP618  TYR619  PRO620  LYS621  CYS622 
 ASP623  PHE694  ASN695  SER759  ASP760  ASP761  ALA762  ILE779  LEU786  VAL792 
 PHE793  MET794  SER795  GLU796  ALA797  LYS798  CYS799  TRP800  GLU811  SER814 

> <Gold.Protein.RotatedAtoms>
  151.7379  133.3320  159.3357 H   0  0  0  0  0  0  0  0  0  0  0  0  # atno 6907 bound_to 6896
  150.7585  134.6305  159.6193 H   0  0  0  0  0  0  0  0  0  0  0  0  # atno 6908 bound_to 6896
  152.3550  134.6955  160.0276 H   0  0  0  0  0  0  0  0  0  0  0  0  # atno 6909 bound_to 6896
  144.8040  139.7035  143.6169 H   0  0  0  0  0  0  0  0  0  0  0  0  # atno 7974 bound_to 7965
  155.4855  140.0563  157.2961 H   0  0  0  0  0  0  0  0  0  0  0  0  # atno 8008 bound_to 7997
  154.4643  140.2011  156.0111 H   0  0  0  0  0  0  0  0  0  0  0  0  # atno 8009 bound_to 7997
  156.0947  140.3228  155.7866 H   0  0  0  0  0  0  0  0  0  0  0  0  # atno 8010 bound_to 7997
  140.4626  143.2449  151.8325 H   0  0  0  0  0  0  0  0  0  0  0  0  # atno 10167 bound_to 10162
  157.0225  130.6160  149.5723 H   0  0  0  0  0  0  0  0  0  0  0  0  # atno 10718 bound_to 10713
  153.9818  135.6716  153.4750 H   0  0  0  0  0  0  0  0  0  0  0  0  # atno 10763 bound_to 10752
  153.0745  135.4956  154.8372 H   0  0  0  0  0  0  0  0  0  0  0  0  # atno 10764 bound_to 10752
  154.7160  135.3107  154.9084 H   0  0  0  0  0  0  0  0  0  0  0  0  # atno 10765 bound_to 10752
  139.9042  134.8118  156.2260 H   0  0  0  0  0  0  0  0  0  0  0  0  # atno 11005 bound_to 11000
  146.2328  139.5847  142.9544 LP  0  0  0  0  0  0  0  0  0  0  0  0  # atno 17320 bound_to 7965
  145.5482  141.0415  143.2293 LP  0  0  0  0  0  0  0  0  0  0  0  0  # atno 17321 bound_to 7965
  139.4808  144.4989  151.9087 LP  0  0  0  0  0  0  0  0  0  0  0  0  # atno 17342 bound_to 10162
  140.4074  144.2413  150.5890 LP  0  0  0  0  0  0  0  0  0  0  0  0  # atno 17343 bound_to 10162
  156.0097  130.5187  150.7948 LP  0  0  0  0  0  0  0  0  0  0  0  0  # atno 17370 bound_to 10713
  157.5239  131.0933  151.0043 LP  0  0  0  0  0  0  0  0  0  0  0  0  # atno 17371 bound_to 10713
  141.0375  133.6955  156.1539 LP  0  0  0  0  0  0  0  0  0  0  0  0  # atno 17394 bound_to 11000
  140.7005  134.4569  157.5586 LP  0  0  0  0  0  0  0  0  0  0  0  0  # atno 17395 bound_to 11000

$$$$
