AV-unprocessed.smi:155|AV-procd|sdf|1275|dock4
  -GOLD-   2262018533D 1   1.00000     0.00000
 Structure written by MMmdl.
 63 66  0  0  0  0  0  0  0  0  2 V2000
  148.3162  128.1889  152.1969 C   0  0  0  0  0  0  0  0  0  0  0  0
  147.8483  129.5882  152.3204 N   0  3  0  0  0  0  0  0  0  0  0  0
  146.3932  129.6513  152.5815 C   0  0  0  0  0  0  0  0  0  0  0  0
  148.6241  130.3901  153.3005 C   0  0  0  0  0  0  0  0  0  0  0  0
  147.8604  131.6377  153.8024 C   0  0  0  0  0  0  0  0  0  0  0  0
  148.6509  132.4540  154.7275 N   0  0  0  0  0  0  0  0  0  0  0  0
  149.5263  131.6163  155.5580 C   0  0  0  0  0  0  0  0  0  0  0  0
  150.6092  132.3550  156.3752 C   0  0  0  0  0  0  0  0  0  0  0  0
  150.2065  133.7235  156.9427 C   0  0  0  0  0  0  0  0  0  0  0  0
  150.3384  134.7721  155.9355 N   0  0  0  0  0  0  0  0  0  0  0  0
  150.5447  135.9952  156.4676 C   0  0  0  0  0  0  0  0  0  0  0  0
  150.6583  136.1375  157.8143 N   0  0  0  0  0  0  0  0  0  0  0  0
  150.8699  137.3490  158.3384 C   0  0  0  0  0  0  0  0  0  0  0  0
  150.9980  138.5208  157.7104 N   0  0  0  0  0  0  0  0  0  0  0  0
  150.8861  138.3739  156.3583 C   0  0  0  0  0  0  0  0  0  0  0  0
  150.6590  137.1560  155.6604 C   0  0  0  0  0  0  0  0  0  0  0  0
  150.6029  137.3901  154.2926 N   0  0  0  0  0  0  0  0  0  0  0  0
  150.7952  138.6770  154.1861 C   0  0  0  0  0  0  0  0  0  0  0  0
  150.9851  139.3438  155.3760 N   0  0  0  0  0  0  0  0  0  0  0  0
  151.2320  140.7655  155.5484 C   0  0  0  0  0  0  0  0  0  0  0  0
  150.2225  141.4719  156.4809 C   0  0  2  0  0  0  0  0  0  0  0  0
  149.1792  142.0672  155.7343 O   0  0  0  0  0  0  0  0  0  0  0  0
  150.8378  142.5011  157.4559 C   0  0  2  0  0  0  0  0  0  0  0  0
  149.8563  143.2321  158.3711 C   0  0  0  0  0  0  0  0  0  0  0  0
  150.6420  144.4628  158.7969 C   0  0  0  0  0  0  0  0  0  0  0  0
  151.7682  144.5727  157.7615 C   0  0  0  0  0  0  0  0  0  0  0  0
  151.4996  143.5671  156.7940 O   0  0  0  0  0  0  0  0  0  0  0  0
  149.3772  134.7821  154.8390 C   0  0  0  0  0  0  0  0  0  0  0  0
  149.3955  133.4876  154.0082 C   0  0  0  0  0  0  0  0  0  0  0  0
  148.2541  127.6677  153.1532 H   0  0  0  0  0  0  0  0  0  0  0  0
  149.3460  128.1456  151.8463 H   0  0  0  0  0  0  0  0  0  0  0  0
  147.7096  127.6432  151.4732 H   0  0  0  0  0  0  0  0  0  0  0  0
  146.1510  129.2164  153.5521 H   0  0  0  0  0  0  0  0  0  0  0  0
  145.8383  129.1082  151.8158 H   0  0  0  0  0  0  0  0  0  0  0  0
  146.0411  130.6834  152.5708 H   0  0  0  0  0  0  0  0  0  0  0  0
  148.8435  129.7687  154.1701 H   0  0  0  0  0  0  0  0  0  0  0  0
  149.5972  130.6395  152.8756 H   0  0  0  0  0  0  0  0  0  0  0  0
  147.5012  132.2557  152.9785 H   0  0  0  0  0  0  0  0  0  0  0  0
  146.9654  131.2779  154.3118 H   0  0  0  0  0  0  0  0  0  0  0  0
  148.9032  131.0499  156.2491 H   0  0  0  0  0  0  0  0  0  0  0  0
  150.0332  130.8850  154.9282 H   0  0  0  0  0  0  0  0  0  0  0  0
  150.8979  131.7059  157.2024 H   0  0  0  0  0  0  0  0  0  0  0  0
  151.5136  132.4686  155.7756 H   0  0  0  0  0  0  0  0  0  0  0  0
  149.1891  133.6963  157.3356 H   0  0  0  0  0  0  0  0  0  0  0  0
  150.8608  133.9573  157.7844 H   0  0  0  0  0  0  0  0  0  0  0  0
  150.9489  137.3848  159.4148 H   0  0  0  0  0  0  0  0  0  0  0  0
  150.8113  139.1784  153.2293 H   0  0  0  0  0  0  0  0  0  0  0  0
  152.2456  140.8907  155.9314 H   0  0  0  0  0  0  0  0  0  0  0  0
  151.2193  141.2387  154.5658 H   0  0  0  0  0  0  0  0  0  0  0  0
  149.7519  140.6948  157.0842 H   0  0  0  0  0  0  0  0  0  0  0  0
  149.3120  143.0030  155.7362 H   0  0  0  0  0  0  0  0  0  0  0  0
  151.5769  141.9903  158.0766 H   0  0  0  0  0  0  0  0  0  0  0  0
  148.9681  143.5445  157.8208 H   0  0  0  0  0  0  0  0  0  0  0  0
  149.5322  142.6219  159.2145 H   0  0  0  0  0  0  0  0  0  0  0  0
  150.0091  145.3508  158.8077 H   0  0  0  0  0  0  0  0  0  0  0  0
  151.0583  144.3358  159.7969 H   0  0  0  0  0  0  0  0  0  0  0  0
  151.8112  145.5561  157.2932 H   0  0  0  0  0  0  0  0  0  0  0  0
  152.7360  144.3747  158.2244 H   0  0  0  0  0  0  0  0  0  0  0  0
  148.3736  134.9778  155.2207 H   0  0  0  0  0  0  0  0  0  0  0  0
  149.6234  135.6159  154.1792 H   0  0  0  0  0  0  0  0  0  0  0  0
  150.4047  133.1686  153.7433 H   0  0  0  0  0  0  0  0  0  0  0  0
  148.8962  133.7167  153.0662 H   0  0  0  0  0  0  0  0  0  0  0  0
  147.9882  130.0231  151.4194 H   0  0  0  0  0  0  0  0  0  0  0  0
  1  2  1  0  0  0  0
  1 30  1  0  0  0  0
  1 31  1  0  0  0  0
  1 32  1  0  0  0  0
  2  3  1  0  0  0  0
  2  4  1  0  0  0  0
  2 63  1  0  0  0  0
  3 33  1  0  0  0  0
  3 34  1  0  0  0  0
  3 35  1  0  0  0  0
  4  5  1  0  0  0  0
  4 36  1  0  0  0  0
  4 37  1  0  0  0  0
  5  6  1  0  0  0  0
  5 38  1  0  0  0  0
  5 39  1  0  0  0  0
  6 29  1  0  0  0  0
  6  7  1  0  0  0  0
  7  8  1  0  0  0  0
  7 40  1  0  0  0  0
  7 41  1  0  0  0  0
  8  9  1  0  0  0  0
  8 42  1  0  0  0  0
  8 43  1  0  0  0  0
  9 10  1  0  0  0  0
  9 44  1  0  0  0  0
  9 45  1  0  0  0  0
 10 11  1  0  0  0  0
 10 28  1  0  0  0  0
 11 16  1  0  0  0  0
 11 12  2  0  0  0  0
 12 13  1  0  0  0  0
 13 14  2  0  0  0  0
 13 46  1  0  0  0  0
 14 15  1  0  0  0  0
 15 19  1  0  0  0  0
 15 16  2  0  0  0  0
 16 17  1  0  0  0  0
 17 18  2  0  0  0  0
 18 19  1  0  0  0  0
 18 47  1  0  0  0  0
 19 20  1  0  0  0  0
 20 21  1  0  0  0  0
 20 48  1  0  0  0  0
 20 49  1  0  0  0  0
 21 22  1  0  0  0  0
 21 23  1  0  0  0  0
 21 50  1  0  0  0  0
 22 51  1  0  0  0  0
 23 27  1  0  0  0  0
 23 24  1  0  0  0  0
 23 52  1  0  0  0  0
 24 25  1  0  0  0  0
 24 53  1  0  0  0  0
 24 54  1  0  0  0  0
 25 26  1  0  0  0  0
 25 55  1  0  0  0  0
 25 56  1  0  0  0  0
 26 27  1  0  0  0  0
 26 57  1  0  0  0  0
 26 58  1  0  0  0  0
 28 29  1  0  0  0  0
 28 59  1  0  0  0  0
 28 60  1  0  0  0  0
 29 61  1  0  0  0  0
 29 62  1  0  0  0  0
M  CHG  1   2   1
M  END
> <s_m_source_file>
AV-unprocessed.smi

> <i_m_source_file_index>
155

> <i_lp_mmshare_version>
43012

> <i_f3d_flags>
0

> <s_epik_input>
W0NIM11OKFtDSDNdKVtDSDJdW0NIMl1OMVtDSDJdW0NIMl1bQ0gyXU4oW0NIMl1bQ0gyXTEpYyhuW2NIXW4yKWMoYzIzKW5bY0hdbjNbQ0gyXVtDQEhdKFtPSF0pW0NAQEhdNFtDSDJdW0NIMl1bQ0gyXU80

> <s_epik_cmdline>
J2VwaWtfcHl0aG9uJywgJy1waCcsICc3LjAnLCAnLXRuJywgJzgnLCAnLW1hJywgJzIwMCcsICctbWV0YWxfYmluZGluZycsICctaW1hZScsICc8aW5maWxlLm1hZT4nLCAnLW9tYWUnLCAnPG91dGZpbGUubWFlPic=

> <r_lp_tautomer_probability>
1

> <r_epik_Ionization_Penalty>
0.0599493

> <r_epik_Ionization_Penalty_Charging>
0.00816363

> <r_epik_Ionization_Penalty_Neutral>
0.0517857

> <r_epik_State_Penalty>
0.460607

> <r_epik_Charging_Adjusted_Penalty>
0.468771

> <i_epik_Tot_Q>
1

> <i_epik_Tot_abs_Q>
1

> <r_epik_Metal_State_Penalty>
0.45965

> <b_epik_Metal_Only>
0

> <s_lp_Force_Field>
OPLS_2005

> <r_lp_Energy>
61.9788

> <b_lp_Chiralities_Consistent>
1

> <s_lp_Variant>
AV-unprocessed.smi:155-9

> <Gold.Version>
5.8.1

> <Gold.Id.Protein>
6NUR|6NUR_protein|mol2

> <Gold.PLP.Fitness>
50.0401

> <Gold.PLP.PLP>
-44.1196

> <Gold.PLP.part.hbond>
-3.0000

> <Gold.PLP.part.metal>
0.0000

> <Gold.PLP.part.buried>
-2.0036

> <Gold.PLP.part.nonpolar>
-39.0041

> <Gold.PLP.part.repulsive>
0.5421

> <Gold.PLP.ligand.clash>
0.9803

> <Gold.PLP.ligand.torsion>
1.4593

> <Gold.PLP.Chemscore.Hbond>
2.1487

> <Gold.PLP.Chemscore.CHOScore>
1.0000

> <Gold.PLP.Chemscore.Metal>
0.0000

> <Gold.Chemscore.Hbonds>
donor molecule, donor type, donor heavy atom, donor atom, acceptor molecule, acceptor atom, score
      L1  H     2    63       P1 10747  1.00
      L1  H    22    51       P1  8028  1.00
      P1  H  6896  6907       L1    12  0.26
      L1  C    18    47       P1  7957  1.00

> <Gold.PLP.Chemscore.Internal.Correction>
0.3733

> <Gold.Rescore>
     Score         DG    S(hbond)    S(metal)    S(lipo)     H(rot)  DE(clash)    DE(int)     intcor
     14.28     -17.12       2.20        0.00     101.96       2.99       0.11       2.73       ----

> <Gold.Chemscore.Fitness>
14.2828

> <Gold.Chemscore.DG>
-17.1240

> <Gold.Chemscore.ZeroCoef>
-5.4800

> <Gold.Chemscore.Hbond>
2.2034

> <Gold.Chemscore.Metal>
0.0000

> <Gold.Chemscore.Lipo>
101.9595

> <Gold.Chemscore.Internal_Hbond>
0.0000

> <Gold.Chemscore.DEClash>
0.1077

> <Gold.Chemscore.DEInternal>
2.7335

> <Gold.Chemscore.Rot>
2.9862

> <Gold.Chemscore.Internal.Correction>
   9.000000E+99

> <Gold.Chemscore.Hbonds>
donor molecule, donor type, donor heavy atom, donor atom, acceptor molecule, acceptor atom, score
      L1  H     2    63       P1 10747  0.93
      L1  H    22    51       P1  8028  0.99
      P1  H  6896  6907       L1    12  0.09

> <Gold.Chemscore.Hbond.Weighted>
-7.3595

> <Gold.Chemscore.Metal.Weighted>
-0.0000

> <Gold.Chemscore.Lipo.Weighted>
-11.9293

> <Gold.Chemscore.Internal_Hbond.Weighted>
0.0000

> <Gold.Chemscore.DEClash.Weighted>
0.1077

> <Gold.Chemscore.DEInternal.Weighted>
2.7335

> <Gold.Chemscore.Rot.Weighted>
7.6448

> <Gold.Chemscore.Internal.Correction.Weighted>
   9.000000E+99

> <Gold.Protein.RotatedTorsions>
[ 6907 6896 6895 6894 ] final  -54.82 input  -60.11 | X-H torsion
[ 7974 7965 7964 7962 ] final -144.71 input  175.53 | X-H torsion
[ 8008 7997 7996 7995 ] final   79.92 input   59.86 | X-H torsion
[ 10167 10162 10161 10158 ] final  157.68 input  -65.29 | X-H torsion
[ 10718 10713 10712 10709 ] final -105.90 input   66.30 | X-H torsion
[ 10763 10752 10751 10750 ] final   11.94 input  -60.55 | X-H torsion
[ 11005 11000 10999 10996 ] final  -61.84 input  -57.11 | X-H torsion

> <Gold.Protein.ActiveResidues>
 VAL166  LYS551  ARG553  GLY616  TRP617  ASP618  TYR619  PRO620  LYS621  CYS622 
 ASP623  PHE694  ASN695  SER759  ASP760  ASP761  ALA762  ILE779  LEU786  VAL792 
 PHE793  MET794  SER795  GLU796  ALA797  LYS798  CYS799  TRP800  GLU811  SER814 

> <Gold.Protein.RotatedAtoms>
  150.8305  134.7556  159.6849 H   0  0  0  0  0  0  0  0  0  0  0  0  # atno 6907 bound_to 6896
  152.4410  134.5587  159.9898 H   0  0  0  0  0  0  0  0  0  0  0  0  # atno 6908 bound_to 6896
  151.5749  133.3347  159.3033 H   0  0  0  0  0  0  0  0  0  0  0  0  # atno 6909 bound_to 6896
  144.8278  140.5676  143.5535 H   0  0  0  0  0  0  0  0  0  0  0  0  # atno 7974 bound_to 7965
  155.8763  140.3446  155.5856 H   0  0  0  0  0  0  0  0  0  0  0  0  # atno 8008 bound_to 7997
  155.7770  140.0853  157.2098 H   0  0  0  0  0  0  0  0  0  0  0  0  # atno 8009 bound_to 7997
  154.4021  140.1508  156.2995 H   0  0  0  0  0  0  0  0  0  0  0  0  # atno 8010 bound_to 7997
  139.4824  144.4895  151.8328 H   0  0  0  0  0  0  0  0  0  0  0  0  # atno 10167 bound_to 10162
  156.0366  130.5586  150.7605 H   0  0  0  0  0  0  0  0  0  0  0  0  # atno 10718 bound_to 10713
  153.1874  135.6837  153.8397 H   0  0  0  0  0  0  0  0  0  0  0  0  # atno 10763 bound_to 10752
  153.7708  135.3196  155.3352 H   0  0  0  0  0  0  0  0  0  0  0  0  # atno 10764 bound_to 10752
  154.8097  135.4725  154.0581 H   0  0  0  0  0  0  0  0  0  0  0  0  # atno 10765 bound_to 10752
  141.1339  133.6634  156.5437 H   0  0  0  0  0  0  0  0  0  0  0  0  # atno 11005 bound_to 11000
  145.4961  139.1486  143.3683 LP  0  0  0  0  0  0  0  0  0  0  0  0  # atno 17320 bound_to 7965
  146.2583  140.5100  142.8864 LP  0  0  0  0  0  0  0  0  0  0  0  0  # atno 17321 bound_to 7965
  140.4378  144.2028  150.5890 LP  0  0  0  0  0  0  0  0  0  0  0  0  # atno 17342 bound_to 10162
  140.4714  143.2412  151.9084 LP  0  0  0  0  0  0  0  0  0  0  0  0  # atno 17343 bound_to 10162
  157.5126  131.0926  151.0180 LP  0  0  0  0  0  0  0  0  0  0  0  0  # atno 17370 bound_to 10713
  157.0531  130.5795  149.5373 LP  0  0  0  0  0  0  0  0  0  0  0  0  # atno 17371 bound_to 10713
  140.4119  134.7264  157.4841 LP  0  0  0  0  0  0  0  0  0  0  0  0  # atno 17394 bound_to 11000
  140.0421  134.6252  155.8967 LP  0  0  0  0  0  0  0  0  0  0  0  0  # atno 17395 bound_to 11000

$$$$
