AV-unprocessed.smi:3089|AV-procd|sdf|11770|dock8
  -GOLD-   2272017153D 1   1.00000     0.00000
 Structure written by MMmdl.
 25 25  0  0  0  0  0  0  0  0  2 V2000
  151.9847  142.3480  158.4912 C   0  0  0  0  0  0  0  0  0  0  0  0
  151.5017  141.5769  157.3655 N   0  0  0  0  0  0  0  0  0  0  0  0
  150.3738  141.7821  156.6015 C   0  0  0  0  0  0  0  0  0  0  0  0
  150.3305  140.7986  155.6511 C   0  0  0  0  0  0  0  0  0  0  0  0
  149.2912  140.5731  154.5728 C   0  0  1  0  0  0  0  0  0  0  0  0
  148.1108  141.5396  154.7700 C   0  0  0  0  0  0  0  0  0  0  0  0
  149.8025  140.8456  153.2811 O   0  0  0  0  0  0  0  0  0  0  0  0
  148.7967  139.1095  154.5718 C   0  0  0  0  0  0  0  0  0  0  0  0
  148.2837  138.6940  153.2527 N   0  3  0  0  0  0  0  0  0  0  0  0
  151.5040  140.0349  155.9249 C   0  0  0  0  0  0  0  0  0  0  0  0
  152.1968  140.4991  156.9515 N   0  0  0  0  0  0  0  0  0  0  0  0
  151.3086  143.1789  158.6940 H   0  0  0  0  0  0  0  0  0  0  0  0
  152.9759  142.7443  158.2696 H   0  0  0  0  0  0  0  0  0  0  0  0
  152.0419  141.7140  159.3766 H   0  0  0  0  0  0  0  0  0  0  0  0
  149.6992  142.6032  156.7952 H   0  0  0  0  0  0  0  0  0  0  0  0
  147.6232  141.3816  155.7327 H   0  0  0  0  0  0  0  0  0  0  0  0
  147.3527  141.4092  153.9966 H   0  0  0  0  0  0  0  0  0  0  0  0
  148.4394  142.5793  154.7361 H   0  0  0  0  0  0  0  0  0  0  0  0
  149.4436  140.2170  152.6730 H   0  0  0  0  0  0  0  0  0  0  0  0
  149.6107  138.4359  154.8425 H   0  0  0  0  0  0  0  0  0  0  0  0
  148.0112  138.9654  155.3148 H   0  0  0  0  0  0  0  0  0  0  0  0
  148.6511  137.7842  153.0143 H   0  0  0  0  0  0  0  0  0  0  0  0
  148.5685  139.3679  152.5563 H   0  0  0  0  0  0  0  0  0  0  0  0
  151.8690  139.1570  155.4123 H   0  0  0  0  0  0  0  0  0  0  0  0
  147.2747  138.6549  153.2854 H   0  0  0  0  0  0  0  0  0  0  0  0
  1  2  1  0  0  0  0
  1 12  1  0  0  0  0
  1 13  1  0  0  0  0
  1 14  1  0  0  0  0
  2 11  1  0  0  0  0
  2  3  1  0  0  0  0
  3  4  2  0  0  0  0
  3 15  1  0  0  0  0
  4  5  1  0  0  0  0
  4 10  1  0  0  0  0
  5  6  1  0  0  0  0
  5  7  1  0  0  0  0
  5  8  1  0  0  0  0
  6 16  1  0  0  0  0
  6 17  1  0  0  0  0
  6 18  1  0  0  0  0
  7 19  1  0  0  0  0
  8  9  1  0  0  0  0
  8 20  1  0  0  0  0
  8 21  1  0  0  0  0
  9 22  1  0  0  0  0
  9 23  1  0  0  0  0
  9 25  1  0  0  0  0
 10 11  2  0  0  0  0
 10 24  1  0  0  0  0
M  CHG  1   9   1
M  END
> <s_m_source_file>
AV-unprocessed.smi

> <i_m_source_file_index>
3089

> <i_lp_mmshare_version>
43012

> <i_f3d_flags>
0

> <s_epik_input>
W0NIM11uMVtjSF1jKFtjSF1uMSlbQ0BAXShbQ0gzXSkoW09IXSlbQ0gyXVtOSDJd

> <s_epik_cmdline>
J2VwaWtfcHl0aG9uJywgJy1waCcsICc3LjAnLCAnLXRuJywgJzgnLCAnLW1hJywgJzIwMCcsICctbWV0YWxfYmluZGluZycsICctaW1hZScsICc8aW5maWxlLm1hZT4nLCAnLW9tYWUnLCAnPG91dGZpbGUubWFlPic=

> <r_lp_tautomer_probability>
1

> <r_epik_Ionization_Penalty>
0.0140512

> <r_epik_Ionization_Penalty_Charging>
0.0140431

> <r_epik_Ionization_Penalty_Neutral>
8.10489e-06

> <r_epik_State_Penalty>
0.0109628

> <r_epik_Charging_Adjusted_Penalty>
0.0250059

> <i_epik_Tot_Q>
1

> <i_epik_Tot_abs_Q>
1

> <r_epik_Metal_State_Penalty>
0.0109638

> <b_epik_Metal_Only>
0

> <s_lp_Force_Field>
OPLS_2005

> <r_lp_Energy>
3.27267

> <b_lp_Chiralities_Consistent>
1

> <s_lp_Variant>
AV-unprocessed.smi:3089-1

> <Gold.Version>
5.8.1

> <Gold.Id.Protein>
6NUR|6NUR_protein|mol2

> <Gold.PLP.Fitness>
40.3867

> <Gold.PLP.PLP>
-22.5580

> <Gold.PLP.part.hbond>
-4.3103

> <Gold.PLP.part.metal>
0.0000

> <Gold.PLP.part.buried>
-0.3277

> <Gold.PLP.part.nonpolar>
-16.7008

> <Gold.PLP.part.repulsive>
0.0502

> <Gold.PLP.ligand.clash>
0.0000

> <Gold.PLP.ligand.torsion>
0.6515

> <Gold.PLP.Chemscore.Hbond>
5.3776

> <Gold.PLP.Chemscore.CHOScore>
0.9940

> <Gold.PLP.Chemscore.Metal>
0.0000

> <Gold.Chemscore.Hbonds>
donor molecule, donor type, donor heavy atom, donor atom, acceptor molecule, acceptor atom, score
      L1  H     7    19       P1  7957  0.64
      L1  H     9    22       P1  7948  2.00
      L1  H     9    23       P1  7957  1.00
      P1  H  7989  7998       L1     7  0.24
      P1  H  7997  8009       L1    11  0.48
      P1  H  8011  8017       L1     7  1.00
      L1  C     3    15       P1  8028  0.99

> <Gold.PLP.Chemscore.Internal.Correction>
0.0166

> <Gold.Rescore>
     Score         DG    S(hbond)    S(metal)    S(lipo)     H(rot)  DE(clash)    DE(int)     intcor
     18.98     -19.72       4.04        0.00      47.62       1.89       0.16       0.58       ----

> <Gold.Chemscore.Fitness>
18.9772

> <Gold.Chemscore.DG>
-19.7197

> <Gold.Chemscore.ZeroCoef>
-5.4800

> <Gold.Chemscore.Hbond>
4.0427

> <Gold.Chemscore.Metal>
0.0000

> <Gold.Chemscore.Lipo>
47.6164

> <Gold.Chemscore.Internal_Hbond>
0.0000

> <Gold.Chemscore.DEClash>
0.1617

> <Gold.Chemscore.DEInternal>
0.5808

> <Gold.Chemscore.Rot>
1.8883

> <Gold.Chemscore.Internal.Correction>
   9.000000E+99

> <Gold.Chemscore.Hbonds>
donor molecule, donor type, donor heavy atom, donor atom, acceptor molecule, acceptor atom, score
      L1  H     7    19       P1  7957  0.60
      L1  H     9    22       P1  7948  0.97
      L1  H     9    23       P1  7957  0.98
      P1  H  7989  7998       L1     7  0.14
      P1  H  7997  8009       L1    11  0.28
      P1  H  8011  8017       L1     7  0.39

> <Gold.Chemscore.Hbond.Weighted>
-13.5026

> <Gold.Chemscore.Metal.Weighted>
-0.0000

> <Gold.Chemscore.Lipo.Weighted>
-5.5711

> <Gold.Chemscore.Internal_Hbond.Weighted>
0.0000

> <Gold.Chemscore.DEClash.Weighted>
0.1617

> <Gold.Chemscore.DEInternal.Weighted>
0.5808

> <Gold.Chemscore.Rot.Weighted>
4.8341

> <Gold.Chemscore.Internal.Correction.Weighted>
   9.000000E+99

> <Gold.Protein.RotatedTorsions>
[ 6907 6896 6895 6894 ] final   46.82 input  -60.11 | X-H torsion
[ 7974 7965 7964 7962 ] final   29.05 input  175.53 | X-H torsion
[ 8008 7997 7996 7995 ] final -172.27 input   59.86 | X-H torsion
[ 10167 10162 10161 10158 ] final  -58.93 input  -65.29 | X-H torsion
[ 10718 10713 10712 10709 ] final  -85.18 input   66.30 | X-H torsion
[ 10763 10752 10751 10750 ] final  -44.90 input  -60.55 | X-H torsion
[ 11005 11000 10999 10996 ] final  130.71 input  -57.11 | X-H torsion

> <Gold.Protein.ActiveResidues>
 VAL166  LYS551  ARG553  GLY616  TRP617  ASP618  TYR619  PRO620  LYS621  CYS622 
 ASP623  PHE694  ASN695  SER759  ASP760  ASP761  ALA762  ILE779  LEU786  VAL792 
 PHE793  MET794  SER795  GLU796  ALA797  LYS798  CYS799  TRP800  GLU811  SER814 

> <Gold.Protein.RotatedAtoms>
  152.2609  134.8035  160.0430 H   0  0  0  0  0  0  0  0  0  0  0  0  # atno 6907 bound_to 6896
  151.8681  133.3465  159.3734 H   0  0  0  0  0  0  0  0  0  0  0  0  # atno 6908 bound_to 6896
  150.7116  134.5067  159.5631 H   0  0  0  0  0  0  0  0  0  0  0  0  # atno 6909 bound_to 6896
  146.1694  139.6974  142.8978 H   0  0  0  0  0  0  0  0  0  0  0  0  # atno 7974 bound_to 7965
  155.9424  140.1111  157.1045 H   0  0  0  0  0  0  0  0  0  0  0  0  # atno 8008 bound_to 7997
  154.4092  140.1216  156.5010 H   0  0  0  0  0  0  0  0  0  0  0  0  # atno 8009 bound_to 7997
  155.6945  140.3472  155.4909 H   0  0  0  0  0  0  0  0  0  0  0  0  # atno 8010 bound_to 7997
  140.6167  143.2405  151.5581 H   0  0  0  0  0  0  0  0  0  0  0  0  # atno 10167 bound_to 10162
  155.9999  130.4722  150.4523 H   0  0  0  0  0  0  0  0  0  0  0  0  # atno 10718 bound_to 10713
  154.0197  135.6671  153.4771 H   0  0  0  0  0  0  0  0  0  0  0  0  # atno 10763 bound_to 10752
  153.0585  135.5041  154.8035 H   0  0  0  0  0  0  0  0  0  0  0  0  # atno 10764 bound_to 10752
  154.6945  135.3067  154.9396 H   0  0  0  0  0  0  0  0  0  0  0  0  # atno 10765 bound_to 10752
  139.9687  134.9583  156.9333 H   0  0  0  0  0  0  0  0  0  0  0  0  # atno 11005 bound_to 11000
  145.4381  141.0420  143.2873 LP  0  0  0  0  0  0  0  0  0  0  0  0  # atno 17320 bound_to 7965
  144.8140  139.5910  143.7017 LP  0  0  0  0  0  0  0  0  0  0  0  0  # atno 17321 bound_to 7965
  139.5404  144.2663  152.1339 LP  0  0  0  0  0  0  0  0  0  0  0  0  # atno 17342 bound_to 10162
  140.1874  144.4785  150.6496 LP  0  0  0  0  0  0  0  0  0  0  0  0  # atno 17343 bound_to 10162
  157.2554  131.0555  151.2353 LP  0  0  0  0  0  0  0  0  0  0  0  0  # atno 17370 bound_to 10713
  157.3487  130.7071  149.6427 LP  0  0  0  0  0  0  0  0  0  0  0  0  # atno 17371 bound_to 10713
  140.5339  134.0786  155.7323 LP  0  0  0  0  0  0  0  0  0  0  0  0  # atno 17394 bound_to 11000
  141.1367  133.9209  157.2417 LP  0  0  0  0  0  0  0  0  0  0  0  0  # atno 17395 bound_to 11000

$$$$
