AV-unprocessed.smi:3067|AV-procd|sdf|11696|dock5
  -GOLD-   2272017 93D 1   1.00000     0.00000
 Structure written by MMmdl.
 34 35  0  0  0  0  0  0  0  0  1 V2000
  144.5503  134.7974  150.4407 C   0  0  0  0  0  0  0  0  0  0  0  0
  145.4072  134.1408  151.3614 O   0  0  0  0  0  0  0  0  0  0  0  0
  146.3590  133.2683  150.7588 C   0  0  2  0  0  0  0  0  0  0  0  0
  145.6456  132.1918  149.9132 C   0  0  0  0  0  0  0  0  0  0  0  0
  144.7773  131.2668  150.7826 C   0  0  0  0  0  0  0  0  0  0  0  0
  145.6005  130.6265  151.9106 C   0  0  0  0  0  0  0  0  0  0  0  0
  146.3149  131.6924  152.7567 C   0  0  0  0  0  0  0  0  0  0  0  0
  147.1950  132.6039  151.8800 C   0  0  2  0  0  0  0  0  0  0  0  0
  147.8937  133.5894  152.6987 N   0  0  0  0  0  0  0  0  0  0  0  0
  148.7969  133.2150  153.7056 C   0  0  0  0  0  0  0  0  0  0  0  0
  149.0777  131.8722  154.0511 C   0  0  0  0  0  0  0  0  0  0  0  0
  150.0039  131.6097  155.0787 C   0  0  0  0  0  0  0  0  0  0  0  0
  150.6188  132.6983  155.7314 C   0  0  0  0  0  0  0  0  0  0  0  0
  151.5774  132.4482  156.7941 C   0  0  0  0  0  0  0  0  0  0  0  0
  152.3404  132.2488  157.6410 N   0  0  0  0  0  0  0  0  0  0  0  0
  150.3552  133.9836  155.4116 N   0  0  0  0  0  0  0  0  0  0  0  0
  149.4662  134.2273  154.4252 C   0  0  0  0  0  0  0  0  0  0  0  0
  143.8725  135.4557  150.9840 H   0  0  0  0  0  0  0  0  0  0  0  0
  143.9438  134.0911  149.8742 H   0  0  0  0  0  0  0  0  0  0  0  0
  145.1201  135.4105  149.7412 H   0  0  0  0  0  0  0  0  0  0  0  0
  147.0241  133.8429  150.1127 H   0  0  0  0  0  0  0  0  0  0  0  0
  145.0373  132.6479  149.1330 H   0  0  0  0  0  0  0  0  0  0  0  0
  146.3950  131.5928  149.3942 H   0  0  0  0  0  0  0  0  0  0  0  0
  143.9507  131.8356  151.2104 H   0  0  0  0  0  0  0  0  0  0  0  0
  144.3283  130.4892  150.1642 H   0  0  0  0  0  0  0  0  0  0  0  0
  144.9535  130.0201  152.5451 H   0  0  0  0  0  0  0  0  0  0  0  0
  146.3386  129.9468  151.4829 H   0  0  0  0  0  0  0  0  0  0  0  0
  145.5754  132.2878  153.2943 H   0  0  0  0  0  0  0  0  0  0  0  0
  146.9257  131.2020  153.5154 H   0  0  0  0  0  0  0  0  0  0  0  0
  147.9443  131.9600  151.4199 H   0  0  0  0  0  0  0  0  0  0  0  0
  147.9500  134.5310  152.3373 H   0  0  0  0  0  0  0  0  0  0  0  0
  148.6034  131.0428  153.5496 H   0  0  0  0  0  0  0  0  0  0  0  0
  150.2331  130.5911  155.3567 H   0  0  0  0  0  0  0  0  0  0  0  0
  149.2860  135.2689  154.2018 H   0  0  0  0  0  0  0  0  0  0  0  0
  1  2  1  0  0  0  0
  1 18  1  0  0  0  0
  1 19  1  0  0  0  0
  1 20  1  0  0  0  0
  2  3  1  0  0  0  0
  3  8  1  0  0  0  0
  3  4  1  0  0  0  0
  3 21  1  0  0  0  0
  4  5  1  0  0  0  0
  4 22  1  0  0  0  0
  4 23  1  0  0  0  0
  5  6  1  0  0  0  0
  5 24  1  0  0  0  0
  5 25  1  0  0  0  0
  6  7  1  0  0  0  0
  6 26  1  0  0  0  0
  6 27  1  0  0  0  0
  7  8  1  0  0  0  0
  7 28  1  0  0  0  0
  7 29  1  0  0  0  0
  8  9  1  0  0  0  0
  8 30  1  0  0  0  0
  9 10  1  0  0  0  0
  9 31  1  0  0  0  0
 10 17  1  0  0  0  0
 10 11  2  0  0  0  0
 11 12  1  0  0  0  0
 11 32  1  0  0  0  0
 12 13  2  0  0  0  0
 12 33  1  0  0  0  0
 13 14  1  0  0  0  0
 13 16  1  0  0  0  0
 14 15  3  0  0  0  0
 16 17  2  0  0  0  0
 17 34  1  0  0  0  0
M  END
> <s_m_source_file>
AV-unprocessed.smi

> <i_m_source_file_index>
3067

> <i_lp_mmshare_version>
43012

> <i_f3d_flags>
0

> <s_epik_input>
W0NIM11PW0NAQEhdMVtDSDJdW0NIMl1bQ0gyXVtDSDJdW0NASF0xW05IXWMyW2NIXVtjSF1jKEMjTiluW2NIXTI=

> <s_epik_cmdline>
J2VwaWtfcHl0aG9uJywgJy1waCcsICc3LjAnLCAnLXRuJywgJzgnLCAnLW1hJywgJzIwMCcsICctbWV0YWxfYmluZGluZycsICctaW1hZScsICc8aW5maWxlLm1hZT4nLCAnLW9tYWUnLCAnPG91dGZpbGUubWFlPic=

> <r_lp_tautomer_probability>
1

> <r_epik_Ionization_Penalty>
2.01011e-07

> <r_epik_Ionization_Penalty_Charging>
0

> <r_epik_Ionization_Penalty_Neutral>
2.01011e-07

> <r_epik_State_Penalty>
-0

> <r_epik_Charging_Adjusted_Penalty>
0

> <i_epik_Tot_Q>
0

> <i_epik_Tot_abs_Q>
0

> <r_epik_Metal_State_Penalty>
-0

> <b_epik_Metal_Only>
0

> <s_lp_Force_Field>
OPLS_2005

> <r_lp_Energy>
17.9327

> <b_lp_Chiralities_Consistent>
1

> <s_lp_Variant>
AV-unprocessed.smi:3067-3

> <Gold.Version>
5.8.1

> <Gold.Id.Protein>
6NUR|6NUR_protein|mol2

> <Gold.PLP.Fitness>
42.0657

> <Gold.PLP.PLP>
-33.4405

> <Gold.PLP.part.hbond>
-2.0000

> <Gold.PLP.part.metal>
0.0000

> <Gold.PLP.part.buried>
-1.9863

> <Gold.PLP.part.nonpolar>
-29.4644

> <Gold.PLP.part.repulsive>
0.1791

> <Gold.PLP.ligand.clash>
0.0000

> <Gold.PLP.ligand.torsion>
0.0169

> <Gold.PLP.Chemscore.Hbond>
2.0000

> <Gold.PLP.Chemscore.CHOScore>
0.8824

> <Gold.PLP.Chemscore.Metal>
0.0000

> <Gold.Chemscore.Hbonds>
donor molecule, donor type, donor heavy atom, donor atom, acceptor molecule, acceptor atom, score
      L1  H     9    31       P1  7948  1.00
      P1  H  6896  6908       L1    15  0.89
      L1  C    17    34       P1  7948  0.88

> <Gold.PLP.Chemscore.Internal.Correction>
0.0117

> <Gold.Rescore>
     Score         DG    S(hbond)    S(metal)    S(lipo)     H(rot)  DE(clash)    DE(int)     intcor
     17.11     -17.17       1.53        0.00      82.45       1.20       0.05       0.02       ----

> <Gold.Chemscore.Fitness>
17.1057

> <Gold.Chemscore.DG>
-17.1722

> <Gold.Chemscore.ZeroCoef>
-5.4800

> <Gold.Chemscore.Hbond>
1.5330

> <Gold.Chemscore.Metal>
0.0000

> <Gold.Chemscore.Lipo>
82.4522

> <Gold.Chemscore.Internal_Hbond>
0.0000

> <Gold.Chemscore.DEClash>
0.0456

> <Gold.Chemscore.DEInternal>
0.0208

> <Gold.Chemscore.Rot>
1.2012

> <Gold.Chemscore.Internal.Correction>
   9.000000E+99

> <Gold.Chemscore.Hbonds>
donor molecule, donor type, donor heavy atom, donor atom, acceptor molecule, acceptor atom, score
      L1  H     9    31       P1  7948  0.37
      P1  H  6896  6908       L1    15  0.77

> <Gold.Chemscore.Hbond.Weighted>
-5.1202

> <Gold.Chemscore.Metal.Weighted>
-0.0000

> <Gold.Chemscore.Lipo.Weighted>
-9.6469

> <Gold.Chemscore.Internal_Hbond.Weighted>
0.0000

> <Gold.Chemscore.DEClash.Weighted>
0.0456

> <Gold.Chemscore.DEInternal.Weighted>
0.0208

> <Gold.Chemscore.Rot.Weighted>
3.0750

> <Gold.Chemscore.Internal.Correction.Weighted>
   9.000000E+99

> <Gold.Protein.RotatedTorsions>
[ 6907 6896 6895 6894 ] final   37.20 input  -60.11 | X-H torsion
[ 7974 7965 7964 7962 ] final  178.17 input  175.53 | X-H torsion
[ 8008 7997 7996 7995 ] final   71.06 input   59.86 | X-H torsion
[ 10167 10162 10161 10158 ] final -119.76 input  -65.29 | X-H torsion
[ 10718 10713 10712 10709 ] final -104.46 input   66.30 | X-H torsion
[ 10763 10752 10751 10750 ] final  152.49 input  -60.55 | X-H torsion
[ 11005 11000 10999 10996 ] final  -19.65 input  -57.11 | X-H torsion

> <Gold.Protein.ActiveResidues>
 VAL166  LYS551  ARG553  GLY616  TRP617  ASP618  TYR619  PRO620  LYS621  CYS622 
 ASP623  PHE694  ASN695  SER759  ASP760  ASP761  ALA762  ILE779  LEU786  VAL792 
 PHE793  MET794  SER795  GLU796  ALA797  LYS798  CYS799  TRP800  GLU811  SER814 

> <Gold.Protein.RotatedAtoms>
  152.1400  134.9070  160.0554 H   0  0  0  0  0  0  0  0  0  0  0  0  # atno 6907 bound_to 6896
  152.0141  133.3868  159.4240 H   0  0  0  0  0  0  0  0  0  0  0  0  # atno 6908 bound_to 6896
  150.6864  134.3620  159.4998 H   0  0  0  0  0  0  0  0  0  0  0  0  # atno 6909 bound_to 6896
  144.7159  140.0357  143.6438 H   0  0  0  0  0  0  0  0  0  0  0  0  # atno 7974 bound_to 7965
  155.7482  140.3489  155.5137 H   0  0  0  0  0  0  0  0  0  0  0  0  # atno 8008 bound_to 7997
  155.9030  140.1037  157.1357 H   0  0  0  0  0  0  0  0  0  0  0  0  # atno 8009 bound_to 7997
  154.4046  140.1282  156.4447 H   0  0  0  0  0  0  0  0  0  0  0  0  # atno 8010 bound_to 7997
  140.0431  143.5133  152.2120 H   0  0  0  0  0  0  0  0  0  0  0  0  # atno 10167 bound_to 10162
  156.0305  130.5516  150.7400 H   0  0  0  0  0  0  0  0  0  0  0  0  # atno 10718 bound_to 10713
  154.1208  135.2833  155.3209 H   0  0  0  0  0  0  0  0  0  0  0  0  # atno 10763 bound_to 10752
  154.6424  135.5397  153.7808 H   0  0  0  0  0  0  0  0  0  0  0  0  # atno 10764 bound_to 10752
  153.0313  135.6490  154.1362 H   0  0  0  0  0  0  0  0  0  0  0  0  # atno 10765 bound_to 10752
  140.8388  133.7942  155.9838 H   0  0  0  0  0  0  0  0  0  0  0  0  # atno 11005 bound_to 11000
  146.0065  139.3134  143.0896 LP  0  0  0  0  0  0  0  0  0  0  0  0  # atno 17320 bound_to 7965
  145.8732  140.9407  143.0640 LP  0  0  0  0  0  0  0  0  0  0  0  0  # atno 17321 bound_to 7965
  139.6001  144.7579  151.3193 LP  0  0  0  0  0  0  0  0  0  0  0  0  # atno 17342 bound_to 10162
  140.7251  143.7027  150.7832 LP  0  0  0  0  0  0  0  0  0  0  0  0  # atno 17343 bound_to 10162
  157.4971  131.0915  151.0358 LP  0  0  0  0  0  0  0  0  0  0  0  0  # atno 17370 bound_to 10713
  157.0749  130.5879  149.5409 LP  0  0  0  0  0  0  0  0  0  0  0  0  # atno 17371 bound_to 10713
  140.8918  134.2486  157.5090 LP  0  0  0  0  0  0  0  0  0  0  0  0  # atno 17394 bound_to 11000
  139.8703  134.9665  156.4565 LP  0  0  0  0  0  0  0  0  0  0  0  0  # atno 17395 bound_to 11000

$$$$
