AV-unprocessed.smi:2473|AV-procd|sdf|9748|dock7
  -GOLD-   2272013393D 1   1.00000     0.00000
 Structure written by MMmdl.
 47 48  0  0  0  0  0  0  0  0  1 V2000
  153.6421  141.0567  160.5136 C   0  0  0  0  0  0  0  0  0  0  0  0
  152.8545  141.9500  159.5443 C   0  0  1  0  0  0  0  0  0  0  0  0
  151.5009  141.3172  159.1734 C   0  0  0  0  0  0  0  0  0  0  0  0
  150.7169  142.2079  158.1907 C   0  0  1  0  0  0  0  0  0  0  0  0
  149.3633  141.5828  157.8297 C   0  0  0  0  0  0  0  0  0  0  0  0
  149.1224  140.4118  158.1243 O   0  0  0  0  0  0  0  0  0  0  0  0
  148.4767  142.3897  157.2246 N   0  0  0  0  0  0  0  0  0  0  0  0
  147.0821  142.0590  156.9426 C   0  0  0  0  0  0  0  0  0  0  0  0
  146.2819  141.7830  158.2310 C   0  0  0  0  0  0  0  0  0  0  0  0
  146.2714  142.9300  159.1995 C   0  0  0  0  0  0  0  0  0  0  0  0
  146.8618  142.8877  160.3900 N   0  0  0  0  0  0  0  0  0  0  0  0
  146.6485  144.1474  160.9384 C   0  0  0  0  0  0  0  0  0  0  0  0
  145.9273  144.9132  160.0548 C   0  0  0  0  0  0  0  0  0  0  0  0
  145.6903  144.1193  158.9406 N   0  0  0  0  0  0  0  0  0  0  0  0
  144.9634  144.5232  157.7519 C   0  0  0  0  0  0  0  0  0  0  0  0
  150.5163  143.6182  158.7900 C   0  0  0  0  0  0  0  0  0  0  0  0
  151.8386  144.3092  159.2018 C   0  0  0  0  0  0  0  0  0  0  0  0
  152.6629  144.7105  157.9588 C   0  0  0  0  0  0  0  0  0  0  0  0
  151.5021  145.5986  159.9764 C   0  0  0  0  0  0  0  0  0  0  0  0
  152.6475  143.3646  160.1265 C   0  0  0  0  0  0  0  0  0  0  0  0
  153.1039  140.9161  161.4513 H   0  0  0  0  0  0  0  0  0  0  0  0
  154.6133  141.4934  160.7484 H   0  0  0  0  0  0  0  0  0  0  0  0
  153.8214  140.0718  160.0816 H   0  0  0  0  0  0  0  0  0  0  0  0
  153.4503  142.0323  158.6352 H   0  0  0  0  0  0  0  0  0  0  0  0
  151.6647  140.3334  158.7311 H   0  0  0  0  0  0  0  0  0  0  0  0
  150.9161  141.1534  160.0803 H   0  0  0  0  0  0  0  0  0  0  0  0
  151.2976  142.2949  157.2718 H   0  0  0  0  0  0  0  0  0  0  0  0
  148.7699  143.3316  157.0099 H   0  0  0  0  0  0  0  0  0  0  0  0
  146.6336  142.8948  156.4054 H   0  0  0  0  0  0  0  0  0  0  0  0
  147.0157  141.1992  156.2741 H   0  0  0  0  0  0  0  0  0  0  0  0
  145.2580  141.5092  157.9770 H   0  0  0  0  0  0  0  0  0  0  0  0
  146.7030  140.9136  158.7368 H   0  0  0  0  0  0  0  0  0  0  0  0
  147.0269  144.4034  161.9169 H   0  0  0  0  0  0  0  0  0  0  0  0
  145.5749  145.9317  160.1250 H   0  0  0  0  0  0  0  0  0  0  0  0
  144.6921  145.5772  157.8176 H   0  0  0  0  0  0  0  0  0  0  0  0
  144.0539  143.9300  157.6562 H   0  0  0  0  0  0  0  0  0  0  0  0
  145.5830  144.3786  156.8668 H   0  0  0  0  0  0  0  0  0  0  0  0
  149.9784  144.2499  158.0822 H   0  0  0  0  0  0  0  0  0  0  0  0
  149.8705  143.5417  159.6667 H   0  0  0  0  0  0  0  0  0  0  0  0
  153.5820  145.2229  158.2453 H   0  0  0  0  0  0  0  0  0  0  0  0
  152.0998  145.3876  157.3157 H   0  0  0  0  0  0  0  0  0  0  0  0
  152.9505  143.8553  157.3494 H   0  0  0  0  0  0  0  0  0  0  0  0
  152.4062  146.1197  160.2933 H   0  0  0  0  0  0  0  0  0  0  0  0
  150.9168  145.3874  160.8722 H   0  0  0  0  0  0  0  0  0  0  0  0
  150.9218  146.2896  159.3638 H   0  0  0  0  0  0  0  0  0  0  0  0
  152.1288  143.2705  161.0819 H   0  0  0  0  0  0  0  0  0  0  0  0
  153.6147  143.8131  160.3568 H   0  0  0  0  0  0  0  0  0  0  0  0
  1  2  1  0  0  0  0
  1 21  1  0  0  0  0
  1 22  1  0  0  0  0
  1 23  1  0  0  0  0
  2 20  1  0  0  0  0
  2  3  1  0  0  0  0
  2 24  1  0  0  0  0
  3  4  1  0  0  0  0
  3 25  1  0  0  0  0
  3 26  1  0  0  0  0
  4  5  1  0  0  0  0
  4 16  1  0  0  0  0
  4 27  1  0  0  0  0
  5  6  2  0  0  0  0
  5  7  1  0  0  0  0
  7  8  1  0  0  0  0
  7 28  1  0  0  0  0
  8  9  1  0  0  0  0
  8 29  1  0  0  0  0
  8 30  1  0  0  0  0
  9 10  1  0  0  0  0
  9 31  1  0  0  0  0
  9 32  1  0  0  0  0
 10 14  1  0  0  0  0
 10 11  2  0  0  0  0
 11 12  1  0  0  0  0
 12 13  2  0  0  0  0
 12 33  1  0  0  0  0
 13 14  1  0  0  0  0
 13 34  1  0  0  0  0
 14 15  1  0  0  0  0
 15 35  1  0  0  0  0
 15 36  1  0  0  0  0
 15 37  1  0  0  0  0
 16 17  1  0  0  0  0
 16 38  1  0  0  0  0
 16 39  1  0  0  0  0
 17 18  1  0  0  0  0
 17 19  1  0  0  0  0
 17 20  1  0  0  0  0
 18 40  1  0  0  0  0
 18 41  1  0  0  0  0
 18 42  1  0  0  0  0
 19 43  1  0  0  0  0
 19 44  1  0  0  0  0
 19 45  1  0  0  0  0
 20 46  1  0  0  0  0
 20 47  1  0  0  0  0
M  END
> <s_m_source_file>
AV-unprocessed.smi

> <i_m_source_file_index>
2473

> <i_lp_mmshare_version>
43012

> <i_f3d_flags>
0

> <s_epik_input>
W0NIM11bQ0BASF0oW0NIMl0xKVtDSDJdW0NASF0oW0NIMl1DMShbQ0gzXSlbQ0gzXSlDKD1PKVtOSF1bQ0gyXVtDSDJdYzJuW2NIXVtjSF1uMltDSDNd

> <s_epik_cmdline>
J2VwaWtfcHl0aG9uJywgJy1waCcsICc3LjAnLCAnLXRuJywgJzgnLCAnLW1hJywgJzIwMCcsICctbWV0YWxfYmluZGluZycsICctaW1hZScsICc8aW5maWxlLm1hZT4nLCAnLW9tYWUnLCAnPG91dGZpbGUubWFlPic=

> <r_lp_tautomer_probability>
1

> <r_epik_Ionization_Penalty>
1.22858

> <r_epik_Ionization_Penalty_Charging>
1.22858

> <r_epik_Ionization_Penalty_Neutral>
2.12671e-08

> <r_epik_State_Penalty>
1.2965

> <r_epik_Charging_Adjusted_Penalty>
2.52508

> <i_epik_Tot_Q>
0

> <i_epik_Tot_abs_Q>
0

> <r_epik_Metal_State_Penalty>
0.411461

> <b_epik_Metal_Only>
0

> <s_lp_Force_Field>
OPLS_2005

> <r_lp_Energy>
12.6142

> <b_lp_Chiralities_Consistent>
1

> <s_lp_Variant>
AV-unprocessed.smi:2473-6

> <Gold.Version>
5.8.1

> <Gold.Id.Protein>
6NUR|6NUR_protein|mol2

> <Gold.PLP.Fitness>
50.6377

> <Gold.PLP.PLP>
-43.1324

> <Gold.PLP.part.hbond>
-3.0752

> <Gold.PLP.part.metal>
0.0000

> <Gold.PLP.part.buried>
-6.1078

> <Gold.PLP.part.nonpolar>
-34.7220

> <Gold.PLP.part.repulsive>
0.0643

> <Gold.PLP.ligand.clash>
0.0000

> <Gold.PLP.ligand.torsion>
0.4001

> <Gold.PLP.Chemscore.Hbond>
2.7612

> <Gold.PLP.Chemscore.CHOScore>
0.0000

> <Gold.PLP.Chemscore.Metal>
0.0000

> <Gold.Chemscore.Hbonds>
donor molecule, donor type, donor heavy atom, donor atom, acceptor molecule, acceptor atom, score
      L1  H     7    28       P1  8028  0.94
      P1  H  6933  6944       L1    11  0.93
      P1  H  6934  6946       L1    11  0.87

> <Gold.PLP.Chemscore.Internal.Correction>
0.0218

> <Gold.Rescore>
     Score         DG    S(hbond)    S(metal)    S(lipo)     H(rot)  DE(clash)    DE(int)     intcor
     19.72     -20.45       1.64        0.00     114.04       1.51       0.28       0.45       ----

> <Gold.Chemscore.Fitness>
19.7200

> <Gold.Chemscore.DG>
-20.4473

> <Gold.Chemscore.ZeroCoef>
-5.4800

> <Gold.Chemscore.Hbond>
1.6445

> <Gold.Chemscore.Metal>
0.0000

> <Gold.Chemscore.Lipo>
114.0380

> <Gold.Chemscore.Internal_Hbond>
0.0000

> <Gold.Chemscore.DEClash>
0.2816

> <Gold.Chemscore.DEInternal>
0.4457

> <Gold.Chemscore.Rot>
1.5109

> <Gold.Chemscore.Internal.Correction>
   9.000000E+99

> <Gold.Chemscore.Hbonds>
donor molecule, donor type, donor heavy atom, donor atom, acceptor molecule, acceptor atom, score
      L1  H     7    28       P1  8028  0.50
      P1  H  6933  6944       L1    11  0.22
      P1  H  6934  6946       L1    11  0.24

> <Gold.Chemscore.Hbond.Weighted>
-5.4928

> <Gold.Chemscore.Metal.Weighted>
-0.0000

> <Gold.Chemscore.Lipo.Weighted>
-13.3424

> <Gold.Chemscore.Internal_Hbond.Weighted>
0.0000

> <Gold.Chemscore.DEClash.Weighted>
0.2816

> <Gold.Chemscore.DEInternal.Weighted>
0.4457

> <Gold.Chemscore.Rot.Weighted>
3.8680

> <Gold.Chemscore.Internal.Correction.Weighted>
   9.000000E+99

> <Gold.Protein.RotatedTorsions>
[ 6907 6896 6895 6894 ] final  -58.66 input  -60.11 | X-H torsion
[ 7974 7965 7964 7962 ] final  116.83 input  175.53 | X-H torsion
[ 8008 7997 7996 7995 ] final  -47.72 input   59.86 | X-H torsion
[ 10167 10162 10161 10158 ] final  126.74 input  -65.29 | X-H torsion
[ 10718 10713 10712 10709 ] final  131.90 input   66.30 | X-H torsion
[ 10763 10752 10751 10750 ] final  -91.58 input  -60.55 | X-H torsion
[ 11005 11000 10999 10996 ] final   -4.31 input  -57.11 | X-H torsion

> <Gold.Protein.ActiveResidues>
 VAL166  LYS551  ARG553  GLY616  TRP617  ASP618  TYR619  PRO620  LYS621  CYS622 
 ASP623  PHE694  ASN695  SER759  ASP760  ASP761  ALA762  ILE779  LEU786  VAL792 
 PHE793  MET794  SER795  GLU796  ALA797  LYS798  CYS799  TRP800  GLU811  SER814 

> <Gold.Protein.RotatedAtoms>
  150.7989  134.7069  159.6581 H   0  0  0  0  0  0  0  0  0  0  0  0  # atno 6907 bound_to 6896
  152.4104  134.6130  160.0040 H   0  0  0  0  0  0  0  0  0  0  0  0  # atno 6908 bound_to 6896
  151.6375  133.3291  159.3159 H   0  0  0  0  0  0  0  0  0  0  0  0  # atno 6909 bound_to 6896
  145.1748  139.3082  143.4449 H   0  0  0  0  0  0  0  0  0  0  0  0  # atno 7974 bound_to 7965
  154.4020  140.1339  156.4221 H   0  0  0  0  0  0  0  0  0  0  0  0  # atno 8008 bound_to 7997
  155.7632  140.3485  155.5188 H   0  0  0  0  0  0  0  0  0  0  0  0  # atno 8009 bound_to 7997
  155.8839  140.0992  157.1456 H   0  0  0  0  0  0  0  0  0  0  0  0  # atno 8010 bound_to 7997
  139.5615  144.6884  151.4030 H   0  0  0  0  0  0  0  0  0  0  0  0  # atno 10167 bound_to 10162
  157.4923  131.1091  150.9540 H   0  0  0  0  0  0  0  0  0  0  0  0  # atno 10718 bound_to 10713
  154.6775  135.5262  153.8218 H   0  0  0  0  0  0  0  0  0  0  0  0  # atno 10763 bound_to 10752
  153.0542  135.6544  154.0628 H   0  0  0  0  0  0  0  0  0  0  0  0  # atno 10764 bound_to 10752
  154.0520  135.2968  155.3319 H   0  0  0  0  0  0  0  0  0  0  0  0  # atno 10765 bound_to 10752
  140.6789  133.9171  155.8542 H   0  0  0  0  0  0  0  0  0  0  0  0  # atno 11005 bound_to 11000
  146.3463  140.1906  142.8589 LP  0  0  0  0  0  0  0  0  0  0  0  0  # atno 17320 bound_to 7965
  145.0196  140.8783  143.5174 LP  0  0  0  0  0  0  0  0  0  0  0  0  # atno 17321 bound_to 7965
  140.6895  143.7895  150.7234 LP  0  0  0  0  0  0  0  0  0  0  0  0  # atno 17342 bound_to 10162
  140.1373  143.4473  152.2216 LP  0  0  0  0  0  0  0  0  0  0  0  0  # atno 17343 bound_to 10162
  157.0237  130.5684  149.5334 LP  0  0  0  0  0  0  0  0  0  0  0  0  # atno 17370 bound_to 10713
  156.0180  130.5275  150.8193 LP  0  0  0  0  0  0  0  0  0  0  0  0  # atno 17371 bound_to 10713
  141.0333  134.0725  157.3989 LP  0  0  0  0  0  0  0  0  0  0  0  0  # atno 17394 bound_to 11000
  139.8958  135.0142  156.7019 LP  0  0  0  0  0  0  0  0  0  0  0  0  # atno 17395 bound_to 11000

$$$$
