AV-unprocessed.smi:1667|AV-procd|sdf|6675|dock4
  -GOLD-   22720 7393D 1   1.00000     0.00000
 Structure written by MMmdl.
 45 47  0  0  0  0  0  0  0  0  1 V2000
  149.5002  134.0380  154.5943 C   0  0  0  0  0  0  0  0  0  0  0  0
  150.2025  135.2276  155.2402 C   0  0  0  0  0  0  0  0  0  0  0  0
  150.7155  135.1060  156.3519 O   0  0  0  0  0  0  0  0  0  0  0  0
  150.2137  136.3712  154.5391 N   0  0  0  0  0  0  0  0  0  0  0  0
  150.7914  137.6363  154.9895 C   0  0  1  0  0  0  0  0  0  0  0  0
  152.1324  137.9096  154.2913 C   0  0  0  0  0  0  0  0  0  0  0  0
  149.7884  138.7311  154.7242 C   0  0  0  0  0  0  0  0  0  0  0  0
  148.7921  138.5778  153.8468 N   0  0  0  0  0  0  0  0  0  0  0  0
  148.1623  139.8044  153.8741 C   0  0  0  0  0  0  0  0  0  0  0  0
  147.0345  140.2716  153.1620 C   0  0  0  0  0  0  0  0  0  0  0  0
  146.5695  141.5900  153.3468 C   0  0  0  0  0  0  0  0  0  0  0  0
  147.2263  142.4580  154.2422 C   0  0  0  0  0  0  0  0  0  0  0  0
  148.3516  142.0113  154.9610 C   0  0  0  0  0  0  0  0  0  0  0  0
  148.8091  140.6918  154.7784 C   0  0  0  0  0  0  0  0  0  0  0  0
  149.8586  139.9526  155.3199 N   0  0  0  0  0  0  0  0  0  0  0  0
  150.8253  140.4362  156.3034 C   0  0  0  0  0  0  0  0  0  0  0  0
  150.1851  141.0807  157.5563 C   0  0  1  0  0  0  0  0  0  0  0  0
  149.4891  140.1077  158.3100 O   0  0  0  0  0  0  0  0  0  0  0  0
  151.1742  141.8751  158.4003 C   0  0  0  0  0  0  0  0  0  0  0  0
  152.2279  141.2290  159.0861 C   0  0  0  0  0  0  0  0  0  0  0  0
  153.1330  141.9756  159.8649 C   0  0  0  0  0  0  0  0  0  0  0  0
  152.9908  143.3725  159.9645 C   0  0  0  0  0  0  0  0  0  0  0  0
  151.9470  144.0232  159.2795 C   0  0  0  0  0  0  0  0  0  0  0  0
  151.8141  145.3676  159.3687 F   0  0  0  0  0  0  0  0  0  0  0  0
  151.0422  143.2768  158.4997 C   0  0  0  0  0  0  0  0  0  0  0  0
  150.9648  137.5549  156.0608 H   0  0  0  0  0  0  0  0  0  0  0  0
  148.8789  134.3493  153.7536 H   0  0  0  0  0  0  0  0  0  0  0  0
  148.8603  133.5386  155.3222 H   0  0  0  0  0  0  0  0  0  0  0  0
  150.2348  133.3188  154.2321 H   0  0  0  0  0  0  0  0  0  0  0  0
  149.7689  136.3791  153.6323 H   0  0  0  0  0  0  0  0  0  0  0  0
  152.5628  138.8516  154.6322 H   0  0  0  0  0  0  0  0  0  0  0  0
  152.0120  137.9715  153.2094 H   0  0  0  0  0  0  0  0  0  0  0  0
  152.8572  137.1227  154.5018 H   0  0  0  0  0  0  0  0  0  0  0  0
  146.5275  139.6153  152.4704 H   0  0  0  0  0  0  0  0  0  0  0  0
  145.7067  141.9374  152.7974 H   0  0  0  0  0  0  0  0  0  0  0  0
  146.8659  143.4672  154.3775 H   0  0  0  0  0  0  0  0  0  0  0  0
  148.8550  142.6752  155.6476 H   0  0  0  0  0  0  0  0  0  0  0  0
  151.4961  139.6266  156.5884 H   0  0  0  0  0  0  0  0  0  0  0  0
  151.4630  141.1695  155.8082 H   0  0  0  0  0  0  0  0  0  0  0  0
  149.4223  141.7798  157.2109 H   0  0  0  0  0  0  0  0  0  0  0  0
  148.6098  140.0394  157.9705 H   0  0  0  0  0  0  0  0  0  0  0  0
  152.3514  140.1583  159.0120 H   0  0  0  0  0  0  0  0  0  0  0  0
  153.9383  141.4768  160.3837 H   0  0  0  0  0  0  0  0  0  0  0  0
  153.6866  143.9458  160.5594 H   0  0  0  0  0  0  0  0  0  0  0  0
  150.2458  143.7856  157.9766 H   0  0  0  0  0  0  0  0  0  0  0  0
  1  2  1  0  0  0  0
  1 27  1  0  0  0  0
  1 28  1  0  0  0  0
  1 29  1  0  0  0  0
  2  3  2  0  0  0  0
  2  4  1  0  0  0  0
  4  5  1  0  0  0  0
  4 30  1  0  0  0  0
  5 26  1  0  0  0  0
  5  6  1  0  0  0  0
  5  7  1  0  0  0  0
  6 31  1  0  0  0  0
  6 32  1  0  0  0  0
  6 33  1  0  0  0  0
  7 15  1  0  0  0  0
  7  8  2  0  0  0  0
  8  9  1  0  0  0  0
  9 14  2  0  0  0  0
  9 10  1  0  0  0  0
 10 11  2  0  0  0  0
 10 34  1  0  0  0  0
 11 12  1  0  0  0  0
 11 35  1  0  0  0  0
 12 13  2  0  0  0  0
 12 36  1  0  0  0  0
 13 14  1  0  0  0  0
 13 37  1  0  0  0  0
 14 15  1  0  0  0  0
 15 16  1  0  0  0  0
 16 17  1  0  0  0  0
 16 38  1  0  0  0  0
 16 39  1  0  0  0  0
 17 18  1  0  0  0  0
 17 19  1  0  0  0  0
 17 40  1  0  0  0  0
 18 41  1  0  0  0  0
 19 25  1  0  0  0  0
 19 20  2  0  0  0  0
 20 21  1  0  0  0  0
 20 42  1  0  0  0  0
 21 22  2  0  0  0  0
 21 43  1  0  0  0  0
 22 23  1  0  0  0  0
 22 44  1  0  0  0  0
 23 24  1  0  0  0  0
 23 25  2  0  0  0  0
 25 45  1  0  0  0  0
M  END
> <s_m_source_file>
AV-unprocessed.smi

> <i_m_source_file_index>
1667

> <i_lp_mmshare_version>
43012

> <i_f3d_flags>
0

> <s_epik_input>
W0NIM11DKD1PKVtOSF1bQ0BASF0oW0NIM10pYyhuMSluKGMoYzEyKVtjSF1bY0hdW2NIXVtjSF0yKVtDSDJdW0NASF0oW09IXSljM1tjSF1bY0hdW2NIXWMoRilbY0hdMw==

> <s_epik_cmdline>
J2VwaWtfcHl0aG9uJywgJy1waCcsICc3LjAnLCAnLXRuJywgJzgnLCAnLW1hJywgJzIwMCcsICctbWV0YWxfYmluZGluZycsICctaW1hZScsICc8aW5maWxlLm1hZT4nLCAnLW9tYWUnLCAnPG91dGZpbGUubWFlPic=

> <r_epik_Ionization_Penalty>
0.133011

> <r_epik_Ionization_Penalty_Charging>
0

> <r_epik_Ionization_Penalty_Neutral>
0.133011

> <r_epik_State_Penalty>
0.122384

> <r_epik_Charging_Adjusted_Penalty>
0.122384

> <i_epik_Tot_Q>
0

> <i_epik_Tot_abs_Q>
0

> <r_epik_Metal_State_Penalty>
0.0997374

> <b_epik_Metal_Only>
0

> <s_lp_Force_Field>
OPLS_2005

> <r_lp_Energy>
5.5788

> <b_lp_Chiralities_Consistent>
1

> <s_lp_Variant>
AV-unprocessed.smi:1667-3

> <Gold.Version>
5.8.1

> <Gold.Id.Protein>
6NUR|6NUR_protein|mol2

> <Gold.PLP.Fitness>
52.6707

> <Gold.PLP.PLP>
-51.1730

> <Gold.PLP.part.hbond>
-1.8812

> <Gold.PLP.part.metal>
0.0000

> <Gold.PLP.part.buried>
-1.3096

> <Gold.PLP.part.nonpolar>
-50.0645

> <Gold.PLP.part.repulsive>
1.0571

> <Gold.PLP.ligand.clash>
0.0000

> <Gold.PLP.ligand.torsion>
0.8045

> <Gold.PLP.Chemscore.Hbond>
1.0000

> <Gold.PLP.Chemscore.CHOScore>
0.0000

> <Gold.PLP.Chemscore.Metal>
0.0000

> <Gold.Chemscore.Hbonds>
donor molecule, donor type, donor heavy atom, donor atom, acceptor molecule, acceptor atom, score
      L1  H     4    30       P1  7948  1.00

> <Gold.PLP.Chemscore.Internal.Correction>
0.1067

> <Gold.Rescore>
     Score         DG    S(hbond)    S(metal)    S(lipo)     H(rot)  DE(clash)    DE(int)     intcor
     15.09     -17.60       0.84        0.00     133.64       2.48       1.47       1.04       ----

> <Gold.Chemscore.Fitness>
15.0875

> <Gold.Chemscore.DG>
-17.5981

> <Gold.Chemscore.ZeroCoef>
-5.4800

> <Gold.Chemscore.Hbond>
0.8445

> <Gold.Chemscore.Metal>
0.0000

> <Gold.Chemscore.Lipo>
133.6397

> <Gold.Chemscore.Internal_Hbond>
0.0000

> <Gold.Chemscore.DEClash>
1.4668

> <Gold.Chemscore.DEInternal>
1.0438

> <Gold.Chemscore.Rot>
2.4760

> <Gold.Chemscore.Internal.Correction>
   9.000000E+99

> <Gold.Chemscore.Hbonds>
donor molecule, donor type, donor heavy atom, donor atom, acceptor molecule, acceptor atom, score
      L1  H     4    30       P1  7948  0.35

> <Gold.Chemscore.Hbond.Weighted>
-2.8207

> <Gold.Chemscore.Metal.Weighted>
-0.0000

> <Gold.Chemscore.Lipo.Weighted>
-15.6358

> <Gold.Chemscore.Internal_Hbond.Weighted>
0.0000

> <Gold.Chemscore.DEClash.Weighted>
1.4668

> <Gold.Chemscore.DEInternal.Weighted>
1.0438

> <Gold.Chemscore.Rot.Weighted>
6.3385

> <Gold.Chemscore.Internal.Correction.Weighted>
   9.000000E+99

> <Gold.Protein.RotatedTorsions>
[ 6907 6896 6895 6894 ] final   56.72 input  -60.11 | X-H torsion
[ 7974 7965 7964 7962 ] final  -53.72 input  175.53 | X-H torsion
[ 8008 7997 7996 7995 ] final -164.89 input   59.86 | X-H torsion
[ 10167 10162 10161 10158 ] final  -74.82 input  -65.29 | X-H torsion
[ 10718 10713 10712 10709 ] final  116.76 input   66.30 | X-H torsion
[ 10763 10752 10751 10750 ] final  141.28 input  -60.55 | X-H torsion
[ 11005 11000 10999 10996 ] final   18.81 input  -57.11 | X-H torsion

> <Gold.Protein.ActiveResidues>
 VAL166  LYS551  ARG553  GLY616  TRP617  ASP618  TYR619  PRO620  LYS621  CYS622 
 ASP623  PHE694  ASN695  SER759  ASP760  ASP761  ALA762  ILE779  LEU786  VAL792 
 PHE793  MET794  SER795  GLU796  ALA797  LYS798  CYS799  TRP800  GLU811  SER814 

> <Gold.Protein.RotatedAtoms>
  152.3663  134.6799  160.0190 H   0  0  0  0  0  0  0  0  0  0  0  0  # atno 6907 bound_to 6896
  151.7106  133.3307  159.3297 H   0  0  0  0  0  0  0  0  0  0  0  0  # atno 6908 bound_to 6896
  150.7641  134.6470  159.6312 H   0  0  0  0  0  0  0  0  0  0  0  0  # atno 6909 bound_to 6896
  145.8937  140.8050  142.9778 H   0  0  0  0  0  0  0  0  0  0  0  0  # atno 7974 bound_to 7965
  155.8421  140.0950  157.1728 H   0  0  0  0  0  0  0  0  0  0  0  0  # atno 8008 bound_to 7997
  154.3982  140.1399  156.3802 H   0  0  0  0  0  0  0  0  0  0  0  0  # atno 8009 bound_to 7997
  155.8053  140.3451  155.5429 H   0  0  0  0  0  0  0  0  0  0  0  0  # atno 8010 bound_to 7997
  140.4994  143.2364  151.7776 H   0  0  0  0  0  0  0  0  0  0  0  0  # atno 10167 bound_to 10162
  157.6140  131.1029  150.7519 H   0  0  0  0  0  0  0  0  0  0  0  0  # atno 10718 bound_to 10713
  153.9366  135.2984  155.3444 H   0  0  0  0  0  0  0  0  0  0  0  0  # atno 10763 bound_to 10752
  154.7499  135.4985  153.9273 H   0  0  0  0  0  0  0  0  0  0  0  0  # atno 10764 bound_to 10752
  153.1064  135.6748  153.9685 H   0  0  0  0  0  0  0  0  0  0  0  0  # atno 10765 bound_to 10752
  140.4207  134.1522  155.7673 H   0  0  0  0  0  0  0  0  0  0  0  0  # atno 11005 bound_to 11000
  144.6732  140.1569  143.7425 LP  0  0  0  0  0  0  0  0  0  0  0  0  # atno 17320 bound_to 7965
  145.8877  139.2358  143.1568 LP  0  0  0  0  0  0  0  0  0  0  0  0  # atno 17321 bound_to 7965
  139.4869  144.4542  151.9618 LP  0  0  0  0  0  0  0  0  0  0  0  0  # atno 17342 bound_to 10162
  140.3631  144.2949  150.5930 LP  0  0  0  0  0  0  0  0  0  0  0  0  # atno 17343 bound_to 10162
  156.7890  130.4884  149.5388 LP  0  0  0  0  0  0  0  0  0  0  0  0  # atno 17370 bound_to 10713
  156.1254  130.6140  151.0256 LP  0  0  0  0  0  0  0  0  0  0  0  0  # atno 17371 bound_to 10713
  141.1785  133.8464  157.1340 LP  0  0  0  0  0  0  0  0  0  0  0  0  # atno 17394 bound_to 11000
  140.0202  134.9949  157.0576 LP  0  0  0  0  0  0  0  0  0  0  0  0  # atno 17395 bound_to 11000

$$$$
