AV-unprocessed.smi:148|AV-procd|sdf|1215|dock5
  -GOLD-   2262018393D 1   1.00000     0.00000
 Structure written by MMmdl.
 63 67  0  0  0  0  0  0  0  0  1 V2000
  147.5070  135.7230  155.2749 O   0  0  0  0  0  0  0  0  0  0  0  0
  147.7993  134.4178  154.8208 C   0  0  0  0  0  0  0  0  0  0  0  0
  149.1022  134.4092  153.9873 C   0  0  1  0  0  0  0  0  0  0  0  0
  150.3331  134.5914  154.9103 C   0  0  0  0  0  0  0  0  0  0  0  0
  150.5902  135.9764  155.2641 N   0  0  0  0  0  0  0  0  0  0  0  0
  150.9893  136.9853  154.4170 C   0  0  0  0  0  0  0  0  0  0  0  0
  151.1467  138.1523  154.9794 N   0  0  0  0  0  0  0  0  0  0  0  0
  150.8456  137.9285  156.3177 C   0  0  0  0  0  0  0  0  0  0  0  0
  150.8102  138.7465  157.4833 C   0  0  0  0  0  0  0  0  0  0  0  0
  151.0911  140.0698  157.5136 N   0  0  0  0  0  0  0  0  0  0  0  0
  152.0308  140.3388  158.6032 C   0  0  0  0  0  0  0  0  0  0  0  0
  152.5653  141.7755  158.5495 C   0  0  0  0  0  0  0  0  0  0  0  0
  151.4049  142.7751  158.5380 C   0  0  0  0  0  0  0  0  0  0  0  0
  150.4683  142.4669  157.3631 C   0  0  0  0  0  0  0  0  0  0  0  0
  149.9530  141.0024  157.4110 C   0  0  1  0  0  0  0  0  0  0  0  0
  148.9704  140.6615  156.2451 C   0  0  1  0  0  0  0  0  0  0  0  0
  147.5112  141.0794  156.5278 C   0  0  0  0  0  0  0  0  0  0  0  0
  147.1645  142.1487  155.4909 C   0  0  0  0  0  0  0  0  0  0  0  0
  147.9937  141.7572  154.2728 C   0  0  0  0  0  0  0  0  0  0  0  0
  149.3214  141.2832  154.8695 C   0  0  2  0  0  0  0  0  0  0  0  0
  149.9489  140.3580  154.0059 O   0  0  0  0  0  0  0  0  0  0  0  0
  150.4339  138.1707  158.6519 N   0  0  0  0  0  0  0  0  0  0  0  0
  150.1344  136.8688  158.6905 C   0  0  0  0  0  0  0  0  0  0  0  0
  150.1351  135.9818  157.6930 N   0  0  0  0  0  0  0  0  0  0  0  0
  150.4951  136.5632  156.5130 C   0  0  0  0  0  0  0  0  0  0  0  0
  149.2324  133.1724  153.0546 C   0  0  2  0  0  0  0  0  0  0  0  0
  147.9545  132.7534  152.3257 C   0  0  0  0  0  0  0  0  0  0  0  0
  147.8807  131.2404  152.5376 C   0  0  0  0  0  0  0  0  0  0  0  0
  149.2091  130.8664  152.8672 O   0  0  0  0  0  0  0  0  0  0  0  0
  149.7135  131.8783  153.7216 C   0  0  0  0  0  0  0  0  0  0  0  0
  148.1212  135.9497  155.9565 H   0  0  0  0  0  0  0  0  0  0  0  0
  147.8797  133.7564  155.6837 H   0  0  0  0  0  0  0  0  0  0  0  0
  146.9452  134.0750  154.2385 H   0  0  0  0  0  0  0  0  0  0  0  0
  149.0636  135.2765  153.3259 H   0  0  0  0  0  0  0  0  0  0  0  0
  150.2022  134.0328  155.8377 H   0  0  0  0  0  0  0  0  0  0  0  0
  151.2255  134.1869  154.4309 H   0  0  0  0  0  0  0  0  0  0  0  0
  151.1516  136.8303  153.3602 H   0  0  0  0  0  0  0  0  0  0  0  0
  151.5317  140.1685  159.5586 H   0  0  0  0  0  0  0  0  0  0  0  0
  152.8689  139.6414  158.5558 H   0  0  0  0  0  0  0  0  0  0  0  0
  153.2158  141.9641  159.4039 H   0  0  0  0  0  0  0  0  0  0  0  0
  153.1766  141.9074  157.6557 H   0  0  0  0  0  0  0  0  0  0  0  0
  150.8536  142.7163  159.4774 H   0  0  0  0  0  0  0  0  0  0  0  0
  151.7856  143.7938  158.4598 H   0  0  0  0  0  0  0  0  0  0  0  0
  149.6396  143.1734  157.3820 H   0  0  0  0  0  0  0  0  0  0  0  0
  151.0091  142.6593  156.4377 H   0  0  0  0  0  0  0  0  0  0  0  0
  149.3880  140.9108  158.3387 H   0  0  0  0  0  0  0  0  0  0  0  0
  148.9327  139.5774  156.1310 H   0  0  0  0  0  0  0  0  0  0  0  0
  146.8577  140.2186  156.3785 H   0  0  0  0  0  0  0  0  0  0  0  0
  147.3405  141.4206  157.5488 H   0  0  0  0  0  0  0  0  0  0  0  0
  146.0964  142.1944  155.2759 H   0  0  0  0  0  0  0  0  0  0  0  0
  147.4767  143.1301  155.8506 H   0  0  0  0  0  0  0  0  0  0  0  0
  147.4963  140.9390  153.7487 H   0  0  0  0  0  0  0  0  0  0  0  0
  148.1200  142.5776  153.5659 H   0  0  0  0  0  0  0  0  0  0  0  0
  149.9828  142.1403  154.9786 H   0  0  0  0  0  0  0  0  0  0  0  0
  149.5670  140.4449  153.1451 H   0  0  0  0  0  0  0  0  0  0  0  0
  149.8512  136.4828  159.6586 H   0  0  0  0  0  0  0  0  0  0  0  0
  149.9467  133.4040  152.2640 H   0  0  0  0  0  0  0  0  0  0  0  0
  147.0542  133.2502  152.6861 H   0  0  0  0  0  0  0  0  0  0  0  0
  148.0425  132.9847  151.2632 H   0  0  0  0  0  0  0  0  0  0  0  0
  147.2221  131.0011  153.3741 H   0  0  0  0  0  0  0  0  0  0  0  0
  147.5207  130.7087  151.6565 H   0  0  0  0  0  0  0  0  0  0  0  0
  150.7994  131.8274  153.8038 H   0  0  0  0  0  0  0  0  0  0  0  0
  149.2898  131.7397  154.7164 H   0  0  0  0  0  0  0  0  0  0  0  0
  1  2  1  0  0  0  0
  1 31  1  0  0  0  0
  2  3  1  0  0  0  0
  2 32  1  0  0  0  0
  2 33  1  0  0  0  0
  3  4  1  0  0  0  0
  3 26  1  0  0  0  0
  3 34  1  0  0  0  0
  4  5  1  0  0  0  0
  4 35  1  0  0  0  0
  4 36  1  0  0  0  0
  5 25  1  0  0  0  0
  5  6  1  0  0  0  0
  6  7  2  0  0  0  0
  6 37  1  0  0  0  0
  7  8  1  0  0  0  0
  8 25  2  0  0  0  0
  8  9  1  0  0  0  0
  9 10  1  0  0  0  0
  9 22  2  0  0  0  0
 10 15  1  0  0  0  0
 10 11  1  0  0  0  0
 11 12  1  0  0  0  0
 11 38  1  0  0  0  0
 11 39  1  0  0  0  0
 12 13  1  0  0  0  0
 12 40  1  0  0  0  0
 12 41  1  0  0  0  0
 13 14  1  0  0  0  0
 13 42  1  0  0  0  0
 13 43  1  0  0  0  0
 14 15  1  0  0  0  0
 14 44  1  0  0  0  0
 14 45  1  0  0  0  0
 15 16  1  0  0  0  0
 15 46  1  0  0  0  0
 16 20  1  0  0  0  0
 16 17  1  0  0  0  0
 16 47  1  0  0  0  0
 17 18  1  0  0  0  0
 17 48  1  0  0  0  0
 17 49  1  0  0  0  0
 18 19  1  0  0  0  0
 18 50  1  0  0  0  0
 18 51  1  0  0  0  0
 19 20  1  0  0  0  0
 19 52  1  0  0  0  0
 19 53  1  0  0  0  0
 20 21  1  0  0  0  0
 20 54  1  0  0  0  0
 21 55  1  0  0  0  0
 22 23  1  0  0  0  0
 23 24  2  0  0  0  0
 23 56  1  0  0  0  0
 24 25  1  0  0  0  0
 26 30  1  0  0  0  0
 26 27  1  0  0  0  0
 26 57  1  0  0  0  0
 27 28  1  0  0  0  0
 27 58  1  0  0  0  0
 27 59  1  0  0  0  0
 28 29  1  0  0  0  0
 28 60  1  0  0  0  0
 28 61  1  0  0  0  0
 29 30  1  0  0  0  0
 30 62  1  0  0  0  0
 30 63  1  0  0  0  0
M  END
> <s_m_source_file>
AV-unprocessed.smi

> <i_m_source_file_index>
148

> <i_lp_mmshare_version>
43012

> <i_f3d_flags>
0

> <s_epik_input>
W0NIMl0xT1tDSDJdW0NIMl1bQ0BIXTFbQ0BIXShbQ0gyXVtPSF0pW0NIMl1uKFtjSF1uMiljKGMyMyluW2NIXW5jM040W0NIMl1bQ0gyXVtDSDJdW0NIMl1bQ0BIXTRbQ0BASF01W0NIMl1bQ0gyXVtDSDJdW0NASF01W09IXQ==

> <s_epik_cmdline>
J2VwaWtfcHl0aG9uJywgJy1waCcsICc3LjAnLCAnLXRuJywgJzgnLCAnLW1hJywgJzIwMCcsICctbWV0YWxfYmluZGluZycsICctaW1hZScsICc8aW5maWxlLm1hZT4nLCAnLW9tYWUnLCAnPG91dGZpbGUubWFlPic=

> <r_lp_tautomer_probability>
1

> <r_epik_Ionization_Penalty>
0.00556303

> <r_epik_Ionization_Penalty_Charging>
0

> <r_epik_Ionization_Penalty_Neutral>
0.00556303

> <r_epik_State_Penalty>
0.00401767

> <r_epik_Charging_Adjusted_Penalty>
0.00401767

> <i_epik_Tot_Q>
0

> <i_epik_Tot_abs_Q>
0

> <r_epik_Metal_State_Penalty>
-0

> <b_epik_Metal_Only>
0

> <s_lp_Force_Field>
OPLS_2005

> <r_lp_Energy>
68.8828

> <b_lp_Chiralities_Consistent>
1

> <s_lp_Variant>
AV-unprocessed.smi:148-14

> <Gold.Version>
5.8.1

> <Gold.Id.Protein>
6NUR|6NUR_protein|mol2

> <Gold.PLP.Fitness>
48.3684

> <Gold.PLP.PLP>
-43.0043

> <Gold.PLP.part.hbond>
-3.2614

> <Gold.PLP.part.metal>
0.0000

> <Gold.PLP.part.buried>
-5.3881

> <Gold.PLP.part.nonpolar>
-35.0443

> <Gold.PLP.part.repulsive>
0.1616

> <Gold.PLP.ligand.clash>
0.0000

> <Gold.PLP.ligand.torsion>
1.7652

> <Gold.PLP.Chemscore.Hbond>
1.8487

> <Gold.PLP.Chemscore.CHOScore>
1.0000

> <Gold.PLP.Chemscore.Metal>
0.0000

> <Gold.Chemscore.Hbonds>
donor molecule, donor type, donor heavy atom, donor atom, acceptor molecule, acceptor atom, score
      L1  H    21    55       P1  7957  0.99
      P1  H  7989  7998       L1    21  0.54
      L1  C     6    37       P1  7949  1.00

> <Gold.PLP.Chemscore.Internal.Correction>
0.3483

> <Gold.Rescore>
     Score         DG    S(hbond)    S(metal)    S(lipo)     H(rot)  DE(clash)    DE(int)     intcor
     11.21     -13.00       1.30        0.00      99.68       3.32       0.03       1.76       ----

> <Gold.Chemscore.Fitness>
11.2066

> <Gold.Chemscore.DG>
-12.9962

> <Gold.Chemscore.ZeroCoef>
-5.4800

> <Gold.Chemscore.Hbond>
1.3035

> <Gold.Chemscore.Metal>
0.0000

> <Gold.Chemscore.Lipo>
99.6805

> <Gold.Chemscore.Internal_Hbond>
0.0000

> <Gold.Chemscore.DEClash>
0.0252

> <Gold.Chemscore.DEInternal>
1.7644

> <Gold.Chemscore.Rot>
3.3203

> <Gold.Chemscore.Internal.Correction>
   9.000000E+99

> <Gold.Chemscore.Hbonds>
donor molecule, donor type, donor heavy atom, donor atom, acceptor molecule, acceptor atom, score
      L1  H    21    55       P1  7957  0.88
      P1  H  7989  7998       L1    21  0.05

> <Gold.Chemscore.Hbond.Weighted>
-4.3535

> <Gold.Chemscore.Metal.Weighted>
-0.0000

> <Gold.Chemscore.Lipo.Weighted>
-11.6626

> <Gold.Chemscore.Internal_Hbond.Weighted>
0.0000

> <Gold.Chemscore.DEClash.Weighted>
0.0252

> <Gold.Chemscore.DEInternal.Weighted>
1.7644

> <Gold.Chemscore.Rot.Weighted>
8.5000

> <Gold.Chemscore.Internal.Correction.Weighted>
   9.000000E+99

> <Gold.Protein.RotatedTorsions>
[ 6907 6896 6895 6894 ] final  -86.97 input  -60.11 | X-H torsion
[ 7974 7965 7964 7962 ] final    3.28 input  175.53 | X-H torsion
[ 8008 7997 7996 7995 ] final   79.64 input   59.86 | X-H torsion
[ 10167 10162 10161 10158 ] final   59.77 input  -65.29 | X-H torsion
[ 10718 10713 10712 10709 ] final  148.81 input   66.30 | X-H torsion
[ 10763 10752 10751 10750 ] final  -73.35 input  -60.55 | X-H torsion
[ 11005 11000 10999 10996 ] final  137.24 input  -57.11 | X-H torsion

> <Gold.Protein.ActiveResidues>
 VAL166  LYS551  ARG553  GLY616  TRP617  ASP618  TYR619  PRO620  LYS621  CYS622 
 ASP623  PHE694  ASN695  SER759  ASP760  ASP761  ALA762  ILE779  LEU786  VAL792 
 PHE793  MET794  SER795  GLU796  ALA797  LYS798  CYS799  TRP800  GLU811  SER814 

> <Gold.Protein.RotatedAtoms>
  150.6866  134.2968  159.4689 H   0  0  0  0  0  0  0  0  0  0  0  0  # atno 6907 bound_to 6896
  152.0868  134.9432  160.0582 H   0  0  0  0  0  0  0  0  0  0  0  0  # atno 6908 bound_to 6896
  152.0763  133.4096  159.4518 H   0  0  0  0  0  0  0  0  0  0  0  0  # atno 6909 bound_to 6896
  146.2445  140.0709  142.8362 H   0  0  0  0  0  0  0  0  0  0  0  0  # atno 7974 bound_to 7965
  155.8725  140.3448  155.5831 H   0  0  0  0  0  0  0  0  0  0  0  0  # atno 8008 bound_to 7997
  155.7811  140.0858  157.2077 H   0  0  0  0  0  0  0  0  0  0  0  0  # atno 8009 bound_to 7997
  154.4018  140.1500  156.3041 H   0  0  0  0  0  0  0  0  0  0  0  0  # atno 8010 bound_to 7997
  140.1728  144.4259  150.6653 H   0  0  0  0  0  0  0  0  0  0  0  0  # atno 10167 bound_to 10162
  157.3040  131.0876  151.1368 H   0  0  0  0  0  0  0  0  0  0  0  0  # atno 10718 bound_to 10713
  154.4582  135.5900  153.6238 H   0  0  0  0  0  0  0  0  0  0  0  0  # atno 10763 bound_to 10752
  152.9820  135.6037  154.3519 H   0  0  0  0  0  0  0  0  0  0  0  0  # atno 10764 bound_to 10752
  154.3388  135.2842  155.2412 H   0  0  0  0  0  0  0  0  0  0  0  0  # atno 10765 bound_to 10752
  140.0100  134.9443  157.0258 H   0  0  0  0  0  0  0  0  0  0  0  0  # atno 11005 bound_to 11000
  145.0817  140.9225  143.4821 LP  0  0  0  0  0  0  0  0  0  0  0  0  # atno 17320 bound_to 7965
  145.0863  139.2922  143.5758 LP  0  0  0  0  0  0  0  0  0  0  0  0  # atno 17321 bound_to 7965
  140.6571  143.2241  151.5944 LP  0  0  0  0  0  0  0  0  0  0  0  0  # atno 17342 bound_to 10162
  139.5330  144.2861  152.1190 LP  0  0  0  0  0  0  0  0  0  0  0  0  # atno 17343 bound_to 10162
  157.2716  130.6707  149.6022 LP  0  0  0  0  0  0  0  0  0  0  0  0  # atno 17370 bound_to 10713
  155.9673  130.4477  150.5591 LP  0  0  0  0  0  0  0  0  0  0  0  0  # atno 17371 bound_to 10713
  140.4571  134.1522  155.7187 LP  0  0  0  0  0  0  0  0  0  0  0  0  # atno 17394 bound_to 11000
  141.1704  133.8619  157.1587 LP  0  0  0  0  0  0  0  0  0  0  0  0  # atno 17395 bound_to 11000

$$$$
