AV-unprocessed.smi:861|AV-procd|sdf|3969|dock9
  -GOLD-   22720 1443D 1   1.00000     0.00000
 Structure written by MMmdl.
 44 45  0  0  0  0  0  0  0  0  2 V2000
  152.5229  143.4438  160.4687 C   0  0  0  0  0  0  0  0  0  0  0  0
  152.1242  144.5082  159.4315 C   0  0  0  0  0  0  0  0  0  0  0  0
  151.8936  145.8614  160.1223 C   0  0  0  0  0  0  0  0  0  0  0  0
  150.8858  144.0966  158.6075 C   0  0  0  0  0  0  0  0  0  0  0  0
  151.1505  142.9520  157.6090 C   0  0  0  0  0  0  0  0  0  0  0  0
  149.9253  142.5296  156.8838 N   0  3  2  0  0  0  0  0  0  0  0  0
  148.9577  141.8416  157.7715 C   0  0  0  0  0  0  0  0  0  0  0  0
  147.6839  141.4704  156.9959 C   0  0  0  0  0  0  0  0  0  0  0  0
  148.0293  140.6658  155.8761 O   0  0  0  0  0  0  0  0  0  0  0  0
  148.8762  141.3522  154.9599 C   0  0  2  0  0  0  0  0  0  0  0  0
  149.1150  140.4407  153.7480 C   0  0  0  0  0  0  0  0  0  0  0  0
  149.3879  139.0688  154.1536 N   0  0  0  0  0  0  0  0  0  0  0  0
  150.5998  138.7326  154.7714 C   0  0  0  0  0  0  0  0  0  0  0  0
  150.6920  137.5150  155.4747 C   0  0  0  0  0  0  0  0  0  0  0  0
  151.9220  137.2021  156.0790 C   0  0  0  0  0  0  0  0  0  0  0  0
  152.9674  138.1323  155.9339 C   0  0  0  0  0  0  0  0  0  0  0  0
  152.8231  139.2882  155.2472 N   0  0  0  0  0  0  0  0  0  0  0  0
  151.6517  139.5844  154.6725 N   0  0  0  0  0  0  0  0  0  0  0  0
  150.1934  141.7045  155.6791 C   0  0  0  0  0  0  0  0  0  0  0  0
  151.7069  143.2426  161.1638 H   0  0  0  0  0  0  0  0  0  0  0  0
  153.3814  143.7726  161.0550 H   0  0  0  0  0  0  0  0  0  0  0  0
  152.8017  142.5010  159.9996 H   0  0  0  0  0  0  0  0  0  0  0  0
  152.9614  144.6377  158.7444 H   0  0  0  0  0  0  0  0  0  0  0  0
  151.0600  145.8118  160.8236 H   0  0  0  0  0  0  0  0  0  0  0  0
  151.6719  146.6437  159.3958 H   0  0  0  0  0  0  0  0  0  0  0  0
  152.7777  146.1751  160.6784 H   0  0  0  0  0  0  0  0  0  0  0  0
  150.0746  143.8197  159.2823 H   0  0  0  0  0  0  0  0  0  0  0  0
  150.5365  144.9715  158.0599 H   0  0  0  0  0  0  0  0  0  0  0  0
  151.9270  143.2325  156.8956 H   0  0  0  0  0  0  0  0  0  0  0  0
  151.5320  142.0911  158.1573 H   0  0  0  0  0  0  0  0  0  0  0  0
  149.4175  140.9429  158.1862 H   0  0  0  0  0  0  0  0  0  0  0  0
  148.6982  142.4867  158.6118 H   0  0  0  0  0  0  0  0  0  0  0  0
  147.0026  140.9106  157.6373 H   0  0  0  0  0  0  0  0  0  0  0  0
  147.1509  142.3643  156.6680 H   0  0  0  0  0  0  0  0  0  0  0  0
  148.3909  142.2712  154.6249 H   0  0  0  0  0  0  0  0  0  0  0  0
  148.2279  140.4419  153.1132 H   0  0  0  0  0  0  0  0  0  0  0  0
  149.9425  140.8193  153.1466 H   0  0  0  0  0  0  0  0  0  0  0  0
  148.6617  138.3736  154.0594 H   0  0  0  0  0  0  0  0  0  0  0  0
  149.8509  136.8414  155.5488 H   0  0  0  0  0  0  0  0  0  0  0  0
  152.0594  136.2847  156.6318 H   0  0  0  0  0  0  0  0  0  0  0  0
  153.9358  137.9475  156.3751 H   0  0  0  0  0  0  0  0  0  0  0  0
  150.8418  142.2419  154.9882 H   0  0  0  0  0  0  0  0  0  0  0  0
  150.7205  140.7938  155.9693 H   0  0  0  0  0  0  0  0  0  0  0  0
  149.4698  143.3744  156.5689 H   0  0  0  0  0  0  0  0  0  0  0  0
  1  2  1  0  0  0  0
  1 20  1  0  0  0  0
  1 21  1  0  0  0  0
  1 22  1  0  0  0  0
  2  3  1  0  0  0  0
  2  4  1  0  0  0  0
  2 23  1  0  0  0  0
  3 24  1  0  0  0  0
  3 25  1  0  0  0  0
  3 26  1  0  0  0  0
  4  5  1  0  0  0  0
  4 27  1  0  0  0  0
  4 28  1  0  0  0  0
  5  6  1  0  0  0  0
  5 29  1  0  0  0  0
  5 30  1  0  0  0  0
  6 19  1  0  0  0  0
  6  7  1  0  0  0  0
  6 44  1  0  0  0  0
  7  8  1  0  0  0  0
  7 31  1  0  0  0  0
  7 32  1  0  0  0  0
  8  9  1  0  0  0  0
  8 33  1  0  0  0  0
  8 34  1  0  0  0  0
  9 10  1  0  0  0  0
 10 11  1  0  0  0  0
 10 19  1  0  0  0  0
 10 35  1  0  0  0  0
 11 12  1  0  0  0  0
 11 36  1  0  0  0  0
 11 37  1  0  0  0  0
 12 13  1  0  0  0  0
 12 38  1  0  0  0  0
 13 18  1  0  0  0  0
 13 14  2  0  0  0  0
 14 15  1  0  0  0  0
 14 39  1  0  0  0  0
 15 16  2  0  0  0  0
 15 40  1  0  0  0  0
 16 17  1  0  0  0  0
 16 41  1  0  0  0  0
 17 18  2  0  0  0  0
 19 42  1  0  0  0  0
 19 43  1  0  0  0  0
M  CHG  1   6   1
M  END
> <s_m_source_file>
AV-unprocessed.smi

> <i_m_source_file_index>
861

> <i_lp_mmshare_version>
43012

> <i_f3d_flags>
0

> <s_epik_input>
W0NIM11bQ0hdKFtDSDNdKVtDSDJdW0NIMl1OMVtDSDJdW0NIMl1PW0NASF0oW0NIMl0xKVtDSDJdW05IXWMyW2NIXVtjSF1bY0hdbm4y

> <s_epik_cmdline>
J2VwaWtfcHl0aG9uJywgJy1waCcsICc3LjAnLCAnLXRuJywgJzgnLCAnLW1hJywgJzIwMCcsICctbWV0YWxfYmluZGluZycsICctaW1hZScsICc8aW5maWxlLm1hZT4nLCAnLW9tYWUnLCAnPG91dGZpbGUubWFlPic=

> <r_lp_tautomer_probability>
0.999978

> <r_epik_Ionization_Penalty>
0.114704

> <r_epik_Ionization_Penalty_Charging>
0.0953451

> <r_epik_Ionization_Penalty_Neutral>
0.0193593

> <r_epik_State_Penalty>
0.104983

> <r_epik_Charging_Adjusted_Penalty>
0.200328

> <i_epik_Tot_Q>
1

> <i_epik_Tot_abs_Q>
1

> <r_epik_Metal_State_Penalty>
0.100113

> <b_epik_Metal_Only>
0

> <s_lp_Force_Field>
OPLS_2005

> <r_lp_Energy>
25.0457

> <b_lp_Chiralities_Consistent>
1

> <s_lp_Variant>
AV-unprocessed.smi:861-4

> <Gold.Version>
5.8.1

> <Gold.Id.Protein>
6NUR|6NUR_protein|mol2

> <Gold.PLP.Fitness>
48.6764

> <Gold.PLP.PLP>
-37.3993

> <Gold.PLP.part.hbond>
-3.5028

> <Gold.PLP.part.metal>
0.0000

> <Gold.PLP.part.buried>
-2.3217

> <Gold.PLP.part.nonpolar>
-31.8114

> <Gold.PLP.part.repulsive>
0.1978

> <Gold.PLP.ligand.clash>
0.0000

> <Gold.PLP.ligand.torsion>
0.4115

> <Gold.PLP.Chemscore.Hbond>
4.0000

> <Gold.PLP.Chemscore.CHOScore>
0.0000

> <Gold.PLP.Chemscore.Metal>
0.0000

> <Gold.Chemscore.Hbonds>
donor molecule, donor type, donor heavy atom, donor atom, acceptor molecule, acceptor atom, score
      L1  H     6    44       P1  8028  2.00
      P1  H  7989  7998       L1    18  1.00
      P1  H  7997  8009       L1    17  0.95

> <Gold.PLP.Chemscore.Internal.Correction>
0.1001

> <Gold.Rescore>
     Score         DG    S(hbond)    S(metal)    S(lipo)     H(rot)  DE(clash)    DE(int)     intcor
     18.11     -21.41       2.53        0.00     101.42       1.71       1.46       1.83       ----

> <Gold.Chemscore.Fitness>
18.1098

> <Gold.Chemscore.DG>
-21.4060

> <Gold.Chemscore.ZeroCoef>
-5.4800

> <Gold.Chemscore.Hbond>
2.5283

> <Gold.Chemscore.Metal>
0.0000

> <Gold.Chemscore.Lipo>
101.4190

> <Gold.Chemscore.Internal_Hbond>
0.0000

> <Gold.Chemscore.DEClash>
1.4623

> <Gold.Chemscore.DEInternal>
1.8339

> <Gold.Chemscore.Rot>
1.7127

> <Gold.Chemscore.Internal.Correction>
   9.000000E+99

> <Gold.Chemscore.Hbonds>
donor molecule, donor type, donor heavy atom, donor atom, acceptor molecule, acceptor atom, score
      L1  H     6    44       P1  8028  1.00
      P1  H  7989  7998       L1    18  0.91
      P1  H  7997  8009       L1    17  0.21

> <Gold.Chemscore.Hbond.Weighted>
-8.4444

> <Gold.Chemscore.Metal.Weighted>
-0.0000

> <Gold.Chemscore.Lipo.Weighted>
-11.8660

> <Gold.Chemscore.Internal_Hbond.Weighted>
0.0000

> <Gold.Chemscore.DEClash.Weighted>
1.4623

> <Gold.Chemscore.DEInternal.Weighted>
1.8339

> <Gold.Chemscore.Rot.Weighted>
4.3844

> <Gold.Chemscore.Internal.Correction.Weighted>
   9.000000E+99

> <Gold.Protein.RotatedTorsions>
[ 6907 6896 6895 6894 ] final  -24.99 input  -60.11 | X-H torsion
[ 7974 7965 7964 7962 ] final  -28.93 input  175.53 | X-H torsion
[ 8008 7997 7996 7995 ] final -130.08 input   59.86 | X-H torsion
[ 10167 10162 10161 10158 ] final   62.56 input  -65.29 | X-H torsion
[ 10718 10713 10712 10709 ] final   -7.54 input   66.30 | X-H torsion
[ 10763 10752 10751 10750 ] final  -29.71 input  -60.55 | X-H torsion
[ 11005 11000 10999 10996 ] final  -33.22 input  -57.11 | X-H torsion

> <Gold.Protein.ActiveResidues>
 VAL166  LYS551  ARG553  GLY616  TRP617  ASP618  TYR619  PRO620  LYS621  CYS622 
 ASP623  PHE694  ASN695  SER759  ASP760  ASP761  ALA762  ILE779  LEU786  VAL792 
 PHE793  MET794  SER795  GLU796  ALA797  LYS798  CYS799  TRP800  GLU811  SER814 

> <Gold.Protein.RotatedAtoms>
  151.1816  135.0363  159.8794 H   0  0  0  0  0  0  0  0  0  0  0  0  # atno 6907 bound_to 6896
  152.5444  134.1056  159.8346 H   0  0  0  0  0  0  0  0  0  0  0  0  # atno 6908 bound_to 6896
  151.1174  133.5082  159.2635 H   0  0  0  0  0  0  0  0  0  0  0  0  # atno 6909 bound_to 6896
  146.1253  140.5347  142.8717 H   0  0  0  0  0  0  0  0  0  0  0  0  # atno 7974 bound_to 7965
  155.2898  140.0448  157.3022 H   0  0  0  0  0  0  0  0  0  0  0  0  # atno 8008 bound_to 7997
  154.5548  140.2328  155.8396 H   0  0  0  0  0  0  0  0  0  0  0  0  # atno 8009 bound_to 7997
  156.1997  140.3029  155.9509 H   0  0  0  0  0  0  0  0  0  0  0  0  # atno 8010 bound_to 7997
  140.1425  144.4539  150.6803 H   0  0  0  0  0  0  0  0  0  0  0  0  # atno 10167 bound_to 10162
  156.7157  130.5135  149.5880 H   0  0  0  0  0  0  0  0  0  0  0  0  # atno 10718 bound_to 10713
  153.7691  135.6913  153.4910 H   0  0  0  0  0  0  0  0  0  0  0  0  # atno 10763 bound_to 10752
  153.1886  135.4479  155.0120 H   0  0  0  0  0  0  0  0  0  0  0  0  # atno 10764 bound_to 10752
  154.8124  135.3383  154.7202 H   0  0  0  0  0  0  0  0  0  0  0  0  # atno 10765 bound_to 10752
  140.9617  133.7161  156.1380 H   0  0  0  0  0  0  0  0  0  0  0  0  # atno 11005 bound_to 11000
  144.7636  140.5479  143.6718 LP  0  0  0  0  0  0  0  0  0  0  0  0  # atno 17320 bound_to 7965
  145.5379  139.1475  143.3463 LP  0  0  0  0  0  0  0  0  0  0  0  0  # atno 17321 bound_to 7965
  140.6751  143.2302  151.5526 LP  0  0  0  0  0  0  0  0  0  0  0  0  # atno 17342 bound_to 10162
  139.5465  144.2508  152.1451 LP  0  0  0  0  0  0  0  0  0  0  0  0  # atno 17343 bound_to 10162
  156.1629  130.6386  151.0742 LP  0  0  0  0  0  0  0  0  0  0  0  0  # atno 17370 bound_to 10713
  157.6918  131.0807  150.7085 LP  0  0  0  0  0  0  0  0  0  0  0  0  # atno 17371 bound_to 10713
  140.7458  134.4100  157.5548 LP  0  0  0  0  0  0  0  0  0  0  0  0  # atno 17394 bound_to 11000
  139.8880  134.8867  156.2496 LP  0  0  0  0  0  0  0  0  0  0  0  0  # atno 17395 bound_to 11000

$$$$
