AV-unprocessed.smi:3303|AV-procd|sdf|12666|dock1
  -GOLD-   2272019 03D 1   1.00000     0.00000
 Structure written by MMmdl.
 45 46  0  0  0  0  0  0  0  0  3 V2000
  147.1938  140.0144  153.6723 C   0  0  0  0  0  0  0  0  0  0  0  0
  147.8633  141.2407  154.3183 C   0  0  1  0  0  0  0  0  0  0  0  0
  147.3457  142.5578  153.7039 C   0  0  0  0  0  0  0  0  0  0  0  0
  145.9501  142.8643  154.1159 N   0  3  2  0  0  0  0  0  0  0  0  0
  145.4300  144.0455  153.3846 C   0  0  0  0  0  0  0  0  0  0  0  0
  145.8114  142.9569  155.6006 C   0  0  1  0  0  0  0  0  0  0  0  0
  144.3654  143.2522  156.0449 C   0  0  0  0  0  0  0  0  0  0  0  0
  146.2979  141.6534  156.2722 C   0  0  0  0  0  0  0  0  0  0  0  0
  147.7228  141.2476  155.8551 C   0  0  2  0  0  0  0  0  0  0  0  0
  148.7302  142.1393  156.4780 N   0  3  0  0  0  0  0  0  0  0  0  0
  150.1206  141.6471  156.4045 C   0  0  0  0  0  0  0  0  0  0  0  0
  150.7092  141.4334  157.8054 C   0  0  0  0  0  0  0  0  0  0  0  0
  151.1755  142.7347  158.4296 C   0  0  0  0  0  0  0  0  0  0  0  0
  152.3961  142.8026  159.1347 C   0  0  0  0  0  0  0  0  0  0  0  0
  152.7730  144.0347  159.7040 C   0  0  0  0  0  0  0  0  0  0  0  0
  151.9185  145.1433  159.5487 C   0  0  0  0  0  0  0  0  0  0  0  0
  150.7204  144.9709  158.8275 C   0  0  0  0  0  0  0  0  0  0  0  0
  150.3494  143.7940  158.2780 N   0  0  0  0  0  0  0  0  0  0  0  0
  146.1158  140.0034  153.8340 H   0  0  0  0  0  0  0  0  0  0  0  0
  147.5992  139.0867  154.0773 H   0  0  0  0  0  0  0  0  0  0  0  0
  147.3644  139.9987  152.5954 H   0  0  0  0  0  0  0  0  0  0  0  0
  148.9251  141.1597  154.0797 H   0  0  0  0  0  0  0  0  0  0  0  0
  147.9925  143.3859  153.9982 H   0  0  0  0  0  0  0  0  0  0  0  0
  147.4048  142.4957  152.6162 H   0  0  0  0  0  0  0  0  0  0  0  0
  145.9084  144.9631  153.7294 H   0  0  0  0  0  0  0  0  0  0  0  0
  144.3523  144.1488  153.5056 H   0  0  0  0  0  0  0  0  0  0  0  0
  145.6139  143.9500  152.3139 H   0  0  0  0  0  0  0  0  0  0  0  0
  146.4404  143.7793  155.9451 H   0  0  0  0  0  0  0  0  0  0  0  0
  144.2762  143.2136  157.1311 H   0  0  0  0  0  0  0  0  0  0  0  0
  143.6651  142.5249  155.6320 H   0  0  0  0  0  0  0  0  0  0  0  0
  144.0383  144.2472  155.7437 H   0  0  0  0  0  0  0  0  0  0  0  0
  146.2476  141.7486  157.3580 H   0  0  0  0  0  0  0  0  0  0  0  0
  145.6105  140.8453  156.0181 H   0  0  0  0  0  0  0  0  0  0  0  0
  147.8977  140.2340  156.2209 H   0  0  0  0  0  0  0  0  0  0  0  0
  148.6890  143.0394  156.0215 H   0  0  0  0  0  0  0  0  0  0  0  0
  150.1356  140.7101  155.8457 H   0  0  0  0  0  0  0  0  0  0  0  0
  150.7288  142.3652  155.8522 H   0  0  0  0  0  0  0  0  0  0  0  0
  149.9673  140.9682  158.4561 H   0  0  0  0  0  0  0  0  0  0  0  0
  151.5527  140.7429  157.7578 H   0  0  0  0  0  0  0  0  0  0  0  0
  153.0301  141.9344  159.2401 H   0  0  0  0  0  0  0  0  0  0  0  0
  153.6997  144.1274  160.2512 H   0  0  0  0  0  0  0  0  0  0  0  0
  152.1747  146.1032  159.9722 H   0  0  0  0  0  0  0  0  0  0  0  0
  150.0411  145.7991  158.6896 H   0  0  0  0  0  0  0  0  0  0  0  0
  148.4934  142.2623  157.4524 H   0  0  0  0  0  0  0  0  0  0  0  0
  145.3868  142.0795  153.8193 H   0  0  0  0  0  0  0  0  0  0  0  0
  1  2  1  0  0  0  0
  1 19  1  0  0  0  0
  1 20  1  0  0  0  0
  1 21  1  0  0  0  0
  2  9  1  0  0  0  0
  2  3  1  0  0  0  0
  2 22  1  0  0  0  0
  3  4  1  0  0  0  0
  3 23  1  0  0  0  0
  3 24  1  0  0  0  0
  4  5  1  0  0  0  0
  4  6  1  0  0  0  0
  4 45  1  0  0  0  0
  5 25  1  0  0  0  0
  5 26  1  0  0  0  0
  5 27  1  0  0  0  0
  6  7  1  0  0  0  0
  6  8  1  0  0  0  0
  6 28  1  0  0  0  0
  7 29  1  0  0  0  0
  7 30  1  0  0  0  0
  7 31  1  0  0  0  0
  8  9  1  0  0  0  0
  8 32  1  0  0  0  0
  8 33  1  0  0  0  0
  9 10  1  0  0  0  0
  9 34  1  0  0  0  0
 10 11  1  0  0  0  0
 10 35  1  0  0  0  0
 10 44  1  0  0  0  0
 11 12  1  0  0  0  0
 11 36  1  0  0  0  0
 11 37  1  0  0  0  0
 12 13  1  0  0  0  0
 12 38  1  0  0  0  0
 12 39  1  0  0  0  0
 13 18  1  0  0  0  0
 13 14  2  0  0  0  0
 14 15  1  0  0  0  0
 14 40  1  0  0  0  0
 15 16  2  0  0  0  0
 15 41  1  0  0  0  0
 16 17  1  0  0  0  0
 16 42  1  0  0  0  0
 17 18  2  0  0  0  0
 17 43  1  0  0  0  0
M  CHG  1   4   1
M  CHG  1  10   1
M  END
> <s_m_source_file>
AV-unprocessed.smi

> <i_m_source_file_index>
3303

> <i_lp_mmshare_version>
43012

> <i_f3d_flags>
0

> <s_epik_input>
W0NIM11bQ0BASF0xW0NIMl1OKFtDSDNdKVtDQEBIXShbQ0gzXSlbQ0gyXVtDQEhdMVtOSF1bQ0gyXVtDSDJdYzJbY0hdW2NIXVtjSF1bY0hdbjI=

> <s_epik_cmdline>
J2VwaWtfcHl0aG9uJywgJy1waCcsICc3LjAnLCAnLXRuJywgJzgnLCAnLW1hJywgJzIwMCcsICctbWV0YWxfYmluZGluZycsICctaW1hZScsICc8aW5maWxlLm1hZT4nLCAnLW9tYWUnLCAnPG91dGZpbGUubWFlPic=

> <r_epik_Ionization_Penalty>
0.0769462

> <r_epik_Ionization_Penalty_Charging>
0.0759813

> <r_epik_Ionization_Penalty_Neutral>
0.000964829

> <r_epik_State_Penalty>
0.0654373

> <r_epik_Charging_Adjusted_Penalty>
0.141419

> <i_epik_Tot_Q>
2

> <i_epik_Tot_abs_Q>
2

> <r_epik_Metal_State_Penalty>
0.0656439

> <b_epik_Metal_Only>
0

> <s_lp_Force_Field>
OPLS_2005

> <r_lp_Energy>
35.1377

> <b_lp_Chiralities_Consistent>
1

> <s_lp_Variant>
AV-unprocessed.smi:3303-10

> <Gold.Version>
5.8.1

> <Gold.Id.Protein>
6NUR|6NUR_protein|mol2

> <Gold.PLP.Fitness>
43.7359

> <Gold.PLP.PLP>
-36.3377

> <Gold.PLP.part.hbond>
-1.0000

> <Gold.PLP.part.metal>
0.0000

> <Gold.PLP.part.buried>
-6.2398

> <Gold.PLP.part.nonpolar>
-29.9591

> <Gold.PLP.part.repulsive>
0.4841

> <Gold.PLP.ligand.clash>
0.0000

> <Gold.PLP.ligand.torsion>
0.7766

> <Gold.PLP.Chemscore.Hbond>
2.0000

> <Gold.PLP.Chemscore.CHOScore>
0.9750

> <Gold.PLP.Chemscore.Metal>
0.0000

> <Gold.Chemscore.Hbonds>
donor molecule, donor type, donor heavy atom, donor atom, acceptor molecule, acceptor atom, score
      L1  H    10    35       P1  8028  2.00
      L1  C    17    43       P1  8029  0.94

> <Gold.PLP.Chemscore.Internal.Correction>
0.0263

> <Gold.Rescore>
     Score         DG    S(hbond)    S(metal)    S(lipo)     H(rot)  DE(clash)    DE(int)     intcor
     15.89     -17.86       0.98        0.00     107.88       1.37       0.03       1.94       ----

> <Gold.Chemscore.Fitness>
15.8885

> <Gold.Chemscore.DG>
-17.8621

> <Gold.Chemscore.ZeroCoef>
-5.4800

> <Gold.Chemscore.Hbond>
0.9817

> <Gold.Chemscore.Metal>
0.0000

> <Gold.Chemscore.Lipo>
107.8778

> <Gold.Chemscore.Internal_Hbond>
0.0000

> <Gold.Chemscore.DEClash>
0.0333

> <Gold.Chemscore.DEInternal>
1.9403

> <Gold.Chemscore.Rot>
1.3744

> <Gold.Chemscore.Internal.Correction>
   9.000000E+99

> <Gold.Chemscore.Hbonds>
donor molecule, donor type, donor heavy atom, donor atom, acceptor molecule, acceptor atom, score
      L1  H    10    35       P1  8028  0.99

> <Gold.Chemscore.Hbond.Weighted>
-3.2788

> <Gold.Chemscore.Metal.Weighted>
-0.0000

> <Gold.Chemscore.Lipo.Weighted>
-12.6217

> <Gold.Chemscore.Internal_Hbond.Weighted>
0.0000

> <Gold.Chemscore.DEClash.Weighted>
0.0333

> <Gold.Chemscore.DEInternal.Weighted>
1.9403

> <Gold.Chemscore.Rot.Weighted>
3.5185

> <Gold.Chemscore.Internal.Correction.Weighted>
   9.000000E+99

> <Gold.Protein.RotatedTorsions>
[ 6907 6896 6895 6894 ] final   69.65 input  -60.11 | X-H torsion
[ 7974 7965 7964 7962 ] final -159.36 input  175.53 | X-H torsion
[ 8008 7997 7996 7995 ] final   97.13 input   59.86 | X-H torsion
[ 10167 10162 10161 10158 ] final   22.52 input  -65.29 | X-H torsion
[ 10718 10713 10712 10709 ] final  106.34 input   66.30 | X-H torsion
[ 10763 10752 10751 10750 ] final  -93.68 input  -60.55 | X-H torsion
[ 11005 11000 10999 10996 ] final    9.19 input  -57.11 | X-H torsion

> <Gold.Protein.ActiveResidues>
 VAL166  LYS551  ARG553  GLY616  TRP617  ASP618  TYR619  PRO620  LYS621  CYS622 
 ASP623  PHE694  ASN695  SER759  ASP760  ASP761  ALA762  ILE779  LEU786  VAL792 
 PHE793  MET794  SER795  GLU796  ALA797  LYS798  CYS799  TRP800  GLU811  SER814 

> <Gold.Protein.RotatedAtoms>
  152.4700  134.4984  159.9716 H   0  0  0  0  0  0  0  0  0  0  0  0  # atno 6907 bound_to 6896
  151.5013  133.3498  159.2877 H   0  0  0  0  0  0  0  0  0  0  0  0  # atno 6908 bound_to 6896
  150.8704  134.8104  159.7212 H   0  0  0  0  0  0  0  0  0  0  0  0  # atno 6909 bound_to 6896
  144.7468  140.3696  143.6078 H   0  0  0  0  0  0  0  0  0  0  0  0  # atno 7974 bound_to 7965
  156.0869  140.3263  155.7765 H   0  0  0  0  0  0  0  0  0  0  0  0  # atno 8008 bound_to 7997
  155.5061  140.0573  157.2948 H   0  0  0  0  0  0  0  0  0  0  0  0  # atno 8009 bound_to 7997
  154.4614  140.1968  156.0250 H   0  0  0  0  0  0  0  0  0  0  0  0  # atno 8010 bound_to 7997
  140.5342  143.9789  150.6482 H   0  0  0  0  0  0  0  0  0  0  0  0  # atno 10167 bound_to 10162
  157.6672  131.0848  150.5993 H   0  0  0  0  0  0  0  0  0  0  0  0  # atno 10718 bound_to 10713
  154.6982  135.5185  153.8489 H   0  0  0  0  0  0  0  0  0  0  0  0  # atno 10763 bound_to 10752
  153.0683  135.6592  154.0313 H   0  0  0  0  0  0  0  0  0  0  0  0  # atno 10764 bound_to 10752
  154.0176  135.2996  155.3364 H   0  0  0  0  0  0  0  0  0  0  0  0  # atno 10765 bound_to 10752
  140.5286  134.0489  155.7866 H   0  0  0  0  0  0  0  0  0  0  0  0  # atno 11005 bound_to 11000
  145.7091  139.1680  143.2549 LP  0  0  0  0  0  0  0  0  0  0  0  0  # atno 17320 bound_to 7965
  146.1360  140.7122  142.9390 LP  0  0  0  0  0  0  0  0  0  0  0  0  # atno 17321 bound_to 7965
  140.3172  143.3160  152.0820 LP  0  0  0  0  0  0  0  0  0  0  0  0  # atno 17342 bound_to 10162
  139.4965  144.6598  151.6491 LP  0  0  0  0  0  0  0  0  0  0  0  0  # atno 17343 bound_to 10162
  156.6293  130.4427  149.5792 LP  0  0  0  0  0  0  0  0  0  0  0  0  # atno 17370 bound_to 10713
  156.2294  130.6785  151.1448 LP  0  0  0  0  0  0  0  0  0  0  0  0  # atno 17371 bound_to 10713
  141.1294  133.9327  157.2567 LP  0  0  0  0  0  0  0  0  0  0  0  0  # atno 17394 bound_to 11000
  139.9567  135.0164  156.9147 LP  0  0  0  0  0  0  0  0  0  0  0  0  # atno 17395 bound_to 11000

$$$$
