AV-unprocessed.smi:1586|AV-procd|sdf|6374|dock1
  -GOLD-   22720 7 03D 1   1.00000     0.00000
 Structure written by MMmdl.
 47 48  0  0  0  0  0  0  0  0  2 V2000
  151.6876  138.7928  154.6452 C   0  0  0  0  0  0  0  0  0  0  0  0
  150.2830  138.2506  154.3448 C   0  0  0  0  0  0  0  0  0  0  0  0
  149.3223  139.3233  153.9861 N   0  3  0  0  0  0  0  0  0  0  0  0
  149.5593  140.5707  154.7518 C   0  0  0  0  0  0  0  0  0  0  0  0
  148.5761  141.6736  154.3070 C   0  0  0  0  0  0  0  0  0  0  0  0
  147.1769  141.2709  154.5044 N   0  0  0  0  0  0  0  0  0  0  0  0
  146.7452  141.1527  155.9148 C   0  0  1  0  0  0  0  0  0  0  0  0
  147.5792  142.0662  156.8397 C   0  0  0  0  0  0  0  0  0  0  0  0
  145.2405  141.4718  156.0921 C   0  0  0  0  0  0  0  0  0  0  0  0
  144.4044  140.6345  155.2390 N   0  0  0  0  0  0  0  0  0  0  0  0
  143.4157  139.8471  155.6805 C   0  0  0  0  0  0  0  0  0  0  0  0
  143.1158  139.7412  156.8696 O   0  0  0  0  0  0  0  0  0  0  0  0
  142.8184  139.2033  154.6637 N   0  0  0  0  0  0  0  0  0  0  0  0
  141.7185  138.3090  154.7104 C   0  0  0  0  0  0  0  0  0  0  0  0
  140.4510  138.4965  154.0861 C   0  0  0  0  0  0  0  0  0  0  0  0
  139.7706  137.3622  154.4290 C   0  0  0  0  0  0  0  0  0  0  0  0
  138.3945  136.8750  154.1293 C   0  0  0  0  0  0  0  0  0  0  0  0
  140.5531  136.5520  155.1913 O   0  0  0  0  0  0  0  0  0  0  0  0
  141.7992  137.1652  155.3647 N   0  0  0  0  0  0  0  0  0  0  0  0
  146.9661  140.0705  153.6830 C   0  0  0  0  0  0  0  0  0  0  0  0
  147.8996  138.9122  154.0965 C   0  0  0  0  0  0  0  0  0  0  0  0
  152.3390  137.9919  154.9957 H   0  0  0  0  0  0  0  0  0  0  0  0
  151.6581  139.5566  155.4229 H   0  0  0  0  0  0  0  0  0  0  0  0
  152.1569  139.2264  153.7625 H   0  0  0  0  0  0  0  0  0  0  0  0
  150.3212  137.5003  153.5534 H   0  0  0  0  0  0  0  0  0  0  0  0
  149.9251  137.7382  155.2390 H   0  0  0  0  0  0  0  0  0  0  0  0
  149.4807  140.3779  155.8226 H   0  0  0  0  0  0  0  0  0  0  0  0
  150.5791  140.9126  154.5719 H   0  0  0  0  0  0  0  0  0  0  0  0
  148.7930  142.6109  154.8167 H   0  0  0  0  0  0  0  0  0  0  0  0
  148.7301  141.8863  153.2481 H   0  0  0  0  0  0  0  0  0  0  0  0
  146.8966  140.1288  156.2537 H   0  0  0  0  0  0  0  0  0  0  0  0
  147.1639  142.0829  157.8477 H   0  0  0  0  0  0  0  0  0  0  0  0
  147.6016  143.0952  156.4787 H   0  0  0  0  0  0  0  0  0  0  0  0
  148.6069  141.7190  156.9413 H   0  0  0  0  0  0  0  0  0  0  0  0
  144.9260  141.3696  157.1306 H   0  0  0  0  0  0  0  0  0  0  0  0
  145.0651  142.5196  155.8420 H   0  0  0  0  0  0  0  0  0  0  0  0
  144.5923  140.6628  154.2474 H   0  0  0  0  0  0  0  0  0  0  0  0
  143.1941  139.3743  153.7426 H   0  0  0  0  0  0  0  0  0  0  0  0
  140.0865  139.3152  153.4846 H   0  0  0  0  0  0  0  0  0  0  0  0
  137.7817  137.6719  153.7077 H   0  0  0  0  0  0  0  0  0  0  0  0
  137.9047  136.5156  155.0345 H   0  0  0  0  0  0  0  0  0  0  0  0
  138.4237  136.0554  153.4114 H   0  0  0  0  0  0  0  0  0  0  0  0
  145.9256  139.7519  153.7088 H   0  0  0  0  0  0  0  0  0  0  0  0
  147.1563  140.3283  152.6400 H   0  0  0  0  0  0  0  0  0  0  0  0
  147.7105  138.0645  153.4391 H   0  0  0  0  0  0  0  0  0  0  0  0
  147.6805  138.5722  155.1093 H   0  0  0  0  0  0  0  0  0  0  0  0
  149.4881  139.5534  153.0166 H   0  0  0  0  0  0  0  0  0  0  0  0
  1  2  1  0  0  0  0
  1 22  1  0  0  0  0
  1 23  1  0  0  0  0
  1 24  1  0  0  0  0
  2  3  1  0  0  0  0
  2 25  1  0  0  0  0
  2 26  1  0  0  0  0
  3 21  1  0  0  0  0
  3  4  1  0  0  0  0
  3 47  1  0  0  0  0
  4  5  1  0  0  0  0
  4 27  1  0  0  0  0
  4 28  1  0  0  0  0
  5  6  1  0  0  0  0
  5 29  1  0  0  0  0
  5 30  1  0  0  0  0
  6  7  1  0  0  0  0
  6 20  1  0  0  0  0
  7  8  1  0  0  0  0
  7  9  1  0  0  0  0
  7 31  1  0  0  0  0
  8 32  1  0  0  0  0
  8 33  1  0  0  0  0
  8 34  1  0  0  0  0
  9 10  1  0  0  0  0
  9 35  1  0  0  0  0
  9 36  1  0  0  0  0
 10 11  1  0  0  0  0
 10 37  1  0  0  0  0
 11 12  2  0  0  0  0
 11 13  1  0  0  0  0
 13 14  1  0  0  0  0
 13 38  1  0  0  0  0
 14 19  2  0  0  0  0
 14 15  1  0  0  0  0
 15 16  2  0  0  0  0
 15 39  1  0  0  0  0
 16 17  1  0  0  0  0
 16 18  1  0  0  0  0
 17 40  1  0  0  0  0
 17 41  1  0  0  0  0
 17 42  1  0  0  0  0
 18 19  1  0  0  0  0
 20 21  1  0  0  0  0
 20 43  1  0  0  0  0
 20 44  1  0  0  0  0
 21 45  1  0  0  0  0
 21 46  1  0  0  0  0
M  CHG  1   3   1
M  END
> <s_m_source_file>
AV-unprocessed.smi

> <i_m_source_file_index>
1586

> <i_lp_mmshare_version>
43012

> <i_f3d_flags>
0

> <s_epik_input>
W0NIM11bQ0gyXU4xW0NIMl1bQ0gyXU4oW0NIMl1bQ0gyXTEpW0NASF0oW0NIM10pW0NIMl1bTkhdQyg9TylbTkhdYzJbY0hdYyhbQ0gzXSlvbjI=

> <s_epik_cmdline>
J2VwaWtfcHl0aG9uJywgJy1waCcsICc3LjAnLCAnLXRuJywgJzgnLCAnLW1hJywgJzIwMCcsICctbWV0YWxfYmluZGluZycsICctaW1hZScsICc8aW5maWxlLm1hZT4nLCAnLW9tYWUnLCAnPG91dGZpbGUubWFlPic=

> <r_epik_Ionization_Penalty>
0.0459786

> <r_epik_Ionization_Penalty_Charging>
0.0453654

> <r_epik_Ionization_Penalty_Neutral>
0.000613264

> <r_epik_State_Penalty>
0.163057

> <r_epik_Charging_Adjusted_Penalty>
0.208422

> <i_epik_Tot_Q>
1

> <i_epik_Tot_abs_Q>
1

> <r_epik_Metal_State_Penalty>
0.17399

> <b_epik_Metal_Only>
0

> <s_lp_Force_Field>
OPLS_2005

> <r_lp_Energy>
25.6668

> <b_lp_Chiralities_Consistent>
1

> <s_lp_Variant>
AV-unprocessed.smi:1586-2

> <Gold.Version>
5.8.1

> <Gold.Id.Protein>
6NUR|6NUR_protein|mol2

> <Gold.PLP.Fitness>
36.6003

> <Gold.PLP.PLP>
-29.1596

> <Gold.PLP.part.hbond>
-4.0000

> <Gold.PLP.part.metal>
0.0000

> <Gold.PLP.part.buried>
-4.2329

> <Gold.PLP.part.nonpolar>
-22.3260

> <Gold.PLP.part.repulsive>
0.2799

> <Gold.PLP.ligand.clash>
0.0000

> <Gold.PLP.ligand.torsion>
1.5309

> <Gold.PLP.Chemscore.Hbond>
3.4497

> <Gold.PLP.Chemscore.CHOScore>
0.0000

> <Gold.PLP.Chemscore.Metal>
0.0000

> <Gold.Chemscore.Hbonds>
donor molecule, donor type, donor heavy atom, donor atom, acceptor molecule, acceptor atom, score
      L1  H     3    47       P1  7957  1.00
      L1  H    10    37       P1 10175  0.82
      L1  H    13    38       P1 10175  1.00
      P1  H 11000 11005       L1    18  0.69

> <Gold.PLP.Chemscore.Internal.Correction>
0.1534

> <Gold.Rescore>
     Score         DG    S(hbond)    S(metal)    S(lipo)     H(rot)  DE(clash)    DE(int)     intcor
     19.02     -20.71       3.60        0.00      66.15       1.76       0.01       1.68       ----

> <Gold.Chemscore.Fitness>
19.0208

> <Gold.Chemscore.DG>
-20.7138

> <Gold.Chemscore.ZeroCoef>
-5.4800

> <Gold.Chemscore.Hbond>
3.5957

> <Gold.Chemscore.Metal>
0.0000

> <Gold.Chemscore.Lipo>
66.1479

> <Gold.Chemscore.Internal_Hbond>
0.0000

> <Gold.Chemscore.DEClash>
0.0109

> <Gold.Chemscore.DEInternal>
1.6821

> <Gold.Chemscore.Rot>
1.7637

> <Gold.Chemscore.Internal.Correction>
   9.000000E+99

> <Gold.Chemscore.Hbonds>
donor molecule, donor type, donor heavy atom, donor atom, acceptor molecule, acceptor atom, score
      L1  H     3    47       P1  7957  1.00
      L1  H    10    37       P1 10175  0.79
      L1  H    13    38       P1 10175  0.94
      P1  H 11000 11005       L1    18  0.66

> <Gold.Chemscore.Hbond.Weighted>
-12.0095

> <Gold.Chemscore.Metal.Weighted>
-0.0000

> <Gold.Chemscore.Lipo.Weighted>
-7.7393

> <Gold.Chemscore.Internal_Hbond.Weighted>
0.0000

> <Gold.Chemscore.DEClash.Weighted>
0.0109

> <Gold.Chemscore.DEInternal.Weighted>
1.6821

> <Gold.Chemscore.Rot.Weighted>
4.5150

> <Gold.Chemscore.Internal.Correction.Weighted>
   9.000000E+99

> <Gold.Protein.RotatedTorsions>
[ 6907 6896 6895 6894 ] final  -89.30 input  -60.11 | X-H torsion
[ 7974 7965 7964 7962 ] final  107.11 input  175.53 | X-H torsion
[ 8008 7997 7996 7995 ] final  -50.79 input   59.86 | X-H torsion
[ 10167 10162 10161 10158 ] final  175.24 input  -65.29 | X-H torsion
[ 10718 10713 10712 10709 ] final  -34.99 input   66.30 | X-H torsion
[ 10763 10752 10751 10750 ] final  164.33 input  -60.55 | X-H torsion
[ 11005 11000 10999 10996 ] final   72.15 input  -57.11 | X-H torsion

> <Gold.Protein.ActiveResidues>
 VAL166  LYS551  ARG553  GLY616  TRP617  ASP618  TYR619  PRO620  LYS621  CYS622 
 ASP623  PHE694  ASN695  SER759  ASP760  ASP761  ALA762  ILE779  LEU786  VAL792 
 PHE793  MET794  SER795  GLU796  ALA797  LYS798  CYS799  TRP800  GLU811  SER814 

> <Gold.Protein.RotatedAtoms>
  150.6873  134.2608  159.4548 H   0  0  0  0  0  0  0  0  0  0  0  0  # atno 6907 bound_to 6896
  152.0538  134.9634  160.0584 H   0  0  0  0  0  0  0  0  0  0  0  0  # atno 6908 bound_to 6896
  152.1088  133.4254  159.4658 H   0  0  0  0  0  0  0  0  0  0  0  0  # atno 6909 bound_to 6896
  145.2978  139.2579  143.3830 H   0  0  0  0  0  0  0  0  0  0  0  0  # atno 7974 bound_to 7965
  154.4069  140.1264  156.4723 H   0  0  0  0  0  0  0  0  0  0  0  0  # atno 8008 bound_to 7997
  155.7167  140.3493  155.4978 H   0  0  0  0  0  0  0  0  0  0  0  0  # atno 8009 bound_to 7997
  155.9251  140.1059  157.1166 H   0  0  0  0  0  0  0  0  0  0  0  0  # atno 8010 bound_to 7997
  139.5170  144.3054  152.0341 H   0  0  0  0  0  0  0  0  0  0  0  0  # atno 10167 bound_to 10162
  156.3439  130.4298  149.7763 H   0  0  0  0  0  0  0  0  0  0  0  0  # atno 10718 bound_to 10713
  154.3072  135.2758  155.2583 H   0  0  0  0  0  0  0  0  0  0  0  0  # atno 10763 bound_to 10752
  154.4994  135.5812  153.6523 H   0  0  0  0  0  0  0  0  0  0  0  0  # atno 10764 bound_to 10752
  152.9892  135.6154  154.3247 H   0  0  0  0  0  0  0  0  0  0  0  0  # atno 10765 bound_to 10752
  139.9506  134.7234  156.0873 H   0  0  0  0  0  0  0  0  0  0  0  0  # atno 11005 bound_to 11000
  146.3162  140.3485  142.8654 LP  0  0  0  0  0  0  0  0  0  0  0  0  # atno 17320 bound_to 7965
  144.9119  140.7767  143.5802 LP  0  0  0  0  0  0  0  0  0  0  0  0  # atno 17321 bound_to 7965
  140.2500  144.4179  150.6225 LP  0  0  0  0  0  0  0  0  0  0  0  0  # atno 17342 bound_to 10162
  140.6231  143.2178  151.6652 LP  0  0  0  0  0  0  0  0  0  0  0  0  # atno 17343 bound_to 10162
  156.4988  130.8119  151.3124 LP  0  0  0  0  0  0  0  0  0  0  0  0  # atno 17370 bound_to 10713
  157.7451  130.9951  150.2732 LP  0  0  0  0  0  0  0  0  0  0  0  0  # atno 17371 bound_to 10713
  141.1167  133.6625  156.3112 LP  0  0  0  0  0  0  0  0  0  0  0  0  # atno 17394 bound_to 11000
  140.5729  134.5822  157.5462 LP  0  0  0  0  0  0  0  0  0  0  0  0  # atno 17395 bound_to 11000

$$$$
