AV-unprocessed.smi:3328|AV-procd|sdf|12794|dock5
  -GOLD-   2272019143D 1   1.00000     0.00000
 Structure written by MMmdl.
 40 41  0  0  0  0  0  0  0  0  1 V2000
  153.5439  141.8405  161.1402 C   0  0  0  0  0  0  0  0  0  0  0  0
  152.7180  142.2882  159.9690 C   0  0  0  0  0  0  0  0  0  0  0  0
  152.7925  143.5268  159.2713 C   0  0  0  0  0  0  0  0  0  0  0  0
  151.9227  143.6104  158.2790 N   0  0  0  0  0  0  0  0  0  0  0  0
  151.2579  142.4356  158.3098 N   0  0  0  0  0  0  0  0  0  0  0  0
  150.2074  142.1727  157.3380 C   0  0  0  0  0  0  0  0  0  0  0  0
  150.7308  141.8091  155.9244 C   0  0  1  0  0  0  0  0  0  0  0  0
  151.2409  140.3619  155.8326 C   0  0  0  0  0  0  0  0  0  0  0  0
  149.7076  141.9793  154.8989 N   0  0  0  0  0  0  0  0  0  0  0  0
  148.6681  140.9617  154.9677 C   0  0  0  0  0  0  0  0  0  0  0  0
  147.6728  141.1568  153.8112 C   0  0  0  0  0  0  0  0  0  0  0  0
  146.9473  139.9256  153.4996 N   0  0  0  0  0  0  0  0  0  0  0  0
  146.8869  139.4280  152.1355 C   0  0  0  0  0  0  0  0  0  0  0  0
  146.1671  138.0744  152.2270 C   0  0  0  0  0  0  0  0  0  0  0  0
  145.6524  137.9619  153.6666 C   0  0  0  0  0  0  0  0  0  0  0  0
  146.2697  139.1616  154.3641 C   0  0  0  0  0  0  0  0  0  0  0  0
  146.1415  139.3695  155.5698 O   0  0  0  0  0  0  0  0  0  0  0  0
  151.7247  141.6152  159.3151 C   0  0  0  0  0  0  0  0  0  0  0  0
  153.7818  142.6706  161.8058 H   0  0  0  0  0  0  0  0  0  0  0  0
  154.4897  141.4031  160.8203 H   0  0  0  0  0  0  0  0  0  0  0  0
  153.0267  141.0890  161.7373 H   0  0  0  0  0  0  0  0  0  0  0  0
  153.4511  144.3626  159.4549 H   0  0  0  0  0  0  0  0  0  0  0  0
  149.5513  141.3969  157.7327 H   0  0  0  0  0  0  0  0  0  0  0  0
  149.5876  143.0675  157.2702 H   0  0  0  0  0  0  0  0  0  0  0  0
  151.5680  142.4662  155.6846 H   0  0  0  0  0  0  0  0  0  0  0  0
  152.0054  140.1697  156.5856 H   0  0  0  0  0  0  0  0  0  0  0  0
  151.6872  140.1650  154.8572 H   0  0  0  0  0  0  0  0  0  0  0  0
  150.4393  139.6371  155.9791 H   0  0  0  0  0  0  0  0  0  0  0  0
  149.2817  142.8903  154.9919 H   0  0  0  0  0  0  0  0  0  0  0  0
  149.0898  139.9584  154.9288 H   0  0  0  0  0  0  0  0  0  0  0  0
  148.1489  141.0536  155.9221 H   0  0  0  0  0  0  0  0  0  0  0  0
  146.9489  141.9269  154.0817 H   0  0  0  0  0  0  0  0  0  0  0  0
  148.1870  141.5246  152.9219 H   0  0  0  0  0  0  0  0  0  0  0  0
  146.3288  140.1294  151.5142 H   0  0  0  0  0  0  0  0  0  0  0  0
  147.8880  139.3199  151.7159 H   0  0  0  0  0  0  0  0  0  0  0  0
  145.3528  138.0084  151.5046 H   0  0  0  0  0  0  0  0  0  0  0  0
  146.8615  137.2621  152.0103 H   0  0  0  0  0  0  0  0  0  0  0  0
  144.5649  138.0288  153.7106 H   0  0  0  0  0  0  0  0  0  0  0  0
  145.9665  137.0316  154.1408 H   0  0  0  0  0  0  0  0  0  0  0  0
  151.3117  140.6314  159.4829 H   0  0  0  0  0  0  0  0  0  0  0  0
  1  2  1  0  0  0  0
  1 19  1  0  0  0  0
  1 20  1  0  0  0  0
  1 21  1  0  0  0  0
  2 18  2  0  0  0  0
  2  3  1  0  0  0  0
  3  4  2  0  0  0  0
  3 22  1  0  0  0  0
  4  5  1  0  0  0  0
  5  6  1  0  0  0  0
  5 18  1  0  0  0  0
  6  7  1  0  0  0  0
  6 23  1  0  0  0  0
  6 24  1  0  0  0  0
  7  8  1  0  0  0  0
  7  9  1  0  0  0  0
  7 25  1  0  0  0  0
  8 26  1  0  0  0  0
  8 27  1  0  0  0  0
  8 28  1  0  0  0  0
  9 10  1  0  0  0  0
  9 29  1  0  0  0  0
 10 11  1  0  0  0  0
 10 30  1  0  0  0  0
 10 31  1  0  0  0  0
 11 12  1  0  0  0  0
 11 32  1  0  0  0  0
 11 33  1  0  0  0  0
 12 16  1  0  0  0  0
 12 13  1  0  0  0  0
 13 14  1  0  0  0  0
 13 34  1  0  0  0  0
 13 35  1  0  0  0  0
 14 15  1  0  0  0  0
 14 36  1  0  0  0  0
 14 37  1  0  0  0  0
 15 16  1  0  0  0  0
 15 38  1  0  0  0  0
 15 39  1  0  0  0  0
 16 17  2  0  0  0  0
 18 40  1  0  0  0  0
M  END
> <s_m_source_file>
AV-unprocessed.smi

> <i_m_source_file_index>
3328

> <i_lp_mmshare_version>
43012

> <i_f3d_flags>
0

> <s_epik_input>
W0NIM11jMVtjSF1ubihbY0hdMSlbQ0gyXVtDQEhdKFtDSDNdKVtOSF1bQ0gyXVtDSDJdTjJbQ0gyXVtDSDJdW0NIMl1DMj1P

> <s_epik_cmdline>
J2VwaWtfcHl0aG9uJywgJy1waCcsICc3LjAnLCAnLXRuJywgJzgnLCAnLW1hJywgJzIwMCcsICctbWV0YWxfYmluZGluZycsICctaW1hZScsICc8aW5maWxlLm1hZT4nLCAnLW9tYWUnLCAnPG91dGZpbGUubWFlPic=

> <r_lp_tautomer_probability>
1

> <r_epik_Ionization_Penalty>
2.53591

> <r_epik_Ionization_Penalty_Charging>
0

> <r_epik_Ionization_Penalty_Neutral>
2.53591

> <r_epik_State_Penalty>
2.70334

> <r_epik_Charging_Adjusted_Penalty>
2.70334

> <i_epik_Tot_Q>
0

> <i_epik_Tot_abs_Q>
0

> <r_epik_Metal_State_Penalty>
2.70327

> <b_epik_Metal_Only>
0

> <s_lp_Force_Field>
OPLS_2005

> <r_lp_Energy>
23.1303

> <b_lp_Chiralities_Consistent>
1

> <s_lp_Variant>
AV-unprocessed.smi:3328-4

> <Gold.Version>
5.8.1

> <Gold.Id.Protein>
6NUR|6NUR_protein|mol2

> <Gold.PLP.Fitness>
39.8283

> <Gold.PLP.PLP>
-37.9721

> <Gold.PLP.part.hbond>
-2.4628

> <Gold.PLP.part.metal>
0.0000

> <Gold.PLP.part.buried>
-1.2439

> <Gold.PLP.part.nonpolar>
-35.4001

> <Gold.PLP.part.repulsive>
0.1091

> <Gold.PLP.ligand.clash>
0.0000

> <Gold.PLP.ligand.torsion>
0.6118

> <Gold.PLP.Chemscore.Hbond>
1.0000

> <Gold.PLP.Chemscore.CHOScore>
0.0000

> <Gold.PLP.Chemscore.Metal>
0.0000

> <Gold.Chemscore.Hbonds>
donor molecule, donor type, donor heavy atom, donor atom, acceptor molecule, acceptor atom, score
      L1  H     9    29       P1  8028  1.00

> <Gold.PLP.Chemscore.Internal.Correction>
0.0798

> <Gold.Rescore>
     Score         DG    S(hbond)    S(metal)    S(lipo)     H(rot)  DE(clash)    DE(int)     intcor
     14.82     -15.23       1.00        0.00      96.20       1.89       0.05       0.37       ----

> <Gold.Chemscore.Fitness>
14.8165

> <Gold.Chemscore.DG>
-15.2283

> <Gold.Chemscore.ZeroCoef>
-5.4800

> <Gold.Chemscore.Hbond>
0.9991

> <Gold.Chemscore.Metal>
0.0000

> <Gold.Chemscore.Lipo>
96.1950

> <Gold.Chemscore.Internal_Hbond>
0.0000

> <Gold.Chemscore.DEClash>
0.0456

> <Gold.Chemscore.DEInternal>
0.3662

> <Gold.Chemscore.Rot>
1.8920

> <Gold.Chemscore.Internal.Correction>
   9.000000E+99

> <Gold.Chemscore.Hbonds>
donor molecule, donor type, donor heavy atom, donor atom, acceptor molecule, acceptor atom, score
      L1  H     9    29       P1  8028  0.98

> <Gold.Chemscore.Hbond.Weighted>
-3.3369

> <Gold.Chemscore.Metal.Weighted>
-0.0000

> <Gold.Chemscore.Lipo.Weighted>
-11.2548

> <Gold.Chemscore.Internal_Hbond.Weighted>
0.0000

> <Gold.Chemscore.DEClash.Weighted>
0.0456

> <Gold.Chemscore.DEInternal.Weighted>
0.3662

> <Gold.Chemscore.Rot.Weighted>
4.8435

> <Gold.Chemscore.Internal.Correction.Weighted>
   9.000000E+99

> <Gold.Protein.RotatedTorsions>
[ 6907 6896 6895 6894 ] final -139.02 input  -60.11 | X-H torsion
[ 7974 7965 7964 7962 ] final   13.03 input  175.53 | X-H torsion
[ 8008 7997 7996 7995 ] final -113.58 input   59.86 | X-H torsion
[ 10167 10162 10161 10158 ] final  -32.40 input  -65.29 | X-H torsion
[ 10718 10713 10712 10709 ] final -175.81 input   66.30 | X-H torsion
[ 10763 10752 10751 10750 ] final   51.06 input  -60.55 | X-H torsion
[ 11005 11000 10999 10996 ] final  179.67 input  -57.11 | X-H torsion

> <Gold.Protein.ActiveResidues>
 VAL166  LYS551  ARG553  GLY616  TRP617  ASP618  TYR619  PRO620  LYS621  CYS622 
 ASP623  PHE694  ASN695  SER759  ASP760  ASP761  ALA762  ILE779  LEU786  VAL792 
 PHE793  MET794  SER795  GLU796  ALA797  LYS798  CYS799  TRP800  GLU811  SER814 

> <Gold.Protein.RotatedAtoms>
  151.0424  133.5695  159.2649 H   0  0  0  0  0  0  0  0  0  0  0  0  # atno 6907 bound_to 6896
  151.2736  135.0691  159.9153 H   0  0  0  0  0  0  0  0  0  0  0  0  # atno 6908 bound_to 6896
  152.5367  134.0150  159.8010 H   0  0  0  0  0  0  0  0  0  0  0  0  # atno 6909 bound_to 6896
  146.2338  139.9249  142.8504 H   0  0  0  0  0  0  0  0  0  0  0  0  # atno 7974 bound_to 7965
  155.0230  140.0393  157.2444 H   0  0  0  0  0  0  0  0  0  0  0  0  # atno 8008 bound_to 7997
  154.7362  140.2740  155.6389 H   0  0  0  0  0  0  0  0  0  0  0  0  # atno 8009 bound_to 7997
  156.2853  140.2674  156.2076 H   0  0  0  0  0  0  0  0  0  0  0  0  # atno 8010 bound_to 7997
  140.7222  143.3697  151.1801 H   0  0  0  0  0  0  0  0  0  0  0  0  # atno 10167 bound_to 10162
  156.8054  130.9567  151.3117 H   0  0  0  0  0  0  0  0  0  0  0  0  # atno 10718 bound_to 10713
  152.9785  135.5858  154.4354 H   0  0  0  0  0  0  0  0  0  0  0  0  # atno 10763 bound_to 10752
  154.3962  135.2768  155.2126 H   0  0  0  0  0  0  0  0  0  0  0  0  # atno 10764 bound_to 10752
  154.3977  135.6110  153.5933 H   0  0  0  0  0  0  0  0  0  0  0  0  # atno 10765 bound_to 10752
  140.4087  134.6711  157.4602 H   0  0  0  0  0  0  0  0  0  0  0  0  # atno 11005 bound_to 11000
  145.2101  140.9892  143.4106 LP  0  0  0  0  0  0  0  0  0  0  0  0  # atno 17320 bound_to 7965
  144.9699  139.3891  143.6314 LP  0  0  0  0  0  0  0  0  0  0  0  0  # atno 17321 bound_to 7965
  139.7266  143.9138  152.3005 LP  0  0  0  0  0  0  0  0  0  0  0  0  # atno 17342 bound_to 10162
  139.8913  144.6964  150.8767 LP  0  0  0  0  0  0  0  0  0  0  0  0  # atno 17343 bound_to 10162
  157.6533  130.8903  149.9677 LP  0  0  0  0  0  0  0  0  0  0  0  0  # atno 17370 bound_to 10713
  156.1076  130.3652  150.0106 LP  0  0  0  0  0  0  0  0  0  0  0  0  # atno 17371 bound_to 10713
  140.0283  134.6444  155.9142 LP  0  0  0  0  0  0  0  0  0  0  0  0  # atno 17394 bound_to 11000
  141.1829  133.6550  156.5096 LP  0  0  0  0  0  0  0  0  0  0  0  0  # atno 17395 bound_to 11000

$$$$
