AV-unprocessed.smi:3232|AV-procd|sdf|12341|dock2
  -GOLD-   2272018203D 1   1.00000     0.00000
 Structure written by MMmdl.
 40 41  0  0  0  0  0  0  0  0  2 V2000
  145.7905  136.3482  151.3883 C   0  0  0  0  0  0  0  0  0  0  0  0
  146.0889  134.8575  151.6016 C   0  0  0  0  0  0  0  0  0  0  0  0
  145.6676  134.0273  150.4458 N   0  3  2  0  0  0  0  0  0  0  0  0
  144.2026  133.9201  150.2623 C   0  0  0  0  0  0  0  0  0  0  0  0
  143.9501  132.5920  149.5347 C   0  0  0  0  0  0  0  0  0  0  0  0
  145.3426  132.0419  149.2282 C   0  0  0  0  0  0  0  0  0  0  0  0
  146.2323  132.6603  150.3144 C   0  0  2  0  0  0  0  0  0  0  0  0
  146.2281  131.8635  151.6466 C   0  0  0  0  0  0  0  0  0  0  0  0
  147.1221  130.7100  151.6073 N   0  0  0  0  0  0  0  0  0  0  0  0
  146.8152  129.4723  152.0286 C   0  0  0  0  0  0  0  0  0  0  0  0
  145.7124  129.1723  152.4874 O   0  0  0  0  0  0  0  0  0  0  0  0
  147.9231  128.4158  151.9075 C   0  0  2  0  0  0  0  0  0  0  0  0
  147.4914  127.2173  151.0387 C   0  0  0  0  0  0  0  0  0  0  0  0
  148.3740  128.0095  153.2329 N   0  0  0  0  0  0  0  0  0  0  0  0
  149.5864  128.0877  153.7862 C   0  0  0  0  0  0  0  0  0  0  0  0
  149.6343  127.6682  155.0428 N   0  0  0  0  0  0  0  0  0  0  0  0
  148.3222  127.3322  155.2206 C   0  0  0  0  0  0  0  0  0  0  0  0
  147.5223  127.5278  154.1726 N   0  0  0  0  0  0  0  0  0  0  0  0
  146.0381  136.9213  152.2821 H   0  0  0  0  0  0  0  0  0  0  0  0
  144.7338  136.5118  151.1744 H   0  0  0  0  0  0  0  0  0  0  0  0
  146.3683  136.7639  150.5629 H   0  0  0  0  0  0  0  0  0  0  0  0
  147.1424  134.7003  151.8347 H   0  0  0  0  0  0  0  0  0  0  0  0
  145.5341  134.5194  152.4778 H   0  0  0  0  0  0  0  0  0  0  0  0
  143.6905  133.9193  151.2259 H   0  0  0  0  0  0  0  0  0  0  0  0
  143.8377  134.7737  149.6904 H   0  0  0  0  0  0  0  0  0  0  0  0
  143.4142  131.9053  150.1918 H   0  0  0  0  0  0  0  0  0  0  0  0
  143.3528  132.7185  148.6313 H   0  0  0  0  0  0  0  0  0  0  0  0
  145.3686  130.9540  149.1824 H   0  0  0  0  0  0  0  0  0  0  0  0
  145.6633  132.4072  148.2514 H   0  0  0  0  0  0  0  0  0  0  0  0
  147.2591  132.7309  149.9531 H   0  0  0  0  0  0  0  0  0  0  0  0
  146.5860  132.4893  152.4633 H   0  0  0  0  0  0  0  0  0  0  0  0
  145.2141  131.5654  151.9187 H   0  0  0  0  0  0  0  0  0  0  0  0
  148.0511  130.8665  151.2433 H   0  0  0  0  0  0  0  0  0  0  0  0
  148.7765  128.8808  151.4104 H   0  0  0  0  0  0  0  0  0  0  0  0
  147.2094  127.5420  150.0365 H   0  0  0  0  0  0  0  0  0  0  0  0
  146.6395  126.6849  151.4636 H   0  0  0  0  0  0  0  0  0  0  0  0
  148.3069  126.5018  150.9314 H   0  0  0  0  0  0  0  0  0  0  0  0
  150.4515  128.4628  153.2596 H   0  0  0  0  0  0  0  0  0  0  0  0
  147.9436  126.9390  156.1525 H   0  0  0  0  0  0  0  0  0  0  0  0
  145.9906  134.5169  149.6233 H   0  0  0  0  0  0  0  0  0  0  0  0
  1  2  1  0  0  0  0
  1 19  1  0  0  0  0
  1 20  1  0  0  0  0
  1 21  1  0  0  0  0
  2  3  1  0  0  0  0
  2 22  1  0  0  0  0
  2 23  1  0  0  0  0
  3  7  1  0  0  0  0
  3  4  1  0  0  0  0
  3 40  1  0  0  0  0
  4  5  1  0  0  0  0
  4 24  1  0  0  0  0
  4 25  1  0  0  0  0
  5  6  1  0  0  0  0
  5 26  1  0  0  0  0
  5 27  1  0  0  0  0
  6  7  1  0  0  0  0
  6 28  1  0  0  0  0
  6 29  1  0  0  0  0
  7  8  1  0  0  0  0
  7 30  1  0  0  0  0
  8  9  1  0  0  0  0
  8 31  1  0  0  0  0
  8 32  1  0  0  0  0
  9 10  1  0  0  0  0
  9 33  1  0  0  0  0
 10 11  2  0  0  0  0
 10 12  1  0  0  0  0
 12 13  1  0  0  0  0
 12 14  1  0  0  0  0
 12 34  1  0  0  0  0
 13 35  1  0  0  0  0
 13 36  1  0  0  0  0
 13 37  1  0  0  0  0
 14 18  1  0  0  0  0
 14 15  1  0  0  0  0
 15 16  2  0  0  0  0
 15 38  1  0  0  0  0
 16 17  1  0  0  0  0
 17 18  2  0  0  0  0
 17 39  1  0  0  0  0
M  CHG  1   3   1
M  END
> <s_m_source_file>
AV-unprocessed.smi

> <i_m_source_file_index>
3232

> <i_lp_mmshare_version>
43012

> <i_f3d_flags>
0

> <s_epik_input>
W0NIM11bQ0gyXU4xW0NIMl1bQ0gyXVtDSDJdW0NASF0xW0NIMl1bTkhdQyg9TylbQ0BIXShbQ0gzXSluMltjSF1uW2NIXW4y

> <s_epik_cmdline>
J2VwaWtfcHl0aG9uJywgJy1waCcsICc3LjAnLCAnLXRuJywgJzgnLCAnLW1hJywgJzIwMCcsICctbWV0YWxfYmluZGluZycsICctaW1hZScsICc8aW5maWxlLm1hZT4nLCAnLW9tYWUnLCAnPG91dGZpbGUubWFlPic=

> <r_lp_tautomer_probability>
1

> <r_epik_Ionization_Penalty>
0.00177695

> <r_epik_Ionization_Penalty_Charging>
0.00176881

> <r_epik_Ionization_Penalty_Neutral>
8.13528e-06

> <r_epik_State_Penalty>
0.00119827

> <r_epik_Charging_Adjusted_Penalty>
0.00296709

> <i_epik_Tot_Q>
1

> <i_epik_Tot_abs_Q>
1

> <r_epik_Metal_State_Penalty>
-0

> <b_epik_Metal_Only>
0

> <s_lp_Force_Field>
OPLS_2005

> <r_lp_Energy>
38.6691

> <b_lp_Chiralities_Consistent>
1

> <s_lp_Variant>
AV-unprocessed.smi:3232-3

> <Gold.Version>
5.8.1

> <Gold.Id.Protein>
6NUR|6NUR_protein|mol2

> <Gold.PLP.Fitness>
40.1606

> <Gold.PLP.PLP>
-32.8862

> <Gold.PLP.part.hbond>
-1.3742

> <Gold.PLP.part.metal>
0.0000

> <Gold.PLP.part.buried>
-2.4442

> <Gold.PLP.part.nonpolar>
-29.7089

> <Gold.PLP.part.repulsive>
0.2921

> <Gold.PLP.ligand.clash>
0.0000

> <Gold.PLP.ligand.torsion>
0.4913

> <Gold.PLP.Chemscore.Hbond>
1.7050

> <Gold.PLP.Chemscore.CHOScore>
1.0000

> <Gold.PLP.Chemscore.Metal>
0.0000

> <Gold.Chemscore.Hbonds>
donor molecule, donor type, donor heavy atom, donor atom, acceptor molecule, acceptor atom, score
      L1  H     3    40       P1  7921  1.00
      L1  H     9    33       P1 10747  0.50
      L1  C    15    38       P1 10737  1.00

> <Gold.PLP.Chemscore.Internal.Correction>
0.1421

> <Gold.Rescore>
     Score         DG    S(hbond)    S(metal)    S(lipo)     H(rot)  DE(clash)    DE(int)     intcor
     13.24     -14.05       1.61        0.00      81.84       2.49       0.25       0.56       ----

> <Gold.Chemscore.Fitness>
13.2360

> <Gold.Chemscore.DG>
-14.0479

> <Gold.Chemscore.ZeroCoef>
-5.4800

> <Gold.Chemscore.Hbond>
1.6054

> <Gold.Chemscore.Metal>
0.0000

> <Gold.Chemscore.Lipo>
81.8436

> <Gold.Chemscore.Internal_Hbond>
0.0000

> <Gold.Chemscore.DEClash>
0.2528

> <Gold.Chemscore.DEInternal>
0.5591

> <Gold.Chemscore.Rot>
2.4882

> <Gold.Chemscore.Internal.Correction>
   9.000000E+99

> <Gold.Chemscore.Hbonds>
donor molecule, donor type, donor heavy atom, donor atom, acceptor molecule, acceptor atom, score
      L1  H     3    40       P1  7921  0.51
      L1  H     9    33       P1 10747  0.49

> <Gold.Chemscore.Hbond.Weighted>
-5.3619

> <Gold.Chemscore.Metal.Weighted>
-0.0000

> <Gold.Chemscore.Lipo.Weighted>
-9.5757

> <Gold.Chemscore.Internal_Hbond.Weighted>
0.0000

> <Gold.Chemscore.DEClash.Weighted>
0.2528

> <Gold.Chemscore.DEInternal.Weighted>
0.5591

> <Gold.Chemscore.Rot.Weighted>
6.3697

> <Gold.Chemscore.Internal.Correction.Weighted>
   9.000000E+99

> <Gold.Protein.RotatedTorsions>
[ 6907 6896 6895 6894 ] final   56.68 input  -60.11 | X-H torsion
[ 7974 7965 7964 7962 ] final  159.78 input  175.53 | X-H torsion
[ 8008 7997 7996 7995 ] final  170.70 input   59.86 | X-H torsion
[ 10167 10162 10161 10158 ] final   59.36 input  -65.29 | X-H torsion
[ 10718 10713 10712 10709 ] final    2.14 input   66.30 | X-H torsion
[ 10763 10752 10751 10750 ] final -117.39 input  -60.55 | X-H torsion
[ 11005 11000 10999 10996 ] final  -64.44 input  -57.11 | X-H torsion

> <Gold.Protein.ActiveResidues>
 VAL166  LYS551  ARG553  GLY616  TRP617  ASP618  TYR619  PRO620  LYS621  CYS622 
 ASP623  PHE694  ASN695  SER759  ASP760  ASP761  ALA762  ILE779  LEU786  VAL792 
 PHE793  MET794  SER795  GLU796  ALA797  LYS798  CYS799  TRP800  GLU811  SER814 

> <Gold.Protein.RotatedAtoms>
  152.3659  134.6804  160.0191 H   0  0  0  0  0  0  0  0  0  0  0  0  # atno 6907 bound_to 6896
  151.7113  133.3307  159.3299 H   0  0  0  0  0  0  0  0  0  0  0  0  # atno 6908 bound_to 6896
  150.7638  134.6464  159.6309 H   0  0  0  0  0  0  0  0  0  0  0  0  # atno 6909 bound_to 6896
  144.7772  139.7665  143.6274 H   0  0  0  0  0  0  0  0  0  0  0  0  # atno 7974 bound_to 7965
  156.1341  140.1531  156.9021 H   0  0  0  0  0  0  0  0  0  0  0  0  # atno 8008 bound_to 7997
  154.4933  140.0845  156.7681 H   0  0  0  0  0  0  0  0  0  0  0  0  # atno 8009 bound_to 7997
  155.4202  140.3422  155.4273 H   0  0  0  0  0  0  0  0  0  0  0  0  # atno 8010 bound_to 7997
  140.1773  144.4217  150.6632 H   0  0  0  0  0  0  0  0  0  0  0  0  # atno 10167 bound_to 10162
  156.8585  130.5578  149.5664 H   0  0  0  0  0  0  0  0  0  0  0  0  # atno 10718 bound_to 10713
  154.8553  135.4311  154.1973 H   0  0  0  0  0  0  0  0  0  0  0  0  # atno 10763 bound_to 10752
  153.3027  135.6970  153.7194 H   0  0  0  0  0  0  0  0  0  0  0  0  # atno 10764 bound_to 10752
  153.6317  135.3483  155.3018 H   0  0  0  0  0  0  0  0  0  0  0  0  # atno 10765 bound_to 10752
  141.1425  133.6666  156.5833 H   0  0  0  0  0  0  0  0  0  0  0  0  # atno 11005 bound_to 11000
  146.1958  139.5224  142.9775 LP  0  0  0  0  0  0  0  0  0  0  0  0  # atno 17320 bound_to 7965
  145.6153  141.0332  143.1944 LP  0  0  0  0  0  0  0  0  0  0  0  0  # atno 17321 bound_to 7965
  140.6543  143.2233  151.6005 LP  0  0  0  0  0  0  0  0  0  0  0  0  # atno 17342 bound_to 10162
  139.5312  144.2912  152.1150 LP  0  0  0  0  0  0  0  0  0  0  0  0  # atno 17343 bound_to 10162
  156.0789  130.5804  150.9526 LP  0  0  0  0  0  0  0  0  0  0  0  0  # atno 17370 bound_to 10713
  157.6263  131.0925  150.8527 LP  0  0  0  0  0  0  0  0  0  0  0  0  # atno 17371 bound_to 10713
  140.3820  134.7515  157.4667 LP  0  0  0  0  0  0  0  0  0  0  0  0  # atno 17394 bound_to 11000
  140.0630  134.5969  155.8727 LP  0  0  0  0  0  0  0  0  0  0  0  0  # atno 17395 bound_to 11000

$$$$
