AV-unprocessed.smi:3091|AV-procd|sdf|11779|dock9
  -GOLD-   2272017163D 1   1.00000     0.00000
 Structure written by MMmdl.
 29 30  0  0  0  0  0  0  0  0  2 V2000
  147.2083  138.5967  151.6991 N   0  3  0  0  0  0  0  0  0  0  0  0
  146.9101  138.8836  153.1113 C   0  0  0  0  0  0  0  0  0  0  0  0
  148.1086  139.5072  153.7961 C   0  0  0  0  0  0  0  0  0  0  0  0
  148.1311  140.8844  154.0944 C   0  0  0  0  0  0  0  0  0  0  0  0
  149.2726  141.4135  154.7280 C   0  0  0  0  0  0  0  0  0  0  0  0
  150.3467  140.6672  155.0610 N   0  0  0  0  0  0  0  0  0  0  0  0
  150.3250  139.3418  154.7744 C   0  0  0  0  0  0  0  0  0  0  0  0
  151.4159  138.5634  155.1075 O   0  0  0  0  0  0  0  0  0  0  0  0
  151.2649  137.5159  156.0667 C   0  0  1  0  0  0  0  0  0  0  0  0
  150.5785  136.2923  155.4625 C   0  0  0  0  0  0  0  0  0  0  0  0
  151.4335  135.1293  155.9473 C   0  0  0  0  0  0  0  0  0  0  0  0
  152.7382  135.6797  155.9299 O   0  0  0  0  0  0  0  0  0  0  0  0
  152.6483  136.9892  156.4742 C   0  0  0  0  0  0  0  0  0  0  0  0
  149.2280  138.7223  154.1410 C   0  0  0  0  0  0  0  0  0  0  0  0
  146.3564  138.6368  151.1582 H   0  0  0  0  0  0  0  0  0  0  0  0
  147.6135  137.6746  151.6232 H   0  0  0  0  0  0  0  0  0  0  0  0
  146.0537  139.5561  153.1707 H   0  0  0  0  0  0  0  0  0  0  0  0
  146.6307  137.9588  153.6173 H   0  0  0  0  0  0  0  0  0  0  0  0
  147.2963  141.5241  153.8476 H   0  0  0  0  0  0  0  0  0  0  0  0
  149.3245  142.4641  154.9724 H   0  0  0  0  0  0  0  0  0  0  0  0
  150.7504  137.8662  156.9633 H   0  0  0  0  0  0  0  0  0  0  0  0
  149.5332  136.1991  155.7584 H   0  0  0  0  0  0  0  0  0  0  0  0
  150.6169  136.3381  154.3732 H   0  0  0  0  0  0  0  0  0  0  0  0
  151.1661  134.8416  156.9655 H   0  0  0  0  0  0  0  0  0  0  0  0
  151.3561  134.2513  155.3057 H   0  0  0  0  0  0  0  0  0  0  0  0
  153.4659  137.6169  156.1187 H   0  0  0  0  0  0  0  0  0  0  0  0
  152.7248  136.9246  157.5606 H   0  0  0  0  0  0  0  0  0  0  0  0
  149.2495  137.6634  153.9281 H   0  0  0  0  0  0  0  0  0  0  0  0
  147.8636  139.2809  151.3491 H   0  0  0  0  0  0  0  0  0  0  0  0
  1  2  1  0  0  0  0
  1 15  1  0  0  0  0
  1 16  1  0  0  0  0
  1 29  1  0  0  0  0
  2  3  1  0  0  0  0
  2 17  1  0  0  0  0
  2 18  1  0  0  0  0
  3 14  1  0  0  0  0
  3  4  2  0  0  0  0
  4  5  1  0  0  0  0
  4 19  1  0  0  0  0
  5  6  2  0  0  0  0
  5 20  1  0  0  0  0
  6  7  1  0  0  0  0
  7  8  1  0  0  0  0
  7 14  2  0  0  0  0
  8  9  1  0  0  0  0
  9 13  1  0  0  0  0
  9 10  1  0  0  0  0
  9 21  1  0  0  0  0
 10 11  1  0  0  0  0
 10 22  1  0  0  0  0
 10 23  1  0  0  0  0
 11 12  1  0  0  0  0
 11 24  1  0  0  0  0
 11 25  1  0  0  0  0
 12 13  1  0  0  0  0
 13 26  1  0  0  0  0
 13 27  1  0  0  0  0
 14 28  1  0  0  0  0
M  CHG  1   1   1
M  END
> <s_m_source_file>
AV-unprocessed.smi

> <i_m_source_file_index>
3091

> <i_lp_mmshare_version>
43012

> <i_f3d_flags>
0

> <s_epik_input>
W05IMl1bQ0gyXWMxW2NIXVtjSF1uYyhbY0hdMSlPW0NAQEhdMltDSDJdW0NIMl1PW0NIMl0y

> <s_epik_cmdline>
J2VwaWtfcHl0aG9uJywgJy1waCcsICc3LjAnLCAnLXRuJywgJzgnLCAnLW1hJywgJzIwMCcsICctbWV0YWxfYmluZGluZycsICctaW1hZScsICc8aW5maWxlLm1hZT4nLCAnLW9tYWUnLCAnPG91dGZpbGUubWFlPic=

> <r_lp_tautomer_probability>
1

> <r_epik_Ionization_Penalty>
0.0773124

> <r_epik_Ionization_Penalty_Charging>
0.0773118

> <r_epik_Ionization_Penalty_Neutral>
5.92883e-07

> <r_epik_State_Penalty>
0.0682686

> <r_epik_Charging_Adjusted_Penalty>
0.14558

> <i_epik_Tot_Q>
1

> <i_epik_Tot_abs_Q>
1

> <r_epik_Metal_State_Penalty>
0.0682821

> <b_epik_Metal_Only>
0

> <s_lp_Force_Field>
OPLS_2005

> <r_lp_Energy>
12.8261

> <b_lp_Chiralities_Consistent>
1

> <s_lp_Variant>
AV-unprocessed.smi:3091-2

> <Gold.Version>
5.8.1

> <Gold.Id.Protein>
6NUR|6NUR_protein|mol2

> <Gold.PLP.Fitness>
38.2425

> <Gold.PLP.PLP>
-22.0405

> <Gold.PLP.part.hbond>
-4.0000

> <Gold.PLP.part.metal>
0.0000

> <Gold.PLP.part.buried>
-1.2506

> <Gold.PLP.part.nonpolar>
-16.9564

> <Gold.PLP.part.repulsive>
0.5522

> <Gold.PLP.ligand.clash>
0.0000

> <Gold.PLP.ligand.torsion>
0.2975

> <Gold.PLP.Chemscore.Hbond>
4.5958

> <Gold.PLP.Chemscore.CHOScore>
1.0000

> <Gold.PLP.Chemscore.Metal>
0.0000

> <Gold.Chemscore.Hbonds>
donor molecule, donor type, donor heavy atom, donor atom, acceptor molecule, acceptor atom, score
      L1  H     1    16       P1  7948  2.00
      L1  H     1    29       P1  7957  1.00
      P1  H  7989  7998       L1     6  0.36
      L1  C     5    20       P1  8028  1.00

> <Gold.PLP.Chemscore.Internal.Correction>
0.0094

> <Gold.Rescore>
     Score         DG    S(hbond)    S(metal)    S(lipo)     H(rot)  DE(clash)    DE(int)     intcor
     16.00     -16.54       2.80        0.00      49.31       1.59       0.03       0.51       ----

> <Gold.Chemscore.Fitness>
15.9996

> <Gold.Chemscore.DG>
-16.5387

> <Gold.Chemscore.ZeroCoef>
-5.4800

> <Gold.Chemscore.Hbond>
2.8042

> <Gold.Chemscore.Metal>
0.0000

> <Gold.Chemscore.Lipo>
49.3105

> <Gold.Chemscore.Internal_Hbond>
0.0000

> <Gold.Chemscore.DEClash>
0.0336

> <Gold.Chemscore.DEInternal>
0.5055

> <Gold.Chemscore.Rot>
1.5924

> <Gold.Chemscore.Internal.Correction>
   9.000000E+99

> <Gold.Chemscore.Hbonds>
donor molecule, donor type, donor heavy atom, donor atom, acceptor molecule, acceptor atom, score
      L1  H     1    16       P1  7948  0.98
      L1  H     1    29       P1  7957  0.86

> <Gold.Chemscore.Hbond.Weighted>
-9.3659

> <Gold.Chemscore.Metal.Weighted>
-0.0000

> <Gold.Chemscore.Lipo.Weighted>
-5.7693

> <Gold.Chemscore.Internal_Hbond.Weighted>
0.0000

> <Gold.Chemscore.DEClash.Weighted>
0.0336

> <Gold.Chemscore.DEInternal.Weighted>
0.5055

> <Gold.Chemscore.Rot.Weighted>
4.0765

> <Gold.Chemscore.Internal.Correction.Weighted>
   9.000000E+99

> <Gold.Protein.RotatedTorsions>
[ 6907 6896 6895 6894 ] final   -0.37 input  -60.11 | X-H torsion
[ 7974 7965 7964 7962 ] final  -24.93 input  175.53 | X-H torsion
[ 8008 7997 7996 7995 ] final  122.99 input   59.86 | X-H torsion
[ 10167 10162 10161 10158 ] final -178.38 input  -65.29 | X-H torsion
[ 10718 10713 10712 10709 ] final   90.64 input   66.30 | X-H torsion
[ 10763 10752 10751 10750 ] final -141.45 input  -60.55 | X-H torsion
[ 11005 11000 10999 10996 ] final   20.91 input  -57.11 | X-H torsion

> <Gold.Protein.ActiveResidues>
 VAL166  LYS551  ARG553  GLY616  TRP617  ASP618  TYR619  PRO620  LYS621  CYS622 
 ASP623  PHE694  ASN695  SER759  ASP760  ASP761  ALA762  ILE779  LEU786  VAL792 
 PHE793  MET794  SER795  GLU796  ALA797  LYS798  CYS799  TRP800  GLU811  SER814 

> <Gold.Protein.RotatedAtoms>
  151.5633  135.1065  159.9977 H   0  0  0  0  0  0  0  0  0  0  0  0  # atno 6907 bound_to 6896
  152.4436  133.7490  159.6694 H   0  0  0  0  0  0  0  0  0  0  0  0  # atno 6908 bound_to 6896
  150.8347  133.7965  159.3108 H   0  0  0  0  0  0  0  0  0  0  0  0  # atno 6909 bound_to 6896
  146.1524  140.4818  142.8606 H   0  0  0  0  0  0  0  0  0  0  0  0  # atno 7974 bound_to 7965
  156.2749  140.2773  156.1556 H   0  0  0  0  0  0  0  0  0  0  0  0  # atno 8008 bound_to 7997
  155.0807  140.0388  157.2656 H   0  0  0  0  0  0  0  0  0  0  0  0  # atno 8009 bound_to 7997
  154.6966  140.2640  155.6766 H   0  0  0  0  0  0  0  0  0  0  0  0  # atno 8010 bound_to 7997
  139.5435  144.2299  152.0942 H   0  0  0  0  0  0  0  0  0  0  0  0  # atno 10167 bound_to 10162
  157.6959  131.0378  150.3608 H   0  0  0  0  0  0  0  0  0  0  0  0  # atno 10718 bound_to 10713
  154.8544  135.3524  154.5870 H   0  0  0  0  0  0  0  0  0  0  0  0  # atno 10763 bound_to 10752
  153.6481  135.6995  153.5223 H   0  0  0  0  0  0  0  0  0  0  0  0  # atno 10764 bound_to 10752
  153.2917  135.4233  155.1131 H   0  0  0  0  0  0  0  0  0  0  0  0  # atno 10765 bound_to 10752
  140.3974  134.1755  155.7663 H   0  0  0  0  0  0  0  0  0  0  0  0  # atno 11005 bound_to 11000
  144.7920  140.6050  143.6535 LP  0  0  0  0  0  0  0  0  0  0  0  0  # atno 17320 bound_to 7965
  145.4792  139.1497  143.3771 LP  0  0  0  0  0  0  0  0  0  0  0  0  # atno 17321 bound_to 7965
  140.1781  144.4871  150.6543 LP  0  0  0  0  0  0  0  0  0  0  0  0  # atno 17342 bound_to 10162
  140.6674  143.2273  151.5709 LP  0  0  0  0  0  0  0  0  0  0  0  0  # atno 17343 bound_to 10162
  156.4045  130.3922  149.6936 LP  0  0  0  0  0  0  0  0  0  0  0  0  # atno 17370 bound_to 10713
  156.4242  130.7783  151.2801 LP  0  0  0  0  0  0  0  0  0  0  0  0  # atno 17371 bound_to 10713
  141.1869  133.8292  157.1051 LP  0  0  0  0  0  0  0  0  0  0  0  0  # atno 17394 bound_to 11000
  140.0362  134.9877  157.0874 LP  0  0  0  0  0  0  0  0  0  0  0  0  # atno 17395 bound_to 11000

$$$$
