AV-unprocessed.smi:1144|AV-procd|sdf|4880|dock4
  -GOLD-   22720 3453D 1   1.00000     0.00000
 Structure written by MMmdl.
 34 35  0  0  0  0  0  0  0  0  1 V2000
  150.0956  136.3716  155.4772 C   0  0  0  0  0  0  0  0  0  0  0  0
  150.8143  137.5981  155.7875 N   0  0  0  0  0  0  0  0  0  0  0  0
  151.7369  137.9629  154.7208 C   0  0  0  0  0  0  0  0  0  0  0  0
  152.4814  139.2710  155.0363 C   0  0  0  0  0  0  0  0  0  0  0  0
  151.5361  140.3063  155.2882 O   0  0  0  0  0  0  0  0  0  0  0  0
  150.6557  140.0098  156.3708 C   0  0  1  0  0  0  0  0  0  0  0  0
  149.6925  141.1906  156.5514 C   0  0  0  0  0  0  0  0  0  0  0  0
  150.3826  142.4678  156.4507 N   0  0  0  0  0  0  0  0  0  0  0  0
  151.3023  142.9267  157.3741 C   0  0  0  0  0  0  0  0  0  0  0  0
  151.5326  144.2414  157.3528 N   0  0  0  0  0  0  0  0  0  0  0  0
  152.4267  144.7228  158.2431 C   0  0  0  0  0  0  0  0  0  0  0  0
  153.0915  143.8820  159.1572 C   0  0  0  0  0  0  0  0  0  0  0  0
  152.7709  142.5077  159.0907 C   0  0  0  0  0  0  0  0  0  0  0  0
  153.4098  141.4816  160.0140 C   0  0  0  0  0  0  0  0  0  0  0  0
  152.8813  140.2792  159.7845 F   0  0  0  0  0  0  0  0  0  0  0  0
  154.7277  141.4070  159.8245 F   0  0  0  0  0  0  0  0  0  0  0  0
  153.1840  141.8162  161.2845 F   0  0  0  0  0  0  0  0  0  0  0  0
  151.8736  142.0370  158.1937 N   0  0  0  0  0  0  0  0  0  0  0  0
  149.9016  138.7050  156.0443 C   0  0  0  0  0  0  0  0  0  0  0  0
  150.7909  135.5474  155.3150 H   0  0  0  0  0  0  0  0  0  0  0  0
  149.4893  136.4868  154.5777 H   0  0  0  0  0  0  0  0  0  0  0  0
  149.4351  136.0921  156.2984 H   0  0  0  0  0  0  0  0  0  0  0  0
  152.4599  137.1610  154.5657 H   0  0  0  0  0  0  0  0  0  0  0  0
  151.1909  138.0778  153.7830 H   0  0  0  0  0  0  0  0  0  0  0  0
  153.1344  139.1468  155.9016 H   0  0  0  0  0  0  0  0  0  0  0  0
  153.1125  139.5607  154.1961 H   0  0  0  0  0  0  0  0  0  0  0  0
  151.2365  139.8718  157.2849 H   0  0  0  0  0  0  0  0  0  0  0  0
  148.8943  141.1453  155.8094 H   0  0  0  0  0  0  0  0  0  0  0  0
  149.2224  141.1320  157.5338 H   0  0  0  0  0  0  0  0  0  0  0  0
  150.1351  143.0879  155.6933 H   0  0  0  0  0  0  0  0  0  0  0  0
  152.6126  145.7865  158.2264 H   0  0  0  0  0  0  0  0  0  0  0  0
  153.8050  144.2765  159.8654 H   0  0  0  0  0  0  0  0  0  0  0  0
  149.2624  138.8641  155.1741 H   0  0  0  0  0  0  0  0  0  0  0  0
  149.2401  138.4507  156.8734 H   0  0  0  0  0  0  0  0  0  0  0  0
  1  2  1  0  0  0  0
  1 20  1  0  0  0  0
  1 21  1  0  0  0  0
  1 22  1  0  0  0  0
  2 19  1  0  0  0  0
  2  3  1  0  0  0  0
  3  4  1  0  0  0  0
  3 23  1  0  0  0  0
  3 24  1  0  0  0  0
  4  5  1  0  0  0  0
  4 25  1  0  0  0  0
  4 26  1  0  0  0  0
  5  6  1  0  0  0  0
  6  7  1  0  0  0  0
  6 19  1  0  0  0  0
  6 27  1  0  0  0  0
  7  8  1  0  0  0  0
  7 28  1  0  0  0  0
  7 29  1  0  0  0  0
  8  9  1  0  0  0  0
  8 30  1  0  0  0  0
  9 18  1  0  0  0  0
  9 10  2  0  0  0  0
 10 11  1  0  0  0  0
 11 12  2  0  0  0  0
 11 31  1  0  0  0  0
 12 13  1  0  0  0  0
 12 32  1  0  0  0  0
 13 14  1  0  0  0  0
 13 18  2  0  0  0  0
 14 15  1  0  0  0  0
 14 16  1  0  0  0  0
 14 17  1  0  0  0  0
 19 33  1  0  0  0  0
 19 34  1  0  0  0  0
M  END
> <s_m_source_file>
AV-unprocessed.smi

> <i_m_source_file_index>
1144

> <i_lp_mmshare_version>
43012

> <i_f3d_flags>
0

> <s_epik_input>
W0NIM11OMVtDSDJdW0NIMl1PW0NASF0oW0NIMl0xKVtDSDJdW05IXWMybltjSF1bY0hdYyhuMilDKEYpKEYpRg==

> <s_epik_cmdline>
J2VwaWtfcHl0aG9uJywgJy1waCcsICc3LjAnLCAnLXRuJywgJzgnLCAnLW1hJywgJzIwMCcsICctbWV0YWxfYmluZGluZycsICctaW1hZScsICc8aW5maWxlLm1hZT4nLCAnLW9tYWUnLCAnPG91dGZpbGUubWFlPic=

> <r_lp_tautomer_probability>
1

> <r_epik_Ionization_Penalty>
0.797829

> <r_epik_Ionization_Penalty_Charging>
0

> <r_epik_Ionization_Penalty_Neutral>
0.797829

> <r_epik_State_Penalty>
0.828842

> <r_epik_Charging_Adjusted_Penalty>
0.828842

> <i_epik_Tot_Q>
0

> <i_epik_Tot_abs_Q>
0

> <r_epik_Metal_State_Penalty>
0.828842

> <b_epik_Metal_Only>
0

> <s_lp_Force_Field>
OPLS_2005

> <r_lp_Energy>
13.1173

> <b_lp_Chiralities_Consistent>
1

> <s_lp_Variant>
AV-unprocessed.smi:1144-5

> <Gold.Version>
5.8.1

> <Gold.Id.Protein>
6NUR|6NUR_protein|mol2

> <Gold.PLP.Fitness>
44.2952

> <Gold.PLP.PLP>
-41.5310

> <Gold.PLP.part.hbond>
-2.0000

> <Gold.PLP.part.metal>
0.0000

> <Gold.PLP.part.buried>
-5.9849

> <Gold.PLP.part.nonpolar>
-33.8890

> <Gold.PLP.part.repulsive>
0.2971

> <Gold.PLP.ligand.clash>
0.0000

> <Gold.PLP.ligand.torsion>
0.2794

> <Gold.PLP.Chemscore.Hbond>
1.1032

> <Gold.PLP.Chemscore.CHOScore>
0.0000

> <Gold.PLP.Chemscore.Metal>
0.0000

> <Gold.Chemscore.Hbonds>
donor molecule, donor type, donor heavy atom, donor atom, acceptor molecule, acceptor atom, score
      L1  H     8    30       P1  8028  0.59
      P1  H  7989  7998       L1     5  0.51

> <Gold.PLP.Chemscore.Internal.Correction>
0.0134

> <Gold.Rescore>
     Score         DG    S(hbond)    S(metal)    S(lipo)     H(rot)  DE(clash)    DE(int)     intcor
     13.23     -14.96       0.94        0.00      82.98       1.31       0.50       1.22       ----

> <Gold.Chemscore.Fitness>
13.2346

> <Gold.Chemscore.DG>
-14.9571

> <Gold.Chemscore.ZeroCoef>
-5.4800

> <Gold.Chemscore.Hbond>
0.9384

> <Gold.Chemscore.Metal>
0.0000

> <Gold.Chemscore.Lipo>
82.9829

> <Gold.Chemscore.Internal_Hbond>
0.0000

> <Gold.Chemscore.DEClash>
0.4993

> <Gold.Chemscore.DEInternal>
1.2232

> <Gold.Chemscore.Rot>
1.3149

> <Gold.Chemscore.Internal.Correction>
   9.000000E+99

> <Gold.Chemscore.Hbonds>
donor molecule, donor type, donor heavy atom, donor atom, acceptor molecule, acceptor atom, score
      L1  H     8    30       P1  8028  0.56
      P1  H  7989  7998       L1     5  0.03

> <Gold.Chemscore.Hbond.Weighted>
-3.1343

> <Gold.Chemscore.Metal.Weighted>
-0.0000

> <Gold.Chemscore.Lipo.Weighted>
-9.7090

> <Gold.Chemscore.Internal_Hbond.Weighted>
0.0000

> <Gold.Chemscore.DEClash.Weighted>
0.4993

> <Gold.Chemscore.DEInternal.Weighted>
1.2232

> <Gold.Chemscore.Rot.Weighted>
3.3662

> <Gold.Chemscore.Internal.Correction.Weighted>
   9.000000E+99

> <Gold.Protein.RotatedTorsions>
[ 6907 6896 6895 6894 ] final -165.13 input  -60.11 | X-H torsion
[ 7974 7965 7964 7962 ] final  -95.15 input  175.53 | X-H torsion
[ 8008 7997 7996 7995 ] final  159.58 input   59.86 | X-H torsion
[ 10167 10162 10161 10158 ] final -175.31 input  -65.29 | X-H torsion
[ 10718 10713 10712 10709 ] final -173.58 input   66.30 | X-H torsion
[ 10763 10752 10751 10750 ] final -107.48 input  -60.55 | X-H torsion
[ 11005 11000 10999 10996 ] final  -52.72 input  -57.11 | X-H torsion

> <Gold.Protein.ActiveResidues>
 VAL166  LYS551  ARG553  GLY616  TRP617  ASP618  TYR619  PRO620  LYS621  CYS622 
 ASP623  PHE694  ASN695  SER759  ASP760  ASP761  ALA762  ILE779  LEU786  VAL792 
 PHE793  MET794  SER795  GLU796  ALA797  LYS798  CYS799  TRP800  GLU811  SER814 

> <Gold.Protein.RotatedAtoms>
  151.4228  133.3693  159.2758 H   0  0  0  0  0  0  0  0  0  0  0  0  # atno 6907 bound_to 6896
  150.9281  134.8699  159.7544 H   0  0  0  0  0  0  0  0  0  0  0  0  # atno 6908 bound_to 6896
  152.5015  134.4171  159.9520 H   0  0  0  0  0  0  0  0  0  0  0  0  # atno 6909 bound_to 6896
  145.3639  140.9496  143.2485 H   0  0  0  0  0  0  0  0  0  0  0  0  # atno 7974 bound_to 7965
  156.2229  140.1827  156.7432 H   0  0  0  0  0  0  0  0  0  0  0  0  # atno 8008 bound_to 7997
  154.5895  140.0653  156.9247 H   0  0  0  0  0  0  0  0  0  0  0  0  # atno 8009 bound_to 7997
  155.2361  140.3318  155.4300 H   0  0  0  0  0  0  0  0  0  0  0  0  # atno 8010 bound_to 7997
  139.5587  144.1923  152.1203 H   0  0  0  0  0  0  0  0  0  0  0  0  # atno 10167 bound_to 10162
  156.7725  130.9454  151.3120 H   0  0  0  0  0  0  0  0  0  0  0  0  # atno 10718 bound_to 10713
  154.8077  135.4673  154.0436 H   0  0  0  0  0  0  0  0  0  0  0  0  # atno 10763 bound_to 10752
  153.1891  135.6852  153.8383 H   0  0  0  0  0  0  0  0  0  0  0  0  # atno 10764 bound_to 10752
  153.7906  135.3243  155.3355 H   0  0  0  0  0  0  0  0  0  0  0  0  # atno 10765 bound_to 10752
  141.0939  133.6628  156.4066 H   0  0  0  0  0  0  0  0  0  0  0  0  # atno 11005 bound_to 11000
  144.8626  139.5154  143.6805 LP  0  0  0  0  0  0  0  0  0  0  0  0  # atno 17320 bound_to 7965
  146.2915  139.7154  142.9157 LP  0  0  0  0  0  0  0  0  0  0  0  0  # atno 17321 bound_to 7965
  140.1432  144.5182  150.6731 LP  0  0  0  0  0  0  0  0  0  0  0  0  # atno 17342 bound_to 10162
  140.6864  143.2352  151.5248 LP  0  0  0  0  0  0  0  0  0  0  0  0  # atno 17343 bound_to 10162
  157.6684  130.9029  149.9985 LP  0  0  0  0  0  0  0  0  0  0  0  0  # atno 17370 bound_to 10713
  156.1269  130.3644  149.9795 LP  0  0  0  0  0  0  0  0  0  0  0  0  # atno 17371 bound_to 10713
  140.5187  134.6325  157.5310 LP  0  0  0  0  0  0  0  0  0  0  0  0  # atno 17394 bound_to 11000
  139.9771  134.7198  155.9929 LP  0  0  0  0  0  0  0  0  0  0  0  0  # atno 17395 bound_to 11000

$$$$
