AV-unprocessed.smi:2069|AV-procd|sdf|8436|dock9
  -GOLD-   2272011133D 1   1.00000     0.00000
 Structure written by MMmdl.
 37 38  0  0  0  0  0  0  0  0  2 V2000
  144.3352  133.1066  161.9842 C   0  0  0  0  0  0  0  0  0  0  0  0
  145.0730  134.2684  161.4129 C   0  0  0  0  0  0  0  0  0  0  0  0
  144.4829  135.1949  160.6540 N   0  0  0  0  0  0  0  0  0  0  0  0
  145.3719  136.1771  160.2427 N   0  0  0  0  0  0  0  0  0  0  0  0
  146.6167  135.9864  160.7024 C   0  0  0  0  0  0  0  0  0  0  0  0
  147.6256  136.8243  160.4122 N   0  5  0  0  0  0  0  0  0  0  0  0
  148.3453  136.6513  159.2800 C   0  0  0  0  0  0  0  0  0  0  0  0
  149.1141  135.7183  159.0370 O   0  0  0  0  0  0  0  0  0  0  0  0
  148.1620  137.6193  158.3724 N   0  0  0  0  0  0  0  0  0  0  0  0
  148.8148  137.6929  157.0692 C   0  0  0  0  0  0  0  0  0  0  0  0
  149.5249  139.0558  156.8418 C   0  0  1  0  0  0  0  0  0  0  0  0
  148.4477  140.1648  156.7293 C   0  0  0  0  0  0  0  0  0  0  0  0
  150.5549  139.3620  157.8626 N   0  0  0  0  0  0  0  0  0  0  0  0
  151.6110  138.3450  157.9277 C   0  0  0  0  0  0  0  0  0  0  0  0
  152.6991  138.6779  158.9633 C   0  0  0  0  0  0  0  0  0  0  0  0
  153.2626  139.9504  158.6773 O   0  0  0  0  0  0  0  0  0  0  0  0
  152.2831  140.9795  158.6828 C   0  0  0  0  0  0  0  0  0  0  0  0
  151.1948  140.6641  157.6422 C   0  0  0  0  0  0  0  0  0  0  0  0
  146.7872  134.5320  161.6856 S   0  0  0  0  0  0  0  0  0  0  0  0
  143.7287  133.4309  162.8298 H   0  0  0  0  0  0  0  0  0  0  0  0
  145.0349  132.3439  162.3264 H   0  0  0  0  0  0  0  0  0  0  0  0
  143.6818  132.6669  161.2301 H   0  0  0  0  0  0  0  0  0  0  0  0
  147.5251  138.3659  158.6088 H   0  0  0  0  0  0  0  0  0  0  0  0
  149.5343  136.8787  156.9675 H   0  0  0  0  0  0  0  0  0  0  0  0
  148.0274  137.5207  156.3374 H   0  0  0  0  0  0  0  0  0  0  0  0
  150.0220  138.9955  155.8723 H   0  0  0  0  0  0  0  0  0  0  0  0
  147.6609  139.9131  156.0189 H   0  0  0  0  0  0  0  0  0  0  0  0
  148.8597  141.1074  156.3720 H   0  0  0  0  0  0  0  0  0  0  0  0
  147.9700  140.3477  157.6923 H   0  0  0  0  0  0  0  0  0  0  0  0
  151.1984  137.3774  158.2059 H   0  0  0  0  0  0  0  0  0  0  0  0
  152.0702  138.2250  156.9452 H   0  0  0  0  0  0  0  0  0  0  0  0
  152.2857  138.6725  159.9730 H   0  0  0  0  0  0  0  0  0  0  0  0
  153.4884  137.9265  158.9373 H   0  0  0  0  0  0  0  0  0  0  0  0
  151.8491  141.0756  159.6793 H   0  0  0  0  0  0  0  0  0  0  0  0
  152.7647  141.9294  158.4506 H   0  0  0  0  0  0  0  0  0  0  0  0
  151.6296  140.6980  156.6419 H   0  0  0  0  0  0  0  0  0  0  0  0
  150.4615  141.4665  157.6961 H   0  0  0  0  0  0  0  0  0  0  0  0
  1  2  1  0  0  0  0
  1 20  1  0  0  0  0
  1 21  1  0  0  0  0
  1 22  1  0  0  0  0
  2 19  1  0  0  0  0
  2  3  2  0  0  0  0
  3  4  1  0  0  0  0
  4  5  2  0  0  0  0
  5  6  1  0  0  0  0
  5 19  1  0  0  0  0
  6  7  1  0  0  0  0
  7  8  2  0  0  0  0
  7  9  1  0  0  0  0
  9 10  1  0  0  0  0
  9 23  1  0  0  0  0
 10 11  1  0  0  0  0
 10 24  1  0  0  0  0
 10 25  1  0  0  0  0
 11 12  1  0  0  0  0
 11 13  1  0  0  0  0
 11 26  1  0  0  0  0
 12 27  1  0  0  0  0
 12 28  1  0  0  0  0
 12 29  1  0  0  0  0
 13 18  1  0  0  0  0
 13 14  1  0  0  0  0
 14 15  1  0  0  0  0
 14 30  1  0  0  0  0
 14 31  1  0  0  0  0
 15 16  1  0  0  0  0
 15 32  1  0  0  0  0
 15 33  1  0  0  0  0
 16 17  1  0  0  0  0
 17 18  1  0  0  0  0
 17 34  1  0  0  0  0
 17 35  1  0  0  0  0
 18 36  1  0  0  0  0
 18 37  1  0  0  0  0
M  CHG  1   6  -1
M  END
> <s_m_source_file>
AV-unprocessed.smi

> <i_m_source_file_index>
2069

> <i_lp_mmshare_version>
43012

> <i_f3d_flags>
0

> <s_epik_input>
W0NIM11jMW5uYyhzMSlbTkhdQyg9TylbTkhdW0NIMl1bQ0BIXShbQ0gzXSlOMltDSDJdW0NIMl1PW0NIMl1bQ0gyXTI=

> <s_epik_cmdline>
J2VwaWtfcHl0aG9uJywgJy1waCcsICc3LjAnLCAnLXRuJywgJzgnLCAnLW1hJywgJzIwMCcsICctbWV0YWxfYmluZGluZycsICctaW1hZScsICc8aW5maWxlLm1hZT4nLCAnLW9tYWUnLCAnPG91dGZpbGUubWFlPic=

> <r_lp_tautomer_probability>
1

> <r_epik_Ionization_Penalty>
3.82002

> <r_epik_Ionization_Penalty_Charging>
3.36369

> <r_epik_Ionization_Penalty_Neutral>
0.456339

> <r_epik_State_Penalty>
3.571

> <r_epik_Charging_Adjusted_Penalty>
6.93469

> <i_epik_Tot_Q>
-1

> <i_epik_Tot_abs_Q>
1

> <r_epik_Metal_State_Penalty>
0.710436

> <b_epik_Metal_Only>
1

> <s_lp_Force_Field>
OPLS_2005

> <r_lp_Energy>
26.7527

> <b_lp_Chiralities_Consistent>
1

> <s_lp_Variant>
AV-unprocessed.smi:2069-6

> <Gold.Version>
5.8.1

> <Gold.Id.Protein>
6NUR|6NUR_protein|mol2

> <Gold.PLP.Fitness>
38.0325

> <Gold.PLP.PLP>
-24.7392

> <Gold.PLP.part.hbond>
-4.0000

> <Gold.PLP.part.metal>
0.0000

> <Gold.PLP.part.buried>
-3.3259

> <Gold.PLP.part.nonpolar>
-17.3348

> <Gold.PLP.part.repulsive>
0.1685

> <Gold.PLP.ligand.clash>
0.0000

> <Gold.PLP.ligand.torsion>
1.4408

> <Gold.PLP.Chemscore.Hbond>
5.3840

> <Gold.PLP.Chemscore.CHOScore>
0.0000

> <Gold.PLP.Chemscore.Metal>
0.0000

> <Gold.Chemscore.Hbonds>
donor molecule, donor type, donor heavy atom, donor atom, acceptor molecule, acceptor atom, score
      P1  H  6896  6909       L1     8  1.00
      P1  H  6934  6947       L1     6  0.64
      P1  H  7997  8009       L1    16  0.73

> <Gold.PLP.Chemscore.Internal.Correction>
0.0228

> <Gold.Rescore>
     Score         DG    S(hbond)    S(metal)    S(lipo)     H(rot)  DE(clash)    DE(int)     intcor
     15.79     -17.32       2.90        0.00      52.74       1.57       0.12       1.41       ----

> <Gold.Chemscore.Fitness>
15.7944

> <Gold.Chemscore.DG>
-17.3248

> <Gold.Chemscore.ZeroCoef>
-5.4800

> <Gold.Chemscore.Hbond>
2.9048

> <Gold.Chemscore.Metal>
0.0000

> <Gold.Chemscore.Lipo>
52.7368

> <Gold.Chemscore.Internal_Hbond>
0.0000

> <Gold.Chemscore.DEClash>
0.1172

> <Gold.Chemscore.DEInternal>
1.4132

> <Gold.Chemscore.Rot>
1.5732

> <Gold.Chemscore.Internal.Correction>
   9.000000E+99

> <Gold.Chemscore.Hbonds>
donor molecule, donor type, donor heavy atom, donor atom, acceptor molecule, acceptor atom, score
      P1  H  6896  6909       L1     8  0.97
      P1  H  6931  6943       L1     6  0.01
      P1  H  6934  6947       L1     6  0.24
      P1  H  7997  8009       L1    16  0.63

> <Gold.Chemscore.Hbond.Weighted>
-9.7020

> <Gold.Chemscore.Metal.Weighted>
-0.0000

> <Gold.Chemscore.Lipo.Weighted>
-6.1702

> <Gold.Chemscore.Internal_Hbond.Weighted>
0.0000

> <Gold.Chemscore.DEClash.Weighted>
0.1172

> <Gold.Chemscore.DEInternal.Weighted>
1.4132

> <Gold.Chemscore.Rot.Weighted>
4.0274

> <Gold.Chemscore.Internal.Correction.Weighted>
   9.000000E+99

> <Gold.Protein.RotatedTorsions>
[ 6907 6896 6895 6894 ] final   57.03 input  -60.11 | X-H torsion
[ 7974 7965 7964 7962 ] final  -86.28 input  175.53 | X-H torsion
[ 8008 7997 7996 7995 ] final  136.30 input   59.86 | X-H torsion
[ 10167 10162 10161 10158 ] final   54.08 input  -65.29 | X-H torsion
[ 10718 10713 10712 10709 ] final -139.10 input   66.30 | X-H torsion
[ 10763 10752 10751 10750 ] final   58.67 input  -60.55 | X-H torsion
[ 11005 11000 10999 10996 ] final  -60.07 input  -57.11 | X-H torsion

> <Gold.Protein.ActiveResidues>
 VAL166  LYS551  ARG553  GLY616  TRP617  ASP618  TYR619  PRO620  LYS621  CYS622 
 ASP623  PHE694  ASN695  SER759  ASP760  ASP761  ALA762  ILE779  LEU786  VAL792 
 PHE793  MET794  SER795  GLU796  ALA797  LYS798  CYS799  TRP800  GLU811  SER814 

> <Gold.Protein.RotatedAtoms>
  152.3693  134.6758  160.0181 H   0  0  0  0  0  0  0  0  0  0  0  0  # atno 6907 bound_to 6896
  151.7056  133.3306  159.3285 H   0  0  0  0  0  0  0  0  0  0  0  0  # atno 6908 bound_to 6896
  150.7661  134.6512  159.6334 H   0  0  0  0  0  0  0  0  0  0  0  0  # atno 6909 bound_to 6896
  145.4820  140.9556  143.1859 H   0  0  0  0  0  0  0  0  0  0  0  0  # atno 7974 bound_to 7965
  156.3004  140.2448  156.3723 H   0  0  0  0  0  0  0  0  0  0  0  0  # atno 8008 bound_to 7997
  154.8778  140.0413  157.1783 H   0  0  0  0  0  0  0  0  0  0  0  0  # atno 8009 bound_to 7997
  154.8728  140.2937  155.5475 H   0  0  0  0  0  0  0  0  0  0  0  0  # atno 8010 bound_to 7997
  140.2339  144.3657  150.6404 H   0  0  0  0  0  0  0  0  0  0  0  0  # atno 10167 bound_to 10162
  156.3069  130.7460  151.1526 H   0  0  0  0  0  0  0  0  0  0  0  0  # atno 10718 bound_to 10713
  152.9876  135.5598  154.5590 H   0  0  0  0  0  0  0  0  0  0  0  0  # atno 10763 bound_to 10752
  154.5013  135.2797  155.1420 H   0  0  0  0  0  0  0  0  0  0  0  0  # atno 10764 bound_to 10752
  154.2850  135.6337  153.5415 H   0  0  0  0  0  0  0  0  0  0  0  0  # atno 10765 bound_to 10752
  141.1273  133.6620  156.5168 H   0  0  0  0  0  0  0  0  0  0  0  0  # atno 11005 bound_to 11000
  144.7883  139.6380  143.7124 LP  0  0  0  0  0  0  0  0  0  0  0  0  # atno 17320 bound_to 7965
  146.2335  139.5860  142.9539 LP  0  0  0  0  0  0  0  0  0  0  0  0  # atno 17321 bound_to 7965
  140.6164  143.2173  151.6782 LP  0  0  0  0  0  0  0  0  0  0  0  0  # atno 17342 bound_to 10162
  139.5100  144.3556  152.0611 LP  0  0  0  0  0  0  0  0  0  0  0  0  # atno 17343 bound_to 10162
  157.7382  131.0544  150.5311 LP  0  0  0  0  0  0  0  0  0  0  0  0  # atno 17370 bound_to 10713
  156.5446  130.4216  149.6137 LP  0  0  0  0  0  0  0  0  0  0  0  0  # atno 17371 bound_to 10713
  140.4324  134.7089  157.4949 LP  0  0  0  0  0  0  0  0  0  0  0  0  # atno 17394 bound_to 11000
  140.0284  134.6442  155.9140 LP  0  0  0  0  0  0  0  0  0  0  0  0  # atno 17395 bound_to 11000

$$$$
