AV-unprocessed.smi:234|AV-procd|sdf|1800|dock1
  -GOLD-   2262020373D 1   1.00000     0.00000
 Structure written by MMmdl.
 59 62  0  0  0  0  0  0  0  0  1 V2000
  152.8854  141.8642  159.5872 C   0  0  0  0  0  0  0  0  0  0  0  0
  151.9968  141.0625  158.6339 C   0  0  0  0  0  0  0  0  0  0  0  0
  152.7618  140.0105  158.0694 O   0  0  0  0  0  0  0  0  0  0  0  0
  151.9697  139.0613  157.3725 C   0  0  1  0  0  0  0  0  0  0  0  0
  152.8175  137.9716  156.7185 C   0  0  0  0  0  0  0  0  0  0  0  0
  151.7469  136.9573  157.1655 C   0  0  2  0  0  0  0  0  0  0  0  0
  150.7184  136.6047  156.1697 N   0  0  0  0  0  0  0  0  0  0  0  0
  150.1937  137.6214  155.2691 C   0  0  0  0  0  0  0  0  0  0  0  0
  150.3721  135.3315  155.8779 C   0  0  0  0  0  0  0  0  0  0  0  0
  151.2010  134.3234  156.2498 N   0  0  0  0  0  0  0  0  0  0  0  0
  150.8816  133.0577  155.9628 C   0  0  0  0  0  0  0  0  0  0  0  0
  149.8116  132.5932  155.3134 N   0  0  0  0  0  0  0  0  0  0  0  0
  148.9885  133.6082  154.9223 C   0  0  0  0  0  0  0  0  0  0  0  0
  149.1931  134.9954  155.1604 C   0  0  0  0  0  0  0  0  0  0  0  0
  148.1506  135.7330  154.6142 N   0  0  0  0  0  0  0  0  0  0  0  0
  147.3684  134.8304  154.0876 C   0  0  0  0  0  0  0  0  0  0  0  0
  147.8008  133.5289  154.2163 N   0  0  0  0  0  0  0  0  0  0  0  0
  147.1336  132.3350  153.7186 C   0  0  0  0  0  0  0  0  0  0  0  0
  146.8948  132.3560  152.1857 C   0  0  2  0  0  0  0  0  0  0  0  0
  148.1170  132.6951  151.5525 O   0  0  0  0  0  0  0  0  0  0  0  0
  145.8437  133.3759  151.7496 C   0  0  0  0  0  0  0  0  0  0  0  0
  145.2244  132.7342  150.5175 C   0  0  0  0  0  0  0  0  0  0  0  0
  145.1687  131.3686  150.8875 O   0  0  0  0  0  0  0  0  0  0  0  0
  146.3853  131.0321  151.5474 C   0  0  2  0  0  0  0  0  0  0  0  0
  146.1056  129.8594  152.5003 C   0  0  0  0  0  0  0  0  0  0  0  0
  151.2985  137.9791  158.2563 C   0  0  0  0  0  0  0  0  0  0  0  0
  151.9530  137.7359  159.6240 C   0  0  0  0  0  0  0  0  0  0  0  0
  149.8014  138.1660  158.5323 C   0  0  0  0  0  0  0  0  0  0  0  0
  152.3301  142.6872  160.0373 H   0  0  0  0  0  0  0  0  0  0  0  0
  153.7424  142.2861  159.0620 H   0  0  0  0  0  0  0  0  0  0  0  0
  153.2620  141.2333  160.3926 H   0  0  0  0  0  0  0  0  0  0  0  0
  151.1395  140.6639  159.1764 H   0  0  0  0  0  0  0  0  0  0  0  0
  151.6148  141.7123  157.8455 H   0  0  0  0  0  0  0  0  0  0  0  0
  151.2890  139.5182  156.6517 H   0  0  0  0  0  0  0  0  0  0  0  0
  152.9865  138.1056  155.6524 H   0  0  0  0  0  0  0  0  0  0  0  0
  153.7668  137.8194  157.2339 H   0  0  0  0  0  0  0  0  0  0  0  0
  152.2045  136.0687  157.6020 H   0  0  0  0  0  0  0  0  0  0  0  0
  149.1048  137.5743  155.2350 H   0  0  0  0  0  0  0  0  0  0  0  0
  150.5754  137.4834  154.2572 H   0  0  0  0  0  0  0  0  0  0  0  0
  150.4778  138.6188  155.6054 H   0  0  0  0  0  0  0  0  0  0  0  0
  151.5845  132.3104  156.3008 H   0  0  0  0  0  0  0  0  0  0  0  0
  146.4505  135.0921  153.5815 H   0  0  0  0  0  0  0  0  0  0  0  0
  147.7312  131.4672  154.0016 H   0  0  0  0  0  0  0  0  0  0  0  0
  146.1859  132.2444  154.2498 H   0  0  0  0  0  0  0  0  0  0  0  0
  148.4100  131.9517  151.0478 H   0  0  0  0  0  0  0  0  0  0  0  0
  145.0717  133.4697  152.5143 H   0  0  0  0  0  0  0  0  0  0  0  0
  146.2446  134.3728  151.5592 H   0  0  0  0  0  0  0  0  0  0  0  0
  144.2357  133.1303  150.2854 H   0  0  0  0  0  0  0  0  0  0  0  0
  145.8647  132.8573  149.6426 H   0  0  0  0  0  0  0  0  0  0  0  0
  147.0833  130.6896  150.7808 H   0  0  0  0  0  0  0  0  0  0  0  0
  147.0080  129.5528  153.0293 H   0  0  0  0  0  0  0  0  0  0  0  0
  145.7441  128.9937  151.9452 H   0  0  0  0  0  0  0  0  0  0  0  0
  145.3441  130.1131  153.2379 H   0  0  0  0  0  0  0  0  0  0  0  0
  151.5568  136.8387  160.1004 H   0  0  0  0  0  0  0  0  0  0  0  0
  151.7858  138.5691  160.3072 H   0  0  0  0  0  0  0  0  0  0  0  0
  153.0319  137.6035  159.5417 H   0  0  0  0  0  0  0  0  0  0  0  0
  149.3473  137.2519  158.9153 H   0  0  0  0  0  0  0  0  0  0  0  0
  149.2534  138.4554  157.6366 H   0  0  0  0  0  0  0  0  0  0  0  0
  149.6228  138.9481  159.2705 H   0  0  0  0  0  0  0  0  0  0  0  0
  1  2  1  0  0  0  0
  1 29  1  0  0  0  0
  1 30  1  0  0  0  0
  1 31  1  0  0  0  0
  2  3  1  0  0  0  0
  2 32  1  0  0  0  0
  2 33  1  0  0  0  0
  3  4  1  0  0  0  0
  4 26  1  0  0  0  0
  4  5  1  0  0  0  0
  4 34  1  0  0  0  0
  5  6  1  0  0  0  0
  5 35  1  0  0  0  0
  5 36  1  0  0  0  0
  6  7  1  0  0  0  0
  6 26  1  0  0  0  0
  6 37  1  0  0  0  0
  7  8  1  0  0  0  0
  7  9  1  0  0  0  0
  8 38  1  0  0  0  0
  8 39  1  0  0  0  0
  8 40  1  0  0  0  0
  9 14  1  0  0  0  0
  9 10  2  0  0  0  0
 10 11  1  0  0  0  0
 11 12  2  0  0  0  0
 11 41  1  0  0  0  0
 12 13  1  0  0  0  0
 13 17  1  0  0  0  0
 13 14  2  0  0  0  0
 14 15  1  0  0  0  0
 15 16  2  0  0  0  0
 16 17  1  0  0  0  0
 16 42  1  0  0  0  0
 17 18  1  0  0  0  0
 18 19  1  0  0  0  0
 18 43  1  0  0  0  0
 18 44  1  0  0  0  0
 19 24  1  0  0  0  0
 19 20  1  0  0  0  0
 19 21  1  0  0  0  0
 20 45  1  0  0  0  0
 21 22  1  0  0  0  0
 21 46  1  0  0  0  0
 21 47  1  0  0  0  0
 22 23  1  0  0  0  0
 22 48  1  0  0  0  0
 22 49  1  0  0  0  0
 23 24  1  0  0  0  0
 24 25  1  0  0  0  0
 24 50  1  0  0  0  0
 25 51  1  0  0  0  0
 25 52  1  0  0  0  0
 25 53  1  0  0  0  0
 26 27  1  0  0  0  0
 26 28  1  0  0  0  0
 27 54  1  0  0  0  0
 27 55  1  0  0  0  0
 27 56  1  0  0  0  0
 28 57  1  0  0  0  0
 28 58  1  0  0  0  0
 28 59  1  0  0  0  0
M  END
> <s_m_source_file>
AV-unprocessed.smi

> <i_m_source_file_index>
234

> <i_lp_mmshare_version>
43012

> <i_f3d_flags>
0

> <s_epik_input>
W0NIM11bQ0gyXU9bQ0BASF0oQzEoW0NIM10pW0NIM10pW0NIMl1bQ0BIXTFOKFtDSDNdKWMobltjSF1uMiljKGMyMyluW2NIXW4zW0NIMl1bQ0BAXTQoW09IXSlbQ0gyXVtDSDJdT1tDQEhdNFtDSDNd

> <s_epik_cmdline>
J2VwaWtfcHl0aG9uJywgJy1waCcsICc3LjAnLCAnLXRuJywgJzgnLCAnLW1hJywgJzIwMCcsICctbWV0YWxfYmluZGluZycsICctaW1hZScsICc8aW5maWxlLm1hZT4nLCAnLW9tYWUnLCAnPG91dGZpbGUubWFlPic=

> <r_lp_tautomer_probability>
1

> <r_epik_Ionization_Penalty>
0.00349132

> <r_epik_Ionization_Penalty_Charging>
0

> <r_epik_Ionization_Penalty_Neutral>
0.00349132

> <r_epik_State_Penalty>
0.00242418

> <r_epik_Charging_Adjusted_Penalty>
0.00242418

> <i_epik_Tot_Q>
0

> <i_epik_Tot_abs_Q>
0

> <r_epik_Metal_State_Penalty>
-0

> <b_epik_Metal_Only>
0

> <s_lp_Force_Field>
OPLS_2005

> <r_lp_Energy>
53.0859

> <b_lp_Chiralities_Consistent>
1

> <s_lp_Variant>
AV-unprocessed.smi:234-16

> <Gold.Version>
5.8.1

> <Gold.Id.Protein>
6NUR|6NUR_protein|mol2

> <Gold.PLP.Fitness>
42.0088

> <Gold.PLP.PLP>
-35.7486

> <Gold.PLP.part.hbond>
-2.7961

> <Gold.PLP.part.metal>
0.0000

> <Gold.PLP.part.buried>
-5.3869

> <Gold.PLP.part.nonpolar>
-26.6859

> <Gold.PLP.part.repulsive>
0.9091

> <Gold.PLP.ligand.clash>
0.0000

> <Gold.PLP.ligand.torsion>
0.6815

> <Gold.PLP.Chemscore.Hbond>
2.1535

> <Gold.PLP.Chemscore.CHOScore>
0.0000

> <Gold.PLP.Chemscore.Metal>
0.0000

> <Gold.Chemscore.Hbonds>
donor molecule, donor type, donor heavy atom, donor atom, acceptor molecule, acceptor atom, score
      L1  H    20    45       P1 10747  0.78
      P1  H  7997  8010       L1     3  0.84

> <Gold.PLP.Chemscore.Internal.Correction>
1.1626

> <Gold.Rescore>
     Score         DG    S(hbond)    S(metal)    S(lipo)     H(rot)  DE(clash)    DE(int)     intcor
     13.48     -15.83       1.75        0.00      90.32       2.37       0.29       2.06       ----

> <Gold.Chemscore.Fitness>
13.4848

> <Gold.Chemscore.DG>
-15.8321

> <Gold.Chemscore.ZeroCoef>
-5.4800

> <Gold.Chemscore.Hbond>
1.7502

> <Gold.Chemscore.Metal>
0.0000

> <Gold.Chemscore.Lipo>
90.3211

> <Gold.Chemscore.Internal_Hbond>
0.0000

> <Gold.Chemscore.DEClash>
0.2868

> <Gold.Chemscore.DEInternal>
2.0606

> <Gold.Chemscore.Rot>
2.3676

> <Gold.Chemscore.Internal.Correction>
   9.000000E+99

> <Gold.Chemscore.Hbonds>
donor molecule, donor type, donor heavy atom, donor atom, acceptor molecule, acceptor atom, score
      L1  H    20    45       P1 10747  0.79
      P1  H  7997  8010       L1     3  0.32

> <Gold.Chemscore.Hbond.Weighted>
-5.8456

> <Gold.Chemscore.Metal.Weighted>
-0.0000

> <Gold.Chemscore.Lipo.Weighted>
-10.5676

> <Gold.Chemscore.Internal_Hbond.Weighted>
0.0000

> <Gold.Chemscore.DEClash.Weighted>
0.2868

> <Gold.Chemscore.DEInternal.Weighted>
2.0606

> <Gold.Chemscore.Rot.Weighted>
6.0610

> <Gold.Chemscore.Internal.Correction.Weighted>
   9.000000E+99

> <Gold.Protein.RotatedTorsions>
[ 6907 6896 6895 6894 ] final    2.45 input  -60.11 | X-H torsion
[ 7974 7965 7964 7962 ] final  116.97 input  175.53 | X-H torsion
[ 8008 7997 7996 7995 ] final   39.15 input   59.86 | X-H torsion
[ 10167 10162 10161 10158 ] final  112.51 input  -65.29 | X-H torsion
[ 10718 10713 10712 10709 ] final   33.54 input   66.30 | X-H torsion
[ 10763 10752 10751 10750 ] final  -40.37 input  -60.55 | X-H torsion
[ 11005 11000 10999 10996 ] final -158.47 input  -57.11 | X-H torsion

> <Gold.Protein.ActiveResidues>
 VAL166  LYS551  ARG553  GLY616  TRP617  ASP618  TYR619  PRO620  LYS621  CYS622 
 ASP623  PHE694  ASN695  SER759  ASP760  ASP761  ALA762  ILE779  LEU786  VAL792 
 PHE793  MET794  SER795  GLU796  ALA797  LYS798  CYS799  TRP800  GLU811  SER814 

> <Gold.Protein.RotatedAtoms>
  151.6090  135.1041  160.0076 H   0  0  0  0  0  0  0  0  0  0  0  0  # atno 6907 bound_to 6896
  152.4218  133.7125  159.6497 H   0  0  0  0  0  0  0  0  0  0  0  0  # atno 6908 bound_to 6896
  150.8106  133.8356  159.3206 H   0  0  0  0  0  0  0  0  0  0  0  0  # atno 6909 bound_to 6896
  145.1731  139.3090  143.4457 H   0  0  0  0  0  0  0  0  0  0  0  0  # atno 7974 bound_to 7965
  155.2319  140.3339  155.4302 H   0  0  0  0  0  0  0  0  0  0  0  0  # atno 8008 bound_to 7997
  156.2291  140.1842  156.7334 H   0  0  0  0  0  0  0  0  0  0  0  0  # atno 8009 bound_to 7997
  154.5948  140.0632  156.9274 H   0  0  0  0  0  0  0  0  0  0  0  0  # atno 8010 bound_to 7997
  139.6530  144.7128  151.2010 H   0  0  0  0  0  0  0  0  0  0  0  0  # atno 10167 bound_to 10162
  157.2991  130.7341  149.6656 H   0  0  0  0  0  0  0  0  0  0  0  0  # atno 10718 bound_to 10713
  153.9449  135.6757  153.4744 H   0  0  0  0  0  0  0  0  0  0  0  0  # atno 10763 bound_to 10752
  153.0913  135.4873  154.8692 H   0  0  0  0  0  0  0  0  0  0  0  0  # atno 10764 bound_to 10752
  154.7357  135.3148  154.8774 H   0  0  0  0  0  0  0  0  0  0  0  0  # atno 10765 bound_to 10752
  140.6532  134.4428  157.5235 H   0  0  0  0  0  0  0  0  0  0  0  0  # atno 11005 bound_to 11000
  146.3465  140.1884  142.8589 LP  0  0  0  0  0  0  0  0  0  0  0  0  # atno 17320 bound_to 7965
  145.0212  140.8795  143.5165 LP  0  0  0  0  0  0  0  0  0  0  0  0  # atno 17321 bound_to 7965
  140.7546  143.6118  150.8598 LP  0  0  0  0  0  0  0  0  0  0  0  0  # atno 17342 bound_to 10162
  139.9768  143.5996  152.2956 LP  0  0  0  0  0  0  0  0  0  0  0  0  # atno 17343 bound_to 10162
  155.9670  130.4285  150.4793 LP  0  0  0  0  0  0  0  0  0  0  0  0  # atno 17370 bound_to 10713
  157.2770  131.0599  151.2223 LP  0  0  0  0  0  0  0  0  0  0  0  0  # atno 17371 bound_to 10713
  139.9038  134.8495  156.1786 LP  0  0  0  0  0  0  0  0  0  0  0  0  # atno 17394 bound_to 11000
  141.0521  133.6884  156.1791 LP  0  0  0  0  0  0  0  0  0  0  0  0  # atno 17395 bound_to 11000

$$$$
