AV-unprocessed.smi:2632|AV-procd|sdf|10251|dock4
  -GOLD-   2272014263D 1   1.00000     0.00000
 Structure written by MMmdl.
 37 38  0  0  0  0  0  0  0  0  2 V2000
  147.7891  136.0951  160.0759 C   0  0  0  0  0  0  0  0  0  0  0  0
  148.6655  137.2045  160.1559 O   0  0  0  0  0  0  0  0  0  0  0  0
  149.9128  136.9606  159.5279 C   0  0  0  0  0  0  0  0  0  0  0  0
  149.6958  136.6307  158.0408 C   0  0  0  0  0  0  0  0  0  0  0  0
  150.5430  137.4641  157.1610 N   0  0  0  0  0  0  0  0  0  0  0  0
  150.3044  138.8629  157.1034 C   0  0  0  0  0  0  0  0  0  0  0  0
  149.2957  139.4271  157.8673 N   0  0  0  0  0  0  0  0  0  0  0  0
  151.0732  139.6342  156.3022 C   0  0  0  0  0  0  0  0  0  0  0  0
  150.9390  141.3978  156.1116 S   0  0  0  0  0  0  0  0  0  0  0  0
  151.4888  141.9453  157.6940 C   0  0  0  0  0  0  0  0  0  0  0  0
  151.5208  143.3220  157.9907 C   0  0  0  0  0  0  0  0  0  0  0  0
  151.9524  143.7567  159.2591 C   0  0  0  0  0  0  0  0  0  0  0  0
  152.3552  142.8171  160.2310 C   0  0  0  0  0  0  0  0  0  0  0  0
  152.8152  143.2912  161.5941 C   0  0  0  0  0  0  0  0  0  0  0  0
  152.3232  141.4394  159.9289 C   0  0  0  0  0  0  0  0  0  0  0  0
  151.8914  141.0036  158.6613 C   0  0  0  0  0  0  0  0  0  0  0  0
  152.1409  139.0371  155.4976 C   0  0  0  0  0  0  0  0  0  0  0  0
  152.8428  139.7247  154.7546 O   0  0  0  0  0  0  0  0  0  0  0  0
  152.3153  137.6927  155.6182 N   0  5  0  0  0  0  0  0  0  0  0  0
  151.5536  136.8980  156.4281 C   0  0  0  0  0  0  0  0  0  0  0  0
  151.7541  135.6858  156.5135 O   0  0  0  0  0  0  0  0  0  0  0  0
  146.8505  136.3344  160.5755 H   0  0  0  0  0  0  0  0  0  0  0  0
  148.2165  135.2183  160.5637 H   0  0  0  0  0  0  0  0  0  0  0  0
  147.5643  135.8446  159.0383 H   0  0  0  0  0  0  0  0  0  0  0  0
  150.5373  137.8510  159.6131 H   0  0  0  0  0  0  0  0  0  0  0  0
  150.4396  136.1480  160.0304 H   0  0  0  0  0  0  0  0  0  0  0  0
  149.8561  135.5642  157.8764 H   0  0  0  0  0  0  0  0  0  0  0  0
  148.6453  136.7714  157.7862 H   0  0  0  0  0  0  0  0  0  0  0  0
  148.7150  138.8665  158.4739 H   0  0  0  0  0  0  0  0  0  0  0  0
  149.1587  140.4265  157.9107 H   0  0  0  0  0  0  0  0  0  0  0  0
  151.2118  144.0449  157.2502 H   0  0  0  0  0  0  0  0  0  0  0  0
  151.9728  144.8128  159.4849 H   0  0  0  0  0  0  0  0  0  0  0  0
  153.2839  142.4835  162.1572 H   0  0  0  0  0  0  0  0  0  0  0  0
  151.9670  143.6621  162.1695 H   0  0  0  0  0  0  0  0  0  0  0  0
  153.5413  144.0978  161.4916 H   0  0  0  0  0  0  0  0  0  0  0  0
  152.6273  140.7119  160.6670 H   0  0  0  0  0  0  0  0  0  0  0  0
  151.8654  139.9476  158.4350 H   0  0  0  0  0  0  0  0  0  0  0  0
  1  2  1  0  0  0  0
  1 22  1  0  0  0  0
  1 23  1  0  0  0  0
  1 24  1  0  0  0  0
  2  3  1  0  0  0  0
  3  4  1  0  0  0  0
  3 25  1  0  0  0  0
  3 26  1  0  0  0  0
  4  5  1  0  0  0  0
  4 27  1  0  0  0  0
  4 28  1  0  0  0  0
  5 20  1  0  0  0  0
  5  6  1  0  0  0  0
  6  7  1  0  0  0  0
  6  8  2  0  0  0  0
  7 29  1  0  0  0  0
  7 30  1  0  0  0  0
  8  9  1  0  0  0  0
  8 17  1  0  0  0  0
  9 10  1  0  0  0  0
 10 16  1  0  0  0  0
 10 11  2  0  0  0  0
 11 12  1  0  0  0  0
 11 31  1  0  0  0  0
 12 13  2  0  0  0  0
 12 32  1  0  0  0  0
 13 14  1  0  0  0  0
 13 15  1  0  0  0  0
 14 33  1  0  0  0  0
 14 34  1  0  0  0  0
 14 35  1  0  0  0  0
 15 16  2  0  0  0  0
 15 36  1  0  0  0  0
 16 37  1  0  0  0  0
 17 18  2  0  0  0  0
 17 19  1  0  0  0  0
 19 20  1  0  0  0  0
 20 21  2  0  0  0  0
M  CHG  1  19  -1
M  END
> <s_m_source_file>
AV-unprocessed.smi

> <i_m_source_file_index>
2632

> <i_lp_mmshare_version>
43012

> <i_f3d_flags>
0

> <s_epik_input>
W0NIM11PW0NIMl1bQ0gyXW4xYyhbTkgyXSljKGMoPU8pW25IXWMxPU8pU2MyW2NIXVtjSF1jKFtDSDNdKVtjSF1bY0hdMg==

> <s_epik_cmdline>
J2VwaWtfcHl0aG9uJywgJy1waCcsICc3LjAnLCAnLXRuJywgJzgnLCAnLW1hJywgJzIwMCcsICctbWV0YWxfYmluZGluZycsICctaW1hZScsICc8aW5maWxlLm1hZT4nLCAnLW9tYWUnLCAnPG91dGZpbGUubWFlPic=

> <r_lp_tautomer_probability>
1

> <r_epik_Ionization_Penalty>
6.52921

> <r_epik_Ionization_Penalty_Charging>
0.111036

> <r_epik_Ionization_Penalty_Neutral>
6.41817

> <r_epik_State_Penalty>
6.41816

> <r_epik_Charging_Adjusted_Penalty>
6.5292

> <i_epik_Tot_Q>
-1

> <i_epik_Tot_abs_Q>
1

> <r_epik_Metal_State_Penalty>
2.337

> <b_epik_Metal_Only>
1

> <s_epik_Chemistry_Notes>
This compound has an imine and may undergo hydrolysis.

> <s_lp_Force_Field>
OPLS_2005

> <r_lp_Energy>
30.26

> <b_lp_Chiralities_Consistent>
1

> <s_lp_Variant>
AV-unprocessed.smi:2632-2

> <Gold.Version>
5.8.1

> <Gold.Id.Protein>
6NUR|6NUR_protein|mol2

> <Gold.PLP.Fitness>
46.5431

> <Gold.PLP.PLP>
-38.7110

> <Gold.PLP.part.hbond>
-5.2156

> <Gold.PLP.part.metal>
0.0000

> <Gold.PLP.part.buried>
-5.3818

> <Gold.PLP.part.nonpolar>
-29.4358

> <Gold.PLP.part.repulsive>
0.1942

> <Gold.PLP.ligand.clash>
0.0000

> <Gold.PLP.ligand.torsion>
0.4771

> <Gold.PLP.Chemscore.Hbond>
2.9032

> <Gold.PLP.Chemscore.CHOScore>
0.0000

> <Gold.PLP.Chemscore.Metal>
0.0000

> <Gold.Chemscore.Hbonds>
donor molecule, donor type, donor heavy atom, donor atom, acceptor molecule, acceptor atom, score
      P1  H  6931  6943       L1     2  0.54
      P1  H  7989  7998       L1    18  0.41
      P1  H  7997  8010       L1    18  1.00
      P1  H 10752 10764       L1    21  1.00

> <Gold.PLP.Chemscore.Internal.Correction>
0.0765

> <Gold.Rescore>
     Score         DG    S(hbond)    S(metal)    S(lipo)     H(rot)  DE(clash)    DE(int)     intcor
     17.92     -19.58       2.44        0.00      94.02       1.97       0.47       1.19       ----

> <Gold.Chemscore.Fitness>
17.9197

> <Gold.Chemscore.DG>
-19.5776

> <Gold.Chemscore.ZeroCoef>
-5.4800

> <Gold.Chemscore.Hbond>
2.4407

> <Gold.Chemscore.Metal>
0.0000

> <Gold.Chemscore.Lipo>
94.0184

> <Gold.Chemscore.Internal_Hbond>
0.0000

> <Gold.Chemscore.DEClash>
0.4681

> <Gold.Chemscore.DEInternal>
1.1898

> <Gold.Chemscore.Rot>
1.9744

> <Gold.Chemscore.Internal.Correction>
   9.000000E+99

> <Gold.Chemscore.Hbonds>
donor molecule, donor type, donor heavy atom, donor atom, acceptor molecule, acceptor atom, score
      P1  H  6931  6943       L1     2  0.31
      P1  H  6934  6947       L1     2  0.01
      P1  H  7989  7998       L1    18  0.31
      P1  H  7997  8010       L1    18  0.37
      P1  H 10752 10764       L1    21  0.24

> <Gold.Chemscore.Hbond.Weighted>
-8.1520

> <Gold.Chemscore.Metal.Weighted>
-0.0000

> <Gold.Chemscore.Lipo.Weighted>
-11.0002

> <Gold.Chemscore.Internal_Hbond.Weighted>
0.0000

> <Gold.Chemscore.DEClash.Weighted>
0.4681

> <Gold.Chemscore.DEInternal.Weighted>
1.1898

> <Gold.Chemscore.Rot.Weighted>
5.0546

> <Gold.Chemscore.Internal.Correction.Weighted>
   9.000000E+99

> <Gold.Protein.RotatedTorsions>
[ 6907 6896 6895 6894 ] final  -38.72 input  -60.11 | X-H torsion
[ 7974 7965 7964 7962 ] final  -16.86 input  175.53 | X-H torsion
[ 8008 7997 7996 7995 ] final  100.91 input   59.86 | X-H torsion
[ 10167 10162 10161 10158 ] final -150.83 input  -65.29 | X-H torsion
[ 10718 10713 10712 10709 ] final   80.82 input   66.30 | X-H torsion
[ 10763 10752 10751 10750 ] final  -29.01 input  -60.55 | X-H torsion
[ 11005 11000 10999 10996 ] final   -3.32 input  -57.11 | X-H torsion

> <Gold.Protein.ActiveResidues>
 VAL166  LYS551  ARG553  GLY616  TRP617  ASP618  TYR619  PRO620  LYS621  CYS622 
 ASP623  PHE694  ASN695  SER759  ASP760  ASP761  ALA762  ILE779  LEU786  VAL792 
 PHE793  MET794  SER795  GLU796  ALA797  LYS798  CYS799  TRP800  GLU811  SER814 

> <Gold.Protein.RotatedAtoms>
  150.9991  134.9307  159.7942 H   0  0  0  0  0  0  0  0  0  0  0  0  # atno 6907 bound_to 6896
  152.5273  134.3179  159.9147 H   0  0  0  0  0  0  0  0  0  0  0  0  # atno 6908 bound_to 6896
  151.3184  133.4009  159.2687 H   0  0  0  0  0  0  0  0  0  0  0  0  # atno 6909 bound_to 6896
  146.1968  140.3696  142.8437 H   0  0  0  0  0  0  0  0  0  0  0  0  # atno 7974 bound_to 7965
  156.1249  140.3206  155.8262 H   0  0  0  0  0  0  0  0  0  0  0  0  # atno 8008 bound_to 7997
  155.4438  140.0527  157.3025 H   0  0  0  0  0  0  0  0  0  0  0  0  # atno 8009 bound_to 7997
  154.4855  140.2071  155.9679 H   0  0  0  0  0  0  0  0  0  0  0  0  # atno 8010 bound_to 7997
  139.7320  143.8794  152.2537 H   0  0  0  0  0  0  0  0  0  0  0  0  # atno 10167 bound_to 10162
  157.6816  130.9976  150.2136 H   0  0  0  0  0  0  0  0  0  0  0  0  # atno 10718 bound_to 10713
  153.7576  135.6921  153.4932 H   0  0  0  0  0  0  0  0  0  0  0  0  # atno 10763 bound_to 10752
  153.1960  135.4453  155.0207 H   0  0  0  0  0  0  0  0  0  0  0  0  # atno 10764 bound_to 10752
  154.8165  135.3401  154.7093 H   0  0  0  0  0  0  0  0  0  0  0  0  # atno 10765 bound_to 10752
  140.6680  133.9262  155.8477 H   0  0  0  0  0  0  0  0  0  0  0  0  # atno 11005 bound_to 11000
  144.8598  140.7122  143.6115 LP  0  0  0  0  0  0  0  0  0  0  0  0  # atno 17320 bound_to 7965
  145.3616  139.1680  143.4380 LP  0  0  0  0  0  0  0  0  0  0  0  0  # atno 17321 bound_to 7965
  139.8720  144.7063  150.8977 LP  0  0  0  0  0  0  0  0  0  0  0  0  # atno 17342 bound_to 10162
  140.7772  143.3731  151.1613 LP  0  0  0  0  0  0  0  0  0  0  0  0  # atno 17343 bound_to 10162
  156.2802  130.3732  149.7943 LP  0  0  0  0  0  0  0  0  0  0  0  0  # atno 17370 bound_to 10713
  156.5634  130.8393  151.3335 LP  0  0  0  0  0  0  0  0  0  0  0  0  # atno 17371 bound_to 10713
  141.0414  134.0616  157.3897 LP  0  0  0  0  0  0  0  0  0  0  0  0  # atno 17394 bound_to 11000
  139.8991  135.0157  156.7179 LP  0  0  0  0  0  0  0  0  0  0  0  0  # atno 17395 bound_to 11000

$$$$
