AV-unprocessed.smi:3018|AV-procd|sdf|11480|dock1
  -GOLD-   2272016413D 1   1.00000     0.00000
 Structure written by MMmdl.
 45 46  0  0  0  0  0  0  0  0  1 V2000
  152.4774  138.4759  154.6718 C   0  0  0  0  0  0  0  0  0  0  0  0
  151.9722  138.1985  156.0978 C   0  0  0  0  0  0  0  0  0  0  0  0
  151.3812  139.4117  156.8483 C   0  0  1  0  0  0  0  0  0  0  0  0
  152.4673  140.1910  157.3559 O   0  0  0  0  0  0  0  0  0  0  0  0
  152.1982  141.1139  158.4132 C   0  0  0  0  0  0  0  0  0  0  0  0
  151.8640  142.4627  157.7525 C   0  0  0  0  0  0  0  0  0  0  0  0
  151.6205  143.5623  158.7984 C   0  0  0  0  0  0  0  0  0  0  0  0
  152.8187  143.7003  159.7498 C   0  0  0  0  0  0  0  0  0  0  0  0
  153.1590  142.3567  160.4131 C   0  0  0  0  0  0  0  0  0  0  0  0
  153.4044  141.2599  159.3642 C   0  0  0  0  0  0  0  0  0  0  0  0
  150.4509  140.2700  155.9726 C   0  0  0  0  0  0  0  0  0  0  0  0
  150.8472  140.7256  154.8997 O   0  0  0  0  0  0  0  0  0  0  0  0
  149.2376  140.5340  156.4822 N   0  0  0  0  0  0  0  0  0  0  0  0
  148.2506  141.4416  155.9023 C   0  0  0  0  0  0  0  0  0  0  0  0
  147.0028  140.6820  155.4028 C   0  0  0  0  0  0  0  0  0  0  0  0
  147.2491  139.6879  154.2751 C   0  0  0  0  0  0  0  0  0  0  0  0
  147.8394  138.5465  154.3431 N   0  0  0  0  0  0  0  0  0  0  0  0
  147.7398  138.1199  153.0597 N   0  0  0  0  0  0  0  0  0  0  0  0
  147.1044  138.9687  152.2433 C   0  0  0  0  0  0  0  0  0  0  0  0
  146.8617  138.8239  151.0479 O   0  0  0  0  0  0  0  0  0  0  0  0
  146.7883  139.9974  153.0192 N   0  0  0  0  0  0  0  0  0  0  0  0
  148.1234  137.2203  152.8079 H   0  0  0  0  0  0  0  0  0  0  0  0
  146.2848  140.8323  152.7563 H   0  0  0  0  0  0  0  0  0  0  0  0
  152.9618  137.5907  154.2592 H   0  0  0  0  0  0  0  0  0  0  0  0
  153.2070  139.2862  154.6586 H   0  0  0  0  0  0  0  0  0  0  0  0
  151.6646  138.7415  153.9966 H   0  0  0  0  0  0  0  0  0  0  0  0
  151.2304  137.3997  156.0613 H   0  0  0  0  0  0  0  0  0  0  0  0
  152.8012  137.8031  156.6855 H   0  0  0  0  0  0  0  0  0  0  0  0
  150.8075  139.0175  157.6873 H   0  0  0  0  0  0  0  0  0  0  0  0
  151.3265  140.8052  158.9879 H   0  0  0  0  0  0  0  0  0  0  0  0
  152.6813  142.7620  157.0950 H   0  0  0  0  0  0  0  0  0  0  0  0
  150.9820  142.3556  157.1203 H   0  0  0  0  0  0  0  0  0  0  0  0
  151.4300  144.5131  158.3001 H   0  0  0  0  0  0  0  0  0  0  0  0
  150.7227  143.3306  159.3716 H   0  0  0  0  0  0  0  0  0  0  0  0
  153.6849  144.0636  159.1955 H   0  0  0  0  0  0  0  0  0  0  0  0
  152.6031  144.4485  160.5130 H   0  0  0  0  0  0  0  0  0  0  0  0
  154.0389  142.4674  161.0471 H   0  0  0  0  0  0  0  0  0  0  0  0
  152.3417  142.0568  161.0698 H   0  0  0  0  0  0  0  0  0  0  0  0
  153.6052  140.3214  159.8795 H   0  0  0  0  0  0  0  0  0  0  0  0
  154.2994  141.4977  158.7881 H   0  0  0  0  0  0  0  0  0  0  0  0
  149.0028  140.1183  157.3723 H   0  0  0  0  0  0  0  0  0  0  0  0
  147.9706  142.2379  156.5939 H   0  0  0  0  0  0  0  0  0  0  0  0
  148.7251  141.9391  155.0563 H   0  0  0  0  0  0  0  0  0  0  0  0
  146.5483  140.1445  156.2354 H   0  0  0  0  0  0  0  0  0  0  0  0
  146.2567  141.4050  155.0700 H   0  0  0  0  0  0  0  0  0  0  0  0
  1  2  1  0  0  0  0
  1 24  1  0  0  0  0
  1 25  1  0  0  0  0
  1 26  1  0  0  0  0
  2  3  1  0  0  0  0
  2 27  1  0  0  0  0
  2 28  1  0  0  0  0
  3  4  1  0  0  0  0
  3 11  1  0  0  0  0
  3 29  1  0  0  0  0
  4  5  1  0  0  0  0
  5 10  1  0  0  0  0
  5  6  1  0  0  0  0
  5 30  1  0  0  0  0
  6  7  1  0  0  0  0
  6 31  1  0  0  0  0
  6 32  1  0  0  0  0
  7  8  1  0  0  0  0
  7 33  1  0  0  0  0
  7 34  1  0  0  0  0
  8  9  1  0  0  0  0
  8 35  1  0  0  0  0
  8 36  1  0  0  0  0
  9 10  1  0  0  0  0
  9 37  1  0  0  0  0
  9 38  1  0  0  0  0
 10 39  1  0  0  0  0
 10 40  1  0  0  0  0
 11 12  2  0  0  0  0
 11 13  1  0  0  0  0
 13 14  1  0  0  0  0
 13 41  1  0  0  0  0
 14 15  1  0  0  0  0
 14 42  1  0  0  0  0
 14 43  1  0  0  0  0
 15 16  1  0  0  0  0
 15 44  1  0  0  0  0
 15 45  1  0  0  0  0
 16 21  1  0  0  0  0
 16 17  2  0  0  0  0
 17 18  1  0  0  0  0
 18 22  1  0  0  0  0
 18 19  1  0  0  0  0
 19 20  2  0  0  0  0
 19 21  1  0  0  0  0
 21 23  1  0  0  0  0
M  END
> <s_m_source_file>
AV-unprocessed.smi

> <i_m_source_file_index>
3018

> <i_lp_mmshare_version>
43012

> <i_f3d_flags>
0

> <s_epik_input>
W0NIMl0xW0NIMl1bQ0gyXVtDSDJdW0NIMl1bQ0hdMU9bQ0BASF0oW0NIMl1bQ0gzXSlDKD1PKVtOSF1bQ0gyXVtDSDJdYzJuW25IXWMoPU8pW25IXTI=

> <s_epik_cmdline>
J2VwaWtfcHl0aG9uJywgJy1waCcsICc3LjAnLCAnLXRuJywgJzgnLCAnLW1hJywgJzIwMCcsICctbWV0YWxfYmluZGluZycsICctaW1hZScsICc8aW5maWxlLm1hZT4nLCAnLW9tYWUnLCAnPG91dGZpbGUubWFlPic=

> <r_lp_tautomer_probability>
1

> <r_epik_Ionization_Penalty>
0.000773817

> <r_epik_Ionization_Penalty_Charging>
0.000773741

> <r_epik_Ionization_Penalty_Neutral>
7.58514e-08

> <r_epik_State_Penalty>
-0

> <r_epik_Charging_Adjusted_Penalty>
0.000773741

> <i_epik_Tot_Q>
0

> <i_epik_Tot_abs_Q>
0

> <r_epik_Metal_State_Penalty>
0.495152

> <b_epik_Metal_Only>
0

> <s_lp_Force_Field>
OPLS_2005

> <r_lp_Energy>
29.5576

> <b_lp_Chiralities_Consistent>
1

> <s_lp_Variant>
AV-unprocessed.smi:3018-2

> <Gold.Version>
5.8.1

> <Gold.Id.Protein>
6NUR|6NUR_protein|mol2

> <Gold.PLP.Fitness>
44.3653

> <Gold.PLP.PLP>
-33.9420

> <Gold.PLP.part.hbond>
-4.4728

> <Gold.PLP.part.metal>
0.0000

> <Gold.PLP.part.buried>
-3.4235

> <Gold.PLP.part.nonpolar>
-26.0269

> <Gold.PLP.part.repulsive>
1.1246

> <Gold.PLP.ligand.clash>
0.0000

> <Gold.PLP.ligand.torsion>
0.9761

> <Gold.PLP.Chemscore.Hbond>
3.8880

> <Gold.PLP.Chemscore.CHOScore>
0.0000

> <Gold.PLP.Chemscore.Metal>
0.0000

> <Gold.Chemscore.Hbonds>
donor molecule, donor type, donor heavy atom, donor atom, acceptor molecule, acceptor atom, score
      L1  H    18    22       P1  7948  1.00
      P1  H  7954  7966       L1    20  0.90
      P1  H  7989  7998       L1    12  0.90
      P1  H  7997  8008       L1     4  0.99

> <Gold.PLP.Chemscore.Internal.Correction>
0.7115

> <Gold.Rescore>
     Score         DG    S(hbond)    S(metal)    S(lipo)     H(rot)  DE(clash)    DE(int)     intcor
     16.78     -19.28       3.48        0.00      85.01       3.04       0.30       2.20       ----

> <Gold.Chemscore.Fitness>
16.7755

> <Gold.Chemscore.DG>
-19.2794

> <Gold.Chemscore.ZeroCoef>
-5.4800

> <Gold.Chemscore.Hbond>
3.4814

> <Gold.Chemscore.Metal>
0.0000

> <Gold.Chemscore.Lipo>
85.0054

> <Gold.Chemscore.Internal_Hbond>
0.0000

> <Gold.Chemscore.DEClash>
0.3033

> <Gold.Chemscore.DEInternal>
2.2007

> <Gold.Chemscore.Rot>
3.0367

> <Gold.Chemscore.Internal.Correction>
   9.000000E+99

> <Gold.Chemscore.Hbonds>
donor molecule, donor type, donor heavy atom, donor atom, acceptor molecule, acceptor atom, score
      L1  H    18    22       P1  7948  0.95
      P1  H  7954  7966       L1    20  0.84
      P1  H  7989  7998       L1    12  0.87
      P1  H  7997  8008       L1     4  0.84

> <Gold.Chemscore.Hbond.Weighted>
-11.6277

> <Gold.Chemscore.Metal.Weighted>
-0.0000

> <Gold.Chemscore.Lipo.Weighted>
-9.9456

> <Gold.Chemscore.Internal_Hbond.Weighted>
0.0000

> <Gold.Chemscore.DEClash.Weighted>
0.3033

> <Gold.Chemscore.DEInternal.Weighted>
2.2007

> <Gold.Chemscore.Rot.Weighted>
7.7739

> <Gold.Chemscore.Internal.Correction.Weighted>
   9.000000E+99

> <Gold.Protein.RotatedTorsions>
[ 6907 6896 6895 6894 ] final  127.34 input  -60.11 | X-H torsion
[ 7974 7965 7964 7962 ] final   55.67 input  175.53 | X-H torsion
[ 8008 7997 7996 7995 ] final  -60.20 input   59.86 | X-H torsion
[ 10167 10162 10161 10158 ] final  156.61 input  -65.29 | X-H torsion
[ 10718 10713 10712 10709 ] final  -79.55 input   66.30 | X-H torsion
[ 10763 10752 10751 10750 ] final  127.01 input  -60.55 | X-H torsion
[ 11005 11000 10999 10996 ] final  -81.00 input  -57.11 | X-H torsion

> <Gold.Protein.ActiveResidues>
 VAL166  LYS551  ARG553  GLY616  TRP617  ASP618  TYR619  PRO620  LYS621  CYS622 
 ASP623  PHE694  ASN695  SER759  ASP760  ASP761  ALA762  ILE779  LEU786  VAL792 
 PHE793  MET794  SER795  GLU796  ALA797  LYS798  CYS799  TRP800  GLU811  SER814 

> <Gold.Protein.RotatedAtoms>
  152.3822  133.6561  159.6169 H   0  0  0  0  0  0  0  0  0  0  0  0  # atno 6907 bound_to 6896
  150.7750  133.9095  159.3374 H   0  0  0  0  0  0  0  0  0  0  0  0  # atno 6908 bound_to 6896
  151.6899  135.0949  160.0283 H   0  0  0  0  0  0  0  0  0  0  0  0  # atno 6909 bound_to 6896
  145.9479  139.3946  143.0324 H   0  0  0  0  0  0  0  0  0  0  0  0  # atno 7974 bound_to 7965
  154.4388  140.1045  156.6236 H   0  0  0  0  0  0  0  0  0  0  0  0  # atno 8008 bound_to 7997
  155.5680  140.3488  155.4489 H   0  0  0  0  0  0  0  0  0  0  0  0  # atno 8009 bound_to 7997
  156.0410  140.1282  157.0144 H   0  0  0  0  0  0  0  0  0  0  0  0  # atno 8010 bound_to 7997
  139.4821  144.4993  151.8192 H   0  0  0  0  0  0  0  0  0  0  0  0  # atno 10167 bound_to 10162
  156.0090  130.4549  150.3666 H   0  0  0  0  0  0  0  0  0  0  0  0  # atno 10718 bound_to 10713
  153.7026  135.3281  155.3228 H   0  0  0  0  0  0  0  0  0  0  0  0  # atno 10763 bound_to 10752
  154.8408  135.4458  154.1395 H   0  0  0  0  0  0  0  0  0  0  0  0  # atno 10764 bound_to 10752
  153.2467  135.6977  153.7802 H   0  0  0  0  0  0  0  0  0  0  0  0  # atno 10765 bound_to 10752
  141.1667  133.7176  156.8357 H   0  0  0  0  0  0  0  0  0  0  0  0  # atno 11005 bound_to 11000
  145.8211  140.9678  143.0898 LP  0  0  0  0  0  0  0  0  0  0  0  0  # atno 17320 bound_to 7965
  144.6790  140.0043  143.7484 LP  0  0  0  0  0  0  0  0  0  0  0  0  # atno 17321 bound_to 7965
  140.4485  144.1888  150.5895 LP  0  0  0  0  0  0  0  0  0  0  0  0  # atno 17342 bound_to 10162
  140.4610  143.2449  151.9220 LP  0  0  0  0  0  0  0  0  0  0  0  0  # atno 17343 bound_to 10162
  157.1752  131.0378  151.2776 LP  0  0  0  0  0  0  0  0  0  0  0  0  # atno 17370 bound_to 10713
  157.4194  130.7429  149.6901 LP  0  0  0  0  0  0  0  0  0  0  0  0  # atno 17371 bound_to 10713
  140.2019  134.8890  157.3179 LP  0  0  0  0  0  0  0  0  0  0  0  0  # atno 17394 bound_to 11000
  140.2178  134.4060  155.7580 LP  0  0  0  0  0  0  0  0  0  0  0  0  # atno 17395 bound_to 11000

$$$$
