AV-unprocessed.smi:3023|AV-procd|sdf|11502|dock7
  -GOLD-   2272016433D 1   1.00000     0.00000
 Structure written by MMmdl.
 43 44  0  0  0  0  0  0  0  0  2 V2000
  145.0682  137.9840  153.7684 C   0  0  0  0  0  0  0  0  0  0  0  0
  145.8761  139.2104  153.9557 N   0  3  1  0  0  0  0  0  0  0  0  0
  146.1292  139.4932  155.3951 C   0  0  0  0  0  0  0  0  0  0  0  0
  146.0996  141.0002  155.7322 C   0  0  0  0  0  0  0  0  0  0  0  0
  146.8869  141.9155  154.7733 C   0  0  0  0  0  0  0  0  0  0  0  0
  148.0529  141.2269  154.1989 N   0  0  0  0  0  0  0  0  0  0  0  0
  149.2594  141.0895  154.8053 C   0  0  0  0  0  0  0  0  0  0  0  0
  150.2059  140.4962  154.2872 O   0  0  0  0  0  0  0  0  0  0  0  0
  149.3442  141.6677  156.0172 N   0  0  0  0  0  0  0  0  0  0  0  0
  150.5459  141.7478  156.8449 C   0  0  0  0  0  0  0  0  0  0  0  0
  151.0597  143.1940  156.9698 C   0  0  0  0  0  0  0  0  0  0  0  0
  151.2681  143.6177  158.4000 C   0  0  0  0  0  0  0  0  0  0  0  0
  150.6723  144.7163  159.0832 C   0  0  0  0  0  0  0  0  0  0  0  0
  151.0443  144.7965  160.3502 N   0  0  0  0  0  0  0  0  0  0  0  0
  151.8918  143.7608  160.5179 N   0  0  0  0  0  0  0  0  0  0  0  0
  152.4973  143.5349  161.8126 C   0  0  0  0  0  0  0  0  0  0  0  0
  152.0485  143.0341  159.3579 C   0  0  0  0  0  0  0  0  0  0  0  0
  147.7581  140.5644  152.9218 C   0  0  0  0  0  0  0  0  0  0  0  0
  147.1172  139.1771  153.1297 C   0  0  0  0  0  0  0  0  0  0  0  0
  145.6033  137.1054  154.1311 H   0  0  0  0  0  0  0  0  0  0  0  0
  144.8320  137.8309  152.7149 H   0  0  0  0  0  0  0  0  0  0  0  0
  144.1223  138.0577  154.3060 H   0  0  0  0  0  0  0  0  0  0  0  0
  145.3715  139.0082  156.0126 H   0  0  0  0  0  0  0  0  0  0  0  0
  147.0770  139.0476  155.7009 H   0  0  0  0  0  0  0  0  0  0  0  0
  145.0659  141.3457  155.7710 H   0  0  0  0  0  0  0  0  0  0  0  0
  146.4886  141.1263  156.7432 H   0  0  0  0  0  0  0  0  0  0  0  0
  146.2162  142.2384  153.9763 H   0  0  0  0  0  0  0  0  0  0  0  0
  147.1694  142.8431  155.2734 H   0  0  0  0  0  0  0  0  0  0  0  0
  148.5211  142.1315  156.3727 H   0  0  0  0  0  0  0  0  0  0  0  0
  150.3082  141.3567  157.8343 H   0  0  0  0  0  0  0  0  0  0  0  0
  151.3357  141.1073  156.4490 H   0  0  0  0  0  0  0  0  0  0  0  0
  151.9906  143.2849  156.4092 H   0  0  0  0  0  0  0  0  0  0  0  0
  150.3557  143.8624  156.4729 H   0  0  0  0  0  0  0  0  0  0  0  0
  149.9744  145.4459  158.6999 H   0  0  0  0  0  0  0  0  0  0  0  0
  153.3431  142.8536  161.7146 H   0  0  0  0  0  0  0  0  0  0  0  0
  151.7632  143.0961  162.4892 H   0  0  0  0  0  0  0  0  0  0  0  0
  152.8512  144.4783  162.2299 H   0  0  0  0  0  0  0  0  0  0  0  0
  152.6873  142.1644  159.3124 H   0  0  0  0  0  0  0  0  0  0  0  0
  147.0977  141.1843  152.3145 H   0  0  0  0  0  0  0  0  0  0  0  0
  148.6611  140.4603  152.3177 H   0  0  0  0  0  0  0  0  0  0  0  0
  147.8366  138.4870  153.5737 H   0  0  0  0  0  0  0  0  0  0  0  0
  146.8815  138.7721  152.1447 H   0  0  0  0  0  0  0  0  0  0  0  0
  145.3063  139.9665  153.6036 H   0  0  0  0  0  0  0  0  0  0  0  0
  1  2  1  0  0  0  0
  1 20  1  0  0  0  0
  1 21  1  0  0  0  0
  1 22  1  0  0  0  0
  2 19  1  0  0  0  0
  2  3  1  0  0  0  0
  2 43  1  0  0  0  0
  3  4  1  0  0  0  0
  3 23  1  0  0  0  0
  3 24  1  0  0  0  0
  4  5  1  0  0  0  0
  4 25  1  0  0  0  0
  4 26  1  0  0  0  0
  5  6  1  0  0  0  0
  5 27  1  0  0  0  0
  5 28  1  0  0  0  0
  6  7  1  0  0  0  0
  6 18  1  0  0  0  0
  7  8  2  0  0  0  0
  7  9  1  0  0  0  0
  9 10  1  0  0  0  0
  9 29  1  0  0  0  0
 10 11  1  0  0  0  0
 10 30  1  0  0  0  0
 10 31  1  0  0  0  0
 11 12  1  0  0  0  0
 11 32  1  0  0  0  0
 11 33  1  0  0  0  0
 12 17  2  0  0  0  0
 12 13  1  0  0  0  0
 13 14  2  0  0  0  0
 13 34  1  0  0  0  0
 14 15  1  0  0  0  0
 15 16  1  0  0  0  0
 15 17  1  0  0  0  0
 16 35  1  0  0  0  0
 16 36  1  0  0  0  0
 16 37  1  0  0  0  0
 17 38  1  0  0  0  0
 18 19  1  0  0  0  0
 18 39  1  0  0  0  0
 18 40  1  0  0  0  0
 19 41  1  0  0  0  0
 19 42  1  0  0  0  0
M  CHG  1   2   1
M  END
> <s_m_source_file>
AV-unprocessed.smi

> <i_m_source_file_index>
3023

> <i_lp_mmshare_version>
43012

> <i_f3d_flags>
0

> <s_epik_input>
W0NIM11OMVtDSDJdW0NIMl1bQ0gyXU4oW0NIMl1bQ0gyXTEpQyg9TylbTkhdW0NIMl1bQ0gyXWMyW2NIXW5uKFtDSDNdKVtjSF0y

> <s_epik_cmdline>
J2VwaWtfcHl0aG9uJywgJy1waCcsICc3LjAnLCAnLXRuJywgJzgnLCAnLW1hJywgJzIwMCcsICctbWV0YWxfYmluZGluZycsICctaW1hZScsICc8aW5maWxlLm1hZT4nLCAnLW9tYWUnLCAnPG91dGZpbGUubWFlPic=

> <r_lp_tautomer_probability>
1

> <r_epik_Ionization_Penalty>
0.00258886

> <r_epik_Ionization_Penalty_Charging>
0.00208099

> <r_epik_Ionization_Penalty_Neutral>
0.00050787

> <r_epik_State_Penalty>
-0

> <r_epik_Charging_Adjusted_Penalty>
0.00208099

> <i_epik_Tot_Q>
1

> <i_epik_Tot_abs_Q>
1

> <r_epik_Metal_State_Penalty>
-0

> <b_epik_Metal_Only>
0

> <s_lp_Force_Field>
OPLS_2005

> <r_lp_Energy>
39.0301

> <b_lp_Chiralities_Consistent>
1

> <s_lp_Variant>
AV-unprocessed.smi:3023-2

> <Gold.Version>
5.8.1

> <Gold.Id.Protein>
6NUR|6NUR_protein|mol2

> <Gold.PLP.Fitness>
46.0381

> <Gold.PLP.PLP>
-35.5758

> <Gold.PLP.part.hbond>
-2.9578

> <Gold.PLP.part.metal>
0.0000

> <Gold.PLP.part.buried>
0.6755

> <Gold.PLP.part.nonpolar>
-34.2187

> <Gold.PLP.part.repulsive>
0.3749

> <Gold.PLP.ligand.clash>
0.0000

> <Gold.PLP.ligand.torsion>
0.4074

> <Gold.PLP.Chemscore.Hbond>
2.7520

> <Gold.PLP.Chemscore.CHOScore>
1.0000

> <Gold.PLP.Chemscore.Metal>
0.0000

> <Gold.Chemscore.Hbonds>
donor molecule, donor type, donor heavy atom, donor atom, acceptor molecule, acceptor atom, score
      L1  H     2    43       P1 10175  1.81
      P1  H  7989  7998       L1     8  0.88
      L1  C    13    34       P1  8029  0.94

> <Gold.PLP.Chemscore.Internal.Correction>
0.0210

> <Gold.Rescore>
     Score         DG    S(hbond)    S(metal)    S(lipo)     H(rot)  DE(clash)    DE(int)     intcor
     15.65     -18.05       1.83        0.00      85.48       1.39       2.05       0.35       ----

> <Gold.Chemscore.Fitness>
15.6481

> <Gold.Chemscore.DG>
-18.0476

> <Gold.Chemscore.ZeroCoef>
-5.4800

> <Gold.Chemscore.Hbond>
1.8343

> <Gold.Chemscore.Metal>
0.0000

> <Gold.Chemscore.Lipo>
85.4779

> <Gold.Chemscore.Internal_Hbond>
0.0000

> <Gold.Chemscore.DEClash>
2.0456

> <Gold.Chemscore.DEInternal>
0.3538

> <Gold.Chemscore.Rot>
1.3906

> <Gold.Chemscore.Internal.Correction>
   9.000000E+99

> <Gold.Chemscore.Hbonds>
donor molecule, donor type, donor heavy atom, donor atom, acceptor molecule, acceptor atom, score
      L1  H     2    43       P1 10175  0.82
      P1  H  7989  7998       L1     8  0.86

> <Gold.Chemscore.Hbond.Weighted>
-6.1265

> <Gold.Chemscore.Metal.Weighted>
-0.0000

> <Gold.Chemscore.Lipo.Weighted>
-10.0009

> <Gold.Chemscore.Internal_Hbond.Weighted>
0.0000

> <Gold.Chemscore.DEClash.Weighted>
2.0456

> <Gold.Chemscore.DEInternal.Weighted>
0.3538

> <Gold.Chemscore.Rot.Weighted>
3.5598

> <Gold.Chemscore.Internal.Correction.Weighted>
   9.000000E+99

> <Gold.Protein.RotatedTorsions>
[ 6907 6896 6895 6894 ] final  170.33 input  -60.11 | X-H torsion
[ 7974 7965 7964 7962 ] final -150.53 input  175.53 | X-H torsion
[ 8008 7997 7996 7995 ] final  -51.91 input   59.86 | X-H torsion
[ 10167 10162 10161 10158 ] final  146.70 input  -65.29 | X-H torsion
[ 10718 10713 10712 10709 ] final -154.68 input   66.30 | X-H torsion
[ 10763 10752 10751 10750 ] final  -77.04 input  -60.55 | X-H torsion
[ 11005 11000 10999 10996 ] final   94.98 input  -57.11 | X-H torsion

> <Gold.Protein.ActiveResidues>
 VAL166  LYS551  ARG553  GLY616  TRP617  ASP618  TYR619  PRO620  LYS621  CYS622 
 ASP623  PHE694  ASN695  SER759  ASP760  ASP761  ALA762  ILE779  LEU786  VAL792 
 PHE793  MET794  SER795  GLU796  ALA797  LYS798  CYS799  TRP800  GLU811  SER814 

> <Gold.Protein.RotatedAtoms>
  151.8178  133.3390  159.3574 H   0  0  0  0  0  0  0  0  0  0  0  0  # atno 6907 bound_to 6896
  150.7304  134.5603  159.5848 H   0  0  0  0  0  0  0  0  0  0  0  0  # atno 6908 bound_to 6896
  152.3028  134.7592  160.0405 H   0  0  0  0  0  0  0  0  0  0  0  0  # atno 6909 bound_to 6896
  144.7902  140.4920  143.5778 H   0  0  0  0  0  0  0  0  0  0  0  0  # atno 7974 bound_to 7965
  154.4094  140.1236  156.4905 H   0  0  0  0  0  0  0  0  0  0  0  0  # atno 8008 bound_to 7997
  155.6995  140.3495  155.4907 H   0  0  0  0  0  0  0  0  0  0  0  0  # atno 8009 bound_to 7997
  155.9398  140.1085  157.1055 H   0  0  0  0  0  0  0  0  0  0  0  0  # atno 8010 bound_to 7997
  139.4902  144.5810  151.6872 H   0  0  0  0  0  0  0  0  0  0  0  0  # atno 10167 bound_to 10162
  156.5026  130.8398  151.2615 H   0  0  0  0  0  0  0  0  0  0  0  0  # atno 10718 bound_to 10713
  154.5077  135.5777  153.6580 H   0  0  0  0  0  0  0  0  0  0  0  0  # atno 10763 bound_to 10752
  152.9891  135.6151  154.2919 H   0  0  0  0  0  0  0  0  0  0  0  0  # atno 10764 bound_to 10752
  154.2832  135.2850  155.2667 H   0  0  0  0  0  0  0  0  0  0  0  0  # atno 10765 bound_to 10752
  139.8793  134.8874  156.3944 H   0  0  0  0  0  0  0  0  0  0  0  0  # atno 11005 bound_to 11000
  145.5814  139.1489  143.3233 LP  0  0  0  0  0  0  0  0  0  0  0  0  # atno 17320 bound_to 7965
  146.2151  140.5944  142.9042 LP  0  0  0  0  0  0  0  0  0  0  0  0  # atno 17321 bound_to 7965
  140.5416  144.0570  150.6090 LP  0  0  0  0  0  0  0  0  0  0  0  0  # atno 17342 bound_to 10162
  140.3594  143.2917  152.0400 LP  0  0  0  0  0  0  0  0  0  0  0  0  # atno 17343 bound_to 10162
  157.7461  130.9976  150.2824 LP  0  0  0  0  0  0  0  0  0  0  0  0  # atno 17370 bound_to 10713
  156.3318  130.3801  149.7484 LP  0  0  0  0  0  0  0  0  0  0  0  0  # atno 17371 bound_to 10713
  140.9310  133.7579  156.0025 LP  0  0  0  0  0  0  0  0  0  0  0  0  # atno 17394 bound_to 11000
  140.8330  134.3156  157.5342 LP  0  0  0  0  0  0  0  0  0  0  0  0  # atno 17395 bound_to 11000

$$$$
