AV-unprocessed.smi:371|AV-procd|sdf|2442|dock1
  -GOLD-   2262022383D 1   1.00000     0.00000
 Structure written by MMmdl.
 39 40  0  0  0  0  0  0  0  0  1 V2000
  149.8770  134.6308  156.0081 C   0  0  0  0  0  0  0  0  0  0  0  0
  149.8384  136.1187  156.3340 C   0  0  0  0  0  0  0  0  0  0  0  0
  150.4428  137.0347  155.3947 C   0  0  0  0  0  0  0  0  0  0  0  0
  150.5342  138.3468  155.6656 C   0  0  0  0  0  0  0  0  0  0  0  0
  151.1686  139.3066  154.6655 C   0  0  0  0  0  0  0  0  0  0  0  0
  150.0029  138.8732  156.8750 N   0  0  0  0  0  0  0  0  0  0  0  0
  150.2121  140.3074  157.1971 C   0  0  0  0  0  0  0  0  0  0  0  0
  151.3434  140.5356  158.2323 C   0  0  1  0  0  0  0  0  0  0  0  0
  152.5123  139.8996  157.7546 O   0  0  0  0  0  0  0  0  0  0  0  0
  151.5763  142.0066  158.5638 C   0  0  0  0  0  0  0  0  0  0  0  0
  150.8667  143.0133  157.8711 C   0  0  0  0  0  0  0  0  0  0  0  0
  151.0511  144.3701  158.1999 C   0  0  0  0  0  0  0  0  0  0  0  0
  151.9461  144.7310  159.2243 C   0  0  0  0  0  0  0  0  0  0  0  0
  152.6573  143.7344  159.9189 C   0  0  0  0  0  0  0  0  0  0  0  0
  152.4750  142.3767  159.5914 C   0  0  0  0  0  0  0  0  0  0  0  0
  153.1546  141.4308  160.2835 F   0  0  0  0  0  0  0  0  0  0  0  0
  149.3032  138.0897  157.7589 C   0  0  0  0  0  0  0  0  0  0  0  0
  148.7269  138.5982  158.7260 O   0  0  0  0  0  0  0  0  0  0  0  0
  149.3036  136.6291  157.4755 C   0  0  0  0  0  0  0  0  0  0  0  0
  148.6813  135.7607  158.4935 C   0  0  0  0  0  0  0  0  0  0  0  0
  147.7529  136.3552  159.2566 N   0  0  0  0  0  0  0  0  0  0  0  0
  149.0103  134.5978  158.7220 O   0  0  0  0  0  0  0  0  0  0  0  0
  150.5078  134.4337  155.1408 H   0  0  0  0  0  0  0  0  0  0  0  0
  148.8765  134.2631  155.7799 H   0  0  0  0  0  0  0  0  0  0  0  0
  150.2811  134.0560  156.8420 H   0  0  0  0  0  0  0  0  0  0  0  0
  150.8339  136.6548  154.4619 H   0  0  0  0  0  0  0  0  0  0  0  0
  151.6113  138.7599  153.8325 H   0  0  0  0  0  0  0  0  0  0  0  0
  151.9656  139.8988  155.1119 H   0  0  0  0  0  0  0  0  0  0  0  0
  150.4175  139.9772  154.2472 H   0  0  0  0  0  0  0  0  0  0  0  0
  150.4140  140.8846  156.2963 H   0  0  0  0  0  0  0  0  0  0  0  0
  149.2964  140.7702  157.5686 H   0  0  0  0  0  0  0  0  0  0  0  0
  151.0901  140.0203  159.1576 H   0  0  0  0  0  0  0  0  0  0  0  0
  152.3947  138.9646  157.8256 H   0  0  0  0  0  0  0  0  0  0  0  0
  150.1665  142.7474  157.0928 H   0  0  0  0  0  0  0  0  0  0  0  0
  150.5013  145.1333  157.6689 H   0  0  0  0  0  0  0  0  0  0  0  0
  152.0855  145.7713  159.4789 H   0  0  0  0  0  0  0  0  0  0  0  0
  153.3408  144.0112  160.7080 H   0  0  0  0  0  0  0  0  0  0  0  0
  147.2888  135.8337  159.9864 H   0  0  0  0  0  0  0  0  0  0  0  0
  147.5307  137.3287  159.1069 H   0  0  0  0  0  0  0  0  0  0  0  0
  1  2  1  0  0  0  0
  1 23  1  0  0  0  0
  1 24  1  0  0  0  0
  1 25  1  0  0  0  0
  2 19  2  0  0  0  0
  2  3  1  0  0  0  0
  3  4  2  0  0  0  0
  3 26  1  0  0  0  0
  4  5  1  0  0  0  0
  4  6  1  0  0  0  0
  5 27  1  0  0  0  0
  5 28  1  0  0  0  0
  5 29  1  0  0  0  0
  6  7  1  0  0  0  0
  6 17  1  0  0  0  0
  7  8  1  0  0  0  0
  7 30  1  0  0  0  0
  7 31  1  0  0  0  0
  8  9  1  0  0  0  0
  8 10  1  0  0  0  0
  8 32  1  0  0  0  0
  9 33  1  0  0  0  0
 10 15  1  0  0  0  0
 10 11  2  0  0  0  0
 11 12  1  0  0  0  0
 11 34  1  0  0  0  0
 12 13  2  0  0  0  0
 12 35  1  0  0  0  0
 13 14  1  0  0  0  0
 13 36  1  0  0  0  0
 14 15  2  0  0  0  0
 14 37  1  0  0  0  0
 15 16  1  0  0  0  0
 17 18  2  0  0  0  0
 17 19  1  0  0  0  0
 19 20  1  0  0  0  0
 20 21  1  0  0  0  0
 20 22  2  0  0  0  0
 21 38  1  0  0  0  0
 21 39  1  0  0  0  0
M  END
> <s_m_source_file>
AV-unprocessed.smi

> <i_m_source_file_index>
371

> <i_lp_mmshare_version>
43012

> <i_f3d_flags>
0

> <s_epik_input>
W0NIM11jMVtjSF1jKFtDSDNdKW4oYyg9TyljMUMoPU8pW05IMl0pW0NIMl1bQ0BIXShbT0hdKWMyW2NIXVtjSF1bY0hdW2NIXWMyRg==

> <s_epik_cmdline>
J2VwaWtfcHl0aG9uJywgJy1waCcsICc3LjAnLCAnLXRuJywgJzgnLCAnLW1hJywgJzIwMCcsICctbWV0YWxfYmluZGluZycsICctaW1hZScsICc8aW5maWxlLm1hZT4nLCAnLW9tYWUnLCAnPG91dGZpbGUubWFlPic=

> <r_lp_tautomer_probability>
1

> <r_epik_Ionization_Penalty>
3.46512e-07

> <r_epik_Ionization_Penalty_Charging>
1.35363e-07

> <r_epik_Ionization_Penalty_Neutral>
2.11149e-07

> <r_epik_State_Penalty>
-0

> <r_epik_Charging_Adjusted_Penalty>
1.35363e-07

> <i_epik_Tot_Q>
0

> <i_epik_Tot_abs_Q>
0

> <r_epik_Metal_State_Penalty>
-0

> <b_epik_Metal_Only>
0

> <s_lp_Force_Field>
OPLS_2005

> <r_lp_Energy>
37.7279

> <b_lp_Chiralities_Consistent>
1

> <s_lp_Variant>
AV-unprocessed.smi:371-2

> <Gold.Version>
5.8.1

> <Gold.Id.Protein>
6NUR|6NUR_protein|mol2

> <Gold.PLP.Fitness>
46.4018

> <Gold.PLP.PLP>
-41.1915

> <Gold.PLP.part.hbond>
-2.3385

> <Gold.PLP.part.metal>
0.0000

> <Gold.PLP.part.buried>
-5.0317

> <Gold.PLP.part.nonpolar>
-34.1519

> <Gold.PLP.part.repulsive>
0.1005

> <Gold.PLP.ligand.clash>
0.0000

> <Gold.PLP.ligand.torsion>
0.6304

> <Gold.PLP.Chemscore.Hbond>
2.0000

> <Gold.PLP.Chemscore.CHOScore>
0.0000

> <Gold.PLP.Chemscore.Metal>
0.0000

> <Gold.Chemscore.Hbonds>
donor molecule, donor type, donor heavy atom, donor atom, acceptor molecule, acceptor atom, score
      P1  H  6896  6907       L1    22  1.00
      P1  H  7997  8008       L1     9  0.60

> <Gold.PLP.Chemscore.Internal.Correction>
0.4710

> <Gold.Rescore>
     Score         DG    S(hbond)    S(metal)    S(lipo)     H(rot)  DE(clash)    DE(int)     intcor
     16.48     -19.88       1.99        0.00     110.98       2.04       0.03       3.38       ----

> <Gold.Chemscore.Fitness>
16.4777

> <Gold.Chemscore.DG>
-19.8846

> <Gold.Chemscore.ZeroCoef>
-5.4800

> <Gold.Chemscore.Hbond>
1.9883

> <Gold.Chemscore.Metal>
0.0000

> <Gold.Chemscore.Lipo>
110.9832

> <Gold.Chemscore.Internal_Hbond>
0.0000

> <Gold.Chemscore.DEClash>
0.0268

> <Gold.Chemscore.DEInternal>
3.3801

> <Gold.Chemscore.Rot>
2.0396

> <Gold.Chemscore.Internal.Correction>
   9.000000E+99

> <Gold.Chemscore.Hbonds>
donor molecule, donor type, donor heavy atom, donor atom, acceptor molecule, acceptor atom, score
      P1  H  6896  6907       L1    22  0.94
      P1  H  7997  8008       L1     9  0.19

> <Gold.Chemscore.Hbond.Weighted>
-6.6409

> <Gold.Chemscore.Metal.Weighted>
-0.0000

> <Gold.Chemscore.Lipo.Weighted>
-12.9850

> <Gold.Chemscore.Internal_Hbond.Weighted>
0.0000

> <Gold.Chemscore.DEClash.Weighted>
0.0268

> <Gold.Chemscore.DEInternal.Weighted>
3.3801

> <Gold.Chemscore.Rot.Weighted>
5.2214

> <Gold.Chemscore.Internal.Correction.Weighted>
   9.000000E+99

> <Gold.Protein.RotatedTorsions>
[ 6907 6896 6895 6894 ] final  -84.83 input  -60.11 | X-H torsion
[ 7974 7965 7964 7962 ] final  107.49 input  175.53 | X-H torsion
[ 8008 7997 7996 7995 ] final  -84.34 input   59.86 | X-H torsion
[ 10167 10162 10161 10158 ] final -157.55 input  -65.29 | X-H torsion
[ 10718 10713 10712 10709 ] final  138.21 input   66.30 | X-H torsion
[ 10763 10752 10751 10750 ] final  115.36 input  -60.55 | X-H torsion
[ 11005 11000 10999 10996 ] final  104.43 input  -57.11 | X-H torsion

> <Gold.Protein.ActiveResidues>
 VAL166  LYS551  ARG553  GLY616  TRP617  ASP618  TYR619  PRO620  LYS621  CYS622 
 ASP623  PHE694  ASN695  SER759  ASP760  ASP761  ALA762  ILE779  LEU786  VAL792 
 PHE793  MET794  SER795  GLU796  ALA797  LYS798  CYS799  TRP800  GLU811  SER814 

> <Gold.Protein.RotatedAtoms>
  150.6874  134.3298  159.4821 H   0  0  0  0  0  0  0  0  0  0  0  0  # atno 6907 bound_to 6896
  152.1164  134.9235  160.0574 H   0  0  0  0  0  0  0  0  0  0  0  0  # atno 6908 bound_to 6896
  152.0458  133.3962  159.4393 H   0  0  0  0  0  0  0  0  0  0  0  0  # atno 6909 bound_to 6896
  145.2929  139.2594  143.3855 H   0  0  0  0  0  0  0  0  0  0  0  0  # atno 7974 bound_to 7965
  154.6287  140.0606  156.9706 H   0  0  0  0  0  0  0  0  0  0  0  0  # atno 8008 bound_to 7997
  155.1700  140.3290  155.4376 H   0  0  0  0  0  0  0  0  0  0  0  0  # atno 8009 bound_to 7997
  156.2471  140.1916  156.6802 H   0  0  0  0  0  0  0  0  0  0  0  0  # atno 8010 bound_to 7997
  139.6762  143.9660  152.2311 H   0  0  0  0  0  0  0  0  0  0  0  0  # atno 10167 bound_to 10162
  157.4278  131.1045  151.0283 H   0  0  0  0  0  0  0  0  0  0  0  0  # atno 10718 bound_to 10713
  153.5211  135.3597  155.2632 H   0  0  0  0  0  0  0  0  0  0  0  0  # atno 10763 bound_to 10752
  154.8735  135.4046  154.3259 H   0  0  0  0  0  0  0  0  0  0  0  0  # atno 10764 bound_to 10752
  153.3929  135.7072  153.6548 H   0  0  0  0  0  0  0  0  0  0  0  0  # atno 10765 bound_to 10752
  139.8792  134.9300  156.5360 H   0  0  0  0  0  0  0  0  0  0  0  0  # atno 11005 bound_to 11000
  146.3178  140.3425  142.8649 LP  0  0  0  0  0  0  0  0  0  0  0  0  # atno 17320 bound_to 7965
  144.9157  140.7810  143.5779 LP  0  0  0  0  0  0  0  0  0  0  0  0  # atno 17321 bound_to 7965
  139.9437  144.6665  150.8240 LP  0  0  0  0  0  0  0  0  0  0  0  0  # atno 17342 bound_to 10162
  140.7636  143.3227  151.2585 LP  0  0  0  0  0  0  0  0  0  0  0  0  # atno 17343 bound_to 10162
  157.1191  130.6054  149.5500 LP  0  0  0  0  0  0  0  0  0  0  0  0  # atno 17370 bound_to 10713
  155.9902  130.4953  150.7249 LP  0  0  0  0  0  0  0  0  0  0  0  0  # atno 17371 bound_to 10713
  140.8345  133.8253  155.9016 LP  0  0  0  0  0  0  0  0  0  0  0  0  # atno 17394 bound_to 11000
  140.9296  134.2038  157.4872 LP  0  0  0  0  0  0  0  0  0  0  0  0  # atno 17395 bound_to 11000

$$$$
