AV-unprocessed.smi:1131|AV-procd|sdf|4851|dock9
  -GOLD-   22720 3423D 1   1.00000     0.00000
 Structure written by MMmdl.
 33 34  0  0  0  0  0  0  0  0  1 V2000
  146.9476  132.4463  153.8468 O   0  0  0  0  0  0  0  0  0  0  0  0
  147.6680  133.3418  153.4032 C   0  0  0  0  0  0  0  0  0  0  0  0
  149.1775  133.3582  153.6848 C   0  0  0  0  0  0  0  0  0  0  0  0
  149.6461  132.1784  154.4269 N   0  0  0  0  0  0  0  0  0  0  0  0
  149.3839  130.9024  153.9489 C   0  0  0  0  0  0  0  0  0  0  0  0
  149.7799  129.7728  154.5820 C   0  0  0  0  0  0  0  0  0  0  0  0
  150.5234  129.8504  155.8348 C   0  0  0  0  0  0  0  0  0  0  0  0
  150.9282  128.8859  156.4801 O   0  0  0  0  0  0  0  0  0  0  0  0
  150.7640  131.1511  156.2854 N   0  0  0  0  0  0  0  0  0  0  0  0
  150.3565  132.3192  155.6391 C   0  0  0  0  0  0  0  0  0  0  0  0
  150.6169  133.4186  156.1265 O   0  0  0  0  0  0  0  0  0  0  0  0
  147.2049  134.3430  152.6417 N   0  0  0  0  0  0  0  0  0  0  0  0
  145.8109  134.5099  152.2532 C   0  0  0  0  0  0  0  0  0  0  0  0
  145.5503  133.8987  150.8666 C   0  0  1  0  0  0  0  0  0  0  0  0
  146.1732  132.5328  150.6665 C   0  0  0  0  0  0  0  0  0  0  0  0
  145.3927  132.0092  149.4652 C   0  0  0  0  0  0  0  0  0  0  0  0
  144.0860  132.5640  149.5833 O   0  0  0  0  0  0  0  0  0  0  0  0
  144.0807  133.6011  150.5608 C   0  0  0  0  0  0  0  0  0  0  0  0
  151.2726  131.2546  157.1513 H   0  0  0  0  0  0  0  0  0  0  0  0
  149.7007  133.4326  152.7303 H   0  0  0  0  0  0  0  0  0  0  0  0
  149.4362  134.2711  154.2252 H   0  0  0  0  0  0  0  0  0  0  0  0
  148.8329  130.7968  153.0251 H   0  0  0  0  0  0  0  0  0  0  0  0
  149.5448  128.8067  154.1593 H   0  0  0  0  0  0  0  0  0  0  0  0
  147.8608  135.0376  152.3146 H   0  0  0  0  0  0  0  0  0  0  0  0
  145.1668  134.0310  152.9924 H   0  0  0  0  0  0  0  0  0  0  0  0
  145.5636  135.5728  152.2544 H   0  0  0  0  0  0  0  0  0  0  0  0
  145.9389  134.5684  150.0972 H   0  0  0  0  0  0  0  0  0  0  0  0
  147.2483  132.5724  150.4893 H   0  0  0  0  0  0  0  0  0  0  0  0
  145.9922  131.8983  151.5355 H   0  0  0  0  0  0  0  0  0  0  0  0
  145.8392  132.3687  148.5372 H   0  0  0  0  0  0  0  0  0  0  0  0
  145.3632  130.9199  149.4275 H   0  0  0  0  0  0  0  0  0  0  0  0
  143.5672  133.2309  151.4489 H   0  0  0  0  0  0  0  0  0  0  0  0
  143.5435  134.4796  150.2030 H   0  0  0  0  0  0  0  0  0  0  0  0
  1  2  2  0  0  0  0
  2  3  1  0  0  0  0
  2 12  1  0  0  0  0
  3  4  1  0  0  0  0
  3 20  1  0  0  0  0
  3 21  1  0  0  0  0
  4 10  1  0  0  0  0
  4  5  1  0  0  0  0
  5  6  2  0  0  0  0
  5 22  1  0  0  0  0
  6  7  1  0  0  0  0
  6 23  1  0  0  0  0
  7  8  2  0  0  0  0
  7  9  1  0  0  0  0
  9 19  1  0  0  0  0
  9 10  1  0  0  0  0
 10 11  2  0  0  0  0
 12 13  1  0  0  0  0
 12 24  1  0  0  0  0
 13 14  1  0  0  0  0
 13 25  1  0  0  0  0
 13 26  1  0  0  0  0
 14 18  1  0  0  0  0
 14 15  1  0  0  0  0
 14 27  1  0  0  0  0
 15 16  1  0  0  0  0
 15 28  1  0  0  0  0
 15 29  1  0  0  0  0
 16 17  1  0  0  0  0
 16 30  1  0  0  0  0
 16 31  1  0  0  0  0
 17 18  1  0  0  0  0
 18 32  1  0  0  0  0
 18 33  1  0  0  0  0
M  END
> <s_m_source_file>
AV-unprocessed.smi

> <i_m_source_file_index>
1131

> <i_lp_mmshare_version>
43012

> <i_f3d_flags>
0

> <s_epik_input>
W0NIMl0xT1tDSDJdW0NIMl1bQ0BIXTFbQ0gyXVtOSF1DKD1PKVtDSDJdbjJbY0hdW2NIXWMoPU8pW25IXWMyPU8=

> <s_epik_cmdline>
J2VwaWtfcHl0aG9uJywgJy1waCcsICc3LjAnLCAnLXRuJywgJzgnLCAnLW1hJywgJzIwMCcsICctbWV0YWxfYmluZGluZycsICctaW1hZScsICc8aW5maWxlLm1hZT4nLCAnLW9tYWUnLCAnPG91dGZpbGUubWFlPic=

> <r_lp_tautomer_probability>
0.999537

> <r_epik_Ionization_Penalty>
0.00329016

> <r_epik_Ionization_Penalty_Charging>
0.00329014

> <r_epik_Ionization_Penalty_Neutral>
1.87063e-08

> <r_epik_State_Penalty>
0.00232461

> <r_epik_Charging_Adjusted_Penalty>
0.00561475

> <i_epik_Tot_Q>
0

> <i_epik_Tot_abs_Q>
0

> <r_epik_Metal_State_Penalty>
0.365289

> <b_epik_Metal_Only>
0

> <s_lp_Force_Field>
OPLS_2005

> <r_lp_Energy>
18.0195

> <b_lp_Chiralities_Consistent>
1

> <s_lp_Variant>
AV-unprocessed.smi:1131-2

> <Gold.Version>
5.8.1

> <Gold.Id.Protein>
6NUR|6NUR_protein|mol2

> <Gold.PLP.Fitness>
35.0932

> <Gold.PLP.PLP>
-29.8358

> <Gold.PLP.part.hbond>
-1.0000

> <Gold.PLP.part.metal>
0.0000

> <Gold.PLP.part.buried>
-5.2094

> <Gold.PLP.part.nonpolar>
-23.5489

> <Gold.PLP.part.repulsive>
0.3303

> <Gold.PLP.ligand.clash>
0.0000

> <Gold.PLP.ligand.torsion>
0.3651

> <Gold.PLP.Chemscore.Hbond>
1.0000

> <Gold.PLP.Chemscore.CHOScore>
0.9914

> <Gold.PLP.Chemscore.Metal>
0.0000

> <Gold.Chemscore.Hbonds>
donor molecule, donor type, donor heavy atom, donor atom, acceptor molecule, acceptor atom, score
      L1  H    12    24       P1  7948  1.00
      L1  C     5    22       P1 10747  0.52

> <Gold.PLP.Chemscore.Internal.Correction>
0.0134

> <Gold.Rescore>
     Score         DG    S(hbond)    S(metal)    S(lipo)     H(rot)  DE(clash)    DE(int)     intcor
      9.28     -10.16       0.98        0.00      57.68       2.09       0.04       0.84       ----

> <Gold.Chemscore.Fitness>
9.2779

> <Gold.Chemscore.DG>
-10.1597

> <Gold.Chemscore.ZeroCoef>
-5.4800

> <Gold.Chemscore.Hbond>
0.9838

> <Gold.Chemscore.Metal>
0.0000

> <Gold.Chemscore.Lipo>
57.6840

> <Gold.Chemscore.Internal_Hbond>
0.0000

> <Gold.Chemscore.DEClash>
0.0412

> <Gold.Chemscore.DEInternal>
0.8406

> <Gold.Chemscore.Rot>
2.0919

> <Gold.Chemscore.Internal.Correction>
   9.000000E+99

> <Gold.Chemscore.Hbonds>
donor molecule, donor type, donor heavy atom, donor atom, acceptor molecule, acceptor atom, score
      L1  H    12    24       P1  7948  0.90

> <Gold.Chemscore.Hbond.Weighted>
-3.2859

> <Gold.Chemscore.Metal.Weighted>
-0.0000

> <Gold.Chemscore.Lipo.Weighted>
-6.7490

> <Gold.Chemscore.Internal_Hbond.Weighted>
0.0000

> <Gold.Chemscore.DEClash.Weighted>
0.0412

> <Gold.Chemscore.DEInternal.Weighted>
0.8406

> <Gold.Chemscore.Rot.Weighted>
5.3552

> <Gold.Chemscore.Internal.Correction.Weighted>
   9.000000E+99

> <Gold.Protein.RotatedTorsions>
[ 6907 6896 6895 6894 ] final  -36.16 input  -60.11 | X-H torsion
[ 7974 7965 7964 7962 ] final  -43.15 input  175.53 | X-H torsion
[ 8008 7997 7996 7995 ] final -145.68 input   59.86 | X-H torsion
[ 10167 10162 10161 10158 ] final   31.31 input  -65.29 | X-H torsion
[ 10718 10713 10712 10709 ] final  -75.81 input   66.30 | X-H torsion
[ 10763 10752 10751 10750 ] final  -16.11 input  -60.55 | X-H torsion
[ 11005 11000 10999 10996 ] final   90.35 input  -57.11 | X-H torsion

> <Gold.Protein.ActiveResidues>
 VAL166  LYS551  ARG553  GLY616  TRP617  ASP618  TYR619  PRO620  LYS621  CYS622 
 ASP623  PHE694  ASN695  SER759  ASP760  ASP761  ALA762  ILE779  LEU786  VAL792 
 PHE793  MET794  SER795  GLU796  ALA797  LYS798  CYS799  TRP800  GLU811  SER814 

> <Gold.Protein.RotatedAtoms>
  151.0307  134.9537  159.8109 H   0  0  0  0  0  0  0  0  0  0  0  0  # atno 6907 bound_to 6896
  152.5345  134.2784  159.9008 H   0  0  0  0  0  0  0  0  0  0  0  0  # atno 6908 bound_to 6896
  151.2793  133.4175  159.2660 H   0  0  0  0  0  0  0  0  0  0  0  0  # atno 6909 bound_to 6896
  146.0046  140.7034  142.9253 H   0  0  0  0  0  0  0  0  0  0  0  0  # atno 7974 bound_to 7965
  155.5471  140.0613  157.2858 H   0  0  0  0  0  0  0  0  0  0  0  0  # atno 8008 bound_to 7997
  154.4433  140.1909  156.0693 H   0  0  0  0  0  0  0  0  0  0  0  0  # atno 8009 bound_to 7997
  156.0543  140.3280  155.7391 H   0  0  0  0  0  0  0  0  0  0  0  0  # atno 8010 bound_to 7997
  140.4600  144.0921  150.6210 H   0  0  0  0  0  0  0  0  0  0  0  0  # atno 10167 bound_to 10162
  156.0195  130.4450  150.3099 H   0  0  0  0  0  0  0  0  0  0  0  0  # atno 10718 bound_to 10713
  153.5535  135.7011  153.5580 H   0  0  0  0  0  0  0  0  0  0  0  0  # atno 10763 bound_to 10752
  153.3494  135.3999  155.1634 H   0  0  0  0  0  0  0  0  0  0  0  0  # atno 10764 bound_to 10752
  154.8658  135.3761  154.5047 H   0  0  0  0  0  0  0  0  0  0  0  0  # atno 10765 bound_to 10752
  139.8857  134.8608  156.3273 H   0  0  0  0  0  0  0  0  0  0  0  0  # atno 11005 bound_to 11000
  144.6931  140.3293  143.7219 LP  0  0  0  0  0  0  0  0  0  0  0  0  # atno 17320 bound_to 7965
  145.7435  139.1771  143.2362 LP  0  0  0  0  0  0  0  0  0  0  0  0  # atno 17321 bound_to 7965
  140.4105  143.2659  151.9839 LP  0  0  0  0  0  0  0  0  0  0  0  0  # atno 17342 bound_to 10162
  139.4805  144.5920  151.7756 LP  0  0  0  0  0  0  0  0  0  0  0  0  # atno 17343 bound_to 10162
  157.1201  131.0244  151.3013 LP  0  0  0  0  0  0  0  0  0  0  0  0  # atno 17370 bound_to 10713
  157.4635  130.7667  149.7257 LP  0  0  0  0  0  0  0  0  0  0  0  0  # atno 17371 bound_to 10713
  140.9747  133.7305  156.0584 LP  0  0  0  0  0  0  0  0  0  0  0  0  # atno 17394 bound_to 11000
  140.7826  134.3708  157.5484 LP  0  0  0  0  0  0  0  0  0  0  0  0  # atno 17395 bound_to 11000

$$$$
