AV-unprocessed.smi:3134|AV-procd|sdf|11943|dock6
  -GOLD-   2272017333D 1   1.00000     0.00000
 Structure written by MMmdl.
 36 36  0  0  0  0  0  0  0  0  1 V2000
  146.7684  141.8210  153.8984 C   0  0  0  0  0  0  0  0  0  0  0  0
  147.2656  140.4979  153.3016 C   0  0  0  0  0  0  0  0  0  0  0  0
  146.3921  139.3124  153.7415 C   0  0  0  0  0  0  0  0  0  0  0  0
  148.6528  140.2786  153.6980 N   0  0  0  0  0  0  0  0  0  0  0  0
  149.0956  140.1723  154.9611 C   0  0  0  0  0  0  0  0  0  0  0  0
  148.3584  140.2421  155.9450 O   0  0  0  0  0  0  0  0  0  0  0  0
  150.6131  139.9971  155.1414 C   0  0  2  0  0  0  0  0  0  0  0  0
  151.0702  138.6235  154.6236 C   0  0  0  0  0  0  0  0  0  0  0  0
  151.0610  140.1775  156.5345 N   0  0  0  0  0  0  0  0  0  0  0  0
  150.6969  141.4606  157.1258 C   0  0  0  0  0  0  0  0  0  0  0  0
  151.3827  141.6041  158.4917 C   0  0  0  0  0  0  0  0  0  0  0  0
  151.3564  142.9758  158.9612 N   0  0  0  0  0  0  0  0  0  0  0  0
  150.9527  144.1065  158.2828 C   0  0  0  0  0  0  0  0  0  0  0  0
  151.1054  145.1652  159.1315 C   0  0  0  0  0  0  0  0  0  0  0  0
  151.6157  144.5740  160.3209 C   0  0  0  0  0  0  0  0  0  0  0  0
  151.7655  143.2634  160.2158 N   0  0  0  0  0  0  0  0  0  0  0  0
  145.7398  142.0233  153.5987 H   0  0  0  0  0  0  0  0  0  0  0  0
  147.3798  142.6585  153.5610 H   0  0  0  0  0  0  0  0  0  0  0  0
  146.7997  141.8026  154.9883 H   0  0  0  0  0  0  0  0  0  0  0  0
  147.2144  140.5840  152.2147 H   0  0  0  0  0  0  0  0  0  0  0  0
  145.3533  139.4612  153.4463 H   0  0  0  0  0  0  0  0  0  0  0  0
  146.4151  139.1824  154.8241 H   0  0  0  0  0  0  0  0  0  0  0  0
  146.7311  138.3805  153.2875 H   0  0  0  0  0  0  0  0  0  0  0  0
  149.3337  140.2195  152.9548 H   0  0  0  0  0  0  0  0  0  0  0  0
  151.1126  140.7532  154.5325 H   0  0  0  0  0  0  0  0  0  0  0  0
  150.7640  138.4678  153.5884 H   0  0  0  0  0  0  0  0  0  0  0  0
  150.6557  137.8091  155.2195 H   0  0  0  0  0  0  0  0  0  0  0  0
  152.1567  138.5361  154.6577 H   0  0  0  0  0  0  0  0  0  0  0  0
  150.7401  139.4255  157.1278 H   0  0  0  0  0  0  0  0  0  0  0  0
  151.0071  142.2725  156.4662 H   0  0  0  0  0  0  0  0  0  0  0  0
  149.6158  141.5318  157.2519 H   0  0  0  0  0  0  0  0  0  0  0  0
  150.8952  140.9727  159.2362 H   0  0  0  0  0  0  0  0  0  0  0  0
  152.4225  141.2792  158.4321 H   0  0  0  0  0  0  0  0  0  0  0  0
  150.5938  144.0636  157.2648 H   0  0  0  0  0  0  0  0  0  0  0  0
  150.8863  146.2037  158.9330 H   0  0  0  0  0  0  0  0  0  0  0  0
  151.8805  145.0549  161.2511 H   0  0  0  0  0  0  0  0  0  0  0  0
  1  2  1  0  0  0  0
  1 17  1  0  0  0  0
  1 18  1  0  0  0  0
  1 19  1  0  0  0  0
  2  3  1  0  0  0  0
  2  4  1  0  0  0  0
  2 20  1  0  0  0  0
  3 21  1  0  0  0  0
  3 22  1  0  0  0  0
  3 23  1  0  0  0  0
  4  5  1  0  0  0  0
  4 24  1  0  0  0  0
  5  6  2  0  0  0  0
  5  7  1  0  0  0  0
  7  8  1  0  0  0  0
  7  9  1  0  0  0  0
  7 25  1  0  0  0  0
  8 26  1  0  0  0  0
  8 27  1  0  0  0  0
  8 28  1  0  0  0  0
  9 10  1  0  0  0  0
  9 29  1  0  0  0  0
 10 11  1  0  0  0  0
 10 30  1  0  0  0  0
 10 31  1  0  0  0  0
 11 12  1  0  0  0  0
 11 32  1  0  0  0  0
 11 33  1  0  0  0  0
 12 16  1  0  0  0  0
 12 13  1  0  0  0  0
 13 14  2  0  0  0  0
 13 34  1  0  0  0  0
 14 15  1  0  0  0  0
 14 35  1  0  0  0  0
 15 16  2  0  0  0  0
 15 36  1  0  0  0  0
M  END
> <s_m_source_file>
AV-unprocessed.smi

> <i_m_source_file_index>
3134

> <i_lp_mmshare_version>
43012

> <i_f3d_flags>
0

> <s_epik_input>
W0NIM11bQ0hdKFtDSDNdKVtOSF1DKD1PKVtDQEhdKFtDSDNdKVtOSF1bQ0gyXVtDSDJdbjFbY0hdW2NIXVtjSF1uMQ==

> <s_epik_cmdline>
J2VwaWtfcHl0aG9uJywgJy1waCcsICc3LjAnLCAnLXRuJywgJzgnLCAnLW1hJywgJzIwMCcsICctbWV0YWxfYmluZGluZycsICctaW1hZScsICc8aW5maWxlLm1hZT4nLCAnLW9tYWUnLCAnPG91dGZpbGUubWFlPic=

> <r_lp_tautomer_probability>
1

> <r_epik_Ionization_Penalty>
0.731872

> <r_epik_Ionization_Penalty_Charging>
0

> <r_epik_Ionization_Penalty_Neutral>
0.731872

> <r_epik_State_Penalty>
0.75611

> <r_epik_Charging_Adjusted_Penalty>
0.75611

> <i_epik_Tot_Q>
0

> <i_epik_Tot_abs_Q>
0

> <r_epik_Metal_State_Penalty>
0.755373

> <b_epik_Metal_Only>
0

> <s_lp_Force_Field>
OPLS_2005

> <r_lp_Energy>
3.66061

> <b_lp_Chiralities_Consistent>
1

> <s_lp_Variant>
AV-unprocessed.smi:3134-3

> <Gold.Version>
5.8.1

> <Gold.Id.Protein>
6NUR|6NUR_protein|mol2

> <Gold.PLP.Fitness>
40.7151

> <Gold.PLP.PLP>
-35.4072

> <Gold.PLP.part.hbond>
-1.0000

> <Gold.PLP.part.metal>
0.0000

> <Gold.PLP.part.buried>
-3.5163

> <Gold.PLP.part.nonpolar>
-31.3574

> <Gold.PLP.part.repulsive>
0.1820

> <Gold.PLP.ligand.clash>
0.0000

> <Gold.PLP.ligand.torsion>
0.3233

> <Gold.PLP.Chemscore.Hbond>
0.9760

> <Gold.PLP.Chemscore.CHOScore>
0.9810

> <Gold.PLP.Chemscore.Metal>
0.0000

> <Gold.Chemscore.Hbonds>
donor molecule, donor type, donor heavy atom, donor atom, acceptor molecule, acceptor atom, score
      L1  H     4    24       P1  7957  0.93
      L1  C    13    34       P1  8028  1.00

> <Gold.PLP.Chemscore.Internal.Correction>
0.0836

> <Gold.Rescore>
     Score         DG    S(hbond)    S(metal)    S(lipo)     H(rot)  DE(clash)    DE(int)     intcor
     10.68     -13.46       0.99        0.00      84.76       2.05       0.11       2.67       ----

> <Gold.Chemscore.Fitness>
10.6825

> <Gold.Chemscore.DG>
-13.4589

> <Gold.Chemscore.ZeroCoef>
-5.4800

> <Gold.Chemscore.Hbond>
0.9932

> <Gold.Chemscore.Metal>
0.0000

> <Gold.Chemscore.Lipo>
84.7606

> <Gold.Chemscore.Internal_Hbond>
0.0000

> <Gold.Chemscore.DEClash>
0.1055

> <Gold.Chemscore.DEInternal>
2.6709

> <Gold.Chemscore.Rot>
2.0529

> <Gold.Chemscore.Internal.Correction>
   9.000000E+99

> <Gold.Chemscore.Hbonds>
donor molecule, donor type, donor heavy atom, donor atom, acceptor molecule, acceptor atom, score
      L1  H     4    24       P1  7957  0.90

> <Gold.Chemscore.Hbond.Weighted>
-3.3173

> <Gold.Chemscore.Metal.Weighted>
-0.0000

> <Gold.Chemscore.Lipo.Weighted>
-9.9170

> <Gold.Chemscore.Internal_Hbond.Weighted>
0.0000

> <Gold.Chemscore.DEClash.Weighted>
0.1055

> <Gold.Chemscore.DEInternal.Weighted>
2.6709

> <Gold.Chemscore.Rot.Weighted>
5.2554

> <Gold.Chemscore.Internal.Correction.Weighted>
   9.000000E+99

> <Gold.Protein.RotatedTorsions>
[ 6907 6896 6895 6894 ] final  157.85 input  -60.11 | X-H torsion
[ 7974 7965 7964 7962 ] final  171.41 input  175.53 | X-H torsion
[ 8008 7997 7996 7995 ] final  -77.66 input   59.86 | X-H torsion
[ 10167 10162 10161 10158 ] final -119.64 input  -65.29 | X-H torsion
[ 10718 10713 10712 10709 ] final -170.83 input   66.30 | X-H torsion
[ 10763 10752 10751 10750 ] final   59.09 input  -60.55 | X-H torsion
[ 11005 11000 10999 10996 ] final  -69.36 input  -57.11 | X-H torsion

> <Gold.Protein.ActiveResidues>
 VAL166  LYS551  ARG553  GLY616  TRP617  ASP618  TYR619  PRO620  LYS621  CYS622 
 ASP623  PHE694  ASN695  SER759  ASP760  ASP761  ALA762  ILE779  LEU786  VAL792 
 PHE793  MET794  SER795  GLU796  ALA797  LYS798  CYS799  TRP800  GLU811  SER814 

> <Gold.Protein.RotatedAtoms>
  152.0091  133.3854  159.4212 H   0  0  0  0  0  0  0  0  0  0  0  0  # atno 6907 bound_to 6896
  150.6901  134.3750  159.5018 H   0  0  0  0  0  0  0  0  0  0  0  0  # atno 6908 bound_to 6896
  152.1508  134.8989  160.0599 H   0  0  0  0  0  0  0  0  0  0  0  0  # atno 6909 bound_to 6896
  144.7295  139.9346  143.6426 H   0  0  0  0  0  0  0  0  0  0  0  0  # atno 7974 bound_to 7965
  154.5616  140.0707  156.8828 H   0  0  0  0  0  0  0  0  0  0  0  0  # atno 8008 bound_to 7997
  155.2800  140.3371  155.4241 H   0  0  0  0  0  0  0  0  0  0  0  0  # atno 8009 bound_to 7997
  156.2047  140.1735  156.7811 H   0  0  0  0  0  0  0  0  0  0  0  0  # atno 8010 bound_to 7997
  140.0445  143.5121  152.2113 H   0  0  0  0  0  0  0  0  0  0  0  0  # atno 10167 bound_to 10162
  156.7319  130.9309  151.3105 H   0  0  0  0  0  0  0  0  0  0  0  0  # atno 10718 bound_to 10713
  152.9886  135.5584  154.5657 H   0  0  0  0  0  0  0  0  0  0  0  0  # atno 10763 bound_to 10752
  154.5067  135.2800  155.1378 H   0  0  0  0  0  0  0  0  0  0  0  0  # atno 10764 bound_to 10752
  154.2787  135.6349  153.5391 H   0  0  0  0  0  0  0  0  0  0  0  0  # atno 10765 bound_to 10752
  141.1552  133.6762  156.6587 H   0  0  0  0  0  0  0  0  0  0  0  0  # atno 11005 bound_to 11000
  146.0831  139.3819  143.0452 LP  0  0  0  0  0  0  0  0  0  0  0  0  # atno 17320 bound_to 7965
  145.7814  140.9855  143.1097 LP  0  0  0  0  0  0  0  0  0  0  0  0  # atno 17321 bound_to 7965
  139.5993  144.7577  151.3211 LP  0  0  0  0  0  0  0  0  0  0  0  0  # atno 17342 bound_to 10162
  140.7245  143.7042  150.7820 LP  0  0  0  0  0  0  0  0  0  0  0  0  # atno 17343 bound_to 10162
  157.6855  130.9181  150.0376 LP  0  0  0  0  0  0  0  0  0  0  0  0  # atno 17370 bound_to 10713
  156.1523  130.3642  149.9420 LP  0  0  0  0  0  0  0  0  0  0  0  0  # atno 17371 bound_to 10713
  140.3264  134.7965  157.4292 LP  0  0  0  0  0  0  0  0  0  0  0  0  # atno 17394 bound_to 11000
  140.1053  134.5417  155.8315 LP  0  0  0  0  0  0  0  0  0  0  0  0  # atno 17395 bound_to 11000

$$$$
