AV-unprocessed.smi:1208|AV-procd|sdf|5067|dock3
  -GOLD-   22720 4103D 1   1.00000     0.00000
 Structure written by MMmdl.
 36 37  0  0  0  0  0  0  0  0  1 V2000
  150.4305  141.9975  156.4980 C   0  0  0  0  0  0  0  0  0  0  0  0
  151.5549  142.0732  157.5437 C   0  0  2  0  0  0  0  0  0  0  0  0
  151.6642  140.8004  158.2489 N   0  0  0  0  0  0  0  0  0  0  0  0
  152.1788  139.6615  157.7556 C   0  0  0  0  0  0  0  0  0  0  0  0
  152.6026  139.5637  156.6048 O   0  0  0  0  0  0  0  0  0  0  0  0
  152.2414  138.4360  158.6845 C   0  0  0  0  0  0  0  0  0  0  0  0
  152.9642  138.6571  159.9481 N   0  0  0  0  0  0  0  0  0  0  0  0
  153.2244  139.9912  160.2238 N   0  0  0  0  0  0  0  0  0  0  0  0
  153.8289  140.3182  161.3155 C   0  0  0  0  0  0  0  0  0  0  0  0
  154.0619  141.6508  161.5514 O   0  0  0  0  0  0  0  0  0  0  0  0
  154.2509  139.3139  162.2669 C   0  0  0  0  0  0  0  0  0  0  0  0
  153.9936  138.0170  161.9893 C   0  0  0  0  0  0  0  0  0  0  0  0
  153.3026  137.6118  160.7639 C   0  0  0  0  0  0  0  0  0  0  0  0
  153.0375  136.4406  160.4959 O   0  0  0  0  0  0  0  0  0  0  0  0
  151.3166  143.2036  158.5632 C   0  0  1  0  0  0  0  0  0  0  0  0
  152.3381  143.2646  159.7010 C   0  0  0  0  0  0  0  0  0  0  0  0
  152.2112  144.7035  160.1449 C   0  0  0  0  0  0  0  0  0  0  0  0
  152.0073  145.4271  158.8165 C   0  0  0  0  0  0  0  0  0  0  0  0
  151.4112  144.4790  157.9338 O   0  0  0  0  0  0  0  0  0  0  0  0
  154.9286  141.8190  161.2152 H   0  0  0  0  0  0  0  0  0  0  0  0
  150.3407  142.9348  155.9486 H   0  0  0  0  0  0  0  0  0  0  0  0
  149.4669  141.7923  156.9653 H   0  0  0  0  0  0  0  0  0  0  0  0
  150.6212  141.2095  155.7688 H   0  0  0  0  0  0  0  0  0  0  0  0
  152.4968  142.2746  157.0300 H   0  0  0  0  0  0  0  0  0  0  0  0
  151.3378  140.7870  159.2042 H   0  0  0  0  0  0  0  0  0  0  0  0
  151.2238  138.0944  158.8804 H   0  0  0  0  0  0  0  0  0  0  0  0
  152.7144  137.6224  158.1319 H   0  0  0  0  0  0  0  0  0  0  0  0
  154.7601  139.6023  163.1748 H   0  0  0  0  0  0  0  0  0  0  0  0
  154.3035  137.2563  162.6902 H   0  0  0  0  0  0  0  0  0  0  0  0
  150.3171  143.1173  158.9932 H   0  0  0  0  0  0  0  0  0  0  0  0
  152.1314  142.5522  160.5004 H   0  0  0  0  0  0  0  0  0  0  0  0
  153.3450  143.0765  159.3255 H   0  0  0  0  0  0  0  0  0  0  0  0
  151.3302  144.8218  160.7768 H   0  0  0  0  0  0  0  0  0  0  0  0
  153.0798  145.0619  160.6977 H   0  0  0  0  0  0  0  0  0  0  0  0
  151.3847  146.3156  158.9230 H   0  0  0  0  0  0  0  0  0  0  0  0
  152.9659  145.7341  158.3962 H   0  0  0  0  0  0  0  0  0  0  0  0
  1  2  1  0  0  0  0
  1 21  1  0  0  0  0
  1 22  1  0  0  0  0
  1 23  1  0  0  0  0
  2  3  1  0  0  0  0
  2 15  1  0  0  0  0
  2 24  1  0  0  0  0
  3  4  1  0  0  0  0
  3 25  1  0  0  0  0
  4  5  2  0  0  0  0
  4  6  1  0  0  0  0
  6 26  1  0  0  0  0
  6 27  1  0  0  0  0
  6  7  1  0  0  0  0
  7  8  1  0  0  0  0
  7 13  1  0  0  0  0
  8  9  2  0  0  0  0
  9 10  1  0  0  0  0
  9 11  1  0  0  0  0
 10 20  1  0  0  0  0
 11 28  1  0  0  0  0
 11 12  2  0  0  0  0
 12 29  1  0  0  0  0
 12 13  1  0  0  0  0
 13 14  2  0  0  0  0
 15 19  1  0  0  0  0
 15 16  1  0  0  0  0
 15 30  1  0  0  0  0
 16 17  1  0  0  0  0
 16 31  1  0  0  0  0
 16 32  1  0  0  0  0
 17 18  1  0  0  0  0
 17 33  1  0  0  0  0
 17 34  1  0  0  0  0
 18 19  1  0  0  0  0
 18 35  1  0  0  0  0
 18 36  1  0  0  0  0
M  END
> <s_m_source_file>
AV-unprocessed.smi

> <i_m_source_file_index>
1208

> <i_lp_mmshare_version>
43012

> <i_f3d_flags>
0

> <s_epik_input>
TzFbQ0gyXVtDSDJdW0NIMl1bQ0BIXTFbQ0BIXShbQ0gzXSlbTkhdQyg9TylbQ0gyXW4yW25IXWMoPU8pW2NIXVtjSF1jMj1P

> <s_epik_cmdline>
J2VwaWtfcHl0aG9uJywgJy1waCcsICc3LjAnLCAnLXRuJywgJzgnLCAnLW1hJywgJzIwMCcsICctbWV0YWxfYmluZGluZycsICctaW1hZScsICc8aW5maWxlLm1hZT4nLCAnLW9tYWUnLCAnPG91dGZpbGUubWFlPic=

> <r_lp_tautomer_probability>
0.9996

> <r_epik_Ionization_Penalty>
2.12735

> <r_epik_Ionization_Penalty_Charging>
3.86665e-08

> <r_epik_Ionization_Penalty_Neutral>
2.12735

> <r_epik_State_Penalty>
1.70441

> <r_epik_Charging_Adjusted_Penalty>
1.70441

> <i_epik_Tot_Q>
0

> <i_epik_Tot_abs_Q>
0

> <r_epik_Metal_State_Penalty>
1.70441

> <b_epik_Metal_Only>
0

> <s_lp_Force_Field>
OPLS_2005

> <r_lp_Energy>
27.2877

> <b_lp_Chiralities_Consistent>
1

> <s_lp_Variant>
AV-unprocessed.smi:1208-7

> <Gold.Version>
5.8.1

> <Gold.Id.Protein>
6NUR|6NUR_protein|mol2

> <Gold.PLP.Fitness>
40.1697

> <Gold.PLP.PLP>
-34.9310

> <Gold.PLP.part.hbond>
-3.0000

> <Gold.PLP.part.metal>
0.0000

> <Gold.PLP.part.buried>
-5.6729

> <Gold.PLP.part.nonpolar>
-25.7877

> <Gold.PLP.part.repulsive>
0.2448

> <Gold.PLP.ligand.clash>
0.0020

> <Gold.PLP.ligand.torsion>
0.3936

> <Gold.PLP.Chemscore.Hbond>
2.0000

> <Gold.PLP.Chemscore.CHOScore>
0.0000

> <Gold.PLP.Chemscore.Metal>
0.0000

> <Gold.Chemscore.Hbonds>
donor molecule, donor type, donor heavy atom, donor atom, acceptor molecule, acceptor atom, score
      P1  H  6896  6909       L1    14  1.00
      P1  H  7997  8010       L1     5  1.00

> <Gold.PLP.Chemscore.Internal.Correction>
0.0279

> <Gold.Rescore>
     Score         DG    S(hbond)    S(metal)    S(lipo)     H(rot)  DE(clash)    DE(int)     intcor
     12.12     -14.33       1.96        0.00      77.07       2.63       0.40       1.81       ----

> <Gold.Chemscore.Fitness>
12.1219

> <Gold.Chemscore.DG>
-14.3277

> <Gold.Chemscore.ZeroCoef>
-5.4800

> <Gold.Chemscore.Hbond>
1.9625

> <Gold.Chemscore.Metal>
0.0000

> <Gold.Chemscore.Lipo>
77.0665

> <Gold.Chemscore.Internal_Hbond>
0.0000

> <Gold.Chemscore.DEClash>
0.4000

> <Gold.Chemscore.DEInternal>
1.8058

> <Gold.Chemscore.Rot>
2.6264

> <Gold.Chemscore.Internal.Correction>
   9.000000E+99

> <Gold.Chemscore.Hbonds>
donor molecule, donor type, donor heavy atom, donor atom, acceptor molecule, acceptor atom, score
      P1  H  6896  6909       L1    14  1.00
      P1  H  7997  8010       L1     5  0.70

> <Gold.Chemscore.Hbond.Weighted>
-6.5546

> <Gold.Chemscore.Metal.Weighted>
-0.0000

> <Gold.Chemscore.Lipo.Weighted>
-9.0168

> <Gold.Chemscore.Internal_Hbond.Weighted>
0.0000

> <Gold.Chemscore.DEClash.Weighted>
0.4000

> <Gold.Chemscore.DEInternal.Weighted>
1.8058

> <Gold.Chemscore.Rot.Weighted>
6.7237

> <Gold.Chemscore.Internal.Correction.Weighted>
   9.000000E+99

> <Gold.Protein.RotatedTorsions>
[ 6907 6896 6895 6894 ] final  150.04 input  -60.11 | X-H torsion
[ 7974 7965 7964 7962 ] final -111.76 input  175.53 | X-H torsion
[ 8008 7997 7996 7995 ] final   64.41 input   59.86 | X-H torsion
[ 10167 10162 10161 10158 ] final  -11.50 input  -65.29 | X-H torsion
[ 10718 10713 10712 10709 ] final   47.93 input   66.30 | X-H torsion
[ 10763 10752 10751 10750 ] final  105.76 input  -60.55 | X-H torsion
[ 11005 11000 10999 10996 ] final -102.00 input  -57.11 | X-H torsion

> <Gold.Protein.ActiveResidues>
 VAL166  LYS551  ARG553  GLY616  TRP617  ASP618  TYR619  PRO620  LYS621  CYS622 
 ASP623  PHE694  ASN695  SER759  ASP760  ASP761  ALA762  ILE779  LEU786  VAL792 
 PHE793  MET794  SER795  GLU796  ALA797  LYS798  CYS799  TRP800  GLU811  SER814 

> <Gold.Protein.RotatedAtoms>
  152.1198  133.4347  159.4669 H   0  0  0  0  0  0  0  0  0  0  0  0  # atno 6907 bound_to 6896
  150.6871  134.2549  159.4535 H   0  0  0  0  0  0  0  0  0  0  0  0  # atno 6908 bound_to 6896
  152.0424  134.9703  160.0624 H   0  0  0  0  0  0  0  0  0  0  0  0  # atno 6909 bound_to 6896
  145.1522  140.8835  143.3639 H   0  0  0  0  0  0  0  0  0  0  0  0  # atno 7974 bound_to 7965
  155.6455  140.3497  155.4730 H   0  0  0  0  0  0  0  0  0  0  0  0  # atno 8008 bound_to 7997
  155.9891  140.1190  157.0679 H   0  0  0  0  0  0  0  0  0  0  0  0  # atno 8009 bound_to 7997
  154.4213  140.1123  156.5526 H   0  0  0  0  0  0  0  0  0  0  0  0  # atno 8010 bound_to 7997
  140.7140  143.5632  150.9172 H   0  0  0  0  0  0  0  0  0  0  0  0  # atno 10167 bound_to 10162
  157.4635  130.8211  149.7911 H   0  0  0  0  0  0  0  0  0  0  0  0  # atno 10718 bound_to 10713
  153.3838  135.3899  155.1875 H   0  0  0  0  0  0  0  0  0  0  0  0  # atno 10763 bound_to 10752
  154.8711  135.3732  154.4824 H   0  0  0  0  0  0  0  0  0  0  0  0  # atno 10764 bound_to 10752
  153.5303  135.7086  153.5747 H   0  0  0  0  0  0  0  0  0  0  0  0  # atno 10765 bound_to 10752
  141.1208  133.8523  157.1303 H   0  0  0  0  0  0  0  0  0  0  0  0  # atno 11005 bound_to 11000
  145.0418  139.3253  143.5972 LP  0  0  0  0  0  0  0  0  0  0  0  0  # atno 17320 bound_to 7965
  146.3493  139.9795  142.8697 LP  0  0  0  0  0  0  0  0  0  0  0  0  # atno 17321 bound_to 7965
  139.9358  143.6440  152.3065 LP  0  0  0  0  0  0  0  0  0  0  0  0  # atno 17342 bound_to 10162
  139.6907  144.7647  151.1444 LP  0  0  0  0  0  0  0  0  0  0  0  0  # atno 17343 bound_to 10162
  156.0039  130.3865  150.2501 LP  0  0  0  0  0  0  0  0  0  0  0  0  # atno 17370 bound_to 10713
  157.0680  131.0108  151.3200 LP  0  0  0  0  0  0  0  0  0  0  0  0  # atno 17371 bound_to 10713
  140.0163  134.9966  157.0500 LP  0  0  0  0  0  0  0  0  0  0  0  0  # atno 17394 bound_to 11000
  140.4514  134.1578  155.7182 LP  0  0  0  0  0  0  0  0  0  0  0  0  # atno 17395 bound_to 11000

$$$$
