AV-unprocessed.smi:2473|AV-procd|sdf|9748|dock5
  -GOLD-   2272013393D 1   1.00000     0.00000
 Structure written by MMmdl.
 47 48  0  0  0  0  0  0  0  0  1 V2000
  153.8821  141.2329  160.7602 C   0  0  0  0  0  0  0  0  0  0  0  0
  153.2569  141.9586  159.5600 C   0  0  1  0  0  0  0  0  0  0  0  0
  152.3917  141.0042  158.7169 C   0  0  0  0  0  0  0  0  0  0  0  0
  151.7753  141.7299  157.5056 C   0  0  1  0  0  0  0  0  0  0  0  0
  150.9041  140.7818  156.6717 C   0  0  0  0  0  0  0  0  0  0  0  0
  151.2365  140.4814  155.5248 O   0  0  0  0  0  0  0  0  0  0  0  0
  149.8107  140.2901  157.2766 N   0  0  0  0  0  0  0  0  0  0  0  0
  148.9359  139.2523  156.7368 C   0  0  0  0  0  0  0  0  0  0  0  0
  147.5040  139.7708  156.4974 C   0  0  0  0  0  0  0  0  0  0  0  0
  147.3639  140.6322  155.2758 C   0  0  0  0  0  0  0  0  0  0  0  0
  147.7976  140.2707  154.0721 N   0  0  0  0  0  0  0  0  0  0  0  0
  147.4403  141.3213  153.2345 C   0  0  0  0  0  0  0  0  0  0  0  0
  146.8007  142.2914  153.9672 C   0  0  0  0  0  0  0  0  0  0  0  0
  146.7581  141.8372  155.2786 N   0  0  0  0  0  0  0  0  0  0  0  0
  146.1675  142.5424  156.4005 C   0  0  0  0  0  0  0  0  0  0  0  0
  150.9484  142.9480  157.9756 C   0  0  0  0  0  0  0  0  0  0  0  0
  151.7534  143.9442  158.8445 C   0  0  0  0  0  0  0  0  0  0  0  0
  152.7990  144.6991  157.9947 C   0  0  0  0  0  0  0  0  0  0  0  0
  150.7816  144.9889  159.4275 C   0  0  0  0  0  0  0  0  0  0  0  0
  152.4291  143.1807  160.0116 C   0  0  0  0  0  0  0  0  0  0  0  0
  153.1168  140.8418  161.4311 H   0  0  0  0  0  0  0  0  0  0  0  0
  154.5194  141.9045  161.3362 H   0  0  0  0  0  0  0  0  0  0  0  0
  154.4989  140.3950  160.4341 H   0  0  0  0  0  0  0  0  0  0  0  0
  154.0808  142.3078  158.9376 H   0  0  0  0  0  0  0  0  0  0  0  0
  152.9983  140.1641  158.3755 H   0  0  0  0  0  0  0  0  0  0  0  0
  151.6036  140.5808  159.3421 H   0  0  0  0  0  0  0  0  0  0  0  0
  152.5879  142.0803  156.8684 H   0  0  0  0  0  0  0  0  0  0  0  0
  149.6116  140.6058  158.2147 H   0  0  0  0  0  0  0  0  0  0  0  0
  149.3601  138.9018  155.7958 H   0  0  0  0  0  0  0  0  0  0  0  0
  148.9099  138.3852  157.3986 H   0  0  0  0  0  0  0  0  0  0  0  0
  146.8137  138.9297  156.4331 H   0  0  0  0  0  0  0  0  0  0  0  0
  147.1821  140.3512  157.3625 H   0  0  0  0  0  0  0  0  0  0  0  0
  147.6683  141.2983  152.1791 H   0  0  0  0  0  0  0  0  0  0  0  0
  146.3815  143.2414  153.6701 H   0  0  0  0  0  0  0  0  0  0  0  0
  145.6825  143.4562  156.0564 H   0  0  0  0  0  0  0  0  0  0  0  0
  146.9425  142.8039  157.1211 H   0  0  0  0  0  0  0  0  0  0  0  0
  145.4206  141.9144  156.8863 H   0  0  0  0  0  0  0  0  0  0  0  0
  150.5310  143.4691  157.1132 H   0  0  0  0  0  0  0  0  0  0  0  0
  150.0902  142.5931  158.5492 H   0  0  0  0  0  0  0  0  0  0  0  0
  153.3485  145.4220  158.5986 H   0  0  0  0  0  0  0  0  0  0  0  0
  152.3223  145.2491  157.1826 H   0  0  0  0  0  0  0  0  0  0  0  0
  153.5344  144.0352  157.5433 H   0  0  0  0  0  0  0  0  0  0  0  0
  151.3043  145.7124  160.0540 H   0  0  0  0  0  0  0  0  0  0  0  0
  150.0116  144.5215  160.0425 H   0  0  0  0  0  0  0  0  0  0  0  0
  150.2746  145.5438  158.6371 H   0  0  0  0  0  0  0  0  0  0  0  0
  151.6603  142.8375  160.7059 H   0  0  0  0  0  0  0  0  0  0  0  0
  153.0608  143.8629  160.5819 H   0  0  0  0  0  0  0  0  0  0  0  0
  1  2  1  0  0  0  0
  1 21  1  0  0  0  0
  1 22  1  0  0  0  0
  1 23  1  0  0  0  0
  2 20  1  0  0  0  0
  2  3  1  0  0  0  0
  2 24  1  0  0  0  0
  3  4  1  0  0  0  0
  3 25  1  0  0  0  0
  3 26  1  0  0  0  0
  4  5  1  0  0  0  0
  4 16  1  0  0  0  0
  4 27  1  0  0  0  0
  5  6  2  0  0  0  0
  5  7  1  0  0  0  0
  7  8  1  0  0  0  0
  7 28  1  0  0  0  0
  8  9  1  0  0  0  0
  8 29  1  0  0  0  0
  8 30  1  0  0  0  0
  9 10  1  0  0  0  0
  9 31  1  0  0  0  0
  9 32  1  0  0  0  0
 10 14  1  0  0  0  0
 10 11  2  0  0  0  0
 11 12  1  0  0  0  0
 12 13  2  0  0  0  0
 12 33  1  0  0  0  0
 13 14  1  0  0  0  0
 13 34  1  0  0  0  0
 14 15  1  0  0  0  0
 15 35  1  0  0  0  0
 15 36  1  0  0  0  0
 15 37  1  0  0  0  0
 16 17  1  0  0  0  0
 16 38  1  0  0  0  0
 16 39  1  0  0  0  0
 17 18  1  0  0  0  0
 17 19  1  0  0  0  0
 17 20  1  0  0  0  0
 18 40  1  0  0  0  0
 18 41  1  0  0  0  0
 18 42  1  0  0  0  0
 19 43  1  0  0  0  0
 19 44  1  0  0  0  0
 19 45  1  0  0  0  0
 20 46  1  0  0  0  0
 20 47  1  0  0  0  0
M  END
> <s_m_source_file>
AV-unprocessed.smi

> <i_m_source_file_index>
2473

> <i_lp_mmshare_version>
43012

> <i_f3d_flags>
0

> <s_epik_input>
W0NIM11bQ0BASF0oW0NIMl0xKVtDSDJdW0NASF0oW0NIMl1DMShbQ0gzXSlbQ0gzXSlDKD1PKVtOSF1bQ0gyXVtDSDJdYzJuW2NIXVtjSF1uMltDSDNd

> <s_epik_cmdline>
J2VwaWtfcHl0aG9uJywgJy1waCcsICc3LjAnLCAnLXRuJywgJzgnLCAnLW1hJywgJzIwMCcsICctbWV0YWxfYmluZGluZycsICctaW1hZScsICc8aW5maWxlLm1hZT4nLCAnLW9tYWUnLCAnPG91dGZpbGUubWFlPic=

> <r_lp_tautomer_probability>
1

> <r_epik_Ionization_Penalty>
1.22858

> <r_epik_Ionization_Penalty_Charging>
1.22858

> <r_epik_Ionization_Penalty_Neutral>
2.12671e-08

> <r_epik_State_Penalty>
1.2965

> <r_epik_Charging_Adjusted_Penalty>
2.52508

> <i_epik_Tot_Q>
0

> <i_epik_Tot_abs_Q>
0

> <r_epik_Metal_State_Penalty>
0.411461

> <b_epik_Metal_Only>
0

> <s_lp_Force_Field>
OPLS_2005

> <r_lp_Energy>
12.6142

> <b_lp_Chiralities_Consistent>
1

> <s_lp_Variant>
AV-unprocessed.smi:2473-6

> <Gold.Version>
5.8.1

> <Gold.Id.Protein>
6NUR|6NUR_protein|mol2

> <Gold.PLP.Fitness>
46.2568

> <Gold.PLP.PLP>
-41.5257

> <Gold.PLP.part.hbond>
-1.0000

> <Gold.PLP.part.metal>
0.0000

> <Gold.PLP.part.buried>
-6.8755

> <Gold.PLP.part.nonpolar>
-33.2132

> <Gold.PLP.part.repulsive>
0.2019

> <Gold.PLP.ligand.clash>
0.0000

> <Gold.PLP.ligand.torsion>
0.1861

> <Gold.PLP.Chemscore.Hbond>
0.7862

> <Gold.PLP.Chemscore.CHOScore>
0.9045

> <Gold.PLP.Chemscore.Metal>
0.0000

> <Gold.Chemscore.Hbonds>
donor molecule, donor type, donor heavy atom, donor atom, acceptor molecule, acceptor atom, score
      P1  H  7989  7998       L1     6  0.76
      L1  C    12    33       P1  7957  0.92

> <Gold.PLP.Chemscore.Internal.Correction>
0.0310

> <Gold.Rescore>
     Score         DG    S(hbond)    S(metal)    S(lipo)     H(rot)  DE(clash)    DE(int)     intcor
     17.54     -17.80       0.93        0.00     111.83       1.51       0.04       0.22       ----

> <Gold.Chemscore.Fitness>
17.5392

> <Gold.Chemscore.DG>
-17.7953

> <Gold.Chemscore.ZeroCoef>
-5.4800

> <Gold.Chemscore.Hbond>
0.9280

> <Gold.Chemscore.Metal>
0.0000

> <Gold.Chemscore.Lipo>
111.8272

> <Gold.Chemscore.Internal_Hbond>
0.0000

> <Gold.Chemscore.DEClash>
0.0386

> <Gold.Chemscore.DEInternal>
0.2175

> <Gold.Chemscore.Rot>
1.5109

> <Gold.Chemscore.Internal.Correction>
   9.000000E+99

> <Gold.Chemscore.Hbonds>
donor molecule, donor type, donor heavy atom, donor atom, acceptor molecule, acceptor atom, score
      P1  H  7989  7998       L1     6  0.72

> <Gold.Chemscore.Hbond.Weighted>
-3.0995

> <Gold.Chemscore.Metal.Weighted>
-0.0000

> <Gold.Chemscore.Lipo.Weighted>
-13.0838

> <Gold.Chemscore.Internal_Hbond.Weighted>
0.0000

> <Gold.Chemscore.DEClash.Weighted>
0.0386

> <Gold.Chemscore.DEInternal.Weighted>
0.2175

> <Gold.Chemscore.Rot.Weighted>
3.8680

> <Gold.Chemscore.Internal.Correction.Weighted>
   9.000000E+99

> <Gold.Protein.RotatedTorsions>
[ 6907 6896 6895 6894 ] final   95.94 input  -60.11 | X-H torsion
[ 7974 7965 7964 7962 ] final    7.21 input  175.53 | X-H torsion
[ 8008 7997 7996 7995 ] final  166.60 input   59.86 | X-H torsion
[ 10167 10162 10161 10158 ] final   87.55 input  -65.29 | X-H torsion
[ 10718 10713 10712 10709 ] final  -38.31 input   66.30 | X-H torsion
[ 10763 10752 10751 10750 ] final  101.64 input  -60.55 | X-H torsion
[ 11005 11000 10999 10996 ] final  173.49 input  -57.11 | X-H torsion

> <Gold.Protein.ActiveResidues>
 VAL166  LYS551  ARG553  GLY616  TRP617  ASP618  TYR619  PRO620  LYS621  CYS622 
 ASP623  PHE694  ASN695  SER759  ASP760  ASP761  ALA762  ILE779  LEU786  VAL792 
 PHE793  MET794  SER795  GLU796  ALA797  LYS798  CYS799  TRP800  GLU811  SER814 

> <Gold.Protein.RotatedAtoms>
  152.5439  134.0962  159.8297 H   0  0  0  0  0  0  0  0  0  0  0  0  # atno 6907 bound_to 6896
  151.1045  133.5211  159.2616 H   0  0  0  0  0  0  0  0  0  0  0  0  # atno 6908 bound_to 6896
  151.1953  135.0429  159.8904 H   0  0  0  0  0  0  0  0  0  0  0  0  # atno 6909 bound_to 6896
  146.2428  140.0117  142.8406 H   0  0  0  0  0  0  0  0  0  0  0  0  # atno 7974 bound_to 7965
  156.1704  140.1639  156.8457 H   0  0  0  0  0  0  0  0  0  0  0  0  # atno 8008 bound_to 7997
  154.5251  140.0769  156.8278 H   0  0  0  0  0  0  0  0  0  0  0  0  # atno 8009 bound_to 7997
  155.3524  140.3390  155.4242 H   0  0  0  0  0  0  0  0  0  0  0  0  # atno 8010 bound_to 7997
  139.8762  144.6465  150.8894 H   0  0  0  0  0  0  0  0  0  0  0  0  # atno 10167 bound_to 10162
  156.3052  130.4245  149.8104 H   0  0  0  0  0  0  0  0  0  0  0  0  # atno 10718 bound_to 10713
  153.3293  135.4037  155.1482 H   0  0  0  0  0  0  0  0  0  0  0  0  # atno 10763 bound_to 10752
  154.8619  135.3606  154.5492 H   0  0  0  0  0  0  0  0  0  0  0  0  # atno 10764 bound_to 10752
  153.5929  135.7073  153.5475 H   0  0  0  0  0  0  0  0  0  0  0  0  # atno 10765 bound_to 10752
  140.3410  134.7276  157.4202 H   0  0  0  0  0  0  0  0  0  0  0  0  # atno 11005 bound_to 11000
  145.1321  140.9524  143.4538 LP  0  0  0  0  0  0  0  0  0  0  0  0  # atno 17320 bound_to 7965
  145.0377  139.3286  143.5992 LP  0  0  0  0  0  0  0  0  0  0  0  0  # atno 17321 bound_to 7965
  140.7752  143.3623  151.1805 LP  0  0  0  0  0  0  0  0  0  0  0  0  # atno 17342 bound_to 10162
  139.7238  143.9181  152.2995 LP  0  0  0  0  0  0  0  0  0  0  0  0  # atno 17343 bound_to 10162
  156.5467  130.8324  151.3286 LP  0  0  0  0  0  0  0  0  0  0  0  0  # atno 17370 bound_to 10713
  157.7378  130.9802  150.2213 LP  0  0  0  0  0  0  0  0  0  0  0  0  # atno 17371 bound_to 10713
  140.0781  134.5769  155.8570 LP  0  0  0  0  0  0  0  0  0  0  0  0  # atno 17394 bound_to 11000
  141.2038  133.6635  156.6086 LP  0  0  0  0  0  0  0  0  0  0  0  0  # atno 17395 bound_to 11000

$$$$
