AV-unprocessed.smi:3348|AV-procd|sdf|12929|dock9
  -GOLD-   2272019353D 1   1.00000     0.00000
 Structure written by MMmdl.
 46 47  0  0  0  0  0  0  0  0  1 V2000
  152.6759  138.5199  154.8629 C   0  0  0  0  0  0  0  0  0  0  0  0
  152.0667  138.8938  156.2213 C   0  0  2  0  0  0  0  0  0  0  0  0
  151.3986  140.2876  156.1323 C   0  0  0  0  0  0  0  0  0  0  0  0
  150.1292  140.2987  155.4281 N   0  0  0  0  0  0  0  0  0  0  0  0
  149.3099  141.3757  155.1584 C   0  0  0  0  0  0  0  0  0  0  0  0
  148.2285  140.9010  154.4729 C   0  0  0  0  0  0  0  0  0  0  0  0
  148.4835  139.5052  154.3642 C   0  0  0  0  0  0  0  0  0  0  0  0
  149.6234  139.1477  154.9339 N   0  0  0  0  0  0  0  0  0  0  0  0
  153.1188  138.8553  157.2418 N   0  0  0  0  0  0  0  0  0  0  0  0
  152.6547  138.9930  158.6224 C   0  0  0  0  0  0  0  0  0  0  0  0
  153.6264  139.8426  159.4446 C   0  0  0  0  0  0  0  0  0  0  0  0
  153.3948  141.2039  159.1138 O   0  0  0  0  0  0  0  0  0  0  0  0
  152.7136  141.9554  160.1095 C   0  0  1  0  0  0  0  0  0  0  0  0
  153.3846  141.7306  161.4812 C   0  0  0  0  0  0  0  0  0  0  0  0
  152.7773  142.6362  162.5629 C   0  0  0  0  0  0  0  0  0  0  0  0
  152.8547  144.1131  162.1523 C   0  0  0  0  0  0  0  0  0  0  0  0
  152.1774  144.3429  160.7928 C   0  0  0  0  0  0  0  0  0  0  0  0
  152.7791  143.4432  159.6945 C   0  0  2  0  0  0  0  0  0  0  0  0
  152.0803  143.6904  158.3470 C   0  0  0  0  0  0  0  0  0  0  0  0
  151.9135  138.4990  154.0837 H   0  0  0  0  0  0  0  0  0  0  0  0
  153.1350  137.5314  154.8962 H   0  0  0  0  0  0  0  0  0  0  0  0
  153.4424  139.2340  154.5591 H   0  0  0  0  0  0  0  0  0  0  0  0
  151.3075  138.1442  156.4492 H   0  0  0  0  0  0  0  0  0  0  0  0
  151.2430  140.6955  157.1323 H   0  0  0  0  0  0  0  0  0  0  0  0
  152.0633  140.9848  155.6203 H   0  0  0  0  0  0  0  0  0  0  0  0
  149.5577  142.3764  155.4809 H   0  0  0  0  0  0  0  0  0  0  0  0
  147.3840  141.4654  154.1063 H   0  0  0  0  0  0  0  0  0  0  0  0
  147.8781  138.7462  153.8909 H   0  0  0  0  0  0  0  0  0  0  0  0
  153.6494  137.9946  157.1538 H   0  0  0  0  0  0  0  0  0  0  0  0
  151.6607  139.4300  158.6805 H   0  0  0  0  0  0  0  0  0  0  0  0
  152.5757  138.0020  159.0702 H   0  0  0  0  0  0  0  0  0  0  0  0
  153.4260  139.6908  160.5061 H   0  0  0  0  0  0  0  0  0  0  0  0
  154.6590  139.5462  159.2588 H   0  0  0  0  0  0  0  0  0  0  0  0
  151.6652  141.6541  160.1585 H   0  0  0  0  0  0  0  0  0  0  0  0
  153.2873  140.6906  161.7907 H   0  0  0  0  0  0  0  0  0  0  0  0
  154.4542  141.9293  161.4009 H   0  0  0  0  0  0  0  0  0  0  0  0
  151.7367  142.3567  162.7324 H   0  0  0  0  0  0  0  0  0  0  0  0
  153.2970  142.4852  163.5096 H   0  0  0  0  0  0  0  0  0  0  0  0
  152.3832  144.7358  162.9132 H   0  0  0  0  0  0  0  0  0  0  0  0
  153.8985  144.4256  162.0992 H   0  0  0  0  0  0  0  0  0  0  0  0
  151.1078  144.1476  160.8838 H   0  0  0  0  0  0  0  0  0  0  0  0
  152.2760  145.3918  160.5108 H   0  0  0  0  0  0  0  0  0  0  0  0
  153.8291  143.7162  159.5771 H   0  0  0  0  0  0  0  0  0  0  0  0
  151.0259  143.4160  158.3913 H   0  0  0  0  0  0  0  0  0  0  0  0
  152.5407  143.1096  157.5476 H   0  0  0  0  0  0  0  0  0  0  0  0
  152.1392  144.7408  158.0609 H   0  0  0  0  0  0  0  0  0  0  0  0
  1  2  1  0  0  0  0
  1 20  1  0  0  0  0
  1 21  1  0  0  0  0
  1 22  1  0  0  0  0
  2  3  1  0  0  0  0
  2  9  1  0  0  0  0
  2 23  1  0  0  0  0
  3  4  1  0  0  0  0
  3 24  1  0  0  0  0
  3 25  1  0  0  0  0
  4  8  1  0  0  0  0
  4  5  1  0  0  0  0
  5  6  2  0  0  0  0
  5 26  1  0  0  0  0
  6  7  1  0  0  0  0
  6 27  1  0  0  0  0
  7  8  2  0  0  0  0
  7 28  1  0  0  0  0
  9 10  1  0  0  0  0
  9 29  1  0  0  0  0
 10 11  1  0  0  0  0
 10 30  1  0  0  0  0
 10 31  1  0  0  0  0
 11 12  1  0  0  0  0
 11 32  1  0  0  0  0
 11 33  1  0  0  0  0
 12 13  1  0  0  0  0
 13 18  1  0  0  0  0
 13 14  1  0  0  0  0
 13 34  1  0  0  0  0
 14 15  1  0  0  0  0
 14 35  1  0  0  0  0
 14 36  1  0  0  0  0
 15 16  1  0  0  0  0
 15 37  1  0  0  0  0
 15 38  1  0  0  0  0
 16 17  1  0  0  0  0
 16 39  1  0  0  0  0
 16 40  1  0  0  0  0
 17 18  1  0  0  0  0
 17 41  1  0  0  0  0
 17 42  1  0  0  0  0
 18 19  1  0  0  0  0
 18 43  1  0  0  0  0
 19 44  1  0  0  0  0
 19 45  1  0  0  0  0
 19 46  1  0  0  0  0
M  END
> <s_m_source_file>
AV-unprocessed.smi

> <i_m_source_file_index>
3348

> <i_lp_mmshare_version>
43012

> <i_f3d_flags>
0

> <s_epik_input>
bjFbY0hdW2NIXVtjSF1uMVtDSDJdW0NAQEhdKFtDSDNdKVtOSF1bQ0gyXVtDSDJdT1tDQEBIXTJbQ0gyXVtDSDJdW0NIMl1bQ0gyXVtDQEhdMltDSDNd

> <s_epik_cmdline>
J2VwaWtfcHl0aG9uJywgJy1waCcsICc3LjAnLCAnLXRuJywgJzgnLCAnLW1hJywgJzIwMCcsICctbWV0YWxfYmluZGluZycsICctaW1hZScsICc8aW5maWxlLm1hZT4nLCAnLW9tYWUnLCAnPG91dGZpbGUubWFlPic=

> <r_lp_tautomer_probability>
1

> <r_epik_Ionization_Penalty>
2.46945

> <r_epik_Ionization_Penalty_Charging>
0

> <r_epik_Ionization_Penalty_Neutral>
2.46945

> <r_epik_State_Penalty>
2.6322

> <r_epik_Charging_Adjusted_Penalty>
2.6322

> <i_epik_Tot_Q>
0

> <i_epik_Tot_abs_Q>
0

> <r_epik_Metal_State_Penalty>
2.63217

> <b_epik_Metal_Only>
0

> <s_lp_Force_Field>
OPLS_2005

> <r_lp_Energy>
18.1963

> <b_lp_Chiralities_Consistent>
1

> <s_lp_Variant>
AV-unprocessed.smi:3348-15

> <Gold.Version>
5.8.1

> <Gold.Id.Protein>
6NUR|6NUR_protein|mol2

> <Gold.PLP.Fitness>
52.5092

> <Gold.PLP.PLP>
-48.1688

> <Gold.PLP.part.hbond>
-1.3092

> <Gold.PLP.part.metal>
0.0000

> <Gold.PLP.part.buried>
-1.9757

> <Gold.PLP.part.nonpolar>
-43.9357

> <Gold.PLP.part.repulsive>
0.1200

> <Gold.PLP.ligand.clash>
0.0000

> <Gold.PLP.ligand.torsion>
0.8789

> <Gold.PLP.Chemscore.Hbond>
1.0000

> <Gold.PLP.Chemscore.CHOScore>
1.0000

> <Gold.PLP.Chemscore.Metal>
0.0000

> <Gold.Chemscore.Hbonds>
donor molecule, donor type, donor heavy atom, donor atom, acceptor molecule, acceptor atom, score
      P1  H  7997  8010       L1     9  1.00
      L1  C     5    26       P1  8028  1.00

> <Gold.PLP.Chemscore.Internal.Correction>
0.0982

> <Gold.Rescore>
     Score         DG    S(hbond)    S(metal)    S(lipo)     H(rot)  DE(clash)    DE(int)     intcor
     15.86     -17.56       0.03        0.00     140.02       1.72       0.72       0.98       ----

> <Gold.Chemscore.Fitness>
15.8605

> <Gold.Chemscore.DG>
-17.5601

> <Gold.Chemscore.ZeroCoef>
-5.4800

> <Gold.Chemscore.Hbond>
0.0331

> <Gold.Chemscore.Metal>
0.0000

> <Gold.Chemscore.Lipo>
140.0187

> <Gold.Chemscore.Internal_Hbond>
0.0000

> <Gold.Chemscore.DEClash>
0.7192

> <Gold.Chemscore.DEInternal>
0.9804

> <Gold.Chemscore.Rot>
1.7237

> <Gold.Chemscore.Internal.Correction>
   9.000000E+99

> <Gold.Chemscore.Hbonds>
donor molecule, donor type, donor heavy atom, donor atom, acceptor molecule, acceptor atom, score
      P1  H  7997  8010       L1     9  0.07

> <Gold.Chemscore.Hbond.Weighted>
-0.1105

> <Gold.Chemscore.Metal.Weighted>
-0.0000

> <Gold.Chemscore.Lipo.Weighted>
-16.3822

> <Gold.Chemscore.Internal_Hbond.Weighted>
0.0000

> <Gold.Chemscore.DEClash.Weighted>
0.7192

> <Gold.Chemscore.DEInternal.Weighted>
0.9804

> <Gold.Chemscore.Rot.Weighted>
4.4126

> <Gold.Chemscore.Internal.Correction.Weighted>
   9.000000E+99

> <Gold.Protein.RotatedTorsions>
[ 6907 6896 6895 6894 ] final  127.77 input  -60.11 | X-H torsion
[ 7974 7965 7964 7962 ] final  130.48 input  175.53 | X-H torsion
[ 8008 7997 7996 7995 ] final   68.78 input   59.86 | X-H torsion
[ 10167 10162 10161 10158 ] final  123.01 input  -65.29 | X-H torsion
[ 10718 10713 10712 10709 ] final  177.19 input   66.30 | X-H torsion
[ 10763 10752 10751 10750 ] final   -5.60 input  -60.55 | X-H torsion
[ 11005 11000 10999 10996 ] final  -40.20 input  -57.11 | X-H torsion

> <Gold.Protein.ActiveResidues>
 VAL166  LYS551  ARG553  GLY616  TRP617  ASP618  TYR619  PRO620  LYS621  CYS622 
 ASP623  PHE694  ASN695  SER759  ASP760  ASP761  ALA762  ILE779  LEU786  VAL792 
 PHE793  MET794  SER795  GLU796  ALA797  LYS798  CYS799  TRP800  GLU811  SER814 

> <Gold.Protein.RotatedAtoms>
  152.3781  133.6509  159.6139 H   0  0  0  0  0  0  0  0  0  0  0  0  # atno 6907 bound_to 6896
  150.7720  133.9159  159.3392 H   0  0  0  0  0  0  0  0  0  0  0  0  # atno 6908 bound_to 6896
  151.6970  135.0938  160.0295 H   0  0  0  0  0  0  0  0  0  0  0  0  # atno 6909 bound_to 6896
  145.0175  139.4163  143.5214 H   0  0  0  0  0  0  0  0  0  0  0  0  # atno 7974 bound_to 7965
  155.7135  140.3494  155.4984 H   0  0  0  0  0  0  0  0  0  0  0  0  # atno 8008 bound_to 7997
  155.9334  140.1088  157.1136 H   0  0  0  0  0  0  0  0  0  0  0  0  # atno 8009 bound_to 7997
  154.4089  140.1227  156.4819 H   0  0  0  0  0  0  0  0  0  0  0  0  # atno 8010 bound_to 7997
  139.5824  144.6992  151.3494 H   0  0  0  0  0  0  0  0  0  0  0  0  # atno 10167 bound_to 10162
  156.9091  130.9904  151.3023 H   0  0  0  0  0  0  0  0  0  0  0  0  # atno 10718 bound_to 10713
  153.4007  135.7005  153.6428 H   0  0  0  0  0  0  0  0  0  0  0  0  # atno 10763 bound_to 10752
  153.4962  135.3662  155.2517 H   0  0  0  0  0  0  0  0  0  0  0  0  # atno 10764 bound_to 10752
  154.8710  135.4101  154.3342 H   0  0  0  0  0  0  0  0  0  0  0  0  # atno 10765 bound_to 10752
  141.0157  133.6886  156.2289 H   0  0  0  0  0  0  0  0  0  0  0  0  # atno 11005 bound_to 11000
  146.3480  139.9654  142.8712 LP  0  0  0  0  0  0  0  0  0  0  0  0  # atno 17320 bound_to 7965
  145.1940  140.9824  143.4194 LP  0  0  0  0  0  0  0  0  0  0  0  0  # atno 17321 bound_to 7965
  140.7101  143.7413  150.7551 LP  0  0  0  0  0  0  0  0  0  0  0  0  # atno 17342 bound_to 10162
  140.0949  143.4842  152.2458 LP  0  0  0  0  0  0  0  0  0  0  0  0  # atno 17343 bound_to 10162
  157.5979  130.8491  149.8757 LP  0  0  0  0  0  0  0  0  0  0  0  0  # atno 17370 bound_to 10713
  156.0545  130.3711  150.1124 LP  0  0  0  0  0  0  0  0  0  0  0  0  # atno 17371 bound_to 10713
  140.6658  134.4919  157.5585 LP  0  0  0  0  0  0  0  0  0  0  0  0  # atno 17394 bound_to 11000
  139.9116  134.8334  156.1510 LP  0  0  0  0  0  0  0  0  0  0  0  0  # atno 17395 bound_to 11000

$$$$
