AV-unprocessed.smi:2448|AV-procd|sdf|9659|dock6
  -GOLD-   2272013293D 1   1.00000     0.00000
 Structure written by MMmdl.
 38 39  0  0  0  0  0  0  0  0  2 V2000
  153.1160  143.9197  158.6150 O   0  0  0  0  0  0  0  0  0  0  0  0
  152.0380  143.2364  159.2306 C   0  0  1  0  0  0  0  0  0  0  0  0
  151.0052  142.8870  158.1395 C   0  0  0  0  0  0  0  0  0  0  0  0
  151.4288  141.7436  157.3284 N   0  0  0  0  0  0  0  0  0  0  0  0
  150.4711  141.2582  156.3236 C   0  0  2  0  0  0  0  0  0  0  0  0
  149.0136  141.1997  156.8521 C   0  0  0  0  0  0  0  0  0  0  0  0
  147.9373  141.0475  155.7889 C   0  0  0  0  0  0  0  0  0  0  0  0
  147.0796  139.9243  155.7964 C   0  0  0  0  0  0  0  0  0  0  0  0
  146.0923  139.8032  154.7973 C   0  0  0  0  0  0  0  0  0  0  0  0
  145.9795  140.7539  153.8443 N   0  3  0  0  0  0  0  0  0  0  0  0
  146.7836  141.8383  153.7941 C   0  0  0  0  0  0  0  0  0  0  0  0
  147.7895  142.0123  154.7665 C   0  0  0  0  0  0  0  0  0  0  0  0
  150.9273  139.8771  155.8071 C   0  0  0  0  0  0  0  0  0  0  0  0
  152.2392  139.8936  155.5679 F   0  0  0  0  0  0  0  0  0  0  0  0
  150.6643  138.9265  156.7045 F   0  0  0  0  0  0  0  0  0  0  0  0
  150.3032  139.5814  154.6667 F   0  0  0  0  0  0  0  0  0  0  0  0
  152.6111  141.9723  159.8927 C   0  0  0  0  0  0  0  0  0  0  0  0
  153.3712  142.4026  161.1516 C   0  0  0  0  0  0  0  0  0  0  0  0
  152.5072  143.8320  161.8486 S   0  0  0  0  0  0  0  0  0  0  0  0
  151.4680  144.0825  160.3843 C   0  0  0  0  0  0  0  0  0  0  0  0
  153.2130  143.5987  157.7318 H   0  0  0  0  0  0  0  0  0  0  0  0
  150.0427  142.6956  158.6093 H   0  0  0  0  0  0  0  0  0  0  0  0
  150.8702  143.7544  157.4924 H   0  0  0  0  0  0  0  0  0  0  0  0
  152.3111  141.9592  156.8742 H   0  0  0  0  0  0  0  0  0  0  0  0
  150.5040  141.9221  155.4592 H   0  0  0  0  0  0  0  0  0  0  0  0
  148.9000  140.3440  157.5177 H   0  0  0  0  0  0  0  0  0  0  0  0
  148.8087  142.0773  157.4668 H   0  0  0  0  0  0  0  0  0  0  0  0
  147.1717  139.1652  156.5598 H   0  0  0  0  0  0  0  0  0  0  0  0
  145.3958  138.9801  154.7319 H   0  0  0  0  0  0  0  0  0  0  0  0
  146.6011  142.5272  152.9822 H   0  0  0  0  0  0  0  0  0  0  0  0
  148.4373  142.8759  154.7243 H   0  0  0  0  0  0  0  0  0  0  0  0
  151.7913  141.3168  160.1900 H   0  0  0  0  0  0  0  0  0  0  0  0
  153.2443  141.3972  159.2157 H   0  0  0  0  0  0  0  0  0  0  0  0
  153.4467  141.5964  161.8815 H   0  0  0  0  0  0  0  0  0  0  0  0
  154.3843  142.7112  160.8921 H   0  0  0  0  0  0  0  0  0  0  0  0
  151.3938  145.1415  160.1342 H   0  0  0  0  0  0  0  0  0  0  0  0
  150.4654  143.7372  160.6388 H   0  0  0  0  0  0  0  0  0  0  0  0
  145.2589  140.6462  153.1299 H   0  0  0  0  0  0  0  0  0  0  0  0
  1  2  1  0  0  0  0
  1 21  1  0  0  0  0
  2 20  1  0  0  0  0
  2  3  1  0  0  0  0
  2 17  1  0  0  0  0
  3  4  1  0  0  0  0
  3 22  1  0  0  0  0
  3 23  1  0  0  0  0
  4  5  1  0  0  0  0
  4 24  1  0  0  0  0
  5  6  1  0  0  0  0
  5 13  1  0  0  0  0
  5 25  1  0  0  0  0
  6  7  1  0  0  0  0
  6 26  1  0  0  0  0
  6 27  1  0  0  0  0
  7 12  1  0  0  0  0
  7  8  2  0  0  0  0
  8  9  1  0  0  0  0
  8 28  1  0  0  0  0
  9 10  2  0  0  0  0
  9 29  1  0  0  0  0
 10 11  1  0  0  0  0
 10 38  1  0  0  0  0
 11 12  2  0  0  0  0
 11 30  1  0  0  0  0
 12 31  1  0  0  0  0
 13 14  1  0  0  0  0
 13 15  1  0  0  0  0
 13 16  1  0  0  0  0
 17 18  1  0  0  0  0
 17 32  1  0  0  0  0
 17 33  1  0  0  0  0
 18 19  1  0  0  0  0
 18 34  1  0  0  0  0
 18 35  1  0  0  0  0
 19 20  1  0  0  0  0
 20 36  1  0  0  0  0
 20 37  1  0  0  0  0
M  CHG  1  10   1
M  END
> <s_m_source_file>
AV-unprocessed.smi

> <i_m_source_file_index>
2448

> <i_lp_mmshare_version>
43012

> <i_f3d_flags>
0

> <s_epik_input>
W0NIMl0xU1tDSDJdW0NIMl1bQ0BAXTEoW09IXSlbQ0gyXVtOSF1bQ0BASF0oQyhGKShGKUYpW0NIMl1jMltjSF1bY0hdbltjSF1bY0hdMg==

> <s_epik_cmdline>
J2VwaWtfcHl0aG9uJywgJy1waCcsICc3LjAnLCAnLXRuJywgJzgnLCAnLW1hJywgJzIwMCcsICctbWV0YWxfYmluZGluZycsICctaW1hZScsICc8aW5maWxlLm1hZT4nLCAnLW9tYWUnLCAnPG91dGZpbGUubWFlPic=

> <r_epik_Ionization_Penalty>
1.11129

> <r_epik_Ionization_Penalty_Charging>
1.08366

> <r_epik_Ionization_Penalty_Neutral>
0.0276276

> <r_epik_State_Penalty>
1.93785

> <r_epik_Charging_Adjusted_Penalty>
3.02151

> <i_epik_Tot_Q>
1

> <i_epik_Tot_abs_Q>
1

> <r_epik_Metal_State_Penalty>
5.97911

> <b_epik_Metal_Only>
0

> <s_lp_Force_Field>
OPLS_2005

> <r_lp_Energy>
39.4187

> <b_lp_Chiralities_Consistent>
1

> <s_lp_Variant>
AV-unprocessed.smi:2448-9

> <Gold.Version>
5.8.1

> <Gold.Id.Protein>
6NUR|6NUR_protein|mol2

> <Gold.PLP.Fitness>
44.7441

> <Gold.PLP.PLP>
-39.5951

> <Gold.PLP.part.hbond>
-1.0000

> <Gold.PLP.part.metal>
0.0000

> <Gold.PLP.part.buried>
-2.2082

> <Gold.PLP.part.nonpolar>
-34.8146

> <Gold.PLP.part.repulsive>
0.0000

> <Gold.PLP.ligand.clash>
0.0000

> <Gold.PLP.ligand.torsion>
0.7231

> <Gold.PLP.Chemscore.Hbond>
2.0000

> <Gold.PLP.Chemscore.CHOScore>
0.0000

> <Gold.PLP.Chemscore.Metal>
0.0000

> <Gold.Chemscore.Hbonds>
donor molecule, donor type, donor heavy atom, donor atom, acceptor molecule, acceptor atom, score
      L1  H    10    38       P1 10175  2.00

> <Gold.PLP.Chemscore.Internal.Correction>
0.5953

> <Gold.Rescore>
     Score         DG    S(hbond)    S(metal)    S(lipo)     H(rot)  DE(clash)    DE(int)     intcor
     13.43     -14.34       0.96        0.00     101.32       2.42       0.05       0.86       ----

> <Gold.Chemscore.Fitness>
13.4342

> <Gold.Chemscore.DG>
-14.3422

> <Gold.Chemscore.ZeroCoef>
-5.4800

> <Gold.Chemscore.Hbond>
0.9624

> <Gold.Chemscore.Metal>
0.0000

> <Gold.Chemscore.Lipo>
101.3240

> <Gold.Chemscore.Internal_Hbond>
0.0000

> <Gold.Chemscore.DEClash>
0.0486

> <Gold.Chemscore.DEInternal>
0.8594

> <Gold.Chemscore.Rot>
2.4247

> <Gold.Chemscore.Internal.Correction>
   9.000000E+99

> <Gold.Chemscore.Hbonds>
donor molecule, donor type, donor heavy atom, donor atom, acceptor molecule, acceptor atom, score
      L1  H    10    38       P1 10175  0.81

> <Gold.Chemscore.Hbond.Weighted>
-3.2146

> <Gold.Chemscore.Metal.Weighted>
-0.0000

> <Gold.Chemscore.Lipo.Weighted>
-11.8549

> <Gold.Chemscore.Internal_Hbond.Weighted>
0.0000

> <Gold.Chemscore.DEClash.Weighted>
0.0486

> <Gold.Chemscore.DEInternal.Weighted>
0.8594

> <Gold.Chemscore.Rot.Weighted>
6.2072

> <Gold.Chemscore.Internal.Correction.Weighted>
   9.000000E+99

> <Gold.Protein.RotatedTorsions>
[ 6907 6896 6895 6894 ] final  113.19 input  -60.11 | X-H torsion
[ 7974 7965 7964 7962 ] final  133.59 input  175.53 | X-H torsion
[ 8008 7997 7996 7995 ] final  -30.50 input   59.86 | X-H torsion
[ 10167 10162 10161 10158 ] final   -7.33 input  -65.29 | X-H torsion
[ 10718 10713 10712 10709 ] final    7.17 input   66.30 | X-H torsion
[ 10763 10752 10751 10750 ] final -108.86 input  -60.55 | X-H torsion
[ 11005 11000 10999 10996 ] final  179.31 input  -57.11 | X-H torsion

> <Gold.Protein.ActiveResidues>
 VAL166  LYS551  ARG553  GLY616  TRP617  ASP618  TYR619  PRO620  LYS621  CYS622 
 ASP623  PHE694  ASN695  SER759  ASP760  ASP761  ALA762  ILE779  LEU786  VAL792 
 PHE793  MET794  SER795  GLU796  ALA797  LYS798  CYS799  TRP800  GLU811  SER814 

> <Gold.Protein.RotatedAtoms>
  152.4875  133.8410  159.7152 H   0  0  0  0  0  0  0  0  0  0  0  0  # atno 6907 bound_to 6896
  150.8973  133.7154  159.2895 H   0  0  0  0  0  0  0  0  0  0  0  0  # atno 6908 bound_to 6896
  151.4607  135.1042  159.9776 H   0  0  0  0  0  0  0  0  0  0  0  0  # atno 6909 bound_to 6896
  144.9849  139.4466  143.5368 H   0  0  0  0  0  0  0  0  0  0  0  0  # atno 7974 bound_to 7965
  154.4248  140.1789  156.1417 H   0  0  0  0  0  0  0  0  0  0  0  0  # atno 8008 bound_to 7997
  155.9986  140.3362  155.6799 H   0  0  0  0  0  0  0  0  0  0  0  0  # atno 8009 bound_to 7997
  155.6273  140.0666  157.2650 H   0  0  0  0  0  0  0  0  0  0  0  0  # atno 8010 bound_to 7997
  140.7025  143.6093  150.8720 H   0  0  0  0  0  0  0  0  0  0  0  0  # atno 10167 bound_to 10162
  156.9329  130.5832  149.5650 H   0  0  0  0  0  0  0  0  0  0  0  0  # atno 10718 bound_to 10713
  154.8160  135.4622  154.0645 H   0  0  0  0  0  0  0  0  0  0  0  0  # atno 10763 bound_to 10752
  153.2037  135.6872  153.8206 H   0  0  0  0  0  0  0  0  0  0  0  0  # atno 10764 bound_to 10752
  153.7681  135.3274  155.3325 H   0  0  0  0  0  0  0  0  0  0  0  0  # atno 10765 bound_to 10752
  140.4048  134.6745  157.4582 H   0  0  0  0  0  0  0  0  0  0  0  0  # atno 11005 bound_to 11000
  146.3417  139.9145  142.8775 LP  0  0  0  0  0  0  0  0  0  0  0  0  # atno 17320 bound_to 7965
  145.2367  140.9994  143.3959 LP  0  0  0  0  0  0  0  0  0  0  0  0  # atno 17321 bound_to 7965
  139.9816  143.5945  152.2941 LP  0  0  0  0  0  0  0  0  0  0  0  0  # atno 17342 bound_to 10162
  139.6568  144.7662  151.2041 LP  0  0  0  0  0  0  0  0  0  0  0  0  # atno 17343 bound_to 10162
  156.0439  130.5518  150.8835 LP  0  0  0  0  0  0  0  0  0  0  0  0  # atno 17370 bound_to 10713
  157.5835  131.0946  150.9233 LP  0  0  0  0  0  0  0  0  0  0  0  0  # atno 17371 bound_to 10713
  140.0310  134.6406  155.9106 LP  0  0  0  0  0  0  0  0  0  0  0  0  # atno 17394 bound_to 11000
  141.1843  133.6552  156.5153 LP  0  0  0  0  0  0  0  0  0  0  0  0  # atno 17395 bound_to 11000

$$$$
