AV-unprocessed.smi:2703|AV-procd|sdf|10440|dock9
  -GOLD-   2272014483D 1   1.00000     0.00000
 Structure written by MMmdl.
 43 45  0  0  0  0  0  0  0  0  4 V2000
  152.0350  145.1134  160.3393 C   0  0  0  0  0  0  0  0  0  0  0  0
  151.8380  143.8431  159.5297 C   0  0  0  0  0  0  0  0  0  0  0  0
  151.1443  143.9266  158.3016 C   0  0  0  0  0  0  0  0  0  0  0  0
  150.9782  142.7473  157.5852 C   0  0  0  0  0  0  0  0  0  0  0  0
  150.3471  142.5011  156.3643 N   0  3  0  0  0  0  0  0  0  0  0  0
  150.4393  141.1763  156.0641 C   0  0  0  0  0  0  0  0  0  0  0  0
  151.1222  140.5724  157.0742 N   0  0  0  0  0  0  0  0  0  0  0  0
  151.4903  139.1589  157.2405 C   0  0  0  0  0  0  0  0  0  0  0  0
  151.0927  138.5962  158.6192 C   0  0  2  0  0  0  0  0  0  0  0  0
  152.2474  138.4092  159.4153 O   0  0  0  0  0  0  0  0  0  0  0  0
  150.3380  137.2624  158.4964 C   0  0  0  0  0  0  0  0  0  0  0  0
  148.5393  137.4749  158.6391 S   0  0  0  0  0  0  0  0  0  0  0  0
  147.9510  136.3823  159.9113 C   0  0  0  0  0  0  0  0  0  0  0  0
  147.4145  136.8639  161.1261 C   0  0  0  0  0  0  0  0  0  0  0  0
  146.9645  135.9559  162.0970 C   0  0  0  0  0  0  0  0  0  0  0  0
  147.0594  134.5815  161.8348 C   0  0  0  0  0  0  0  0  0  0  0  0
  147.6016  134.1460  160.6107 C   0  0  0  0  0  0  0  0  0  0  0  0
  148.0409  135.0319  159.6643 N   0  3  0  0  0  0  0  0  0  0  0  0
  148.5301  134.5827  158.5613 O   0  5  0  0  0  0  0  0  0  0  0  0
  151.4772  141.5139  158.0481 C   0  0  0  0  0  0  0  0  0  0  0  0
  152.1629  141.4146  159.2569 C   0  0  0  0  0  0  0  0  0  0  0  0
  152.3396  142.6026  160.0018 C   0  0  0  0  0  0  0  0  0  0  0  0
  153.0807  142.5235  161.3257 C   0  0  0  0  0  0  0  0  0  0  0  0
  151.6058  145.9794  159.8346 H   0  0  0  0  0  0  0  0  0  0  0  0
  153.0965  145.3101  160.4922 H   0  0  0  0  0  0  0  0  0  0  0  0
  151.5549  145.0239  161.3139 H   0  0  0  0  0  0  0  0  0  0  0  0
  150.7583  144.8673  157.9369 H   0  0  0  0  0  0  0  0  0  0  0  0
  150.0416  140.6918  155.1840 H   0  0  0  0  0  0  0  0  0  0  0  0
  150.9783  138.6032  156.4538 H   0  0  0  0  0  0  0  0  0  0  0  0
  152.5572  139.0370  157.0528 H   0  0  0  0  0  0  0  0  0  0  0  0
  150.4533  139.3217  159.1238 H   0  0  0  0  0  0  0  0  0  0  0  0
  152.2685  139.0805  160.0796 H   0  0  0  0  0  0  0  0  0  0  0  0
  150.5484  136.8113  157.5263 H   0  0  0  0  0  0  0  0  0  0  0  0
  150.6796  136.5621  159.2597 H   0  0  0  0  0  0  0  0  0  0  0  0
  147.3432  137.9212  161.3274 H   0  0  0  0  0  0  0  0  0  0  0  0
  146.5530  136.3099  163.0311 H   0  0  0  0  0  0  0  0  0  0  0  0
  146.7205  133.8622  162.5658 H   0  0  0  0  0  0  0  0  0  0  0  0
  147.7070  133.1054  160.3393 H   0  0  0  0  0  0  0  0  0  0  0  0
  152.5423  140.4715  159.6201 H   0  0  0  0  0  0  0  0  0  0  0  0
  153.3948  141.5030  161.5470 H   0  0  0  0  0  0  0  0  0  0  0  0
  152.4421  142.8594  162.1429 H   0  0  0  0  0  0  0  0  0  0  0  0
  153.9733  143.1489  161.3029 H   0  0  0  0  0  0  0  0  0  0  0  0
  149.8849  143.1843  155.7779 H   0  0  0  0  0  0  0  0  0  0  0  0
  1  2  1  0  0  0  0
  1 24  1  0  0  0  0
  1 25  1  0  0  0  0
  1 26  1  0  0  0  0
  2 22  1  0  0  0  0
  2  3  2  0  0  0  0
  3  4  1  0  0  0  0
  3 27  1  0  0  0  0
  4 20  2  0  0  0  0
  4  5  1  0  0  0  0
  5  6  2  0  0  0  0
  5 43  1  0  0  0  0
  6  7  1  0  0  0  0
  6 28  1  0  0  0  0
  7  8  1  0  0  0  0
  7 20  1  0  0  0  0
  8  9  1  0  0  0  0
  8 29  1  0  0  0  0
  8 30  1  0  0  0  0
  9 10  1  0  0  0  0
  9 11  1  0  0  0  0
  9 31  1  0  0  0  0
 10 32  1  0  0  0  0
 11 12  1  0  0  0  0
 11 33  1  0  0  0  0
 11 34  1  0  0  0  0
 12 13  1  0  0  0  0
 13 18  1  0  0  0  0
 13 14  2  0  0  0  0
 14 15  1  0  0  0  0
 14 35  1  0  0  0  0
 15 16  2  0  0  0  0
 15 36  1  0  0  0  0
 16 17  1  0  0  0  0
 16 37  1  0  0  0  0
 17 18  2  0  0  0  0
 17 38  1  0  0  0  0
 18 19  1  0  0  0  0
 20 21  1  0  0  0  0
 21 22  2  0  0  0  0
 21 39  1  0  0  0  0
 22 23  1  0  0  0  0
 23 40  1  0  0  0  0
 23 41  1  0  0  0  0
 23 42  1  0  0  0  0
M  CHG  1   5   1
M  CHG  1  18   1
M  CHG  1  19  -1
M  END
> <s_m_source_file>
AV-unprocessed.smi

> <i_m_source_file_index>
2703

> <i_lp_mmshare_version>
43012

> <i_f3d_flags>
0

> <s_epik_input>
W0NIM11jKFtjSF0xKWMoW0NIM10pW2NIXWMoYzEyKW4oW2NIXW4yKVtDSDJdW0NASF0oW09IXSlbQ0gyXVNjM1tjSF1bY0hdW2NIXVtjSF1bbitdM1tPLV0=

> <s_epik_cmdline>
J2VwaWtfcHl0aG9uJywgJy1waCcsICc3LjAnLCAnLXRuJywgJzgnLCAnLW1hJywgJzIwMCcsICctbWV0YWxfYmluZGluZycsICctaW1hZScsICc8aW5maWxlLm1hZT4nLCAnLW9tYWUnLCAnPG91dGZpbGUubWFlPic=

> <r_epik_Ionization_Penalty>
1.07182

> <r_epik_Ionization_Penalty_Charging>
1.07181

> <r_epik_Ionization_Penalty_Neutral>
2.88913e-06

> <r_epik_State_Penalty>
1.12646

> <r_epik_Charging_Adjusted_Penalty>
2.19828

> <i_epik_Tot_Q>
1

> <i_epik_Tot_abs_Q>
3

> <r_epik_Metal_State_Penalty>
5.12345

> <b_epik_Metal_Only>
0

> <s_lp_Force_Field>
OPLS_2005

> <r_lp_Energy>
22.2033

> <b_lp_Chiralities_Consistent>
1

> <s_lp_Variant>
AV-unprocessed.smi:2703-3

> <Gold.Version>
5.8.1

> <Gold.Id.Protein>
6NUR|6NUR_protein|mol2

> <Gold.PLP.Fitness>
56.4110

> <Gold.PLP.PLP>
-50.8876

> <Gold.PLP.part.hbond>
-2.0000

> <Gold.PLP.part.metal>
0.0000

> <Gold.PLP.part.buried>
-5.2763

> <Gold.PLP.part.nonpolar>
-43.4967

> <Gold.PLP.part.repulsive>
0.0688

> <Gold.PLP.ligand.clash>
0.0000

> <Gold.PLP.ligand.torsion>
1.7486

> <Gold.PLP.Chemscore.Hbond>
3.0000

> <Gold.PLP.Chemscore.CHOScore>
0.0000

> <Gold.PLP.Chemscore.Metal>
0.0000

> <Gold.Chemscore.Hbonds>
donor molecule, donor type, donor heavy atom, donor atom, acceptor molecule, acceptor atom, score
      L1  H     5    43       P1  8028  1.95
      P1  H  6896  6909       L1    19  0.23

> <Gold.PLP.Chemscore.Internal.Correction>
0.0205

> <Gold.Rescore>
     Score         DG    S(hbond)    S(metal)    S(lipo)     H(rot)  DE(clash)    DE(int)     intcor
     18.68     -21.32       1.84        0.00     133.74       2.33       0.07       2.56       ----

> <Gold.Chemscore.Fitness>
18.6819

> <Gold.Chemscore.DG>
-21.3210

> <Gold.Chemscore.ZeroCoef>
-5.4800

> <Gold.Chemscore.Hbond>
1.8418

> <Gold.Chemscore.Metal>
0.0000

> <Gold.Chemscore.Lipo>
133.7411

> <Gold.Chemscore.Internal_Hbond>
0.0000

> <Gold.Chemscore.DEClash>
0.0743

> <Gold.Chemscore.DEInternal>
2.5648

> <Gold.Chemscore.Rot>
2.3274

> <Gold.Chemscore.Internal.Correction>
   9.000000E+99

> <Gold.Chemscore.Hbonds>
donor molecule, donor type, donor heavy atom, donor atom, acceptor molecule, acceptor atom, score
      L1  H     5    43       P1  8028  0.93
      P1  H  6896  6909       L1    19  0.04

> <Gold.Chemscore.Hbond.Weighted>
-6.1515

> <Gold.Chemscore.Metal.Weighted>
-0.0000

> <Gold.Chemscore.Lipo.Weighted>
-15.6477

> <Gold.Chemscore.Internal_Hbond.Weighted>
0.0000

> <Gold.Chemscore.DEClash.Weighted>
0.0743

> <Gold.Chemscore.DEInternal.Weighted>
2.5648

> <Gold.Chemscore.Rot.Weighted>
5.9583

> <Gold.Chemscore.Internal.Correction.Weighted>
   9.000000E+99

> <Gold.Protein.RotatedTorsions>
[ 6907 6896 6895 6894 ] final   16.86 input  -60.11 | X-H torsion
[ 7974 7965 7964 7962 ] final -179.58 input  175.53 | X-H torsion
[ 8008 7997 7996 7995 ] final  -23.65 input   59.86 | X-H torsion
[ 10167 10162 10161 10158 ] final  -57.16 input  -65.29 | X-H torsion
[ 10718 10713 10712 10709 ] final   53.98 input   66.30 | X-H torsion
[ 10763 10752 10751 10750 ] final   86.20 input  -60.55 | X-H torsion
[ 11005 11000 10999 10996 ] final   -5.97 input  -57.11 | X-H torsion

> <Gold.Protein.ActiveResidues>
 VAL166  LYS551  ARG553  GLY616  TRP617  ASP618  TYR619  PRO620  LYS621  CYS622 
 ASP623  PHE694  ASN695  SER759  ASP760  ASP761  ALA762  ILE779  LEU786  VAL792 
 PHE793  MET794  SER795  GLU796  ALA797  LYS798  CYS799  TRP800  GLU811  SER814 

> <Gold.Protein.RotatedAtoms>
  151.8405  135.0592  160.0447 H   0  0  0  0  0  0  0  0  0  0  0  0  # atno 6907 bound_to 6896
  152.2813  133.5468  159.5507 H   0  0  0  0  0  0  0  0  0  0  0  0  # atno 6908 bound_to 6896
  150.7190  134.0477  159.3829 H   0  0  0  0  0  0  0  0  0  0  0  0  # atno 6909 bound_to 6896
  144.7137  140.0696  143.6430 H   0  0  0  0  0  0  0  0  0  0  0  0  # atno 7974 bound_to 7965
  154.4573  140.1975  156.0343 H   0  0  0  0  0  0  0  0  0  0  0  0  # atno 8008 bound_to 7997
  156.0772  140.3276  155.7620 H   0  0  0  0  0  0  0  0  0  0  0  0  # atno 8009 bound_to 7997
  155.5170  140.0566  157.2904 H   0  0  0  0  0  0  0  0  0  0  0  0  # atno 8010 bound_to 7997
  140.6274  143.2444  151.5327 H   0  0  0  0  0  0  0  0  0  0  0  0  # atno 10167 bound_to 10162
  157.5216  130.8569  149.8566 H   0  0  0  0  0  0  0  0  0  0  0  0  # atno 10718 bound_to 10713
  153.1547  135.4589  154.9688 H   0  0  0  0  0  0  0  0  0  0  0  0  # atno 10763 bound_to 10752
  154.7852  135.3202  154.7904 H   0  0  0  0  0  0  0  0  0  0  0  0  # atno 10764 bound_to 10752
  153.8403  135.6930  153.4858 H   0  0  0  0  0  0  0  0  0  0  0  0  # atno 10765 bound_to 10752
  140.6969  133.9023  155.8656 H   0  0  0  0  0  0  0  0  0  0  0  0  # atno 11005 bound_to 11000
  145.9794  139.2930  143.1051 LP  0  0  0  0  0  0  0  0  0  0  0  0  # atno 17320 bound_to 7965
  145.9027  140.9232  143.0494 LP  0  0  0  0  0  0  0  0  0  0  0  0  # atno 17321 bound_to 7965
  139.5493  144.2438  152.1500 LP  0  0  0  0  0  0  0  0  0  0  0  0  # atno 17342 bound_to 10162
  140.1673  144.4969  150.6599 LP  0  0  0  0  0  0  0  0  0  0  0  0  # atno 17343 bound_to 10162
  156.0357  130.3752  150.1566 LP  0  0  0  0  0  0  0  0  0  0  0  0  # atno 17370 bound_to 10713
  156.9754  130.9847  151.3449 LP  0  0  0  0  0  0  0  0  0  0  0  0  # atno 17371 bound_to 10713
  141.0196  134.0908  157.4135 LP  0  0  0  0  0  0  0  0  0  0  0  0  # atno 17394 bound_to 11000
  139.8907  135.0114  156.6754 LP  0  0  0  0  0  0  0  0  0  0  0  0  # atno 17395 bound_to 11000

$$$$
