AV-unprocessed.smi:2278|AV-procd|sdf|9182|dock9
  -GOLD-   2272012403D 1   1.00000     0.00000
 Structure written by MMmdl.
 46 47  0  0  0  0  0  0  0  0  2 V2000
  153.2781  142.8770  163.6064 C   0  0  0  0  0  0  0  0  0  0  0  0
  153.0146  142.6413  162.1298 C   0  0  0  0  0  0  0  0  0  0  0  0
  152.1885  143.5811  161.5061 N   0  0  0  0  0  0  0  0  0  0  0  0
  151.9082  143.4609  160.2498 C   0  0  0  0  0  0  0  0  0  0  0  0
  152.4133  142.4004  159.4801 N   0  0  0  0  0  0  0  0  0  0  0  0
  152.0089  142.3670  158.0648 C   0  0  0  0  0  0  0  0  0  0  0  0
  150.4737  142.4329  157.8978 C   0  0  1  0  0  0  0  0  0  0  0  0
  150.0854  143.7927  157.8809 O   0  0  0  0  0  0  0  0  0  0  0  0
  150.0196  141.8089  156.5624 C   0  0  0  0  0  0  0  0  0  0  0  0
  148.6719  142.2770  156.1486 N   0  3  2  0  0  0  0  0  0  0  0  0
  147.6113  141.9682  157.1442 C   0  0  0  0  0  0  0  0  0  0  0  0
  146.2675  142.5977  156.7359 C   0  0  0  0  0  0  0  0  0  0  0  0
  145.8261  142.1652  155.3258 C   0  0  2  0  0  0  0  0  0  0  0  0
  145.3164  140.7140  155.2807 C   0  0  0  0  0  0  0  0  0  0  0  0
  146.9701  142.4262  154.3290 C   0  0  0  0  0  0  0  0  0  0  0  0
  148.3003  141.8039  154.7908 C   0  0  0  0  0  0  0  0  0  0  0  0
  153.2229  141.4383  160.0104 C   0  0  0  0  0  0  0  0  0  0  0  0
  153.6481  140.5046  159.3267 O   0  0  0  0  0  0  0  0  0  0  0  0
  153.5360  141.5902  161.4402 C   0  0  0  0  0  0  0  0  0  0  0  0
  154.4396  140.5349  162.0656 C   0  0  0  0  0  0  0  0  0  0  0  0
  154.3462  142.9961  163.7904 H   0  0  0  0  0  0  0  0  0  0  0  0
  152.9133  142.0368  164.1980 H   0  0  0  0  0  0  0  0  0  0  0  0
  152.7759  143.7781  163.9609 H   0  0  0  0  0  0  0  0  0  0  0  0
  151.2663  144.1651  159.7177 H   0  0  0  0  0  0  0  0  0  0  0  0
  152.4961  143.1455  157.4734 H   0  0  0  0  0  0  0  0  0  0  0  0
  152.3835  141.4368  157.6333 H   0  0  0  0  0  0  0  0  0  0  0  0
  149.9820  141.9349  158.7325 H   0  0  0  0  0  0  0  0  0  0  0  0
  149.7895  144.0123  157.0102 H   0  0  0  0  0  0  0  0  0  0  0  0
  150.7558  142.0563  155.7955 H   0  0  0  0  0  0  0  0  0  0  0  0
  150.0095  140.7199  156.6293 H   0  0  0  0  0  0  0  0  0  0  0  0
  147.5093  140.8872  157.2488 H   0  0  0  0  0  0  0  0  0  0  0  0
  147.8901  142.3474  158.1265 H   0  0  0  0  0  0  0  0  0  0  0  0
  145.4982  142.3460  157.4667 H   0  0  0  0  0  0  0  0  0  0  0  0
  146.3648  143.6840  156.7624 H   0  0  0  0  0  0  0  0  0  0  0  0
  144.9853  142.7967  155.0354 H   0  0  0  0  0  0  0  0  0  0  0  0
  146.0886  139.9966  155.5575 H   0  0  0  0  0  0  0  0  0  0  0  0
  144.9691  140.4536  154.2806 H   0  0  0  0  0  0  0  0  0  0  0  0
  144.4777  140.5743  155.9631 H   0  0  0  0  0  0  0  0  0  0  0  0
  146.7037  142.0505  153.3405 H   0  0  0  0  0  0  0  0  0  0  0  0
  147.1052  143.5028  154.2157 H   0  0  0  0  0  0  0  0  0  0  0  0
  149.0820  142.0782  154.0812 H   0  0  0  0  0  0  0  0  0  0  0  0
  148.2390  140.7148  154.7845 H   0  0  0  0  0  0  0  0  0  0  0  0
  153.9871  139.5475  161.9686 H   0  0  0  0  0  0  0  0  0  0  0  0
  154.6301  140.7047  163.1240 H   0  0  0  0  0  0  0  0  0  0  0  0
  155.4041  140.5167  161.5573 H   0  0  0  0  0  0  0  0  0  0  0  0
  148.7351  143.2833  156.0855 H   0  0  0  0  0  0  0  0  0  0  0  0
  1  2  1  0  0  0  0
  1 21  1  0  0  0  0
  1 22  1  0  0  0  0
  1 23  1  0  0  0  0
  2 19  2  0  0  0  0
  2  3  1  0  0  0  0
  3  4  2  0  0  0  0
  4  5  1  0  0  0  0
  4 24  1  0  0  0  0
  5  6  1  0  0  0  0
  5 17  1  0  0  0  0
  6  7  1  0  0  0  0
  6 25  1  0  0  0  0
  6 26  1  0  0  0  0
  7  8  1  0  0  0  0
  7  9  1  0  0  0  0
  7 27  1  0  0  0  0
  8 28  1  0  0  0  0
  9 10  1  0  0  0  0
  9 29  1  0  0  0  0
  9 30  1  0  0  0  0
 10 16  1  0  0  0  0
 10 11  1  0  0  0  0
 10 46  1  0  0  0  0
 11 12  1  0  0  0  0
 11 31  1  0  0  0  0
 11 32  1  0  0  0  0
 12 13  1  0  0  0  0
 12 33  1  0  0  0  0
 12 34  1  0  0  0  0
 13 14  1  0  0  0  0
 13 15  1  0  0  0  0
 13 35  1  0  0  0  0
 14 36  1  0  0  0  0
 14 37  1  0  0  0  0
 14 38  1  0  0  0  0
 15 16  1  0  0  0  0
 15 39  1  0  0  0  0
 15 40  1  0  0  0  0
 16 41  1  0  0  0  0
 16 42  1  0  0  0  0
 17 18  2  0  0  0  0
 17 19  1  0  0  0  0
 19 20  1  0  0  0  0
 20 43  1  0  0  0  0
 20 44  1  0  0  0  0
 20 45  1  0  0  0  0
M  CHG  1  10   1
M  END
> <s_m_source_file>
AV-unprocessed.smi

> <i_m_source_file_index>
2278

> <i_lp_mmshare_version>
43012

> <i_f3d_flags>
0

> <s_epik_input>
W0NIM11jMW5bY0hdbihjKD1PKWMxW0NIM10pW0NIMl1bQ0BIXShbT0hdKVtDSDJdTjJbQ0gyXVtDSDJdW0NIXShbQ0gzXSlbQ0gyXVtDSDJdMg==

> <s_epik_cmdline>
J2VwaWtfcHl0aG9uJywgJy1waCcsICc3LjAnLCAnLXRuJywgJzgnLCAnLW1hJywgJzIwMCcsICctbWV0YWxfYmluZGluZycsICctaW1hZScsICc8aW5maWxlLm1hZT4nLCAnLW9tYWUnLCAnPG91dGZpbGUubWFlPic=

> <r_lp_tautomer_probability>
1

> <r_epik_Ionization_Penalty>
0.00139489

> <r_epik_Ionization_Penalty_Charging>
0.00136819

> <r_epik_Ionization_Penalty_Neutral>
2.66975e-05

> <r_epik_State_Penalty>
0.000910892

> <r_epik_Charging_Adjusted_Penalty>
0.00227908

> <i_epik_Tot_Q>
1

> <i_epik_Tot_abs_Q>
1

> <r_epik_Metal_State_Penalty>
-0

> <b_epik_Metal_Only>
0

> <s_lp_Force_Field>
OPLS_2005

> <r_lp_Energy>
31.1112

> <b_lp_Chiralities_Consistent>
1

> <s_lp_Variant>
AV-unprocessed.smi:2278-4

> <Gold.Version>
5.8.1

> <Gold.Id.Protein>
6NUR|6NUR_protein|mol2

> <Gold.PLP.Fitness>
51.6660

> <Gold.PLP.PLP>
-43.6975

> <Gold.PLP.part.hbond>
-2.8845

> <Gold.PLP.part.metal>
0.0000

> <Gold.PLP.part.buried>
-4.5318

> <Gold.PLP.part.nonpolar>
-35.6092

> <Gold.PLP.part.repulsive>
0.1798

> <Gold.PLP.ligand.clash>
0.0000

> <Gold.PLP.ligand.torsion>
0.5269

> <Gold.PLP.Chemscore.Hbond>
3.0000

> <Gold.PLP.Chemscore.CHOScore>
0.0000

> <Gold.PLP.Chemscore.Metal>
0.0000

> <Gold.Chemscore.Hbonds>
donor molecule, donor type, donor heavy atom, donor atom, acceptor molecule, acceptor atom, score
      L1  H     8    28       P1  8028  1.00
      L1  H    10    46       P1  8028  1.85

> <Gold.PLP.Chemscore.Internal.Correction>
0.0223

> <Gold.Rescore>
     Score         DG    S(hbond)    S(metal)    S(lipo)     H(rot)  DE(clash)    DE(int)     intcor
     15.79     -16.52       1.90        0.00      88.13       2.20       0.24       0.48       ----

> <Gold.Chemscore.Fitness>
15.7922

> <Gold.Chemscore.DG>
-16.5153

> <Gold.Chemscore.ZeroCoef>
-5.4800

> <Gold.Chemscore.Hbond>
1.9021

> <Gold.Chemscore.Metal>
0.0000

> <Gold.Chemscore.Lipo>
88.1268

> <Gold.Chemscore.Internal_Hbond>
0.0000

> <Gold.Chemscore.DEClash>
0.2432

> <Gold.Chemscore.DEInternal>
0.4799

> <Gold.Chemscore.Rot>
2.1986

> <Gold.Chemscore.Internal.Correction>
   9.000000E+99

> <Gold.Chemscore.Hbonds>
donor molecule, donor type, donor heavy atom, donor atom, acceptor molecule, acceptor atom, score
      L1  H     8    28       P1  8028  0.85
      L1  H    10    46       P1  8028  0.88
      P1  H  7997  8010       L1    18  0.01

> <Gold.Chemscore.Hbond.Weighted>
-6.3530

> <Gold.Chemscore.Metal.Weighted>
-0.0000

> <Gold.Chemscore.Lipo.Weighted>
-10.3108

> <Gold.Chemscore.Internal_Hbond.Weighted>
0.0000

> <Gold.Chemscore.DEClash.Weighted>
0.2432

> <Gold.Chemscore.DEInternal.Weighted>
0.4799

> <Gold.Chemscore.Rot.Weighted>
5.6285

> <Gold.Chemscore.Internal.Correction.Weighted>
   9.000000E+99

> <Gold.Protein.RotatedTorsions>
[ 6907 6896 6895 6894 ] final  -39.35 input  -60.11 | X-H torsion
[ 7974 7965 7964 7962 ] final  -97.09 input  175.53 | X-H torsion
[ 8008 7997 7996 7995 ] final   -1.98 input   59.86 | X-H torsion
[ 10167 10162 10161 10158 ] final  155.72 input  -65.29 | X-H torsion
[ 10718 10713 10712 10709 ] final   59.62 input   66.30 | X-H torsion
[ 10763 10752 10751 10750 ] final -119.10 input  -60.55 | X-H torsion
[ 11005 11000 10999 10996 ] final  -48.15 input  -57.11 | X-H torsion

> <Gold.Protein.ActiveResidues>
 VAL166  LYS551  ARG553  GLY616  TRP617  ASP618  TYR619  PRO620  LYS621  CYS622 
 ASP623  PHE694  ASN695  SER759  ASP760  ASP761  ALA762  ILE779  LEU786  VAL792 
 PHE793  MET794  SER795  GLU796  ALA797  LYS798  CYS799  TRP800  GLU811  SER814 

> <Gold.Protein.RotatedAtoms>
  150.9914  134.9248  159.7901 H   0  0  0  0  0  0  0  0  0  0  0  0  # atno 6907 bound_to 6896
  152.5252  134.3276  159.9181 H   0  0  0  0  0  0  0  0  0  0  0  0  # atno 6908 bound_to 6896
  151.3282  133.3970  159.2695 H   0  0  0  0  0  0  0  0  0  0  0  0  # atno 6909 bound_to 6896
  145.3383  140.9455  143.2622 H   0  0  0  0  0  0  0  0  0  0  0  0  # atno 7974 bound_to 7965
  154.6408  140.2546  155.7324 H   0  0  0  0  0  0  0  0  0  0  0  0  # atno 8008 bound_to 7997
  156.2528  140.2888  156.0721 H   0  0  0  0  0  0  0  0  0  0  0  0  # atno 8009 bound_to 7997
  155.1599  140.0384  157.2830 H   0  0  0  0  0  0  0  0  0  0  0  0  # atno 8010 bound_to 7997
  139.4821  144.5073  151.8078 H   0  0  0  0  0  0  0  0  0  0  0  0  # atno 10167 bound_to 10162
  157.5689  130.8892  149.9234 H   0  0  0  0  0  0  0  0  0  0  0  0  # atno 10718 bound_to 10713
  154.8607  135.4250  154.2245 H   0  0  0  0  0  0  0  0  0  0  0  0  # atno 10763 bound_to 10752
  153.3243  135.6984  153.7009 H   0  0  0  0  0  0  0  0  0  0  0  0  # atno 10764 bound_to 10752
  153.6051  135.3529  155.2933 H   0  0  0  0  0  0  0  0  0  0  0  0  # atno 10765 bound_to 10752
  141.0683  133.6687  156.3399 H   0  0  0  0  0  0  0  0  0  0  0  0  # atno 11005 bound_to 11000
  144.8810  139.4904  143.6723 LP  0  0  0  0  0  0  0  0  0  0  0  0  # atno 17320 bound_to 7965
  146.3018  139.7450  142.9086 LP  0  0  0  0  0  0  0  0  0  0  0  0  # atno 17321 bound_to 7965
  140.4572  144.1772  150.5902 LP  0  0  0  0  0  0  0  0  0  0  0  0  # atno 17342 bound_to 10162
  140.4522  143.2482  151.9332 LP  0  0  0  0  0  0  0  0  0  0  0  0  # atno 17343 bound_to 10162
  156.0736  130.3682  150.0724 LP  0  0  0  0  0  0  0  0  0  0  0  0  # atno 17370 bound_to 10713
  156.8880  130.9579  151.3592 LP  0  0  0  0  0  0  0  0  0  0  0  0  # atno 17371 bound_to 10713
  140.5726  134.5825  157.5461 LP  0  0  0  0  0  0  0  0  0  0  0  0  # atno 17394 bound_to 11000
  139.9498  134.7637  156.0475 LP  0  0  0  0  0  0  0  0  0  0  0  0  # atno 17395 bound_to 11000

$$$$
