AV-unprocessed.smi:967|AV-procd|sdf|4287|dock7
  -GOLD-   22720 2193D 1   1.00000     0.00000
 Structure written by MMmdl.
 42 43  0  0  0  0  0  0  0  0  1 V2000
  153.2618  136.2421  157.6787 C   0  0  0  0  0  0  0  0  0  0  0  0
  152.7656  134.8758  157.6172 N   0  0  0  0  0  0  0  0  0  0  0  0
  153.7712  133.8261  157.5660 C   0  0  0  0  0  0  0  0  0  0  0  0
  151.7501  134.7016  156.6680 C   0  0  0  0  0  0  0  0  0  0  0  0
  151.0040  133.5029  156.6006 C   0  0  0  0  0  0  0  0  0  0  0  0
  149.9942  133.3864  155.6262 C   0  0  0  0  0  0  0  0  0  0  0  0
  149.7572  134.4755  154.7542 C   0  0  0  0  0  0  0  0  0  0  0  0
  148.7861  134.4732  153.7171 N   0  0  0  0  0  0  0  0  0  0  0  0
  147.7904  133.5959  153.5051 C   0  0  0  0  0  0  0  0  0  0  0  0
  147.5295  132.6301  154.2220 O   0  0  0  0  0  0  0  0  0  0  0  0
  147.0906  133.9214  152.4087 N   0  0  0  0  0  0  0  0  0  0  0  0
  145.9265  133.2091  151.8888 C   0  0  2  0  0  0  0  0  0  0  0  0
  146.3219  132.4251  150.6224 C   0  0  0  0  0  0  0  0  0  0  0  0
  145.1054  131.7386  149.9807 C   0  0  0  0  0  0  0  0  0  0  0  0
  143.9941  132.7568  149.6738 C   0  0  1  0  0  0  0  0  0  0  0  0
  142.8708  132.0852  149.1442 O   0  0  0  0  0  0  0  0  0  0  0  0
  143.5843  133.5255  150.9416 C   0  0  0  0  0  0  0  0  0  0  0  0
  144.7973  134.2138  151.5878 C   0  0  0  0  0  0  0  0  0  0  0  0
  150.5679  135.6202  154.8983 C   0  0  0  0  0  0  0  0  0  0  0  0
  151.5358  135.7396  155.8313 N   0  0  0  0  0  0  0  0  0  0  0  0
  152.4356  136.9524  157.7296 H   0  0  0  0  0  0  0  0  0  0  0  0
  153.8681  136.4795  156.8038 H   0  0  0  0  0  0  0  0  0  0  0  0
  153.8776  136.3785  158.5678 H   0  0  0  0  0  0  0  0  0  0  0  0
  153.3041  132.8415  157.5211 H   0  0  0  0  0  0  0  0  0  0  0  0
  154.3963  133.8610  158.4584 H   0  0  0  0  0  0  0  0  0  0  0  0
  154.4144  133.9430  156.6932 H   0  0  0  0  0  0  0  0  0  0  0  0
  151.2015  132.6848  157.2778 H   0  0  0  0  0  0  0  0  0  0  0  0
  149.4370  132.4650  155.5589 H   0  0  0  0  0  0  0  0  0  0  0  0
  148.8202  135.2651  153.0919 H   0  0  0  0  0  0  0  0  0  0  0  0
  147.3821  134.7383  151.8923 H   0  0  0  0  0  0  0  0  0  0  0  0
  145.5576  132.4933  152.6257 H   0  0  0  0  0  0  0  0  0  0  0  0
  146.7781  133.0996  149.8961 H   0  0  0  0  0  0  0  0  0  0  0  0
  147.0780  131.6776  150.8665 H   0  0  0  0  0  0  0  0  0  0  0  0
  145.4100  131.2283  149.0663 H   0  0  0  0  0  0  0  0  0  0  0  0
  144.7280  130.9684  150.6550 H   0  0  0  0  0  0  0  0  0  0  0  0
  144.3483  133.4630  148.9216 H   0  0  0  0  0  0  0  0  0  0  0  0
  142.1354  132.6789  149.1497 H   0  0  0  0  0  0  0  0  0  0  0  0
  142.8244  134.2697  150.7002 H   0  0  0  0  0  0  0  0  0  0  0  0
  143.1319  132.8415  151.6613 H   0  0  0  0  0  0  0  0  0  0  0  0
  144.4887  134.7146  152.5063 H   0  0  0  0  0  0  0  0  0  0  0  0
  145.1651  134.9937  150.9194 H   0  0  0  0  0  0  0  0  0  0  0  0
  150.4340  136.4719  154.2475 H   0  0  0  0  0  0  0  0  0  0  0  0
  1  2  1  0  0  0  0
  1 21  1  0  0  0  0
  1 22  1  0  0  0  0
  1 23  1  0  0  0  0
  2  3  1  0  0  0  0
  2  4  1  0  0  0  0
  3 24  1  0  0  0  0
  3 25  1  0  0  0  0
  3 26  1  0  0  0  0
  4 20  1  0  0  0  0
  4  5  2  0  0  0  0
  5  6  1  0  0  0  0
  5 27  1  0  0  0  0
  6  7  2  0  0  0  0
  6 28  1  0  0  0  0
  7  8  1  0  0  0  0
  7 19  1  0  0  0  0
  8  9  1  0  0  0  0
  8 29  1  0  0  0  0
  9 10  2  0  0  0  0
  9 11  1  0  0  0  0
 11 12  1  0  0  0  0
 11 30  1  0  0  0  0
 12 18  1  0  0  0  0
 12 13  1  0  0  0  0
 12 31  1  0  0  0  0
 13 14  1  0  0  0  0
 13 32  1  0  0  0  0
 13 33  1  0  0  0  0
 14 15  1  0  0  0  0
 14 34  1  0  0  0  0
 14 35  1  0  0  0  0
 15 16  1  0  0  0  0
 15 17  1  0  0  0  0
 15 36  1  0  0  0  0
 16 37  1  0  0  0  0
 17 18  1  0  0  0  0
 17 38  1  0  0  0  0
 17 39  1  0  0  0  0
 18 40  1  0  0  0  0
 18 41  1  0  0  0  0
 19 20  2  0  0  0  0
 19 42  1  0  0  0  0
M  END
> <s_m_source_file>
AV-unprocessed.smi

> <i_m_source_file_index>
967

> <i_lp_mmshare_version>
43012

> <i_f3d_flags>
0

> <s_epik_input>
W0NIM11OKFtDSDNdKWMxW2NIXVtjSF1jKFtjSF1uMSlbTkhdQyg9TylbTkhdW0NAQEhdMltDSDJdW0NIMl1bQ0BASF0oW09IXSlbQ0gyXVtDSDJdMg==

> <s_epik_cmdline>
J2VwaWtfcHl0aG9uJywgJy1waCcsICc3LjAnLCAnLXRuJywgJzgnLCAnLW1hJywgJzIwMCcsICctbWV0YWxfYmluZGluZycsICctaW1hZScsICc8aW5maWxlLm1hZT4nLCAnLW9tYWUnLCAnPG91dGZpbGUubWFlPic=

> <r_lp_tautomer_probability>
1

> <r_epik_Ionization_Penalty>
0.629464

> <r_epik_Ionization_Penalty_Charging>
0

> <r_epik_Ionization_Penalty_Neutral>
0.629464

> <r_epik_State_Penalty>
0.645019

> <r_epik_Charging_Adjusted_Penalty>
0.645019

> <i_epik_Tot_Q>
0

> <i_epik_Tot_abs_Q>
0

> <r_epik_Metal_State_Penalty>
0.308581

> <b_epik_Metal_Only>
0

> <s_lp_Force_Field>
OPLS_2005

> <r_lp_Energy>
16.3049

> <b_lp_Chiralities_Consistent>
1

> <s_lp_Variant>
AV-unprocessed.smi:967-3

> <Gold.Version>
5.8.1

> <Gold.Id.Protein>
6NUR|6NUR_protein|mol2

> <Gold.PLP.Fitness>
45.0246

> <Gold.PLP.PLP>
-30.9499

> <Gold.PLP.part.hbond>
-7.1084

> <Gold.PLP.part.metal>
0.0000

> <Gold.PLP.part.buried>
0.6807

> <Gold.PLP.part.nonpolar>
-24.4456

> <Gold.PLP.part.repulsive>
0.1127

> <Gold.PLP.ligand.clash>
0.0000

> <Gold.PLP.ligand.torsion>
0.2793

> <Gold.PLP.Chemscore.Hbond>
4.5093

> <Gold.PLP.Chemscore.CHOScore>
0.2976

> <Gold.PLP.Chemscore.Metal>
0.0000

> <Gold.Chemscore.Hbonds>
donor molecule, donor type, donor heavy atom, donor atom, acceptor molecule, acceptor atom, score
      L1  H     8    29       P1  7948  1.00
      L1  H    11    30       P1  7948  0.64
      L1  H    16    37       P1 10186  0.83
      P1  H 10752 10765       L1    20  0.90
      P1  H 10785 10796       L1    16  1.00
      L1  C    19    42       P1  7948  0.24
      L1  C    19    42       P1  7949  0.03

> <Gold.PLP.Chemscore.Internal.Correction>
0.2127

> <Gold.Rescore>
     Score         DG    S(hbond)    S(metal)    S(lipo)     H(rot)  DE(clash)    DE(int)     intcor
     18.31     -20.15       3.13        0.00      73.34       1.71       0.37       1.47       ----

> <Gold.Chemscore.Fitness>
18.3108

> <Gold.Chemscore.DG>
-20.1534

> <Gold.Chemscore.ZeroCoef>
-5.4800

> <Gold.Chemscore.Hbond>
3.1336

> <Gold.Chemscore.Metal>
0.0000

> <Gold.Chemscore.Lipo>
73.3392

> <Gold.Chemscore.Internal_Hbond>
0.0000

> <Gold.Chemscore.DEClash>
0.3676

> <Gold.Chemscore.DEInternal>
1.4750

> <Gold.Chemscore.Rot>
1.7084

> <Gold.Chemscore.Internal.Correction>
   9.000000E+99

> <Gold.Chemscore.Hbonds>
donor molecule, donor type, donor heavy atom, donor atom, acceptor molecule, acceptor atom, score
      L1  H     8    29       P1  7948  0.52
      L1  H    11    30       P1  7948  0.46
      L1  H    16    37       P1 10186  0.80
      P1  H 10752 10765       L1    20  0.05
      P1  H 10785 10796       L1    16  0.84

> <Gold.Chemscore.Hbond.Weighted>
-10.4662

> <Gold.Chemscore.Metal.Weighted>
-0.0000

> <Gold.Chemscore.Lipo.Weighted>
-8.5807

> <Gold.Chemscore.Internal_Hbond.Weighted>
0.0000

> <Gold.Chemscore.DEClash.Weighted>
0.3676

> <Gold.Chemscore.DEInternal.Weighted>
1.4750

> <Gold.Chemscore.Rot.Weighted>
4.3735

> <Gold.Chemscore.Internal.Correction.Weighted>
   9.000000E+99

> <Gold.Protein.RotatedTorsions>
[ 6907 6896 6895 6894 ] final   17.25 input  -60.11 | X-H torsion
[ 7974 7965 7964 7962 ] final  170.40 input  175.53 | X-H torsion
[ 8008 7997 7996 7995 ] final -167.44 input   59.86 | X-H torsion
[ 10167 10162 10161 10158 ] final   16.12 input  -65.29 | X-H torsion
[ 10718 10713 10712 10709 ] final  117.74 input   66.30 | X-H torsion
[ 10763 10752 10751 10750 ] final -173.36 input  -60.55 | X-H torsion
[ 11005 11000 10999 10996 ] final  -19.25 input  -57.11 | X-H torsion

> <Gold.Protein.ActiveResidues>
 VAL166  LYS551  ARG553  GLY616  TRP617  ASP618  TYR619  PRO620  LYS621  CYS622 
 ASP623  PHE694  ASN695  SER759  ASP760  ASP761  ALA762  ILE779  LEU786  VAL792 
 PHE793  MET794  SER795  GLU796  ALA797  LYS798  CYS799  TRP800  GLU811  SER814 

> <Gold.Protein.RotatedAtoms>
  151.8466  135.0572  160.0453 H   0  0  0  0  0  0  0  0  0  0  0  0  # atno 6907 bound_to 6896
  152.2768  133.5429  159.5481 H   0  0  0  0  0  0  0  0  0  0  0  0  # atno 6908 bound_to 6896
  150.7173  134.0536  159.3849 H   0  0  0  0  0  0  0  0  0  0  0  0  # atno 6909 bound_to 6896
  144.7325  139.9197  143.6419 H   0  0  0  0  0  0  0  0  0  0  0  0  # atno 7974 bound_to 7965
  155.8777  140.1004  157.1507 H   0  0  0  0  0  0  0  0  0  0  0  0  # atno 8008 bound_to 7997
  154.4002  140.1335  156.4221 H   0  0  0  0  0  0  0  0  0  0  0  0  # atno 8009 bound_to 7997
  155.7678  140.3461  155.5234 H   0  0  0  0  0  0  0  0  0  0  0  0  # atno 8010 bound_to 7997
  140.5819  143.8964  150.6797 H   0  0  0  0  0  0  0  0  0  0  0  0  # atno 10167 bound_to 10162
  157.6077  131.1040  150.7657 H   0  0  0  0  0  0  0  0  0  0  0  0  # atno 10718 bound_to 10713
  154.6087  135.2862  155.0456 H   0  0  0  0  0  0  0  0  0  0  0  0  # atno 10763 bound_to 10752
  154.1694  135.6475  153.5009 H   0  0  0  0  0  0  0  0  0  0  0  0  # atno 10764 bound_to 10752
  153.0186  135.5397  154.6833 H   0  0  0  0  0  0  0  0  0  0  0  0  # atno 10765 bound_to 10752
  140.8348  133.7970  155.9797 H   0  0  0  0  0  0  0  0  0  0  0  0  # atno 11005 bound_to 11000
  146.0939  139.3930  143.0388 LP  0  0  0  0  0  0  0  0  0  0  0  0  # atno 17320 bound_to 7965
  145.7673  140.9911  143.1168 LP  0  0  0  0  0  0  0  0  0  0  0  0  # atno 17321 bound_to 7965
  140.2465  143.3625  152.1442 LP  0  0  0  0  0  0  0  0  0  0  0  0  # atno 17342 bound_to 10162
  139.5175  144.6992  151.5541 LP  0  0  0  0  0  0  0  0  0  0  0  0  # atno 17343 bound_to 10162
  156.8041  130.4931  149.5365 LP  0  0  0  0  0  0  0  0  0  0  0  0  # atno 17370 bound_to 10713
  156.1169  130.6081  151.0133 LP  0  0  0  0  0  0  0  0  0  0  0  0  # atno 17371 bound_to 10713
  140.8959  134.2438  157.5069 LP  0  0  0  0  0  0  0  0  0  0  0  0  # atno 17394 bound_to 11000
  139.8704  134.9684  156.4629 LP  0  0  0  0  0  0  0  0  0  0  0  0  # atno 17395 bound_to 11000

$$$$
