AV-unprocessed.smi:414|AV-procd|sdf|2515|dock10
  -GOLD-   2262022463D 1   1.00000     0.00000
 Structure written by MMmdl.
 38 39  0  0  0  0  0  0  0  0  1 V2000
  150.8203  141.6679  157.6008 C   0  0  0  0  0  0  0  0  0  0  0  0
  150.9002  140.9934  156.2240 C   0  0  2  0  0  0  0  0  0  0  0  0
  149.4972  140.7298  155.6448 C   0  0  0  0  0  0  0  0  0  0  0  0
  149.5717  140.0476  154.2676 C   0  0  0  0  0  0  0  0  0  0  0  0
  150.3928  138.7406  154.3080 C   0  0  2  0  0  0  0  0  0  0  0  0
  149.7045  137.6943  155.0624 N   0  0  0  0  0  0  0  0  0  0  0  0
  150.2125  136.4928  155.3754 C   0  0  0  0  0  0  0  0  0  0  0  0
  151.3461  136.1357  155.0512 O   0  0  0  0  0  0  0  0  0  0  0  0
  149.2807  135.5613  156.1645 C   0  0  0  0  0  0  0  0  0  0  0  0
  149.5165  134.1342  155.8997 N   0  0  0  0  0  0  0  0  0  0  0  0
  149.3365  133.6235  154.6220 C   0  0  0  0  0  0  0  0  0  0  0  0
  149.5449  132.3245  154.3016 C   0  0  0  0  0  0  0  0  0  0  0  0
  149.9830  131.3743  155.3183 C   0  0  0  0  0  0  0  0  0  0  0  0
  150.1967  130.1793  155.1270 O   0  0  0  0  0  0  0  0  0  0  0  0
  150.1559  131.9267  156.5904 N   0  0  0  0  0  0  0  0  0  0  0  0
  149.9445  133.2648  156.9268 C   0  0  0  0  0  0  0  0  0  0  0  0
  150.1329  133.6495  158.0802 O   0  0  0  0  0  0  0  0  0  0  0  0
  151.7882  138.9965  154.9091 C   0  0  0  0  0  0  0  0  0  0  0  0
  151.7140  139.6865  156.2836 C   0  0  0  0  0  0  0  0  0  0  0  0
  150.4622  131.3073  157.3265 H   0  0  0  0  0  0  0  0  0  0  0  0
  150.3134  141.0304  158.3260 H   0  0  0  0  0  0  0  0  0  0  0  0
  150.2732  142.6096  157.5456 H   0  0  0  0  0  0  0  0  0  0  0  0
  151.8152  141.8875  157.9888 H   0  0  0  0  0  0  0  0  0  0  0  0
  151.4167  141.6801  155.5519 H   0  0  0  0  0  0  0  0  0  0  0  0
  148.9235  140.1065  156.3319 H   0  0  0  0  0  0  0  0  0  0  0  0
  148.9499  141.6686  155.5544 H   0  0  0  0  0  0  0  0  0  0  0  0
  148.5662  139.8599  153.8899 H   0  0  0  0  0  0  0  0  0  0  0  0
  150.0335  140.7343  153.5574 H   0  0  0  0  0  0  0  0  0  0  0  0
  150.5289  138.3814  153.2863 H   0  0  0  0  0  0  0  0  0  0  0  0
  148.7647  137.9020  155.3672 H   0  0  0  0  0  0  0  0  0  0  0  0
  149.3824  135.7749  157.2303 H   0  0  0  0  0  0  0  0  0  0  0  0
  148.2491  135.8184  155.9183 H   0  0  0  0  0  0  0  0  0  0  0  0
  149.0164  134.2926  153.8358 H   0  0  0  0  0  0  0  0  0  0  0  0
  149.3878  131.9870  153.2873 H   0  0  0  0  0  0  0  0  0  0  0  0
  152.3422  138.0605  154.9903 H   0  0  0  0  0  0  0  0  0  0  0  0
  152.3600  139.6267  154.2268 H   0  0  0  0  0  0  0  0  0  0  0  0
  152.7236  139.8940  156.6399 H   0  0  0  0  0  0  0  0  0  0  0  0
  151.2679  139.0072  157.0113 H   0  0  0  0  0  0  0  0  0  0  0  0
  1  2  1  0  0  0  0
  1 21  1  0  0  0  0
  1 22  1  0  0  0  0
  1 23  1  0  0  0  0
  2 19  1  0  0  0  0
  2  3  1  0  0  0  0
  2 24  1  0  0  0  0
  3  4  1  0  0  0  0
  3 25  1  0  0  0  0
  3 26  1  0  0  0  0
  4  5  1  0  0  0  0
  4 27  1  0  0  0  0
  4 28  1  0  0  0  0
  5  6  1  0  0  0  0
  5 18  1  0  0  0  0
  5 29  1  0  0  0  0
  6  7  1  0  0  0  0
  6 30  1  0  0  0  0
  7  8  2  0  0  0  0
  7  9  1  0  0  0  0
  9 10  1  0  0  0  0
  9 31  1  0  0  0  0
  9 32  1  0  0  0  0
 10 16  1  0  0  0  0
 10 11  1  0  0  0  0
 11 12  2  0  0  0  0
 11 33  1  0  0  0  0
 12 13  1  0  0  0  0
 12 34  1  0  0  0  0
 13 14  2  0  0  0  0
 13 15  1  0  0  0  0
 15 20  1  0  0  0  0
 15 16  1  0  0  0  0
 16 17  2  0  0  0  0
 18 19  1  0  0  0  0
 18 35  1  0  0  0  0
 18 36  1  0  0  0  0
 19 37  1  0  0  0  0
 19 38  1  0  0  0  0
M  END
> <s_m_source_file>
AV-unprocessed.smi

> <i_m_source_file_index>
414

> <i_lp_mmshare_version>
43012

> <i_f3d_flags>
0

> <s_epik_input>
W0NIM11bQ0BASF0xW0NIMl1bQ0gyXVtDQEhdKFtDSDJdW0NIMl0xKVtOSF1DKD1PKVtDSDJdbjJbY0hdW2NIXWMoPU8pW25IXWMyPU8=

> <s_epik_cmdline>
J2VwaWtfcHl0aG9uJywgJy1waCcsICc3LjAnLCAnLXRuJywgJzgnLCAnLW1hJywgJzIwMCcsICctbWV0YWxfYmluZGluZycsICctaW1hZScsICc8aW5maWxlLm1hZT4nLCAnLW9tYWUnLCAnPG91dGZpbGUubWFlPic=

> <r_lp_tautomer_probability>
0.999537

> <r_epik_Ionization_Penalty>
0.00309124

> <r_epik_Ionization_Penalty_Charging>
0.00309122

> <r_epik_Ionization_Penalty_Neutral>
1.90469e-08

> <r_epik_State_Penalty>
0.00217484

> <r_epik_Charging_Adjusted_Penalty>
0.00526606

> <i_epik_Tot_Q>
0

> <i_epik_Tot_abs_Q>
0

> <r_epik_Metal_State_Penalty>
0.362537

> <b_epik_Metal_Only>
0

> <s_lp_Force_Field>
OPLS_2005

> <r_lp_Energy>
7.68142

> <b_lp_Chiralities_Consistent>
1

> <s_lp_Variant>
AV-unprocessed.smi:414-2

> <Gold.Version>
5.8.1

> <Gold.Id.Protein>
6NUR|6NUR_protein|mol2

> <Gold.PLP.Fitness>
41.9317

> <Gold.PLP.PLP>
-33.8141

> <Gold.PLP.part.hbond>
-2.0000

> <Gold.PLP.part.metal>
0.0000

> <Gold.PLP.part.buried>
-3.3300

> <Gold.PLP.part.nonpolar>
-28.8842

> <Gold.PLP.part.repulsive>
0.2686

> <Gold.PLP.ligand.clash>
0.0000

> <Gold.PLP.ligand.torsion>
0.4450

> <Gold.PLP.Chemscore.Hbond>
2.0000

> <Gold.PLP.Chemscore.CHOScore>
1.0000

> <Gold.PLP.Chemscore.Metal>
0.0000

> <Gold.Chemscore.Hbonds>
donor molecule, donor type, donor heavy atom, donor atom, acceptor molecule, acceptor atom, score
      P1  H  6896  6908       L1    17  0.67
      P1  H 10752 10764       L1     8  1.00
      L1  C    11    33       P1  7948  0.43

> <Gold.PLP.Chemscore.Internal.Correction>
0.0075

> <Gold.Rescore>
     Score         DG    S(hbond)    S(metal)    S(lipo)     H(rot)  DE(clash)    DE(int)     intcor
     14.70     -15.07       1.99        0.00      62.12       1.69       0.01       0.36       ----

> <Gold.Chemscore.Fitness>
14.6958

> <Gold.Chemscore.DG>
-15.0696

> <Gold.Chemscore.ZeroCoef>
-5.4800

> <Gold.Chemscore.Hbond>
1.9886

> <Gold.Chemscore.Metal>
0.0000

> <Gold.Chemscore.Lipo>
62.1157

> <Gold.Chemscore.Internal_Hbond>
0.0000

> <Gold.Chemscore.DEClash>
0.0149

> <Gold.Chemscore.DEInternal>
0.3589

> <Gold.Chemscore.Rot>
1.6874

> <Gold.Chemscore.Internal.Correction>
   9.000000E+99

> <Gold.Chemscore.Hbonds>
donor molecule, donor type, donor heavy atom, donor atom, acceptor molecule, acceptor atom, score
      P1  H  6896  6908       L1    17  0.63
      P1  H 10752 10764       L1     8  1.00

> <Gold.Chemscore.Hbond.Weighted>
-6.6419

> <Gold.Chemscore.Metal.Weighted>
-0.0000

> <Gold.Chemscore.Lipo.Weighted>
-7.2675

> <Gold.Chemscore.Internal_Hbond.Weighted>
0.0000

> <Gold.Chemscore.DEClash.Weighted>
0.0149

> <Gold.Chemscore.DEInternal.Weighted>
0.3589

> <Gold.Chemscore.Rot.Weighted>
4.3198

> <Gold.Chemscore.Internal.Correction.Weighted>
   9.000000E+99

> <Gold.Protein.RotatedTorsions>
[ 6907 6896 6895 6894 ] final  103.28 input  -60.11 | X-H torsion
[ 7974 7965 7964 7962 ] final  154.47 input  175.53 | X-H torsion
[ 8008 7997 7996 7995 ] final  -74.55 input   59.86 | X-H torsion
[ 10167 10162 10161 10158 ] final  156.48 input  -65.29 | X-H torsion
[ 10718 10713 10712 10709 ] final  -55.24 input   66.30 | X-H torsion
[ 10763 10752 10751 10750 ] final  -55.17 input  -60.55 | X-H torsion
[ 11005 11000 10999 10996 ] final -123.38 input  -57.11 | X-H torsion

> <Gold.Protein.ActiveResidues>
 VAL166  LYS551  ARG553  GLY616  TRP617  ASP618  TYR619  PRO620  LYS621  CYS622 
 ASP623  PHE694  ASN695  SER759  ASP760  ASP761  ALA762  ILE779  LEU786  VAL792 
 PHE793  MET794  SER795  GLU796  ALA797  LYS798  CYS799  TRP800  GLU811  SER814 

> <Gold.Protein.RotatedAtoms>
  152.5300  133.9849  159.7823 H   0  0  0  0  0  0  0  0  0  0  0  0  # atno 6907 bound_to 6896
  151.0096  133.5970  159.2691 H   0  0  0  0  0  0  0  0  0  0  0  0  # atno 6908 bound_to 6896
  151.3049  135.0785  159.9305 H   0  0  0  0  0  0  0  0  0  0  0  0  # atno 6909 bound_to 6896
  144.8087  139.6937  143.6151 H   0  0  0  0  0  0  0  0  0  0  0  0  # atno 7974 bound_to 7965
  154.5340  140.0759  156.8395 H   0  0  0  0  0  0  0  0  0  0  0  0  # atno 8008 bound_to 7997
  155.3316  140.3402  155.4221 H   0  0  0  0  0  0  0  0  0  0  0  0  # atno 8009 bound_to 7997
  156.1810  140.1652  156.8261 H   0  0  0  0  0  0  0  0  0  0  0  0  # atno 8010 bound_to 7997
  139.4821  144.5005  151.8176 H   0  0  0  0  0  0  0  0  0  0  0  0  # atno 10167 bound_to 10162
  156.1385  130.4155  150.0145 H   0  0  0  0  0  0  0  0  0  0  0  0  # atno 10718 bound_to 10713
  154.1865  135.6434  153.5048 H   0  0  0  0  0  0  0  0  0  0  0  0  # atno 10763 bound_to 10752
  153.0046  135.5418  154.6459 H   0  0  0  0  0  0  0  0  0  0  0  0  # atno 10764 bound_to 10752
  154.5837  135.2927  155.0679 H   0  0  0  0  0  0  0  0  0  0  0  0  # atno 10765 bound_to 10752
  140.9923  134.0521  157.3639 H   0  0  0  0  0  0  0  0  0  0  0  0  # atno 11005 bound_to 11000
  146.2382  139.5948  142.9509 LP  0  0  0  0  0  0  0  0  0  0  0  0  # atno 17320 bound_to 7965
  145.5376  141.0423  143.2348 LP  0  0  0  0  0  0  0  0  0  0  0  0  # atno 17321 bound_to 7965
  140.4497  144.1871  150.5896 LP  0  0  0  0  0  0  0  0  0  0  0  0  # atno 17342 bound_to 10162
  140.4597  143.2454  151.9236 LP  0  0  0  0  0  0  0  0  0  0  0  0  # atno 17343 bound_to 10162
  156.8037  130.9300  151.3645 LP  0  0  0  0  0  0  0  0  0  0  0  0  # atno 17370 bound_to 10713
  157.6554  130.8920  149.9718 LP  0  0  0  0  0  0  0  0  0  0  0  0  # atno 17371 bound_to 10713
  139.8998  135.0160  156.7213 LP  0  0  0  0  0  0  0  0  0  0  0  0  # atno 17394 bound_to 11000
  140.7020  133.9298  155.8030 LP  0  0  0  0  0  0  0  0  0  0  0  0  # atno 17395 bound_to 11000

$$$$
