AV-unprocessed.smi:1244|AV-procd|sdf|5221|dock9
  -GOLD-   22720 4323D 1   1.00000     0.00000
 Structure written by MMmdl.
 54 56  0  0  0  0  0  0  0  0  1 V2000
  150.8794  144.9508  159.4697 C   0  0  0  0  0  0  0  0  0  0  0  0
  151.9003  144.2221  158.5791 C   0  0  2  0  0  0  0  0  0  0  0  0
  151.2560  143.2041  157.6169 C   0  0  0  0  0  0  0  0  0  0  0  0
  150.7963  141.9965  158.2950 N   0  0  0  0  0  0  0  0  0  0  0  0
  150.1946  141.0613  157.3457 C   0  0  0  0  0  0  0  0  0  0  0  0
  149.0649  141.6537  156.4813 C   0  0  0  0  0  0  0  0  0  0  0  0
  148.1539  142.4719  157.2730 N   0  0  0  0  0  0  0  0  0  0  0  0
  147.3521  142.0105  158.2430 C   0  0  0  0  0  0  0  0  0  0  0  0
  147.3128  140.8298  158.5896 O   0  0  0  0  0  0  0  0  0  0  0  0
  146.5957  142.9939  158.7590 N   0  0  0  0  0  0  0  0  0  0  0  0
  145.6158  142.8981  159.7874 C   0  0  0  0  0  0  0  0  0  0  0  0
  145.4418  141.7057  160.5319 C   0  0  0  0  0  0  0  0  0  0  0  0
  144.4506  141.6505  161.5266 C   0  0  0  0  0  0  0  0  0  0  0  0
  143.6664  142.7948  161.7460 C   0  0  0  0  0  0  0  0  0  0  0  0
  143.8320  143.9431  161.0601 N   0  0  0  0  0  0  0  0  0  0  0  0
  144.7944  144.0177  160.1076 C   0  0  0  0  0  0  0  0  0  0  0  0
  144.9289  145.2547  159.4355 N   0  0  0  0  0  0  0  0  0  0  0  0
  143.9760  145.6404  158.3997 C   0  0  0  0  0  0  0  0  0  0  0  0
  144.1987  147.1360  158.1942 C   0  0  0  0  0  0  0  0  0  0  0  0
  144.5254  147.6114  159.6064 C   0  0  0  0  0  0  0  0  0  0  0  0
  145.2923  146.4333  160.2166 C   0  0  0  0  0  0  0  0  0  0  0  0
  151.9137  141.4116  159.0299 C   0  0  0  0  0  0  0  0  0  0  0  0
  152.5248  142.4051  160.0348 C   0  0  1  0  0  0  0  0  0  0  0  0
  153.7558  141.8260  160.7401 C   0  0  0  0  0  0  0  0  0  0  0  0
  152.9238  143.5915  159.3507 O   0  0  0  0  0  0  0  0  0  0  0  0
  150.1768  145.5238  158.8644 H   0  0  0  0  0  0  0  0  0  0  0  0
  151.3788  145.6475  160.1436 H   0  0  0  0  0  0  0  0  0  0  0  0
  150.2961  144.2587  160.0767 H   0  0  0  0  0  0  0  0  0  0  0  0
  152.3971  144.9835  157.9769 H   0  0  0  0  0  0  0  0  0  0  0  0
  150.4257  143.6768  157.0907 H   0  0  0  0  0  0  0  0  0  0  0  0
  151.9871  142.9327  156.8537 H   0  0  0  0  0  0  0  0  0  0  0  0
  150.9752  140.6999  156.6748 H   0  0  0  0  0  0  0  0  0  0  0  0
  149.8271  140.1818  157.8767 H   0  0  0  0  0  0  0  0  0  0  0  0
  149.4709  142.2924  155.6980 H   0  0  0  0  0  0  0  0  0  0  0  0
  148.5103  140.8585  155.9806 H   0  0  0  0  0  0  0  0  0  0  0  0
  148.1194  143.4566  157.0541 H   0  0  0  0  0  0  0  0  0  0  0  0
  146.6549  143.8905  158.2993 H   0  0  0  0  0  0  0  0  0  0  0  0
  146.0575  140.8359  160.3601 H   0  0  0  0  0  0  0  0  0  0  0  0
  144.2948  140.7520  162.1052 H   0  0  0  0  0  0  0  0  0  0  0  0
  142.8910  142.7916  162.4975 H   0  0  0  0  0  0  0  0  0  0  0  0
  144.1362  145.0753  157.4810 H   0  0  0  0  0  0  0  0  0  0  0  0
  142.9515  145.4709  158.7334 H   0  0  0  0  0  0  0  0  0  0  0  0
  145.0543  147.3007  157.5375 H   0  0  0  0  0  0  0  0  0  0  0  0
  143.3339  147.6390  157.7610 H   0  0  0  0  0  0  0  0  0  0  0  0
  145.0935  148.5419  159.6230 H   0  0  0  0  0  0  0  0  0  0  0  0
  143.5995  147.7727  160.1603 H   0  0  0  0  0  0  0  0  0  0  0  0
  145.0619  146.3130  161.2761 H   0  0  0  0  0  0  0  0  0  0  0  0
  146.3651  146.6006  160.1189 H   0  0  0  0  0  0  0  0  0  0  0  0
  151.5858  140.5282  159.5763 H   0  0  0  0  0  0  0  0  0  0  0  0
  152.6818  141.0797  158.3298 H   0  0  0  0  0  0  0  0  0  0  0  0
  151.7830  142.6577  160.7931 H   0  0  0  0  0  0  0  0  0  0  0  0
  153.5026  140.9195  161.2905 H   0  0  0  0  0  0  0  0  0  0  0  0
  154.1694  142.5415  161.4510 H   0  0  0  0  0  0  0  0  0  0  0  0
  154.5396  141.5760  160.0246 H   0  0  0  0  0  0  0  0  0  0  0  0
  1  2  1  0  0  0  0
  1 26  1  0  0  0  0
  1 27  1  0  0  0  0
  1 28  1  0  0  0  0
  2 25  1  0  0  0  0
  2  3  1  0  0  0  0
  2 29  1  0  0  0  0
  3  4  1  0  0  0  0
  3 30  1  0  0  0  0
  3 31  1  0  0  0  0
  4  5  1  0  0  0  0
  4 22  1  0  0  0  0
  5  6  1  0  0  0  0
  5 32  1  0  0  0  0
  5 33  1  0  0  0  0
  6  7  1  0  0  0  0
  6 34  1  0  0  0  0
  6 35  1  0  0  0  0
  7  8  1  0  0  0  0
  7 36  1  0  0  0  0
  8  9  2  0  0  0  0
  8 10  1  0  0  0  0
 10 11  1  0  0  0  0
 10 37  1  0  0  0  0
 11 16  1  0  0  0  0
 11 12  2  0  0  0  0
 12 13  1  0  0  0  0
 12 38  1  0  0  0  0
 13 14  2  0  0  0  0
 13 39  1  0  0  0  0
 14 15  1  0  0  0  0
 14 40  1  0  0  0  0
 15 16  2  0  0  0  0
 16 17  1  0  0  0  0
 17 21  1  0  0  0  0
 17 18  1  0  0  0  0
 18 19  1  0  0  0  0
 18 41  1  0  0  0  0
 18 42  1  0  0  0  0
 19 20  1  0  0  0  0
 19 43  1  0  0  0  0
 19 44  1  0  0  0  0
 20 21  1  0  0  0  0
 20 45  1  0  0  0  0
 20 46  1  0  0  0  0
 21 47  1  0  0  0  0
 21 48  1  0  0  0  0
 22 23  1  0  0  0  0
 22 49  1  0  0  0  0
 22 50  1  0  0  0  0
 23 24  1  0  0  0  0
 23 25  1  0  0  0  0
 23 51  1  0  0  0  0
 24 52  1  0  0  0  0
 24 53  1  0  0  0  0
 24 54  1  0  0  0  0
M  END
> <s_m_source_file>
AV-unprocessed.smi

> <i_m_source_file_index>
1244

> <i_lp_mmshare_version>
43012

> <i_f3d_flags>
0

> <s_epik_input>
W0NIM11bQ0BASF0xW0NIMl1OKFtDSDJdW0NASF0oTzEpW0NIM10pW0NIMl1bQ0gyXVtOSF1DKD1PKVtOSF1jMltjSF1bY0hdW2NIXW5jMk4zW0NIMl1bQ0gyXVtDSDJdW0NIMl0z

> <s_epik_cmdline>
J2VwaWtfcHl0aG9uJywgJy1waCcsICc3LjAnLCAnLXRuJywgJzgnLCAnLW1hJywgJzIwMCcsICctbWV0YWxfYmluZGluZycsICctaW1hZScsICc8aW5maWxlLm1hZT4nLCAnLW9tYWUnLCAnPG91dGZpbGUubWFlPic=

> <r_lp_tautomer_probability>
1

> <r_epik_Ionization_Penalty>
0.363951

> <r_epik_Ionization_Penalty_Charging>
0

> <r_epik_Ionization_Penalty_Neutral>
0.363951

> <r_epik_State_Penalty>
0.349372

> <r_epik_Charging_Adjusted_Penalty>
0.349372

> <i_epik_Tot_Q>
0

> <i_epik_Tot_abs_Q>
0

> <r_epik_Metal_State_Penalty>
0.333054

> <b_epik_Metal_Only>
0

> <s_lp_Force_Field>
OPLS_2005

> <r_lp_Energy>
51.1959

> <b_lp_Chiralities_Consistent>
1

> <s_lp_Variant>
AV-unprocessed.smi:1244-1

> <Gold.Version>
5.8.1

> <Gold.Id.Protein>
6NUR|6NUR_protein|mol2

> <Gold.PLP.Fitness>
49.7207

> <Gold.PLP.PLP>
-44.1944

> <Gold.PLP.part.hbond>
-3.1995

> <Gold.PLP.part.metal>
0.0000

> <Gold.PLP.part.buried>
-6.7982

> <Gold.PLP.part.nonpolar>
-36.5094

> <Gold.PLP.part.repulsive>
2.7974

> <Gold.PLP.ligand.clash>
0.0000

> <Gold.PLP.ligand.torsion>
0.3400

> <Gold.PLP.Chemscore.Hbond>
1.9512

> <Gold.PLP.Chemscore.CHOScore>
0.0000

> <Gold.PLP.Chemscore.Metal>
0.0000

> <Gold.Chemscore.Hbonds>
donor molecule, donor type, donor heavy atom, donor atom, acceptor molecule, acceptor atom, score
      L1  H     7    36       P1  8028  0.39
      P1  H  6934  6946       L1     9  0.05

> <Gold.PLP.Chemscore.Internal.Correction>
0.3527

> <Gold.Rescore>
     Score         DG    S(hbond)    S(metal)    S(lipo)     H(rot)  DE(clash)    DE(int)     intcor
     16.37     -20.17       1.24        0.00     124.08       1.55       2.15       1.65       ----

> <Gold.Chemscore.Fitness>
16.3723

> <Gold.Chemscore.DG>
-20.1725

> <Gold.Chemscore.ZeroCoef>
-5.4800

> <Gold.Chemscore.Hbond>
1.2389

> <Gold.Chemscore.Metal>
0.0000

> <Gold.Chemscore.Lipo>
124.0795

> <Gold.Chemscore.Internal_Hbond>
0.0000

> <Gold.Chemscore.DEClash>
2.1476

> <Gold.Chemscore.DEInternal>
1.6526

> <Gold.Chemscore.Rot>
1.5479

> <Gold.Chemscore.Internal.Correction>
   9.000000E+99

> <Gold.Chemscore.Hbonds>
donor molecule, donor type, donor heavy atom, donor atom, acceptor molecule, acceptor atom, score
      L1  H     7    36       P1  8028  0.02
      P1  H  6934  6946       L1     9  0.04

> <Gold.Chemscore.Hbond.Weighted>
-4.1379

> <Gold.Chemscore.Metal.Weighted>
-0.0000

> <Gold.Chemscore.Lipo.Weighted>
-14.5173

> <Gold.Chemscore.Internal_Hbond.Weighted>
0.0000

> <Gold.Chemscore.DEClash.Weighted>
2.1476

> <Gold.Chemscore.DEInternal.Weighted>
1.6526

> <Gold.Chemscore.Rot.Weighted>
3.9627

> <Gold.Chemscore.Internal.Correction.Weighted>
   9.000000E+99

> <Gold.Protein.RotatedTorsions>
[ 6907 6896 6895 6894 ] final   58.30 input  -60.11 | X-H torsion
[ 7974 7965 7964 7962 ] final   73.75 input  175.53 | X-H torsion
[ 8008 7997 7996 7995 ] final -113.84 input   59.86 | X-H torsion
[ 10167 10162 10161 10158 ] final   82.27 input  -65.29 | X-H torsion
[ 10718 10713 10712 10709 ] final   91.17 input   66.30 | X-H torsion
[ 10763 10752 10751 10750 ] final   -8.22 input  -60.55 | X-H torsion
[ 11005 11000 10999 10996 ] final  170.66 input  -57.11 | X-H torsion

> <Gold.Protein.ActiveResidues>
 VAL166  LYS551  ARG553  GLY616  TRP617  ASP618  TYR619  PRO620  LYS621  CYS622 
 ASP623  PHE694  ASN695  SER759  ASP760  ASP761  ALA762  ILE779  LEU786  VAL792 
 PHE793  MET794  SER795  GLU796  ALA797  LYS798  CYS799  TRP800  GLU811  SER814 

> <Gold.Protein.RotatedAtoms>
  152.3811  134.6588  160.0142 H   0  0  0  0  0  0  0  0  0  0  0  0  # atno 6907 bound_to 6896
  151.6851  133.3306  159.3237 H   0  0  0  0  0  0  0  0  0  0  0  0  # atno 6908 bound_to 6896
  150.7748  134.6683  159.6422 H   0  0  0  0  0  0  0  0  0  0  0  0  # atno 6909 bound_to 6896
  145.7370  139.2706  143.1508 H   0  0  0  0  0  0  0  0  0  0  0  0  # atno 7974 bound_to 7965
  155.0269  140.0393  157.2459 H   0  0  0  0  0  0  0  0  0  0  0  0  # atno 8008 bound_to 7997
  154.7329  140.2734  155.6416 H   0  0  0  0  0  0  0  0  0  0  0  0  # atno 8009 bound_to 7997
  156.2846  140.2680  156.2035 H   0  0  0  0  0  0  0  0  0  0  0  0  # atno 8010 bound_to 7997
  139.9306  144.6155  150.8349 H   0  0  0  0  0  0  0  0  0  0  0  0  # atno 10167 bound_to 10162
  157.6960  131.0397  150.3689 H   0  0  0  0  0  0  0  0  0  0  0  0  # atno 10718 bound_to 10713
  153.4374  135.7013  153.6191 H   0  0  0  0  0  0  0  0  0  0  0  0  # atno 10763 bound_to 10752
  153.4580  135.3742  155.2322 H   0  0  0  0  0  0  0  0  0  0  0  0  # atno 10764 bound_to 10752
  154.8727  135.4013  154.3767 H   0  0  0  0  0  0  0  0  0  0  0  0  # atno 10765 bound_to 10752
  140.3107  134.7519  157.3988 H   0  0  0  0  0  0  0  0  0  0  0  0  # atno 11005 bound_to 11000
  146.0484  140.8094  142.9794 LP  0  0  0  0  0  0  0  0  0  0  0  0  # atno 17320 bound_to 7965
  144.6879  140.3016  143.7262 LP  0  0  0  0  0  0  0  0  0  0  0  0  # atno 17321 bound_to 7965
  140.7638  143.3233  151.2572 LP  0  0  0  0  0  0  0  0  0  0  0  0  # atno 17342 bound_to 10162
  139.6786  143.9894  152.2795 LP  0  0  0  0  0  0  0  0  0  0  0  0  # atno 17343 bound_to 10162
  156.4116  130.3935  149.6887 LP  0  0  0  0  0  0  0  0  0  0  0  0  # atno 17370 bound_to 10713
  156.4169  130.7750  151.2765 LP  0  0  0  0  0  0  0  0  0  0  0  0  # atno 17371 bound_to 10713
  140.1028  134.5450  155.8337 LP  0  0  0  0  0  0  0  0  0  0  0  0  # atno 17394 bound_to 11000
  141.2109  133.6700  156.6541 LP  0  0  0  0  0  0  0  0  0  0  0  0  # atno 17395 bound_to 11000

$$$$
