AV-unprocessed.smi:2413|AV-procd|sdf|9535|dock10
  -GOLD-   2272013163D 1   1.00000     0.00000
 Structure written by MMmdl.
 45 46  0  0  0  0  0  0  0  0  1 V2000
  147.3301  145.8830  160.2814 C   0  0  0  0  0  0  0  0  0  0  0  0
  148.5138  144.9524  160.5228 C   0  0  0  0  0  0  0  0  0  0  0  0
  148.5911  144.3091  161.5691 O   0  0  0  0  0  0  0  0  0  0  0  0
  149.4297  144.8913  159.5449 N   0  0  0  0  0  0  0  0  0  0  0  0
  150.6407  144.0785  159.5807 C   0  0  0  0  0  0  0  0  0  0  0  0
  150.4715  142.7711  158.7883 C   0  0  1  0  0  0  0  0  0  0  0  0
  149.5743  142.9651  157.5510 C   0  0  0  0  0  0  0  0  0  0  0  0
  149.5259  141.7456  156.7480 N   0  0  0  0  0  0  0  0  0  0  0  0
  148.5323  141.6339  155.7484 C   0  0  0  0  0  0  0  0  0  0  0  0
  148.6990  140.8433  154.5842 C   0  0  0  0  0  0  0  0  0  0  0  0
  147.6379  140.8413  153.6588 C   0  0  0  0  0  0  0  0  0  0  0  0
  146.5103  141.5509  153.8656 N   0  0  0  0  0  0  0  0  0  0  0  0
  146.4180  142.2392  155.0095 C   0  0  0  0  0  0  0  0  0  0  0  0
  145.2016  143.1655  155.1797 C   0  0  0  0  0  0  0  0  0  0  0  0
  145.2904  143.9622  156.5030 C   0  0  0  0  0  0  0  0  0  0  0  0
  143.8882  142.3522  155.2569 C   0  0  0  0  0  0  0  0  0  0  0  0
  145.1330  144.1437  153.9927 C   0  0  0  0  0  0  0  0  0  0  0  0
  147.3875  142.3355  155.9277 N   0  0  0  0  0  0  0  0  0  0  0  0
  150.8392  141.1796  156.4389 C   0  0  0  0  0  0  0  0  0  0  0  0
  151.6948  141.0666  157.7110 C   0  0  0  0  0  0  0  0  0  0  0  0
  151.7575  142.3303  158.3612 O   0  0  0  0  0  0  0  0  0  0  0  0
  147.6750  146.8744  159.9861 H   0  0  0  0  0  0  0  0  0  0  0  0
  146.7277  145.9867  161.1845 H   0  0  0  0  0  0  0  0  0  0  0  0
  146.6936  145.4879  159.4892 H   0  0  0  0  0  0  0  0  0  0  0  0
  149.2874  145.4608  158.7235 H   0  0  0  0  0  0  0  0  0  0  0  0
  151.4814  144.6538  159.1890 H   0  0  0  0  0  0  0  0  0  0  0  0
  150.8769  143.8576  160.6221 H   0  0  0  0  0  0  0  0  0  0  0  0
  150.0259  142.0142  159.4371 H   0  0  0  0  0  0  0  0  0  0  0  0
  148.5740  143.2320  157.8925 H   0  0  0  0  0  0  0  0  0  0  0  0
  149.9450  143.7856  156.9350 H   0  0  0  0  0  0  0  0  0  0  0  0
  149.5837  140.2587  154.3850 H   0  0  0  0  0  0  0  0  0  0  0  0
  147.6977  140.2711  152.7436 H   0  0  0  0  0  0  0  0  0  0  0  0
  144.4083  144.5863  156.6513 H   0  0  0  0  0  0  0  0  0  0  0  0
  146.1532  144.6292  156.5213 H   0  0  0  0  0  0  0  0  0  0  0  0
  145.3693  143.2964  157.3634 H   0  0  0  0  0  0  0  0  0  0  0  0
  143.9157  141.6300  156.0737 H   0  0  0  0  0  0  0  0  0  0  0  0
  143.6930  141.8026  154.3354 H   0  0  0  0  0  0  0  0  0  0  0  0
  143.0280  143.0017  155.4230 H   0  0  0  0  0  0  0  0  0  0  0  0
  144.2806  144.8182  154.0802 H   0  0  0  0  0  0  0  0  0  0  0  0
  145.0353  143.6110  153.0462 H   0  0  0  0  0  0  0  0  0  0  0  0
  146.0328  144.7568  153.9326 H   0  0  0  0  0  0  0  0  0  0  0  0
  150.7572  140.1898  155.9899 H   0  0  0  0  0  0  0  0  0  0  0  0
  151.3354  141.8214  155.7100 H   0  0  0  0  0  0  0  0  0  0  0  0
  151.2879  140.3143  158.3888 H   0  0  0  0  0  0  0  0  0  0  0  0
  152.7057  140.7489  157.4549 H   0  0  0  0  0  0  0  0  0  0  0  0
  1  2  1  0  0  0  0
  1 22  1  0  0  0  0
  1 23  1  0  0  0  0
  1 24  1  0  0  0  0
  2  3  2  0  0  0  0
  2  4  1  0  0  0  0
  4  5  1  0  0  0  0
  4 25  1  0  0  0  0
  5  6  1  0  0  0  0
  5 26  1  0  0  0  0
  5 27  1  0  0  0  0
  6 21  1  0  0  0  0
  6  7  1  0  0  0  0
  6 28  1  0  0  0  0
  7  8  1  0  0  0  0
  7 29  1  0  0  0  0
  7 30  1  0  0  0  0
  8  9  1  0  0  0  0
  8 19  1  0  0  0  0
  9 18  1  0  0  0  0
  9 10  2  0  0  0  0
 10 11  1  0  0  0  0
 10 31  1  0  0  0  0
 11 12  2  0  0  0  0
 11 32  1  0  0  0  0
 12 13  1  0  0  0  0
 13 14  1  0  0  0  0
 13 18  2  0  0  0  0
 14 15  1  0  0  0  0
 14 16  1  0  0  0  0
 14 17  1  0  0  0  0
 15 33  1  0  0  0  0
 15 34  1  0  0  0  0
 15 35  1  0  0  0  0
 16 36  1  0  0  0  0
 16 37  1  0  0  0  0
 16 38  1  0  0  0  0
 17 39  1  0  0  0  0
 17 40  1  0  0  0  0
 17 41  1  0  0  0  0
 19 20  1  0  0  0  0
 19 42  1  0  0  0  0
 19 43  1  0  0  0  0
 20 21  1  0  0  0  0
 20 44  1  0  0  0  0
 20 45  1  0  0  0  0
M  END
> <s_m_source_file>
AV-unprocessed.smi

> <i_m_source_file_index>
2413

> <i_lp_mmshare_version>
43012

> <i_f3d_flags>
0

> <s_epik_input>
W0NIM11DKD1PKVtOSF1bQ0gyXVtDQEBIXTFbQ0gyXU4oW0NIMl1bQ0gyXU8xKWMyW2NIXVtjSF1uYyhuMilDKFtDSDNdKShbQ0gzXSlbQ0gzXQ==

> <s_epik_cmdline>
J2VwaWtfcHl0aG9uJywgJy1waCcsICc3LjAnLCAnLXRuJywgJzgnLCAnLW1hJywgJzIwMCcsICctbWV0YWxfYmluZGluZycsICctaW1hZScsICc8aW5maWxlLm1hZT4nLCAnLW9tYWUnLCAnPG91dGZpbGUubWFlPic=

> <r_lp_tautomer_probability>
1

> <r_epik_Ionization_Penalty>
0.0132021

> <r_epik_Ionization_Penalty_Charging>
0

> <r_epik_Ionization_Penalty_Neutral>
0.0132021

> <r_epik_State_Penalty>
0.0102452

> <r_epik_Charging_Adjusted_Penalty>
0.0102452

> <i_epik_Tot_Q>
0

> <i_epik_Tot_abs_Q>
0

> <r_epik_Metal_State_Penalty>
0.0100219

> <b_epik_Metal_Only>
0

> <s_lp_Force_Field>
OPLS_2005

> <r_lp_Energy>
8.35197

> <b_lp_Chiralities_Consistent>
1

> <s_lp_Variant>
AV-unprocessed.smi:2413-2

> <Gold.Version>
5.8.1

> <Gold.Id.Protein>
6NUR|6NUR_protein|mol2

> <Gold.PLP.Fitness>
34.5115

> <Gold.PLP.PLP>
-27.5448

> <Gold.PLP.part.hbond>
-2.0000

> <Gold.PLP.part.metal>
0.0000

> <Gold.PLP.part.buried>
-1.9223

> <Gold.PLP.part.nonpolar>
-26.4232

> <Gold.PLP.part.repulsive>
2.3230

> <Gold.PLP.ligand.clash>
0.0000

> <Gold.PLP.ligand.torsion>
0.9558

> <Gold.PLP.Chemscore.Hbond>
1.7520

> <Gold.PLP.Chemscore.CHOScore>
1.0000

> <Gold.PLP.Chemscore.Metal>
0.0000

> <Gold.Chemscore.Hbonds>
donor molecule, donor type, donor heavy atom, donor atom, acceptor molecule, acceptor atom, score
      L1  H     4    25       P1  8029  0.82
      P1  H  6933  6944       L1     3  0.75
      L1  C    11    32       P1  7957  0.99

> <Gold.PLP.Chemscore.Internal.Correction>
0.6223

> <Gold.Rescore>
     Score         DG    S(hbond)    S(metal)    S(lipo)     H(rot)  DE(clash)    DE(int)     intcor
     11.98     -14.44       1.68        0.00      66.39       1.73       1.48       0.97       ----

> <Gold.Chemscore.Fitness>
11.9832

> <Gold.Chemscore.DG>
-14.4353

> <Gold.Chemscore.ZeroCoef>
-5.4800

> <Gold.Chemscore.Hbond>
1.6839

> <Gold.Chemscore.Metal>
0.0000

> <Gold.Chemscore.Lipo>
66.3940

> <Gold.Chemscore.Internal_Hbond>
0.0000

> <Gold.Chemscore.DEClash>
1.4827

> <Gold.Chemscore.DEInternal>
0.9694

> <Gold.Chemscore.Rot>
1.7332

> <Gold.Chemscore.Internal.Correction>
   9.000000E+99

> <Gold.Chemscore.Hbonds>
donor molecule, donor type, donor heavy atom, donor atom, acceptor molecule, acceptor atom, score
      L1  H     4    25       P1  8029  0.75
      P1  H  6933  6944       L1     3  0.71

> <Gold.Chemscore.Hbond.Weighted>
-5.6243

> <Gold.Chemscore.Metal.Weighted>
-0.0000

> <Gold.Chemscore.Lipo.Weighted>
-7.7681

> <Gold.Chemscore.Internal_Hbond.Weighted>
0.0000

> <Gold.Chemscore.DEClash.Weighted>
1.4827

> <Gold.Chemscore.DEInternal.Weighted>
0.9694

> <Gold.Chemscore.Rot.Weighted>
4.4370

> <Gold.Chemscore.Internal.Correction.Weighted>
   9.000000E+99

> <Gold.Protein.RotatedTorsions>
[ 6907 6896 6895 6894 ] final    9.01 input  -60.11 | X-H torsion
[ 7974 7965 7964 7962 ] final    8.71 input  175.53 | X-H torsion
[ 8008 7997 7996 7995 ] final -159.31 input   59.86 | X-H torsion
[ 10167 10162 10161 10158 ] final  -28.51 input  -65.29 | X-H torsion
[ 10718 10713 10712 10709 ] final   86.68 input   66.30 | X-H torsion
[ 10763 10752 10751 10750 ] final  133.19 input  -60.55 | X-H torsion
[ 11005 11000 10999 10996 ] final   89.29 input  -57.11 | X-H torsion

> <Gold.Protein.ActiveResidues>
 VAL166  LYS551  ARG553  GLY616  TRP617  ASP618  TYR619  PRO620  LYS621  CYS622 
 ASP623  PHE694  ASN695  SER759  ASP760  ASP761  ALA762  ILE779  LEU786  VAL792 
 PHE793  MET794  SER795  GLU796  ALA797  LYS798  CYS799  TRP800  GLU811  SER814 

> <Gold.Protein.RotatedAtoms>
  151.7152  135.0905  160.0274 H   0  0  0  0  0  0  0  0  0  0  0  0  # atno 6907 bound_to 6896
  152.3636  133.6324  159.6042 H   0  0  0  0  0  0  0  0  0  0  0  0  # atno 6908 bound_to 6896
  150.7622  133.9299  159.3465 H   0  0  0  0  0  0  0  0  0  0  0  0  # atno 6909 bound_to 6896
  146.2413  139.9892  142.8427 H   0  0  0  0  0  0  0  0  0  0  0  0  # atno 7974 bound_to 7965
  155.7606  140.0838  157.2157 H   0  0  0  0  0  0  0  0  0  0  0  0  # atno 8008 bound_to 7997
  154.4004  140.1543  156.2884 H   0  0  0  0  0  0  0  0  0  0  0  0  # atno 8009 bound_to 7997
  155.8843  140.3419  155.5913 H   0  0  0  0  0  0  0  0  0  0  0  0  # atno 8010 bound_to 7997
  140.7269  143.4004  151.1274 H   0  0  0  0  0  0  0  0  0  0  0  0  # atno 10167 bound_to 10162
  157.6931  131.0225  150.3010 H   0  0  0  0  0  0  0  0  0  0  0  0  # atno 10718 bound_to 10713
  153.8031  135.3139  155.3392 H   0  0  0  0  0  0  0  0  0  0  0  0  # atno 10763 bound_to 10752
  154.8081  135.4685  154.0447 H   0  0  0  0  0  0  0  0  0  0  0  0  # atno 10764 bound_to 10752
  153.1802  135.6892  153.8576 H   0  0  0  0  0  0  0  0  0  0  0  0  # atno 10765 bound_to 10752
  139.8878  134.8542  156.3120 H   0  0  0  0  0  0  0  0  0  0  0  0  # atno 11005 bound_to 11000
  145.1519  140.9627  143.4428 LP  0  0  0  0  0  0  0  0  0  0  0  0  # atno 17320 bound_to 7965
  145.0197  139.3435  143.6078 LP  0  0  0  0  0  0  0  0  0  0  0  0  # atno 17321 bound_to 7965
  139.7623  143.8616  152.3103 LP  0  0  0  0  0  0  0  0  0  0  0  0  # atno 17342 bound_to 10162
  139.8507  144.7166  150.9218 LP  0  0  0  0  0  0  0  0  0  0  0  0  # atno 17343 bound_to 10162
  156.3526  130.3833  149.7317 LP  0  0  0  0  0  0  0  0  0  0  0  0  # atno 17370 bound_to 10713
  156.4790  130.8032  151.3047 LP  0  0  0  0  0  0  0  0  0  0  0  0  # atno 17371 bound_to 10713
  140.9843  133.7247  156.0719 LP  0  0  0  0  0  0  0  0  0  0  0  0  # atno 17394 bound_to 11000
  140.7708  134.3835  157.5508 LP  0  0  0  0  0  0  0  0  0  0  0  0  # atno 17395 bound_to 11000

$$$$
