AV-unprocessed.smi:1581|AV-procd|sdf|6360|dock1
  -GOLD-   22720 6583D 1   1.00000     0.00000
 Structure written by MMmdl.
 34 35  0  0  0  0  0  0  0  0  1 V2000
  147.4302  145.0490  160.5021 C   0  0  0  0  0  0  0  0  0  0  0  0
  148.9367  144.8211  160.4478 C   0  0  0  0  0  0  0  0  0  0  0  0
  149.4957  144.1673  161.3275 O   0  0  0  0  0  0  0  0  0  0  0  0
  149.5825  145.3732  159.4096 N   0  0  0  0  0  0  0  0  0  0  0  0
  151.0207  145.2824  159.1747 C   0  0  0  0  0  0  0  0  0  0  0  0
  151.5404  143.8791  158.8859 C   0  0  0  0  0  0  0  0  0  0  0  0
  152.5677  143.3426  159.6864 C   0  0  0  0  0  0  0  0  0  0  0  0
  153.0230  142.0398  159.4131 C   0  0  0  0  0  0  0  0  0  0  0  0
  152.5253  141.2752  158.4193 N   0  0  0  0  0  0  0  0  0  0  0  0
  151.5380  141.7792  157.6384 C   0  0  0  0  0  0  0  0  0  0  0  0
  151.0315  140.9754  156.5950 N   0  0  0  0  0  0  0  0  0  0  0  0
  150.1668  141.6657  155.6413 C   0  0  0  0  0  0  0  0  0  0  0  0
  149.4495  140.6503  154.7345 C   0  0  0  0  0  0  0  0  0  0  0  0
  150.4049  139.8015  154.1066 O   0  0  0  0  0  0  0  0  0  0  0  0
  151.1583  139.0566  155.0575 C   0  0  0  0  0  0  0  0  0  0  0  0
  151.9409  140.0203  155.9651 C   0  0  0  0  0  0  0  0  0  0  0  0
  151.0128  143.0761  157.8493 C   0  0  0  0  0  0  0  0  0  0  0  0
  147.2115  146.1078  160.6426 H   0  0  0  0  0  0  0  0  0  0  0  0
  146.9836  144.4950  161.3285 H   0  0  0  0  0  0  0  0  0  0  0  0
  146.9599  144.7178  159.5760 H   0  0  0  0  0  0  0  0  0  0  0  0
  149.0426  145.8969  158.7361 H   0  0  0  0  0  0  0  0  0  0  0  0
  151.2990  145.9479  158.3557 H   0  0  0  0  0  0  0  0  0  0  0  0
  151.5311  145.6577  160.0617 H   0  0  0  0  0  0  0  0  0  0  0  0
  152.9987  143.9145  160.4951 H   0  0  0  0  0  0  0  0  0  0  0  0
  153.8083  141.5990  160.0091 H   0  0  0  0  0  0  0  0  0  0  0  0
  149.4222  142.2809  156.1446 H   0  0  0  0  0  0  0  0  0  0  0  0
  150.7772  142.3382  155.0373 H   0  0  0  0  0  0  0  0  0  0  0  0
  148.7383  140.0532  155.3073 H   0  0  0  0  0  0  0  0  0  0  0  0
  148.8797  141.1720  153.9654 H   0  0  0  0  0  0  0  0  0  0  0  0
  150.4949  138.4200  155.6455 H   0  0  0  0  0  0  0  0  0  0  0  0
  151.8461  138.3969  154.5286 H   0  0  0  0  0  0  0  0  0  0  0  0
  152.6863  140.5606  155.3797 H   0  0  0  0  0  0  0  0  0  0  0  0
  152.4738  139.4494  156.7266 H   0  0  0  0  0  0  0  0  0  0  0  0
  150.2077  143.4438  157.2312 H   0  0  0  0  0  0  0  0  0  0  0  0
  1  2  1  0  0  0  0
  1 18  1  0  0  0  0
  1 19  1  0  0  0  0
  1 20  1  0  0  0  0
  2  3  2  0  0  0  0
  2  4  1  0  0  0  0
  4  5  1  0  0  0  0
  4 21  1  0  0  0  0
  5  6  1  0  0  0  0
  5 22  1  0  0  0  0
  5 23  1  0  0  0  0
  6 17  1  0  0  0  0
  6  7  2  0  0  0  0
  7  8  1  0  0  0  0
  7 24  1  0  0  0  0
  8  9  2  0  0  0  0
  8 25  1  0  0  0  0
  9 10  1  0  0  0  0
 10 11  1  0  0  0  0
 10 17  2  0  0  0  0
 11 16  1  0  0  0  0
 11 12  1  0  0  0  0
 12 13  1  0  0  0  0
 12 26  1  0  0  0  0
 12 27  1  0  0  0  0
 13 14  1  0  0  0  0
 13 28  1  0  0  0  0
 13 29  1  0  0  0  0
 14 15  1  0  0  0  0
 15 16  1  0  0  0  0
 15 30  1  0  0  0  0
 15 31  1  0  0  0  0
 16 32  1  0  0  0  0
 16 33  1  0  0  0  0
 17 34  1  0  0  0  0
M  END
> <s_m_source_file>
AV-unprocessed.smi

> <i_m_source_file_index>
1581

> <i_lp_mmshare_version>
43012

> <i_f3d_flags>
0

> <s_epik_input>
W0NIM11DKD1PKVtOSF1bQ0gyXWMxW2NIXVtjSF1uYyhbY0hdMSlOMltDSDJdW0NIMl1PW0NIMl1bQ0gyXTI=

> <s_epik_cmdline>
J2VwaWtfcHl0aG9uJywgJy1waCcsICc3LjAnLCAnLXRuJywgJzgnLCAnLW1hJywgJzIwMCcsICctbWV0YWxfYmluZGluZycsICctaW1hZScsICc8aW5maWxlLm1hZT4nLCAnLW9tYWUnLCAnPG91dGZpbGUubWFlPic=

> <r_lp_tautomer_probability>
1

> <r_epik_Ionization_Penalty>
0.0056686

> <r_epik_Ionization_Penalty_Charging>
0

> <r_epik_Ionization_Penalty_Neutral>
0.0056686

> <r_epik_State_Penalty>
0.00415614

> <r_epik_Charging_Adjusted_Penalty>
0.00415614

> <i_epik_Tot_Q>
0

> <i_epik_Tot_abs_Q>
0

> <r_epik_Metal_State_Penalty>
-0

> <b_epik_Metal_Only>
0

> <s_lp_Force_Field>
OPLS_2005

> <r_lp_Energy>
12.8791

> <b_lp_Chiralities_Consistent>
1

> <s_lp_Variant>
AV-unprocessed.smi:1581-1

> <Gold.Version>
5.8.1

> <Gold.Id.Protein>
6NUR|6NUR_protein|mol2

> <Gold.PLP.Fitness>
45.0428

> <Gold.PLP.PLP>
-38.6347

> <Gold.PLP.part.hbond>
-3.0000

> <Gold.PLP.part.metal>
0.0000

> <Gold.PLP.part.buried>
-6.2398

> <Gold.PLP.part.nonpolar>
-30.8980

> <Gold.PLP.part.repulsive>
1.4603

> <Gold.PLP.ligand.clash>
0.0000

> <Gold.PLP.ligand.torsion>
0.5306

> <Gold.PLP.Chemscore.Hbond>
2.3840

> <Gold.PLP.Chemscore.CHOScore>
0.0000

> <Gold.PLP.Chemscore.Metal>
0.0000

> <Gold.Chemscore.Hbonds>
donor molecule, donor type, donor heavy atom, donor atom, acceptor molecule, acceptor atom, score
      L1  H     4    21       P1  8029  1.00
      P1  H  6933  6944       L1     3  0.32
      P1  H  7989  7998       L1    14  1.00

> <Gold.PLP.Chemscore.Internal.Correction>
0.3174

> <Gold.Rescore>
     Score         DG    S(hbond)    S(metal)    S(lipo)     H(rot)  DE(clash)    DE(int)     intcor
     17.99     -18.71       2.32        0.00      80.78       1.54       0.14       0.57       ----

> <Gold.Chemscore.Fitness>
17.9947

> <Gold.Chemscore.DG>
-18.7106

> <Gold.Chemscore.ZeroCoef>
-5.4800

> <Gold.Chemscore.Hbond>
2.3156

> <Gold.Chemscore.Metal>
0.0000

> <Gold.Chemscore.Lipo>
80.7797

> <Gold.Chemscore.Internal_Hbond>
0.0000

> <Gold.Chemscore.DEClash>
0.1445

> <Gold.Chemscore.DEInternal>
0.5715

> <Gold.Chemscore.Rot>
1.5448

> <Gold.Chemscore.Internal.Correction>
   9.000000E+99

> <Gold.Chemscore.Hbonds>
donor molecule, donor type, donor heavy atom, donor atom, acceptor molecule, acceptor atom, score
      L1  H     4    21       P1  8029  0.95
      P1  H  6933  6944       L1     3  0.20
      P1  H  7989  7998       L1    14  0.15

> <Gold.Chemscore.Hbond.Weighted>
-7.7340

> <Gold.Chemscore.Metal.Weighted>
-0.0000

> <Gold.Chemscore.Lipo.Weighted>
-9.4512

> <Gold.Chemscore.Internal_Hbond.Weighted>
0.0000

> <Gold.Chemscore.DEClash.Weighted>
0.1445

> <Gold.Chemscore.DEInternal.Weighted>
0.5715

> <Gold.Chemscore.Rot.Weighted>
3.9546

> <Gold.Chemscore.Internal.Correction.Weighted>
   9.000000E+99

> <Gold.Protein.RotatedTorsions>
[ 6907 6896 6895 6894 ] final  129.77 input  -60.11 | X-H torsion
[ 7974 7965 7964 7962 ] final   54.73 input  175.53 | X-H torsion
[ 8008 7997 7996 7995 ] final   -7.56 input   59.86 | X-H torsion
[ 10167 10162 10161 10158 ] final  173.84 input  -65.29 | X-H torsion
[ 10718 10713 10712 10709 ] final   97.71 input   66.30 | X-H torsion
[ 10763 10752 10751 10750 ] final  -19.97 input  -60.55 | X-H torsion
[ 11005 11000 10999 10996 ] final -133.01 input  -57.11 | X-H torsion

> <Gold.Protein.ActiveResidues>
 VAL166  LYS551  ARG553  GLY616  TRP617  ASP618  TYR619  PRO620  LYS621  CYS622 
 ASP623  PHE694  ASN695  SER759  ASP760  ASP761  ALA762  ILE779  LEU786  VAL792 
 PHE793  MET794  SER795  GLU796  ALA797  LYS798  CYS799  TRP800  GLU811  SER814 

> <Gold.Protein.RotatedAtoms>
  152.3591  133.6274  159.6001 H   0  0  0  0  0  0  0  0  0  0  0  0  # atno 6907 bound_to 6896
  150.7589  133.9452  159.3477 H   0  0  0  0  0  0  0  0  0  0  0  0  # atno 6908 bound_to 6896
  151.7293  135.0879  160.0348 H   0  0  0  0  0  0  0  0  0  0  0  0  # atno 6909 bound_to 6896
  145.9578  139.4031  143.0267 H   0  0  0  0  0  0  0  0  0  0  0  0  # atno 7974 bound_to 7965
  154.5826  140.2404  155.8032 H   0  0  0  0  0  0  0  0  0  0  0  0  # atno 8008 bound_to 7997
  156.2190  140.3003  155.9863 H   0  0  0  0  0  0  0  0  0  0  0  0  # atno 8009 bound_to 7997
  155.2514  140.0411  157.2977 H   0  0  0  0  0  0  0  0  0  0  0  0  # atno 8010 bound_to 7997
  139.5122  144.3215  152.0198 H   0  0  0  0  0  0  0  0  0  0  0  0  # atno 10167 bound_to 10162
  157.6908  131.0618  150.4686 H   0  0  0  0  0  0  0  0  0  0  0  0  # atno 10718 bound_to 10713
  153.6132  135.6995  153.5339 H   0  0  0  0  0  0  0  0  0  0  0  0  # atno 10763 bound_to 10752
  153.2999  135.4132  155.1243 H   0  0  0  0  0  0  0  0  0  0  0  0  # atno 10764 bound_to 10752
  154.8559  135.3646  154.5671 H   0  0  0  0  0  0  0  0  0  0  0  0  # atno 10765 bound_to 10752
  140.9119  134.1557  157.4383 H   0  0  0  0  0  0  0  0  0  0  0  0  # atno 11005 bound_to 11000
  145.8082  140.9738  143.0962 LP  0  0  0  0  0  0  0  0  0  0  0  0  # atno 17320 bound_to 7965
  144.6808  139.9888  143.7484 LP  0  0  0  0  0  0  0  0  0  0  0  0  # atno 17321 bound_to 7965
  140.2656  144.4020  150.6169 LP  0  0  0  0  0  0  0  0  0  0  0  0  # atno 17342 bound_to 10162
  140.6125  143.2170  151.6857 LP  0  0  0  0  0  0  0  0  0  0  0  0  # atno 17343 bound_to 10162
  156.5025  130.4120  149.6345 LP  0  0  0  0  0  0  0  0  0  0  0  0  # atno 17370 bound_to 10713
  156.3315  130.7334  151.2264 LP  0  0  0  0  0  0  0  0  0  0  0  0  # atno 17371 bound_to 10713
  139.8759  134.9939  156.5666 LP  0  0  0  0  0  0  0  0  0  0  0  0  # atno 17394 bound_to 11000
  140.8100  133.8437  155.8801 LP  0  0  0  0  0  0  0  0  0  0  0  0  # atno 17395 bound_to 11000

$$$$
