AV-unprocessed.smi:876|AV-procd|sdf|4019|dock1
  -GOLD-   22720 1503D 1   1.00000     0.00000
 Structure written by MMmdl.
 41 42  0  0  0  0  0  0  0  0  2 V2000
  143.2717  132.1992  149.4850 C   0  0  0  0  0  0  0  0  0  0  0  0
  144.2049  132.3623  150.5920 N   0  0  0  0  0  0  0  0  0  0  0  0
  144.7463  131.1937  151.2773 C   0  0  0  0  0  0  0  0  0  0  0  0
  144.5644  133.6577  151.0230 C   0  0  0  0  0  0  0  0  0  0  0  0
  145.7379  133.9295  151.7683 C   0  0  0  0  0  0  0  0  0  0  0  0
  146.0318  135.2510  152.1635 C   0  0  0  0  0  0  0  0  0  0  0  0
  145.1521  136.3009  151.8030 C   0  0  0  0  0  0  0  0  0  0  0  0
  145.3438  137.6625  152.1624 N   0  0  0  0  0  0  0  0  0  0  0  0
  146.2362  138.1850  153.0213 C   0  0  0  0  0  0  0  0  0  0  0  0
  147.0842  137.5454  153.6431 O   0  0  0  0  0  0  0  0  0  0  0  0
  146.1051  139.5161  153.1082 N   0  0  0  0  0  0  0  0  0  0  0  0
  146.9308  140.3809  153.9439 C   0  0  2  0  0  0  0  0  0  0  0  0
  146.5424  140.2450  155.3907 C   0  0  0  0  0  0  0  0  0  0  0  0
  146.2388  141.4127  155.9529 C   0  0  0  0  0  0  0  0  0  0  0  0
  146.3544  142.5709  154.9948 C   0  0  2  0  0  0  0  0  0  0  0  0
  145.0735  143.4198  154.9211 C   0  0  0  0  0  0  0  0  0  0  0  0
  143.9280  142.5935  154.9271 O   0  0  0  0  0  0  0  0  0  0  0  0
  146.7138  141.8889  153.6500 C   0  0  0  0  0  0  0  0  0  0  0  0
  143.9911  135.9748  151.0738 C   0  0  0  0  0  0  0  0  0  0  0  0
  143.7486  134.6957  150.7157 N   0  3  0  0  0  0  0  0  0  0  0  0
  147.9837  140.1114  153.8458 H   0  0  0  0  0  0  0  0  0  0  0  0
  147.1894  143.1928  155.3210 H   0  0  0  0  0  0  0  0  0  0  0  0
  143.6714  132.6508  148.5766 H   0  0  0  0  0  0  0  0  0  0  0  0
  142.3155  132.6688  149.7170 H   0  0  0  0  0  0  0  0  0  0  0  0
  143.0831  131.1460  149.2773 H   0  0  0  0  0  0  0  0  0  0  0  0
  144.4583  131.1987  152.3293 H   0  0  0  0  0  0  0  0  0  0  0  0
  145.8351  131.1825  151.2148 H   0  0  0  0  0  0  0  0  0  0  0  0
  144.3778  130.2681  150.8349 H   0  0  0  0  0  0  0  0  0  0  0  0
  146.4208  133.1425  152.0508 H   0  0  0  0  0  0  0  0  0  0  0  0
  146.9217  135.4271  152.7475 H   0  0  0  0  0  0  0  0  0  0  0  0
  144.7668  138.3266  151.6672 H   0  0  0  0  0  0  0  0  0  0  0  0
  145.3868  139.9653  152.5592 H   0  0  0  0  0  0  0  0  0  0  0  0
  146.5367  139.2919  155.8989 H   0  0  0  0  0  0  0  0  0  0  0  0
  145.9491  141.5468  156.9847 H   0  0  0  0  0  0  0  0  0  0  0  0
  145.0171  144.0933  155.7768 H   0  0  0  0  0  0  0  0  0  0  0  0
  145.0669  144.0374  154.0219 H   0  0  0  0  0  0  0  0  0  0  0  0
  143.3902  142.8198  154.1835 H   0  0  0  0  0  0  0  0  0  0  0  0
  147.6088  142.3332  153.2132 H   0  0  0  0  0  0  0  0  0  0  0  0
  145.9110  142.0316  152.9246 H   0  0  0  0  0  0  0  0  0  0  0  0
  143.2511  136.6967  150.7599 H   0  0  0  0  0  0  0  0  0  0  0  0
  142.9010  134.5000  150.1830 H   0  0  0  0  0  0  0  0  0  0  0  0
  1  2  1  0  0  0  0
  1 23  1  0  0  0  0
  1 24  1  0  0  0  0
  1 25  1  0  0  0  0
  2  3  1  0  0  0  0
  2  4  1  0  0  0  0
  3 26  1  0  0  0  0
  3 27  1  0  0  0  0
  3 28  1  0  0  0  0
  4 20  1  0  0  0  0
  4  5  2  0  0  0  0
  5  6  1  0  0  0  0
  5 29  1  0  0  0  0
  6  7  2  0  0  0  0
  6 30  1  0  0  0  0
  7  8  1  0  0  0  0
  7 19  1  0  0  0  0
  8  9  1  0  0  0  0
  8 31  1  0  0  0  0
  9 10  2  0  0  0  0
  9 11  1  0  0  0  0
 11 12  1  0  0  0  0
 11 32  1  0  0  0  0
 12 21  1  0  0  0  0
 12 18  1  0  0  0  0
 12 13  1  0  0  0  0
 13 14  2  0  0  0  0
 13 33  1  0  0  0  0
 14 15  1  0  0  0  0
 14 34  1  0  0  0  0
 15 22  1  0  0  0  0
 15 16  1  0  0  0  0
 15 18  1  0  0  0  0
 16 17  1  0  0  0  0
 16 35  1  0  0  0  0
 16 36  1  0  0  0  0
 17 37  1  0  0  0  0
 18 38  1  0  0  0  0
 18 39  1  0  0  0  0
 19 20  2  0  0  0  0
 19 40  1  0  0  0  0
 20 41  1  0  0  0  0
M  CHG  1  20   1
M  END
> <s_m_source_file>
AV-unprocessed.smi

> <i_m_source_file_index>
876

> <i_lp_mmshare_version>
43012

> <i_f3d_flags>
0

> <s_epik_input>
W0NIM11OKFtDSDNdKWMxW2NIXVtjSF1jKFtjSF1uMSlbTkhdQyg9TylbTkhdW0NAQEhdMltDSF09W0NIXVtDQEBIXShbQ0gyXTIpW0NIMl1bT0hd

> <s_epik_cmdline>
J2VwaWtfcHl0aG9uJywgJy1waCcsICc3LjAnLCAnLXRuJywgJzgnLCAnLW1hJywgJzIwMCcsICctbWV0YWxfYmluZGluZycsICctaW1hZScsICc8aW5maWxlLm1hZT4nLCAnLW9tYWUnLCAnPG91dGZpbGUubWFlPic=

> <r_lp_tautomer_probability>
0.999994

> <r_epik_Ionization_Penalty>
0.257994

> <r_epik_Ionization_Penalty_Charging>
0.257974

> <r_epik_Ionization_Penalty_Neutral>
1.95938e-05

> <r_epik_State_Penalty>
0.249586

> <r_epik_Charging_Adjusted_Penalty>
0.50756

> <i_epik_Tot_Q>
1

> <i_epik_Tot_abs_Q>
1

> <r_epik_Metal_State_Penalty>
0.538508

> <b_epik_Metal_Only>
0

> <s_lp_Force_Field>
OPLS_2005

> <r_lp_Energy>
26.1458

> <b_lp_Chiralities_Consistent>
1

> <s_lp_Variant>
AV-unprocessed.smi:876-1

> <Gold.Version>
5.8.1

> <Gold.Id.Protein>
6NUR|6NUR_protein|mol2

> <Gold.PLP.Fitness>
44.1709

> <Gold.PLP.PLP>
-31.2225

> <Gold.PLP.part.hbond>
-4.9994

> <Gold.PLP.part.metal>
0.0000

> <Gold.PLP.part.buried>
-0.1103

> <Gold.PLP.part.nonpolar>
-28.3918

> <Gold.PLP.part.repulsive>
1.2693

> <Gold.PLP.ligand.clash>
0.0000

> <Gold.PLP.ligand.torsion>
0.5175

> <Gold.PLP.Chemscore.Hbond>
4.6460

> <Gold.PLP.Chemscore.CHOScore>
0.0000

> <Gold.PLP.Chemscore.Metal>
0.0000

> <Gold.Chemscore.Hbonds>
donor molecule, donor type, donor heavy atom, donor atom, acceptor molecule, acceptor atom, score
      L1  H     8    31       P1 10171  0.73
      L1  H    11    32       P1 10175  0.94
      L1  H    17    37       P1 10174  0.59
      L1  H    20    41       P1 10186  2.00

> <Gold.PLP.Chemscore.Internal.Correction>
0.0453

> <Gold.Rescore>
     Score         DG    S(hbond)    S(metal)    S(lipo)     H(rot)  DE(clash)    DE(int)     intcor
     15.37     -18.71       3.01        0.00      67.12       1.82       1.54       1.80       ----

> <Gold.Chemscore.Fitness>
15.3726

> <Gold.Chemscore.DG>
-18.7115

> <Gold.Chemscore.ZeroCoef>
-5.4800

> <Gold.Chemscore.Hbond>
3.0051

> <Gold.Chemscore.Metal>
0.0000

> <Gold.Chemscore.Lipo>
67.1212

> <Gold.Chemscore.Internal_Hbond>
0.0000

> <Gold.Chemscore.DEClash>
1.5424

> <Gold.Chemscore.DEInternal>
1.7966

> <Gold.Chemscore.Rot>
1.8197

> <Gold.Chemscore.Internal.Correction>
   9.000000E+99

> <Gold.Chemscore.Hbonds>
donor molecule, donor type, donor heavy atom, donor atom, acceptor molecule, acceptor atom, score
      L1  H     8    31       P1 10171  0.71
      L1  H    11    32       P1 10175  0.88
      L1  H    17    37       P1 10174  0.19
      L1  H    20    41       P1 10186  0.72

> <Gold.Chemscore.Hbond.Weighted>
-10.0369

> <Gold.Chemscore.Metal.Weighted>
-0.0000

> <Gold.Chemscore.Lipo.Weighted>
-7.8532

> <Gold.Chemscore.Internal_Hbond.Weighted>
0.0000

> <Gold.Chemscore.DEClash.Weighted>
1.5424

> <Gold.Chemscore.DEInternal.Weighted>
1.7966

> <Gold.Chemscore.Rot.Weighted>
4.6585

> <Gold.Chemscore.Internal.Correction.Weighted>
   9.000000E+99

> <Gold.Protein.RotatedTorsions>
[ 6907 6896 6895 6894 ] final  176.71 input  -60.11 | X-H torsion
[ 7974 7965 7964 7962 ] final -142.39 input  175.53 | X-H torsion
[ 8008 7997 7996 7995 ] final   70.10 input   59.86 | X-H torsion
[ 10167 10162 10161 10158 ] final  -62.50 input  -65.29 | X-H torsion
[ 10718 10713 10712 10709 ] final -164.97 input   66.30 | X-H torsion
[ 10763 10752 10751 10750 ] final   15.14 input  -60.55 | X-H torsion
[ 11005 11000 10999 10996 ] final -100.09 input  -57.11 | X-H torsion

> <Gold.Protein.ActiveResidues>
 VAL166  LYS551  ARG553  GLY616  TRP617  ASP618  TYR619  PRO620  LYS621  CYS622 
 ASP623  PHE694  ASN695  SER759  ASP760  ASP761  ALA762  ILE779  LEU786  VAL792 
 PHE793  MET794  SER795  GLU796  ALA797  LYS798  CYS799  TRP800  GLU811  SER814 

> <Gold.Protein.RotatedAtoms>
  151.7157  133.3313  159.3301 H   0  0  0  0  0  0  0  0  0  0  0  0  # atno 6907 bound_to 6896
  150.7674  134.6493  159.6288 H   0  0  0  0  0  0  0  0  0  0  0  0  # atno 6908 bound_to 6896
  152.3684  134.6773  160.0236 H   0  0  0  0  0  0  0  0  0  0  0  0  # atno 6909 bound_to 6896
  144.8447  140.5964  143.5429 H   0  0  0  0  0  0  0  0  0  0  0  0  # atno 7974 bound_to 7965
  155.7337  140.3491  155.5071 H   0  0  0  0  0  0  0  0  0  0  0  0  # atno 8008 bound_to 7997
  155.9158  140.1058  157.1266 H   0  0  0  0  0  0  0  0  0  0  0  0  # atno 8009 bound_to 7997
  154.4062  140.1259  156.4603 H   0  0  0  0  0  0  0  0  0  0  0  0  # atno 8010 bound_to 7997
  140.5935  143.2346  151.6088 H   0  0  0  0  0  0  0  0  0  0  0  0  # atno 10167 bound_to 10162
  156.6466  130.8990  151.3006 H   0  0  0  0  0  0  0  0  0  0  0  0  # atno 10718 bound_to 10713
  153.1554  135.6786  153.8820 H   0  0  0  0  0  0  0  0  0  0  0  0  # atno 10763 bound_to 10752
  153.8233  135.3127  155.3413 H   0  0  0  0  0  0  0  0  0  0  0  0  # atno 10764 bound_to 10752
  154.7893  135.4844  154.0105 H   0  0  0  0  0  0  0  0  0  0  0  0  # atno 10765 bound_to 10752
  141.1284  133.8372  157.1057 H   0  0  0  0  0  0  0  0  0  0  0  0  # atno 11005 bound_to 11000
  145.4621  139.1512  143.3860 LP  0  0  0  0  0  0  0  0  0  0  0  0  # atno 17320 bound_to 7965
  146.2734  140.4752  142.8805 LP  0  0  0  0  0  0  0  0  0  0  0  0  # atno 17321 bound_to 7965
  139.5243  144.3109  152.0994 LP  0  0  0  0  0  0  0  0  0  0  0  0  # atno 17342 bound_to 10162
  140.2277  144.4401  150.6313 LP  0  0  0  0  0  0  0  0  0  0  0  0  # atno 17343 bound_to 10162
  157.7154  130.9491  150.1237 LP  0  0  0  0  0  0  0  0  0  0  0  0  # atno 17370 bound_to 10713
  156.2117  130.3667  149.8662 LP  0  0  0  0  0  0  0  0  0  0  0  0  # atno 17371 bound_to 10713
  140.0306  134.9903  157.0772 LP  0  0  0  0  0  0  0  0  0  0  0  0  # atno 17394 bound_to 11000
  140.4292  134.1799  155.7167 LP  0  0  0  0  0  0  0  0  0  0  0  0  # atno 17395 bound_to 11000

$$$$
