AV-unprocessed.smi:1047|AV-procd|sdf|4594|dock10
  -GOLD-   22720 3 73D 1   1.00000     0.00000
 Structure written by MMmdl.
 55 57  0  0  0  0  0  0  0  0  1 V2000
  152.0156  129.3761  155.1519 C   0  0  0  0  0  0  0  0  0  0  0  0
  151.3525  130.5722  155.8501 C   0  0  0  0  0  0  0  0  0  0  0  0
  150.5922  131.4557  154.9683 N   0  0  0  0  0  0  0  0  0  0  0  0
  149.3183  130.8730  154.5522 C   0  0  0  0  0  0  0  0  0  0  0  0
  148.5142  131.8308  153.6562 C   0  0  0  0  0  0  0  0  0  0  0  0
  148.3218  133.0660  154.3368 O   0  0  0  0  0  0  0  0  0  0  0  0
  149.5499  133.6972  154.6919 C   0  0  1  0  0  0  0  0  0  0  0  0
  149.2314  135.0305  155.3818 C   0  0  0  0  0  0  0  0  0  0  0  0
  149.6874  136.1398  154.5568 N   0  0  0  0  0  0  0  0  0  0  0  0
  149.5664  137.4572  155.1714 C   0  0  0  0  0  0  0  0  0  0  0  0
  150.3980  138.5122  154.4103 C   0  0  1  0  0  0  0  0  0  0  0  0
  149.7836  138.7250  153.1570 O   0  0  0  0  0  0  0  0  0  0  0  0
  150.5116  139.8935  155.1011 C   0  0  0  0  0  0  0  0  0  0  0  0
  151.1385  139.8426  156.4112 N   0  0  0  0  0  0  0  0  0  0  0  0
  151.6138  138.7496  157.0396 C   0  0  0  0  0  0  0  0  0  0  0  0
  152.1846  138.9284  158.2273 N   0  0  0  0  0  0  0  0  0  0  0  0
  152.0609  140.2971  158.3921 C   0  0  0  0  0  0  0  0  0  0  0  0
  152.4851  141.1340  159.4471 C   0  0  0  0  0  0  0  0  0  0  0  0
  152.2560  142.5276  159.4034 C   0  0  0  0  0  0  0  0  0  0  0  0
  152.7347  143.3914  160.5569 C   0  0  0  0  0  0  0  0  0  0  0  0
  151.5865  143.1031  158.2937 C   0  0  0  0  0  0  0  0  0  0  0  0
  151.3277  144.5977  158.2256 C   0  0  0  0  0  0  0  0  0  0  0  0
  151.1553  142.2810  157.2315 C   0  0  0  0  0  0  0  0  0  0  0  0
  151.3969  140.8968  157.2821 C   0  0  0  0  0  0  0  0  0  0  0  0
  150.3390  132.7426  155.6083 C   0  0  0  0  0  0  0  0  0  0  0  0
  152.6482  128.8286  155.8508 H   0  0  0  0  0  0  0  0  0  0  0  0
  152.6442  129.7034  154.3231 H   0  0  0  0  0  0  0  0  0  0  0  0
  151.2805  128.6722  154.7620 H   0  0  0  0  0  0  0  0  0  0  0  0
  150.7132  130.2143  156.6586 H   0  0  0  0  0  0  0  0  0  0  0  0
  152.1448  131.1502  156.3282 H   0  0  0  0  0  0  0  0  0  0  0  0
  149.4859  129.9444  154.0075 H   0  0  0  0  0  0  0  0  0  0  0  0
  148.7236  130.6187  155.4311 H   0  0  0  0  0  0  0  0  0  0  0  0
  149.0310  132.0043  152.7108 H   0  0  0  0  0  0  0  0  0  0  0  0
  147.5422  131.4003  153.4155 H   0  0  0  0  0  0  0  0  0  0  0  0
  150.1347  133.8899  153.7894 H   0  0  0  0  0  0  0  0  0  0  0  0
  148.1620  135.1112  155.5799 H   0  0  0  0  0  0  0  0  0  0  0  0
  149.7366  135.0657  156.3477 H   0  0  0  0  0  0  0  0  0  0  0  0
  149.2033  136.1255  153.6642 H   0  0  0  0  0  0  0  0  0  0  0  0
  148.5161  137.7525  155.1654 H   0  0  0  0  0  0  0  0  0  0  0  0
  149.8737  137.4219  156.2174 H   0  0  0  0  0  0  0  0  0  0  0  0
  151.3940  138.1139  154.2142 H   0  0  0  0  0  0  0  0  0  0  0  0
  149.6165  137.8846  152.7586 H   0  0  0  0  0  0  0  0  0  0  0  0
  151.0848  140.5806  154.4772 H   0  0  0  0  0  0  0  0  0  0  0  0
  149.5201  140.3342  155.2177 H   0  0  0  0  0  0  0  0  0  0  0  0
  151.5523  137.7681  156.5926 H   0  0  0  0  0  0  0  0  0  0  0  0
  152.9940  140.6949  160.2925 H   0  0  0  0  0  0  0  0  0  0  0  0
  151.8876  143.8641  161.0546 H   0  0  0  0  0  0  0  0  0  0  0  0
  153.4066  144.1720  160.1985 H   0  0  0  0  0  0  0  0  0  0  0  0
  153.2746  142.8024  161.2991 H   0  0  0  0  0  0  0  0  0  0  0  0
  150.7824  144.8660  157.3202 H   0  0  0  0  0  0  0  0  0  0  0  0
  152.2685  145.1488  158.2253 H   0  0  0  0  0  0  0  0  0  0  0  0
  150.7353  144.9224  159.0812 H   0  0  0  0  0  0  0  0  0  0  0  0
  150.6499  142.7075  156.3780 H   0  0  0  0  0  0  0  0  0  0  0  0
  149.7870  132.5915  156.5377 H   0  0  0  0  0  0  0  0  0  0  0  0
  151.2865  133.2089  155.8812 H   0  0  0  0  0  0  0  0  0  0  0  0
  1  2  1  0  0  0  0
  1 26  1  0  0  0  0
  1 27  1  0  0  0  0
  1 28  1  0  0  0  0
  2  3  1  0  0  0  0
  2 29  1  0  0  0  0
  2 30  1  0  0  0  0
  3 25  1  0  0  0  0
  3  4  1  0  0  0  0
  4  5  1  0  0  0  0
  4 31  1  0  0  0  0
  4 32  1  0  0  0  0
  5  6  1  0  0  0  0
  5 33  1  0  0  0  0
  5 34  1  0  0  0  0
  6  7  1  0  0  0  0
  7  8  1  0  0  0  0
  7 25  1  0  0  0  0
  7 35  1  0  0  0  0
  8  9  1  0  0  0  0
  8 36  1  0  0  0  0
  8 37  1  0  0  0  0
  9 10  1  0  0  0  0
  9 38  1  0  0  0  0
 10 11  1  0  0  0  0
 10 39  1  0  0  0  0
 10 40  1  0  0  0  0
 11 12  1  0  0  0  0
 11 13  1  0  0  0  0
 11 41  1  0  0  0  0
 12 42  1  0  0  0  0
 13 14  1  0  0  0  0
 13 43  1  0  0  0  0
 13 44  1  0  0  0  0
 14 24  1  0  0  0  0
 14 15  1  0  0  0  0
 15 16  2  0  0  0  0
 15 45  1  0  0  0  0
 16 17  1  0  0  0  0
 17 24  2  0  0  0  0
 17 18  1  0  0  0  0
 18 19  2  0  0  0  0
 18 46  1  0  0  0  0
 19 20  1  0  0  0  0
 19 21  1  0  0  0  0
 20 47  1  0  0  0  0
 20 48  1  0  0  0  0
 20 49  1  0  0  0  0
 21 22  1  0  0  0  0
 21 23  2  0  0  0  0
 22 50  1  0  0  0  0
 22 51  1  0  0  0  0
 22 52  1  0  0  0  0
 23 24  1  0  0  0  0
 23 53  1  0  0  0  0
 25 54  1  0  0  0  0
 25 55  1  0  0  0  0
M  END
> <s_m_source_file>
AV-unprocessed.smi

> <i_m_source_file_index>
1047

> <i_lp_mmshare_version>
43012

> <i_f3d_flags>
0

> <s_epik_input>
W0NIM11bQ0gyXU4xW0NIMl1bQ0gyXU9bQ0BIXShbQ0gyXTEpW0NIMl1bTkhdW0NIMl1bQ0BIXShbT0hdKVtDSDJdbihbY0hdbjIpYyhjMjMpW2NIXWMoW0NIM10pYyhbY0hdMylbQ0gzXQ==

> <s_epik_cmdline>
J2VwaWtfcHl0aG9uJywgJy1waCcsICc3LjAnLCAnLXRuJywgJzgnLCAnLW1hJywgJzIwMCcsICctbWV0YWxfYmluZGluZycsICctaW1hZScsICc8aW5maWxlLm1hZT4nLCAnLW9tYWUnLCAnPG91dGZpbGUubWFlPic=

> <r_epik_Ionization_Penalty>
2.74124

> <r_epik_Ionization_Penalty_Charging>
0

> <r_epik_Ionization_Penalty_Neutral>
2.74124

> <r_epik_State_Penalty>
2.37482

> <r_epik_Charging_Adjusted_Penalty>
2.37482

> <i_epik_Tot_Q>
0

> <i_epik_Tot_abs_Q>
0

> <r_epik_Metal_State_Penalty>
2.25944

> <b_epik_Metal_Only>
0

> <s_lp_Force_Field>
OPLS_2005

> <r_lp_Energy>
29.9902

> <b_lp_Chiralities_Consistent>
1

> <s_lp_Variant>
AV-unprocessed.smi:1047-35

> <Gold.Version>
5.8.1

> <Gold.Id.Protein>
6NUR|6NUR_protein|mol2

> <Gold.PLP.Fitness>
52.2740

> <Gold.PLP.PLP>
-48.0339

> <Gold.PLP.part.hbond>
-2.5919

> <Gold.PLP.part.metal>
0.0000

> <Gold.PLP.part.buried>
-2.5812

> <Gold.PLP.part.nonpolar>
-41.5956

> <Gold.PLP.part.repulsive>
0.0836

> <Gold.PLP.ligand.clash>
0.0000

> <Gold.PLP.ligand.torsion>
0.9550

> <Gold.PLP.Chemscore.Hbond>
2.0000

> <Gold.PLP.Chemscore.CHOScore>
0.0000

> <Gold.PLP.Chemscore.Metal>
0.0000

> <Gold.Chemscore.Hbonds>
donor molecule, donor type, donor heavy atom, donor atom, acceptor molecule, acceptor atom, score
      L1  H     9    38       P1  7948  1.00
      L1  H    12    42       P1  7948  1.00

> <Gold.PLP.Chemscore.Internal.Correction>
0.1500

> <Gold.Rescore>
     Score         DG    S(hbond)    S(metal)    S(lipo)     H(rot)  DE(clash)    DE(int)     intcor
     19.59     -20.57       1.84        0.00     131.53       2.52       0.10       0.89       ----

> <Gold.Chemscore.Fitness>
19.5856

> <Gold.Chemscore.DG>
-20.5682

> <Gold.Chemscore.ZeroCoef>
-5.4800

> <Gold.Chemscore.Hbond>
1.8444

> <Gold.Chemscore.Metal>
0.0000

> <Gold.Chemscore.Lipo>
131.5266

> <Gold.Chemscore.Internal_Hbond>
0.0000

> <Gold.Chemscore.DEClash>
0.0968

> <Gold.Chemscore.DEInternal>
0.8857

> <Gold.Chemscore.Rot>
2.5237

> <Gold.Chemscore.Internal.Correction>
   9.000000E+99

> <Gold.Chemscore.Hbonds>
donor molecule, donor type, donor heavy atom, donor atom, acceptor molecule, acceptor atom, score
      L1  H     9    38       P1  7948  0.87
      L1  H    12    42       P1  7948  0.65

> <Gold.Chemscore.Hbond.Weighted>
-6.1602

> <Gold.Chemscore.Metal.Weighted>
-0.0000

> <Gold.Chemscore.Lipo.Weighted>
-15.3886

> <Gold.Chemscore.Internal_Hbond.Weighted>
0.0000

> <Gold.Chemscore.DEClash.Weighted>
0.0968

> <Gold.Chemscore.DEInternal.Weighted>
0.8857

> <Gold.Chemscore.Rot.Weighted>
6.4607

> <Gold.Chemscore.Internal.Correction.Weighted>
   9.000000E+99

> <Gold.Protein.RotatedTorsions>
[ 6907 6896 6895 6894 ] final  126.70 input  -60.11 | X-H torsion
[ 7974 7965 7964 7962 ] final  146.29 input  175.53 | X-H torsion
[ 8008 7997 7996 7995 ] final -159.57 input   59.86 | X-H torsion
[ 10167 10162 10161 10158 ] final -140.05 input  -65.29 | X-H torsion
[ 10718 10713 10712 10709 ] final  -12.47 input   66.30 | X-H torsion
[ 10763 10752 10751 10750 ] final   81.96 input  -60.55 | X-H torsion
[ 11005 11000 10999 10996 ] final  157.35 input  -57.11 | X-H torsion

> <Gold.Protein.ActiveResidues>
 VAL166  LYS551  ARG553  GLY616  TRP617  ASP618  TYR619  PRO620  LYS621  CYS622 
 ASP623  PHE694  ASN695  SER759  ASP760  ASP761  ALA762  ILE779  LEU786  VAL792 
 PHE793  MET794  SER795  GLU796  ALA797  LYS798  CYS799  TRP800  GLU811  SER814 

> <Gold.Protein.RotatedAtoms>
  152.3880  133.6638  159.6213 H   0  0  0  0  0  0  0  0  0  0  0  0  # atno 6907 bound_to 6896
  150.7794  133.9003  159.3348 H   0  0  0  0  0  0  0  0  0  0  0  0  # atno 6908 bound_to 6896
  151.6796  135.0965  160.0265 H   0  0  0  0  0  0  0  0  0  0  0  0  # atno 6909 bound_to 6896
  144.8683  139.5887  143.5899 H   0  0  0  0  0  0  0  0  0  0  0  0  # atno 7974 bound_to 7965
  155.7646  140.0843  157.2138 H   0  0  0  0  0  0  0  0  0  0  0  0  # atno 8008 bound_to 7997
  154.4001  140.1536  156.2928 H   0  0  0  0  0  0  0  0  0  0  0  0  # atno 8009 bound_to 7997
  155.8807  140.3420  155.5888 H   0  0  0  0  0  0  0  0  0  0  0  0  # atno 8010 bound_to 7997
  139.8319  143.7435  152.2665 H   0  0  0  0  0  0  0  0  0  0  0  0  # atno 10167 bound_to 10162
  156.6441  130.4936  149.6084 H   0  0  0  0  0  0  0  0  0  0  0  0  # atno 10718 bound_to 10713
  153.1161  135.4746  154.9118 H   0  0  0  0  0  0  0  0  0  0  0  0  # atno 10763 bound_to 10752
  154.7530  135.3111  154.8525 H   0  0  0  0  0  0  0  0  0  0  0  0  # atno 10764 bound_to 10752
  153.9101  135.6866  153.4805 H   0  0  0  0  0  0  0  0  0  0  0  0  # atno 10765 bound_to 10752
  140.1761  134.8508  157.2748 H   0  0  0  0  0  0  0  0  0  0  0  0  # atno 11005 bound_to 11000
  146.2912  139.7144  142.9160 LP  0  0  0  0  0  0  0  0  0  0  0  0  # atno 17320 bound_to 7965
  145.4180  141.0403  143.2980 LP  0  0  0  0  0  0  0  0  0  0  0  0  # atno 17321 bound_to 7965
  139.7646  144.7496  151.0314 LP  0  0  0  0  0  0  0  0  0  0  0  0  # atno 17342 bound_to 10162
  140.7806  143.4713  151.0143 LP  0  0  0  0  0  0  0  0  0  0  0  0  # atno 17343 bound_to 10162
  156.2135  130.6693  151.1295 LP  0  0  0  0  0  0  0  0  0  0  0  0  # atno 17370 bound_to 10713
  157.7161  131.0708  150.6319 LP  0  0  0  0  0  0  0  0  0  0  0  0  # atno 17371 bound_to 10713
  140.2320  134.3897  155.7517 LP  0  0  0  0  0  0  0  0  0  0  0  0  # atno 17394 bound_to 11000
  141.2220  133.7220  156.8656 LP  0  0  0  0  0  0  0  0  0  0  0  0  # atno 17395 bound_to 11000

$$$$
