AV-unprocessed.smi:2931|AV-procd|sdf|11249|dock4
  -GOLD-   2272016143D 1   1.00000     0.00000
 Structure written by MMmdl.
 43 44  0  0  0  0  0  0  0  0  3 V2000
  144.1198  137.1873  153.5324 C   0  0  0  0  0  0  0  0  0  0  0  0
  145.0942  138.2226  153.1263 N   0  3  2  0  0  0  0  0  0  0  0  0
  145.8908  137.8163  151.9416 C   0  0  0  0  0  0  0  0  0  0  0  0
  146.8023  138.9620  151.4707 C   0  0  0  0  0  0  0  0  0  0  0  0
  147.7080  139.4520  152.6089 C   0  0  0  0  0  0  0  0  0  0  0  0
  146.8588  139.8361  153.8340 C   0  0  2  0  0  0  0  0  0  0  0  0
  147.7150  140.2294  154.9494 N   0  0  0  0  0  0  0  0  0  0  0  0
  148.7961  141.0154  154.8474 C   0  0  0  0  0  0  0  0  0  0  0  0
  149.1875  141.5129  153.7915 O   0  0  0  0  0  0  0  0  0  0  0  0
  149.3942  141.1995  156.0334 N   0  0  0  0  0  0  0  0  0  0  0  0
  150.5992  141.9958  156.2578 C   0  0  0  0  0  0  0  0  0  0  0  0
  151.2969  141.6540  157.5889 C   0  0  0  0  0  0  0  0  0  0  0  0
  151.5950  142.8657  158.4559 C   0  0  0  0  0  0  0  0  0  0  0  0
  152.2326  142.7088  159.7065 C   0  0  0  0  0  0  0  0  0  0  0  0
  152.5164  143.8509  160.4825 C   0  0  0  0  0  0  0  0  0  0  0  0
  152.1733  145.0758  160.0274 N   0  3  0  0  0  0  0  0  0  0  0  0
  151.5581  145.2696  158.8403 C   0  0  0  0  0  0  0  0  0  0  0  0
  151.2514  144.1650  158.0197 C   0  0  0  0  0  0  0  0  0  0  0  0
  145.9560  138.6606  154.2531 C   0  0  0  0  0  0  0  0  0  0  0  0
  144.6272  136.2770  153.8539 H   0  0  0  0  0  0  0  0  0  0  0  0
  143.4564  136.9361  152.7041 H   0  0  0  0  0  0  0  0  0  0  0  0
  143.5010  137.5436  154.3567 H   0  0  0  0  0  0  0  0  0  0  0  0
  146.4879  136.9363  152.1862 H   0  0  0  0  0  0  0  0  0  0  0  0
  145.2200  137.5294  151.1309 H   0  0  0  0  0  0  0  0  0  0  0  0
  147.4100  138.6330  150.6272 H   0  0  0  0  0  0  0  0  0  0  0  0
  146.1918  139.7898  151.1076 H   0  0  0  0  0  0  0  0  0  0  0  0
  148.4160  138.6663  152.8769 H   0  0  0  0  0  0  0  0  0  0  0  0
  148.3002  140.3038  152.2716 H   0  0  0  0  0  0  0  0  0  0  0  0
  146.2130  140.6747  153.5654 H   0  0  0  0  0  0  0  0  0  0  0  0
  147.4761  139.8652  155.8605 H   0  0  0  0  0  0  0  0  0  0  0  0
  148.9970  140.7437  156.8422 H   0  0  0  0  0  0  0  0  0  0  0  0
  151.2848  141.8049  155.4318 H   0  0  0  0  0  0  0  0  0  0  0  0
  150.3687  143.0617  156.2157 H   0  0  0  0  0  0  0  0  0  0  0  0
  150.6844  140.9495  158.1530 H   0  0  0  0  0  0  0  0  0  0  0  0
  152.2361  141.1383  157.3843 H   0  0  0  0  0  0  0  0  0  0  0  0
  152.5110  141.7274  160.0623 H   0  0  0  0  0  0  0  0  0  0  0  0
  153.0057  143.8214  161.4451 H   0  0  0  0  0  0  0  0  0  0  0  0
  151.3324  146.2945  158.5844 H   0  0  0  0  0  0  0  0  0  0  0  0
  150.7637  144.3158  157.0677 H   0  0  0  0  0  0  0  0  0  0  0  0
  145.3268  138.9638  155.0912 H   0  0  0  0  0  0  0  0  0  0  0  0
  146.5599  137.8188  154.5969 H   0  0  0  0  0  0  0  0  0  0  0  0
  144.5543  139.0290  152.8456 H   0  0  0  0  0  0  0  0  0  0  0  0
  152.3873  145.8889  160.6058 H   0  0  0  0  0  0  0  0  0  0  0  0
  1  2  1  0  0  0  0
  1 20  1  0  0  0  0
  1 21  1  0  0  0  0
  1 22  1  0  0  0  0
  2 19  1  0  0  0  0
  2  3  1  0  0  0  0
  2 42  1  0  0  0  0
  3  4  1  0  0  0  0
  3 23  1  0  0  0  0
  3 24  1  0  0  0  0
  4  5  1  0  0  0  0
  4 25  1  0  0  0  0
  4 26  1  0  0  0  0
  5  6  1  0  0  0  0
  5 27  1  0  0  0  0
  5 28  1  0  0  0  0
  6  7  1  0  0  0  0
  6 19  1  0  0  0  0
  6 29  1  0  0  0  0
  7  8  1  0  0  0  0
  7 30  1  0  0  0  0
  8  9  2  0  0  0  0
  8 10  1  0  0  0  0
 10 11  1  0  0  0  0
 10 31  1  0  0  0  0
 11 12  1  0  0  0  0
 11 32  1  0  0  0  0
 11 33  1  0  0  0  0
 12 13  1  0  0  0  0
 12 34  1  0  0  0  0
 12 35  1  0  0  0  0
 13 18  1  0  0  0  0
 13 14  2  0  0  0  0
 14 15  1  0  0  0  0
 14 36  1  0  0  0  0
 15 16  2  0  0  0  0
 15 37  1  0  0  0  0
 16 17  1  0  0  0  0
 16 43  1  0  0  0  0
 17 18  2  0  0  0  0
 17 38  1  0  0  0  0
 18 39  1  0  0  0  0
 19 40  1  0  0  0  0
 19 41  1  0  0  0  0
M  CHG  1   2   1
M  CHG  1  16   1
M  END
> <s_m_source_file>
AV-unprocessed.smi

> <i_m_source_file_index>
2931

> <i_lp_mmshare_version>
43012

> <i_f3d_flags>
0

> <s_epik_input>
W0NIM11OMVtDSDJdW0NIMl1bQ0gyXVtDQEhdKFtDSDJdMSlbTkhdQyg9TylbTkhdW0NIMl1bQ0gyXWMyW2NIXVtjSF1uW2NIXVtjSF0y

> <s_epik_cmdline>
J2VwaWtfcHl0aG9uJywgJy1waCcsICc3LjAnLCAnLXRuJywgJzgnLCAnLW1hJywgJzIwMCcsICctbWV0YWxfYmluZGluZycsICctaW1hZScsICc8aW5maWxlLm1hZT4nLCAnLW9tYWUnLCAnPG91dGZpbGUubWFlPic=

> <r_epik_Ionization_Penalty>
1.43754

> <r_epik_Ionization_Penalty_Charging>
1.4375

> <r_epik_Ionization_Penalty_Neutral>
3.7629e-05

> <r_epik_State_Penalty>
1.52008

> <r_epik_Charging_Adjusted_Penalty>
2.95758

> <i_epik_Tot_Q>
2

> <i_epik_Tot_abs_Q>
2

> <r_epik_Metal_State_Penalty>
1.57105

> <b_epik_Metal_Only>
0

> <s_lp_Force_Field>
OPLS_2005

> <r_lp_Energy>
22.8727

> <b_lp_Chiralities_Consistent>
1

> <s_lp_Variant>
AV-unprocessed.smi:2931-8

> <Gold.Version>
5.8.1

> <Gold.Id.Protein>
6NUR|6NUR_protein|mol2

> <Gold.PLP.Fitness>
42.3471

> <Gold.PLP.PLP>
-35.4398

> <Gold.PLP.part.hbond>
-3.0000

> <Gold.PLP.part.metal>
0.0000

> <Gold.PLP.part.buried>
3.8623

> <Gold.PLP.part.nonpolar>
-36.5745

> <Gold.PLP.part.repulsive>
0.9218

> <Gold.PLP.ligand.clash>
0.0000

> <Gold.PLP.ligand.torsion>
0.6873

> <Gold.PLP.Chemscore.Hbond>
2.7520

> <Gold.PLP.Chemscore.CHOScore>
0.0000

> <Gold.PLP.Chemscore.Metal>
0.0000

> <Gold.Chemscore.Hbonds>
donor molecule, donor type, donor heavy atom, donor atom, acceptor molecule, acceptor atom, score
      L1  H     2    42       P1 10175  2.00
      P1  H  8011  8017       L1     9  0.74

> <Gold.PLP.Chemscore.Internal.Correction>
0.0258

> <Gold.Rescore>
     Score         DG    S(hbond)    S(metal)    S(lipo)     H(rot)  DE(clash)    DE(int)     intcor
     16.16     -19.52       1.72        0.00     107.01       1.65       1.61       1.75       ----

> <Gold.Chemscore.Fitness>
16.1611

> <Gold.Chemscore.DG>
-19.5234

> <Gold.Chemscore.ZeroCoef>
-5.4800

> <Gold.Chemscore.Hbond>
1.7178

> <Gold.Chemscore.Metal>
0.0000

> <Gold.Chemscore.Lipo>
107.0139

> <Gold.Chemscore.Internal_Hbond>
0.0000

> <Gold.Chemscore.DEClash>
1.6144

> <Gold.Chemscore.DEInternal>
1.7479

> <Gold.Chemscore.Rot>
1.6464

> <Gold.Chemscore.Internal.Correction>
   9.000000E+99

> <Gold.Chemscore.Hbonds>
donor molecule, donor type, donor heavy atom, donor atom, acceptor molecule, acceptor atom, score
      L1  H     2    42       P1 10175  1.00
      P1  H  8011  8017       L1     9  0.74

> <Gold.Chemscore.Hbond.Weighted>
-5.7375

> <Gold.Chemscore.Metal.Weighted>
-0.0000

> <Gold.Chemscore.Lipo.Weighted>
-12.5206

> <Gold.Chemscore.Internal_Hbond.Weighted>
0.0000

> <Gold.Chemscore.DEClash.Weighted>
1.6144

> <Gold.Chemscore.DEInternal.Weighted>
1.7479

> <Gold.Chemscore.Rot.Weighted>
4.2148

> <Gold.Chemscore.Internal.Correction.Weighted>
   9.000000E+99

> <Gold.Protein.RotatedTorsions>
[ 6907 6896 6895 6894 ] final  -86.01 input  -60.11 | X-H torsion
[ 7974 7965 7964 7962 ] final  164.08 input  175.53 | X-H torsion
[ 8008 7997 7996 7995 ] final  130.74 input   59.86 | X-H torsion
[ 10167 10162 10161 10158 ] final   52.14 input  -65.29 | X-H torsion
[ 10718 10713 10712 10709 ] final  117.02 input   66.30 | X-H torsion
[ 10763 10752 10751 10750 ] final -145.98 input  -60.55 | X-H torsion
[ 11005 11000 10999 10996 ] final  -42.89 input  -57.11 | X-H torsion

> <Gold.Protein.ActiveResidues>
 VAL166  LYS551  ARG553  GLY616  TRP617  ASP618  TYR619  PRO620  LYS621  CYS622 
 ASP623  PHE694  ASN695  SER759  ASP760  ASP761  ALA762  ILE779  LEU786  VAL792 
 PHE793  MET794  SER795  GLU796  ALA797  LYS798  CYS799  TRP800  GLU811  SER814 

> <Gold.Protein.RotatedAtoms>
  150.6868  134.3117  159.4748 H   0  0  0  0  0  0  0  0  0  0  0  0  # atno 6907 bound_to 6896
  152.1002  134.9344  160.0579 H   0  0  0  0  0  0  0  0  0  0  0  0  # atno 6908 bound_to 6896
  152.0627  133.4034  159.4461 H   0  0  0  0  0  0  0  0  0  0  0  0  # atno 6909 bound_to 6896
  144.7561  139.8275  143.6349 H   0  0  0  0  0  0  0  0  0  0  0  0  # atno 7974 bound_to 7965
  156.2959  140.2588  156.2811 H   0  0  0  0  0  0  0  0  0  0  0  0  # atno 8008 bound_to 7997
  154.9601  140.0392  157.2204 H   0  0  0  0  0  0  0  0  0  0  0  0  # atno 8009 bound_to 7997
  154.7954  140.2819  155.5965 H   0  0  0  0  0  0  0  0  0  0  0  0  # atno 8010 bound_to 7997
  140.2545  144.3442  150.6337 H   0  0  0  0  0  0  0  0  0  0  0  0  # atno 10167 bound_to 10162
  157.6123  131.1032  150.7555 H   0  0  0  0  0  0  0  0  0  0  0  0  # atno 10718 bound_to 10713
  154.8358  135.3398  154.6590 H   0  0  0  0  0  0  0  0  0  0  0  0  # atno 10763 bound_to 10752
  153.7205  135.6958  153.5018 H   0  0  0  0  0  0  0  0  0  0  0  0  # atno 10764 bound_to 10752
  153.2385  135.4392  155.0625 H   0  0  0  0  0  0  0  0  0  0  0  0  # atno 10765 bound_to 10752
  141.0346  133.6805  156.2657 H   0  0  0  0  0  0  0  0  0  0  0  0  # atno 11005 bound_to 11000
  146.1572  139.4673  143.0011 LP  0  0  0  0  0  0  0  0  0  0  0  0  # atno 17320 bound_to 7965
  145.6776  141.0200  143.1624 LP  0  0  0  0  0  0  0  0  0  0  0  0  # atno 17321 bound_to 7965
  140.6014  143.2167  151.7064 LP  0  0  0  0  0  0  0  0  0  0  0  0  # atno 17342 bound_to 10162
  139.5036  144.3786  152.0399 LP  0  0  0  0  0  0  0  0  0  0  0  0  # atno 17343 bound_to 10162
  156.7930  130.4896  149.5382 LP  0  0  0  0  0  0  0  0  0  0  0  0  # atno 17370 bound_to 10713
  156.1231  130.6124  151.0224 LP  0  0  0  0  0  0  0  0  0  0  0  0  # atno 17371 bound_to 10713
  140.6345  134.5230  157.5563 LP  0  0  0  0  0  0  0  0  0  0  0  0  # atno 17394 bound_to 11000
  139.9232  134.8108  156.1148 LP  0  0  0  0  0  0  0  0  0  0  0  0  # atno 17395 bound_to 11000

$$$$
