AV-unprocessed.smi:2375|AV-procd|sdf|9442|dock6
  -GOLD-   2272013 73D 1   1.00000     0.00000
 Structure written by MMmdl.
 37 38  0  0  0  0  0  0  0  0  1 V2000
  147.2622  141.0651  153.3115 C   0  0  0  0  0  0  0  0  0  0  0  0
  148.4956  140.7357  154.0813 C   0  0  0  0  0  0  0  0  0  0  0  0
  149.4223  141.6071  154.5982 C   0  0  0  0  0  0  0  0  0  0  0  0
  150.4759  140.9795  155.2657 N   0  0  0  0  0  0  0  0  0  0  0  0
  150.3657  139.6480  155.2569 C   0  0  0  0  0  0  0  0  0  0  0  0
  151.3783  138.7234  155.8617 C   0  0  2  0  0  0  0  0  0  0  0  0
  151.5930  137.4660  155.0070 C   0  0  0  0  0  0  0  0  0  0  0  0
  151.1010  138.4016  157.3454 C   0  0  0  0  0  0  0  0  0  0  0  0
  150.9860  139.6127  158.1554 N   0  0  0  0  0  0  0  0  0  0  0  0
  152.0016  140.4163  158.5170 C   0  0  0  0  0  0  0  0  0  0  0  0
  153.1629  140.2565  158.1460 O   0  0  0  0  0  0  0  0  0  0  0  0
  151.6529  141.4271  159.3324 N   0  0  0  0  0  0  0  0  0  0  0  0
  152.5154  142.4649  159.8989 C   0  0  0  0  0  0  0  0  0  0  0  0
  152.5540  142.3977  161.4448 C   0  0  0  0  0  0  0  0  0  0  0  0
  152.4256  143.8365  161.8669 C   0  0  0  0  0  0  0  0  0  0  0  0
  152.1544  144.6435  160.8431 C   0  0  0  0  0  0  0  0  0  0  0  0
  152.0479  143.8991  159.5405 C   0  0  0  0  0  0  0  0  0  0  0  0
  148.9210  139.0806  154.4272 S   0  0  0  0  0  0  0  0  0  0  0  0
  147.1181  142.1437  153.2425 H   0  0  0  0  0  0  0  0  0  0  0  0
  146.3812  140.6377  153.7905 H   0  0  0  0  0  0  0  0  0  0  0  0
  147.3227  140.6679  152.2981 H   0  0  0  0  0  0  0  0  0  0  0  0
  149.4125  142.6851  154.5358 H   0  0  0  0  0  0  0  0  0  0  0  0
  152.3250  139.2651  155.8408 H   0  0  0  0  0  0  0  0  0  0  0  0
  151.8820  137.7286  153.9888 H   0  0  0  0  0  0  0  0  0  0  0  0
  150.6846  136.8653  154.9516 H   0  0  0  0  0  0  0  0  0  0  0  0
  152.3815  136.8386  155.4231 H   0  0  0  0  0  0  0  0  0  0  0  0
  150.1990  137.7932  157.4287 H   0  0  0  0  0  0  0  0  0  0  0  0
  151.9118  137.7963  157.7514 H   0  0  0  0  0  0  0  0  0  0  0  0
  150.0662  139.8351  158.5071 H   0  0  0  0  0  0  0  0  0  0  0  0
  150.6706  141.5064  159.5526 H   0  0  0  0  0  0  0  0  0  0  0  0
  153.5371  142.3282  159.5396 H   0  0  0  0  0  0  0  0  0  0  0  0
  151.7201  141.8296  161.8596 H   0  0  0  0  0  0  0  0  0  0  0  0
  153.4854  141.9635  161.8096 H   0  0  0  0  0  0  0  0  0  0  0  0
  152.5235  144.1466  162.8968 H   0  0  0  0  0  0  0  0  0  0  0  0
  151.9977  145.7099  160.9131 H   0  0  0  0  0  0  0  0  0  0  0  0
  152.6773  144.3528  158.7741 H   0  0  0  0  0  0  0  0  0  0  0  0
  151.0116  143.9262  159.2012 H   0  0  0  0  0  0  0  0  0  0  0  0
  1  2  1  0  0  0  0
  1 19  1  0  0  0  0
  1 20  1  0  0  0  0
  1 21  1  0  0  0  0
  2 18  1  0  0  0  0
  2  3  2  0  0  0  0
  3  4  1  0  0  0  0
  3 22  1  0  0  0  0
  4  5  2  0  0  0  0
  5  6  1  0  0  0  0
  5 18  1  0  0  0  0
  6  7  1  0  0  0  0
  6  8  1  0  0  0  0
  6 23  1  0  0  0  0
  7 24  1  0  0  0  0
  7 25  1  0  0  0  0
  7 26  1  0  0  0  0
  8  9  1  0  0  0  0
  8 27  1  0  0  0  0
  8 28  1  0  0  0  0
  9 10  1  0  0  0  0
  9 29  1  0  0  0  0
 10 11  2  0  0  0  0
 10 12  1  0  0  0  0
 12 13  1  0  0  0  0
 12 30  1  0  0  0  0
 13 17  1  0  0  0  0
 13 14  1  0  0  0  0
 13 31  1  0  0  0  0
 14 15  1  0  0  0  0
 14 32  1  0  0  0  0
 14 33  1  0  0  0  0
 15 16  2  0  0  0  0
 15 34  1  0  0  0  0
 16 17  1  0  0  0  0
 16 35  1  0  0  0  0
 17 36  1  0  0  0  0
 17 37  1  0  0  0  0
M  END
> <s_m_source_file>
AV-unprocessed.smi

> <i_m_source_file_index>
2375

> <i_lp_mmshare_version>
43012

> <i_f3d_flags>
0

> <s_epik_input>
W0NIM11jMVtjSF1uYyhzMSlbQ0BIXShbQ0gzXSlbQ0gyXVtOSF1DKD1PKVtOSF1bQ0hdMltDSDJdW0NIXT1bQ0hdW0NIMl0y

> <s_epik_cmdline>
J2VwaWtfcHl0aG9uJywgJy1waCcsICc3LjAnLCAnLXRuJywgJzgnLCAnLW1hJywgJzIwMCcsICctbWV0YWxfYmluZGluZycsICctaW1hZScsICc8aW5maWxlLm1hZT4nLCAnLW9tYWUnLCAnPG91dGZpbGUubWFlPic=

> <r_epik_Ionization_Penalty>
0.000644205

> <r_epik_Ionization_Penalty_Charging>
0

> <r_epik_Ionization_Penalty_Neutral>
0.000644205

> <r_epik_State_Penalty>
0.000370883

> <r_epik_Charging_Adjusted_Penalty>
0.000370883

> <i_epik_Tot_Q>
0

> <i_epik_Tot_abs_Q>
0

> <r_epik_Metal_State_Penalty>
-0

> <b_epik_Metal_Only>
0

> <s_lp_Force_Field>
OPLS_2005

> <r_lp_Energy>
17.1523

> <b_lp_Chiralities_Consistent>
1

> <s_lp_Variant>
AV-unprocessed.smi:2375-1

> <Gold.Version>
5.8.1

> <Gold.Id.Protein>
6NUR|6NUR_protein|mol2

> <Gold.PLP.Fitness>
43.2131

> <Gold.PLP.PLP>
-38.3568

> <Gold.PLP.part.hbond>
-2.0000

> <Gold.PLP.part.metal>
0.0000

> <Gold.PLP.part.buried>
-1.2231

> <Gold.PLP.part.nonpolar>
-33.3180

> <Gold.PLP.part.repulsive>
0.3513

> <Gold.PLP.ligand.clash>
0.0000

> <Gold.PLP.ligand.torsion>
0.7742

> <Gold.PLP.Chemscore.Hbond>
1.0980

> <Gold.PLP.Chemscore.CHOScore>
1.0000

> <Gold.PLP.Chemscore.Metal>
0.0000

> <Gold.Chemscore.Hbonds>
donor molecule, donor type, donor heavy atom, donor atom, acceptor molecule, acceptor atom, score
      P1  H  7989  7998       L1     4  0.18
      P1  H  7997  8008       L1    11  0.93
      L1  C     3    22       P1  8028  1.00

> <Gold.PLP.Chemscore.Internal.Correction>
0.1107

> <Gold.Rescore>
     Score         DG    S(hbond)    S(metal)    S(lipo)     H(rot)  DE(clash)    DE(int)     intcor
     16.86     -17.77       0.91        0.00     112.00       1.50       0.11       0.81       ----

> <Gold.Chemscore.Fitness>
16.8588

> <Gold.Chemscore.DG>
-17.7748

> <Gold.Chemscore.ZeroCoef>
-5.4800

> <Gold.Chemscore.Hbond>
0.9082

> <Gold.Chemscore.Metal>
0.0000

> <Gold.Chemscore.Lipo>
112.0033

> <Gold.Chemscore.Internal_Hbond>
0.0000

> <Gold.Chemscore.DEClash>
0.1088

> <Gold.Chemscore.DEInternal>
0.8073

> <Gold.Chemscore.Rot>
1.5012

> <Gold.Chemscore.Internal.Correction>
   9.000000E+99

> <Gold.Chemscore.Hbonds>
donor molecule, donor type, donor heavy atom, donor atom, acceptor molecule, acceptor atom, score
      P1  H  7997  8008       L1    11  0.91

> <Gold.Chemscore.Hbond.Weighted>
-3.0334

> <Gold.Chemscore.Metal.Weighted>
-0.0000

> <Gold.Chemscore.Lipo.Weighted>
-13.1044

> <Gold.Chemscore.Internal_Hbond.Weighted>
0.0000

> <Gold.Chemscore.DEClash.Weighted>
0.1088

> <Gold.Chemscore.DEInternal.Weighted>
0.8073

> <Gold.Chemscore.Rot.Weighted>
3.8429

> <Gold.Chemscore.Internal.Correction.Weighted>
   9.000000E+99

> <Gold.Protein.RotatedTorsions>
[ 6907 6896 6895 6894 ] final  -34.05 input  -60.11 | X-H torsion
[ 7974 7965 7964 7962 ] final   38.87 input  175.53 | X-H torsion
[ 8008 7997 7996 7995 ] final  -84.34 input   59.86 | X-H torsion
[ 10167 10162 10161 10158 ] final  -10.92 input  -65.29 | X-H torsion
[ 10718 10713 10712 10709 ] final -146.34 input   66.30 | X-H torsion
[ 10763 10752 10751 10750 ] final   12.19 input  -60.55 | X-H torsion
[ 11005 11000 10999 10996 ] final  147.78 input  -57.11 | X-H torsion

> <Gold.Protein.ActiveResidues>
 VAL166  LYS551  ARG553  GLY616  TRP617  ASP618  TYR619  PRO620  LYS621  CYS622 
 ASP623  PHE694  ASN695  SER759  ASP760  ASP761  ALA762  ILE779  LEU786  VAL792 
 PHE793  MET794  SER795  GLU796  ALA797  LYS798  CYS799  TRP800  GLU811  SER814 

> <Gold.Protein.RotatedAtoms>
  151.0576  134.9715  159.8243 H   0  0  0  0  0  0  0  0  0  0  0  0  # atno 6907 bound_to 6896
  152.5390  134.2458  159.8889 H   0  0  0  0  0  0  0  0  0  0  0  0  # atno 6908 bound_to 6896
  151.2476  133.4323  159.2644 H   0  0  0  0  0  0  0  0  0  0  0  0  # atno 6909 bound_to 6896
  146.1028  139.5719  142.9403 H   0  0  0  0  0  0  0  0  0  0  0  0  # atno 7974 bound_to 7965
  154.6287  140.0606  156.9706 H   0  0  0  0  0  0  0  0  0  0  0  0  # atno 8008 bound_to 7997
  155.1700  140.3290  155.4376 H   0  0  0  0  0  0  0  0  0  0  0  0  # atno 8009 bound_to 7997
  156.2471  140.1916  156.6802 H   0  0  0  0  0  0  0  0  0  0  0  0  # atno 8010 bound_to 7997
  140.7126  143.5695  150.9108 H   0  0  0  0  0  0  0  0  0  0  0  0  # atno 10167 bound_to 10162
  156.3938  130.7899  151.2103 H   0  0  0  0  0  0  0  0  0  0  0  0  # atno 10718 bound_to 10713
  153.1848  135.6833  153.8429 H   0  0  0  0  0  0  0  0  0  0  0  0  # atno 10763 bound_to 10752
  153.7749  135.3190  155.3358 H   0  0  0  0  0  0  0  0  0  0  0  0  # atno 10764 bound_to 10752
  154.8082  135.4735  154.0543 H   0  0  0  0  0  0  0  0  0  0  0  0  # atno 10765 bound_to 10752
  140.0905  134.9044  157.1642 H   0  0  0  0  0  0  0  0  0  0  0  0  # atno 11005 bound_to 11000
  145.5820  141.0381  143.2117 LP  0  0  0  0  0  0  0  0  0  0  0  0  # atno 17320 bound_to 7965
  144.7446  139.7354  143.7297 LP  0  0  0  0  0  0  0  0  0  0  0  0  # atno 17321 bound_to 7965
  139.9421  143.6370  152.3051 LP  0  0  0  0  0  0  0  0  0  0  0  0  # atno 17342 bound_to 10162
  139.6858  144.7651  151.1526 LP  0  0  0  0  0  0  0  0  0  0  0  0  # atno 17343 bound_to 10162
  157.7500  131.0307  150.4151 LP  0  0  0  0  0  0  0  0  0  0  0  0  # atno 17370 bound_to 10713
  156.4418  130.3993  149.6692 LP  0  0  0  0  0  0  0  0  0  0  0  0  # atno 17371 bound_to 10713
  140.3359  134.2757  155.7220 LP  0  0  0  0  0  0  0  0  0  0  0  0  # atno 17394 bound_to 11000
  141.2076  133.7801  157.0108 LP  0  0  0  0  0  0  0  0  0  0  0  0  # atno 17395 bound_to 11000

$$$$
