AV-unprocessed.smi:1661|AV-procd|sdf|6655|dock6
  -GOLD-   22720 7363D 1   1.00000     0.00000
 Structure written by MMmdl.
 37 38  0  0  0  0  0  0  0  0  3 V2000
  145.4952  132.4221  150.2046 C   0  0  0  0  0  0  0  0  0  0  0  0
  145.3564  133.4575  151.3296 C   0  0  2  0  0  0  0  0  0  0  0  0
  145.2037  134.8838  150.7753 C   0  0  0  0  0  0  0  0  0  0  0  0
  145.0984  135.9163  151.9104 C   0  0  0  0  0  0  0  0  0  0  0  0
  146.2709  135.8392  152.8199 N   0  3  1  0  0  0  0  0  0  0  0  0
  146.2566  136.9131  153.8446 C   0  0  0  0  0  0  0  0  0  0  0  0
  146.3424  138.3155  153.2229 C   0  0  0  0  0  0  0  0  0  0  0  0
  147.7156  138.7986  153.2498 N   0  0  0  0  0  0  0  0  0  0  0  0
  148.5029  138.8173  154.3329 C   0  0  0  0  0  0  0  0  0  0  0  0
  148.0728  138.4000  155.4105 O   0  0  0  0  0  0  0  0  0  0  0  0
  149.7371  139.3167  154.0987 N   0  5  0  0  0  0  0  0  0  0  0  0
  150.7548  139.0030  154.9176 C   0  0  0  0  0  0  0  0  0  0  0  0
  151.7420  139.8687  155.1994 N   0  0  0  0  0  0  0  0  0  0  0  0
  152.6970  139.3462  156.0611 N   0  0  0  0  0  0  0  0  0  0  0  0
  152.4079  138.0906  156.4028 C   0  0  0  0  0  0  0  0  0  0  0  0
  150.9458  137.4313  155.6999 S   0  0  0  0  0  0  0  0  0  0  0  0
  146.4208  134.4772  153.3984 C   0  0  0  0  0  0  0  0  0  0  0  0
  146.5540  133.4158  152.2933 C   0  0  0  0  0  0  0  0  0  0  0  0
  146.3814  132.6103  149.5977 H   0  0  0  0  0  0  0  0  0  0  0  0
  144.6284  132.4428  149.5434 H   0  0  0  0  0  0  0  0  0  0  0  0
  145.5765  131.4125  150.6085 H   0  0  0  0  0  0  0  0  0  0  0  0
  144.4557  133.2137  151.8951 H   0  0  0  0  0  0  0  0  0  0  0  0
  146.0562  135.1281  150.1396 H   0  0  0  0  0  0  0  0  0  0  0  0
  144.3185  134.9454  150.1410 H   0  0  0  0  0  0  0  0  0  0  0  0
  145.0327  136.9147  151.4764 H   0  0  0  0  0  0  0  0  0  0  0  0
  144.1822  135.7576  152.4817 H   0  0  0  0  0  0  0  0  0  0  0  0
  145.3268  136.8548  154.4125 H   0  0  0  0  0  0  0  0  0  0  0  0
  147.0652  136.7540  154.5596 H   0  0  0  0  0  0  0  0  0  0  0  0
  145.9988  138.3090  152.1885 H   0  0  0  0  0  0  0  0  0  0  0  0
  145.7050  139.0097  153.7730 H   0  0  0  0  0  0  0  0  0  0  0  0
  148.1027  139.1496  152.3859 H   0  0  0  0  0  0  0  0  0  0  0  0
  153.0613  137.5483  157.0696 H   0  0  0  0  0  0  0  0  0  0  0  0
  147.3021  134.4289  154.0367 H   0  0  0  0  0  0  0  0  0  0  0  0
  145.5610  134.2527  154.0317 H   0  0  0  0  0  0  0  0  0  0  0  0
  146.6356  132.4262  152.7444 H   0  0  0  0  0  0  0  0  0  0  0  0
  147.4808  133.5805  151.7413 H   0  0  0  0  0  0  0  0  0  0  0  0
  147.0840  136.0076  152.2447 H   0  0  0  0  0  0  0  0  0  0  0  0
  1  2  1  0  0  0  0
  1 19  1  0  0  0  0
  1 20  1  0  0  0  0
  1 21  1  0  0  0  0
  2 18  1  0  0  0  0
  2  3  1  0  0  0  0
  2 22  1  0  0  0  0
  3  4  1  0  0  0  0
  3 23  1  0  0  0  0
  3 24  1  0  0  0  0
  4  5  1  0  0  0  0
  4 25  1  0  0  0  0
  4 26  1  0  0  0  0
  5  6  1  0  0  0  0
  5 17  1  0  0  0  0
  5 37  1  0  0  0  0
  6  7  1  0  0  0  0
  6 27  1  0  0  0  0
  6 28  1  0  0  0  0
  7  8  1  0  0  0  0
  7 29  1  0  0  0  0
  7 30  1  0  0  0  0
  8  9  1  0  0  0  0
  8 31  1  0  0  0  0
  9 10  2  0  0  0  0
  9 11  1  0  0  0  0
 11 12  1  0  0  0  0
 12 16  1  0  0  0  0
 12 13  2  0  0  0  0
 13 14  1  0  0  0  0
 14 15  2  0  0  0  0
 15 16  1  0  0  0  0
 15 32  1  0  0  0  0
 17 18  1  0  0  0  0
 17 33  1  0  0  0  0
 17 34  1  0  0  0  0
 18 35  1  0  0  0  0
 18 36  1  0  0  0  0
M  CHG  1   5   1
M  CHG  1  11  -1
M  END
> <s_m_source_file>
AV-unprocessed.smi

> <i_m_source_file_index>
1661

> <i_lp_mmshare_version>
43012

> <i_f3d_flags>
0

> <s_epik_input>
W0NIM11bQ0hdMVtDSDJdW0NIMl1OKFtDSDJdW0NIMl0xKVtDSDJdW0NIMl1bTkhdQyg9TylbTkhdYzJubltjSF1zMg==

> <s_epik_cmdline>
J2VwaWtfcHl0aG9uJywgJy1waCcsICc3LjAnLCAnLXRuJywgJzgnLCAnLW1hJywgJzIwMCcsICctbWV0YWxfYmluZGluZycsICctaW1hZScsICc8aW5maWxlLm1hZT4nLCAnLW9tYWUnLCAnPG91dGZpbGUubWFlPic=

> <r_lp_tautomer_probability>
1

> <r_epik_Ionization_Penalty>
3.04466

> <r_epik_Ionization_Penalty_Charging>
3.01305

> <r_epik_Ionization_Penalty_Neutral>
0.0316037

> <r_epik_State_Penalty>
3.00821

> <r_epik_Charging_Adjusted_Penalty>
6.02127

> <i_epik_Tot_Q>
0

> <i_epik_Tot_abs_Q>
2

> <r_epik_Metal_State_Penalty>
0.454395

> <b_epik_Metal_Only>
1

> <s_lp_Force_Field>
OPLS_2005

> <r_lp_Energy>
9.82396

> <b_lp_Chiralities_Consistent>
1

> <s_lp_Variant>
AV-unprocessed.smi:1661-3

> <Gold.Version>
5.8.1

> <Gold.Id.Protein>
6NUR|6NUR_protein|mol2

> <Gold.PLP.Fitness>
41.1899

> <Gold.PLP.PLP>
-28.1523

> <Gold.PLP.part.hbond>
-5.3661

> <Gold.PLP.part.metal>
0.0000

> <Gold.PLP.part.buried>
-6.1183

> <Gold.PLP.part.nonpolar>
-20.2761

> <Gold.PLP.part.repulsive>
2.6577

> <Gold.PLP.ligand.clash>
0.0000

> <Gold.PLP.ligand.torsion>
0.6700

> <Gold.PLP.Chemscore.Hbond>
4.7752

> <Gold.PLP.Chemscore.CHOScore>
0.0000

> <Gold.PLP.Chemscore.Metal>
0.0000

> <Gold.Chemscore.Hbonds>
donor molecule, donor type, donor heavy atom, donor atom, acceptor molecule, acceptor atom, score
      L1  H     5    37       P1  7948  2.00
      L1  H     8    31       P1  7957  0.78
      P1  H  7989  7998       L1    13  0.84
      P1  H  7997  8010       L1    14  1.00

> <Gold.PLP.Chemscore.Internal.Correction>
0.0520

> <Gold.Rescore>
     Score         DG    S(hbond)    S(metal)    S(lipo)     H(rot)  DE(clash)    DE(int)     intcor
     14.95     -17.34       2.93        0.00      54.49       1.68       0.02       2.36       ----

> <Gold.Chemscore.Fitness>
14.9510

> <Gold.Chemscore.DG>
-17.3353

> <Gold.Chemscore.ZeroCoef>
-5.4800

> <Gold.Chemscore.Hbond>
2.9265

> <Gold.Chemscore.Metal>
0.0000

> <Gold.Chemscore.Lipo>
54.4940

> <Gold.Chemscore.Internal_Hbond>
0.0000

> <Gold.Chemscore.DEClash>
0.0202

> <Gold.Chemscore.DEInternal>
2.3641

> <Gold.Chemscore.Rot>
1.6777

> <Gold.Chemscore.Internal.Correction>
   9.000000E+99

> <Gold.Chemscore.Hbonds>
donor molecule, donor type, donor heavy atom, donor atom, acceptor molecule, acceptor atom, score
      L1  H     5    37       P1  7948  0.99
      L1  H     8    31       P1  7957  0.76
      P1  H  7989  7998       L1    13  0.14
      P1  H  7997  8010       L1    14  0.98

> <Gold.Chemscore.Hbond.Weighted>
-9.7745

> <Gold.Chemscore.Metal.Weighted>
-0.0000

> <Gold.Chemscore.Lipo.Weighted>
-6.3758

> <Gold.Chemscore.Internal_Hbond.Weighted>
0.0000

> <Gold.Chemscore.DEClash.Weighted>
0.0202

> <Gold.Chemscore.DEInternal.Weighted>
2.3641

> <Gold.Chemscore.Rot.Weighted>
4.2950

> <Gold.Chemscore.Internal.Correction.Weighted>
   9.000000E+99

> <Gold.Protein.RotatedTorsions>
[ 6907 6896 6895 6894 ] final   19.77 input  -60.11 | X-H torsion
[ 7974 7965 7964 7962 ] final   12.48 input  175.53 | X-H torsion
[ 8008 7997 7996 7995 ] final   81.28 input   59.86 | X-H torsion
[ 10167 10162 10161 10158 ] final  179.47 input  -65.29 | X-H torsion
[ 10718 10713 10712 10709 ] final  156.17 input   66.30 | X-H torsion
[ 10763 10752 10751 10750 ] final  124.32 input  -60.55 | X-H torsion
[ 11005 11000 10999 10996 ] final   61.29 input  -57.11 | X-H torsion

> <Gold.Protein.ActiveResidues>
 VAL166  LYS551  ARG553  GLY616  TRP617  ASP618  TYR619  PRO620  LYS621  CYS622 
 ASP623  PHE694  ASN695  SER759  ASP760  ASP761  ALA762  ILE779  LEU786  VAL792 
 PHE793  MET794  SER795  GLU796  ALA797  LYS798  CYS799  TRP800  GLU811  SER814 

> <Gold.Protein.RotatedAtoms>
  151.8861  135.0435  160.0493 H   0  0  0  0  0  0  0  0  0  0  0  0  # atno 6907 bound_to 6896
  152.2474  133.5181  159.5313 H   0  0  0  0  0  0  0  0  0  0  0  0  # atno 6908 bound_to 6896
  150.7072  134.0923  159.3978 H   0  0  0  0  0  0  0  0  0  0  0  0  # atno 6909 bound_to 6896
  146.2350  139.9331  142.8493 H   0  0  0  0  0  0  0  0  0  0  0  0  # atno 7974 bound_to 7965
  155.8950  140.3436  155.5984 H   0  0  0  0  0  0  0  0  0  0  0  0  # atno 8008 bound_to 7997
  155.7567  140.0827  157.2194 H   0  0  0  0  0  0  0  0  0  0  0  0  # atno 8009 bound_to 7997
  154.4037  140.1543  156.2773 H   0  0  0  0  0  0  0  0  0  0  0  0  # atno 8010 bound_to 7997
  139.5338  144.2557  152.0748 H   0  0  0  0  0  0  0  0  0  0  0  0  # atno 10167 bound_to 10162
  157.2086  131.0692  151.1983 H   0  0  0  0  0  0  0  0  0  0  0  0  # atno 10718 bound_to 10713
  153.6595  135.3349  155.3123 H   0  0  0  0  0  0  0  0  0  0  0  0  # atno 10763 bound_to 10752
  154.8518  135.4360  154.1819 H   0  0  0  0  0  0  0  0  0  0  0  0  # atno 10764 bound_to 10752
  153.2782  135.7006  153.7487 H   0  0  0  0  0  0  0  0  0  0  0  0  # atno 10765 bound_to 10752
  140.0171  134.6208  155.9693 H   0  0  0  0  0  0  0  0  0  0  0  0  # atno 11005 bound_to 11000
  145.2025  140.9860  143.4147 LP  0  0  0  0  0  0  0  0  0  0  0  0  # atno 17320 bound_to 7965
  144.9761  139.3830  143.6285 LP  0  0  0  0  0  0  0  0  0  0  0  0  # atno 17321 bound_to 7965
  140.2024  144.4644  150.6425 LP  0  0  0  0  0  0  0  0  0  0  0  0  # atno 17342 bound_to 10162
  140.6532  143.2230  151.6028 LP  0  0  0  0  0  0  0  0  0  0  0  0  # atno 17343 bound_to 10162
  157.3695  130.7173  149.6555 LP  0  0  0  0  0  0  0  0  0  0  0  0  # atno 17370 bound_to 10713
  155.9693  130.4203  150.4415 LP  0  0  0  0  0  0  0  0  0  0  0  0  # atno 17371 bound_to 10713
  141.1750  133.6539  156.4794 LP  0  0  0  0  0  0  0  0  0  0  0  0  # atno 17394 bound_to 11000
  140.4451  134.6980  157.5012 LP  0  0  0  0  0  0  0  0  0  0  0  0  # atno 17395 bound_to 11000

$$$$
