AV-unprocessed.smi:3031|AV-procd|sdf|11548|dock3
  -GOLD-   2272016503D 1   1.00000     0.00000
 Structure written by MMmdl.
 47 48  0  0  0  0  0  0  0  0  2 V2000
  153.2071  137.9201  155.6639 C   0  0  0  0  0  0  0  0  0  0  0  0
  151.9665  138.5963  155.1561 C   0  0  0  0  0  0  0  0  0  0  0  0
  151.0384  138.1097  154.1920 C   0  0  0  0  0  0  0  0  0  0  0  0
  150.0415  138.9498  153.9681 N   0  0  0  0  0  0  0  0  0  0  0  0
  150.2945  139.9980  154.7817 N   0  0  0  0  0  0  0  0  0  0  0  0
  149.3865  141.1304  154.8051 C   0  0  0  0  0  0  0  0  0  0  0  0
  147.9349  140.7870  154.3903 C   0  0  1  0  0  0  0  0  0  0  0  0
  147.1211  142.0777  154.2239 C   0  0  0  0  0  0  0  0  0  0  0  0
  147.8801  140.0283  153.1367 N   0  0  0  0  0  0  0  0  0  0  0  0
  146.5565  139.9338  152.5145 C   0  0  0  0  0  0  0  0  0  0  0  0
  146.2790  138.5304  151.9481 C   0  0  1  0  0  0  0  0  0  0  0  0
  147.3521  138.1416  151.1135 O   0  0  0  0  0  0  0  0  0  0  0  0
  146.0283  137.4698  153.0420 C   0  0  0  0  0  0  0  0  0  0  0  0
  146.1247  136.0826  152.5231 N   0  3  0  0  0  0  0  0  0  0  0  0
  145.8506  135.0657  153.5662 C   0  0  0  0  0  0  0  0  0  0  0  0
  146.0215  133.6482  152.9941 C   0  0  0  0  0  0  0  0  0  0  0  0
  145.1653  133.4793  151.8711 O   0  0  0  0  0  0  0  0  0  0  0  0
  145.4718  134.3939  150.8261 C   0  0  0  0  0  0  0  0  0  0  0  0
  145.2807  135.8350  151.3277 C   0  0  0  0  0  0  0  0  0  0  0  0
  151.4555  139.8150  155.5026 C   0  0  0  0  0  0  0  0  0  0  0  0
  153.5627  137.1551  154.9737 H   0  0  0  0  0  0  0  0  0  0  0  0
  153.0328  137.4319  156.6228 H   0  0  0  0  0  0  0  0  0  0  0  0
  154.0241  138.6281  155.8060 H   0  0  0  0  0  0  0  0  0  0  0  0
  151.0587  137.1742  153.6527 H   0  0  0  0  0  0  0  0  0  0  0  0
  149.3936  141.5254  155.8217 H   0  0  0  0  0  0  0  0  0  0  0  0
  149.7850  141.9232  154.1693 H   0  0  0  0  0  0  0  0  0  0  0  0
  147.4615  140.2111  155.1869 H   0  0  0  0  0  0  0  0  0  0  0  0
  147.1050  142.6543  155.1490 H   0  0  0  0  0  0  0  0  0  0  0  0
  146.0863  141.8589  153.9585 H   0  0  0  0  0  0  0  0  0  0  0  0
  147.5380  142.7147  153.4427 H   0  0  0  0  0  0  0  0  0  0  0  0
  148.5329  140.4277  152.4695 H   0  0  0  0  0  0  0  0  0  0  0  0
  145.7742  140.1637  153.2328 H   0  0  0  0  0  0  0  0  0  0  0  0
  146.4633  140.6791  151.7239 H   0  0  0  0  0  0  0  0  0  0  0  0
  145.4002  138.6168  151.3103 H   0  0  0  0  0  0  0  0  0  0  0  0
  147.8852  137.5163  151.5809 H   0  0  0  0  0  0  0  0  0  0  0  0
  146.7583  137.6098  153.8407 H   0  0  0  0  0  0  0  0  0  0  0  0
  145.0483  137.6159  153.4995 H   0  0  0  0  0  0  0  0  0  0  0  0
  146.5311  135.2037  154.4073 H   0  0  0  0  0  0  0  0  0  0  0  0
  144.8367  135.1962  153.9481 H   0  0  0  0  0  0  0  0  0  0  0  0
  147.0584  133.4659  152.7074 H   0  0  0  0  0  0  0  0  0  0  0  0
  145.7648  132.9051  153.7492 H   0  0  0  0  0  0  0  0  0  0  0  0
  146.4927  134.2357  150.4746 H   0  0  0  0  0  0  0  0  0  0  0  0
  144.8104  134.1996  149.9813 H   0  0  0  0  0  0  0  0  0  0  0  0
  144.2321  136.0037  151.5783 H   0  0  0  0  0  0  0  0  0  0  0  0
  145.5324  136.5305  150.5281 H   0  0  0  0  0  0  0  0  0  0  0  0
  151.8136  140.5569  156.2012 H   0  0  0  0  0  0  0  0  0  0  0  0
  147.0869  135.9502  152.2448 H   0  0  0  0  0  0  0  0  0  0  0  0
  1  2  1  0  0  0  0
  1 21  1  0  0  0  0
  1 22  1  0  0  0  0
  1 23  1  0  0  0  0
  2 20  2  0  0  0  0
  2  3  1  0  0  0  0
  3  4  2  0  0  0  0
  3 24  1  0  0  0  0
  4  5  1  0  0  0  0
  5  6  1  0  0  0  0
  5 20  1  0  0  0  0
  6  7  1  0  0  0  0
  6 25  1  0  0  0  0
  6 26  1  0  0  0  0
  7  8  1  0  0  0  0
  7  9  1  0  0  0  0
  7 27  1  0  0  0  0
  8 28  1  0  0  0  0
  8 29  1  0  0  0  0
  8 30  1  0  0  0  0
  9 10  1  0  0  0  0
  9 31  1  0  0  0  0
 10 11  1  0  0  0  0
 10 32  1  0  0  0  0
 10 33  1  0  0  0  0
 11 12  1  0  0  0  0
 11 13  1  0  0  0  0
 11 34  1  0  0  0  0
 12 35  1  0  0  0  0
 13 14  1  0  0  0  0
 13 36  1  0  0  0  0
 13 37  1  0  0  0  0
 14 19  1  0  0  0  0
 14 15  1  0  0  0  0
 14 47  1  0  0  0  0
 15 16  1  0  0  0  0
 15 38  1  0  0  0  0
 15 39  1  0  0  0  0
 16 17  1  0  0  0  0
 16 40  1  0  0  0  0
 16 41  1  0  0  0  0
 17 18  1  0  0  0  0
 18 19  1  0  0  0  0
 18 42  1  0  0  0  0
 18 43  1  0  0  0  0
 19 44  1  0  0  0  0
 19 45  1  0  0  0  0
 20 46  1  0  0  0  0
M  CHG  1  14   1
M  END
> <s_m_source_file>
AV-unprocessed.smi

> <i_m_source_file_index>
3031

> <i_lp_mmshare_version>
43012

> <i_f3d_flags>
0

> <s_epik_input>
W0NIM11jMVtjSF1ubihbY0hdMSlbQ0gyXVtDQEhdKFtDSDNdKVtOSF1bQ0gyXVtDQEhdKFtPSF0pW0NIMl1OMltDSDJdW0NIMl1PW0NIMl1bQ0gyXTI=

> <s_epik_cmdline>
J2VwaWtfcHl0aG9uJywgJy1waCcsICc3LjAnLCAnLXRuJywgJzgnLCAnLW1hJywgJzIwMCcsICctbWV0YWxfYmluZGluZycsICctaW1hZScsICc8aW5maWxlLm1hZT4nLCAnLW9tYWUnLCAnPG91dGZpbGUubWFlPic=

> <r_epik_Ionization_Penalty>
0.467051

> <r_epik_Ionization_Penalty_Charging>
0.202493

> <r_epik_Ionization_Penalty_Neutral>
0.264558

> <r_epik_State_Penalty>
1.34287

> <r_epik_Charging_Adjusted_Penalty>
1.54537

> <i_epik_Tot_Q>
1

> <i_epik_Tot_abs_Q>
1

> <r_epik_Metal_State_Penalty>
1.34281

> <b_epik_Metal_Only>
0

> <s_lp_Force_Field>
OPLS_2005

> <r_lp_Energy>
30.2263

> <b_lp_Chiralities_Consistent>
1

> <s_lp_Variant>
AV-unprocessed.smi:3031-8

> <Gold.Version>
5.8.1

> <Gold.Id.Protein>
6NUR|6NUR_protein|mol2

> <Gold.PLP.Fitness>
52.8213

> <Gold.PLP.PLP>
-38.8343

> <Gold.PLP.part.hbond>
-4.5955

> <Gold.PLP.part.metal>
0.0000

> <Gold.PLP.part.buried>
0.4579

> <Gold.PLP.part.nonpolar>
-36.3353

> <Gold.PLP.part.repulsive>
1.0018

> <Gold.PLP.ligand.clash>
0.0000

> <Gold.PLP.ligand.torsion>
1.0098

> <Gold.PLP.Chemscore.Hbond>
4.4241

> <Gold.PLP.Chemscore.CHOScore>
0.8567

> <Gold.PLP.Chemscore.Metal>
0.0000

> <Gold.Chemscore.Hbonds>
donor molecule, donor type, donor heavy atom, donor atom, acceptor molecule, acceptor atom, score
      L1  H     9    31       P1  7957  0.88
      L1  H    12    35       P1  7948  1.00
      L1  H    14    47       P1  7948  2.00
      P1  H  7954  7966       L1    12  0.40
      L1  C     3    24       P1  7948  0.04
      L1  C     3    24       P1  7949  1.00

> <Gold.PLP.Chemscore.Internal.Correction>
0.1642

> <Gold.Rescore>
     Score         DG    S(hbond)    S(metal)    S(lipo)     H(rot)  DE(clash)    DE(int)     intcor
     17.34     -18.93       2.91        0.00      90.06       2.65       1.01       0.59       ----

> <Gold.Chemscore.Fitness>
17.3358

> <Gold.Chemscore.DG>
-18.9322

> <Gold.Chemscore.ZeroCoef>
-5.4800

> <Gold.Chemscore.Hbond>
2.9054

> <Gold.Chemscore.Metal>
0.0000

> <Gold.Chemscore.Lipo>
90.0627

> <Gold.Chemscore.Internal_Hbond>
0.0000

> <Gold.Chemscore.DEClash>
1.0087

> <Gold.Chemscore.DEInternal>
0.5876

> <Gold.Chemscore.Rot>
2.6521

> <Gold.Chemscore.Internal.Correction>
   9.000000E+99

> <Gold.Chemscore.Hbonds>
donor molecule, donor type, donor heavy atom, donor atom, acceptor molecule, acceptor atom, score
      L1  H     9    31       P1  7957  0.87
      L1  H    12    35       P1  7948  0.99
      L1  H    14    47       P1  7948  1.00
      P1  H  7954  7966       L1    12  0.01

> <Gold.Chemscore.Hbond.Weighted>
-9.7042

> <Gold.Chemscore.Metal.Weighted>
-0.0000

> <Gold.Chemscore.Lipo.Weighted>
-10.5373

> <Gold.Chemscore.Internal_Hbond.Weighted>
0.0000

> <Gold.Chemscore.DEClash.Weighted>
1.0087

> <Gold.Chemscore.DEInternal.Weighted>
0.5876

> <Gold.Chemscore.Rot.Weighted>
6.7894

> <Gold.Chemscore.Internal.Correction.Weighted>
   9.000000E+99

> <Gold.Protein.RotatedTorsions>
[ 6907 6896 6895 6894 ] final   60.25 input  -60.11 | X-H torsion
[ 7974 7965 7964 7962 ] final  -21.61 input  175.53 | X-H torsion
[ 8008 7997 7996 7995 ] final -157.10 input   59.86 | X-H torsion
[ 10167 10162 10161 10158 ] final   96.42 input  -65.29 | X-H torsion
[ 10718 10713 10712 10709 ] final   11.44 input   66.30 | X-H torsion
[ 10763 10752 10751 10750 ] final  -28.20 input  -60.55 | X-H torsion
[ 11005 11000 10999 10996 ] final -123.51 input  -57.11 | X-H torsion

> <Gold.Protein.ActiveResidues>
 VAL166  LYS551  ARG553  GLY616  TRP617  ASP618  TYR619  PRO620  LYS621  CYS622 
 ASP623  PHE694  ASN695  SER759  ASP760  ASP761  ALA762  ILE779  LEU786  VAL792 
 PHE793  MET794  SER795  GLU796  ALA797  LYS798  CYS799  TRP800  GLU811  SER814 

> <Gold.Protein.RotatedAtoms>
  152.3986  134.6323  160.0078 H   0  0  0  0  0  0  0  0  0  0  0  0  # atno 6907 bound_to 6896
  151.6535  133.3314  159.3165 H   0  0  0  0  0  0  0  0  0  0  0  0  # atno 6908 bound_to 6896
  150.7890  134.6941  159.6558 H   0  0  0  0  0  0  0  0  0  0  0  0  # atno 6909 bound_to 6896
  146.1723  140.4365  142.8527 H   0  0  0  0  0  0  0  0  0  0  0  0  # atno 7974 bound_to 7965
  155.7274  140.0797  157.2304 H   0  0  0  0  0  0  0  0  0  0  0  0  # atno 8008 bound_to 7997
  154.4037  140.1601  156.2524 H   0  0  0  0  0  0  0  0  0  0  0  0  # atno 8009 bound_to 7997
  155.9141  140.3402  155.6124 H   0  0  0  0  0  0  0  0  0  0  0  0  # atno 8010 bound_to 7997
  139.7896  144.6857  150.9910 H   0  0  0  0  0  0  0  0  0  0  0  0  # atno 10167 bound_to 10162
  156.9956  130.6059  149.5690 H   0  0  0  0  0  0  0  0  0  0  0  0  # atno 10718 bound_to 10713
  153.7444  135.6930  153.4959 H   0  0  0  0  0  0  0  0  0  0  0  0  # atno 10763 bound_to 10752
  153.2047  135.4424  155.0307 H   0  0  0  0  0  0  0  0  0  0  0  0  # atno 10764 bound_to 10752
  154.8209  135.3422  154.6968 H   0  0  0  0  0  0  0  0  0  0  0  0  # atno 10765 bound_to 10752
  140.9913  134.0535  157.3651 H   0  0  0  0  0  0  0  0  0  0  0  0  # atno 11005 bound_to 11000
  144.8182  140.6504  143.6370 LP  0  0  0  0  0  0  0  0  0  0  0  0  # atno 17320 bound_to 7965
  145.4307  139.1549  143.4024 LP  0  0  0  0  0  0  0  0  0  0  0  0  # atno 17321 bound_to 7965
  140.7820  143.4395  151.0573 LP  0  0  0  0  0  0  0  0  0  0  0  0  # atno 17342 bound_to 10162
  139.8072  143.8001  152.3168 LP  0  0  0  0  0  0  0  0  0  0  0  0  # atno 17343 bound_to 10162
  156.0190  130.5285  150.8221 LP  0  0  0  0  0  0  0  0  0  0  0  0  # atno 17370 bound_to 10713
  157.5427  131.0941  150.9805 LP  0  0  0  0  0  0  0  0  0  0  0  0  # atno 17371 bound_to 10713
  139.8993  135.0158  156.7192 LP  0  0  0  0  0  0  0  0  0  0  0  0  # atno 17394 bound_to 11000
  140.7035  133.9285  155.8039 LP  0  0  0  0  0  0  0  0  0  0  0  0  # atno 17395 bound_to 11000

$$$$
