AV-unprocessed.smi:3083|AV-procd|sdf|11744|dock4
  -GOLD-   2272017133D 1   1.00000     0.00000
 Structure written by MMmdl.
 28 29  0  0  0  0  0  0  0  0  2 V2000
  151.6121  144.3883  157.0936 N   0  3  0  0  0  0  0  0  0  0  0  0
  151.5015  143.7150  158.4009 C   0  0  2  0  0  0  0  0  0  0  0  0
  152.0876  144.6099  159.5091 C   0  0  0  0  0  0  0  0  0  0  0  0
  152.0026  143.9296  160.8841 C   0  0  0  0  0  0  0  0  0  0  0  0
  152.6974  142.5597  160.8694 C   0  0  0  0  0  0  0  0  0  0  0  0
  152.1218  141.6568  159.7672 C   0  0  0  0  0  0  0  0  0  0  0  0
  152.2021  142.3314  158.3819 C   0  0  1  0  0  0  0  0  0  0  0  0
  151.6714  141.4451  157.3525 N   0  0  0  0  0  0  0  0  0  0  0  0
  150.5524  141.6307  156.5668 C   0  0  0  0  0  0  0  0  0  0  0  0
  150.4609  140.5598  155.7247 C   0  0  0  0  0  0  0  0  0  0  0  0
  151.5933  139.7674  156.0609 C   0  0  0  0  0  0  0  0  0  0  0  0
  152.3182  140.3018  157.0302 N   0  0  0  0  0  0  0  0  0  0  0  0
  151.9218  145.3401  157.2270 H   0  0  0  0  0  0  0  0  0  0  0  0
  150.7118  144.3862  156.6360 H   0  0  0  0  0  0  0  0  0  0  0  0
  150.4379  143.5800  158.6032 H   0  0  0  0  0  0  0  0  0  0  0  0
  153.1298  144.8432  159.2854 H   0  0  0  0  0  0  0  0  0  0  0  0
  151.5582  145.5631  159.5408 H   0  0  0  0  0  0  0  0  0  0  0  0
  152.4561  144.5679  161.6432 H   0  0  0  0  0  0  0  0  0  0  0  0
  150.9567  143.8064  161.1680 H   0  0  0  0  0  0  0  0  0  0  0  0
  153.7683  142.6932  160.7114 H   0  0  0  0  0  0  0  0  0  0  0  0
  152.5866  142.0764  161.8407 H   0  0  0  0  0  0  0  0  0  0  0  0
  152.6615  140.7092  159.7531 H   0  0  0  0  0  0  0  0  0  0  0  0
  151.0844  141.4159  160.0045 H   0  0  0  0  0  0  0  0  0  0  0  0
  153.2570  142.4903  158.1504 H   0  0  0  0  0  0  0  0  0  0  0  0
  149.9202  142.5004  156.6698 H   0  0  0  0  0  0  0  0  0  0  0  0
  149.7046  140.3747  154.9761 H   0  0  0  0  0  0  0  0  0  0  0  0
  151.9096  138.8283  155.6309 H   0  0  0  0  0  0  0  0  0  0  0  0
  152.2811  143.8930  156.5210 H   0  0  0  0  0  0  0  0  0  0  0  0
  1  2  1  0  0  0  0
  1 13  1  0  0  0  0
  1 14  1  0  0  0  0
  1 28  1  0  0  0  0
  2  7  1  0  0  0  0
  2  3  1  0  0  0  0
  2 15  1  0  0  0  0
  3  4  1  0  0  0  0
  3 16  1  0  0  0  0
  3 17  1  0  0  0  0
  4  5  1  0  0  0  0
  4 18  1  0  0  0  0
  4 19  1  0  0  0  0
  5  6  1  0  0  0  0
  5 20  1  0  0  0  0
  5 21  1  0  0  0  0
  6  7  1  0  0  0  0
  6 22  1  0  0  0  0
  6 23  1  0  0  0  0
  7  8  1  0  0  0  0
  7 24  1  0  0  0  0
  8 12  1  0  0  0  0
  8  9  1  0  0  0  0
  9 10  2  0  0  0  0
  9 25  1  0  0  0  0
 10 11  1  0  0  0  0
 10 26  1  0  0  0  0
 11 12  2  0  0  0  0
 11 27  1  0  0  0  0
M  CHG  1   1   1
M  END
> <s_m_source_file>
AV-unprocessed.smi

> <i_m_source_file_index>
3083

> <i_lp_mmshare_version>
43012

> <i_f3d_flags>
0

> <s_epik_input>
W05IMl1bQ0BASF0xW0NIMl1bQ0gyXVtDSDJdW0NIMl1bQ0BIXTFuMltjSF1bY0hdW2NIXW4y

> <s_epik_cmdline>
J2VwaWtfcHl0aG9uJywgJy1waCcsICc3LjAnLCAnLXRuJywgJzgnLCAnLW1hJywgJzIwMCcsICctbWV0YWxfYmluZGluZycsICctaW1hZScsICc8aW5maWxlLm1hZT4nLCAnLW9tYWUnLCAnPG91dGZpbGUubWFlPic=

> <r_lp_tautomer_probability>
1

> <r_epik_Ionization_Penalty>
0.00385053

> <r_epik_Ionization_Penalty_Charging>
0.0038389

> <r_epik_Ionization_Penalty_Neutral>
1.16305e-05

> <r_epik_State_Penalty>
-0

> <r_epik_Charging_Adjusted_Penalty>
0.0038389

> <i_epik_Tot_Q>
1

> <i_epik_Tot_abs_Q>
1

> <r_epik_Metal_State_Penalty>
-0

> <b_epik_Metal_Only>
0

> <s_lp_Force_Field>
OPLS_2005

> <r_lp_Energy>
13.574

> <b_lp_Chiralities_Consistent>
1

> <s_lp_Variant>
AV-unprocessed.smi:3083-1

> <Gold.Version>
5.8.1

> <Gold.Id.Protein>
6NUR|6NUR_protein|mol2

> <Gold.PLP.Fitness>
40.4891

> <Gold.PLP.PLP>
-29.3411

> <Gold.PLP.part.hbond>
-1.9983

> <Gold.PLP.part.metal>
0.0000

> <Gold.PLP.part.buried>
-1.1545

> <Gold.PLP.part.nonpolar>
-24.7186

> <Gold.PLP.part.repulsive>
0.0460

> <Gold.PLP.ligand.clash>
0.0000

> <Gold.PLP.ligand.torsion>
0.1504

> <Gold.PLP.Chemscore.Hbond>
2.9188

> <Gold.PLP.Chemscore.CHOScore>
0.8880

> <Gold.PLP.Chemscore.Metal>
0.0000

> <Gold.Chemscore.Hbonds>
donor molecule, donor type, donor heavy atom, donor atom, acceptor molecule, acceptor atom, score
      L1  H     1    14       P1  8028  1.82
      P1  H  7997  8008       L1    12  0.83
      L1  C     9    25       P1  8028  0.71

> <Gold.PLP.Chemscore.Internal.Correction>
0.0284

> <Gold.Rescore>
     Score         DG    S(hbond)    S(metal)    S(lipo)     H(rot)  DE(clash)    DE(int)     intcor
     18.59     -19.33       1.93        0.00      85.23       1.00       0.22       0.52       ----

> <Gold.Chemscore.Fitness>
18.5940

> <Gold.Chemscore.DG>
-19.3346

> <Gold.Chemscore.ZeroCoef>
-5.4800

> <Gold.Chemscore.Hbond>
1.9289

> <Gold.Chemscore.Metal>
0.0000

> <Gold.Chemscore.Lipo>
85.2313

> <Gold.Chemscore.Internal_Hbond>
0.0000

> <Gold.Chemscore.DEClash>
0.2228

> <Gold.Chemscore.DEInternal>
0.5178

> <Gold.Chemscore.Rot>
1.0000

> <Gold.Chemscore.Internal.Correction>
   9.000000E+99

> <Gold.Chemscore.Hbonds>
donor molecule, donor type, donor heavy atom, donor atom, acceptor molecule, acceptor atom, score
      L1  H     1    14       P1  8028  0.86
      P1  H  7997  8008       L1    12  0.51

> <Gold.Chemscore.Hbond.Weighted>
-6.4426

> <Gold.Chemscore.Metal.Weighted>
-0.0000

> <Gold.Chemscore.Lipo.Weighted>
-9.9721

> <Gold.Chemscore.Internal_Hbond.Weighted>
0.0000

> <Gold.Chemscore.DEClash.Weighted>
0.2228

> <Gold.Chemscore.DEInternal.Weighted>
0.5178

> <Gold.Chemscore.Rot.Weighted>
2.5600

> <Gold.Chemscore.Internal.Correction.Weighted>
   9.000000E+99

> <Gold.Protein.RotatedTorsions>
[ 6907 6896 6895 6894 ] final  -53.27 input  -60.11 | X-H torsion
[ 7974 7965 7964 7962 ] final   23.89 input  175.53 | X-H torsion
[ 8008 7997 7996 7995 ] final  -52.07 input   59.86 | X-H torsion
[ 10167 10162 10161 10158 ] final -121.71 input  -65.29 | X-H torsion
[ 10718 10713 10712 10709 ] final -149.19 input   66.30 | X-H torsion
[ 10763 10752 10751 10750 ] final  -34.84 input  -60.55 | X-H torsion
[ 11005 11000 10999 10996 ] final  -92.90 input  -57.11 | X-H torsion

> <Gold.Protein.ActiveResidues>
 VAL166  LYS551  ARG553  GLY616  TRP617  ASP618  TYR619  PRO620  LYS621  CYS622 
 ASP623  PHE694  ASN695  SER759  ASP760  ASP761  ALA762  ILE779  LEU786  VAL792 
 PHE793  MET794  SER795  GLU796  ALA797  LYS798  CYS799  TRP800  GLU811  SER814 

> <Gold.Protein.RotatedAtoms>
  150.8442  134.7745  159.6956 H   0  0  0  0  0  0  0  0  0  0  0  0  # atno 6907 bound_to 6896
  152.4522  134.5365  159.9836 H   0  0  0  0  0  0  0  0  0  0  0  0  # atno 6908 bound_to 6896
  151.5499  133.3381  159.2987 H   0  0  0  0  0  0  0  0  0  0  0  0  # atno 6909 bound_to 6896
  146.1963  139.7681  142.8795 H   0  0  0  0  0  0  0  0  0  0  0  0  # atno 7974 bound_to 7965
  154.4097  140.1233  156.4931 H   0  0  0  0  0  0  0  0  0  0  0  0  # atno 8008 bound_to 7997
  155.6970  140.3495  155.4897 H   0  0  0  0  0  0  0  0  0  0  0  0  # atno 8009 bound_to 7997
  155.9419  140.1088  157.1039 H   0  0  0  0  0  0  0  0  0  0  0  0  # atno 8010 bound_to 7997
  140.0221  143.5334  152.2216 H   0  0  0  0  0  0  0  0  0  0  0  0  # atno 10167 bound_to 10162
  156.4300  130.8071  151.2297 H   0  0  0  0  0  0  0  0  0  0  0  0  # atno 10718 bound_to 10713
  153.8534  135.6847  153.4790 H   0  0  0  0  0  0  0  0  0  0  0  0  # atno 10763 bound_to 10752
  153.1384  135.4668  154.9455 H   0  0  0  0  0  0  0  0  0  0  0  0  # atno 10764 bound_to 10752
  154.7792  135.3263  154.7975 H   0  0  0  0  0  0  0  0  0  0  0  0  # atno 10765 bound_to 10752
  141.1510  133.7852  157.0085 H   0  0  0  0  0  0  0  0  0  0  0  0  # atno 11005 bound_to 11000
  145.3632  141.0329  143.3273 LP  0  0  0  0  0  0  0  0  0  0  0  0  # atno 17320 bound_to 7965
  144.8588  139.5209  143.6822 LP  0  0  0  0  0  0  0  0  0  0  0  0  # atno 17321 bound_to 7965
  139.6133  144.7614  151.2903 LP  0  0  0  0  0  0  0  0  0  0  0  0  # atno 17342 bound_to 10162
  140.7338  143.6784  150.8022 LP  0  0  0  0  0  0  0  0  0  0  0  0  # atno 17343 bound_to 10162
  157.7508  131.0201  150.3696 LP  0  0  0  0  0  0  0  0  0  0  0  0  # atno 17370 bound_to 10713
  156.4031  130.3919  149.6945 LP  0  0  0  0  0  0  0  0  0  0  0  0  # atno 17371 bound_to 10713
  140.0893  134.9602  157.1751 LP  0  0  0  0  0  0  0  0  0  0  0  0  # atno 17394 bound_to 11000
  140.3468  134.2643  155.7204 LP  0  0  0  0  0  0  0  0  0  0  0  0  # atno 17395 bound_to 11000

$$$$
