AV-unprocessed.smi:2007|AV-procd|sdf|8139|dock4
  -GOLD-   2272010373D 1   1.00000     0.00000
 Structure written by MMmdl.
 36 37  0  0  0  0  0  0  0  0  3 V2000
  150.2486  137.0175  155.2295 C   0  0  0  0  0  0  0  0  0  0  0  0
  149.1633  136.1966  155.9387 C   0  0  2  0  0  0  0  0  0  0  0  0
  147.8906  136.0685  155.0708 C   0  0  0  0  0  0  0  0  0  0  0  0
  147.9348  134.8947  154.1629 N   0  3  0  0  0  0  0  0  0  0  0  0
  148.6172  133.7177  154.7465 C   0  0  0  0  0  0  0  0  0  0  0  0
  148.7144  132.5955  153.6986 C   0  0  0  0  0  0  0  0  0  0  0  0
  147.4130  132.2646  153.2269 O   0  0  0  0  0  0  0  0  0  0  0  0
  146.7741  133.3717  152.6009 C   0  0  0  0  0  0  0  0  0  0  0  0
  146.6104  134.5112  153.6197 C   0  0  0  0  0  0  0  0  0  0  0  0
  148.8492  136.8189  157.2265 N   0  0  0  0  0  0  0  0  0  0  0  0
  148.6668  136.1896  158.3974 C   0  0  0  0  0  0  0  0  0  0  0  0
  148.8335  134.9705  158.4766 O   0  0  0  0  0  0  0  0  0  0  0  0
  148.2710  137.0078  159.3967 N   0  5  0  0  0  0  0  0  0  0  0  0
  147.7387  136.4883  160.5147 C   0  0  0  0  0  0  0  0  0  0  0  0
  147.5491  137.2004  161.6320 N   0  0  0  0  0  0  0  0  0  0  0  0
  146.9842  136.4599  162.6722 C   0  0  0  0  0  0  0  0  0  0  0  0
  146.7446  135.1527  162.3406 C   0  0  0  0  0  0  0  0  0  0  0  0
  147.2232  134.8107  160.7023 S   0  0  0  0  0  0  0  0  0  0  0  0
  150.5233  136.5637  154.2770 H   0  0  0  0  0  0  0  0  0  0  0  0
  151.1524  137.0800  155.8367 H   0  0  0  0  0  0  0  0  0  0  0  0
  149.9116  138.0350  155.0288 H   0  0  0  0  0  0  0  0  0  0  0  0
  149.5790  135.2024  156.1069 H   0  0  0  0  0  0  0  0  0  0  0  0
  147.0360  135.9644  155.7413 H   0  0  0  0  0  0  0  0  0  0  0  0
  147.7156  136.9790  154.4958 H   0  0  0  0  0  0  0  0  0  0  0  0
  149.6190  133.9950  155.0767 H   0  0  0  0  0  0  0  0  0  0  0  0
  148.0699  133.3718  155.6248 H   0  0  0  0  0  0  0  0  0  0  0  0
  149.3500  132.8970  152.8642 H   0  0  0  0  0  0  0  0  0  0  0  0
  149.1673  131.7075  154.1397 H   0  0  0  0  0  0  0  0  0  0  0  0
  147.3523  133.7024  151.7363 H   0  0  0  0  0  0  0  0  0  0  0  0
  145.7990  133.0547  152.2307 H   0  0  0  0  0  0  0  0  0  0  0  0
  145.9546  134.1969  154.4330 H   0  0  0  0  0  0  0  0  0  0  0  0
  146.1346  135.3655  153.1389 H   0  0  0  0  0  0  0  0  0  0  0  0
  148.7142  137.8197  157.2223 H   0  0  0  0  0  0  0  0  0  0  0  0
  146.7875  136.9445  163.6170 H   0  0  0  0  0  0  0  0  0  0  0  0
  146.3196  134.3740  162.9557 H   0  0  0  0  0  0  0  0  0  0  0  0
  148.5006  135.1801  153.3749 H   0  0  0  0  0  0  0  0  0  0  0  0
  1  2  1  0  0  0  0
  1 19  1  0  0  0  0
  1 20  1  0  0  0  0
  1 21  1  0  0  0  0
  2  3  1  0  0  0  0
  2 10  1  0  0  0  0
  2 22  1  0  0  0  0
  3  4  1  0  0  0  0
  3 23  1  0  0  0  0
  3 24  1  0  0  0  0
  4  9  1  0  0  0  0
  4  5  1  0  0  0  0
  4 36  1  0  0  0  0
  5  6  1  0  0  0  0
  5 25  1  0  0  0  0
  5 26  1  0  0  0  0
  6  7  1  0  0  0  0
  6 27  1  0  0  0  0
  6 28  1  0  0  0  0
  7  8  1  0  0  0  0
  8  9  1  0  0  0  0
  8 29  1  0  0  0  0
  8 30  1  0  0  0  0
  9 31  1  0  0  0  0
  9 32  1  0  0  0  0
 10 11  1  0  0  0  0
 10 33  1  0  0  0  0
 11 12  2  0  0  0  0
 11 13  1  0  0  0  0
 13 14  1  0  0  0  0
 14 18  1  0  0  0  0
 14 15  2  0  0  0  0
 15 16  1  0  0  0  0
 16 17  2  0  0  0  0
 16 34  1  0  0  0  0
 17 18  1  0  0  0  0
 17 35  1  0  0  0  0
M  CHG  1   4   1
M  CHG  1  13  -1
M  END
> <s_m_source_file>
AV-unprocessed.smi

> <i_m_source_file_index>
2007

> <i_lp_mmshare_version>
43012

> <i_f3d_flags>
0

> <s_epik_input>
W0NIMl0xW0NIMl1PW0NIMl1bQ0gyXU4xW0NIMl1bQ0BASF0oW0NIM10pW05IXUMoPU8pW05IXWMybltjSF1bY0hdczI=

> <s_epik_cmdline>
J2VwaWtfcHl0aG9uJywgJy1waCcsICc3LjAnLCAnLXRuJywgJzgnLCAnLW1hJywgJzIwMCcsICctbWV0YWxfYmluZGluZycsICctaW1hZScsICc8aW5maWxlLm1hZT4nLCAnLW9tYWUnLCAnPG91dGZpbGUubWFlPic=

> <r_lp_tautomer_probability>
0.999

> <r_epik_Ionization_Penalty>
6.49226

> <r_epik_Ionization_Penalty_Charging>
5.74393

> <r_epik_Ionization_Penalty_Neutral>
0.748321

> <r_epik_State_Penalty>
5.94164

> <r_epik_Charging_Adjusted_Penalty>
11.6856

> <i_epik_Tot_Q>
0

> <i_epik_Tot_abs_Q>
2

> <r_epik_Metal_State_Penalty>
1.97606

> <b_epik_Metal_Only>
1

> <s_lp_Force_Field>
OPLS_2005

> <r_lp_Energy>
10.1627

> <b_lp_Chiralities_Consistent>
1

> <s_lp_Variant>
AV-unprocessed.smi:2007-7

> <Gold.Version>
5.8.1

> <Gold.Id.Protein>
6NUR|6NUR_protein|mol2

> <Gold.PLP.Fitness>
42.3221

> <Gold.PLP.PLP>
-29.9797

> <Gold.PLP.part.hbond>
-4.0000

> <Gold.PLP.part.metal>
0.0000

> <Gold.PLP.part.buried>
-4.0023

> <Gold.PLP.part.nonpolar>
-21.1230

> <Gold.PLP.part.repulsive>
0.1369

> <Gold.PLP.ligand.clash>
0.0000

> <Gold.PLP.ligand.torsion>
0.9110

> <Gold.PLP.Chemscore.Hbond>
4.6750

> <Gold.PLP.Chemscore.CHOScore>
0.0000

> <Gold.PLP.Chemscore.Metal>
0.0000

> <Gold.Chemscore.Hbonds>
donor molecule, donor type, donor heavy atom, donor atom, acceptor molecule, acceptor atom, score
      L1  H     4    36       P1  7948  2.00
      P1  H  6896  6907       L1    12  0.57
      P1  H  6931  6943       L1    15  0.96
      P1  H  6934  6947       L1    15  0.78

> <Gold.PLP.Chemscore.Internal.Correction>
0.1394

> <Gold.Rescore>
     Score         DG    S(hbond)    S(metal)    S(lipo)     H(rot)  DE(clash)    DE(int)     intcor
     15.22     -17.85       2.98        0.00      55.52       1.60       0.00       2.63       ----

> <Gold.Chemscore.Fitness>
15.2192

> <Gold.Chemscore.DG>
-17.8516

> <Gold.Chemscore.ZeroCoef>
-5.4800

> <Gold.Chemscore.Hbond>
2.9848

> <Gold.Chemscore.Metal>
0.0000

> <Gold.Chemscore.Lipo>
55.5208

> <Gold.Chemscore.Internal_Hbond>
0.0000

> <Gold.Chemscore.DEClash>
0.0000

> <Gold.Chemscore.DEInternal>
2.6325

> <Gold.Chemscore.Rot>
1.5991

> <Gold.Chemscore.Internal.Correction>
   9.000000E+99

> <Gold.Chemscore.Hbonds>
donor molecule, donor type, donor heavy atom, donor atom, acceptor molecule, acceptor atom, score
      L1  H     4    36       P1  7948  0.90
      P1  H  6896  6907       L1    12  0.33
      P1  H  6931  6943       L1    15  0.64
      P1  H  6934  6947       L1    15  0.31

> <Gold.Chemscore.Hbond.Weighted>
-9.9693

> <Gold.Chemscore.Metal.Weighted>
-0.0000

> <Gold.Chemscore.Lipo.Weighted>
-6.4959

> <Gold.Chemscore.Internal_Hbond.Weighted>
0.0000

> <Gold.Chemscore.DEClash.Weighted>
0.0000

> <Gold.Chemscore.DEInternal.Weighted>
2.6325

> <Gold.Chemscore.Rot.Weighted>
4.0936

> <Gold.Chemscore.Internal.Correction.Weighted>
   9.000000E+99

> <Gold.Protein.RotatedTorsions>
[ 6907 6896 6895 6894 ] final  -63.42 input  -60.11 | X-H torsion
[ 7974 7965 7964 7962 ] final -151.72 input  175.53 | X-H torsion
[ 8008 7997 7996 7995 ] final  -31.59 input   59.86 | X-H torsion
[ 10167 10162 10161 10158 ] final -177.91 input  -65.29 | X-H torsion
[ 10718 10713 10712 10709 ] final -141.76 input   66.30 | X-H torsion
[ 10763 10752 10751 10750 ] final -177.01 input  -60.55 | X-H torsion
[ 11005 11000 10999 10996 ] final  -58.66 input  -57.11 | X-H torsion

> <Gold.Protein.ActiveResidues>
 VAL166  LYS551  ARG553  GLY616  TRP617  ASP618  TYR619  PRO620  LYS621  CYS622 
 ASP623  PHE694  ASN695  SER759  ASP760  ASP761  ALA762  ILE779  LEU786  VAL792 
 PHE793  MET794  SER795  GLU796  ALA797  LYS798  CYS799  TRP800  GLU811  SER814 

> <Gold.Protein.RotatedAtoms>
  150.7651  134.6438  159.6250 H   0  0  0  0  0  0  0  0  0  0  0  0  # atno 6907 bound_to 6896
  152.3678  134.6776  160.0195 H   0  0  0  0  0  0  0  0  0  0  0  0  # atno 6908 bound_to 6896
  151.7145  133.3277  159.3336 H   0  0  0  0  0  0  0  0  0  0  0  0  # atno 6909 bound_to 6896
  144.7834  140.4759  143.5823 H   0  0  0  0  0  0  0  0  0  0  0  0  # atno 7974 bound_to 7965
  154.4208  140.1760  156.1591 H   0  0  0  0  0  0  0  0  0  0  0  0  # atno 8008 bound_to 7997
  155.9852  140.3374  155.6676 H   0  0  0  0  0  0  0  0  0  0  0  0  # atno 8009 bound_to 7997
  155.6446  140.0683  157.2598 H   0  0  0  0  0  0  0  0  0  0  0  0  # atno 8010 bound_to 7997
  139.5457  144.2242  152.0983 H   0  0  0  0  0  0  0  0  0  0  0  0  # atno 10167 bound_to 10162
  156.3379  130.7621  151.1752 H   0  0  0  0  0  0  0  0  0  0  0  0  # atno 10718 bound_to 10713
  154.5654  135.2823  155.0879 H   0  0  0  0  0  0  0  0  0  0  0  0  # atno 10763 bound_to 10752
  154.2272  135.6380  153.5167 H   0  0  0  0  0  0  0  0  0  0  0  0  # atno 10764 bound_to 10752
  153.0041  135.5528  154.6260 H   0  0  0  0  0  0  0  0  0  0  0  0  # atno 10765 bound_to 10752
  141.1216  133.6613  156.4954 H   0  0  0  0  0  0  0  0  0  0  0  0  # atno 11005 bound_to 11000
  145.5988  139.1502  143.3140 LP  0  0  0  0  0  0  0  0  0  0  0  0  # atno 17320 bound_to 7965
  146.2053  140.6111  142.9084 LP  0  0  0  0  0  0  0  0  0  0  0  0  # atno 17321 bound_to 7965
  140.1728  144.4919  150.6570 LP  0  0  0  0  0  0  0  0  0  0  0  0  # atno 17342 bound_to 10162
  140.6704  143.2284  151.5639 LP  0  0  0  0  0  0  0  0  0  0  0  0  # atno 17343 bound_to 10162
  157.7442  131.0463  150.4885 LP  0  0  0  0  0  0  0  0  0  0  0  0  # atno 17370 bound_to 10713
  156.5061  130.4128  149.6326 LP  0  0  0  0  0  0  0  0  0  0  0  0  # atno 17371 bound_to 10713
  140.4489  134.6947  157.5030 LP  0  0  0  0  0  0  0  0  0  0  0  0  # atno 17394 bound_to 11000
  140.0179  134.6592  155.9283 LP  0  0  0  0  0  0  0  0  0  0  0  0  # atno 17395 bound_to 11000

$$$$
