AV-unprocessed.smi:2260|AV-procd|sdf|9133|dock5
  -GOLD-   2272012343D 1   1.00000     0.00000
 Structure written by MMmdl.
 43 44  0  0  0  0  0  0  0  0  2 V2000
  146.7118  142.4234  154.1041 C   0  0  0  0  0  0  0  0  0  0  0  0
  147.4922  141.1289  153.9521 C   0  0  0  0  0  0  0  0  0  0  0  0
  147.0089  139.9816  153.4631 C   0  0  0  0  0  0  0  0  0  0  0  0
  148.2091  138.7126  153.4033 S   0  0  0  0  0  0  0  0  0  0  0  0
  149.4422  139.8336  154.0840 C   0  0  0  0  0  0  0  0  0  0  0  0
  150.6085  139.5016  154.2897 O   0  0  0  0  0  0  0  0  0  0  0  0
  148.8442  141.0713  154.3136 N   0  0  0  0  0  0  0  0  0  0  0  0
  149.5924  142.1938  154.8863 C   0  0  0  0  0  0  0  0  0  0  0  0
  150.2704  141.7950  156.2059 C   0  0  0  0  0  0  0  0  0  0  0  0
  151.0048  142.9384  156.7857 N   0  3  0  0  0  0  0  0  0  0  0  0
  151.3022  142.8410  158.2353 C   0  0  1  0  0  0  0  0  0  0  0  0
  152.2850  141.6821  158.5264 C   0  0  0  0  0  0  0  0  0  0  0  0
  152.5981  141.5654  160.0242 C   0  0  0  0  0  0  0  0  0  0  0  0
  153.1289  142.8891  160.5857 C   0  0  0  0  0  0  0  0  0  0  0  0
  152.1489  144.0398  160.3018 C   0  0  0  0  0  0  0  0  0  0  0  0
  151.8072  144.2067  158.7982 C   0  0  0  0  0  0  0  0  0  0  0  0
  153.0451  144.7335  158.0322 C   0  0  0  0  0  0  0  0  0  0  0  0
  150.6865  145.2634  158.6886 C   0  0  0  0  0  0  0  0  0  0  0  0
  145.8516  142.4243  153.4340 H   0  0  0  0  0  0  0  0  0  0  0  0
  147.3131  143.2983  153.8595 H   0  0  0  0  0  0  0  0  0  0  0  0
  146.3441  142.5245  155.1253 H   0  0  0  0  0  0  0  0  0  0  0  0
  146.0003  139.8069  153.1180 H   0  0  0  0  0  0  0  0  0  0  0  0
  150.3268  142.5699  154.1739 H   0  0  0  0  0  0  0  0  0  0  0  0
  148.9138  143.0305  155.0621 H   0  0  0  0  0  0  0  0  0  0  0  0
  149.5200  141.4527  156.9199 H   0  0  0  0  0  0  0  0  0  0  0  0
  150.9532  140.9636  156.0339 H   0  0  0  0  0  0  0  0  0  0  0  0
  151.8709  143.0713  156.2836 H   0  0  0  0  0  0  0  0  0  0  0  0
  150.3636  142.6100  158.7429 H   0  0  0  0  0  0  0  0  0  0  0  0
  151.8680  140.7333  158.1902 H   0  0  0  0  0  0  0  0  0  0  0  0
  153.2109  141.8184  157.9670 H   0  0  0  0  0  0  0  0  0  0  0  0
  151.6949  141.2777  160.5640 H   0  0  0  0  0  0  0  0  0  0  0  0
  153.3251  140.7703  160.1926 H   0  0  0  0  0  0  0  0  0  0  0  0
  153.2845  142.7956  161.6610 H   0  0  0  0  0  0  0  0  0  0  0  0
  154.1075  143.1088  160.1583 H   0  0  0  0  0  0  0  0  0  0  0  0
  151.2320  143.8526  160.8632 H   0  0  0  0  0  0  0  0  0  0  0  0
  152.5565  144.9691  160.7017 H   0  0  0  0  0  0  0  0  0  0  0  0
  153.4065  145.6660  158.4670 H   0  0  0  0  0  0  0  0  0  0  0  0
  152.8164  144.9410  156.9865 H   0  0  0  0  0  0  0  0  0  0  0  0
  153.8771  144.0308  158.0465 H   0  0  0  0  0  0  0  0  0  0  0  0
  150.9935  146.2116  159.1315 H   0  0  0  0  0  0  0  0  0  0  0  0
  149.7813  144.9422  159.2052 H   0  0  0  0  0  0  0  0  0  0  0  0
  150.4166  145.4662  157.6518 H   0  0  0  0  0  0  0  0  0  0  0  0
  150.4307  143.7589  156.6525 H   0  0  0  0  0  0  0  0  0  0  0  0
  1  2  1  0  0  0  0
  1 19  1  0  0  0  0
  1 20  1  0  0  0  0
  1 21  1  0  0  0  0
  2  7  1  0  0  0  0
  2  3  2  0  0  0  0
  3  4  1  0  0  0  0
  3 22  1  0  0  0  0
  4  5  1  0  0  0  0
  5  6  2  0  0  0  0
  5  7  1  0  0  0  0
  7  8  1  0  0  0  0
  8  9  1  0  0  0  0
  8 23  1  0  0  0  0
  8 24  1  0  0  0  0
  9 10  1  0  0  0  0
  9 25  1  0  0  0  0
  9 26  1  0  0  0  0
 10 11  1  0  0  0  0
 10 27  1  0  0  0  0
 10 43  1  0  0  0  0
 11 16  1  0  0  0  0
 11 12  1  0  0  0  0
 11 28  1  0  0  0  0
 12 13  1  0  0  0  0
 12 29  1  0  0  0  0
 12 30  1  0  0  0  0
 13 14  1  0  0  0  0
 13 31  1  0  0  0  0
 13 32  1  0  0  0  0
 14 15  1  0  0  0  0
 14 33  1  0  0  0  0
 14 34  1  0  0  0  0
 15 16  1  0  0  0  0
 15 35  1  0  0  0  0
 15 36  1  0  0  0  0
 16 17  1  0  0  0  0
 16 18  1  0  0  0  0
 17 37  1  0  0  0  0
 17 38  1  0  0  0  0
 17 39  1  0  0  0  0
 18 40  1  0  0  0  0
 18 41  1  0  0  0  0
 18 42  1  0  0  0  0
M  CHG  1  10   1
M  END
> <s_m_source_file>
AV-unprocessed.smi

> <i_m_source_file_index>
2260

> <i_lp_mmshare_version>
43012

> <i_f3d_flags>
0

> <s_epik_input>
W0NIM11jMVtjSF1zYyg9TyluMVtDSDJdW0NIMl1bTkhdW0NAQEhdKEMyKFtDSDNdKVtDSDNdKVtDSDJdW0NIMl1bQ0gyXVtDSDJdMg==

> <s_epik_cmdline>
J2VwaWtfcHl0aG9uJywgJy1waCcsICc3LjAnLCAnLXRuJywgJzgnLCAnLW1hJywgJzIwMCcsICctbWV0YWxfYmluZGluZycsICctaW1hZScsICc8aW5maWxlLm1hZT4nLCAnLW9tYWUnLCAnPG91dGZpbGUubWFlPic=

> <r_epik_Ionization_Penalty>
0.0114277

> <r_epik_Ionization_Penalty_Charging>
0.0114277

> <r_epik_Ionization_Penalty_Neutral>
2.57259e-08

> <r_epik_State_Penalty>
0.0087935

> <r_epik_Charging_Adjusted_Penalty>
0.0202212

> <i_epik_Tot_Q>
1

> <i_epik_Tot_abs_Q>
1

> <r_epik_Metal_State_Penalty>
0.0087935

> <b_epik_Metal_Only>
0

> <s_lp_Force_Field>
OPLS_2005

> <r_lp_Energy>
26.3159

> <b_lp_Chiralities_Consistent>
1

> <s_lp_Variant>
AV-unprocessed.smi:2260-2

> <Gold.Version>
5.8.1

> <Gold.Id.Protein>
6NUR|6NUR_protein|mol2

> <Gold.PLP.Fitness>
53.1393

> <Gold.PLP.PLP>
-41.5241

> <Gold.PLP.part.hbond>
-2.0000

> <Gold.PLP.part.metal>
0.0000

> <Gold.PLP.part.buried>
3.4175

> <Gold.PLP.part.nonpolar>
-41.1247

> <Gold.PLP.part.repulsive>
0.1843

> <Gold.PLP.ligand.clash>
0.0000

> <Gold.PLP.ligand.torsion>
0.1756

> <Gold.PLP.Chemscore.Hbond>
2.9840

> <Gold.PLP.Chemscore.CHOScore>
1.0000

> <Gold.PLP.Chemscore.Metal>
0.0000

> <Gold.Chemscore.Hbonds>
donor molecule, donor type, donor heavy atom, donor atom, acceptor molecule, acceptor atom, score
      L1  H    10    43       P1  8028  1.85
      P1  H  7989  7998       L1     6  1.00
      L1  C     3    22       P1 10175  1.00

> <Gold.PLP.Chemscore.Internal.Correction>
0.0143

> <Gold.Rescore>
     Score         DG    S(hbond)    S(metal)    S(lipo)     H(rot)  DE(clash)    DE(int)     intcor
     21.34     -23.44       1.86        0.00     132.74       1.48       1.95       0.14       ----

> <Gold.Chemscore.Fitness>
21.3435

> <Gold.Chemscore.DG>
-23.4355

> <Gold.Chemscore.ZeroCoef>
-5.4800

> <Gold.Chemscore.Hbond>
1.8594

> <Gold.Chemscore.Metal>
0.0000

> <Gold.Chemscore.Lipo>
132.7370

> <Gold.Chemscore.Internal_Hbond>
0.0000

> <Gold.Chemscore.DEClash>
1.9501

> <Gold.Chemscore.DEInternal>
0.1419

> <Gold.Chemscore.Rot>
1.4785

> <Gold.Chemscore.Internal.Correction>
   9.000000E+99

> <Gold.Chemscore.Hbonds>
donor molecule, donor type, donor heavy atom, donor atom, acceptor molecule, acceptor atom, score
      L1  H    10    43       P1  8028  0.84
      P1  H  7989  7998       L1     6  0.45

> <Gold.Chemscore.Hbond.Weighted>
-6.2103

> <Gold.Chemscore.Metal.Weighted>
-0.0000

> <Gold.Chemscore.Lipo.Weighted>
-15.5302

> <Gold.Chemscore.Internal_Hbond.Weighted>
0.0000

> <Gold.Chemscore.DEClash.Weighted>
1.9501

> <Gold.Chemscore.DEInternal.Weighted>
0.1419

> <Gold.Chemscore.Rot.Weighted>
3.7850

> <Gold.Chemscore.Internal.Correction.Weighted>
   9.000000E+99

> <Gold.Protein.RotatedTorsions>
[ 6907 6896 6895 6894 ] final -164.69 input  -60.11 | X-H torsion
[ 7974 7965 7964 7962 ] final -133.20 input  175.53 | X-H torsion
[ 8008 7997 7996 7995 ] final  151.85 input   59.86 | X-H torsion
[ 10167 10162 10161 10158 ] final -177.36 input  -65.29 | X-H torsion
[ 10718 10713 10712 10709 ] final   22.18 input   66.30 | X-H torsion
[ 10763 10752 10751 10750 ] final  -21.09 input  -60.55 | X-H torsion
[ 11005 11000 10999 10996 ] final -119.33 input  -57.11 | X-H torsion

> <Gold.Protein.ActiveResidues>
 VAL166  LYS551  ARG553  GLY616  TRP617  ASP618  TYR619  PRO620  LYS621  CYS622 
 ASP623  PHE694  ASN695  SER759  ASP760  ASP761  ALA762  ILE779  LEU786  VAL792 
 PHE793  MET794  SER795  GLU796  ALA797  LYS798  CYS799  TRP800  GLU811  SER814 

> <Gold.Protein.RotatedAtoms>
  151.4158  133.3713  159.2749 H   0  0  0  0  0  0  0  0  0  0  0  0  # atno 6907 bound_to 6896
  150.9329  134.8745  159.7574 H   0  0  0  0  0  0  0  0  0  0  0  0  # atno 6908 bound_to 6896
  152.5036  134.4104  159.9499 H   0  0  0  0  0  0  0  0  0  0  0  0  # atno 6909 bound_to 6896
  144.9215  140.7020  143.4962 H   0  0  0  0  0  0  0  0  0  0  0  0  # atno 7974 bound_to 7965
  156.2655  140.2036  156.6240 H   0  0  0  0  0  0  0  0  0  0  0  0  # atno 8008 bound_to 7997
  154.6734  140.0547  157.0214 H   0  0  0  0  0  0  0  0  0  0  0  0  # atno 8009 bound_to 7997
  155.1104  140.3215  155.4526 H   0  0  0  0  0  0  0  0  0  0  0  0  # atno 8010 bound_to 7997
  139.5484  144.2174  152.1031 H   0  0  0  0  0  0  0  0  0  0  0  0  # atno 10167 bound_to 10162
  157.1488  130.6665  149.6005 H   0  0  0  0  0  0  0  0  0  0  0  0  # atno 10718 bound_to 10713
  153.6307  135.6989  153.5276 H   0  0  0  0  0  0  0  0  0  0  0  0  # atno 10763 bound_to 10752
  153.2862  135.4171  155.1124 H   0  0  0  0  0  0  0  0  0  0  0  0  # atno 10764 bound_to 10752
  154.8523  135.3614  154.5849 H   0  0  0  0  0  0  0  0  0  0  0  0  # atno 10765 bound_to 10752
  141.0223  134.0105  157.3264 H   0  0  0  0  0  0  0  0  0  0  0  0  # atno 11005 bound_to 11000
  145.3289  139.1766  143.4548 LP  0  0  0  0  0  0  0  0  0  0  0  0  # atno 17320 bound_to 7965
  146.3207  140.3315  142.8641 LP  0  0  0  0  0  0  0  0  0  0  0  0  # atno 17321 bound_to 7965
  140.1665  144.4976  150.6603 LP  0  0  0  0  0  0  0  0  0  0  0  0  # atno 17342 bound_to 10162
  140.6739  143.2297  151.5556 LP  0  0  0  0  0  0  0  0  0  0  0  0  # atno 17343 bound_to 10162
  155.9774  130.4752  150.6593 LP  0  0  0  0  0  0  0  0  0  0  0  0  # atno 17370 bound_to 10713
  157.4239  131.0840  151.1104 LP  0  0  0  0  0  0  0  0  0  0  0  0  # atno 17371 bound_to 10713
  139.9154  135.0196  156.7859 LP  0  0  0  0  0  0  0  0  0  0  0  0  # atno 17394 bound_to 11000
  140.6551  133.9696  155.7775 LP  0  0  0  0  0  0  0  0  0  0  0  0  # atno 17395 bound_to 11000

$$$$
