AV-unprocessed.smi:3318|AV-procd|sdf|12763|dock1
  -GOLD-   2272019103D 1   1.00000     0.00000
 Structure written by MMmdl.
 45 46  0  0  0  0  0  0  0  0  3 V2000
  148.7093  133.3275  153.8973 C   0  0  0  0  0  0  0  0  0  0  0  0
  149.6398  134.3375  154.5774 C   0  0  0  0  0  0  0  0  0  0  0  0
  148.9169  135.6469  154.9389 C   0  0  0  0  0  0  0  0  0  0  0  0
  149.6925  136.8555  154.5576 N   0  3  2  0  0  0  0  0  0  0  0  0
  151.1060  136.8178  155.0188 C   0  0  0  0  0  0  0  0  0  0  0  0
  151.8965  138.0321  154.4983 C   0  0  0  0  0  0  0  0  0  0  0  0
  151.2408  139.3709  154.8938 C   0  0  2  0  0  0  0  0  0  0  0  0
  151.3714  139.6687  156.3405 N   0  3  0  0  0  0  0  0  0  0  0  0
  151.1828  141.0861  156.7154 C   0  0  0  0  0  0  0  0  0  0  0  0
  150.8040  141.2154  158.1973 C   0  0  0  0  0  0  0  0  0  0  0  0
  151.1400  142.5846  158.7571 C   0  0  0  0  0  0  0  0  0  0  0  0
  152.0585  142.7256  159.8190 C   0  0  0  0  0  0  0  0  0  0  0  0
  152.3371  144.0211  160.2965 C   0  0  0  0  0  0  0  0  0  0  0  0
  151.6915  145.1188  159.6953 C   0  0  0  0  0  0  0  0  0  0  0  0
  150.7920  144.8720  158.6390 C   0  0  0  0  0  0  0  0  0  0  0  0
  150.5183  143.6337  158.1736 N   0  0  0  0  0  0  0  0  0  0  0  0
  149.7615  139.3549  154.4696 C   0  0  0  0  0  0  0  0  0  0  0  0
  149.0170  138.1086  154.9841 C   0  0  0  0  0  0  0  0  0  0  0  0
  149.2439  132.4083  153.6552 H   0  0  0  0  0  0  0  0  0  0  0  0
  148.3019  133.7277  152.9684 H   0  0  0  0  0  0  0  0  0  0  0  0
  147.8728  133.0640  154.5450 H   0  0  0  0  0  0  0  0  0  0  0  0
  150.0611  133.8714  155.4675 H   0  0  0  0  0  0  0  0  0  0  0  0
  150.4783  134.5524  153.9138 H   0  0  0  0  0  0  0  0  0  0  0  0
  147.9624  135.6574  154.4105 H   0  0  0  0  0  0  0  0  0  0  0  0
  148.6794  135.6777  156.0035 H   0  0  0  0  0  0  0  0  0  0  0  0
  151.1355  136.7860  156.1090 H   0  0  0  0  0  0  0  0  0  0  0  0
  151.5949  135.9104  154.6667 H   0  0  0  0  0  0  0  0  0  0  0  0
  152.9299  137.9813  154.8397 H   0  0  0  0  0  0  0  0  0  0  0  0
  151.9457  137.9735  153.4100 H   0  0  0  0  0  0  0  0  0  0  0  0
  151.7327  140.1800  154.3514 H   0  0  0  0  0  0  0  0  0  0  0  0
  150.6595  139.1406  156.8255 H   0  0  0  0  0  0  0  0  0  0  0  0
  152.0968  141.6480  156.5236 H   0  0  0  0  0  0  0  0  0  0  0  0
  150.3990  141.5204  156.0929 H   0  0  0  0  0  0  0  0  0  0  0  0
  149.7361  141.0342  158.3293 H   0  0  0  0  0  0  0  0  0  0  0  0
  151.3196  140.4529  158.7828 H   0  0  0  0  0  0  0  0  0  0  0  0
  152.5393  141.8648  160.2604 H   0  0  0  0  0  0  0  0  0  0  0  0
  153.0333  144.1699  161.1089 H   0  0  0  0  0  0  0  0  0  0  0  0
  151.8808  146.1264  160.0351 H   0  0  0  0  0  0  0  0  0  0  0  0
  150.2796  145.6902  158.1548 H   0  0  0  0  0  0  0  0  0  0  0  0
  149.2588  140.2603  154.8120 H   0  0  0  0  0  0  0  0  0  0  0  0
  149.7040  139.3736  153.3802 H   0  0  0  0  0  0  0  0  0  0  0  0
  147.9959  138.1240  154.6007 H   0  0  0  0  0  0  0  0  0  0  0  0
  148.9442  138.1313  156.0724 H   0  0  0  0  0  0  0  0  0  0  0  0
  149.7097  136.8734  153.5474 H   0  0  0  0  0  0  0  0  0  0  0  0
  152.2757  139.3579  156.6652 H   0  0  0  0  0  0  0  0  0  0  0  0
  1  2  1  0  0  0  0
  1 19  1  0  0  0  0
  1 20  1  0  0  0  0
  1 21  1  0  0  0  0
  2  3  1  0  0  0  0
  2 22  1  0  0  0  0
  2 23  1  0  0  0  0
  3  4  1  0  0  0  0
  3 24  1  0  0  0  0
  3 25  1  0  0  0  0
  4 18  1  0  0  0  0
  4  5  1  0  0  0  0
  4 44  1  0  0  0  0
  5  6  1  0  0  0  0
  5 26  1  0  0  0  0
  5 27  1  0  0  0  0
  6  7  1  0  0  0  0
  6 28  1  0  0  0  0
  6 29  1  0  0  0  0
  7  8  1  0  0  0  0
  7 17  1  0  0  0  0
  7 30  1  0  0  0  0
  8  9  1  0  0  0  0
  8 31  1  0  0  0  0
  8 45  1  0  0  0  0
  9 10  1  0  0  0  0
  9 32  1  0  0  0  0
  9 33  1  0  0  0  0
 10 11  1  0  0  0  0
 10 34  1  0  0  0  0
 10 35  1  0  0  0  0
 11 16  1  0  0  0  0
 11 12  2  0  0  0  0
 12 13  1  0  0  0  0
 12 36  1  0  0  0  0
 13 14  2  0  0  0  0
 13 37  1  0  0  0  0
 14 15  1  0  0  0  0
 14 38  1  0  0  0  0
 15 16  2  0  0  0  0
 15 39  1  0  0  0  0
 17 18  1  0  0  0  0
 17 40  1  0  0  0  0
 17 41  1  0  0  0  0
 18 42  1  0  0  0  0
 18 43  1  0  0  0  0
M  CHG  1   4   1
M  CHG  1   8   1
M  END
> <s_m_source_file>
AV-unprocessed.smi

> <i_m_source_file_index>
3318

> <i_lp_mmshare_version>
43012

> <i_f3d_flags>
0

> <s_epik_input>
W0NIM11bQ0gyXVtDSDJdTjFbQ0gyXVtDSDJdW0NIXShbQ0gyXVtDSDJdMSlbTkhdW0NIMl1bQ0gyXWMyW2NIXVtjSF1bY0hdW2NIXW4y

> <s_epik_cmdline>
J2VwaWtfcHl0aG9uJywgJy1waCcsICc3LjAnLCAnLXRuJywgJzgnLCAnLW1hJywgJzIwMCcsICctbWV0YWxfYmluZGluZycsICctaW1hZScsICc8aW5maWxlLm1hZT4nLCAnLW9tYWUnLCAnPG91dGZpbGUubWFlPic=

> <r_epik_Ionization_Penalty>
0.0638186

> <r_epik_Ionization_Penalty_Charging>
0.0628538

> <r_epik_Ionization_Penalty_Neutral>
0.000964829

> <r_epik_State_Penalty>
0.0518488

> <r_epik_Charging_Adjusted_Penalty>
0.114703

> <i_epik_Tot_Q>
2

> <i_epik_Tot_abs_Q>
2

> <r_epik_Metal_State_Penalty>
0.0535981

> <b_epik_Metal_Only>
0

> <s_lp_Force_Field>
OPLS_2005

> <r_lp_Energy>
29.7366

> <b_lp_Chiralities_Consistent>
1

> <s_lp_Variant>
AV-unprocessed.smi:3318-2

> <Gold.Version>
5.8.1

> <Gold.Id.Protein>
6NUR|6NUR_protein|mol2

> <Gold.PLP.Fitness>
46.7735

> <Gold.PLP.PLP>
-39.0570

> <Gold.PLP.part.hbond>
-1.0000

> <Gold.PLP.part.metal>
0.0000

> <Gold.PLP.part.buried>
-3.1755

> <Gold.PLP.part.nonpolar>
-35.3904

> <Gold.PLP.part.repulsive>
0.3147

> <Gold.PLP.ligand.clash>
0.0000

> <Gold.PLP.ligand.torsion>
0.7442

> <Gold.PLP.Chemscore.Hbond>
2.0000

> <Gold.PLP.Chemscore.CHOScore>
1.0000

> <Gold.PLP.Chemscore.Metal>
0.0000

> <Gold.Chemscore.Hbonds>
donor molecule, donor type, donor heavy atom, donor atom, acceptor molecule, acceptor atom, score
      L1  H     4    44       P1  7948  1.98
      L1  C    15    39       P1  8029  1.00

> <Gold.PLP.Chemscore.Internal.Correction>
0.2048

> <Gold.Rescore>
     Score         DG    S(hbond)    S(metal)    S(lipo)     H(rot)  DE(clash)    DE(int)     intcor
     17.37     -18.33       0.97        0.00     116.22       1.55       0.26       0.71       ----

> <Gold.Chemscore.Fitness>
17.3704

> <Gold.Chemscore.DG>
-18.3342

> <Gold.Chemscore.ZeroCoef>
-5.4800

> <Gold.Chemscore.Hbond>
0.9680

> <Gold.Chemscore.Metal>
0.0000

> <Gold.Chemscore.Lipo>
116.2179

> <Gold.Chemscore.Internal_Hbond>
0.0000

> <Gold.Chemscore.DEClash>
0.2574

> <Gold.Chemscore.DEInternal>
0.7065

> <Gold.Chemscore.Rot>
1.5532

> <Gold.Chemscore.Internal.Correction>
   9.000000E+99

> <Gold.Chemscore.Hbonds>
donor molecule, donor type, donor heavy atom, donor atom, acceptor molecule, acceptor atom, score
      L1  H     4    44       P1  7948  0.56

> <Gold.Chemscore.Hbond.Weighted>
-3.2330

> <Gold.Chemscore.Metal.Weighted>
-0.0000

> <Gold.Chemscore.Lipo.Weighted>
-13.5975

> <Gold.Chemscore.Internal_Hbond.Weighted>
0.0000

> <Gold.Chemscore.DEClash.Weighted>
0.2574

> <Gold.Chemscore.DEInternal.Weighted>
0.7065

> <Gold.Chemscore.Rot.Weighted>
3.9762

> <Gold.Chemscore.Internal.Correction.Weighted>
   9.000000E+99

> <Gold.Protein.RotatedTorsions>
[ 6907 6896 6895 6894 ] final   -8.98 input  -60.11 | X-H torsion
[ 7974 7965 7964 7962 ] final -137.14 input  175.53 | X-H torsion
[ 8008 7997 7996 7995 ] final -103.58 input   59.86 | X-H torsion
[ 10167 10162 10161 10158 ] final   37.49 input  -65.29 | X-H torsion
[ 10718 10713 10712 10709 ] final  -87.37 input   66.30 | X-H torsion
[ 10763 10752 10751 10750 ] final  -90.13 input  -60.55 | X-H torsion
[ 11005 11000 10999 10996 ] final  -65.60 input  -57.11 | X-H torsion

> <Gold.Protein.ActiveResidues>
 VAL166  LYS551  ARG553  GLY616  TRP617  ASP618  TYR619  PRO620  LYS621  CYS622 
 ASP623  PHE694  ASN695  SER759  ASP760  ASP761  ALA762  ILE779  LEU786  VAL792 
 PHE793  MET794  SER795  GLU796  ALA797  LYS798  CYS799  TRP800  GLU811  SER814 

> <Gold.Protein.RotatedAtoms>
  151.4250  135.1002  159.9624 H   0  0  0  0  0  0  0  0  0  0  0  0  # atno 6907 bound_to 6896
  152.4975  133.8671  159.7290 H   0  0  0  0  0  0  0  0  0  0  0  0  # atno 6908 bound_to 6896
  150.9196  133.6839  159.2863 H   0  0  0  0  0  0  0  0  0  0  0  0  # atno 6909 bound_to 6896
  144.8867  140.6585  143.5171 H   0  0  0  0  0  0  0  0  0  0  0  0  # atno 7974 bound_to 7965
  154.8730  140.0422  157.1736 H   0  0  0  0  0  0  0  0  0  0  0  0  # atno 8008 bound_to 7997
  154.8719  140.2959  155.5455 H   0  0  0  0  0  0  0  0  0  0  0  0  # atno 8009 bound_to 7997
  156.2999  140.2427  156.3709 H   0  0  0  0  0  0  0  0  0  0  0  0  # atno 8010 bound_to 7997
  140.4028  144.1700  150.6134 H   0  0  0  0  0  0  0  0  0  0  0  0  # atno 10167 bound_to 10162
  155.9986  130.4797  150.4857 H   0  0  0  0  0  0  0  0  0  0  0  0  # atno 10718 bound_to 10713
  154.6625  135.5316  153.8036 H   0  0  0  0  0  0  0  0  0  0  0  0  # atno 10763 bound_to 10752
  153.0451  135.6509  154.0849 H   0  0  0  0  0  0  0  0  0  0  0  0  # atno 10764 bound_to 10752
  154.0757  135.2951  155.3280 H   0  0  0  0  0  0  0  0  0  0  0  0  # atno 10765 bound_to 10752
  141.1459  133.6684  156.6011 H   0  0  0  0  0  0  0  0  0  0  0  0  # atno 11005 bound_to 11000
  145.3856  139.1627  143.4257 LP  0  0  0  0  0  0  0  0  0  0  0  0  # atno 17320 bound_to 7965
  146.3029  140.3941  142.8697 LP  0  0  0  0  0  0  0  0  0  0  0  0  # atno 17321 bound_to 7965
  140.4722  143.2409  151.9073 LP  0  0  0  0  0  0  0  0  0  0  0  0  # atno 17342 bound_to 10162
  139.4784  144.5358  151.8601 LP  0  0  0  0  0  0  0  0  0  0  0  0  # atno 17343 bound_to 10162
  157.2857  131.0616  151.2167 LP  0  0  0  0  0  0  0  0  0  0  0  0  # atno 17370 bound_to 10713
  157.3198  130.6931  149.6262 LP  0  0  0  0  0  0  0  0  0  0  0  0  # atno 17371 bound_to 10713
  140.3688  134.7624  157.4584 LP  0  0  0  0  0  0  0  0  0  0  0  0  # atno 17394 bound_to 11000
  140.0727  134.5840  155.8624 LP  0  0  0  0  0  0  0  0  0  0  0  0  # atno 17395 bound_to 11000

$$$$
