AV-unprocessed.smi:45|AV-procd|sdf|407|dock2
  -GOLD-   2262016263D 1   1.00000     0.00000
 Structure written by MMmdl.
 60 63  0  0  0  0  0  0  0  0  1 V2000
  151.4920  143.5845  157.1176 C   0  0  0  0  0  0  0  0  0  0  0  0
  151.6049  142.2162  157.4805 O   0  0  0  0  0  0  0  0  0  0  0  0
  150.9082  141.2853  156.7380 C   0  0  0  0  0  0  0  0  0  0  0  0
  150.1927  141.5989  155.5549 C   0  0  0  0  0  0  0  0  0  0  0  0
  149.4944  140.5989  154.8532 C   0  0  0  0  0  0  0  0  0  0  0  0
  149.5030  139.2696  155.3182 C   0  0  0  0  0  0  0  0  0  0  0  0
  148.7047  138.2024  154.5887 C   0  0  0  0  0  0  0  0  0  0  0  0
  147.6958  137.5565  155.4195 N   0  0  0  0  0  0  0  0  0  0  0  0
  147.4500  136.2036  155.1354 C   0  0  0  0  0  0  0  0  0  0  0  0
  146.8145  135.9271  153.9726 N   0  0  0  0  0  0  0  0  0  0  0  0
  146.6136  134.6453  153.6498 C   0  0  0  0  0  0  0  0  0  0  0  0
  145.9778  134.3968  152.4341 N   0  0  0  0  0  0  0  0  0  0  0  0
  145.7612  135.4551  151.4541 C   0  0  0  0  0  0  0  0  0  0  0  0
  144.4920  135.0718  150.6957 C   0  0  0  0  0  0  0  0  0  0  0  0
  144.4946  133.5509  150.7743 C   0  0  0  0  0  0  0  0  0  0  0  0
  145.0923  133.2639  152.1597 C   0  0  1  0  0  0  0  0  0  0  0  0
  145.8110  131.8995  152.2207 C   0  0  0  0  0  0  0  0  0  0  0  0
  146.4660  131.6414  150.9970 O   0  0  0  0  0  0  0  0  0  0  0  0
  146.9727  133.5948  154.3942 N   0  0  0  0  0  0  0  0  0  0  0  0
  147.6067  133.8467  155.5582 C   0  0  0  0  0  0  0  0  0  0  0  0
  147.8971  135.1608  155.9906 C   0  0  0  0  0  0  0  0  0  0  0  0
  148.6381  135.4069  157.2773 C   0  0  0  0  0  0  0  0  0  0  0  0
  149.2820  134.5133  157.8277 O   0  0  0  0  0  0  0  0  0  0  0  0
  148.4904  136.6382  157.7916 N   0  0  0  0  0  0  0  0  0  0  0  0
  149.0232  137.0789  159.0748 C   0  0  0  0  0  0  0  0  0  0  0  0
  148.2363  136.5180  160.2459 C   0  0  0  0  0  0  0  0  0  0  0  0
  147.7387  137.4054  161.1138 N   0  0  0  0  0  0  0  0  0  0  0  0
  147.0485  136.9115  162.1644 C   0  0  0  0  0  0  0  0  0  0  0  0
  146.8507  135.5268  162.3370 C   0  0  0  0  0  0  0  0  0  0  0  0
  147.4149  134.6891  161.3539 C   0  0  0  0  0  0  0  0  0  0  0  0
  148.1090  135.1882  160.3083 N   0  0  0  0  0  0  0  0  0  0  0  0
  150.2181  138.9469  156.4878 C   0  0  0  0  0  0  0  0  0  0  0  0
  150.9130  139.9477  157.1939 C   0  0  0  0  0  0  0  0  0  0  0  0
  151.7625  139.5218  158.6362 Cl  0  0  0  0  0  0  0  0  0  0  0  0
  144.2929  133.2902  152.9018 H   0  0  0  0  0  0  0  0  0  0  0  0
  152.0867  144.1880  157.8031 H   0  0  0  0  0  0  0  0  0  0  0  0
  150.4595  143.9301  157.1856 H   0  0  0  0  0  0  0  0  0  0  0  0
  151.8684  143.7642  156.1096 H   0  0  0  0  0  0  0  0  0  0  0  0
  150.1593  142.6035  155.1659 H   0  0  0  0  0  0  0  0  0  0  0  0
  148.9407  140.8581  153.9625 H   0  0  0  0  0  0  0  0  0  0  0  0
  148.2023  138.6660  153.7396 H   0  0  0  0  0  0  0  0  0  0  0  0
  149.3758  137.4488  154.1744 H   0  0  0  0  0  0  0  0  0  0  0  0
  147.8017  137.7520  156.4053 H   0  0  0  0  0  0  0  0  0  0  0  0
  145.6559  136.4349  151.9218 H   0  0  0  0  0  0  0  0  0  0  0  0
  146.6188  135.4899  150.7813 H   0  0  0  0  0  0  0  0  0  0  0  0
  143.6171  135.4653  151.2148 H   0  0  0  0  0  0  0  0  0  0  0  0
  144.4780  135.4487  149.6729 H   0  0  0  0  0  0  0  0  0  0  0  0
  143.5028  133.1170  150.6441 H   0  0  0  0  0  0  0  0  0  0  0  0
  145.1400  133.1522  149.9900 H   0  0  0  0  0  0  0  0  0  0  0  0
  146.5400  131.8784  153.0314 H   0  0  0  0  0  0  0  0  0  0  0  0
  145.1132  131.0832  152.4016 H   0  0  0  0  0  0  0  0  0  0  0  0
  147.3691  131.4305  151.1786 H   0  0  0  0  0  0  0  0  0  0  0  0
  147.8941  132.9832  156.1401 H   0  0  0  0  0  0  0  0  0  0  0  0
  147.9257  137.3041  157.2847 H   0  0  0  0  0  0  0  0  0  0  0  0
  150.0774  136.8122  159.1718 H   0  0  0  0  0  0  0  0  0  0  0  0
  148.9859  138.1686  159.1027 H   0  0  0  0  0  0  0  0  0  0  0  0
  146.6459  137.6252  162.8679 H   0  0  0  0  0  0  0  0  0  0  0  0
  146.2952  135.1301  163.1735 H   0  0  0  0  0  0  0  0  0  0  0  0
  147.3085  133.6157  161.4063 H   0  0  0  0  0  0  0  0  0  0  0  0
  150.2192  137.9318  156.8577 H   0  0  0  0  0  0  0  0  0  0  0  0
  1  2  1  0  0  0  0
  1 36  1  0  0  0  0
  1 37  1  0  0  0  0
  1 38  1  0  0  0  0
  2  3  1  0  0  0  0
  3 33  1  0  0  0  0
  3  4  2  0  0  0  0
  4  5  1  0  0  0  0
  4 39  1  0  0  0  0
  5  6  2  0  0  0  0
  5 40  1  0  0  0  0
  6  7  1  0  0  0  0
  6 32  1  0  0  0  0
  7  8  1  0  0  0  0
  7 41  1  0  0  0  0
  7 42  1  0  0  0  0
  8  9  1  0  0  0  0
  8 43  1  0  0  0  0
  9 21  1  0  0  0  0
  9 10  2  0  0  0  0
 10 11  1  0  0  0  0
 11 12  1  0  0  0  0
 11 19  2  0  0  0  0
 12 16  1  0  0  0  0
 12 13  1  0  0  0  0
 13 14  1  0  0  0  0
 13 44  1  0  0  0  0
 13 45  1  0  0  0  0
 14 15  1  0  0  0  0
 14 46  1  0  0  0  0
 14 47  1  0  0  0  0
 15 16  1  0  0  0  0
 15 48  1  0  0  0  0
 15 49  1  0  0  0  0
 16 35  1  0  0  0  0
 16 17  1  0  0  0  0
 17 18  1  0  0  0  0
 17 50  1  0  0  0  0
 17 51  1  0  0  0  0
 18 52  1  0  0  0  0
 19 20  1  0  0  0  0
 20 21  2  0  0  0  0
 20 53  1  0  0  0  0
 21 22  1  0  0  0  0
 22 23  2  0  0  0  0
 22 24  1  0  0  0  0
 24 25  1  0  0  0  0
 24 54  1  0  0  0  0
 25 26  1  0  0  0  0
 25 55  1  0  0  0  0
 25 56  1  0  0  0  0
 26 31  1  0  0  0  0
 26 27  2  0  0  0  0
 27 28  1  0  0  0  0
 28 29  2  0  0  0  0
 28 57  1  0  0  0  0
 29 30  1  0  0  0  0
 29 58  1  0  0  0  0
 30 31  2  0  0  0  0
 30 59  1  0  0  0  0
 32 33  2  0  0  0  0
 32 60  1  0  0  0  0
 33 34  1  0  0  0  0
M  END
> <s_m_source_file>
AV-unprocessed.smi

> <i_m_source_file_index>
45

> <i_lp_mmshare_version>
43012

> <i_f3d_flags>
0

> <s_epik_input>
W0NIM11PYzFbY0hdW2NIXWMoW2NIXWMxQ2wpW0NIMl1bTkhdYzJuYyhOM1tDSDJdW0NIMl1bQ0gyXVtDQEhdM1tDSDJdW09IXSluW2NIXWMyQyg9TylbTkhdW0NIMl1jNG5bY0hdW2NIXVtjSF1uNA==

> <s_epik_cmdline>
J2VwaWtfcHl0aG9uJywgJy1waCcsICc3LjAnLCAnLXRuJywgJzgnLCAnLW1hJywgJzIwMCcsICctbWV0YWxfYmluZGluZycsICctaW1hZScsICc8aW5maWxlLm1hZT4nLCAnLW9tYWUnLCAnPG91dGZpbGUubWFlPic=

> <r_lp_tautomer_probability>
1

> <r_epik_Ionization_Penalty>
0.0522664

> <r_epik_Ionization_Penalty_Charging>
0

> <r_epik_Ionization_Penalty_Neutral>
0.0522664

> <r_epik_State_Penalty>
0.0369431

> <r_epik_Charging_Adjusted_Penalty>
0.0369431

> <i_epik_Tot_Q>
0

> <i_epik_Tot_abs_Q>
0

> <r_epik_Metal_State_Penalty>
0.0404664

> <b_epik_Metal_Only>
0

> <s_epik_Chemistry_Notes>
This compound contains an electron-poor aromatic ring that is susceptible to covalent hydrolysis at low pH, typically resulting in measured values for nitrogen ring protonation that are around two units higher than predicted values.

> <s_lp_Force_Field>
OPLS_2005

> <r_lp_Energy>
30.7934

> <b_lp_Chiralities_Consistent>
1

> <s_lp_Variant>
AV-unprocessed.smi:45-1

> <Gold.Version>
5.8.1

> <Gold.Id.Protein>
6NUR|6NUR_protein|mol2

> <Gold.PLP.Fitness>
56.0087

> <Gold.PLP.PLP>
-46.7207

> <Gold.PLP.part.hbond>
-4.0000

> <Gold.PLP.part.metal>
0.0000

> <Gold.PLP.part.buried>
-7.8073

> <Gold.PLP.part.nonpolar>
-36.4772

> <Gold.PLP.part.repulsive>
0.7413

> <Gold.PLP.ligand.clash>
0.0000

> <Gold.PLP.ligand.torsion>
1.1318

> <Gold.PLP.Chemscore.Hbond>
3.6553

> <Gold.PLP.Chemscore.CHOScore>
0.0000

> <Gold.PLP.Chemscore.Metal>
0.0000

> <Gold.Chemscore.Hbonds>
donor molecule, donor type, donor heavy atom, donor atom, acceptor molecule, acceptor atom, score
      L1  H    18    52       P1 10747  0.82
      P1  H  6896  6909       L1    23  0.78
      P1  H  6931  6943       L1    27  0.82
      P1  H  6934  6947       L1    27  0.80

> <Gold.PLP.Chemscore.Internal.Correction>
0.5857

> <Gold.Rescore>
     Score         DG    S(hbond)    S(metal)    S(lipo)     H(rot)  DE(clash)    DE(int)     intcor
     16.73     -20.28       3.00        0.00     109.91       3.16       0.00       3.55       ----

> <Gold.Chemscore.Fitness>
16.7303

> <Gold.Chemscore.DG>
-20.2807

> <Gold.Chemscore.ZeroCoef>
-5.4800

> <Gold.Chemscore.Hbond>
3.0011

> <Gold.Chemscore.Metal>
0.0000

> <Gold.Chemscore.Lipo>
109.9071

> <Gold.Chemscore.Internal_Hbond>
0.0000

> <Gold.Chemscore.DEClash>
0.0048

> <Gold.Chemscore.DEInternal>
3.5456

> <Gold.Chemscore.Rot>
3.1571

> <Gold.Chemscore.Internal.Correction>
   9.000000E+99

> <Gold.Chemscore.Hbonds>
donor molecule, donor type, donor heavy atom, donor atom, acceptor molecule, acceptor atom, score
      L1  H    18    52       P1 10747  0.79
      P1  H  6896  6909       L1    23  0.76
      P1  H  6931  6943       L1    27  0.21
      P1  H  6934  6947       L1    27  0.40

> <Gold.Chemscore.Hbond.Weighted>
-10.0237

> <Gold.Chemscore.Metal.Weighted>
-0.0000

> <Gold.Chemscore.Lipo.Weighted>
-12.8591

> <Gold.Chemscore.Internal_Hbond.Weighted>
0.0000

> <Gold.Chemscore.DEClash.Weighted>
0.0048

> <Gold.Chemscore.DEInternal.Weighted>
3.5456

> <Gold.Chemscore.Rot.Weighted>
8.0822

> <Gold.Chemscore.Internal.Correction.Weighted>
   9.000000E+99

> <Gold.Protein.RotatedTorsions>
[ 6907 6896 6895 6894 ] final   11.45 input  -60.11 | X-H torsion
[ 7974 7965 7964 7962 ] final  -21.80 input  175.53 | X-H torsion
[ 8008 7997 7996 7995 ] final -102.82 input   59.86 | X-H torsion
[ 10167 10162 10161 10158 ] final  -75.53 input  -65.29 | X-H torsion
[ 10718 10713 10712 10709 ] final  -11.63 input   66.30 | X-H torsion
[ 10763 10752 10751 10750 ] final   82.32 input  -60.55 | X-H torsion
[ 11005 11000 10999 10996 ] final -177.21 input  -57.11 | X-H torsion

> <Gold.Protein.ActiveResidues>
 VAL166  LYS551  ARG553  GLY616  TRP617  ASP618  TYR619  PRO620  LYS621  CYS622 
 ASP623  PHE694  ASN695  SER759  ASP760  ASP761  ALA762  ILE779  LEU786  VAL792 
 PHE793  MET794  SER795  GLU796  ALA797  LYS798  CYS799  TRP800  GLU811  SER814 

> <Gold.Protein.RotatedAtoms>
  151.7545  135.0825  160.0335 H   0  0  0  0  0  0  0  0  0  0  0  0  # atno 6907 bound_to 6896
  152.3395  133.6046  159.5874 H   0  0  0  0  0  0  0  0  0  0  0  0  # atno 6908 bound_to 6896
  150.7470  133.9661  159.3572 H   0  0  0  0  0  0  0  0  0  0  0  0  # atno 6909 bound_to 6896
  146.1712  140.4391  142.8531 H   0  0  0  0  0  0  0  0  0  0  0  0  # atno 7974 bound_to 7965
  154.8621  140.0426  157.1671 H   0  0  0  0  0  0  0  0  0  0  0  0  # atno 8008 bound_to 7997
  154.8829  140.2975  155.5394 H   0  0  0  0  0  0  0  0  0  0  0  0  # atno 8009 bound_to 7997
  156.2998  140.2408  156.3834 H   0  0  0  0  0  0  0  0  0  0  0  0  # atno 8010 bound_to 7997
  140.4935  143.2375  151.7869 H   0  0  0  0  0  0  0  0  0  0  0  0  # atno 10167 bound_to 10162
  156.6562  130.4969  149.6045 H   0  0  0  0  0  0  0  0  0  0  0  0  # atno 10718 bound_to 10713
  153.1192  135.4733  154.9167 H   0  0  0  0  0  0  0  0  0  0  0  0  # atno 10763 bound_to 10752
  154.7559  135.3118  154.8473 H   0  0  0  0  0  0  0  0  0  0  0  0  # atno 10764 bound_to 10752
  153.9042  135.6872  153.4807 H   0  0  0  0  0  0  0  0  0  0  0  0  # atno 10765 bound_to 10752
  140.4435  134.6409  157.4768 H   0  0  0  0  0  0  0  0  0  0  0  0  # atno 11005 bound_to 11000
  144.8166  140.6478  143.6380 LP  0  0  0  0  0  0  0  0  0  0  0  0  # atno 17320 bound_to 7965
  145.4335  139.1546  143.4009 LP  0  0  0  0  0  0  0  0  0  0  0  0  # atno 17321 bound_to 7965
  139.4856  144.4618  151.9531 LP  0  0  0  0  0  0  0  0  0  0  0  0  # atno 17342 bound_to 10162
  140.3705  144.2861  150.5920 LP  0  0  0  0  0  0  0  0  0  0  0  0  # atno 17343 bound_to 10162
  156.2046  130.6641  151.1204 LP  0  0  0  0  0  0  0  0  0  0  0  0  # atno 17370 bound_to 10713
  157.7125  131.0727  150.6450 LP  0  0  0  0  0  0  0  0  0  0  0  0  # atno 17371 bound_to 10713
  140.0054  134.6772  155.9464 LP  0  0  0  0  0  0  0  0  0  0  0  0  # atno 17394 bound_to 11000
  141.1695  133.6537  156.4600 LP  0  0  0  0  0  0  0  0  0  0  0  0  # atno 17395 bound_to 11000

$$$$
