AV-unprocessed.smi:2007|AV-procd|sdf|8137|dock1
  -GOLD-   2272010373D 1   1.00000     0.00000
 Structure written by MMmdl.
 35 36  0  0  0  0  0  0  0  0  2 V2000
  148.5769  137.5348  156.1840 C   0  0  0  0  0  0  0  0  0  0  0  0
  149.0631  138.5495  157.2272 C   0  0  2  0  0  0  0  0  0  0  0  0
  150.5938  138.4591  157.4158 C   0  0  0  0  0  0  0  0  0  0  0  0
  151.2767  139.7223  157.6991 N   0  0  0  0  0  0  0  0  0  0  0  0
  150.6462  140.8340  156.9975 C   0  0  0  0  0  0  0  0  0  0  0  0
  151.3667  142.1655  157.2715 C   0  0  0  0  0  0  0  0  0  0  0  0
  151.4025  142.4094  158.6740 O   0  0  0  0  0  0  0  0  0  0  0  0
  152.0473  141.3641  159.3952 C   0  0  0  0  0  0  0  0  0  0  0  0
  151.3284  140.0310  159.1263 C   0  0  0  0  0  0  0  0  0  0  0  0
  148.3783  138.2885  158.4932 N   0  0  0  0  0  0  0  0  0  0  0  0
  148.4597  137.1734  159.2345 C   0  0  0  0  0  0  0  0  0  0  0  0
  149.1843  136.2420  158.8761 O   0  0  0  0  0  0  0  0  0  0  0  0
  147.6895  137.2041  160.3460 N   0  5  0  0  0  0  0  0  0  0  0  0
  147.2143  136.0602  160.8644 C   0  0  0  0  0  0  0  0  0  0  0  0
  147.0991  134.9306  160.1569 N   0  0  0  0  0  0  0  0  0  0  0  0
  146.5874  133.8627  160.8961 C   0  0  0  0  0  0  0  0  0  0  0  0
  146.3155  134.1841  162.1995 C   0  0  0  0  0  0  0  0  0  0  0  0
  146.6956  135.8483  162.5393 S   0  0  0  0  0  0  0  0  0  0  0  0
  149.0478  137.7110  155.2168 H   0  0  0  0  0  0  0  0  0  0  0  0
  147.4980  137.6054  156.0419 H   0  0  0  0  0  0  0  0  0  0  0  0
  148.8069  136.5122  156.4852 H   0  0  0  0  0  0  0  0  0  0  0  0
  148.7931  139.5354  156.8485 H   0  0  0  0  0  0  0  0  0  0  0  0
  150.7845  137.7634  158.2344 H   0  0  0  0  0  0  0  0  0  0  0  0
  151.0399  138.0017  156.5314 H   0  0  0  0  0  0  0  0  0  0  0  0
  150.6450  140.6414  155.9240 H   0  0  0  0  0  0  0  0  0  0  0  0
  149.6016  140.9187  157.3011 H   0  0  0  0  0  0  0  0  0  0  0  0
  152.3824  142.1441  156.8730 H   0  0  0  0  0  0  0  0  0  0  0  0
  150.8461  142.9871  156.7796 H   0  0  0  0  0  0  0  0  0  0  0  0
  153.0964  141.3017  159.1009 H   0  0  0  0  0  0  0  0  0  0  0  0
  152.0264  141.5986  160.4594 H   0  0  0  0  0  0  0  0  0  0  0  0
  150.3169  140.0771  159.5323 H   0  0  0  0  0  0  0  0  0  0  0  0
  151.8467  139.2429  159.6701 H   0  0  0  0  0  0  0  0  0  0  0  0
  147.7696  139.0177  158.8343 H   0  0  0  0  0  0  0  0  0  0  0  0
  146.4509  132.9065  160.4134 H   0  0  0  0  0  0  0  0  0  0  0  0
  145.9185  133.5484  162.9764 H   0  0  0  0  0  0  0  0  0  0  0  0
  1  2  1  0  0  0  0
  1 19  1  0  0  0  0
  1 20  1  0  0  0  0
  1 21  1  0  0  0  0
  2  3  1  0  0  0  0
  2 10  1  0  0  0  0
  2 22  1  0  0  0  0
  3  4  1  0  0  0  0
  3 23  1  0  0  0  0
  3 24  1  0  0  0  0
  4  9  1  0  0  0  0
  4  5  1  0  0  0  0
  5  6  1  0  0  0  0
  5 25  1  0  0  0  0
  5 26  1  0  0  0  0
  6  7  1  0  0  0  0
  6 27  1  0  0  0  0
  6 28  1  0  0  0  0
  7  8  1  0  0  0  0
  8  9  1  0  0  0  0
  8 29  1  0  0  0  0
  8 30  1  0  0  0  0
  9 31  1  0  0  0  0
  9 32  1  0  0  0  0
 10 11  1  0  0  0  0
 10 33  1  0  0  0  0
 11 12  2  0  0  0  0
 11 13  1  0  0  0  0
 13 14  1  0  0  0  0
 14 18  1  0  0  0  0
 14 15  2  0  0  0  0
 15 16  1  0  0  0  0
 16 17  2  0  0  0  0
 16 34  1  0  0  0  0
 17 18  1  0  0  0  0
 17 35  1  0  0  0  0
M  CHG  1  13  -1
M  END
> <s_m_source_file>
AV-unprocessed.smi

> <i_m_source_file_index>
2007

> <i_lp_mmshare_version>
43012

> <i_f3d_flags>
0

> <s_epik_input>
W0NIMl0xW0NIMl1PW0NIMl1bQ0gyXU4xW0NIMl1bQ0BASF0oW0NIM10pW05IXUMoPU8pW05IXWMybltjSF1bY0hdczI=

> <s_epik_cmdline>
J2VwaWtfcHl0aG9uJywgJy1waCcsICc3LjAnLCAnLXRuJywgJzgnLCAnLW1hJywgJzIwMCcsICctbWV0YWxfYmluZGluZycsICctaW1hZScsICc8aW5maWxlLm1hZT4nLCAnLW9tYWUnLCAnPG91dGZpbGUubWFlPic=

> <r_lp_tautomer_probability>
0.999

> <r_epik_Ionization_Penalty>
7.09127

> <r_epik_Ionization_Penalty_Charging>
5.74083

> <r_epik_Ionization_Penalty_Neutral>
1.35044

> <r_epik_State_Penalty>
5.95014

> <r_epik_Charging_Adjusted_Penalty>
11.691

> <i_epik_Tot_Q>
-1

> <i_epik_Tot_abs_Q>
1

> <r_epik_Metal_State_Penalty>
1.93831

> <b_epik_Metal_Only>
1

> <s_lp_Force_Field>
OPLS_2005

> <r_lp_Energy>
21.0216

> <b_lp_Chiralities_Consistent>
1

> <s_lp_Variant>
AV-unprocessed.smi:2007-5

> <Gold.Version>
5.8.1

> <Gold.Id.Protein>
6NUR|6NUR_protein|mol2

> <Gold.PLP.Fitness>
38.5919

> <Gold.PLP.PLP>
-28.6375

> <Gold.PLP.part.hbond>
-3.0000

> <Gold.PLP.part.metal>
0.0000

> <Gold.PLP.part.buried>
-5.0631

> <Gold.PLP.part.nonpolar>
-21.8943

> <Gold.PLP.part.repulsive>
0.2560

> <Gold.PLP.ligand.clash>
0.0000

> <Gold.PLP.ligand.torsion>
1.0369

> <Gold.PLP.Chemscore.Hbond>
3.8991

> <Gold.PLP.Chemscore.CHOScore>
0.0000

> <Gold.PLP.Chemscore.Metal>
0.0000

> <Gold.Chemscore.Hbonds>
donor molecule, donor type, donor heavy atom, donor atom, acceptor molecule, acceptor atom, score
      P1  H  6896  6907       L1    12  0.34
      P1  H  6931  6943       L1    13  0.46
      P1  H  6934  6947       L1    13  1.82

> <Gold.PLP.Chemscore.Internal.Correction>
0.3308

> <Gold.Rescore>
     Score         DG    S(hbond)    S(metal)    S(lipo)     H(rot)  DE(clash)    DE(int)     intcor
     11.84     -15.29       2.16        0.00      55.97       1.55       0.02       3.42       ----

> <Gold.Chemscore.Fitness>
11.8407

> <Gold.Chemscore.DG>
-15.2891

> <Gold.Chemscore.ZeroCoef>
-5.4800

> <Gold.Chemscore.Hbond>
2.1649

> <Gold.Chemscore.Metal>
0.0000

> <Gold.Chemscore.Lipo>
55.9737

> <Gold.Chemscore.Internal_Hbond>
0.0000

> <Gold.Chemscore.DEClash>
0.0234

> <Gold.Chemscore.DEInternal>
3.4249

> <Gold.Chemscore.Rot>
1.5510

> <Gold.Chemscore.Internal.Correction>
   9.000000E+99

> <Gold.Chemscore.Hbonds>
donor molecule, donor type, donor heavy atom, donor atom, acceptor molecule, acceptor atom, score
      P1  H  6896  6907       L1    12  0.35
      P1  H  6931  6943       L1    13  0.07
      P1  H  6934  6947       L1    13  0.77

> <Gold.Chemscore.Hbond.Weighted>
-7.2307

> <Gold.Chemscore.Metal.Weighted>
-0.0000

> <Gold.Chemscore.Lipo.Weighted>
-6.5489

> <Gold.Chemscore.Internal_Hbond.Weighted>
0.0000

> <Gold.Chemscore.DEClash.Weighted>
0.0234

> <Gold.Chemscore.DEInternal.Weighted>
3.4249

> <Gold.Chemscore.Rot.Weighted>
3.9706

> <Gold.Chemscore.Internal.Correction.Weighted>
   9.000000E+99

> <Gold.Protein.RotatedTorsions>
[ 6907 6896 6895 6894 ] final  -57.77 input  -60.11 | X-H torsion
[ 7974 7965 7964 7962 ] final   -2.93 input  175.53 | X-H torsion
[ 8008 7997 7996 7995 ] final   98.23 input   59.86 | X-H torsion
[ 10167 10162 10161 10158 ] final  -28.27 input  -65.29 | X-H torsion
[ 10718 10713 10712 10709 ] final  -33.65 input   66.30 | X-H torsion
[ 10763 10752 10751 10750 ] final  115.29 input  -60.55 | X-H torsion
[ 11005 11000 10999 10996 ] final  159.50 input  -57.11 | X-H torsion

> <Gold.Protein.ActiveResidues>
 VAL166  LYS551  ARG553  GLY616  TRP617  ASP618  TYR619  PRO620  LYS621  CYS622 
 ASP623  PHE694  ASN695  SER759  ASP760  ASP761  ALA762  ILE779  LEU786  VAL792 
 PHE793  MET794  SER795  GLU796  ALA797  LYS798  CYS799  TRP800  GLU811  SER814 

> <Gold.Protein.RotatedAtoms>
  150.8059  134.7184  159.6643 H   0  0  0  0  0  0  0  0  0  0  0  0  # atno 6907 bound_to 6896
  152.4179  134.6006  160.0008 H   0  0  0  0  0  0  0  0  0  0  0  0  # atno 6908 bound_to 6896
  151.6229  133.3300  159.3128 H   0  0  0  0  0  0  0  0  0  0  0  0  # atno 6909 bound_to 6896
  146.2397  140.1644  142.8332 H   0  0  0  0  0  0  0  0  0  0  0  0  # atno 7974 bound_to 7965
  156.0983  140.3247  155.7907 H   0  0  0  0  0  0  0  0  0  0  0  0  # atno 8008 bound_to 7997
  155.4880  140.0559  157.2975 H   0  0  0  0  0  0  0  0  0  0  0  0  # atno 8009 bound_to 7997
  154.4680  140.1998  156.0082 H   0  0  0  0  0  0  0  0  0  0  0  0  # atno 8010 bound_to 7997
  140.7271  143.4024  151.1242 H   0  0  0  0  0  0  0  0  0  0  0  0  # atno 10167 bound_to 10162
  156.3601  130.4322  149.7631 H   0  0  0  0  0  0  0  0  0  0  0  0  # atno 10718 bound_to 10713
  153.5200  135.3600  155.2627 H   0  0  0  0  0  0  0  0  0  0  0  0  # atno 10763 bound_to 10752
  154.8736  135.4043  154.3270 H   0  0  0  0  0  0  0  0  0  0  0  0  # atno 10764 bound_to 10752
  153.3939  135.7072  153.6542 H   0  0  0  0  0  0  0  0  0  0  0  0  # atno 10765 bound_to 10752
  140.1968  134.8367  157.2974 H   0  0  0  0  0  0  0  0  0  0  0  0  # atno 11005 bound_to 11000
  145.0062  140.8675  143.5251 LP  0  0  0  0  0  0  0  0  0  0  0  0  # atno 17320 bound_to 7965
  145.1671  139.2425  143.5361 LP  0  0  0  0  0  0  0  0  0  0  0  0  # atno 17321 bound_to 7965
  139.7646  143.8585  152.3108 LP  0  0  0  0  0  0  0  0  0  0  0  0  # atno 17342 bound_to 10162
  139.8482  144.7177  150.9246 LP  0  0  0  0  0  0  0  0  0  0  0  0  # atno 17343 bound_to 10162
  156.4798  130.8035  151.3050 LP  0  0  0  0  0  0  0  0  0  0  0  0  # atno 17370 bound_to 10713
  157.7472  131.0009  150.2944 LP  0  0  0  0  0  0  0  0  0  0  0  0  # atno 17371 bound_to 10713
  140.2098  134.4152  155.7619 LP  0  0  0  0  0  0  0  0  0  0  0  0  # atno 17394 bound_to 11000
  141.2227  133.7112  156.8319 LP  0  0  0  0  0  0  0  0  0  0  0  0  # atno 17395 bound_to 11000

$$$$
