AV-unprocessed.smi:904|AV-procd|sdf|4098|dock1
  -GOLD-   22720 1583D 1   1.00000     0.00000
 Structure written by MMmdl.
 42 43  0  0  0  0  0  0  0  0  1 V2000
  152.3861  145.5270  159.9800 C   0  0  0  0  0  0  0  0  0  0  0  0
  152.7105  144.0654  160.1050 C   0  0  0  0  0  0  0  0  0  0  0  0
  153.3755  143.6409  161.1665 N   0  0  0  0  0  0  0  0  0  0  0  0
  153.4957  142.3101  160.9884 N   0  0  0  0  0  0  0  0  0  0  0  0
  154.1865  141.5191  161.9883 C   0  0  0  0  0  0  0  0  0  0  0  0
  152.8996  141.8918  159.8147 C   0  0  0  0  0  0  0  0  0  0  0  0
  152.8868  140.4577  159.3934 C   0  0  0  0  0  0  0  0  0  0  0  0
  152.3814  143.0052  159.2089 C   0  0  0  0  0  0  0  0  0  0  0  0
  151.6308  143.1002  157.9042 C   0  0  0  0  0  0  0  0  0  0  0  0
  150.5434  142.0275  157.8569 C   0  0  0  0  0  0  0  0  0  0  0  0
  149.6111  142.0589  158.6601 O   0  0  0  0  0  0  0  0  0  0  0  0
  150.6752  141.0875  156.9081 N   0  0  0  0  0  0  0  0  0  0  0  0
  149.7431  139.9922  156.6644 C   0  0  2  0  0  0  0  0  0  0  0  0
  150.4543  138.6316  156.8054 C   0  0  0  0  0  0  0  0  0  0  0  0
  149.5063  137.4631  156.4831 C   0  0  0  0  0  0  0  0  0  0  0  0
  148.8476  137.6086  155.0983 C   0  0  2  0  0  0  0  0  0  0  0  0
  149.8102  137.4138  154.0809 O   0  0  0  0  0  0  0  0  0  0  0  0
  148.1748  138.9843  154.9321 C   0  0  0  0  0  0  0  0  0  0  0  0
  149.1307  140.1445  155.2605 C   0  0  0  0  0  0  0  0  0  0  0  0
  151.3717  145.7300  160.3238 H   0  0  0  0  0  0  0  0  0  0  0  0
  152.4594  145.8601  158.9449 H   0  0  0  0  0  0  0  0  0  0  0  0
  153.0664  146.1419  160.5703 H   0  0  0  0  0  0  0  0  0  0  0  0
  154.9058  140.8585  161.5035 H   0  0  0  0  0  0  0  0  0  0  0  0
  153.4645  140.9172  162.5404 H   0  0  0  0  0  0  0  0  0  0  0  0
  154.7204  142.1639  162.6879 H   0  0  0  0  0  0  0  0  0  0  0  0
  152.1923  140.2943  158.5695 H   0  0  0  0  0  0  0  0  0  0  0  0
  152.5802  139.8121  160.2165 H   0  0  0  0  0  0  0  0  0  0  0  0
  153.8777  140.1430  159.0658 H   0  0  0  0  0  0  0  0  0  0  0  0
  151.1730  144.0815  157.7754 H   0  0  0  0  0  0  0  0  0  0  0  0
  152.2970  142.9693  157.0508 H   0  0  0  0  0  0  0  0  0  0  0  0
  151.4755  141.1464  156.2953 H   0  0  0  0  0  0  0  0  0  0  0  0
  148.9331  140.0457  157.3946 H   0  0  0  0  0  0  0  0  0  0  0  0
  151.3173  138.5951  156.1390 H   0  0  0  0  0  0  0  0  0  0  0  0
  150.8434  138.5135  157.8172 H   0  0  0  0  0  0  0  0  0  0  0  0
  150.0421  136.5157  156.5506 H   0  0  0  0  0  0  0  0  0  0  0  0
  148.7256  137.4242  157.2440 H   0  0  0  0  0  0  0  0  0  0  0  0
  148.0959  136.8280  154.9770 H   0  0  0  0  0  0  0  0  0  0  0  0
  149.3641  137.3764  153.2483 H   0  0  0  0  0  0  0  0  0  0  0  0
  147.7841  139.0949  153.9200 H   0  0  0  0  0  0  0  0  0  0  0  0
  147.3123  139.0399  155.5973 H   0  0  0  0  0  0  0  0  0  0  0  0
  148.5941  141.0912  155.1881 H   0  0  0  0  0  0  0  0  0  0  0  0
  149.9244  140.1845  154.5129 H   0  0  0  0  0  0  0  0  0  0  0  0
  1  2  1  0  0  0  0
  1 20  1  0  0  0  0
  1 21  1  0  0  0  0
  1 22  1  0  0  0  0
  2  8  1  0  0  0  0
  2  3  2  0  0  0  0
  3  4  1  0  0  0  0
  4  5  1  0  0  0  0
  4  6  1  0  0  0  0
  5 23  1  0  0  0  0
  5 24  1  0  0  0  0
  5 25  1  0  0  0  0
  6  7  1  0  0  0  0
  6  8  2  0  0  0  0
  7 26  1  0  0  0  0
  7 27  1  0  0  0  0
  7 28  1  0  0  0  0
  8  9  1  0  0  0  0
  9 10  1  0  0  0  0
  9 29  1  0  0  0  0
  9 30  1  0  0  0  0
 10 11  2  0  0  0  0
 10 12  1  0  0  0  0
 12 13  1  0  0  0  0
 12 31  1  0  0  0  0
 13 19  1  0  0  0  0
 13 14  1  0  0  0  0
 13 32  1  0  0  0  0
 14 15  1  0  0  0  0
 14 33  1  0  0  0  0
 14 34  1  0  0  0  0
 15 16  1  0  0  0  0
 15 35  1  0  0  0  0
 15 36  1  0  0  0  0
 16 17  1  0  0  0  0
 16 18  1  0  0  0  0
 16 37  1  0  0  0  0
 17 38  1  0  0  0  0
 18 19  1  0  0  0  0
 18 39  1  0  0  0  0
 18 40  1  0  0  0  0
 19 41  1  0  0  0  0
 19 42  1  0  0  0  0
M  END
> <s_m_source_file>
AV-unprocessed.smi

> <i_m_source_file_index>
904

> <i_lp_mmshare_version>
43012

> <i_f3d_flags>
0

> <s_epik_input>
W0NIM11jMW5uKFtDSDNdKWMoW0NIM10pYzFbQ0gyXUMoPU8pW05IXVtDQEBIXTJbQ0gyXVtDSDJdW0NAQEhdKFtPSF0pW0NIMl1bQ0gyXTI=

> <s_epik_cmdline>
J2VwaWtfcHl0aG9uJywgJy1waCcsICc3LjAnLCAnLXRuJywgJzgnLCAnLW1hJywgJzIwMCcsICctbWV0YWxfYmluZGluZycsICctaW1hZScsICc8aW5maWxlLm1hZT4nLCAnLW9tYWUnLCAnPG91dGZpbGUubWFlPic=

> <r_lp_tautomer_probability>
1

> <r_epik_Ionization_Penalty>
0.00340889

> <r_epik_Ionization_Penalty_Charging>
0

> <r_epik_Ionization_Penalty_Neutral>
0.00340889

> <r_epik_State_Penalty>
0.00241397

> <r_epik_Charging_Adjusted_Penalty>
0.00241397

> <i_epik_Tot_Q>
0

> <i_epik_Tot_abs_Q>
0

> <r_epik_Metal_State_Penalty>
-0

> <b_epik_Metal_Only>
0

> <s_lp_Force_Field>
OPLS_2005

> <r_lp_Energy>
4.71478

> <b_lp_Chiralities_Consistent>
1

> <s_lp_Variant>
AV-unprocessed.smi:904-2

> <Gold.Version>
5.8.1

> <Gold.Id.Protein>
6NUR|6NUR_protein|mol2

> <Gold.PLP.Fitness>
48.8402

> <Gold.PLP.PLP>
-43.1765

> <Gold.PLP.part.hbond>
-2.0000

> <Gold.PLP.part.metal>
0.0000

> <Gold.PLP.part.buried>
-4.7038

> <Gold.PLP.part.nonpolar>
-37.8270

> <Gold.PLP.part.repulsive>
0.2905

> <Gold.PLP.ligand.clash>
0.0000

> <Gold.PLP.ligand.torsion>
0.1585

> <Gold.PLP.Chemscore.Hbond>
1.9920

> <Gold.PLP.Chemscore.CHOScore>
0.0000

> <Gold.PLP.Chemscore.Metal>
0.0000

> <Gold.Chemscore.Hbonds>
donor molecule, donor type, donor heavy atom, donor atom, acceptor molecule, acceptor atom, score
      L1  H    17    38       P1  7948  0.85

> <Gold.PLP.Chemscore.Internal.Correction>
0.0048

> <Gold.Rescore>
     Score         DG    S(hbond)    S(metal)    S(lipo)     H(rot)  DE(clash)    DE(int)     intcor
     16.01     -17.80       1.48        0.00     103.43       1.84       0.20       1.60       ----

> <Gold.Chemscore.Fitness>
16.0122

> <Gold.Chemscore.DG>
-17.8046

> <Gold.Chemscore.ZeroCoef>
-5.4800

> <Gold.Chemscore.Hbond>
1.4774

> <Gold.Chemscore.Metal>
0.0000

> <Gold.Chemscore.Lipo>
103.4349

> <Gold.Chemscore.Internal_Hbond>
0.0000

> <Gold.Chemscore.DEClash>
0.1973

> <Gold.Chemscore.DEInternal>
1.5951

> <Gold.Chemscore.Rot>
1.8406

> <Gold.Chemscore.Internal.Correction>
   9.000000E+99

> <Gold.Chemscore.Hbonds>
donor molecule, donor type, donor heavy atom, donor atom, acceptor molecule, acceptor atom, score
      L1  H    17    38       P1  7948  0.80

> <Gold.Chemscore.Hbond.Weighted>
-4.9346

> <Gold.Chemscore.Metal.Weighted>
-0.0000

> <Gold.Chemscore.Lipo.Weighted>
-12.1019

> <Gold.Chemscore.Internal_Hbond.Weighted>
0.0000

> <Gold.Chemscore.DEClash.Weighted>
0.1973

> <Gold.Chemscore.DEInternal.Weighted>
1.5951

> <Gold.Chemscore.Rot.Weighted>
4.7118

> <Gold.Chemscore.Internal.Correction.Weighted>
   9.000000E+99

> <Gold.Protein.RotatedTorsions>
[ 6907 6896 6895 6894 ] final  134.91 input  -60.11 | X-H torsion
[ 7974 7965 7964 7962 ] final   17.58 input  175.53 | X-H torsion
[ 8008 7997 7996 7995 ] final  -75.27 input   59.86 | X-H torsion
[ 10167 10162 10161 10158 ] final  -84.64 input  -65.29 | X-H torsion
[ 10718 10713 10712 10709 ] final   96.57 input   66.30 | X-H torsion
[ 10763 10752 10751 10750 ] final  -83.44 input  -60.55 | X-H torsion
[ 11005 11000 10999 10996 ] final  -74.97 input  -57.11 | X-H torsion

> <Gold.Protein.ActiveResidues>
 VAL166  LYS551  ARG553  GLY616  TRP617  ASP618  TYR619  PRO620  LYS621  CYS622 
 ASP623  PHE694  ASN695  SER759  ASP760  ASP761  ALA762  ILE779  LEU786  VAL792 
 PHE793  MET794  SER795  GLU796  ALA797  LYS798  CYS799  TRP800  GLU811  SER814 

> <Gold.Protein.RotatedAtoms>
  152.3062  133.5706  159.5650 H   0  0  0  0  0  0  0  0  0  0  0  0  # atno 6907 bound_to 6896
  150.7301  134.0219  159.3713 H   0  0  0  0  0  0  0  0  0  0  0  0  # atno 6908 bound_to 6896
  151.8115  135.0680  160.0464 H   0  0  0  0  0  0  0  0  0  0  0  0  # atno 6909 bound_to 6896
  146.2214  139.8582  142.8610 H   0  0  0  0  0  0  0  0  0  0  0  0  # atno 7974 bound_to 7965
  154.5402  140.0747  156.8497 H   0  0  0  0  0  0  0  0  0  0  0  0  # atno 8008 bound_to 7997
  155.3196  140.3395  155.4223 H   0  0  0  0  0  0  0  0  0  0  0  0  # atno 8009 bound_to 7997
  156.1867  140.1671  156.8157 H   0  0  0  0  0  0  0  0  0  0  0  0  # atno 8010 bound_to 7997
  140.4113  143.2621  151.9014 H   0  0  0  0  0  0  0  0  0  0  0  0  # atno 10167 bound_to 10162
  157.6925  131.0582  150.4511 H   0  0  0  0  0  0  0  0  0  0  0  0  # atno 10718 bound_to 10713
  154.5878  135.5556  153.7248 H   0  0  0  0  0  0  0  0  0  0  0  0  # atno 10763 bound_to 10752
  153.0105  135.6336  154.1892 H   0  0  0  0  0  0  0  0  0  0  0  0  # atno 10764 bound_to 10752
  154.1833  135.2886  155.3025 H   0  0  0  0  0  0  0  0  0  0  0  0  # atno 10765 bound_to 10752
  141.1641  133.6930  156.7445 H   0  0  0  0  0  0  0  0  0  0  0  0  # atno 11005 bound_to 11000
  145.2732  141.0115  143.3760 LP  0  0  0  0  0  0  0  0  0  0  0  0  # atno 17320 bound_to 7965
  144.9207  139.4415  143.6542 LP  0  0  0  0  0  0  0  0  0  0  0  0  # atno 17321 bound_to 7965
  139.4782  144.5534  151.8351 LP  0  0  0  0  0  0  0  0  0  0  0  0  # atno 17342 bound_to 10162
  140.4635  144.1689  150.5909 LP  0  0  0  0  0  0  0  0  0  0  0  0  # atno 17343 bound_to 10162
  156.4862  130.4085  149.6433 LP  0  0  0  0  0  0  0  0  0  0  0  0  # atno 17370 bound_to 10713
  156.3460  130.7407  151.2359 LP  0  0  0  0  0  0  0  0  0  0  0  0  # atno 17371 bound_to 10713
  140.2650  134.8437  157.3794 LP  0  0  0  0  0  0  0  0  0  0  0  0  # atno 17394 bound_to 11000
  140.1575  134.4771  155.7917 LP  0  0  0  0  0  0  0  0  0  0  0  0  # atno 17395 bound_to 11000

$$$$
