AV-unprocessed.smi:3003|AV-procd|sdf|11438|dock6
  -GOLD-   2272016363D 1   1.00000     0.00000
 Structure written by MMmdl.
 41 42  0  0  0  0  0  0  0  0  1 V2000
  149.3320  132.3890  154.3613 C   0  0  0  0  0  0  0  0  0  0  0  0
  150.5352  133.4430  155.2159 S   0  0  0  0  0  0  0  0  0  0  0  0
  149.6735  135.0432  155.1834 C   0  0  1  0  0  0  0  0  0  0  0  0
  148.7896  135.1971  156.4311 C   0  0  0  0  0  0  0  0  0  0  0  0
  150.6506  136.2182  155.0589 C   0  0  0  0  0  0  0  0  0  0  0  0
  151.6015  136.3205  155.8348 O   0  0  0  0  0  0  0  0  0  0  0  0
  150.4062  137.1004  154.0772 N   0  0  0  0  0  0  0  0  0  0  0  0
  151.1986  138.2980  153.8173 C   0  0  0  0  0  0  0  0  0  0  0  0
  151.3487  139.2129  155.0241 C   0  0  0  0  0  0  0  0  0  0  0  0
  150.4075  140.2229  155.3129 C   0  0  0  0  0  0  0  0  0  0  0  0
  150.6005  141.0328  156.4480 C   0  0  0  0  0  0  0  0  0  0  0  0
  151.7333  140.8150  157.2680 C   0  0  0  0  0  0  0  0  0  0  0  0
  151.9409  141.6087  158.4173 N   0  0  0  0  0  0  0  0  0  0  0  0
  153.0273  141.1774  159.2940 C   0  0  0  0  0  0  0  0  0  0  0  0
  152.9607  141.9229  160.6382 C   0  0  0  0  0  0  0  0  0  0  0  0
  152.9584  143.3285  160.4117 O   0  0  0  0  0  0  0  0  0  0  0  0
  151.8276  143.7388  159.6506 C   0  0  0  0  0  0  0  0  0  0  0  0
  151.8582  143.0608  158.2707 C   0  0  0  0  0  0  0  0  0  0  0  0
  152.6449  139.8543  156.9759 N   0  0  0  0  0  0  0  0  0  0  0  0
  152.4543  139.0793  155.8876 C   0  0  0  0  0  0  0  0  0  0  0  0
  149.6939  131.3614  154.3282 H   0  0  0  0  0  0  0  0  0  0  0  0
  149.1769  132.7303  153.3380 H   0  0  0  0  0  0  0  0  0  0  0  0
  148.3753  132.4011  154.8837 H   0  0  0  0  0  0  0  0  0  0  0  0
  149.0162  135.0381  154.3123 H   0  0  0  0  0  0  0  0  0  0  0  0
  148.2720  136.1572  156.4346 H   0  0  0  0  0  0  0  0  0  0  0  0
  149.3744  135.1296  157.3494 H   0  0  0  0  0  0  0  0  0  0  0  0
  148.0292  134.4166  156.4666 H   0  0  0  0  0  0  0  0  0  0  0  0
  149.6088  136.9393  153.4789 H   0  0  0  0  0  0  0  0  0  0  0  0
  152.1821  138.0123  153.4401 H   0  0  0  0  0  0  0  0  0  0  0  0
  150.7137  138.8610  153.0196 H   0  0  0  0  0  0  0  0  0  0  0  0
  149.5487  140.3804  154.6773 H   0  0  0  0  0  0  0  0  0  0  0  0
  149.8886  141.8146  156.6672 H   0  0  0  0  0  0  0  0  0  0  0  0
  152.9936  140.1056  159.4829 H   0  0  0  0  0  0  0  0  0  0  0  0
  153.9787  141.3827  158.8013 H   0  0  0  0  0  0  0  0  0  0  0  0
  152.0710  141.6326  161.1994 H   0  0  0  0  0  0  0  0  0  0  0  0
  153.8227  141.6642  161.2533 H   0  0  0  0  0  0  0  0  0  0  0  0
  150.9078  143.4941  160.1843 H   0  0  0  0  0  0  0  0  0  0  0  0
  151.8505  144.8226  159.5365 H   0  0  0  0  0  0  0  0  0  0  0  0
  152.7169  143.4164  157.6997 H   0  0  0  0  0  0  0  0  0  0  0  0
  150.9603  143.3335  157.7152 H   0  0  0  0  0  0  0  0  0  0  0  0
  153.2065  138.3260  155.7056 H   0  0  0  0  0  0  0  0  0  0  0  0
  1  2  1  0  0  0  0
  1 21  1  0  0  0  0
  1 22  1  0  0  0  0
  1 23  1  0  0  0  0
  2  3  1  0  0  0  0
  3  4  1  0  0  0  0
  3  5  1  0  0  0  0
  3 24  1  0  0  0  0
  4 25  1  0  0  0  0
  4 26  1  0  0  0  0
  4 27  1  0  0  0  0
  5  6  2  0  0  0  0
  5  7  1  0  0  0  0
  7  8  1  0  0  0  0
  7 28  1  0  0  0  0
  8  9  1  0  0  0  0
  8 29  1  0  0  0  0
  8 30  1  0  0  0  0
  9 20  1  0  0  0  0
  9 10  2  0  0  0  0
 10 11  1  0  0  0  0
 10 31  1  0  0  0  0
 11 12  2  0  0  0  0
 11 32  1  0  0  0  0
 12 13  1  0  0  0  0
 12 19  1  0  0  0  0
 13 18  1  0  0  0  0
 13 14  1  0  0  0  0
 14 15  1  0  0  0  0
 14 33  1  0  0  0  0
 14 34  1  0  0  0  0
 15 16  1  0  0  0  0
 15 35  1  0  0  0  0
 15 36  1  0  0  0  0
 16 17  1  0  0  0  0
 17 18  1  0  0  0  0
 17 37  1  0  0  0  0
 17 38  1  0  0  0  0
 18 39  1  0  0  0  0
 18 40  1  0  0  0  0
 19 20  2  0  0  0  0
 20 41  1  0  0  0  0
M  END
> <s_m_source_file>
AV-unprocessed.smi

> <i_m_source_file_index>
3003

> <i_lp_mmshare_version>
43012

> <i_f3d_flags>
0

> <s_epik_input>
W0NIM11TW0NASF0oW0NIM10pQyg9TylbTkhdW0NIMl1jMVtjSF1bY0hdYyhuW2NIXTEpTjJbQ0gyXVtDSDJdT1tDSDJdW0NIMl0y

> <s_epik_cmdline>
J2VwaWtfcHl0aG9uJywgJy1waCcsICc3LjAnLCAnLXRuJywgJzgnLCAnLW1hJywgJzIwMCcsICctbWV0YWxfYmluZGluZycsICctaW1hZScsICc8aW5maWxlLm1hZT4nLCAnLW9tYWUnLCAnPG91dGZpbGUubWFlPic=

> <r_lp_tautomer_probability>
1

> <r_epik_Ionization_Penalty>
0.00417642

> <r_epik_Ionization_Penalty_Charging>
0

> <r_epik_Ionization_Penalty_Neutral>
0.00417642

> <r_epik_State_Penalty>
0.00299889

> <r_epik_Charging_Adjusted_Penalty>
0.00299889

> <i_epik_Tot_Q>
0

> <i_epik_Tot_abs_Q>
0

> <r_epik_Metal_State_Penalty>
-0

> <b_epik_Metal_Only>
0

> <s_lp_Force_Field>
OPLS_2005

> <r_lp_Energy>
16.8537

> <b_lp_Chiralities_Consistent>
1

> <s_lp_Variant>
AV-unprocessed.smi:3003-2

> <Gold.Version>
5.8.1

> <Gold.Id.Protein>
6NUR|6NUR_protein|mol2

> <Gold.PLP.Fitness>
45.7139

> <Gold.PLP.PLP>
-38.9926

> <Gold.PLP.part.hbond>
-4.0000

> <Gold.PLP.part.metal>
0.0000

> <Gold.PLP.part.buried>
-2.6174

> <Gold.PLP.part.nonpolar>
-30.9488

> <Gold.PLP.part.repulsive>
0.0982

> <Gold.PLP.ligand.clash>
0.0000

> <Gold.PLP.ligand.torsion>
1.1413

> <Gold.PLP.Chemscore.Hbond>
2.8780

> <Gold.PLP.Chemscore.CHOScore>
0.0000

> <Gold.PLP.Chemscore.Metal>
0.0000

> <Gold.Chemscore.Hbonds>
donor molecule, donor type, donor heavy atom, donor atom, acceptor molecule, acceptor atom, score
      L1  H     7    28       P1  7948  0.91
      P1  H  7997  8008       L1    19  0.90
      P1  H 10752 10765       L1     6  1.00

> <Gold.PLP.Chemscore.Internal.Correction>
0.3700

> <Gold.Rescore>
     Score         DG    S(hbond)    S(metal)    S(lipo)     H(rot)  DE(clash)    DE(int)     intcor
     15.75     -18.66       1.93        0.00      94.03       1.67       0.54       2.37       ----

> <Gold.Chemscore.Fitness>
15.7485

> <Gold.Chemscore.DG>
-18.6609

> <Gold.Chemscore.ZeroCoef>
-5.4800

> <Gold.Chemscore.Hbond>
1.9311

> <Gold.Chemscore.Metal>
0.0000

> <Gold.Chemscore.Lipo>
94.0323

> <Gold.Chemscore.Internal_Hbond>
0.0000

> <Gold.Chemscore.DEClash>
0.5432

> <Gold.Chemscore.DEInternal>
2.3693

> <Gold.Chemscore.Rot>
1.6682

> <Gold.Chemscore.Internal.Correction>
   9.000000E+99

> <Gold.Chemscore.Hbonds>
donor molecule, donor type, donor heavy atom, donor atom, acceptor molecule, acceptor atom, score
      L1  H     7    28       P1  7948  0.67
      P1  H  7997  8008       L1    19  0.17
      P1  H 10752 10765       L1     6  0.65

> <Gold.Chemscore.Hbond.Weighted>
-6.4499

> <Gold.Chemscore.Metal.Weighted>
-0.0000

> <Gold.Chemscore.Lipo.Weighted>
-11.0018

> <Gold.Chemscore.Internal_Hbond.Weighted>
0.0000

> <Gold.Chemscore.DEClash.Weighted>
0.5432

> <Gold.Chemscore.DEInternal.Weighted>
2.3693

> <Gold.Chemscore.Rot.Weighted>
4.2707

> <Gold.Chemscore.Internal.Correction.Weighted>
   9.000000E+99

> <Gold.Protein.RotatedTorsions>
[ 6907 6896 6895 6894 ] final  127.62 input  -60.11 | X-H torsion
[ 7974 7965 7964 7962 ] final  171.34 input  175.53 | X-H torsion
[ 8008 7997 7996 7995 ] final  -71.96 input   59.86 | X-H torsion
[ 10167 10162 10161 10158 ] final -170.27 input  -65.29 | X-H torsion
[ 10718 10713 10712 10709 ] final  159.53 input   66.30 | X-H torsion
[ 10763 10752 10751 10750 ] final -151.33 input  -60.55 | X-H torsion
[ 11005 11000 10999 10996 ] final -157.20 input  -57.11 | X-H torsion

> <Gold.Protein.ActiveResidues>
 VAL166  LYS551  ARG553  GLY616  TRP617  ASP618  TYR619  PRO620  LYS621  CYS622 
 ASP623  PHE694  ASN695  SER759  ASP760  ASP761  ALA762  ILE779  LEU786  VAL792 
 PHE793  MET794  SER795  GLU796  ALA797  LYS798  CYS799  TRP800  GLU811  SER814 

> <Gold.Protein.RotatedAtoms>
  152.3796  133.6527  159.6150 H   0  0  0  0  0  0  0  0  0  0  0  0  # atno 6907 bound_to 6896
  150.7730  133.9136  159.3386 H   0  0  0  0  0  0  0  0  0  0  0  0  # atno 6908 bound_to 6896
  151.6945  135.0942  160.0291 H   0  0  0  0  0  0  0  0  0  0  0  0  # atno 6909 bound_to 6896
  144.7297  139.9335  143.6425 H   0  0  0  0  0  0  0  0  0  0  0  0  # atno 7974 bound_to 7965
  154.5128  140.0806  156.8023 H   0  0  0  0  0  0  0  0  0  0  0  0  # atno 8008 bound_to 7997
  155.3746  140.3424  155.4226 H   0  0  0  0  0  0  0  0  0  0  0  0  # atno 8009 bound_to 7997
  156.1593  140.1583  156.8626 H   0  0  0  0  0  0  0  0  0  0  0  0  # atno 8010 bound_to 7997
  139.5872  144.1292  152.1590 H   0  0  0  0  0  0  0  0  0  0  0  0  # atno 10167 bound_to 10162
  157.1629  131.0591  151.2223 H   0  0  0  0  0  0  0  0  0  0  0  0  # atno 10718 bound_to 10713
  154.8064  135.3262  154.7419 H   0  0  0  0  0  0  0  0  0  0  0  0  # atno 10763 bound_to 10752
  153.8076  135.6898  153.4850 H   0  0  0  0  0  0  0  0  0  0  0  0  # atno 10764 bound_to 10752
  153.1813  135.4585  154.9976 H   0  0  0  0  0  0  0  0  0  0  0  0  # atno 10765 bound_to 10752
  140.6672  134.4286  157.5233 H   0  0  0  0  0  0  0  0  0  0  0  0  # atno 11005 bound_to 11000
  146.0839  139.3827  143.0447 LP  0  0  0  0  0  0  0  0  0  0  0  0  # atno 17320 bound_to 7965
  145.7803  140.9859  143.1102 LP  0  0  0  0  0  0  0  0  0  0  0  0  # atno 17321 bound_to 7965
  140.0858  144.5662  150.7089 LP  0  0  0  0  0  0  0  0  0  0  0  0  # atno 17342 bound_to 10162
  140.7142  143.2530  151.4487 LP  0  0  0  0  0  0  0  0  0  0  0  0  # atno 17343 bound_to 10162
  157.4116  130.7388  149.6843 LP  0  0  0  0  0  0  0  0  0  0  0  0  # atno 17370 bound_to 10713
  155.9751  130.4094  150.3875 LP  0  0  0  0  0  0  0  0  0  0  0  0  # atno 17371 bound_to 10713
  139.8993  134.8593  156.1964 LP  0  0  0  0  0  0  0  0  0  0  0  0  # atno 17394 bound_to 11000
  141.0420  133.6933  156.1615 LP  0  0  0  0  0  0  0  0  0  0  0  0  # atno 17395 bound_to 11000

$$$$
