AV-unprocessed.smi:2931|AV-procd|sdf|11248|dock8
  -GOLD-   2272016143D 1   1.00000     0.00000
 Structure written by MMmdl.
 43 44  0  0  0  0  0  0  0  0  3 V2000
  143.8774  142.1523  155.5979 C   0  0  0  0  0  0  0  0  0  0  0  0
  144.9179  141.7664  154.6210 N   0  3  1  0  0  0  0  0  0  0  0  0
  145.6719  142.9368  154.1063 C   0  0  0  0  0  0  0  0  0  0  0  0
  146.6499  142.5178  152.9957 C   0  0  0  0  0  0  0  0  0  0  0  0
  147.5952  141.4042  153.4769 C   0  0  0  0  0  0  0  0  0  0  0  0
  146.8040  140.2185  154.0585 C   0  0  2  0  0  0  0  0  0  0  0  0
  146.1115  139.5055  152.9848 N   0  0  0  0  0  0  0  0  0  0  0  0
  146.3894  138.2568  152.5850 C   0  0  0  0  0  0  0  0  0  0  0  0
  147.2368  137.5379  153.1130 O   0  0  0  0  0  0  0  0  0  0  0  0
  145.6337  137.8863  151.5422 N   0  0  0  0  0  0  0  0  0  0  0  0
  145.7361  136.6062  150.8459 C   0  0  0  0  0  0  0  0  0  0  0  0
  144.5820  135.6366  151.1723 C   0  0  0  0  0  0  0  0  0  0  0  0
  144.9597  134.1708  151.0437 C   0  0  0  0  0  0  0  0  0  0  0  0
  144.0112  133.1578  151.3093 C   0  0  0  0  0  0  0  0  0  0  0  0
  144.3948  131.8069  151.1846 C   0  0  0  0  0  0  0  0  0  0  0  0
  145.6561  131.4970  150.8122 N   0  3  0  0  0  0  0  0  0  0  0  0
  146.5925  132.4344  150.5479 C   0  0  0  0  0  0  0  0  0  0  0  0
  146.2674  133.8017  150.6581 C   0  0  0  0  0  0  0  0  0  0  0  0
  145.8248  140.7144  155.1459 C   0  0  0  0  0  0  0  0  0  0  0  0
  144.3225  142.5997  156.4875 H   0  0  0  0  0  0  0  0  0  0  0  0
  143.2966  141.2822  155.9059 H   0  0  0  0  0  0  0  0  0  0  0  0
  143.1874  142.8741  155.1601 H   0  0  0  0  0  0  0  0  0  0  0  0
  144.9755  143.6803  153.7162 H   0  0  0  0  0  0  0  0  0  0  0  0
  146.2146  143.4108  154.9259 H   0  0  0  0  0  0  0  0  0  0  0  0
  146.0890  142.1774  152.1244 H   0  0  0  0  0  0  0  0  0  0  0  0
  147.2305  143.3803  152.6674 H   0  0  0  0  0  0  0  0  0  0  0  0
  148.2387  141.0738  152.6603 H   0  0  0  0  0  0  0  0  0  0  0  0
  148.2586  141.8050  154.2445 H   0  0  0  0  0  0  0  0  0  0  0  0
  147.5164  139.5289  154.5152 H   0  0  0  0  0  0  0  0  0  0  0  0
  145.4034  140.0187  152.4802 H   0  0  0  0  0  0  0  0  0  0  0  0
  144.9671  138.5503  151.1757 H   0  0  0  0  0  0  0  0  0  0  0  0
  145.7391  136.8193  149.7767 H   0  0  0  0  0  0  0  0  0  0  0  0
  146.6965  136.1377  151.0659 H   0  0  0  0  0  0  0  0  0  0  0  0
  144.2306  135.8176  152.1887 H   0  0  0  0  0  0  0  0  0  0  0  0
  143.7307  135.8450  150.5232 H   0  0  0  0  0  0  0  0  0  0  0  0
  143.0040  133.4112  151.6074 H   0  0  0  0  0  0  0  0  0  0  0  0
  143.7368  130.9710  151.3727 H   0  0  0  0  0  0  0  0  0  0  0  0
  147.5664  132.0657  150.2604 H   0  0  0  0  0  0  0  0  0  0  0  0
  147.0125  134.5559  150.4502 H   0  0  0  0  0  0  0  0  0  0  0  0
  146.3837  141.1135  155.9940 H   0  0  0  0  0  0  0  0  0  0  0  0
  145.2362  139.8807  155.5309 H   0  0  0  0  0  0  0  0  0  0  0  0
  144.4357  141.3622  153.8313 H   0  0  0  0  0  0  0  0  0  0  0  0
  145.9145  130.5131  150.7306 H   0  0  0  0  0  0  0  0  0  0  0  0
  1  2  1  0  0  0  0
  1 20  1  0  0  0  0
  1 21  1  0  0  0  0
  1 22  1  0  0  0  0
  2 19  1  0  0  0  0
  2  3  1  0  0  0  0
  2 42  1  0  0  0  0
  3  4  1  0  0  0  0
  3 23  1  0  0  0  0
  3 24  1  0  0  0  0
  4  5  1  0  0  0  0
  4 25  1  0  0  0  0
  4 26  1  0  0  0  0
  5  6  1  0  0  0  0
  5 27  1  0  0  0  0
  5 28  1  0  0  0  0
  6  7  1  0  0  0  0
  6 19  1  0  0  0  0
  6 29  1  0  0  0  0
  7  8  1  0  0  0  0
  7 30  1  0  0  0  0
  8  9  2  0  0  0  0
  8 10  1  0  0  0  0
 10 11  1  0  0  0  0
 10 31  1  0  0  0  0
 11 12  1  0  0  0  0
 11 32  1  0  0  0  0
 11 33  1  0  0  0  0
 12 13  1  0  0  0  0
 12 34  1  0  0  0  0
 12 35  1  0  0  0  0
 13 18  1  0  0  0  0
 13 14  2  0  0  0  0
 14 15  1  0  0  0  0
 14 36  1  0  0  0  0
 15 16  2  0  0  0  0
 15 37  1  0  0  0  0
 16 17  1  0  0  0  0
 16 43  1  0  0  0  0
 17 18  2  0  0  0  0
 17 38  1  0  0  0  0
 18 39  1  0  0  0  0
 19 40  1  0  0  0  0
 19 41  1  0  0  0  0
M  CHG  1   2   1
M  CHG  1  16   1
M  END
> <s_m_source_file>
AV-unprocessed.smi

> <i_m_source_file_index>
2931

> <i_lp_mmshare_version>
43012

> <i_f3d_flags>
0

> <s_epik_input>
W0NIM11OMVtDSDJdW0NIMl1bQ0gyXVtDQEhdKFtDSDJdMSlbTkhdQyg9TylbTkhdW0NIMl1bQ0gyXWMyW2NIXVtjSF1uW2NIXVtjSF0y

> <s_epik_cmdline>
J2VwaWtfcHl0aG9uJywgJy1waCcsICc3LjAnLCAnLXRuJywgJzgnLCAnLW1hJywgJzIwMCcsICctbWV0YWxfYmluZGluZycsICctaW1hZScsICc8aW5maWxlLm1hZT4nLCAnLW9tYWUnLCAnPG91dGZpbGUubWFlPic=

> <r_epik_Ionization_Penalty>
1.43754

> <r_epik_Ionization_Penalty_Charging>
1.4375

> <r_epik_Ionization_Penalty_Neutral>
3.7629e-05

> <r_epik_State_Penalty>
1.52008

> <r_epik_Charging_Adjusted_Penalty>
2.95758

> <i_epik_Tot_Q>
2

> <i_epik_Tot_abs_Q>
2

> <r_epik_Metal_State_Penalty>
1.57105

> <b_epik_Metal_Only>
0

> <s_lp_Force_Field>
OPLS_2005

> <r_lp_Energy>
32.3729

> <b_lp_Chiralities_Consistent>
1

> <s_lp_Variant>
AV-unprocessed.smi:2931-7

> <Gold.Version>
5.8.1

> <Gold.Id.Protein>
6NUR|6NUR_protein|mol2

> <Gold.PLP.Fitness>
41.8753

> <Gold.PLP.PLP>
-31.5310

> <Gold.PLP.part.hbond>
-3.1689

> <Gold.PLP.part.metal>
0.0000

> <Gold.PLP.part.buried>
-3.0413

> <Gold.PLP.part.nonpolar>
-26.5349

> <Gold.PLP.part.repulsive>
1.0316

> <Gold.PLP.ligand.clash>
0.0000

> <Gold.PLP.ligand.torsion>
0.2838

> <Gold.PLP.Chemscore.Hbond>
3.6320

> <Gold.PLP.Chemscore.CHOScore>
0.0000

> <Gold.PLP.Chemscore.Metal>
0.0000

> <Gold.Chemscore.Hbonds>
donor molecule, donor type, donor heavy atom, donor atom, acceptor molecule, acceptor atom, score
      L1  H     2    42       P1 10175  2.00
      L1  H     7    30       P1 10175  0.90
      L1  H    10    31       P1 10171  0.72

> <Gold.PLP.Chemscore.Internal.Correction>
0.0159

> <Gold.Rescore>
     Score         DG    S(hbond)    S(metal)    S(lipo)     H(rot)  DE(clash)    DE(int)     intcor
     16.94     -18.02       2.53        0.00      70.94       1.65       0.80       0.28       ----

> <Gold.Chemscore.Fitness>
16.9413

> <Gold.Chemscore.DG>
-18.0189

> <Gold.Chemscore.ZeroCoef>
-5.4800

> <Gold.Chemscore.Hbond>
2.5312

> <Gold.Chemscore.Metal>
0.0000

> <Gold.Chemscore.Lipo>
70.9367

> <Gold.Chemscore.Internal_Hbond>
0.0000

> <Gold.Chemscore.DEClash>
0.8005

> <Gold.Chemscore.DEInternal>
0.2771

> <Gold.Chemscore.Rot>
1.6464

> <Gold.Chemscore.Internal.Correction>
   9.000000E+99

> <Gold.Chemscore.Hbonds>
donor molecule, donor type, donor heavy atom, donor atom, acceptor molecule, acceptor atom, score
      L1  H     2    42       P1 10175  0.26
      L1  H     7    30       P1 10175  0.83
      L1  H    10    31       P1 10171  0.72

> <Gold.Chemscore.Hbond.Weighted>
-8.4541

> <Gold.Chemscore.Metal.Weighted>
-0.0000

> <Gold.Chemscore.Lipo.Weighted>
-8.2996

> <Gold.Chemscore.Internal_Hbond.Weighted>
0.0000

> <Gold.Chemscore.DEClash.Weighted>
0.8005

> <Gold.Chemscore.DEInternal.Weighted>
0.2771

> <Gold.Chemscore.Rot.Weighted>
4.2148

> <Gold.Chemscore.Internal.Correction.Weighted>
   9.000000E+99

> <Gold.Protein.RotatedTorsions>
[ 6907 6896 6895 6894 ] final  108.37 input  -60.11 | X-H torsion
[ 7974 7965 7964 7962 ] final -146.58 input  175.53 | X-H torsion
[ 8008 7997 7996 7995 ] final   82.41 input   59.86 | X-H torsion
[ 10167 10162 10161 10158 ] final  176.86 input  -65.29 | X-H torsion
[ 10718 10713 10712 10709 ] final -108.88 input   66.30 | X-H torsion
[ 10763 10752 10751 10750 ] final -128.49 input  -60.55 | X-H torsion
[ 11005 11000 10999 10996 ] final -143.47 input  -57.11 | X-H torsion

> <Gold.Protein.ActiveResidues>
 VAL166  LYS551  ARG553  GLY616  TRP617  ASP618  TYR619  PRO620  LYS621  CYS622 
 ASP623  PHE694  ASN695  SER759  ASP760  ASP761  ALA762  ILE779  LEU786  VAL792 
 PHE793  MET794  SER795  GLU796  ALA797  LYS798  CYS799  TRP800  GLU811  SER814 

> <Gold.Protein.RotatedAtoms>
  152.5115  133.9098  159.7481 H   0  0  0  0  0  0  0  0  0  0  0  0  # atno 6907 bound_to 6896
  150.9494  133.6558  159.2782 H   0  0  0  0  0  0  0  0  0  0  0  0  # atno 6908 bound_to 6896
  151.3841  135.0950  159.9558 H   0  0  0  0  0  0  0  0  0  0  0  0  # atno 6909 bound_to 6896
  144.8150  140.5437  143.5617 H   0  0  0  0  0  0  0  0  0  0  0  0  # atno 7974 bound_to 7965
  155.9103  140.3428  155.6093 H   0  0  0  0  0  0  0  0  0  0  0  0  # atno 8008 bound_to 7997
  155.7396  140.0806  157.2270 H   0  0  0  0  0  0  0  0  0  0  0  0  # atno 8009 bound_to 7997
  154.4055  140.1573  156.2588 H   0  0  0  0  0  0  0  0  0  0  0  0  # atno 8010 bound_to 7997
  139.5231  144.2866  152.0500 H   0  0  0  0  0  0  0  0  0  0  0  0  # atno 10167 bound_to 10162
  156.0508  130.5735  150.8022 H   0  0  0  0  0  0  0  0  0  0  0  0  # atno 10718 bound_to 10713
  154.8756  135.3927  154.3765 H   0  0  0  0  0  0  0  0  0  0  0  0  # atno 10763 bound_to 10752
  153.4518  135.7028  153.6110 H   0  0  0  0  0  0  0  0  0  0  0  0  # atno 10764 bound_to 10752
  153.4646  135.3804  155.2326 H   0  0  0  0  0  0  0  0  0  0  0  0  # atno 10765 bound_to 10752
  140.8122  134.2731  157.4936 H   0  0  0  0  0  0  0  0  0  0  0  0  # atno 11005 bound_to 11000
  145.5236  139.1476  143.3538 LP  0  0  0  0  0  0  0  0  0  0  0  0  # atno 17320 bound_to 7965
  146.2452  140.5377  142.8917 LP  0  0  0  0  0  0  0  0  0  0  0  0  # atno 17321 bound_to 7965
  140.2319  144.4360  150.6296 LP  0  0  0  0  0  0  0  0  0  0  0  0  # atno 17342 bound_to 10162
  140.6350  143.2193  151.6415 LP  0  0  0  0  0  0  0  0  0  0  0  0  # atno 17343 bound_to 10162
  157.5432  131.0941  150.9799 LP  0  0  0  0  0  0  0  0  0  0  0  0  # atno 17370 bound_to 10713
  157.0076  130.5624  149.5317 LP  0  0  0  0  0  0  0  0  0  0  0  0  # atno 17371 bound_to 10713
  139.8713  134.9489  156.4011 LP  0  0  0  0  0  0  0  0  0  0  0  0  # atno 17394 bound_to 11000
  140.9186  133.7661  155.9878 LP  0  0  0  0  0  0  0  0  0  0  0  0  # atno 17395 bound_to 11000

$$$$
