AV-unprocessed.smi:1045|AV-procd|sdf|4544|dock10
  -GOLD-   22720 2573D 1   1.00000     0.00000
 Structure written by MMmdl.
 42 43  0  0  0  0  0  0  0  0  1 V2000
  150.1339  130.1934  155.2164 C   0  0  0  0  0  0  0  0  0  0  0  0
  149.1004  131.1166  154.9224 O   0  0  0  0  0  0  0  0  0  0  0  0
  149.5975  132.3585  154.4511 C   0  0  0  0  0  0  0  0  0  0  0  0
  148.4193  133.3103  154.1765 C   0  0  2  0  0  0  0  0  0  0  0  0
  147.6276  132.9007  152.9262 C   0  0  0  0  0  0  0  0  0  0  0  0
  148.9003  134.6786  154.0066 N   0  0  0  0  0  0  0  0  0  0  0  0
  149.3536  135.4712  154.9885 C   0  0  0  0  0  0  0  0  0  0  0  0
  149.4310  135.1182  156.1648 O   0  0  0  0  0  0  0  0  0  0  0  0
  149.7207  136.6715  154.5082 N   0  0  0  0  0  0  0  0  0  0  0  0
  150.2218  137.7994  155.2133 C   0  0  0  0  0  0  0  0  0  0  0  0
  150.6627  137.7757  156.5570 C   0  0  0  0  0  0  0  0  0  0  0  0
  151.1180  138.9705  157.1470 C   0  0  0  0  0  0  0  0  0  0  0  0
  151.1133  140.1629  156.3853 C   0  0  0  0  0  0  0  0  0  0  0  0
  151.5648  141.3782  156.9378 N   0  0  0  0  0  0  0  0  0  0  0  0
  150.9008  142.6413  156.6550 C   0  0  0  0  0  0  0  0  0  0  0  0
  151.6036  143.6568  157.5539 C   0  0  0  0  0  0  0  0  0  0  0  0
  151.9791  142.8289  158.7826 C   0  0  0  0  0  0  0  0  0  0  0  0
  152.2501  141.4278  158.2220 C   0  0  0  0  0  0  0  0  0  0  0  0
  150.6870  140.1835  155.1002 N   0  0  0  0  0  0  0  0  0  0  0  0
  150.2509  139.0365  154.5395 C   0  0  0  0  0  0  0  0  0  0  0  0
  149.6995  129.2587  155.5707 H   0  0  0  0  0  0  0  0  0  0  0  0
  150.7940  130.5748  155.9964 H   0  0  0  0  0  0  0  0  0  0  0  0
  150.7295  129.9728  154.3297 H   0  0  0  0  0  0  0  0  0  0  0  0
  150.2616  132.7868  155.2037 H   0  0  0  0  0  0  0  0  0  0  0  0
  150.1857  132.2115  153.5435 H   0  0  0  0  0  0  0  0  0  0  0  0
  147.7389  133.2804  155.0298 H   0  0  0  0  0  0  0  0  0  0  0  0
  147.2140  131.8974  153.0322 H   0  0  0  0  0  0  0  0  0  0  0  0
  148.2579  132.9076  152.0362 H   0  0  0  0  0  0  0  0  0  0  0  0
  146.7931  133.5802  152.7499 H   0  0  0  0  0  0  0  0  0  0  0  0
  148.8804  135.0510  153.0686 H   0  0  0  0  0  0  0  0  0  0  0  0
  149.6702  136.7796  153.5058 H   0  0  0  0  0  0  0  0  0  0  0  0
  150.6513  136.8759  157.1515 H   0  0  0  0  0  0  0  0  0  0  0  0
  151.4647  138.9542  158.1694 H   0  0  0  0  0  0  0  0  0  0  0  0
  150.9796  142.9120  155.6016 H   0  0  0  0  0  0  0  0  0  0  0  0
  149.8444  142.5636  156.9153 H   0  0  0  0  0  0  0  0  0  0  0  0
  152.5084  144.0207  157.0647 H   0  0  0  0  0  0  0  0  0  0  0  0
  150.9783  144.5176  157.7921 H   0  0  0  0  0  0  0  0  0  0  0  0
  152.8298  143.2381  159.3280 H   0  0  0  0  0  0  0  0  0  0  0  0
  151.1304  142.7903  159.4668 H   0  0  0  0  0  0  0  0  0  0  0  0
  151.8954  140.6594  158.9098 H   0  0  0  0  0  0  0  0  0  0  0  0
  153.3174  141.2763  158.0580 H   0  0  0  0  0  0  0  0  0  0  0  0
  149.9164  139.1110  153.5151 H   0  0  0  0  0  0  0  0  0  0  0  0
  1  2  1  0  0  0  0
  1 21  1  0  0  0  0
  1 22  1  0  0  0  0
  1 23  1  0  0  0  0
  2  3  1  0  0  0  0
  3  4  1  0  0  0  0
  3 24  1  0  0  0  0
  3 25  1  0  0  0  0
  4  5  1  0  0  0  0
  4  6  1  0  0  0  0
  4 26  1  0  0  0  0
  5 27  1  0  0  0  0
  5 28  1  0  0  0  0
  5 29  1  0  0  0  0
  6  7  1  0  0  0  0
  6 30  1  0  0  0  0
  7  8  2  0  0  0  0
  7  9  1  0  0  0  0
  9 10  1  0  0  0  0
  9 31  1  0  0  0  0
 10 20  1  0  0  0  0
 10 11  2  0  0  0  0
 11 12  1  0  0  0  0
 11 32  1  0  0  0  0
 12 13  2  0  0  0  0
 12 33  1  0  0  0  0
 13 14  1  0  0  0  0
 13 19  1  0  0  0  0
 14 18  1  0  0  0  0
 14 15  1  0  0  0  0
 15 16  1  0  0  0  0
 15 34  1  0  0  0  0
 15 35  1  0  0  0  0
 16 17  1  0  0  0  0
 16 36  1  0  0  0  0
 16 37  1  0  0  0  0
 17 18  1  0  0  0  0
 17 38  1  0  0  0  0
 17 39  1  0  0  0  0
 18 40  1  0  0  0  0
 18 41  1  0  0  0  0
 19 20  2  0  0  0  0
 20 42  1  0  0  0  0
M  END
> <s_m_source_file>
AV-unprocessed.smi

> <i_m_source_file_index>
1045

> <i_lp_mmshare_version>
43012

> <i_f3d_flags>
0

> <s_epik_input>
W0NIM11PW0NIMl1bQ0BIXShbQ0gzXSlbTkhdQyg9TylbTkhdYzFbY0hdW2NIXWMobltjSF0xKU4yW0NIMl1bQ0gyXVtDSDJdW0NIMl0y

> <s_epik_cmdline>
J2VwaWtfcHl0aG9uJywgJy1waCcsICc3LjAnLCAnLXRuJywgJzgnLCAnLW1hJywgJzIwMCcsICctbWV0YWxfYmluZGluZycsICctaW1hZScsICc8aW5maWxlLm1hZT4nLCAnLW9tYWUnLCAnPG91dGZpbGUubWFlPic=

> <r_lp_tautomer_probability>
1

> <r_epik_Ionization_Penalty>
0.10064

> <r_epik_Ionization_Penalty_Charging>
0

> <r_epik_Ionization_Penalty_Neutral>
0.10064

> <r_epik_State_Penalty>
0.0900987

> <r_epik_Charging_Adjusted_Penalty>
0.0900987

> <i_epik_Tot_Q>
0

> <i_epik_Tot_abs_Q>
0

> <r_epik_Metal_State_Penalty>
0.076945

> <b_epik_Metal_Only>
0

> <s_lp_Force_Field>
OPLS_2005

> <r_lp_Energy>
28.0744

> <b_lp_Chiralities_Consistent>
1

> <s_lp_Variant>
AV-unprocessed.smi:1045-1

> <Gold.Version>
5.8.1

> <Gold.Id.Protein>
6NUR|6NUR_protein|mol2

> <Gold.PLP.Fitness>
41.7680

> <Gold.PLP.PLP>
-31.5641

> <Gold.PLP.part.hbond>
-3.0000

> <Gold.PLP.part.metal>
0.0000

> <Gold.PLP.part.buried>
-3.0192

> <Gold.PLP.part.nonpolar>
-24.9011

> <Gold.PLP.part.repulsive>
0.1339

> <Gold.PLP.ligand.clash>
0.0000

> <Gold.PLP.ligand.torsion>
0.6215

> <Gold.PLP.Chemscore.Hbond>
2.8000

> <Gold.PLP.Chemscore.CHOScore>
0.9474

> <Gold.PLP.Chemscore.Metal>
0.0000

> <Gold.Chemscore.Hbonds>
donor molecule, donor type, donor heavy atom, donor atom, acceptor molecule, acceptor atom, score
      L1  H     6    30       P1  7948  1.00
      L1  H     9    31       P1  7948  1.00
      P1  H  7989  7998       L1    19  0.85
      L1  C    20    42       P1  7957  0.97

> <Gold.PLP.Chemscore.Internal.Correction>
0.2045

> <Gold.Rescore>
     Score         DG    S(hbond)    S(metal)    S(lipo)     H(rot)  DE(clash)    DE(int)     intcor
     15.59     -17.35       1.89        0.00      78.48       1.41       0.05       1.72       ----

> <Gold.Chemscore.Fitness>
15.5896

> <Gold.Chemscore.DG>
-17.3543

> <Gold.Chemscore.ZeroCoef>
-5.4800

> <Gold.Chemscore.Hbond>
1.8856

> <Gold.Chemscore.Metal>
0.0000

> <Gold.Chemscore.Lipo>
78.4812

> <Gold.Chemscore.Internal_Hbond>
0.0000

> <Gold.Chemscore.DEClash>
0.0475

> <Gold.Chemscore.DEInternal>
1.7172

> <Gold.Chemscore.Rot>
1.4086

> <Gold.Chemscore.Internal.Correction>
   9.000000E+99

> <Gold.Chemscore.Hbonds>
donor molecule, donor type, donor heavy atom, donor atom, acceptor molecule, acceptor atom, score
      L1  H     6    30       P1  7948  0.30
      L1  H     9    31       P1  7948  0.57
      P1  H  7989  7998       L1    19  0.14

> <Gold.Chemscore.Hbond.Weighted>
-6.2980

> <Gold.Chemscore.Metal.Weighted>
-0.0000

> <Gold.Chemscore.Lipo.Weighted>
-9.1823

> <Gold.Chemscore.Internal_Hbond.Weighted>
0.0000

> <Gold.Chemscore.DEClash.Weighted>
0.0475

> <Gold.Chemscore.DEInternal.Weighted>
1.7172

> <Gold.Chemscore.Rot.Weighted>
3.6060

> <Gold.Chemscore.Internal.Correction.Weighted>
   9.000000E+99

> <Gold.Protein.RotatedTorsions>
[ 6907 6896 6895 6894 ] final  102.50 input  -60.11 | X-H torsion
[ 7974 7965 7964 7962 ] final  -22.66 input  175.53 | X-H torsion
[ 8008 7997 7996 7995 ] final  125.90 input   59.86 | X-H torsion
[ 10167 10162 10161 10158 ] final -169.44 input  -65.29 | X-H torsion
[ 10718 10713 10712 10709 ] final    6.84 input   66.30 | X-H torsion
[ 10763 10752 10751 10750 ] final -170.42 input  -60.55 | X-H torsion
[ 11005 11000 10999 10996 ] final  107.94 input  -57.11 | X-H torsion

> <Gold.Protein.ActiveResidues>
 VAL166  LYS551  ARG553  GLY616  TRP617  ASP618  TYR619  PRO620  LYS621  CYS622 
 ASP623  PHE694  ASN695  SER759  ASP760  ASP761  ALA762  ILE779  LEU786  VAL792 
 PHE793  MET794  SER795  GLU796  ALA797  LYS798  CYS799  TRP800  GLU811  SER814 

> <Gold.Protein.RotatedAtoms>
  152.5322  133.9966  159.7875 H   0  0  0  0  0  0  0  0  0  0  0  0  # atno 6907 bound_to 6896
  151.0193  133.5884  159.2680 H   0  0  0  0  0  0  0  0  0  0  0  0  # atno 6908 bound_to 6896
  151.2930  135.0754  159.9264 H   0  0  0  0  0  0  0  0  0  0  0  0  # atno 6909 bound_to 6896
  146.1662  140.4510  142.8551 H   0  0  0  0  0  0  0  0  0  0  0  0  # atno 7974 bound_to 7965
  156.2848  140.2705  156.2025 H   0  0  0  0  0  0  0  0  0  0  0  0  # atno 8008 bound_to 7997
  155.0347  140.0386  157.2505 H   0  0  0  0  0  0  0  0  0  0  0  0  # atno 8009 bound_to 7997
  154.7325  140.2709  155.6449 H   0  0  0  0  0  0  0  0  0  0  0  0  # atno 8010 bound_to 7997
  139.5923  144.1188  152.1648 H   0  0  0  0  0  0  0  0  0  0  0  0  # atno 10167 bound_to 10162
  156.9281  130.5816  149.5649 H   0  0  0  0  0  0  0  0  0  0  0  0  # atno 10718 bound_to 10713
  154.6417  135.2899  155.0095 H   0  0  0  0  0  0  0  0  0  0  0  0  # atno 10763 bound_to 10752
  154.1220  135.6546  153.4909 H   0  0  0  0  0  0  0  0  0  0  0  0  # atno 10764 bound_to 10752
  153.0330  135.5290  154.7286 H   0  0  0  0  0  0  0  0  0  0  0  0  # atno 10765 bound_to 10752
  139.8836  134.9416  156.5895 H   0  0  0  0  0  0  0  0  0  0  0  0  # atno 11005 bound_to 11000
  144.8096  140.6362  143.6424 LP  0  0  0  0  0  0  0  0  0  0  0  0  # atno 17320 bound_to 7965
  145.4461  139.1529  143.3944 LP  0  0  0  0  0  0  0  0  0  0  0  0  # atno 17321 bound_to 7965
  140.0765  144.5736  150.7154 LP  0  0  0  0  0  0  0  0  0  0  0  0  # atno 17342 bound_to 10162
  140.7183  143.2564  151.4363 LP  0  0  0  0  0  0  0  0  0  0  0  0  # atno 17343 bound_to 10162
  156.0460  130.5536  150.8881 LP  0  0  0  0  0  0  0  0  0  0  0  0  # atno 17370 bound_to 10713
  157.5864  131.0945  150.9189 LP  0  0  0  0  0  0  0  0  0  0  0  0  # atno 17371 bound_to 10713
  140.7966  133.8539  155.8691 LP  0  0  0  0  0  0  0  0  0  0  0  0  # atno 17394 bound_to 11000
  140.9630  134.1631  157.4639 LP  0  0  0  0  0  0  0  0  0  0  0  0  # atno 17395 bound_to 11000

$$$$
