AV-unprocessed.smi:1645|AV-procd|sdf|6620|dock2
  -GOLD-   22720 7313D 1   1.00000     0.00000
 Structure written by MMmdl.
 55 58  0  0  0  0  0  0  0  0  4 V2000
  148.0702  136.5873  158.2405 O   0  0  0  0  0  0  0  0  0  0  0  0
  149.1069  135.9167  158.2692 C   0  0  0  0  0  0  0  0  0  0  0  0
  150.3128  136.5090  158.3395 N   0  0  0  0  0  0  0  0  0  0  0  0
  150.6697  137.8861  158.3793 C   0  0  0  0  0  0  0  0  0  0  0  0
  151.9102  138.2084  158.9672 C   0  0  0  0  0  0  0  0  0  0  0  0
  152.3304  139.5519  159.0392 C   0  0  0  0  0  0  0  0  0  0  0  0
  151.5033  140.5783  158.5188 C   0  0  0  0  0  0  0  0  0  0  0  0
  151.8361  141.9516  158.5475 N   0  0  0  0  0  0  0  0  0  0  0  0
  152.2307  142.4942  159.8517 C   0  0  0  0  0  0  0  0  0  0  0  0
  152.9590  143.8409  159.7054 C   0  0  0  0  0  0  0  0  0  0  0  0
  152.1309  144.8305  158.8746 C   0  0  0  0  0  0  0  0  0  0  0  0
  151.7895  144.2084  157.5140 C   0  0  0  0  0  0  0  0  0  0  0  0
  151.0751  142.8568  157.6838 C   0  0  0  0  0  0  0  0  0  0  0  0
  150.3185  140.2203  157.9681 N   0  3  0  0  0  0  0  0  0  0  0  0
  149.8767  138.9471  157.8796 C   0  0  0  0  0  0  0  0  0  0  0  0
  149.2137  134.5614  158.2263 N   0  5  0  0  0  0  0  0  0  0  0  0
  148.1354  133.6438  157.8361 C   0  0  2  0  0  0  0  0  0  0  0  0
  147.9896  132.5470  158.8972 C   0  0  0  0  0  0  0  0  0  0  0  0
  149.0066  131.4558  158.5113 C   0  0  0  0  0  0  0  0  0  0  0  0
  149.3746  131.6789  157.0894 N   0  3  2  0  0  0  0  0  0  0  0  0
  150.8430  131.8530  156.8972 C   0  0  0  0  0  0  0  0  0  0  0  0
  151.1954  132.3080  155.4764 C   0  0  0  0  0  0  0  0  0  0  0  0
  150.5125  133.6429  155.1735 C   0  0  0  0  0  0  0  0  0  0  0  0
  148.9910  133.4804  155.2889 C   0  0  0  0  0  0  0  0  0  0  0  0
  148.5174  132.7956  156.6023 C   0  0  2  0  0  0  0  0  0  0  0  0
  151.0925  135.8678  158.3515 H   0  0  0  0  0  0  0  0  0  0  0  0
  152.5448  137.4280  159.3614 H   0  0  0  0  0  0  0  0  0  0  0  0
  153.2897  139.7654  159.4852 H   0  0  0  0  0  0  0  0  0  0  0  0
  151.3341  142.6207  160.4597 H   0  0  0  0  0  0  0  0  0  0  0  0
  152.8819  141.8088  160.3936 H   0  0  0  0  0  0  0  0  0  0  0  0
  153.1665  144.2607  160.6901 H   0  0  0  0  0  0  0  0  0  0  0  0
  153.9262  143.6826  159.2264 H   0  0  0  0  0  0  0  0  0  0  0  0
  151.2133  145.0849  159.4067 H   0  0  0  0  0  0  0  0  0  0  0  0
  152.6821  145.7611  158.7361 H   0  0  0  0  0  0  0  0  0  0  0  0
  151.1647  144.8899  156.9364 H   0  0  0  0  0  0  0  0  0  0  0  0
  152.7056  144.0665  156.9387 H   0  0  0  0  0  0  0  0  0  0  0  0
  150.9416  142.4141  156.6964 H   0  0  0  0  0  0  0  0  0  0  0  0
  150.0831  143.0077  158.1113 H   0  0  0  0  0  0  0  0  0  0  0  0
  148.9092  138.8473  157.4141 H   0  0  0  0  0  0  0  0  0  0  0  0
  147.1835  134.1534  157.6817 H   0  0  0  0  0  0  0  0  0  0  0  0
  148.1272  132.9089  159.9173 H   0  0  0  0  0  0  0  0  0  0  0  0
  146.9829  132.1312  158.8412 H   0  0  0  0  0  0  0  0  0  0  0  0
  149.8822  131.5075  159.1617 H   0  0  0  0  0  0  0  0  0  0  0  0
  148.5787  130.4606  158.6359 H   0  0  0  0  0  0  0  0  0  0  0  0
  151.2291  132.5851  157.6084 H   0  0  0  0  0  0  0  0  0  0  0  0
  151.3412  130.9091  157.1209 H   0  0  0  0  0  0  0  0  0  0  0  0
  152.2762  132.4154  155.3798 H   0  0  0  0  0  0  0  0  0  0  0  0
  150.8890  131.5532  154.7513 H   0  0  0  0  0  0  0  0  0  0  0  0
  150.8693  134.4097  155.8611 H   0  0  0  0  0  0  0  0  0  0  0  0
  150.7754  133.9814  154.1710 H   0  0  0  0  0  0  0  0  0  0  0  0
  148.4929  134.4388  155.1310 H   0  0  0  0  0  0  0  0  0  0  0  0
  148.6714  132.8548  154.4544 H   0  0  0  0  0  0  0  0  0  0  0  0
  147.5828  132.3037  156.3259 H   0  0  0  0  0  0  0  0  0  0  0  0
  149.1113  130.8602  156.5607 H   0  0  0  0  0  0  0  0  0  0  0  0
  149.7187  140.9578  157.5987 H   0  0  0  0  0  0  0  0  0  0  0  0
  1  2  2  0  0  0  0
  2  3  1  0  0  0  0
  2 16  1  0  0  0  0
  3  4  1  0  0  0  0
  3 26  1  0  0  0  0
  4 15  1  0  0  0  0
  4  5  2  0  0  0  0
  5  6  1  0  0  0  0
  5 27  1  0  0  0  0
  6  7  2  0  0  0  0
  6 28  1  0  0  0  0
  7  8  1  0  0  0  0
  7 14  1  0  0  0  0
  8 13  1  0  0  0  0
  8  9  1  0  0  0  0
  9 10  1  0  0  0  0
  9 29  1  0  0  0  0
  9 30  1  0  0  0  0
 10 11  1  0  0  0  0
 10 31  1  0  0  0  0
 10 32  1  0  0  0  0
 11 12  1  0  0  0  0
 11 33  1  0  0  0  0
 11 34  1  0  0  0  0
 12 13  1  0  0  0  0
 12 35  1  0  0  0  0
 12 36  1  0  0  0  0
 13 37  1  0  0  0  0
 13 38  1  0  0  0  0
 14 15  2  0  0  0  0
 14 55  1  0  0  0  0
 15 39  1  0  0  0  0
 16 17  1  0  0  0  0
 17 25  1  0  0  0  0
 17 18  1  0  0  0  0
 17 40  1  0  0  0  0
 18 19  1  0  0  0  0
 18 41  1  0  0  0  0
 18 42  1  0  0  0  0
 19 20  1  0  0  0  0
 19 43  1  0  0  0  0
 19 44  1  0  0  0  0
 20 25  1  0  0  0  0
 20 21  1  0  0  0  0
 20 54  1  0  0  0  0
 21 22  1  0  0  0  0
 21 45  1  0  0  0  0
 21 46  1  0  0  0  0
 22 23  1  0  0  0  0
 22 47  1  0  0  0  0
 22 48  1  0  0  0  0
 23 24  1  0  0  0  0
 23 49  1  0  0  0  0
 23 50  1  0  0  0  0
 24 25  1  0  0  0  0
 24 51  1  0  0  0  0
 24 52  1  0  0  0  0
 25 53  1  0  0  0  0
M  CHG  1  14   1
M  CHG  1  16  -1
M  CHG  1  20   1
M  END
> <s_m_source_file>
AV-unprocessed.smi

> <i_m_source_file_index>
1645

> <i_lp_mmshare_version>
43012

> <i_f3d_flags>
0

> <s_epik_input>
W0NIMl0xW0NIMl1bQ0gyXVtDSDJdW0NASF0oTjEyKVtDQEBIXShbQ0gyXVtDSDJdMilbTkhdQyg9TylbTkhdYzNbY0hdW2NIXWMobltjSF0zKU40W0NIMl1bQ0gyXVtDSDJdW0NIMl1bQ0gyXTQ=

> <s_epik_cmdline>
J2VwaWtfcHl0aG9uJywgJy1waCcsICc3LjAnLCAnLXRuJywgJzgnLCAnLW1hJywgJzIwMCcsICctbWV0YWxfYmluZGluZycsICctaW1hZScsICc8aW5maWxlLm1hZT4nLCAnLW9tYWUnLCAnPG91dGZpbGUubWFlPic=

> <r_lp_tautomer_probability>
0.999994

> <r_epik_Ionization_Penalty>
8.55589

> <r_epik_Ionization_Penalty_Charging>
8.55589

> <r_epik_Ionization_Penalty_Neutral>
3.8092e-06

> <r_epik_State_Penalty>
8.15703

> <r_epik_Charging_Adjusted_Penalty>
16.7129

> <i_epik_Tot_Q>
1

> <i_epik_Tot_abs_Q>
3

> <r_epik_Metal_State_Penalty>
4.13781

> <b_epik_Metal_Only>
1

> <s_lp_Force_Field>
OPLS_2005

> <r_lp_Energy>
58.0783

> <b_lp_Chiralities_Consistent>
1

> <s_lp_Variant>
AV-unprocessed.smi:1645-21

> <Gold.Version>
5.8.1

> <Gold.Id.Protein>
6NUR|6NUR_protein|mol2

> <Gold.PLP.Fitness>
41.5324

> <Gold.PLP.PLP>
-35.9448

> <Gold.PLP.part.hbond>
-1.0000

> <Gold.PLP.part.metal>
0.0000

> <Gold.PLP.part.buried>
-5.9728

> <Gold.PLP.part.nonpolar>
-29.5118

> <Gold.PLP.part.repulsive>
0.3017

> <Gold.PLP.ligand.clash>
0.0000

> <Gold.PLP.ligand.torsion>
0.4856

> <Gold.PLP.Chemscore.Hbond>
2.0000

> <Gold.PLP.Chemscore.CHOScore>
0.0000

> <Gold.PLP.Chemscore.Metal>
0.0000

> <Gold.Chemscore.Hbonds>
donor molecule, donor type, donor heavy atom, donor atom, acceptor molecule, acceptor atom, score
      P1  H  6896  6908       L1    16  2.00

> <Gold.PLP.Chemscore.Internal.Correction>
0.5589

> <Gold.Rescore>
     Score         DG    S(hbond)    S(metal)    S(lipo)     H(rot)  DE(clash)    DE(int)     intcor
     16.44     -18.07       0.88        0.00     108.03       1.17       0.07       1.56       ----

> <Gold.Chemscore.Fitness>
16.4401

> <Gold.Chemscore.DG>
-18.0702

> <Gold.Chemscore.ZeroCoef>
-5.4800

> <Gold.Chemscore.Hbond>
0.8843

> <Gold.Chemscore.Metal>
0.0000

> <Gold.Chemscore.Lipo>
108.0322

> <Gold.Chemscore.Internal_Hbond>
0.0000

> <Gold.Chemscore.DEClash>
0.0658

> <Gold.Chemscore.DEInternal>
1.5643

> <Gold.Chemscore.Rot>
1.1731

> <Gold.Chemscore.Internal.Correction>
   9.000000E+99

> <Gold.Chemscore.Hbonds>
donor molecule, donor type, donor heavy atom, donor atom, acceptor molecule, acceptor atom, score
      P1  H  6896  6908       L1    16  0.65

> <Gold.Chemscore.Hbond.Weighted>
-2.9537

> <Gold.Chemscore.Metal.Weighted>
-0.0000

> <Gold.Chemscore.Lipo.Weighted>
-12.6398

> <Gold.Chemscore.Internal_Hbond.Weighted>
0.0000

> <Gold.Chemscore.DEClash.Weighted>
0.0658

> <Gold.Chemscore.DEInternal.Weighted>
1.5643

> <Gold.Chemscore.Rot.Weighted>
3.0032

> <Gold.Chemscore.Internal.Correction.Weighted>
   9.000000E+99

> <Gold.Protein.RotatedTorsions>
[ 6907 6896 6895 6894 ] final  135.70 input  -60.11 | X-H torsion
[ 7974 7965 7964 7962 ] final  128.93 input  175.53 | X-H torsion
[ 8008 7997 7996 7995 ] final  120.52 input   59.86 | X-H torsion
[ 10167 10162 10161 10158 ] final  107.52 input  -65.29 | X-H torsion
[ 10718 10713 10712 10709 ] final   52.59 input   66.30 | X-H torsion
[ 10763 10752 10751 10750 ] final  142.66 input  -60.55 | X-H torsion
[ 11005 11000 10999 10996 ] final   81.66 input  -57.11 | X-H torsion

> <Gold.Protein.ActiveResidues>
 VAL166  LYS551  ARG553  GLY616  TRP617  ASP618  TYR619  PRO620  LYS621  CYS622 
 ASP623  PHE694  ASN695  SER759  ASP760  ASP761  ALA762  ILE779  LEU786  VAL792 
 PHE793  MET794  SER795  GLU796  ALA797  LYS798  CYS799  TRP800  GLU811  SER814 

> <Gold.Protein.RotatedAtoms>
  152.2975  133.5622  159.5596 H   0  0  0  0  0  0  0  0  0  0  0  0  # atno 6907 bound_to 6896
  150.7262  134.0340  159.3752 H   0  0  0  0  0  0  0  0  0  0  0  0  # atno 6908 bound_to 6896
  151.8242  135.0642  160.0479 H   0  0  0  0  0  0  0  0  0  0  0  0  # atno 6909 bound_to 6896
  145.0342  139.4020  143.5135 H   0  0  0  0  0  0  0  0  0  0  0  0  # atno 7974 bound_to 7965
  156.2646  140.2829  156.1163 H   0  0  0  0  0  0  0  0  0  0  0  0  # atno 8008 bound_to 7997
  155.1203  140.0392  157.2766 H   0  0  0  0  0  0  0  0  0  0  0  0  # atno 8009 bound_to 7997
  154.6675  140.2580  155.7048 H   0  0  0  0  0  0  0  0  0  0  0  0  # atno 8010 bound_to 7997
  139.6920  144.7106  151.1331 H   0  0  0  0  0  0  0  0  0  0  0  0  # atno 10167 bound_to 10162
  157.5089  130.8487  149.8410 H   0  0  0  0  0  0  0  0  0  0  0  0  # atno 10718 bound_to 10713
  153.9594  135.2962  155.3434 H   0  0  0  0  0  0  0  0  0  0  0  0  # atno 10763 bound_to 10752
  154.7383  135.5036  153.9082 H   0  0  0  0  0  0  0  0  0  0  0  0  # atno 10764 bound_to 10752
  153.0954  135.6719  153.9883 H   0  0  0  0  0  0  0  0  0  0  0  0  # atno 10765 bound_to 10752
  139.9090  134.8013  156.2071 H   0  0  0  0  0  0  0  0  0  0  0  0  # atno 11005 bound_to 11000
  146.3502  139.9908  142.8686 LP  0  0  0  0  0  0  0  0  0  0  0  0  # atno 17320 bound_to 7965
  145.1732  140.9731  143.4310 LP  0  0  0  0  0  0  0  0  0  0  0  0  # atno 17321 bound_to 7965
  140.7685  143.5545  150.9167 LP  0  0  0  0  0  0  0  0  0  0  0  0  # atno 17342 bound_to 10162
  139.9223  143.6591  152.3094 LP  0  0  0  0  0  0  0  0  0  0  0  0  # atno 17343 bound_to 10162
  156.0276  130.3774  150.1778 LP  0  0  0  0  0  0  0  0  0  0  0  0  # atno 17370 bound_to 10713
  156.9968  130.9910  151.3401 LP  0  0  0  0  0  0  0  0  0  0  0  0  # atno 17371 bound_to 10713
  141.0488  133.6899  156.1734 LP  0  0  0  0  0  0  0  0  0  0  0  0  # atno 17394 bound_to 11000
  140.6842  134.4735  157.5589 LP  0  0  0  0  0  0  0  0  0  0  0  0  # atno 17395 bound_to 11000

$$$$
