AV-unprocessed.smi:910|AV-procd|sdf|4119|dock3
  -GOLD-   22720 2 13D 1   1.00000     0.00000
 Structure written by MMmdl.
 46 47  0  0  0  0  0  0  0  0  1 V2000
  147.8102  135.5734  162.8331 C   0  0  0  0  0  0  0  0  0  0  0  0
  148.3818  135.6577  161.4527 C   0  0  0  0  0  0  0  0  0  0  0  0
  148.9338  136.8284  160.9521 N   0  0  0  0  0  0  0  0  0  0  0  0
  149.3277  136.5118  159.7173 C   0  0  0  0  0  0  0  0  0  0  0  0
  149.9544  137.3744  158.7838 N   0  0  0  0  0  0  0  0  0  0  0  0
  149.3809  138.3450  158.0538 C   0  0  0  0  0  0  0  0  0  0  0  0
  148.1929  138.6648  158.1046 O   0  0  0  0  0  0  0  0  0  0  0  0
  150.2709  138.9281  157.2385 N   0  0  0  0  0  0  0  0  0  0  0  0
  149.9614  139.9582  156.2520 C   0  0  0  0  0  0  0  0  0  0  0  0
  150.7494  141.2495  156.5181 C   0  0  0  0  0  0  0  0  0  0  0  0
  151.2049  141.2320  157.8631 O   0  0  0  0  0  0  0  0  0  0  0  0
  151.8363  142.4316  158.2897 C   0  0  1  0  0  0  0  0  0  0  0  0
  150.8318  143.5988  158.2034 C   0  0  0  0  0  0  0  0  0  0  0  0
  151.4191  144.8912  158.7892 C   0  0  0  0  0  0  0  0  0  0  0  0
  151.8909  144.6769  160.2344 C   0  0  0  0  0  0  0  0  0  0  0  0
  152.8997  143.5214  160.3204 C   0  0  0  0  0  0  0  0  0  0  0  0
  152.3228  142.2145  159.7399 C   0  0  2  0  0  0  0  0  0  0  0  0
  153.3547  141.0773  159.8277 C   0  0  0  0  0  0  0  0  0  0  0  0
  149.0748  135.2213  159.3729 O   0  0  0  0  0  0  0  0  0  0  0  0
  148.4750  134.6906  160.4839 C   0  0  0  0  0  0  0  0  0  0  0  0
  148.0618  133.2590  160.4344 C   0  0  0  0  0  0  0  0  0  0  0  0
  146.9155  134.9508  162.8520 H   0  0  0  0  0  0  0  0  0  0  0  0
  147.5335  136.5579  163.2117 H   0  0  0  0  0  0  0  0  0  0  0  0
  148.5295  135.1410  163.5287 H   0  0  0  0  0  0  0  0  0  0  0  0
  150.9416  137.2207  158.6407 H   0  0  0  0  0  0  0  0  0  0  0  0
  151.2259  138.6028  157.2664 H   0  0  0  0  0  0  0  0  0  0  0  0
  150.1676  139.5871  155.2469 H   0  0  0  0  0  0  0  0  0  0  0  0
  148.8914  140.1624  156.2967 H   0  0  0  0  0  0  0  0  0  0  0  0
  151.5917  141.3202  155.8284 H   0  0  0  0  0  0  0  0  0  0  0  0
  150.1139  142.1179  156.3437 H   0  0  0  0  0  0  0  0  0  0  0  0
  152.7064  142.6498  157.6674 H   0  0  0  0  0  0  0  0  0  0  0  0
  150.5373  143.7719  157.1684 H   0  0  0  0  0  0  0  0  0  0  0  0
  149.9208  143.3375  158.7434 H   0  0  0  0  0  0  0  0  0  0  0  0
  152.2573  145.2237  158.1757 H   0  0  0  0  0  0  0  0  0  0  0  0
  150.6746  145.6871  158.7552 H   0  0  0  0  0  0  0  0  0  0  0  0
  152.3409  145.5929  160.6182 H   0  0  0  0  0  0  0  0  0  0  0  0
  151.0330  144.4620  160.8727 H   0  0  0  0  0  0  0  0  0  0  0  0
  153.8086  143.7939  159.7818 H   0  0  0  0  0  0  0  0  0  0  0  0
  153.1920  143.3708  161.3602 H   0  0  0  0  0  0  0  0  0  0  0  0
  151.4626  141.9297  160.3479 H   0  0  0  0  0  0  0  0  0  0  0  0
  154.2371  141.2949  159.2251 H   0  0  0  0  0  0  0  0  0  0  0  0
  152.9383  140.1331  159.4749 H   0  0  0  0  0  0  0  0  0  0  0  0
  153.6834  140.9242  160.8558 H   0  0  0  0  0  0  0  0  0  0  0  0
  148.2891  132.7575  161.3752 H   0  0  0  0  0  0  0  0  0  0  0  0
  148.5813  132.7285  159.6360 H   0  0  0  0  0  0  0  0  0  0  0  0
  146.9898  133.1738  160.2561 H   0  0  0  0  0  0  0  0  0  0  0  0
  1  2  1  0  0  0  0
  1 22  1  0  0  0  0
  1 23  1  0  0  0  0
  1 24  1  0  0  0  0
  2 20  2  0  0  0  0
  2  3  1  0  0  0  0
  3  4  2  0  0  0  0
  4  5  1  0  0  0  0
  4 19  1  0  0  0  0
  5  6  1  0  0  0  0
  5 25  1  0  0  0  0
  6  7  2  0  0  0  0
  6  8  1  0  0  0  0
  8  9  1  0  0  0  0
  8 26  1  0  0  0  0
  9 10  1  0  0  0  0
  9 27  1  0  0  0  0
  9 28  1  0  0  0  0
 10 11  1  0  0  0  0
 10 29  1  0  0  0  0
 10 30  1  0  0  0  0
 11 12  1  0  0  0  0
 12 17  1  0  0  0  0
 12 13  1  0  0  0  0
 12 31  1  0  0  0  0
 13 14  1  0  0  0  0
 13 32  1  0  0  0  0
 13 33  1  0  0  0  0
 14 15  1  0  0  0  0
 14 34  1  0  0  0  0
 14 35  1  0  0  0  0
 15 16  1  0  0  0  0
 15 36  1  0  0  0  0
 15 37  1  0  0  0  0
 16 17  1  0  0  0  0
 16 38  1  0  0  0  0
 16 39  1  0  0  0  0
 17 18  1  0  0  0  0
 17 40  1  0  0  0  0
 18 41  1  0  0  0  0
 18 42  1  0  0  0  0
 18 43  1  0  0  0  0
 19 20  1  0  0  0  0
 20 21  1  0  0  0  0
 21 44  1  0  0  0  0
 21 45  1  0  0  0  0
 21 46  1  0  0  0  0
M  END
> <s_m_source_file>
AV-unprocessed.smi

> <i_m_source_file_index>
910

> <i_lp_mmshare_version>
43012

> <i_f3d_flags>
0

> <s_epik_input>
W0NIM11jMW5jKG9jMVtDSDNdKVtOSF1DKD1PKVtOSF1bQ0gyXVtDSDJdT1tDQEBIXTJbQ0gyXVtDSDJdW0NIMl1bQ0gyXVtDQEhdMltDSDNd

> <s_epik_cmdline>
J2VwaWtfcHl0aG9uJywgJy1waCcsICc3LjAnLCAnLXRuJywgJzgnLCAnLW1hJywgJzIwMCcsICctbWV0YWxfYmluZGluZycsICctaW1hZScsICc8aW5maWxlLm1hZT4nLCAnLW9tYWUnLCAnPG91dGZpbGUubWFlPic=

> <r_lp_tautomer_probability>
0.785861

> <r_epik_Ionization_Penalty>
4.15957e-05

> <r_epik_Ionization_Penalty_Charging>
0

> <r_epik_Ionization_Penalty_Neutral>
4.15957e-05

> <r_epik_State_Penalty>
0.0240523

> <r_epik_Charging_Adjusted_Penalty>
0.0240523

> <i_epik_Tot_Q>
0

> <i_epik_Tot_abs_Q>
0

> <r_epik_Metal_State_Penalty>
0.057053

> <b_epik_Metal_Only>
0

> <s_lp_Force_Field>
OPLS_2005

> <r_lp_Energy>
8.26637

> <b_lp_Chiralities_Consistent>
1

> <s_lp_Variant>
AV-unprocessed.smi:910-4

> <Gold.Version>
5.8.1

> <Gold.Id.Protein>
6NUR|6NUR_protein|mol2

> <Gold.PLP.Fitness>
46.7474

> <Gold.PLP.PLP>
-42.1170

> <Gold.PLP.part.hbond>
-2.9483

> <Gold.PLP.part.metal>
0.0000

> <Gold.PLP.part.buried>
-5.4038

> <Gold.PLP.part.nonpolar>
-33.4627

> <Gold.PLP.part.repulsive>
0.1914

> <Gold.PLP.ligand.clash>
0.0000

> <Gold.PLP.ligand.torsion>
1.0056

> <Gold.PLP.Chemscore.Hbond>
2.1985

> <Gold.PLP.Chemscore.CHOScore>
0.0000

> <Gold.PLP.Chemscore.Metal>
0.0000

> <Gold.Chemscore.Hbonds>
donor molecule, donor type, donor heavy atom, donor atom, acceptor molecule, acceptor atom, score
      P1  H  6896  6909       L1    19  0.95
      P1  H  6931  6943       L1     3  0.96

> <Gold.PLP.Chemscore.Internal.Correction>
0.0460

> <Gold.Rescore>
     Score         DG    S(hbond)    S(metal)    S(lipo)     H(rot)  DE(clash)    DE(int)     intcor
     20.51     -21.71       2.05        0.00     116.42       1.66       0.08       1.12       ----

> <Gold.Chemscore.Fitness>
20.5116

> <Gold.Chemscore.DG>
-21.7092

> <Gold.Chemscore.ZeroCoef>
-5.4800

> <Gold.Chemscore.Hbond>
2.0513

> <Gold.Chemscore.Metal>
0.0000

> <Gold.Chemscore.Lipo>
116.4238

> <Gold.Chemscore.Internal_Hbond>
0.0000

> <Gold.Chemscore.DEClash>
0.0803

> <Gold.Chemscore.DEInternal>
1.1173

> <Gold.Chemscore.Rot>
1.6576

> <Gold.Chemscore.Internal.Correction>
   9.000000E+99

> <Gold.Chemscore.Hbonds>
donor molecule, donor type, donor heavy atom, donor atom, acceptor molecule, acceptor atom, score
      P1  H  6896  6909       L1    19  0.07
      P1  H  6931  6943       L1     3  0.91

> <Gold.Chemscore.Hbond.Weighted>
-6.8512

> <Gold.Chemscore.Metal.Weighted>
-0.0000

> <Gold.Chemscore.Lipo.Weighted>
-13.6216

> <Gold.Chemscore.Internal_Hbond.Weighted>
0.0000

> <Gold.Chemscore.DEClash.Weighted>
0.0803

> <Gold.Chemscore.DEInternal.Weighted>
1.1173

> <Gold.Chemscore.Rot.Weighted>
4.2436

> <Gold.Chemscore.Internal.Correction.Weighted>
   9.000000E+99

> <Gold.Protein.RotatedTorsions>
[ 6907 6896 6895 6894 ] final   43.63 input  -60.11 | X-H torsion
[ 7974 7965 7964 7962 ] final   22.96 input  175.53 | X-H torsion
[ 8008 7997 7996 7995 ] final   92.74 input   59.86 | X-H torsion
[ 10167 10162 10161 10158 ] final    6.29 input  -65.29 | X-H torsion
[ 10718 10713 10712 10709 ] final   36.94 input   66.30 | X-H torsion
[ 10763 10752 10751 10750 ] final  146.23 input  -60.55 | X-H torsion
[ 11005 11000 10999 10996 ] final   38.20 input  -57.11 | X-H torsion

> <Gold.Protein.ActiveResidues>
 VAL166  LYS551  ARG553  GLY616  TRP617  ASP618  TYR619  PRO620  LYS621  CYS622 
 ASP623  PHE694  ASN695  SER759  ASP760  ASP761  ALA762  ILE779  LEU786  VAL792 
 PHE793  MET794  SER795  GLU796  ALA797  LYS798  CYS799  TRP800  GLU811  SER814 

> <Gold.Protein.RotatedAtoms>
  152.2226  134.8398  160.0483 H   0  0  0  0  0  0  0  0  0  0  0  0  # atno 6907 bound_to 6896
  151.9176  133.3572  159.3894 H   0  0  0  0  0  0  0  0  0  0  0  0  # atno 6908 bound_to 6896
  150.7004  134.4593  159.5417 H   0  0  0  0  0  0  0  0  0  0  0  0  # atno 6909 bound_to 6896
  146.2006  139.7811  142.8765 H   0  0  0  0  0  0  0  0  0  0  0  0  # atno 7974 bound_to 7965
  156.0388  140.3321  155.7220 H   0  0  0  0  0  0  0  0  0  0  0  0  # atno 8008 bound_to 7997
  155.5775  140.0634  157.2809 H   0  0  0  0  0  0  0  0  0  0  0  0  # atno 8009 bound_to 7997
  154.4384  140.1850  156.0931 H   0  0  0  0  0  0  0  0  0  0  0  0  # atno 8010 bound_to 7997
  140.6436  143.7716  150.7464 H   0  0  0  0  0  0  0  0  0  0  0  0  # atno 10167 bound_to 10162
  157.3410  130.7548  149.6912 H   0  0  0  0  0  0  0  0  0  0  0  0  # atno 10718 bound_to 10713
  154.0184  135.2908  155.3384 H   0  0  0  0  0  0  0  0  0  0  0  0  # atno 10763 bound_to 10752
  154.7061  135.5169  153.8600 H   0  0  0  0  0  0  0  0  0  0  0  0  # atno 10764 bound_to 10752
  153.0692  135.6641  154.0409 H   0  0  0  0  0  0  0  0  0  0  0  0  # atno 10765 bound_to 10752
  140.2149  134.3710  155.8031 H   0  0  0  0  0  0  0  0  0  0  0  0  # atno 11005 bound_to 11000
  145.3498  141.0305  143.3345 LP  0  0  0  0  0  0  0  0  0  0  0  0  # atno 17320 bound_to 7965
  144.8674  139.5088  143.6784 LP  0  0  0  0  0  0  0  0  0  0  0  0  # atno 17321 bound_to 7965
  140.1352  143.4490  152.2229 LP  0  0  0  0  0  0  0  0  0  0  0  0  # atno 17342 bound_to 10162
  139.5645  144.7427  151.4060 LP  0  0  0  0  0  0  0  0  0  0  0  0  # atno 17343 bound_to 10162
  155.9707  130.4168  150.4247 LP  0  0  0  0  0  0  0  0  0  0  0  0  # atno 17370 bound_to 10713
  157.2294  131.0501  151.2501 LP  0  0  0  0  0  0  0  0  0  0  0  0  # atno 17371 bound_to 10713
  141.2225  133.7163  156.8480 LP  0  0  0  0  0  0  0  0  0  0  0  0  # atno 17394 bound_to 11000
  140.1911  134.8965  157.3061 LP  0  0  0  0  0  0  0  0  0  0  0  0  # atno 17395 bound_to 11000

$$$$
