AV-unprocessed.smi:1120|AV-procd|sdf|4821|dock3
  -GOLD-   22720 3373D 1   1.00000     0.00000
 Structure written by MMmdl.
 49 50  0  0  0  0  0  0  0  0  2 V2000
  152.9069  142.9056  161.5582 C   0  0  0  0  0  0  0  0  0  0  0  0
  152.8726  142.8779  160.0238 C   0  0  2  0  0  0  0  0  0  0  0  0
  152.1331  144.1025  159.4559 C   0  0  0  0  0  0  0  0  0  0  0  0
  152.1122  144.0965  157.9180 C   0  0  0  0  0  0  0  0  0  0  0  0
  151.5584  142.7804  157.3378 C   0  0  2  0  0  0  0  0  0  0  0  0
  150.0995  142.7213  157.4756 N   0  0  0  0  0  0  0  0  0  0  0  0
  149.1877  141.3947  156.8549 S   0  0  0  0  0  0  0  0  0  0  0  0
  149.7070  140.1633  157.4700 O   0  0  0  0  0  0  0  0  0  0  0  0
  147.7648  141.7411  156.9932 O   0  0  0  0  0  0  0  0  0  0  0  0
  149.6187  141.3941  155.0595 C   0  0  0  0  0  0  0  0  0  0  0  0
  150.1294  140.0147  154.6493 C   0  0  0  0  0  0  0  0  0  0  0  0
  151.3142  139.8602  154.3563 O   0  0  0  0  0  0  0  0  0  0  0  0
  149.2296  139.0193  154.6338 N   0  0  0  0  0  0  0  0  0  0  0  0
  149.5139  137.6333  154.2736 C   0  0  0  0  0  0  0  0  0  0  0  0
  150.4454  136.9136  155.2712 C   0  0  0  0  0  0  0  0  0  0  0  0
  150.5384  135.4127  155.0555 C   0  0  0  0  0  0  0  0  0  0  0  0
  151.2003  134.5649  155.9696 C   0  0  0  0  0  0  0  0  0  0  0  0
  151.2683  133.1816  155.7016 C   0  0  0  0  0  0  0  0  0  0  0  0
  150.6741  132.6752  154.5270 C   0  0  0  0  0  0  0  0  0  0  0  0
  150.0243  133.5666  153.6495 C   0  0  0  0  0  0  0  0  0  0  0  0
  149.9819  134.8851  153.9408 N   0  3  0  0  0  0  0  0  0  0  0  0
  152.2119  141.5328  157.9619 C   0  0  0  0  0  0  0  0  0  0  0  0
  152.2309  141.5809  159.4991 C   0  0  0  0  0  0  0  0  0  0  0  0
  151.9013  142.8740  161.9784 H   0  0  0  0  0  0  0  0  0  0  0  0
  153.3921  143.8108  161.9241 H   0  0  0  0  0  0  0  0  0  0  0  0
  153.4601  142.0532  161.9538 H   0  0  0  0  0  0  0  0  0  0  0  0
  153.9046  142.9119  159.6714 H   0  0  0  0  0  0  0  0  0  0  0  0
  151.1098  144.1226  159.8335 H   0  0  0  0  0  0  0  0  0  0  0  0
  152.6069  145.0198  159.8073 H   0  0  0  0  0  0  0  0  0  0  0  0
  151.5442  144.9506  157.5482 H   0  0  0  0  0  0  0  0  0  0  0  0
  153.1320  144.2352  157.5570 H   0  0  0  0  0  0  0  0  0  0  0  0
  151.7857  142.7654  156.2714 H   0  0  0  0  0  0  0  0  0  0  0  0
  149.6183  143.6203  157.4540 H   0  0  0  0  0  0  0  0  0  0  0  0
  148.7377  141.6715  154.4804 H   0  0  0  0  0  0  0  0  0  0  0  0
  150.3913  142.1427  154.8842 H   0  0  0  0  0  0  0  0  0  0  0  0
  148.2766  139.2366  154.8894 H   0  0  0  0  0  0  0  0  0  0  0  0
  148.5586  137.1094  154.2329 H   0  0  0  0  0  0  0  0  0  0  0  0
  149.9310  137.5877  153.2663 H   0  0  0  0  0  0  0  0  0  0  0  0
  151.4467  137.3417  155.2083 H   0  0  0  0  0  0  0  0  0  0  0  0
  150.1070  137.1005  156.2912 H   0  0  0  0  0  0  0  0  0  0  0  0
  151.6538  134.9687  156.8631 H   0  0  0  0  0  0  0  0  0  0  0  0
  151.7724  132.5168  156.3878 H   0  0  0  0  0  0  0  0  0  0  0  0
  150.7170  131.6197  154.3017 H   0  0  0  0  0  0  0  0  0  0  0  0
  149.5465  133.2695  152.7274 H   0  0  0  0  0  0  0  0  0  0  0  0
  151.7097  140.6276  157.6183 H   0  0  0  0  0  0  0  0  0  0  0  0
  153.2398  141.4601  157.6047 H   0  0  0  0  0  0  0  0  0  0  0  0
  152.7736  140.7155  159.8810 H   0  0  0  0  0  0  0  0  0  0  0  0
  151.2116  141.4948  159.8781 H   0  0  0  0  0  0  0  0  0  0  0  0
  149.5118  135.5123  153.2870 H   0  0  0  0  0  0  0  0  0  0  0  0
  1  2  1  0  0  0  0
  1 24  1  0  0  0  0
  1 25  1  0  0  0  0
  1 26  1  0  0  0  0
  2 23  1  0  0  0  0
  2  3  1  0  0  0  0
  2 27  1  0  0  0  0
  3  4  1  0  0  0  0
  3 28  1  0  0  0  0
  3 29  1  0  0  0  0
  4  5  1  0  0  0  0
  4 30  1  0  0  0  0
  4 31  1  0  0  0  0
  5  6  1  0  0  0  0
  5 22  1  0  0  0  0
  5 32  1  0  0  0  0
  6  7  1  0  0  0  0
  6 33  1  0  0  0  0
  7  8  2  0  0  0  0
  7  9  2  0  0  0  0
  7 10  1  0  0  0  0
 10 11  1  0  0  0  0
 10 34  1  0  0  0  0
 10 35  1  0  0  0  0
 11 12  2  0  0  0  0
 11 13  1  0  0  0  0
 13 14  1  0  0  0  0
 13 36  1  0  0  0  0
 14 15  1  0  0  0  0
 14 37  1  0  0  0  0
 14 38  1  0  0  0  0
 15 16  1  0  0  0  0
 15 39  1  0  0  0  0
 15 40  1  0  0  0  0
 16 21  1  0  0  0  0
 16 17  2  0  0  0  0
 17 18  1  0  0  0  0
 17 41  1  0  0  0  0
 18 19  2  0  0  0  0
 18 42  1  0  0  0  0
 19 20  1  0  0  0  0
 19 43  1  0  0  0  0
 20 21  2  0  0  0  0
 20 44  1  0  0  0  0
 21 49  1  0  0  0  0
 22 23  1  0  0  0  0
 22 45  1  0  0  0  0
 22 46  1  0  0  0  0
 23 47  1  0  0  0  0
 23 48  1  0  0  0  0
M  CHG  1  21   1
M  END
> <s_m_source_file>
AV-unprocessed.smi

> <i_m_source_file_index>
1120

> <i_lp_mmshare_version>
43012

> <i_f3d_flags>
0

> <s_epik_input>
W0NIM11bQ0BASF0xW0NIMl1bQ0gyXVtDQEhdKFtDSDJdW0NIMl0xKVtOSF1TKD1PKSg9TylbQ0gyXUMoPU8pW05IXVtDSDJdW0NIMl1jMltjSF1bY0hdW2NIXVtjSF1uMg==

> <s_epik_cmdline>
J2VwaWtfcHl0aG9uJywgJy1waCcsICc3LjAnLCAnLXRuJywgJzgnLCAnLW1hJywgJzIwMCcsICctbWV0YWxfYmluZGluZycsICctaW1hZScsICc8aW5maWxlLm1hZT4nLCAnLW9tYWUnLCAnPG91dGZpbGUubWFlPic=

> <r_epik_Ionization_Penalty>
1.97387

> <r_epik_Ionization_Penalty_Charging>
1.97382

> <r_epik_Ionization_Penalty_Neutral>
4.57635e-05

> <r_epik_State_Penalty>
2.10057

> <r_epik_Charging_Adjusted_Penalty>
4.07439

> <i_epik_Tot_Q>
1

> <i_epik_Tot_abs_Q>
1

> <r_epik_Metal_State_Penalty>
2.15877

> <b_epik_Metal_Only>
0

> <s_lp_Force_Field>
OPLS_2005

> <r_lp_Energy>
8.31708

> <b_lp_Chiralities_Consistent>
1

> <s_lp_Variant>
AV-unprocessed.smi:1120-4

> <Gold.Version>
5.8.1

> <Gold.Id.Protein>
6NUR|6NUR_protein|mol2

> <Gold.PLP.Fitness>
55.2345

> <Gold.PLP.PLP>
-45.0465

> <Gold.PLP.part.hbond>
-3.0000

> <Gold.PLP.part.metal>
0.0000

> <Gold.PLP.part.buried>
-5.7755

> <Gold.PLP.part.nonpolar>
-37.4904

> <Gold.PLP.part.repulsive>
0.3265

> <Gold.PLP.ligand.clash>
0.0000

> <Gold.PLP.ligand.torsion>
0.8349

> <Gold.PLP.Chemscore.Hbond>
3.5600

> <Gold.PLP.Chemscore.CHOScore>
0.0000

> <Gold.PLP.Chemscore.Metal>
0.0000

> <Gold.Chemscore.Hbonds>
donor molecule, donor type, donor heavy atom, donor atom, acceptor molecule, acceptor atom, score
      L1  H     6    33       P1  8028  0.32
      L1  H    21    49       P1  7948  1.40
      P1  H  7989  7998       L1    12  0.57

> <Gold.PLP.Chemscore.Internal.Correction>
1.1777

> <Gold.Rescore>
     Score         DG    S(hbond)    S(metal)    S(lipo)     H(rot)  DE(clash)    DE(int)     intcor
     17.85     -19.73       1.95        0.00     110.86       2.05       0.10       1.78       ----

> <Gold.Chemscore.Fitness>
17.8517

> <Gold.Chemscore.DG>
-19.7301

> <Gold.Chemscore.ZeroCoef>
-5.4800

> <Gold.Chemscore.Hbond>
1.9514

> <Gold.Chemscore.Metal>
0.0000

> <Gold.Chemscore.Lipo>
110.8632

> <Gold.Chemscore.Internal_Hbond>
0.0000

> <Gold.Chemscore.DEClash>
0.1012

> <Gold.Chemscore.DEInternal>
1.7771

> <Gold.Chemscore.Rot>
2.0463

> <Gold.Chemscore.Internal.Correction>
   9.000000E+99

> <Gold.Chemscore.Hbonds>
donor molecule, donor type, donor heavy atom, donor atom, acceptor molecule, acceptor atom, score
      L1  H     6    33       P1  8028  0.22
      L1  H    21    49       P1  7948  0.07
      P1  H  7989  7998       L1    12  0.34

> <Gold.Chemscore.Hbond.Weighted>
-6.5176

> <Gold.Chemscore.Metal.Weighted>
-0.0000

> <Gold.Chemscore.Lipo.Weighted>
-12.9710

> <Gold.Chemscore.Internal_Hbond.Weighted>
0.0000

> <Gold.Chemscore.DEClash.Weighted>
0.1012

> <Gold.Chemscore.DEInternal.Weighted>
1.7771

> <Gold.Chemscore.Rot.Weighted>
5.2386

> <Gold.Chemscore.Internal.Correction.Weighted>
   9.000000E+99

> <Gold.Protein.RotatedTorsions>
[ 6907 6896 6895 6894 ] final  -27.48 input  -60.11 | X-H torsion
[ 7974 7965 7964 7962 ] final  -69.45 input  175.53 | X-H torsion
[ 8008 7997 7996 7995 ] final  132.90 input   59.86 | X-H torsion
[ 10167 10162 10161 10158 ] final -171.38 input  -65.29 | X-H torsion
[ 10718 10713 10712 10709 ] final  -53.11 input   66.30 | X-H torsion
[ 10763 10752 10751 10750 ] final -118.52 input  -60.55 | X-H torsion
[ 11005 11000 10999 10996 ] final   57.13 input  -57.11 | X-H torsion

> <Gold.Protein.ActiveResidues>
 VAL166  LYS551  ARG553  GLY616  TRP617  ASP618  TYR619  PRO620  LYS621  CYS622 
 ASP623  PHE694  ASN695  SER759  ASP760  ASP761  ALA762  ILE779  LEU786  VAL792 
 PHE793  MET794  SER795  GLU796  ALA797  LYS798  CYS799  TRP800  GLU811  SER814 

> <Gold.Protein.RotatedAtoms>
  151.1462  135.0204  159.8647 H   0  0  0  0  0  0  0  0  0  0  0  0  # atno 6907 bound_to 6896
  152.5453  134.1441  159.8501 H   0  0  0  0  0  0  0  0  0  0  0  0  # atno 6908 bound_to 6896
  151.1522  133.4854  159.2628 H   0  0  0  0  0  0  0  0  0  0  0  0  # atno 6909 bound_to 6896
  145.7037  140.9106  143.0717 H   0  0  0  0  0  0  0  0  0  0  0  0  # atno 7974 bound_to 7965
  156.2987  140.2535  156.3165 H   0  0  0  0  0  0  0  0  0  0  0  0  # atno 8008 bound_to 7997
  154.9276  140.0399  157.2050 H   0  0  0  0  0  0  0  0  0  0  0  0  # atno 8009 bound_to 7997
  154.8249  140.2866  155.5766 H   0  0  0  0  0  0  0  0  0  0  0  0  # atno 8010 bound_to 7997
  139.5806  144.1432  152.1510 H   0  0  0  0  0  0  0  0  0  0  0  0  # atno 10167 bound_to 10162
  156.1563  130.4150  149.9864 H   0  0  0  0  0  0  0  0  0  0  0  0  # atno 10718 bound_to 10713
  154.8590  135.4271  154.2152 H   0  0  0  0  0  0  0  0  0  0  0  0  # atno 10763 bound_to 10752
  153.3169  135.6979  153.7071 H   0  0  0  0  0  0  0  0  0  0  0  0  # atno 10764 bound_to 10752
  153.6141  135.3514  155.2962 H   0  0  0  0  0  0  0  0  0  0  0  0  # atno 10765 bound_to 10752
  140.0476  134.5783  155.9303 H   0  0  0  0  0  0  0  0  0  0  0  0  # atno 11005 bound_to 11000
  144.6961  139.8981  143.7457 LP  0  0  0  0  0  0  0  0  0  0  0  0  # atno 17320 bound_to 7965
  146.0775  139.3763  143.0485 LP  0  0  0  0  0  0  0  0  0  0  0  0  # atno 17321 bound_to 7965
  140.0984  144.5560  150.7005 LP  0  0  0  0  0  0  0  0  0  0  0  0  # atno 17342 bound_to 10162
  140.7084  143.2486  151.4655 LP  0  0  0  0  0  0  0  0  0  0  0  0  # atno 17343 bound_to 10162
  156.7707  130.9185  151.3644 LP  0  0  0  0  0  0  0  0  0  0  0  0  # atno 17370 bound_to 10713
  157.6697  130.9040  150.0013 LP  0  0  0  0  0  0  0  0  0  0  0  0  # atno 17371 bound_to 10713
  141.1915  133.6572  156.5458 LP  0  0  0  0  0  0  0  0  0  0  0  0  # atno 17394 bound_to 11000
  140.3968  134.7392  157.4755 LP  0  0  0  0  0  0  0  0  0  0  0  0  # atno 17395 bound_to 11000

$$$$
