AV-unprocessed.smi:689|AV-procd|sdf|3358|dock2
  -GOLD-   22720 0333D 1   1.00000     0.00000
 Structure written by MMmdl.
 33 34  0  0  0  0  0  0  0  0  2 V2000
  153.1925  138.1681  158.1191 C   0  0  0  0  0  0  0  0  0  0  0  0
  152.3859  138.5314  156.9054 C   0  0  0  0  0  0  0  0  0  0  0  0
  152.8136  139.4916  156.1023 N   0  0  0  0  0  0  0  0  0  0  0  0
  151.8676  139.5829  155.0768 O   0  0  0  0  0  0  0  0  0  0  0  0
  150.8967  138.6622  155.3048 C   0  0  0  0  0  0  0  0  0  0  0  0
  149.7898  138.5974  154.3081 C   0  0  0  0  0  0  0  0  0  0  0  0
  151.1601  137.9645  156.4513 C   0  0  0  0  0  0  0  0  0  0  0  0
  150.3560  136.8559  157.0830 C   0  0  0  0  0  0  0  0  0  0  0  0
  149.9700  137.2445  158.5136 C   0  0  0  0  0  0  0  0  0  0  0  0
  150.2346  138.3762  158.9197 O   0  0  0  0  0  0  0  0  0  0  0  0
  149.3440  136.2349  159.1592 N   0  5  0  0  0  0  0  0  0  0  0  0
  148.1493  136.5153  160.2106 S   0  0  0  0  0  0  0  0  0  0  0  0
  148.6416  136.7318  161.5801 O   0  0  0  0  0  0  0  0  0  0  0  0
  147.1537  137.4664  159.6924 O   0  0  0  0  0  0  0  0  0  0  0  0
  147.3200  134.8687  160.2266 C   0  0  0  0  0  0  0  0  0  0  0  0
  147.1974  134.3157  161.6329 C   0  0  0  0  0  0  0  0  0  0  0  0
  145.9584  133.5691  162.0717 C   0  0  0  0  0  0  0  0  0  0  0  0
  146.2454  134.9413  162.6276 C   0  0  0  0  0  0  0  0  0  0  0  0
  152.5468  137.9704  158.9747 H   0  0  0  0  0  0  0  0  0  0  0  0
  153.8777  138.9677  158.4022 H   0  0  0  0  0  0  0  0  0  0  0  0
  153.7849  137.2712  157.9370 H   0  0  0  0  0  0  0  0  0  0  0  0
  149.3612  137.5960  154.2671 H   0  0  0  0  0  0  0  0  0  0  0  0
  150.1488  138.8494  153.3101 H   0  0  0  0  0  0  0  0  0  0  0  0
  148.9948  139.2954  154.5697 H   0  0  0  0  0  0  0  0  0  0  0  0
  149.4644  136.6238  156.4979 H   0  0  0  0  0  0  0  0  0  0  0  0
  150.9292  135.9289  157.1194 H   0  0  0  0  0  0  0  0  0  0  0  0
  146.3344  134.9795  159.7741 H   0  0  0  0  0  0  0  0  0  0  0  0
  147.9004  134.1798  159.6132 H   0  0  0  0  0  0  0  0  0  0  0  0
  148.1423  133.9693  162.0473 H   0  0  0  0  0  0  0  0  0  0  0  0
  145.1400  133.4779  161.3601 H   0  0  0  0  0  0  0  0  0  0  0  0
  146.0948  132.7184  162.7364 H   0  0  0  0  0  0  0  0  0  0  0  0
  146.5753  135.0087  163.6622 H   0  0  0  0  0  0  0  0  0  0  0  0
  145.6171  135.7609  162.2847 H   0  0  0  0  0  0  0  0  0  0  0  0
  1  2  1  0  0  0  0
  1 19  1  0  0  0  0
  1 20  1  0  0  0  0
  1 21  1  0  0  0  0
  2  7  1  0  0  0  0
  2  3  2  0  0  0  0
  3  4  1  0  0  0  0
  4  5  1  0  0  0  0
  5  6  1  0  0  0  0
  5  7  2  0  0  0  0
  6 22  1  0  0  0  0
  6 23  1  0  0  0  0
  6 24  1  0  0  0  0
  7  8  1  0  0  0  0
  8  9  1  0  0  0  0
  8 25  1  0  0  0  0
  8 26  1  0  0  0  0
  9 10  2  0  0  0  0
  9 11  1  0  0  0  0
 11 12  1  0  0  0  0
 12 13  2  0  0  0  0
 12 14  2  0  0  0  0
 12 15  1  0  0  0  0
 15 16  1  0  0  0  0
 15 27  1  0  0  0  0
 15 28  1  0  0  0  0
 16 18  1  0  0  0  0
 16 17  1  0  0  0  0
 16 29  1  0  0  0  0
 17 18  1  0  0  0  0
 17 30  1  0  0  0  0
 17 31  1  0  0  0  0
 18 32  1  0  0  0  0
 18 33  1  0  0  0  0
M  CHG  1  11  -1
M  END
> <s_m_source_file>
AV-unprocessed.smi

> <i_m_source_file_index>
689

> <i_lp_mmshare_version>
43012

> <i_f3d_flags>
0

> <s_epik_input>
W0NIM11jMW5vYyhbQ0gzXSljMVtDSDJdQyg9TylbTkhdUyg9TykoPU8pW0NIMl1bQ0hdMltDSDJdW0NIMl0y

> <s_epik_cmdline>
J2VwaWtfcHl0aG9uJywgJy1waCcsICc3LjAnLCAnLXRuJywgJzgnLCAnLW1hJywgJzIwMCcsICctbWV0YWxfYmluZGluZycsICctaW1hZScsICc8aW5maWxlLm1hZT4nLCAnLW9tYWUnLCAnPG91dGZpbGUubWFlPic=

> <r_epik_Ionization_Penalty>
0.0117783

> <r_epik_Ionization_Penalty_Charging>
0.0117783

> <r_epik_Ionization_Penalty_Neutral>
2.69026e-10

> <r_epik_State_Penalty>
0.00908283

> <r_epik_Charging_Adjusted_Penalty>
0.0208612

> <i_epik_Tot_Q>
-1

> <i_epik_Tot_abs_Q>
1

> <r_epik_Metal_State_Penalty>
0.00890557

> <b_epik_Metal_Only>
0

> <s_lp_Force_Field>
OPLS_2005

> <r_lp_Energy>
1.25467

> <b_lp_Chiralities_Consistent>
1

> <s_lp_Variant>
AV-unprocessed.smi:689-1

> <Gold.Version>
5.8.1

> <Gold.Id.Protein>
6NUR|6NUR_protein|mol2

> <Gold.PLP.Fitness>
44.9269

> <Gold.PLP.PLP>
-28.2623

> <Gold.PLP.part.hbond>
-5.2216

> <Gold.PLP.part.metal>
0.0000

> <Gold.PLP.part.buried>
-4.6820

> <Gold.PLP.part.nonpolar>
-19.4592

> <Gold.PLP.part.repulsive>
0.0267

> <Gold.PLP.ligand.clash>
0.0000

> <Gold.PLP.ligand.torsion>
1.2555

> <Gold.PLP.Chemscore.Hbond>
5.8543

> <Gold.PLP.Chemscore.CHOScore>
0.0000

> <Gold.PLP.Chemscore.Metal>
0.0000

> <Gold.Chemscore.Hbonds>
donor molecule, donor type, donor heavy atom, donor atom, acceptor molecule, acceptor atom, score
      P1  H  6896  6909       L1    11  1.66
      P1  H  6931  6943       L1    13  1.00
      P1  H  6934  6947       L1    14  0.93
      P1  H  7989  7998       L1     4  0.97
      P1  H  7997  8008       L1     3  1.00

> <Gold.PLP.Chemscore.Internal.Correction>
1.6129

> <Gold.Rescore>
     Score         DG    S(hbond)    S(metal)    S(lipo)     H(rot)  DE(clash)    DE(int)     intcor
     18.88     -20.54       3.78        0.00      55.97       1.61       0.13       1.53       ----

> <Gold.Chemscore.Fitness>
18.8837

> <Gold.Chemscore.DG>
-20.5437

> <Gold.Chemscore.ZeroCoef>
-5.4800

> <Gold.Chemscore.Hbond>
3.7802

> <Gold.Chemscore.Metal>
0.0000

> <Gold.Chemscore.Lipo>
55.9718

> <Gold.Chemscore.Internal_Hbond>
0.0000

> <Gold.Chemscore.DEClash>
0.1334

> <Gold.Chemscore.DEInternal>
1.5266

> <Gold.Chemscore.Rot>
1.6058

> <Gold.Chemscore.Internal.Correction>
   9.000000E+99

> <Gold.Chemscore.Hbonds>
donor molecule, donor type, donor heavy atom, donor atom, acceptor molecule, acceptor atom, score
      P1  H  6896  6909       L1    11  0.55
      P1  H  6931  6943       L1    13  0.89
      P1  H  6934  6947       L1    14  0.53
      P1  H  7989  7998       L1     4  0.85
      P1  H  7997  8008       L1     3  0.75

> <Gold.Chemscore.Hbond.Weighted>
-12.6258

> <Gold.Chemscore.Metal.Weighted>
-0.0000

> <Gold.Chemscore.Lipo.Weighted>
-6.5487

> <Gold.Chemscore.Internal_Hbond.Weighted>
0.0000

> <Gold.Chemscore.DEClash.Weighted>
0.1334

> <Gold.Chemscore.DEInternal.Weighted>
1.5266

> <Gold.Chemscore.Rot.Weighted>
4.1108

> <Gold.Chemscore.Internal.Correction.Weighted>
   9.000000E+99

> <Gold.Protein.RotatedTorsions>
[ 6907 6896 6895 6894 ] final   61.98 input  -60.11 | X-H torsion
[ 7974 7965 7964 7962 ] final  -57.02 input  175.53 | X-H torsion
[ 8008 7997 7996 7995 ] final  -59.44 input   59.86 | X-H torsion
[ 10167 10162 10161 10158 ] final   78.08 input  -65.29 | X-H torsion
[ 10718 10713 10712 10709 ] final  -48.52 input   66.30 | X-H torsion
[ 10763 10752 10751 10750 ] final   93.52 input  -60.55 | X-H torsion
[ 11005 11000 10999 10996 ] final  173.50 input  -57.11 | X-H torsion

> <Gold.Protein.ActiveResidues>
 VAL166  LYS551  ARG553  GLY616  TRP617  ASP618  TYR619  PRO620  LYS621  CYS622 
 ASP623  PHE694  ASN695  SER759  ASP760  ASP761  ALA762  ILE779  LEU786  VAL792 
 PHE793  MET794  SER795  GLU796  ALA797  LYS798  CYS799  TRP800  GLU811  SER814 

> <Gold.Protein.RotatedAtoms>
  152.4134  134.6084  160.0018 H   0  0  0  0  0  0  0  0  0  0  0  0  # atno 6907 bound_to 6896
  151.6255  133.3330  159.3105 H   0  0  0  0  0  0  0  0  0  0  0  0  # atno 6908 bound_to 6896
  150.8024  134.7166  159.6679 H   0  0  0  0  0  0  0  0  0  0  0  0  # atno 6909 bound_to 6896
  145.8559  140.8319  142.9961 H   0  0  0  0  0  0  0  0  0  0  0  0  # atno 7974 bound_to 7965
  154.4352  140.1061  156.6116 H   0  0  0  0  0  0  0  0  0  0  0  0  # atno 8008 bound_to 7997
  155.5803  140.3490  155.4520 H   0  0  0  0  0  0  0  0  0  0  0  0  # atno 8009 bound_to 7997
  156.0323  140.1263  157.0234 H   0  0  0  0  0  0  0  0  0  0  0  0  # atno 8010 bound_to 7997
  139.9747  144.5869  150.7953 H   0  0  0  0  0  0  0  0  0  0  0  0  # atno 10167 bound_to 10162
  156.1980  130.4155  149.9280 H   0  0  0  0  0  0  0  0  0  0  0  0  # atno 10718 bound_to 10713
  153.2312  135.4322  155.0597 H   0  0  0  0  0  0  0  0  0  0  0  0  # atno 10763 bound_to 10752
  154.8297  135.3380  154.6784 H   0  0  0  0  0  0  0  0  0  0  0  0  # atno 10764 bound_to 10752
  153.7211  135.7017  153.5069 H   0  0  0  0  0  0  0  0  0  0  0  0  # atno 10765 bound_to 10752
  140.3412  134.7275  157.4203 H   0  0  0  0  0  0  0  0  0  0  0  0  # atno 11005 bound_to 11000
  144.6727  140.1023  143.7460 LP  0  0  0  0  0  0  0  0  0  0  0  0  # atno 17320 bound_to 7965
  145.9304  139.2602  143.1328 LP  0  0  0  0  0  0  0  0  0  0  0  0  # atno 17321 bound_to 7965
  140.7510  143.2964  151.3193 LP  0  0  0  0  0  0  0  0  0  0  0  0  # atno 17342 bound_to 10162
  139.6454  144.0461  152.2587 LP  0  0  0  0  0  0  0  0  0  0  0  0  # atno 17343 bound_to 10162
  156.6999  130.8929  151.3598 LP  0  0  0  0  0  0  0  0  0  0  0  0  # atno 17370 bound_to 10713
  157.6969  130.9291  150.0670 LP  0  0  0  0  0  0  0  0  0  0  0  0  # atno 17371 bound_to 10713
  140.0780  134.5771  155.8571 LP  0  0  0  0  0  0  0  0  0  0  0  0  # atno 17394 bound_to 11000
  141.2038  133.6634  156.6084 LP  0  0  0  0  0  0  0  0  0  0  0  0  # atno 17395 bound_to 11000

$$$$
