AV-unprocessed.smi:267|AV-procd|sdf|2039|dock9
  -GOLD-   2262021253D 1   1.00000     0.00000
 Structure written by MMmdl.
 51 54  0  0  0  0  0  0  0  0  1 V2000
  148.0752  144.9557  160.9442 C   0  0  0  0  0  0  0  0  0  0  0  0
  149.3863  144.4324  160.8274 O   0  0  0  0  0  0  0  0  0  0  0  0
  150.1037  144.9976  159.7425 C   0  0  0  0  0  0  0  0  0  0  0  0
  151.5766  145.2123  160.1298 C   0  0  0  0  0  0  0  0  0  0  0  0
  152.2436  143.9538  160.4885 N   0  0  0  0  0  0  0  0  0  0  0  0
  152.5766  143.0920  159.3455 C   0  0  0  0  0  0  0  0  0  0  0  0
  152.8107  141.6291  159.7411 C   0  0  0  0  0  0  0  0  0  0  0  0
  153.7043  141.5758  160.8892 N   0  0  0  0  0  0  0  0  0  0  0  0
  154.4438  140.4486  161.0516 C   0  0  0  0  0  0  0  0  0  0  0  0
  155.5783  140.4925  161.7999 N   0  0  0  0  0  0  0  0  0  0  0  0
  156.3168  139.3926  161.9752 C   0  0  0  0  0  0  0  0  0  0  0  0
  156.1129  138.1651  161.4938 N   0  0  0  0  0  0  0  0  0  0  0  0
  154.9848  138.1170  160.7300 C   0  0  0  0  0  0  0  0  0  0  0  0
  154.1005  139.1994  160.4593 C   0  0  0  0  0  0  0  0  0  0  0  0
  153.0712  138.7683  159.6292 N   0  0  0  0  0  0  0  0  0  0  0  0
  153.3249  137.5035  159.4319 C   0  0  0  0  0  0  0  0  0  0  0  0
  154.4540  137.0295  160.0599 N   0  0  0  0  0  0  0  0  0  0  0  0
  154.9752  135.6752  160.0123 C   0  0  0  0  0  0  0  0  0  0  0  0
  155.3424  135.1822  158.5891 C   0  0  0  0  0  0  0  0  0  0  0  0
  155.6612  133.6803  158.6606 C   0  0  0  0  0  0  0  0  0  0  0  0
  154.6087  132.9537  159.2640 O   0  0  0  0  0  0  0  0  0  0  0  0
  154.4389  135.5694  157.3997 C   0  0  0  0  0  0  0  0  0  0  0  0
  155.5741  135.9803  156.6106 O   0  0  0  0  0  0  0  0  0  0  0  0
  156.3668  136.0276  157.8154 C   0  0  0  0  0  0  0  0  0  0  0  0
  153.2878  142.3252  162.0791 C   0  0  0  0  0  0  0  0  0  0  0  0
  152.5765  143.6561  161.7697 C   0  0  0  0  0  0  0  0  0  0  0  0
  152.3316  144.4098  162.7120 O   0  0  0  0  0  0  0  0  0  0  0  0
  147.5673  144.4872  161.7870 H   0  0  0  0  0  0  0  0  0  0  0  0
  147.4899  144.7569  160.0457 H   0  0  0  0  0  0  0  0  0  0  0  0
  148.0948  146.0322  161.1194 H   0  0  0  0  0  0  0  0  0  0  0  0
  150.0317  144.3578  158.8612 H   0  0  0  0  0  0  0  0  0  0  0  0
  149.6579  145.9582  159.4806 H   0  0  0  0  0  0  0  0  0  0  0  0
  152.1018  145.6641  159.2870 H   0  0  0  0  0  0  0  0  0  0  0  0
  151.6518  145.9428  160.9369 H   0  0  0  0  0  0  0  0  0  0  0  0
  151.7874  143.1391  158.5937 H   0  0  0  0  0  0  0  0  0  0  0  0
  153.4783  143.4896  158.8777 H   0  0  0  0  0  0  0  0  0  0  0  0
  151.8636  141.1658  160.0217 H   0  0  0  0  0  0  0  0  0  0  0  0
  153.1817  141.0703  158.8832 H   0  0  0  0  0  0  0  0  0  0  0  0
  157.1970  139.5144  162.5888 H   0  0  0  0  0  0  0  0  0  0  0  0
  152.6905  136.8778  158.8210 H   0  0  0  0  0  0  0  0  0  0  0  0
  155.8461  135.6270  160.6671 H   0  0  0  0  0  0  0  0  0  0  0  0
  154.2314  135.0351  160.4885 H   0  0  0  0  0  0  0  0  0  0  0  0
  155.8509  133.2718  157.6672 H   0  0  0  0  0  0  0  0  0  0  0  0
  156.5654  133.5035  159.2445 H   0  0  0  0  0  0  0  0  0  0  0  0
  154.7493  132.9408  160.1984 H   0  0  0  0  0  0  0  0  0  0  0  0
  153.9028  134.7282  156.9590 H   0  0  0  0  0  0  0  0  0  0  0  0
  153.7624  136.4079  157.5665 H   0  0  0  0  0  0  0  0  0  0  0  0
  156.4724  137.0488  158.1858 H   0  0  0  0  0  0  0  0  0  0  0  0
  157.3421  135.5544  157.6971 H   0  0  0  0  0  0  0  0  0  0  0  0
  152.6070  141.7173  162.6769 H   0  0  0  0  0  0  0  0  0  0  0  0
  154.1619  142.5366  162.6972 H   0  0  0  0  0  0  0  0  0  0  0  0
  1  2  1  0  0  0  0
  1 28  1  0  0  0  0
  1 29  1  0  0  0  0
  1 30  1  0  0  0  0
  2  3  1  0  0  0  0
  3  4  1  0  0  0  0
  3 31  1  0  0  0  0
  3 32  1  0  0  0  0
  4  5  1  0  0  0  0
  4 33  1  0  0  0  0
  4 34  1  0  0  0  0
  5 26  1  0  0  0  0
  5  6  1  0  0  0  0
  6  7  1  0  0  0  0
  6 35  1  0  0  0  0
  6 36  1  0  0  0  0
  7  8  1  0  0  0  0
  7 37  1  0  0  0  0
  7 38  1  0  0  0  0
  8  9  1  0  0  0  0
  8 25  1  0  0  0  0
  9 14  1  0  0  0  0
  9 10  2  0  0  0  0
 10 11  1  0  0  0  0
 11 12  2  0  0  0  0
 11 39  1  0  0  0  0
 12 13  1  0  0  0  0
 13 17  1  0  0  0  0
 13 14  2  0  0  0  0
 14 15  1  0  0  0  0
 15 16  2  0  0  0  0
 16 17  1  0  0  0  0
 16 40  1  0  0  0  0
 17 18  1  0  0  0  0
 18 19  1  0  0  0  0
 18 41  1  0  0  0  0
 18 42  1  0  0  0  0
 19 24  1  0  0  0  0
 19 20  1  0  0  0  0
 19 22  1  0  0  0  0
 20 21  1  0  0  0  0
 20 43  1  0  0  0  0
 20 44  1  0  0  0  0
 21 45  1  0  0  0  0
 22 23  1  0  0  0  0
 22 46  1  0  0  0  0
 22 47  1  0  0  0  0
 23 24  1  0  0  0  0
 24 48  1  0  0  0  0
 24 49  1  0  0  0  0
 25 26  1  0  0  0  0
 25 50  1  0  0  0  0
 25 51  1  0  0  0  0
 26 27  2  0  0  0  0
M  END
> <s_m_source_file>
AV-unprocessed.smi

> <i_m_source_file_index>
267

> <i_lp_mmshare_version>
43012

> <i_f3d_flags>
0

> <s_epik_input>
W0NIM11PW0NIMl1bQ0gyXU4xW0NIMl1bQ0gyXU4oW0NIMl1DMT1PKWMobltjSF1uMiljKGMyMyluW2NIXW4zW0NIMl1DNChbQ0gyXVtPSF0pW0NIMl1PW0NIMl00

> <s_epik_cmdline>
J2VwaWtfcHl0aG9uJywgJy1waCcsICc3LjAnLCAnLXRuJywgJzgnLCAnLW1hJywgJzIwMCcsICctbWV0YWxfYmluZGluZycsICctaW1hZScsICc8aW5maWxlLm1hZT4nLCAnLW9tYWUnLCAnPG91dGZpbGUubWFlPic=

> <r_lp_tautomer_probability>
1

> <r_epik_Ionization_Penalty>
0.000432285

> <r_epik_Ionization_Penalty_Charging>
0

> <r_epik_Ionization_Penalty_Neutral>
0.000432285

> <r_epik_State_Penalty>
0.000191954

> <r_epik_Charging_Adjusted_Penalty>
0.000191954

> <i_epik_Tot_Q>
0

> <i_epik_Tot_abs_Q>
0

> <r_epik_Metal_State_Penalty>
-0

> <b_epik_Metal_Only>
0

> <s_lp_Force_Field>
OPLS_2005

> <r_lp_Energy>
43.2758

> <b_lp_Chiralities_Consistent>
1

> <s_lp_Variant>
AV-unprocessed.smi:267-1

> <Gold.Version>
5.8.1

> <Gold.Id.Protein>
6NUR|6NUR_protein|mol2

> <Gold.PLP.Fitness>
51.1319

> <Gold.PLP.PLP>
-46.8573

> <Gold.PLP.part.hbond>
-4.0000

> <Gold.PLP.part.metal>
0.0000

> <Gold.PLP.part.buried>
-7.3850

> <Gold.PLP.part.nonpolar>
-37.5944

> <Gold.PLP.part.repulsive>
2.4886

> <Gold.PLP.ligand.clash>
0.0000

> <Gold.PLP.ligand.torsion>
1.2436

> <Gold.PLP.Chemscore.Hbond>
2.0641

> <Gold.PLP.Chemscore.CHOScore>
0.0000

> <Gold.PLP.Chemscore.Metal>
0.0000

> <Gold.Chemscore.Hbonds>
donor molecule, donor type, donor heavy atom, donor atom, acceptor molecule, acceptor atom, score
      P1  H  6896  6907       L1    21  0.16
      P1  H  6933  6944       L1     2  0.07

> <Gold.PLP.Chemscore.Internal.Correction>
0.5695

> <Gold.Rescore>
     Score         DG    S(hbond)    S(metal)    S(lipo)     H(rot)  DE(clash)    DE(int)     intcor
      6.22     -10.65       1.14        0.00      79.59       3.11       1.09       3.34       ----

> <Gold.Chemscore.Fitness>
6.2190

> <Gold.Chemscore.DG>
-10.6501

> <Gold.Chemscore.ZeroCoef>
-5.4800

> <Gold.Chemscore.Hbond>
1.1431

> <Gold.Chemscore.Metal>
0.0000

> <Gold.Chemscore.Lipo>
79.5896

> <Gold.Chemscore.Internal_Hbond>
0.0000

> <Gold.Chemscore.DEClash>
1.0870

> <Gold.Chemscore.DEInternal>
3.3440

> <Gold.Chemscore.Rot>
3.1093

> <Gold.Chemscore.Internal.Correction>
   9.000000E+99

> <Gold.Chemscore.Hbond.Weighted>
-3.8179

> <Gold.Chemscore.Metal.Weighted>
-0.0000

> <Gold.Chemscore.Lipo.Weighted>
-9.3120

> <Gold.Chemscore.Internal_Hbond.Weighted>
0.0000

> <Gold.Chemscore.DEClash.Weighted>
1.0870

> <Gold.Chemscore.DEInternal.Weighted>
3.3440

> <Gold.Chemscore.Rot.Weighted>
7.9599

> <Gold.Chemscore.Internal.Correction.Weighted>
   9.000000E+99

> <Gold.Protein.RotatedTorsions>
[ 6907 6896 6895 6894 ] final  116.22 input  -60.11 | X-H torsion
[ 7974 7965 7964 7962 ] final   15.74 input  175.53 | X-H torsion
[ 8008 7997 7996 7995 ] final  -94.14 input   59.86 | X-H torsion
[ 10167 10162 10161 10158 ] final  -37.12 input  -65.29 | X-H torsion
[ 10718 10713 10712 10709 ] final   75.36 input   66.30 | X-H torsion
[ 10763 10752 10751 10750 ] final   51.49 input  -60.55 | X-H torsion
[ 11005 11000 10999 10996 ] final   53.72 input  -57.11 | X-H torsion

> <Gold.Protein.ActiveResidues>
 VAL166  LYS551  ARG553  GLY616  TRP617  ASP618  TYR619  PRO620  LYS621  CYS622 
 ASP623  PHE694  ASN695  SER759  ASP760  ASP761  ALA762  ILE779  LEU786  VAL792 
 PHE793  MET794  SER795  GLU796  ALA797  LYS798  CYS799  TRP800  GLU811  SER814 

> <Gold.Protein.RotatedAtoms>
  152.4692  133.7991  159.6942 H   0  0  0  0  0  0  0  0  0  0  0  0  # atno 6907 bound_to 6896
  150.8672  133.7548  159.2979 H   0  0  0  0  0  0  0  0  0  0  0  0  # atno 6908 bound_to 6896
  151.5094  135.1068  159.9902 H   0  0  0  0  0  0  0  0  0  0  0  0  # atno 6909 bound_to 6896
  146.2270  139.8850  142.8564 H   0  0  0  0  0  0  0  0  0  0  0  0  # atno 7974 bound_to 7965
  154.7446  140.0492  157.0840 H   0  0  0  0  0  0  0  0  0  0  0  0  # atno 8008 bound_to 7997
  155.0135  140.3138  155.4801 H   0  0  0  0  0  0  0  0  0  0  0  0  # atno 8009 bound_to 7997
  156.2872  140.2180  156.5250 H   0  0  0  0  0  0  0  0  0  0  0  0  # atno 8010 bound_to 7997
  140.7126  143.3363  151.2456 H   0  0  0  0  0  0  0  0  0  0  0  0  # atno 10167 bound_to 10162
  157.6631  130.9723  150.1343 H   0  0  0  0  0  0  0  0  0  0  0  0  # atno 10718 bound_to 10713
  152.9785  135.5844  154.4424 H   0  0  0  0  0  0  0  0  0  0  0  0  # atno 10763 bound_to 10752
  154.4024  135.2769  155.2090 H   0  0  0  0  0  0  0  0  0  0  0  0  # atno 10764 bound_to 10752
  154.3916  135.6124  153.5900 H   0  0  0  0  0  0  0  0  0  0  0  0  # atno 10765 bound_to 10752
  140.0744  134.5424  155.9012 H   0  0  0  0  0  0  0  0  0  0  0  0  # atno 11005 bound_to 11000
  145.2474  141.0031  143.3900 LP  0  0  0  0  0  0  0  0  0  0  0  0  # atno 17320 bound_to 7965
  144.9402  139.4198  143.6452 LP  0  0  0  0  0  0  0  0  0  0  0  0  # atno 17321 bound_to 7965
  139.6858  143.9775  152.2833 LP  0  0  0  0  0  0  0  0  0  0  0  0  # atno 17342 bound_to 10162
  139.9421  144.6675  150.8256 LP  0  0  0  0  0  0  0  0  0  0  0  0  # atno 17343 bound_to 10162
  156.2181  130.3672  149.8588 LP  0  0  0  0  0  0  0  0  0  0  0  0  # atno 17370 bound_to 10713
  156.6448  130.8720  151.3520 LP  0  0  0  0  0  0  0  0  0  0  0  0  # atno 17371 bound_to 10713
  141.2024  133.6625  156.6004 LP  0  0  0  0  0  0  0  0  0  0  0  0  # atno 17394 bound_to 11000
  140.3579  134.7713  157.4513 LP  0  0  0  0  0  0  0  0  0  0  0  0  # atno 17395 bound_to 11000

$$$$
