AV-unprocessed.smi:716|AV-procd|sdf|3489|dock7
  -GOLD-   22720 0483D 1   1.00000     0.00000
 Structure written by MMmdl.
 48 50  0  0  0  0  0  0  0  0  1 V2000
  152.7622  138.2394  156.1396 C   0  0  0  0  0  0  0  0  0  0  0  0
  152.4535  138.5098  154.6655 C   0  0  0  0  0  0  0  0  0  0  0  0
  151.3756  139.4275  154.5851 O   0  0  0  0  0  0  0  0  0  0  0  0
  150.1174  138.7946  154.3889 C   0  0  1  0  0  0  0  0  0  0  0  0
  149.9340  137.5851  155.3157 C   0  0  0  0  0  0  0  0  0  0  0  0
  149.3649  138.5686  156.3405 C   0  0  2  0  0  0  0  0  0  0  0  0
  148.2412  138.0120  157.0836 N   0  0  0  0  0  0  0  0  0  0  0  0
  148.3571  137.3207  158.2262 C   0  0  0  0  0  0  0  0  0  0  0  0
  149.4409  137.0046  158.7177 O   0  0  0  0  0  0  0  0  0  0  0  0
  147.0449  136.9371  158.9204 C   0  0  0  0  0  0  0  0  0  0  0  0
  147.2621  135.9179  159.9555 N   0  0  0  0  0  0  0  0  0  0  0  0
  147.4470  134.6417  159.4469 N   0  0  0  0  0  0  0  0  0  0  0  0
  147.5956  133.6254  160.2308 C   0  0  0  0  0  0  0  0  0  0  0  0
  147.7690  132.2786  159.5929 C   0  0  0  0  0  0  0  0  0  0  0  0
  147.5880  133.8252  161.6673 C   0  0  0  0  0  0  0  0  0  0  0  0
  147.4127  135.0697  162.1612 C   0  0  0  0  0  0  0  0  0  0  0  0
  147.2260  136.2256  161.2862 C   0  0  0  0  0  0  0  0  0  0  0  0
  147.0459  137.3675  161.7081 O   0  0  0  0  0  0  0  0  0  0  0  0
  148.9661  139.4908  155.1590 C   0  0  0  0  0  0  0  0  0  0  0  0
  147.5739  139.3567  154.5263 C   0  0  0  0  0  0  0  0  0  0  0  0
  147.3790  140.5722  153.6164 C   0  0  0  0  0  0  0  0  0  0  0  0
  148.3394  141.6415  154.1470 C   0  0  0  0  0  0  0  0  0  0  0  0
  149.0438  141.0047  155.3479 C   0  0  0  0  0  0  0  0  0  0  0  0
  153.5909  137.5385  156.2419 H   0  0  0  0  0  0  0  0  0  0  0  0
  151.8976  137.8122  156.6484 H   0  0  0  0  0  0  0  0  0  0  0  0
  153.0360  139.1590  156.6575 H   0  0  0  0  0  0  0  0  0  0  0  0
  153.3333  138.9235  154.1705 H   0  0  0  0  0  0  0  0  0  0  0  0
  152.2012  137.5755  154.1625 H   0  0  0  0  0  0  0  0  0  0  0  0
  149.8865  138.6044  153.3391 H   0  0  0  0  0  0  0  0  0  0  0  0
  149.1999  136.8712  154.9369 H   0  0  0  0  0  0  0  0  0  0  0  0
  150.8531  137.0885  155.6272 H   0  0  0  0  0  0  0  0  0  0  0  0
  150.1476  139.0022  156.9676 H   0  0  0  0  0  0  0  0  0  0  0  0
  147.3143  138.2180  156.7398 H   0  0  0  0  0  0  0  0  0  0  0  0
  146.5931  137.8208  159.3756 H   0  0  0  0  0  0  0  0  0  0  0  0
  146.3325  136.6040  158.1643 H   0  0  0  0  0  0  0  0  0  0  0  0
  147.7658  131.4844  160.3398 H   0  0  0  0  0  0  0  0  0  0  0  0
  148.7140  132.2257  159.0515 H   0  0  0  0  0  0  0  0  0  0  0  0
  146.9625  132.0752  158.8875 H   0  0  0  0  0  0  0  0  0  0  0  0
  147.7227  132.9818  162.3285 H   0  0  0  0  0  0  0  0  0  0  0  0
  147.4072  135.2171  163.2309 H   0  0  0  0  0  0  0  0  0  0  0  0
  147.4483  138.4244  153.9748 H   0  0  0  0  0  0  0  0  0  0  0  0
  146.7988  139.3744  155.2932 H   0  0  0  0  0  0  0  0  0  0  0  0
  147.6374  140.3201  152.5873 H   0  0  0  0  0  0  0  0  0  0  0  0
  146.3427  140.9120  153.6219 H   0  0  0  0  0  0  0  0  0  0  0  0
  149.0682  141.8979  153.3771 H   0  0  0  0  0  0  0  0  0  0  0  0
  147.8200  142.5582  154.4278 H   0  0  0  0  0  0  0  0  0  0  0  0
  148.5198  141.2888  156.2612 H   0  0  0  0  0  0  0  0  0  0  0  0
  150.0639  141.3736  155.4527 H   0  0  0  0  0  0  0  0  0  0  0  0
  1  2  1  0  0  0  0
  1 24  1  0  0  0  0
  1 25  1  0  0  0  0
  1 26  1  0  0  0  0
  2  3  1  0  0  0  0
  2 27  1  0  0  0  0
  2 28  1  0  0  0  0
  3  4  1  0  0  0  0
  4 19  1  0  0  0  0
  4  5  1  0  0  0  0
  4 29  1  0  0  0  0
  5  6  1  0  0  0  0
  5 30  1  0  0  0  0
  5 31  1  0  0  0  0
  6  7  1  0  0  0  0
  6 19  1  0  0  0  0
  6 32  1  0  0  0  0
  7  8  1  0  0  0  0
  7 33  1  0  0  0  0
  8  9  2  0  0  0  0
  8 10  1  0  0  0  0
 10 11  1  0  0  0  0
 10 34  1  0  0  0  0
 10 35  1  0  0  0  0
 11 17  1  0  0  0  0
 11 12  1  0  0  0  0
 12 13  2  0  0  0  0
 13 14  1  0  0  0  0
 13 15  1  0  0  0  0
 14 36  1  0  0  0  0
 14 37  1  0  0  0  0
 14 38  1  0  0  0  0
 15 16  2  0  0  0  0
 15 39  1  0  0  0  0
 16 17  1  0  0  0  0
 16 40  1  0  0  0  0
 17 18  2  0  0  0  0
 19 23  1  0  0  0  0
 19 20  1  0  0  0  0
 20 21  1  0  0  0  0
 20 41  1  0  0  0  0
 20 42  1  0  0  0  0
 21 22  1  0  0  0  0
 21 43  1  0  0  0  0
 21 44  1  0  0  0  0
 22 23  1  0  0  0  0
 22 45  1  0  0  0  0
 22 46  1  0  0  0  0
 23 47  1  0  0  0  0
 23 48  1  0  0  0  0
M  END
> <s_m_source_file>
AV-unprocessed.smi

> <i_m_source_file_index>
716

> <i_lp_mmshare_version>
43012

> <i_f3d_flags>
0

> <s_epik_input>
W0NIMl0xW0NIMl1bQ0gyXVtDSDJdQzEyW0NASF0oT1tDSDJdW0NIM10pW0NIMl1bQ0BIXTJbTkhdQyg9TylbQ0gyXW4zbmMoW0NIM10pW2NIXVtjSF1jMz1P

> <s_epik_cmdline>
J2VwaWtfcHl0aG9uJywgJy1waCcsICc3LjAnLCAnLXRuJywgJzgnLCAnLW1hJywgJzIwMCcsICctbWV0YWxfYmluZGluZycsICctaW1hZScsICc8aW5maWxlLm1hZT4nLCAnLW9tYWUnLCAnPG91dGZpbGUubWFlPic=

> <r_lp_tautomer_probability>
1

> <r_epik_Ionization_Penalty>
4.75561e-08

> <r_epik_Ionization_Penalty_Charging>
2.86617e-08

> <r_epik_Ionization_Penalty_Neutral>
1.88944e-08

> <r_epik_State_Penalty>
-0

> <r_epik_Charging_Adjusted_Penalty>
2.86617e-08

> <i_epik_Tot_Q>
0

> <i_epik_Tot_abs_Q>
0

> <r_epik_Metal_State_Penalty>
-0

> <b_epik_Metal_Only>
0

> <s_lp_Force_Field>
OPLS_2005

> <r_lp_Energy>
50.6956

> <b_lp_Chiralities_Consistent>
1

> <s_lp_Variant>
AV-unprocessed.smi:716-4

> <Gold.Version>
5.8.1

> <Gold.Id.Protein>
6NUR|6NUR_protein|mol2

> <Gold.PLP.Fitness>
42.0996

> <Gold.PLP.PLP>
-36.5592

> <Gold.PLP.part.hbond>
-3.0000

> <Gold.PLP.part.metal>
0.0000

> <Gold.PLP.part.buried>
-4.5342

> <Gold.PLP.part.nonpolar>
-28.5361

> <Gold.PLP.part.repulsive>
0.1174

> <Gold.PLP.ligand.clash>
0.0000

> <Gold.PLP.ligand.torsion>
1.1549

> <Gold.PLP.Chemscore.Hbond>
2.4804

> <Gold.PLP.Chemscore.CHOScore>
0.0000

> <Gold.PLP.Chemscore.Metal>
0.0000

> <Gold.Chemscore.Hbonds>
donor molecule, donor type, donor heavy atom, donor atom, acceptor molecule, acceptor atom, score
      P1  H  6931  6943       L1    18  0.47
      P1  H  6934  6947       L1    18  0.90
      P1  H  7989  7998       L1     3  1.00

> <Gold.PLP.Chemscore.Internal.Correction>
0.4089

> <Gold.Rescore>
     Score         DG    S(hbond)    S(metal)    S(lipo)     H(rot)  DE(clash)    DE(int)     intcor
     17.56     -18.87       2.45        0.00      82.30       1.73       0.01       1.30       ----

> <Gold.Chemscore.Fitness>
17.5598

> <Gold.Chemscore.DG>
-18.8667

> <Gold.Chemscore.ZeroCoef>
-5.4800

> <Gold.Chemscore.Hbond>
2.4549

> <Gold.Chemscore.Metal>
0.0000

> <Gold.Chemscore.Lipo>
82.2953

> <Gold.Chemscore.Internal_Hbond>
0.0000

> <Gold.Chemscore.DEClash>
0.0106

> <Gold.Chemscore.DEInternal>
1.2963

> <Gold.Chemscore.Rot>
1.7348

> <Gold.Chemscore.Internal.Correction>
   9.000000E+99

> <Gold.Chemscore.Hbonds>
donor molecule, donor type, donor heavy atom, donor atom, acceptor molecule, acceptor atom, score
      P1  H  6931  6943       L1    18  0.29
      P1  H  6934  6947       L1    18  0.88
      P1  H  7989  7998       L1     3  0.80

> <Gold.Chemscore.Hbond.Weighted>
-8.1993

> <Gold.Chemscore.Metal.Weighted>
-0.0000

> <Gold.Chemscore.Lipo.Weighted>
-9.6285

> <Gold.Chemscore.Internal_Hbond.Weighted>
0.0000

> <Gold.Chemscore.DEClash.Weighted>
0.0106

> <Gold.Chemscore.DEInternal.Weighted>
1.2963

> <Gold.Chemscore.Rot.Weighted>
4.4411

> <Gold.Chemscore.Internal.Correction.Weighted>
   9.000000E+99

> <Gold.Protein.RotatedTorsions>
[ 6907 6896 6895 6894 ] final  -46.26 input  -60.11 | X-H torsion
[ 7974 7965 7964 7962 ] final   86.62 input  175.53 | X-H torsion
[ 8008 7997 7996 7995 ] final  126.91 input   59.86 | X-H torsion
[ 10167 10162 10161 10158 ] final -174.77 input  -65.29 | X-H torsion
[ 10718 10713 10712 10709 ] final  -94.91 input   66.30 | X-H torsion
[ 10763 10752 10751 10750 ] final   57.03 input  -60.55 | X-H torsion
[ 11005 11000 10999 10996 ] final    0.69 input  -57.11 | X-H torsion

> <Gold.Protein.ActiveResidues>
 VAL166  LYS551  ARG553  GLY616  TRP617  ASP618  TYR619  PRO620  LYS621  CYS622 
 ASP623  PHE694  ASN695  SER759  ASP760  ASP761  ALA762  ILE779  LEU786  VAL792 
 PHE793  MET794  SER795  GLU796  ALA797  LYS798  CYS799  TRP800  GLU811  SER814 

> <Gold.Protein.RotatedAtoms>
  150.9131  134.8548  159.7438 H   0  0  0  0  0  0  0  0  0  0  0  0  # atno 6907 bound_to 6896
  152.4954  134.4330  159.9528 H   0  0  0  0  0  0  0  0  0  0  0  0  # atno 6908 bound_to 6896
  151.4370  133.3614  159.2811 H   0  0  0  0  0  0  0  0  0  0  0  0  # atno 6909 bound_to 6896
  145.5698  139.2312  143.2412 H   0  0  0  0  0  0  0  0  0  0  0  0  # atno 7974 bound_to 7965
  156.2877  140.2681  156.2188 H   0  0  0  0  0  0  0  0  0  0  0  0  # atno 8008 bound_to 7997
  155.0189  140.0386  157.2447 H   0  0  0  0  0  0  0  0  0  0  0  0  # atno 8009 bound_to 7997
  154.7453  140.2733  155.6343 H   0  0  0  0  0  0  0  0  0  0  0  0  # atno 8010 bound_to 7997
  139.5616  144.1856  152.1247 H   0  0  0  0  0  0  0  0  0  0  0  0  # atno 10167 bound_to 10162
  156.0034  130.5087  150.5997 H   0  0  0  0  0  0  0  0  0  0  0  0  # atno 10718 bound_to 10713
  152.9842  135.5655  154.5325 H   0  0  0  0  0  0  0  0  0  0  0  0  # atno 10763 bound_to 10752
  154.4794  135.2788  155.1584 H   0  0  0  0  0  0  0  0  0  0  0  0  # atno 10764 bound_to 10752
  154.3099  135.6290  153.5514 H   0  0  0  0  0  0  0  0  0  0  0  0  # atno 10765 bound_to 10752
  140.6237  133.9638  155.8238 H   0  0  0  0  0  0  0  0  0  0  0  0  # atno 11005 bound_to 11000
  146.1792  140.6524  142.9197 LP  0  0  0  0  0  0  0  0  0  0  0  0  # atno 17320 bound_to 7965
  144.7443  140.5026  143.6847 LP  0  0  0  0  0  0  0  0  0  0  0  0  # atno 17321 bound_to 7965
  140.1371  144.5236  150.6767 LP  0  0  0  0  0  0  0  0  0  0  0  0  # atno 17342 bound_to 10162
  140.6896  143.2368  151.5167 LP  0  0  0  0  0  0  0  0  0  0  0  0  # atno 17343 bound_to 10162
  157.3848  131.0786  151.1445 LP  0  0  0  0  0  0  0  0  0  0  0  0  # atno 17370 bound_to 10713
  157.2156  130.6458  149.5791 LP  0  0  0  0  0  0  0  0  0  0  0  0  # atno 17371 bound_to 10713
  141.0724  134.0185  157.3507 LP  0  0  0  0  0  0  0  0  0  0  0  0  # atno 17394 bound_to 11000
  139.9143  135.0195  156.7818 LP  0  0  0  0  0  0  0  0  0  0  0  0  # atno 17395 bound_to 11000

$$$$
