AV-unprocessed.smi:2787|AV-procd|sdf|10759|dock3
  -GOLD-   2272015193D 1   1.00000     0.00000
 Structure written by MMmdl.
 36 37  0  0  0  0  0  0  0  0  2 V2000
  148.2701  139.9017  153.5006 O   0  0  0  0  0  0  0  0  0  0  0  0
  147.6956  141.0897  154.0021 C   0  0  0  0  0  0  0  0  0  0  0  0
  148.3704  141.4958  155.3205 C   0  0  0  0  0  0  0  0  0  0  0  0
  149.8862  141.2263  155.3289 C   0  0  0  0  0  0  0  0  0  0  0  0
  150.5871  141.7995  156.5231 C   0  0  0  0  0  0  0  0  0  0  0  0
  150.5592  143.0962  156.9487 N   0  3  0  0  0  0  0  0  0  0  0  0
  151.3461  143.2385  158.0924 C   0  0  0  0  0  0  0  0  0  0  0  0
  151.6188  144.3529  158.8800 C   0  0  0  0  0  0  0  0  0  0  0  0
  152.4714  144.1526  159.9859 C   0  0  0  0  0  0  0  0  0  0  0  0
  153.0188  142.8847  160.2711 C   0  0  0  0  0  0  0  0  0  0  0  0
  152.7359  141.7628  159.4642 C   0  0  0  0  0  0  0  0  0  0  0  0
  151.8889  141.9693  158.3760 C   0  0  0  0  0  0  0  0  0  0  0  0
  151.3931  141.1149  157.3857 N   0  0  0  0  0  0  0  0  0  0  0  0
  151.7828  139.6963  157.4023 C   0  0  0  0  0  0  0  0  0  0  0  0
  152.0981  139.1416  155.9971 C   0  0  1  0  0  0  0  0  0  0  0  0
  153.4652  138.7851  155.9237 O   0  0  0  0  0  0  0  0  0  0  0  0
  151.2308  137.9237  155.6258 C   0  0  0  0  0  0  0  0  0  0  0  0
  151.4814  136.9119  156.4569 F   0  0  0  0  0  0  0  0  0  0  0  0
  149.9333  138.2278  155.6693 F   0  0  0  0  0  0  0  0  0  0  0  0
  151.5348  137.5270  154.3900 F   0  0  0  0  0  0  0  0  0  0  0  0
  148.6780  140.0916  152.6694 H   0  0  0  0  0  0  0  0  0  0  0  0
  147.7854  141.8817  153.2581 H   0  0  0  0  0  0  0  0  0  0  0  0
  146.6312  140.9168  154.1628 H   0  0  0  0  0  0  0  0  0  0  0  0
  148.1965  142.5598  155.4843 H   0  0  0  0  0  0  0  0  0  0  0  0
  147.8908  140.9732  156.1495 H   0  0  0  0  0  0  0  0  0  0  0  0
  150.0721  140.1523  155.3052 H   0  0  0  0  0  0  0  0  0  0  0  0
  150.3411  141.6418  154.4292 H   0  0  0  0  0  0  0  0  0  0  0  0
  151.2017  145.3253  158.6627 H   0  0  0  0  0  0  0  0  0  0  0  0
  152.7105  144.9883  160.6276 H   0  0  0  0  0  0  0  0  0  0  0  0
  153.6693  142.7699  161.1262 H   0  0  0  0  0  0  0  0  0  0  0  0
  153.1602  140.7955  159.6900 H   0  0  0  0  0  0  0  0  0  0  0  0
  152.6541  139.6002  158.0508 H   0  0  0  0  0  0  0  0  0  0  0  0
  150.9845  139.1267  157.8790 H   0  0  0  0  0  0  0  0  0  0  0  0
  151.9295  139.9246  155.2571 H   0  0  0  0  0  0  0  0  0  0  0  0
  153.6747  138.5835  155.0248 H   0  0  0  0  0  0  0  0  0  0  0  0
  150.0359  143.8293  156.4874 H   0  0  0  0  0  0  0  0  0  0  0  0
  1  2  1  0  0  0  0
  1 21  1  0  0  0  0
  2  3  1  0  0  0  0
  2 22  1  0  0  0  0
  2 23  1  0  0  0  0
  3  4  1  0  0  0  0
  3 24  1  0  0  0  0
  3 25  1  0  0  0  0
  4  5  1  0  0  0  0
  4 26  1  0  0  0  0
  4 27  1  0  0  0  0
  5 13  1  0  0  0  0
  5  6  2  0  0  0  0
  6  7  1  0  0  0  0
  6 36  1  0  0  0  0
  7 12  2  0  0  0  0
  7  8  1  0  0  0  0
  8  9  2  0  0  0  0
  8 28  1  0  0  0  0
  9 10  1  0  0  0  0
  9 29  1  0  0  0  0
 10 11  2  0  0  0  0
 10 30  1  0  0  0  0
 11 12  1  0  0  0  0
 11 31  1  0  0  0  0
 12 13  1  0  0  0  0
 13 14  1  0  0  0  0
 14 15  1  0  0  0  0
 14 32  1  0  0  0  0
 14 33  1  0  0  0  0
 15 16  1  0  0  0  0
 15 17  1  0  0  0  0
 15 34  1  0  0  0  0
 16 35  1  0  0  0  0
 17 18  1  0  0  0  0
 17 19  1  0  0  0  0
 17 20  1  0  0  0  0
M  CHG  1   6   1
M  END
> <s_m_source_file>
AV-unprocessed.smi

> <i_m_source_file_index>
2787

> <i_lp_mmshare_version>
43012

> <i_f3d_flags>
0

> <s_epik_input>
W09IXVtDSDJdW0NIMl1bQ0gyXWMobjEpbihbQ0gyXVtDQEhdKFtPSF0pQyhGKShGKUYpYyhjMTIpW2NIXVtjSF1bY0hdW2NIXTI=

> <s_epik_cmdline>
J2VwaWtfcHl0aG9uJywgJy1waCcsICc3LjAnLCAnLXRuJywgJzgnLCAnLW1hJywgJzIwMCcsICctbWV0YWxfYmluZGluZycsICctaW1hZScsICc8aW5maWxlLm1hZT4nLCAnLW9tYWUnLCAnPG91dGZpbGUubWFlPic=

> <r_epik_Ionization_Penalty>
0.964009

> <r_epik_Ionization_Penalty_Charging>
0.952215

> <r_epik_Ionization_Penalty_Neutral>
0.0117938

> <r_epik_State_Penalty>
1.09527

> <r_epik_Charging_Adjusted_Penalty>
2.04749

> <i_epik_Tot_Q>
1

> <i_epik_Tot_abs_Q>
1

> <r_epik_Metal_State_Penalty>
5.08046

> <b_epik_Metal_Only>
0

> <s_lp_Force_Field>
OPLS_2005

> <r_lp_Energy>
16.8731

> <b_lp_Chiralities_Consistent>
1

> <s_lp_Variant>
AV-unprocessed.smi:2787-4

> <Gold.Version>
5.8.1

> <Gold.Id.Protein>
6NUR|6NUR_protein|mol2

> <Gold.PLP.Fitness>
56.0282

> <Gold.PLP.PLP>
-46.2829

> <Gold.PLP.part.hbond>
-2.5753

> <Gold.PLP.part.metal>
0.0000

> <Gold.PLP.part.buried>
-4.9511

> <Gold.PLP.part.nonpolar>
-39.0414

> <Gold.PLP.part.repulsive>
0.0279

> <Gold.PLP.ligand.clash>
0.0000

> <Gold.PLP.ligand.torsion>
1.1696

> <Gold.PLP.Chemscore.Hbond>
4.0000

> <Gold.PLP.Chemscore.CHOScore>
0.0000

> <Gold.PLP.Chemscore.Metal>
0.0000

> <Gold.Chemscore.Hbonds>
donor molecule, donor type, donor heavy atom, donor atom, acceptor molecule, acceptor atom, score
      L1  H     1    21       P1  7957  1.00
      L1  H     6    36       P1  8028  2.00
      P1  H  7997  8008       L1    16  0.79

> <Gold.PLP.Chemscore.Internal.Correction>
0.0844

> <Gold.Rescore>
     Score         DG    S(hbond)    S(metal)    S(lipo)     H(rot)  DE(clash)    DE(int)     intcor
     16.69     -18.59       2.93        0.00     105.41       3.51       0.06       1.83       ----

> <Gold.Chemscore.Fitness>
16.6903

> <Gold.Chemscore.DG>
-18.5884

> <Gold.Chemscore.ZeroCoef>
-5.4800

> <Gold.Chemscore.Hbond>
2.9257

> <Gold.Chemscore.Metal>
0.0000

> <Gold.Chemscore.Lipo>
105.4119

> <Gold.Chemscore.Internal_Hbond>
0.0000

> <Gold.Chemscore.DEClash>
0.0641

> <Gold.Chemscore.DEInternal>
1.8340

> <Gold.Chemscore.Rot>
3.5143

> <Gold.Chemscore.Internal.Correction>
   9.000000E+99

> <Gold.Chemscore.Hbonds>
donor molecule, donor type, donor heavy atom, donor atom, acceptor molecule, acceptor atom, score
      L1  H     1    21       P1  7957  1.00
      L1  H     6    36       P1  8028  1.00
      P1  H  7997  8008       L1    16  0.11

> <Gold.Chemscore.Hbond.Weighted>
-9.7719

> <Gold.Chemscore.Metal.Weighted>
-0.0000

> <Gold.Chemscore.Lipo.Weighted>
-12.3332

> <Gold.Chemscore.Internal_Hbond.Weighted>
0.0000

> <Gold.Chemscore.DEClash.Weighted>
0.0641

> <Gold.Chemscore.DEInternal.Weighted>
1.8340

> <Gold.Chemscore.Rot.Weighted>
8.9967

> <Gold.Chemscore.Internal.Correction.Weighted>
   9.000000E+99

> <Gold.Protein.RotatedTorsions>
[ 6907 6896 6895 6894 ] final  -39.94 input  -60.11 | X-H torsion
[ 7974 7965 7964 7962 ] final  101.98 input  175.53 | X-H torsion
[ 8008 7997 7996 7995 ] final  -26.79 input   59.86 | X-H torsion
[ 10167 10162 10161 10158 ] final  -10.92 input  -65.29 | X-H torsion
[ 10718 10713 10712 10709 ] final -164.87 input   66.30 | X-H torsion
[ 10763 10752 10751 10750 ] final  161.62 input  -60.55 | X-H torsion
[ 11005 11000 10999 10996 ] final   55.09 input  -57.11 | X-H torsion

> <Gold.Protein.ActiveResidues>
 VAL166  LYS551  ARG553  GLY616  TRP617  ASP618  TYR619  PRO620  LYS621  CYS622 
 ASP623  PHE694  ASN695  SER759  ASP760  ASP761  ALA762  ILE779  LEU786  VAL792 
 PHE793  MET794  SER795  GLU796  ALA797  LYS798  CYS799  TRP800  GLU811  SER814 

> <Gold.Protein.RotatedAtoms>
  150.9844  134.9192  159.7862 H   0  0  0  0  0  0  0  0  0  0  0  0  # atno 6907 bound_to 6896
  152.5232  134.3367  159.9212 H   0  0  0  0  0  0  0  0  0  0  0  0  # atno 6908 bound_to 6896
  151.3373  133.3935  159.2702 H   0  0  0  0  0  0  0  0  0  0  0  0  # atno 6909 bound_to 6896
  145.3652  139.2409  143.3485 H   0  0  0  0  0  0  0  0  0  0  0  0  # atno 7974 bound_to 7965
  154.4408  140.1890  156.0830 H   0  0  0  0  0  0  0  0  0  0  0  0  # atno 8008 bound_to 7997
  156.0424  140.3318  155.7232 H   0  0  0  0  0  0  0  0  0  0  0  0  # atno 8009 bound_to 7997
  155.5680  140.0610  157.2804 H   0  0  0  0  0  0  0  0  0  0  0  0  # atno 8010 bound_to 7997
  140.7126  143.5695  150.9107 H   0  0  0  0  0  0  0  0  0  0  0  0  # atno 10167 bound_to 10162
  156.6453  130.8985  151.3003 H   0  0  0  0  0  0  0  0  0  0  0  0  # atno 10718 bound_to 10713
  154.2658  135.2767  155.2759 H   0  0  0  0  0  0  0  0  0  0  0  0  # atno 10763 bound_to 10752
  154.5344  135.5720  153.6790 H   0  0  0  0  0  0  0  0  0  0  0  0  # atno 10764 bound_to 10752
  152.9954  135.6236  154.2810 H   0  0  0  0  0  0  0  0  0  0  0  0  # atno 10765 bound_to 10752
  140.0635  134.5570  155.9126 H   0  0  0  0  0  0  0  0  0  0  0  0  # atno 11005 bound_to 11000
  146.2910  140.4293  142.8739 LP  0  0  0  0  0  0  0  0  0  0  0  0  # atno 17320 bound_to 7965
  144.8617  140.7148  143.6103 LP  0  0  0  0  0  0  0  0  0  0  0  0  # atno 17321 bound_to 7965
  139.9421  143.6369  152.3051 LP  0  0  0  0  0  0  0  0  0  0  0  0  # atno 17342 bound_to 10162
  139.6858  144.7651  151.1527 LP  0  0  0  0  0  0  0  0  0  0  0  0  # atno 17343 bound_to 10162
  157.7158  130.9496  150.1251 LP  0  0  0  0  0  0  0  0  0  0  0  0  # atno 17370 bound_to 10713
  156.2127  130.3668  149.8651 LP  0  0  0  0  0  0  0  0  0  0  0  0  # atno 17371 bound_to 10713
  141.1983  133.6600  156.5784 LP  0  0  0  0  0  0  0  0  0  0  0  0  # atno 17394 bound_to 11000
  140.3735  134.7585  157.4614 LP  0  0  0  0  0  0  0  0  0  0  0  0  # atno 17395 bound_to 11000

$$$$
