AV-unprocessed.smi:1717|AV-procd|sdf|6918|dock6
  -GOLD-   22720 8123D 1   1.00000     0.00000
 Structure written by MMmdl.
 41 42  0  0  0  0  0  0  0  0  2 V2000
  150.0945  141.4851  156.4737 C   0  0  0  0  0  0  0  0  0  0  0  0
  148.7215  141.5482  155.9960 N   0  0  0  0  0  0  0  0  0  0  0  0
  148.3731  141.5330  154.7019 C   0  0  0  0  0  0  0  0  0  0  0  0
  149.1912  141.4700  153.7836 O   0  0  0  0  0  0  0  0  0  0  0  0
  146.8728  141.6209  154.4036 C   0  0  0  0  0  0  0  0  0  0  0  0
  146.3786  140.4922  153.5737 N   0  3  2  0  0  0  0  0  0  0  0  0
  146.2529  139.2311  154.3479 C   0  0  0  0  0  0  0  0  0  0  0  0
  145.5989  138.1248  153.5029 C   0  0  0  0  0  0  0  0  0  0  0  0
  146.3816  137.8818  152.2027 C   0  0  1  0  0  0  0  0  0  0  0  0
  145.6909  136.8873  151.3871 N   0  0  0  0  0  0  0  0  0  0  0  0
  145.6879  135.5667  151.6195 C   0  0  0  0  0  0  0  0  0  0  0  0
  146.2912  135.0401  152.5542 O   0  0  0  0  0  0  0  0  0  0  0  0
  144.9505  134.9121  150.7081 N   0  0  0  0  0  0  0  0  0  0  0  0
  144.7083  133.5174  150.6422 C   0  0  0  0  0  0  0  0  0  0  0  0
  143.7569  132.8013  149.8574 C   0  0  0  0  0  0  0  0  0  0  0  0
  143.8412  131.4965  150.0749 N   0  0  0  0  0  0  0  0  0  0  0  0
  144.8323  131.3728  150.9860 N   0  0  0  0  0  0  0  0  0  0  0  0
  145.3873  132.5771  151.3580 C   0  0  0  0  0  0  0  0  0  0  0  0
  146.5364  139.2099  151.4388 C   0  0  0  0  0  0  0  0  0  0  0  0
  147.1688  140.2922  152.3294 C   0  0  0  0  0  0  0  0  0  0  0  0
  145.1158  130.4697  151.3388 H   0  0  0  0  0  0  0  0  0  0  0  0
  150.1095  141.4920  157.5634 H   0  0  0  0  0  0  0  0  0  0  0  0
  150.6684  142.3426  156.1200 H   0  0  0  0  0  0  0  0  0  0  0  0
  150.5849  140.5728  156.1322 H   0  0  0  0  0  0  0  0  0  0  0  0
  147.9934  141.6105  156.6932 H   0  0  0  0  0  0  0  0  0  0  0  0
  146.2997  141.6844  155.3302 H   0  0  0  0  0  0  0  0  0  0  0  0
  146.7174  142.5618  153.8741 H   0  0  0  0  0  0  0  0  0  0  0  0
  147.2388  138.9129  154.6907 H   0  0  0  0  0  0  0  0  0  0  0  0
  145.6471  139.4037  155.2382 H   0  0  0  0  0  0  0  0  0  0  0  0
  145.5420  137.2033  154.0837 H   0  0  0  0  0  0  0  0  0  0  0  0
  144.5710  138.4082  153.2706 H   0  0  0  0  0  0  0  0  0  0  0  0
  147.3717  137.5034  152.4655 H   0  0  0  0  0  0  0  0  0  0  0  0
  145.1683  137.2300  150.5942 H   0  0  0  0  0  0  0  0  0  0  0  0
  144.5112  135.4689  149.9898 H   0  0  0  0  0  0  0  0  0  0  0  0
  143.0242  133.1655  149.1527 H   0  0  0  0  0  0  0  0  0  0  0  0
  146.1905  132.6543  152.0760 H   0  0  0  0  0  0  0  0  0  0  0  0
  147.1507  139.0649  150.5495 H   0  0  0  0  0  0  0  0  0  0  0  0
  145.5621  139.5538  151.0882 H   0  0  0  0  0  0  0  0  0  0  0  0
  147.2291  141.2252  151.7683 H   0  0  0  0  0  0  0  0  0  0  0  0
  148.1916  140.0138  152.5877 H   0  0  0  0  0  0  0  0  0  0  0  0
  145.4425  140.7452  153.2898 H   0  0  0  0  0  0  0  0  0  0  0  0
  1  2  1  0  0  0  0
  1 22  1  0  0  0  0
  1 23  1  0  0  0  0
  1 24  1  0  0  0  0
  2  3  1  0  0  0  0
  2 25  1  0  0  0  0
  3  4  2  0  0  0  0
  3  5  1  0  0  0  0
  5  6  1  0  0  0  0
  5 26  1  0  0  0  0
  5 27  1  0  0  0  0
  6 20  1  0  0  0  0
  6  7  1  0  0  0  0
  6 41  1  0  0  0  0
  7  8  1  0  0  0  0
  7 28  1  0  0  0  0
  7 29  1  0  0  0  0
  8  9  1  0  0  0  0
  8 30  1  0  0  0  0
  8 31  1  0  0  0  0
  9 10  1  0  0  0  0
  9 19  1  0  0  0  0
  9 32  1  0  0  0  0
 10 11  1  0  0  0  0
 10 33  1  0  0  0  0
 11 12  2  0  0  0  0
 11 13  1  0  0  0  0
 13 14  1  0  0  0  0
 13 34  1  0  0  0  0
 14 18  2  0  0  0  0
 14 15  1  0  0  0  0
 15 16  2  0  0  0  0
 15 35  1  0  0  0  0
 16 17  1  0  0  0  0
 17 21  1  0  0  0  0
 17 18  1  0  0  0  0
 18 36  1  0  0  0  0
 19 20  1  0  0  0  0
 19 37  1  0  0  0  0
 19 38  1  0  0  0  0
 20 39  1  0  0  0  0
 20 40  1  0  0  0  0
M  CHG  1   6   1
M  END
> <s_m_source_file>
AV-unprocessed.smi

> <i_m_source_file_index>
1717

> <i_lp_mmshare_version>
43012

> <i_f3d_flags>
0

> <s_epik_input>
W0NIM11bTkhdQyg9TylbQ0gyXU4xW0NIMl1bQ0gyXVtDSF0oW0NIMl1bQ0gyXTEpW05IXUMoPU8pW05IXWMyW2NIXW5bbkhdW2NIXTI=

> <s_epik_cmdline>
J2VwaWtfcHl0aG9uJywgJy1waCcsICc3LjAnLCAnLXRuJywgJzgnLCAnLW1hJywgJzIwMCcsICctbWV0YWxfYmluZGluZycsICctaW1hZScsICc8aW5maWxlLm1hZT4nLCAnLW9tYWUnLCAnPG91dGZpbGUubWFlPic=

> <r_lp_tautomer_probability>
0.5

> <r_epik_Ionization_Penalty>
0.838906

> <r_epik_Ionization_Penalty_Charging>
0.838844

> <r_epik_Ionization_Penalty_Neutral>
6.24243e-05

> <r_epik_State_Penalty>
0.8734

> <r_epik_Charging_Adjusted_Penalty>
1.71224

> <i_epik_Tot_Q>
1

> <i_epik_Tot_abs_Q>
1

> <r_epik_Metal_State_Penalty>
0.877921

> <b_epik_Metal_Only>
0

> <s_lp_Force_Field>
OPLS_2005

> <r_lp_Energy>
17.0094

> <b_lp_Chiralities_Consistent>
1

> <s_lp_Variant>
AV-unprocessed.smi:1717-2

> <Gold.Version>
5.8.1

> <Gold.Id.Protein>
6NUR|6NUR_protein|mol2

> <Gold.PLP.Fitness>
46.9318

> <Gold.PLP.PLP>
-30.8353

> <Gold.PLP.part.hbond>
-5.5037

> <Gold.PLP.part.metal>
0.0000

> <Gold.PLP.part.buried>
0.2349

> <Gold.PLP.part.nonpolar>
-28.1434

> <Gold.PLP.part.repulsive>
2.3859

> <Gold.PLP.ligand.clash>
0.0000

> <Gold.PLP.ligand.torsion>
0.3398

> <Gold.PLP.Chemscore.Hbond>
4.5840

> <Gold.PLP.Chemscore.CHOScore>
1.0000

> <Gold.PLP.Chemscore.Metal>
0.0000

> <Gold.Chemscore.Hbonds>
donor molecule, donor type, donor heavy atom, donor atom, acceptor molecule, acceptor atom, score
      L1  H     6    41       P1 10175  2.00
      L1  H    10    33       P1 10171  0.99
      P1  H  8011  8017       L1     4  0.77
      P1  H 10785 10796       L1    16  0.77
      L1  C    15    35       P1 10186  1.00

> <Gold.PLP.Chemscore.Internal.Correction>
0.0241

> <Gold.Rescore>
     Score         DG    S(hbond)    S(metal)    S(lipo)     H(rot)  DE(clash)    DE(int)     intcor
     15.28     -20.44       3.31        0.00      72.96       1.81       2.32       2.84       ----

> <Gold.Chemscore.Fitness>
15.2813

> <Gold.Chemscore.DG>
-20.4389

> <Gold.Chemscore.ZeroCoef>
-5.4800

> <Gold.Chemscore.Hbond>
3.3100

> <Gold.Chemscore.Metal>
0.0000

> <Gold.Chemscore.Lipo>
72.9563

> <Gold.Chemscore.Internal_Hbond>
0.0000

> <Gold.Chemscore.DEClash>
2.3214

> <Gold.Chemscore.DEInternal>
2.8362

> <Gold.Chemscore.Rot>
1.8096

> <Gold.Chemscore.Internal.Correction>
   9.000000E+99

> <Gold.Chemscore.Hbonds>
donor molecule, donor type, donor heavy atom, donor atom, acceptor molecule, acceptor atom, score
      L1  H     6    41       P1 10175  0.77
      L1  H    10    33       P1 10171  0.88
      P1  H  8011  8017       L1     4  0.76
      P1  H 10785 10796       L1    16  0.74

> <Gold.Chemscore.Hbond.Weighted>
-11.0555

> <Gold.Chemscore.Metal.Weighted>
-0.0000

> <Gold.Chemscore.Lipo.Weighted>
-8.5359

> <Gold.Chemscore.Internal_Hbond.Weighted>
0.0000

> <Gold.Chemscore.DEClash.Weighted>
2.3214

> <Gold.Chemscore.DEInternal.Weighted>
2.8362

> <Gold.Chemscore.Rot.Weighted>
4.6325

> <Gold.Chemscore.Internal.Correction.Weighted>
   9.000000E+99

> <Gold.Protein.RotatedTorsions>
[ 6907 6896 6895 6894 ] final   95.07 input  -60.11 | X-H torsion
[ 7974 7965 7964 7962 ] final   -7.72 input  175.53 | X-H torsion
[ 8008 7997 7996 7995 ] final -102.79 input   59.86 | X-H torsion
[ 10167 10162 10161 10158 ] final  -56.30 input  -65.29 | X-H torsion
[ 10718 10713 10712 10709 ] final  156.00 input   66.30 | X-H torsion
[ 10763 10752 10751 10750 ] final  -31.78 input  -60.55 | X-H torsion
[ 11005 11000 10999 10996 ] final -148.67 input  -57.11 | X-H torsion

> <Gold.Protein.ActiveResidues>
 VAL166  LYS551  ARG553  GLY616  TRP617  ASP618  TYR619  PRO620  LYS621  CYS622 
 ASP623  PHE694  ASN695  SER759  ASP760  ASP761  ALA762  ILE779  LEU786  VAL792 
 PHE793  MET794  SER795  GLU796  ALA797  LYS798  CYS799  TRP800  GLU811  SER814 

> <Gold.Protein.RotatedAtoms>
  152.5446  134.1097  159.8352 H   0  0  0  0  0  0  0  0  0  0  0  0  # atno 6907 bound_to 6896
  151.1165  133.5128  159.2611 H   0  0  0  0  0  0  0  0  0  0  0  0  # atno 6908 bound_to 6896
  151.1827  135.0377  159.8853 H   0  0  0  0  0  0  0  0  0  0  0  0  # atno 6909 bound_to 6896
  146.2299  140.2362  142.8342 H   0  0  0  0  0  0  0  0  0  0  0  0  # atno 7974 bound_to 7965
  154.8617  140.0426  157.1669 H   0  0  0  0  0  0  0  0  0  0  0  0  # atno 8008 bound_to 7997
  154.8833  140.2975  155.5392 H   0  0  0  0  0  0  0  0  0  0  0  0  # atno 8009 bound_to 7997
  156.2998  140.2407  156.3838 H   0  0  0  0  0  0  0  0  0  0  0  0  # atno 8010 bound_to 7997
  140.6325  143.2466  151.5204 H   0  0  0  0  0  0  0  0  0  0  0  0  # atno 10167 bound_to 10162
  157.2108  131.0697  151.1971 H   0  0  0  0  0  0  0  0  0  0  0  0  # atno 10718 bound_to 10713
  153.8030  135.6888  153.4853 H   0  0  0  0  0  0  0  0  0  0  0  0  # atno 10763 bound_to 10752
  153.1676  135.4555  154.9857 H   0  0  0  0  0  0  0  0  0  0  0  0  # atno 10764 bound_to 10752
  154.7999  135.3333  154.7517 H   0  0  0  0  0  0  0  0  0  0  0  0  # atno 10765 bound_to 10752
  140.7588  134.3322  157.5107 H   0  0  0  0  0  0  0  0  0  0  0  0  # atno 11005 bound_to 11000
  144.9520  140.8188  143.5566 LP  0  0  0  0  0  0  0  0  0  0  0  0  # atno 17320 bound_to 7965
  145.2323  139.2109  143.5036 LP  0  0  0  0  0  0  0  0  0  0  0  0  # atno 17321 bound_to 7965
  139.5538  144.2328  152.1577 LP  0  0  0  0  0  0  0  0  0  0  0  0  # atno 17342 bound_to 10162
  140.1575  144.5056  150.6651 LP  0  0  0  0  0  0  0  0  0  0  0  0  # atno 17343 bound_to 10162
  157.3674  130.7163  149.6542 LP  0  0  0  0  0  0  0  0  0  0  0  0  # atno 17370 bound_to 10713
  155.9691  130.4208  150.4441 LP  0  0  0  0  0  0  0  0  0  0  0  0  # atno 17371 bound_to 10713
  139.8774  134.9189  156.3214 LP  0  0  0  0  0  0  0  0  0  0  0  0  # atno 17394 bound_to 11000
  140.9682  133.7344  156.0497 LP  0  0  0  0  0  0  0  0  0  0  0  0  # atno 17395 bound_to 11000

$$$$
