AV-unprocessed.smi:2278|AV-procd|sdf|9181|dock2
  -GOLD-   2272012393D 1   1.00000     0.00000
 Structure written by MMmdl.
 46 47  0  0  0  0  0  0  0  0  2 V2000
  152.4239  128.2701  155.2187 C   0  0  0  0  0  0  0  0  0  0  0  0
  151.6240  129.5443  155.4235 C   0  0  0  0  0  0  0  0  0  0  0  0
  150.4341  129.6343  154.6958 N   0  0  0  0  0  0  0  0  0  0  0  0
  149.6857  130.6818  154.8109 C   0  0  0  0  0  0  0  0  0  0  0  0
  150.0313  131.7482  155.6583 N   0  0  0  0  0  0  0  0  0  0  0  0
  149.0825  132.8754  155.7013 C   0  0  0  0  0  0  0  0  0  0  0  0
  148.7516  133.4332  154.2981 C   0  0  2  0  0  0  0  0  0  0  0  0
  149.7940  134.3146  153.9312 O   0  0  0  0  0  0  0  0  0  0  0  0
  147.4152  134.2058  154.2376 C   0  0  0  0  0  0  0  0  0  0  0  0
  146.8685  134.2989  152.8597 N   0  3  2  0  0  0  0  0  0  0  0  0
  145.6241  135.1077  152.8027 C   0  0  0  0  0  0  0  0  0  0  0  0
  145.1545  135.3079  151.3503 C   0  0  0  0  0  0  0  0  0  0  0  0
  144.9665  133.9722  150.6078 C   0  0  2  0  0  0  0  0  0  0  0  0
  143.7035  133.2141  151.0532 C   0  0  0  0  0  0  0  0  0  0  0  0
  146.2465  133.1278  150.7439 C   0  0  0  0  0  0  0  0  0  0  0  0
  146.6890  132.9734  152.2097 C   0  0  0  0  0  0  0  0  0  0  0  0
  151.1795  131.7446  156.3962 C   0  0  0  0  0  0  0  0  0  0  0  0
  151.4756  132.6841  157.1367 O   0  0  0  0  0  0  0  0  0  0  0  0
  152.0198  130.5445  156.2572 C   0  0  0  0  0  0  0  0  0  0  0  0
  153.3018  130.4999  157.0793 C   0  0  0  0  0  0  0  0  0  0  0  0
  153.4206  128.5011  154.8419 H   0  0  0  0  0  0  0  0  0  0  0  0
  151.9407  127.6084  154.4983 H   0  0  0  0  0  0  0  0  0  0  0  0
  152.5231  127.7261  156.1583 H   0  0  0  0  0  0  0  0  0  0  0  0
  148.7469  130.8010  154.2669 H   0  0  0  0  0  0  0  0  0  0  0  0
  148.1609  132.5995  156.2172 H   0  0  0  0  0  0  0  0  0  0  0  0
  149.5059  133.6711  156.3181 H   0  0  0  0  0  0  0  0  0  0  0  0
  148.7544  132.6107  153.5838 H   0  0  0  0  0  0  0  0  0  0  0  0
  149.4302  135.0130  153.4077 H   0  0  0  0  0  0  0  0  0  0  0  0
  146.6620  133.7417  154.8742 H   0  0  0  0  0  0  0  0  0  0  0  0
  147.5789  135.2062  154.6417 H   0  0  0  0  0  0  0  0  0  0  0  0
  144.8452  134.6268  153.3962 H   0  0  0  0  0  0  0  0  0  0  0  0
  145.8019  136.0851  153.2531 H   0  0  0  0  0  0  0  0  0  0  0  0
  144.2295  135.8851  151.3313 H   0  0  0  0  0  0  0  0  0  0  0  0
  145.8955  135.9086  150.8207 H   0  0  0  0  0  0  0  0  0  0  0  0
  144.8322  134.1995  149.5494 H   0  0  0  0  0  0  0  0  0  0  0  0
  143.7353  132.9435  152.1083 H   0  0  0  0  0  0  0  0  0  0  0  0
  143.5794  132.2938  150.4818 H   0  0  0  0  0  0  0  0  0  0  0  0
  142.8099  133.8181  150.8952 H   0  0  0  0  0  0  0  0  0  0  0  0
  146.1021  132.1462  150.2911 H   0  0  0  0  0  0  0  0  0  0  0  0
  147.0503  133.6041  150.1808 H   0  0  0  0  0  0  0  0  0  0  0  0
  147.6202  132.4090  152.2345 H   0  0  0  0  0  0  0  0  0  0  0  0
  145.9579  132.3869  152.7679 H   0  0  0  0  0  0  0  0  0  0  0  0
  153.0689  130.5744  158.1419 H   0  0  0  0  0  0  0  0  0  0  0  0
  153.9473  131.3382  156.8150 H   0  0  0  0  0  0  0  0  0  0  0  0
  153.8750  129.5858  156.9334 H   0  0  0  0  0  0  0  0  0  0  0  0
  147.5561  134.8053  152.3198 H   0  0  0  0  0  0  0  0  0  0  0  0
  1  2  1  0  0  0  0
  1 21  1  0  0  0  0
  1 22  1  0  0  0  0
  1 23  1  0  0  0  0
  2 19  2  0  0  0  0
  2  3  1  0  0  0  0
  3  4  2  0  0  0  0
  4  5  1  0  0  0  0
  4 24  1  0  0  0  0
  5  6  1  0  0  0  0
  5 17  1  0  0  0  0
  6  7  1  0  0  0  0
  6 25  1  0  0  0  0
  6 26  1  0  0  0  0
  7  8  1  0  0  0  0
  7  9  1  0  0  0  0
  7 27  1  0  0  0  0
  8 28  1  0  0  0  0
  9 10  1  0  0  0  0
  9 29  1  0  0  0  0
  9 30  1  0  0  0  0
 10 16  1  0  0  0  0
 10 11  1  0  0  0  0
 10 46  1  0  0  0  0
 11 12  1  0  0  0  0
 11 31  1  0  0  0  0
 11 32  1  0  0  0  0
 12 13  1  0  0  0  0
 12 33  1  0  0  0  0
 12 34  1  0  0  0  0
 13 14  1  0  0  0  0
 13 15  1  0  0  0  0
 13 35  1  0  0  0  0
 14 36  1  0  0  0  0
 14 37  1  0  0  0  0
 14 38  1  0  0  0  0
 15 16  1  0  0  0  0
 15 39  1  0  0  0  0
 15 40  1  0  0  0  0
 16 41  1  0  0  0  0
 16 42  1  0  0  0  0
 17 18  2  0  0  0  0
 17 19  1  0  0  0  0
 19 20  1  0  0  0  0
 20 43  1  0  0  0  0
 20 44  1  0  0  0  0
 20 45  1  0  0  0  0
M  CHG  1  10   1
M  END
> <s_m_source_file>
AV-unprocessed.smi

> <i_m_source_file_index>
2278

> <i_lp_mmshare_version>
43012

> <i_f3d_flags>
0

> <s_epik_input>
W0NIM11jMW5bY0hdbihjKD1PKWMxW0NIM10pW0NIMl1bQ0BIXShbT0hdKVtDSDJdTjJbQ0gyXVtDSDJdW0NIXShbQ0gzXSlbQ0gyXVtDSDJdMg==

> <s_epik_cmdline>
J2VwaWtfcHl0aG9uJywgJy1waCcsICc3LjAnLCAnLXRuJywgJzgnLCAnLW1hJywgJzIwMCcsICctbWV0YWxfYmluZGluZycsICctaW1hZScsICc8aW5maWxlLm1hZT4nLCAnLW9tYWUnLCAnPG91dGZpbGUubWFlPic=

> <r_lp_tautomer_probability>
1

> <r_epik_Ionization_Penalty>
0.00139489

> <r_epik_Ionization_Penalty_Charging>
0.00136819

> <r_epik_Ionization_Penalty_Neutral>
2.66975e-05

> <r_epik_State_Penalty>
0.000910892

> <r_epik_Charging_Adjusted_Penalty>
0.00227908

> <i_epik_Tot_Q>
1

> <i_epik_Tot_abs_Q>
1

> <r_epik_Metal_State_Penalty>
-0

> <b_epik_Metal_Only>
0

> <s_lp_Force_Field>
OPLS_2005

> <r_lp_Energy>
30.3115

> <b_lp_Chiralities_Consistent>
1

> <s_lp_Variant>
AV-unprocessed.smi:2278-3

> <Gold.Version>
5.8.1

> <Gold.Id.Protein>
6NUR|6NUR_protein|mol2

> <Gold.PLP.Fitness>
44.7627

> <Gold.PLP.PLP>
-34.1444

> <Gold.PLP.part.hbond>
-3.3138

> <Gold.PLP.part.metal>
0.0000

> <Gold.PLP.part.buried>
-2.8975

> <Gold.PLP.part.nonpolar>
-28.1285

> <Gold.PLP.part.repulsive>
0.0779

> <Gold.PLP.ligand.clash>
0.0000

> <Gold.PLP.ligand.torsion>
0.4827

> <Gold.PLP.Chemscore.Hbond>
3.8400

> <Gold.PLP.Chemscore.CHOScore>
0.0000

> <Gold.PLP.Chemscore.Metal>
0.0000

> <Gold.Chemscore.Hbonds>
donor molecule, donor type, donor heavy atom, donor atom, acceptor molecule, acceptor atom, score
      L1  H     8    28       P1  7948  0.60
      L1  H    10    46       P1  7948  2.00
      P1  H  6896  6908       L1    18  0.60

> <Gold.PLP.Chemscore.Internal.Correction>
0.0636

> <Gold.Rescore>
     Score         DG    S(hbond)    S(metal)    S(lipo)     H(rot)  DE(clash)    DE(int)     intcor
     14.44     -14.98       2.20        0.00      66.54       2.20       0.01       0.53       ----

> <Gold.Chemscore.Fitness>
14.4423

> <Gold.Chemscore.DG>
-14.9814

> <Gold.Chemscore.ZeroCoef>
-5.4800

> <Gold.Chemscore.Hbond>
2.1989

> <Gold.Chemscore.Metal>
0.0000

> <Gold.Chemscore.Lipo>
66.5438

> <Gold.Chemscore.Internal_Hbond>
0.0000

> <Gold.Chemscore.DEClash>
0.0078

> <Gold.Chemscore.DEInternal>
0.5312

> <Gold.Chemscore.Rot>
2.1986

> <Gold.Chemscore.Internal.Correction>
   9.000000E+99

> <Gold.Chemscore.Hbonds>
donor molecule, donor type, donor heavy atom, donor atom, acceptor molecule, acceptor atom, score
      L1  H     8    28       P1  7948  0.04
      L1  H    10    46       P1  7948  0.86
      P1  H  6896  6908       L1    18  0.56

> <Gold.Chemscore.Hbond.Weighted>
-7.3442

> <Gold.Chemscore.Metal.Weighted>
-0.0000

> <Gold.Chemscore.Lipo.Weighted>
-7.7856

> <Gold.Chemscore.Internal_Hbond.Weighted>
0.0000

> <Gold.Chemscore.DEClash.Weighted>
0.0078

> <Gold.Chemscore.DEInternal.Weighted>
0.5312

> <Gold.Chemscore.Rot.Weighted>
5.6285

> <Gold.Chemscore.Internal.Correction.Weighted>
   9.000000E+99

> <Gold.Protein.RotatedTorsions>
[ 6907 6896 6895 6894 ] final   68.11 input  -60.11 | X-H torsion
[ 7974 7965 7964 7962 ] final -126.99 input  175.53 | X-H torsion
[ 8008 7997 7996 7995 ] final   88.79 input   59.86 | X-H torsion
[ 10167 10162 10161 10158 ] final   -8.30 input  -65.29 | X-H torsion
[ 10718 10713 10712 10709 ] final  -71.55 input   66.30 | X-H torsion
[ 10763 10752 10751 10750 ] final  142.50 input  -60.55 | X-H torsion
[ 11005 11000 10999 10996 ] final   93.50 input  -57.11 | X-H torsion

> <Gold.Protein.ActiveResidues>
 VAL166  LYS551  ARG553  GLY616  TRP617  ASP618  TYR619  PRO620  LYS621  CYS622 
 ASP623  PHE694  ASN695  SER759  ASP760  ASP761  ALA762  ILE779  LEU786  VAL792 
 PHE793  MET794  SER795  GLU796  ALA797  LYS798  CYS799  TRP800  GLU811  SER814 

> <Gold.Protein.RotatedAtoms>
  152.4598  134.5210  159.9782 H   0  0  0  0  0  0  0  0  0  0  0  0  # atno 6907 bound_to 6896
  151.5261  133.3451  159.2918 H   0  0  0  0  0  0  0  0  0  0  0  0  # atno 6908 bound_to 6896
  150.8556  134.7924  159.7106 H   0  0  0  0  0  0  0  0  0  0  0  0  # atno 6909 bound_to 6896
  144.9816  140.7645  143.4609 H   0  0  0  0  0  0  0  0  0  0  0  0  # atno 7974 bound_to 7965
  155.9921  140.3368  155.6763 H   0  0  0  0  0  0  0  0  0  0  0  0  # atno 8008 bound_to 7997
  155.6406  140.0695  157.2637 H   0  0  0  0  0  0  0  0  0  0  0  0  # atno 8009 bound_to 7997
  154.4222  140.1743  156.1557 H   0  0  0  0  0  0  0  0  0  0  0  0  # atno 8010 bound_to 7997
  140.7055  143.5984  150.8822 H   0  0  0  0  0  0  0  0  0  0  0  0  # atno 10167 bound_to 10162
  156.0358  130.4354  150.2461 H   0  0  0  0  0  0  0  0  0  0  0  0  # atno 10718 bound_to 10713
  153.9568  135.2964  155.3436 H   0  0  0  0  0  0  0  0  0  0  0  0  # atno 10763 bound_to 10752
  154.7396  135.5030  153.9104 H   0  0  0  0  0  0  0  0  0  0  0  0  # atno 10764 bound_to 10752
  153.0966  135.6723  153.9860 H   0  0  0  0  0  0  0  0  0  0  0  0  # atno 10765 bound_to 10752
  139.8809  134.8793  156.3727 H   0  0  0  0  0  0  0  0  0  0  0  0  # atno 11005 bound_to 11000
  145.2413  139.2071  143.4991 LP  0  0  0  0  0  0  0  0  0  0  0  0  # atno 17320 bound_to 7965
  146.3409  140.2309  142.8593 LP  0  0  0  0  0  0  0  0  0  0  0  0  # atno 17321 bound_to 7965
  139.9709  143.6058  152.2974 LP  0  0  0  0  0  0  0  0  0  0  0  0  # atno 17342 bound_to 10162
  139.6644  144.7662  151.1901 LP  0  0  0  0  0  0  0  0  0  0  0  0  # atno 17343 bound_to 10162
  157.0560  131.0076  151.3238 LP  0  0  0  0  0  0  0  0  0  0  0  0  # atno 17370 bound_to 10713
  157.5105  130.7936  149.7700 LP  0  0  0  0  0  0  0  0  0  0  0  0  # atno 17371 bound_to 10713
  140.9453  133.7487  156.0200 LP  0  0  0  0  0  0  0  0  0  0  0  0  # atno 17394 bound_to 11000
  140.8170  134.3333  157.5394 LP  0  0  0  0  0  0  0  0  0  0  0  0  # atno 17395 bound_to 11000

$$$$
