AV-unprocessed.smi:239|AV-procd|sdf|1821|dock4
  -GOLD-   2262020413D 1   1.00000     0.00000
 Structure written by MMmdl.
 54 58  0  0  0  0  0  0  0  0  1 V2000
  153.9056  137.1242  162.8578 C   0  0  0  0  0  0  0  0  0  0  0  0
  154.1066  137.7932  161.4940 C   0  0  1  0  0  0  0  0  0  0  0  0
  153.0809  137.3058  160.4548 C   0  0  0  0  0  0  0  0  0  0  0  0
  153.2357  138.0478  159.2062 N   0  0  0  0  0  0  0  0  0  0  0  0
  152.5864  137.5881  158.1057 C   0  0  0  0  0  0  0  0  0  0  0  0
  152.5327  136.2514  157.8588 N   0  0  0  0  0  0  0  0  0  0  0  0
  151.8899  135.7869  156.7836 C   0  0  0  0  0  0  0  0  0  0  0  0
  151.2461  136.4709  155.8365 N   0  0  0  0  0  0  0  0  0  0  0  0
  151.3050  137.8130  156.0697 C   0  0  0  0  0  0  0  0  0  0  0  0
  151.9452  138.4503  157.1706 C   0  0  0  0  0  0  0  0  0  0  0  0
  151.7992  139.8290  157.0659 N   0  0  0  0  0  0  0  0  0  0  0  0
  151.1029  139.9953  155.9748 C   0  0  0  0  0  0  0  0  0  0  0  0
  150.7727  138.8380  155.3068 N   0  0  0  0  0  0  0  0  0  0  0  0
  150.0145  138.7308  154.0691 C   0  0  0  0  0  0  0  0  0  0  0  0
  148.6675  139.4964  154.0843 C   0  0  0  0  0  0  0  0  0  0  0  0
  147.9545  139.1432  152.9119 O   0  0  0  0  0  0  0  0  0  0  0  0
  147.8271  139.0789  155.3081 C   0  0  0  0  0  0  0  0  0  0  0  0
  146.5571  139.9351  155.4607 C   0  0  0  0  0  0  0  0  0  0  0  0
  146.9048  141.3130  155.5192 O   0  0  0  0  0  0  0  0  0  0  0  0
  147.5263  141.7738  154.3259 C   0  0  0  0  0  0  0  0  0  0  0  0
  148.8541  141.0295  154.0975 C   0  0  0  0  0  0  0  0  0  0  0  0
  153.1900  139.4944  159.3922 C   0  0  0  0  0  0  0  0  0  0  0  0
  154.2127  139.9278  160.4584 C   0  0  1  0  0  0  0  0  0  0  0  0
  154.1484  141.4241  160.7157 C   0  0  0  0  0  0  0  0  0  0  0  0
  153.2440  142.0000  161.7845 C   0  0  0  0  0  0  0  0  0  0  0  0
  152.9309  142.2364  160.3294 C   0  0  0  0  0  0  0  0  0  0  0  0
  153.9649  139.2008  161.6615 O   0  0  0  0  0  0  0  0  0  0  0  0
  154.0135  136.0420  162.7835 H   0  0  0  0  0  0  0  0  0  0  0  0
  152.9134  137.3349  163.2582 H   0  0  0  0  0  0  0  0  0  0  0  0
  154.6396  137.4830  163.5798 H   0  0  0  0  0  0  0  0  0  0  0  0
  155.1170  137.5742  161.1443 H   0  0  0  0  0  0  0  0  0  0  0  0
  153.2199  136.2387  160.2755 H   0  0  0  0  0  0  0  0  0  0  0  0
  152.0675  137.4445  160.8349 H   0  0  0  0  0  0  0  0  0  0  0  0
  151.8914  134.7134  156.6655 H   0  0  0  0  0  0  0  0  0  0  0  0
  150.8178  140.9746  155.6188 H   0  0  0  0  0  0  0  0  0  0  0  0
  150.6424  139.0870  153.2511 H   0  0  0  0  0  0  0  0  0  0  0  0
  149.8392  137.6718  153.8749 H   0  0  0  0  0  0  0  0  0  0  0  0
  148.5509  139.1642  152.1792 H   0  0  0  0  0  0  0  0  0  0  0  0
  147.5611  138.0227  155.2485 H   0  0  0  0  0  0  0  0  0  0  0  0
  148.4269  139.1908  156.2123 H   0  0  0  0  0  0  0  0  0  0  0  0
  145.8595  139.7578  154.6410 H   0  0  0  0  0  0  0  0  0  0  0  0
  146.0363  139.6664  156.3798 H   0  0  0  0  0  0  0  0  0  0  0  0
  146.8523  141.6446  153.4776 H   0  0  0  0  0  0  0  0  0  0  0  0
  147.7117  142.8440  154.4188 H   0  0  0  0  0  0  0  0  0  0  0  0
  149.5446  141.3000  154.8973 H   0  0  0  0  0  0  0  0  0  0  0  0
  149.3087  141.3754  153.1687 H   0  0  0  0  0  0  0  0  0  0  0  0
  153.3918  140.0228  158.4614 H   0  0  0  0  0  0  0  0  0  0  0  0
  152.1832  139.7772  159.7030 H   0  0  0  0  0  0  0  0  0  0  0  0
  155.2220  139.7012  160.1100 H   0  0  0  0  0  0  0  0  0  0  0  0
  155.1072  141.9247  160.5929 H   0  0  0  0  0  0  0  0  0  0  0  0
  152.5967  141.3180  162.3323 H   0  0  0  0  0  0  0  0  0  0  0  0
  153.6234  142.8418  162.3601 H   0  0  0  0  0  0  0  0  0  0  0  0
  153.1019  143.2354  159.9336 H   0  0  0  0  0  0  0  0  0  0  0  0
  152.0773  141.7102  159.9069 H   0  0  0  0  0  0  0  0  0  0  0  0
  1  2  1  0  0  0  0
  1 28  1  0  0  0  0
  1 29  1  0  0  0  0
  1 30  1  0  0  0  0
  2 27  1  0  0  0  0
  2  3  1  0  0  0  0
  2 31  1  0  0  0  0
  3  4  1  0  0  0  0
  3 32  1  0  0  0  0
  3 33  1  0  0  0  0
  4  5  1  0  0  0  0
  4 22  1  0  0  0  0
  5 10  1  0  0  0  0
  5  6  2  0  0  0  0
  6  7  1  0  0  0  0
  7  8  2  0  0  0  0
  7 34  1  0  0  0  0
  8  9  1  0  0  0  0
  9 13  1  0  0  0  0
  9 10  2  0  0  0  0
 10 11  1  0  0  0  0
 11 12  2  0  0  0  0
 12 13  1  0  0  0  0
 12 35  1  0  0  0  0
 13 14  1  0  0  0  0
 14 15  1  0  0  0  0
 14 36  1  0  0  0  0
 14 37  1  0  0  0  0
 15 21  1  0  0  0  0
 15 16  1  0  0  0  0
 15 17  1  0  0  0  0
 16 38  1  0  0  0  0
 17 18  1  0  0  0  0
 17 39  1  0  0  0  0
 17 40  1  0  0  0  0
 18 19  1  0  0  0  0
 18 41  1  0  0  0  0
 18 42  1  0  0  0  0
 19 20  1  0  0  0  0
 20 21  1  0  0  0  0
 20 43  1  0  0  0  0
 20 44  1  0  0  0  0
 21 45  1  0  0  0  0
 21 46  1  0  0  0  0
 22 23  1  0  0  0  0
 22 47  1  0  0  0  0
 22 48  1  0  0  0  0
 23 24  1  0  0  0  0
 23 27  1  0  0  0  0
 23 49  1  0  0  0  0
 24 26  1  0  0  0  0
 24 25  1  0  0  0  0
 24 50  1  0  0  0  0
 25 26  1  0  0  0  0
 25 51  1  0  0  0  0
 25 52  1  0  0  0  0
 26 53  1  0  0  0  0
 26 54  1  0  0  0  0
M  END
> <s_m_source_file>
AV-unprocessed.smi

> <i_m_source_file_index>
239

> <i_lp_mmshare_version>
43012

> <i_f3d_flags>
0

> <s_epik_input>
W0NIMl0xW0NIMl1bQ0hdMVtDQEBIXShPMilbQ0gyXU4oW0NIMl1bQ0BIXTJbQ0gzXSljKG5bY0hdbjMpYyhjMzQpbltjSF1uNFtDSDJdQzUoW09IXSlbQ0gyXVtDSDJdT1tDSDJdW0NIMl01

> <s_epik_cmdline>
J2VwaWtfcHl0aG9uJywgJy1waCcsICc3LjAnLCAnLXRuJywgJzgnLCAnLW1hJywgJzIwMCcsICctbWV0YWxfYmluZGluZycsICctaW1hZScsICc8aW5maWxlLm1hZT4nLCAnLW9tYWUnLCAnPG91dGZpbGUubWFlPic=

> <r_lp_tautomer_probability>
1

> <r_epik_Ionization_Penalty>
9.13091e-05

> <r_epik_Ionization_Penalty_Charging>
0

> <r_epik_Ionization_Penalty_Neutral>
9.13091e-05

> <r_epik_State_Penalty>
-0

> <r_epik_Charging_Adjusted_Penalty>
0

> <i_epik_Tot_Q>
0

> <i_epik_Tot_abs_Q>
0

> <r_epik_Metal_State_Penalty>
-0

> <b_epik_Metal_Only>
0

> <s_lp_Force_Field>
OPLS_2005

> <r_lp_Energy>
35.8814

> <b_lp_Chiralities_Consistent>
1

> <s_lp_Variant>
AV-unprocessed.smi:239-2

> <Gold.Version>
5.8.1

> <Gold.Id.Protein>
6NUR|6NUR_protein|mol2

> <Gold.PLP.Fitness>
44.8972

> <Gold.PLP.PLP>
-43.9134

> <Gold.PLP.part.hbond>
-2.1193

> <Gold.PLP.part.metal>
0.0000

> <Gold.PLP.part.buried>
-3.4998

> <Gold.PLP.part.nonpolar>
-37.7591

> <Gold.PLP.part.repulsive>
0.1353

> <Gold.PLP.ligand.clash>
0.6886

> <Gold.PLP.ligand.torsion>
1.3567

> <Gold.PLP.Chemscore.Hbond>
1.0000

> <Gold.PLP.Chemscore.CHOScore>
0.0000

> <Gold.PLP.Chemscore.Metal>
0.0000

> <Gold.Chemscore.Hbonds>
donor molecule, donor type, donor heavy atom, donor atom, acceptor molecule, acceptor atom, score
      L1  H    16    38       P1  7957  1.00

> <Gold.PLP.Chemscore.Internal.Correction>
1.3858

> <Gold.Rescore>
     Score         DG    S(hbond)    S(metal)    S(lipo)     H(rot)  DE(clash)    DE(int)     intcor
     13.25     -16.23       1.19        0.00     106.83       2.24       0.19       2.80       ----

> <Gold.Chemscore.Fitness>
13.2491

> <Gold.Chemscore.DG>
-16.2315

> <Gold.Chemscore.ZeroCoef>
-5.4800

> <Gold.Chemscore.Hbond>
1.1925

> <Gold.Chemscore.Metal>
0.0000

> <Gold.Chemscore.Lipo>
106.8337

> <Gold.Chemscore.Internal_Hbond>
0.0000

> <Gold.Chemscore.DEClash>
0.1872

> <Gold.Chemscore.DEInternal>
2.7952

> <Gold.Chemscore.Rot>
2.2387

> <Gold.Chemscore.Internal.Correction>
   9.000000E+99

> <Gold.Chemscore.Hbonds>
donor molecule, donor type, donor heavy atom, donor atom, acceptor molecule, acceptor atom, score
      L1  H    16    38       P1  7957  0.95

> <Gold.Chemscore.Hbond.Weighted>
-3.9831

> <Gold.Chemscore.Metal.Weighted>
-0.0000

> <Gold.Chemscore.Lipo.Weighted>
-12.4995

> <Gold.Chemscore.Internal_Hbond.Weighted>
0.0000

> <Gold.Chemscore.DEClash.Weighted>
0.1872

> <Gold.Chemscore.DEInternal.Weighted>
2.7952

> <Gold.Chemscore.Rot.Weighted>
5.7311

> <Gold.Chemscore.Internal.Correction.Weighted>
   9.000000E+99

> <Gold.Protein.RotatedTorsions>
[ 6907 6896 6895 6894 ] final -114.84 input  -60.11 | X-H torsion
[ 7974 7965 7964 7962 ] final   86.81 input  175.53 | X-H torsion
[ 8008 7997 7996 7995 ] final -161.36 input   59.86 | X-H torsion
[ 10167 10162 10161 10158 ] final -123.05 input  -65.29 | X-H torsion
[ 10718 10713 10712 10709 ] final   64.39 input   66.30 | X-H torsion
[ 10763 10752 10751 10750 ] final   88.83 input  -60.55 | X-H torsion
[ 11005 11000 10999 10996 ] final    0.38 input  -57.11 | X-H torsion

> <Gold.Protein.ActiveResidues>
 VAL166  LYS551  ARG553  GLY616  TRP617  ASP618  TYR619  PRO620  LYS621  CYS622 
 ASP623  PHE694  ASN695  SER759  ASP760  ASP761  ALA762  ILE779  LEU786  VAL792 
 PHE793  MET794  SER795  GLU796  ALA797  LYS798  CYS799  TRP800  GLU811  SER814 

> <Gold.Protein.RotatedAtoms>
  150.7933  133.8743  159.3267 H   0  0  0  0  0  0  0  0  0  0  0  0  # atno 6907 bound_to 6896
  151.6575  135.0992  160.0182 H   0  0  0  0  0  0  0  0  0  0  0  0  # atno 6908 bound_to 6896
  152.4010  133.6779  159.6352 H   0  0  0  0  0  0  0  0  0  0  0  0  # atno 6909 bound_to 6896
  145.5673  139.2310  143.2426 H   0  0  0  0  0  0  0  0  0  0  0  0  # atno 7974 bound_to 7965
  155.7910  140.0878  157.2009 H   0  0  0  0  0  0  0  0  0  0  0  0  # atno 8008 bound_to 7997
  154.3985  140.1490  156.3221 H   0  0  0  0  0  0  0  0  0  0  0  0  # atno 8009 bound_to 7997
  155.8558  140.3432  155.5726 H   0  0  0  0  0  0  0  0  0  0  0  0  # atno 8010 bound_to 7997
  140.0077  143.5475  152.2277 H   0  0  0  0  0  0  0  0  0  0  0  0  # atno 10167 bound_to 10162
  157.6036  130.9157  149.9839 H   0  0  0  0  0  0  0  0  0  0  0  0  # atno 10718 bound_to 10713
  153.1808  135.4493  155.0025 H   0  0  0  0  0  0  0  0  0  0  0  0  # atno 10763 bound_to 10752
  154.8029  135.3262  154.7508 H   0  0  0  0  0  0  0  0  0  0  0  0  # atno 10764 bound_to 10752
  153.7973  135.6965  153.4916 H   0  0  0  0  0  0  0  0  0  0  0  0  # atno 10765 bound_to 10752
  140.6272  133.9608  155.8255 H   0  0  0  0  0  0  0  0  0  0  0  0  # atno 11005 bound_to 11000
  146.1809  140.6499  142.9189 LP  0  0  0  0  0  0  0  0  0  0  0  0  # atno 17320 bound_to 7965
  144.7454  140.5055  143.6839 LP  0  0  0  0  0  0  0  0  0  0  0  0  # atno 17321 bound_to 7965
  139.6227  144.7632  151.2705 LP  0  0  0  0  0  0  0  0  0  0  0  0  # atno 17342 bound_to 10162
  140.7394  143.6619  150.8156 LP  0  0  0  0  0  0  0  0  0  0  0  0  # atno 17343 bound_to 10162
  156.1116  130.3650  150.0039 LP  0  0  0  0  0  0  0  0  0  0  0  0  # atno 17370 bound_to 10713
  156.8137  130.9334  151.3643 LP  0  0  0  0  0  0  0  0  0  0  0  0  # atno 17371 bound_to 10713
  141.0701  134.0218  157.3538 LP  0  0  0  0  0  0  0  0  0  0  0  0  # atno 17394 bound_to 11000
  139.9130  135.0193  156.7769 LP  0  0  0  0  0  0  0  0  0  0  0  0  # atno 17395 bound_to 11000

$$$$
