AV-unprocessed.smi:724|AV-procd|sdf|3507|dock8
  -GOLD-   22720 0503D 1   1.00000     0.00000
 Structure written by MMmdl.
 36 37  0  0  0  0  0  0  0  0  1 V2000
  145.4148  135.3938  161.6462 C   0  0  0  0  0  0  0  0  0  0  0  0
  146.8807  134.9502  161.4596 C   0  0  0  0  0  0  0  0  0  0  0  0
  147.4319  134.4494  162.8107 C   0  0  0  0  0  0  0  0  0  0  0  0
  146.9286  133.7900  160.4374 C   0  0  0  0  0  0  0  0  0  0  0  0
  147.7085  136.1765  161.0066 C   0  0  0  0  0  0  0  0  0  0  0  0
  147.7065  137.1973  161.6968 O   0  0  0  0  0  0  0  0  0  0  0  0
  148.3904  136.0951  159.8496 N   0  0  0  0  0  0  0  0  0  0  0  0
  149.1506  137.1797  159.2301 C   0  0  0  0  0  0  0  0  0  0  0  0
  149.1337  137.1106  157.6897 C   0  0  0  0  0  0  0  0  0  0  0  0
  149.5415  135.7819  157.1401 C   0  0  0  0  0  0  0  0  0  0  0  0
  149.6734  135.4506  155.8585 N   0  0  0  0  0  0  0  0  0  0  0  0
  149.9144  134.1149  155.9602 C   0  0  0  0  0  0  0  0  0  0  0  0
  150.1344  133.2394  154.7691 C   0  0  0  0  0  0  0  0  0  0  0  0
  149.1045  133.1783  153.6608 C   0  0  0  0  0  0  0  0  0  0  0  0
  149.2994  131.9926  154.5649 C   0  0  0  0  0  0  0  0  0  0  0  0
  149.9841  133.6279  157.1928 N   0  0  0  0  0  0  0  0  0  0  0  0
  149.7104  134.7441  157.9954 O   0  0  0  0  0  0  0  0  0  0  0  0
  144.7921  134.5656  161.9856 H   0  0  0  0  0  0  0  0  0  0  0  0
  144.9874  135.7597  160.7115 H   0  0  0  0  0  0  0  0  0  0  0  0
  145.3207  136.1916  162.3844 H   0  0  0  0  0  0  0  0  0  0  0  0
  147.3710  135.2162  163.5846 H   0  0  0  0  0  0  0  0  0  0  0  0
  148.4771  134.1471  162.7281 H   0  0  0  0  0  0  0  0  0  0  0  0
  146.8710  133.5859  163.1697 H   0  0  0  0  0  0  0  0  0  0  0  0
  146.3385  132.9404  160.7829 H   0  0  0  0  0  0  0  0  0  0  0  0
  147.9464  133.4296  160.2816 H   0  0  0  0  0  0  0  0  0  0  0  0
  146.5239  134.0856  159.4680 H   0  0  0  0  0  0  0  0  0  0  0  0
  148.3449  135.2242  159.3404 H   0  0  0  0  0  0  0  0  0  0  0  0
  148.7681  138.1474  159.5591 H   0  0  0  0  0  0  0  0  0  0  0  0
  150.1791  137.1262  159.5872 H   0  0  0  0  0  0  0  0  0  0  0  0
  148.1365  137.3503  157.3196 H   0  0  0  0  0  0  0  0  0  0  0  0
  149.8029  137.8693  157.2822 H   0  0  0  0  0  0  0  0  0  0  0  0
  151.1867  133.2044  154.4939 H   0  0  0  0  0  0  0  0  0  0  0  0
  148.1910  133.7572  153.7848 H   0  0  0  0  0  0  0  0  0  0  0  0
  149.4714  133.0992  152.6396 H   0  0  0  0  0  0  0  0  0  0  0  0
  149.7963  131.1187  154.1486 H   0  0  0  0  0  0  0  0  0  0  0  0
  148.5150  131.7824  155.2897 H   0  0  0  0  0  0  0  0  0  0  0  0
  1  2  1  0  0  0  0
  1 18  1  0  0  0  0
  1 19  1  0  0  0  0
  1 20  1  0  0  0  0
  2  3  1  0  0  0  0
  2  4  1  0  0  0  0
  2  5  1  0  0  0  0
  3 21  1  0  0  0  0
  3 22  1  0  0  0  0
  3 23  1  0  0  0  0
  4 24  1  0  0  0  0
  4 25  1  0  0  0  0
  4 26  1  0  0  0  0
  5  6  2  0  0  0  0
  5  7  1  0  0  0  0
  7  8  1  0  0  0  0
  7 27  1  0  0  0  0
  8  9  1  0  0  0  0
  8 28  1  0  0  0  0
  8 29  1  0  0  0  0
  9 10  1  0  0  0  0
  9 30  1  0  0  0  0
  9 31  1  0  0  0  0
 10 17  1  0  0  0  0
 10 11  2  0  0  0  0
 11 12  1  0  0  0  0
 12 13  1  0  0  0  0
 12 16  2  0  0  0  0
 13 15  1  0  0  0  0
 13 14  1  0  0  0  0
 13 32  1  0  0  0  0
 14 15  1  0  0  0  0
 14 33  1  0  0  0  0
 14 34  1  0  0  0  0
 15 35  1  0  0  0  0
 15 36  1  0  0  0  0
 16 17  1  0  0  0  0
M  END
> <s_m_source_file>
AV-unprocessed.smi

> <i_m_source_file_index>
724

> <i_lp_mmshare_version>
43012

> <i_f3d_flags>
0

> <s_epik_input>
W0NIM11DKFtDSDNdKShbQ0gzXSlDKD1PKVtOSF1bQ0gyXVtDSDJdYzFuYyhubzEpW0NIXTJbQ0gyXVtDSDJdMg==

> <s_epik_cmdline>
J2VwaWtfcHl0aG9uJywgJy1waCcsICc3LjAnLCAnLXRuJywgJzgnLCAnLW1hJywgJzIwMCcsICctbWV0YWxfYmluZGluZycsICctaW1hZScsICc8aW5maWxlLm1hZT4nLCAnLW9tYWUnLCAnPG91dGZpbGUubWFlPic=

> <r_lp_tautomer_probability>
1

> <r_epik_Ionization_Penalty>
2.89377e-08

> <r_epik_Ionization_Penalty_Charging>
0

> <r_epik_Ionization_Penalty_Neutral>
2.89377e-08

> <r_epik_State_Penalty>
-0

> <r_epik_Charging_Adjusted_Penalty>
0

> <i_epik_Tot_Q>
0

> <i_epik_Tot_abs_Q>
0

> <r_epik_Metal_State_Penalty>
-0

> <b_epik_Metal_Only>
0

> <s_lp_Force_Field>
OPLS_2005

> <r_lp_Energy>
6.75537

> <b_lp_Chiralities_Consistent>
1

> <s_lp_Variant>
AV-unprocessed.smi:724-1

> <Gold.Version>
5.8.1

> <Gold.Id.Protein>
6NUR|6NUR_protein|mol2

> <Gold.PLP.Fitness>
35.3384

> <Gold.PLP.PLP>
-27.5866

> <Gold.PLP.part.hbond>
-3.5538

> <Gold.PLP.part.metal>
0.0000

> <Gold.PLP.part.buried>
-3.5115

> <Gold.PLP.part.nonpolar>
-19.6331

> <Gold.PLP.part.repulsive>
0.2295

> <Gold.PLP.ligand.clash>
0.0000

> <Gold.PLP.ligand.torsion>
0.3181

> <Gold.PLP.Chemscore.Hbond>
2.7360

> <Gold.PLP.Chemscore.CHOScore>
0.0000

> <Gold.PLP.Chemscore.Metal>
0.0000

> <Gold.Chemscore.Hbonds>
donor molecule, donor type, donor heavy atom, donor atom, acceptor molecule, acceptor atom, score
      P1  H  6896  6908       L1    17  1.00
      P1  H  6931  6943       L1     6  1.00
      P1  H  6934  6947       L1     6  0.69

> <Gold.PLP.Chemscore.Internal.Correction>
0.1801

> <Gold.Rescore>
     Score         DG    S(hbond)    S(metal)    S(lipo)     H(rot)  DE(clash)    DE(int)     intcor
     12.64     -14.55       2.55        0.00      46.61       1.91       0.03       1.87       ----

> <Gold.Chemscore.Fitness>
12.6449

> <Gold.Chemscore.DG>
-14.5476

> <Gold.Chemscore.ZeroCoef>
-5.4800

> <Gold.Chemscore.Hbond>
2.5483

> <Gold.Chemscore.Metal>
0.0000

> <Gold.Chemscore.Lipo>
46.6087

> <Gold.Chemscore.Internal_Hbond>
0.0000

> <Gold.Chemscore.DEClash>
0.0310

> <Gold.Chemscore.DEInternal>
1.8718

> <Gold.Chemscore.Rot>
1.9129

> <Gold.Chemscore.Internal.Correction>
   9.000000E+99

> <Gold.Chemscore.Hbonds>
donor molecule, donor type, donor heavy atom, donor atom, acceptor molecule, acceptor atom, score
      P1  H  6896  6908       L1    17  0.25
      P1  H  6931  6943       L1     6  0.95
      P1  H  6934  6947       L1     6  0.64

> <Gold.Chemscore.Hbond.Weighted>
-8.5114

> <Gold.Chemscore.Metal.Weighted>
-0.0000

> <Gold.Chemscore.Lipo.Weighted>
-5.4532

> <Gold.Chemscore.Internal_Hbond.Weighted>
0.0000

> <Gold.Chemscore.DEClash.Weighted>
0.0310

> <Gold.Chemscore.DEInternal.Weighted>
1.8718

> <Gold.Chemscore.Rot.Weighted>
4.8970

> <Gold.Chemscore.Internal.Correction.Weighted>
   9.000000E+99

> <Gold.Protein.RotatedTorsions>
[ 6907 6896 6895 6894 ] final  153.28 input  -60.11 | X-H torsion
[ 7974 7965 7964 7962 ] final  114.28 input  175.53 | X-H torsion
[ 8008 7997 7996 7995 ] final -168.13 input   59.86 | X-H torsion
[ 10167 10162 10161 10158 ] final  119.22 input  -65.29 | X-H torsion
[ 10718 10713 10712 10709 ] final  118.60 input   66.30 | X-H torsion
[ 10763 10752 10751 10750 ] final  139.61 input  -60.55 | X-H torsion
[ 11005 11000 10999 10996 ] final  165.02 input  -57.11 | X-H torsion

> <Gold.Protein.ActiveResidues>
 VAL166  LYS551  ARG553  GLY616  TRP617  ASP618  TYR619  PRO620  LYS621  CYS622 
 ASP623  PHE694  ASN695  SER759  ASP760  ASP761  ALA762  ILE779  LEU786  VAL792 
 PHE793  MET794  SER795  GLU796  ALA797  LYS798  CYS799  TRP800  GLU811  SER814 

> <Gold.Protein.RotatedAtoms>
  152.0749  133.4124  159.4475 H   0  0  0  0  0  0  0  0  0  0  0  0  # atno 6907 bound_to 6896
  150.6863  134.3049  159.4731 H   0  0  0  0  0  0  0  0  0  0  0  0  # atno 6908 bound_to 6896
  152.0885  134.9423  160.0623 H   0  0  0  0  0  0  0  0  0  0  0  0  # atno 6909 bound_to 6896
  145.2064  139.2927  143.4291 H   0  0  0  0  0  0  0  0  0  0  0  0  # atno 7974 bound_to 7965
  155.8872  140.1018  157.1444 H   0  0  0  0  0  0  0  0  0  0  0  0  # atno 8008 bound_to 7997
  154.4011  140.1318  156.4334 H   0  0  0  0  0  0  0  0  0  0  0  0  # atno 8009 bound_to 7997
  155.7576  140.3464  155.5184 H   0  0  0  0  0  0  0  0  0  0  0  0  # atno 8010 bound_to 7997
  139.6060  144.7070  151.2952 H   0  0  0  0  0  0  0  0  0  0  0  0  # atno 10167 bound_to 10162
  157.6019  131.1049  150.7779 H   0  0  0  0  0  0  0  0  0  0  0  0  # atno 10718 bound_to 10713
  153.9090  135.3013  155.3448 H   0  0  0  0  0  0  0  0  0  0  0  0  # atno 10763 bound_to 10752
  154.7633  135.4923  153.9508 H   0  0  0  0  0  0  0  0  0  0  0  0  # atno 10764 bound_to 10752
  153.1203  135.6780  153.9448 H   0  0  0  0  0  0  0  0  0  0  0  0  # atno 10765 bound_to 10752
  140.2519  134.7970  157.3509 H   0  0  0  0  0  0  0  0  0  0  0  0  # atno 11005 bound_to 11000
  146.3407  140.2325  142.8593 LP  0  0  0  0  0  0  0  0  0  0  0  0  # atno 17320 bound_to 7965
  144.9898  140.8537  143.5346 LP  0  0  0  0  0  0  0  0  0  0  0  0  # atno 17321 bound_to 7965
  140.7285  143.6933  150.7904 LP  0  0  0  0  0  0  0  0  0  0  0  0  # atno 17342 bound_to 10162
  140.0519  143.5241  152.2669 LP  0  0  0  0  0  0  0  0  0  0  0  0  # atno 17343 bound_to 10162
  156.8176  130.4973  149.5347 LP  0  0  0  0  0  0  0  0  0  0  0  0  # atno 17370 bound_to 10713
  156.1094  130.6029  151.0024 LP  0  0  0  0  0  0  0  0  0  0  0  0  # atno 17371 bound_to 10713
  140.1550  134.4801  155.7934 LP  0  0  0  0  0  0  0  0  0  0  0  0  # atno 17394 bound_to 11000
  141.2200  133.6878  156.7444 LP  0  0  0  0  0  0  0  0  0  0  0  0  # atno 17395 bound_to 11000

$$$$
