AV-unprocessed.smi:3274|AV-procd|sdf|12523|dock4
  -GOLD-   2272018433D 1   1.00000     0.00000
 Structure written by MMmdl.
 43 44  0  0  0  0  0  0  0  0  2 V2000
  151.0727  139.8965  158.1428 C   0  0  0  0  0  0  0  0  0  0  0  0
  151.6758  141.2165  158.5944 C   0  0  0  0  0  0  0  0  0  0  0  0
  152.7549  141.2156  159.4003 C   0  0  0  0  0  0  0  0  0  0  0  0
  153.3906  142.4604  159.9741 C   0  0  0  0  0  0  0  0  0  0  0  0
  152.4049  143.6308  159.9685 C   0  0  0  0  0  0  0  0  0  0  0  0
  151.7479  143.8036  158.5894 C   0  0  2  0  0  0  0  0  0  0  0  0
  150.8370  145.0467  158.6089 C   0  0  0  0  0  0  0  0  0  0  0  0
  150.9952  142.5187  158.1229 C   0  0  1  0  0  0  0  0  0  0  0  0
  150.7766  142.5616  156.5869 C   0  0  0  0  0  0  0  0  0  0  0  0
  149.4136  142.1461  156.1889 N   0  3  0  0  0  0  0  0  0  0  0  0
  149.3214  141.3828  154.9245 C   0  0  2  0  0  0  0  0  0  0  0  0
  147.9325  141.5480  154.2767 C   0  0  0  0  0  0  0  0  0  0  0  0
  149.6771  139.9078  155.2007 C   0  0  0  0  0  0  0  0  0  0  0  0
  151.0008  139.5450  154.7275 N   0  0  0  0  0  0  0  0  0  0  0  0
  151.4324  138.4387  154.1190 C   0  0  0  0  0  0  0  0  0  0  0  0
  152.7246  138.4591  153.8254 N   0  0  0  0  0  0  0  0  0  0  0  0
  153.0496  139.6956  154.3079 C   0  0  0  0  0  0  0  0  0  0  0  0
  152.0519  140.3879  154.8584 N   0  0  0  0  0  0  0  0  0  0  0  0
  149.9996  139.8808  158.3347 H   0  0  0  0  0  0  0  0  0  0  0  0
  151.5141  139.0559  158.6793 H   0  0  0  0  0  0  0  0  0  0  0  0
  151.2480  139.7297  157.0803 H   0  0  0  0  0  0  0  0  0  0  0  0
  153.2124  140.2803  159.6892 H   0  0  0  0  0  0  0  0  0  0  0  0
  153.7162  142.2577  160.9947 H   0  0  0  0  0  0  0  0  0  0  0  0
  154.2824  142.6985  159.3936 H   0  0  0  0  0  0  0  0  0  0  0  0
  151.6338  143.4610  160.7217 H   0  0  0  0  0  0  0  0  0  0  0  0
  152.9260  144.5430  160.2613 H   0  0  0  0  0  0  0  0  0  0  0  0
  152.5548  143.9975  157.8806 H   0  0  0  0  0  0  0  0  0  0  0  0
  149.9991  144.9114  159.2936 H   0  0  0  0  0  0  0  0  0  0  0  0
  150.4275  145.2801  157.6276 H   0  0  0  0  0  0  0  0  0  0  0  0
  151.3885  145.9282  158.9377 H   0  0  0  0  0  0  0  0  0  0  0  0
  150.0178  142.5255  158.6080 H   0  0  0  0  0  0  0  0  0  0  0  0
  150.9378  143.5665  156.2029 H   0  0  0  0  0  0  0  0  0  0  0  0
  151.5148  141.9250  156.0969 H   0  0  0  0  0  0  0  0  0  0  0  0
  149.0626  141.5520  156.9264 H   0  0  0  0  0  0  0  0  0  0  0  0
  150.0721  141.7774  154.2379 H   0  0  0  0  0  0  0  0  0  0  0  0
  147.8676  141.0148  153.3282 H   0  0  0  0  0  0  0  0  0  0  0  0
  147.7066  142.5921  154.0618 H   0  0  0  0  0  0  0  0  0  0  0  0
  147.1454  141.1636  154.9261 H   0  0  0  0  0  0  0  0  0  0  0  0
  149.6380  139.7062  156.2722 H   0  0  0  0  0  0  0  0  0  0  0  0
  148.9433  139.2480  154.7340 H   0  0  0  0  0  0  0  0  0  0  0  0
  150.7904  137.6007  153.8897 H   0  0  0  0  0  0  0  0  0  0  0  0
  154.0508  140.0973  154.2519 H   0  0  0  0  0  0  0  0  0  0  0  0
  148.8192  142.9605  156.1272 H   0  0  0  0  0  0  0  0  0  0  0  0
  1  2  1  0  0  0  0
  1 19  1  0  0  0  0
  1 20  1  0  0  0  0
  1 21  1  0  0  0  0
  2  8  1  0  0  0  0
  2  3  2  0  0  0  0
  3  4  1  0  0  0  0
  3 22  1  0  0  0  0
  4  5  1  0  0  0  0
  4 23  1  0  0  0  0
  4 24  1  0  0  0  0
  5  6  1  0  0  0  0
  5 25  1  0  0  0  0
  5 26  1  0  0  0  0
  6  7  1  0  0  0  0
  6  8  1  0  0  0  0
  6 27  1  0  0  0  0
  7 28  1  0  0  0  0
  7 29  1  0  0  0  0
  7 30  1  0  0  0  0
  8  9  1  0  0  0  0
  8 31  1  0  0  0  0
  9 10  1  0  0  0  0
  9 32  1  0  0  0  0
  9 33  1  0  0  0  0
 10 11  1  0  0  0  0
 10 34  1  0  0  0  0
 10 43  1  0  0  0  0
 11 12  1  0  0  0  0
 11 13  1  0  0  0  0
 11 35  1  0  0  0  0
 12 36  1  0  0  0  0
 12 37  1  0  0  0  0
 12 38  1  0  0  0  0
 13 14  1  0  0  0  0
 13 39  1  0  0  0  0
 13 40  1  0  0  0  0
 14 18  1  0  0  0  0
 14 15  1  0  0  0  0
 15 16  2  0  0  0  0
 15 41  1  0  0  0  0
 16 17  1  0  0  0  0
 17 18  2  0  0  0  0
 17 42  1  0  0  0  0
M  CHG  1  10   1
M  END
> <s_m_source_file>
AV-unprocessed.smi

> <i_m_source_file_index>
3274

> <i_lp_mmshare_version>
43012

> <i_f3d_flags>
0

> <s_epik_input>
W0NIM11DMT1bQ0hdW0NIMl1bQ0gyXVtDQEBIXShbQ0gzXSlbQ0BIXTFbQ0gyXVtOSF1bQ0BIXShbQ0gzXSlbQ0gyXW4yW2NIXW5bY0hdbjI=

> <s_epik_cmdline>
J2VwaWtfcHl0aG9uJywgJy1waCcsICc3LjAnLCAnLXRuJywgJzgnLCAnLW1hJywgJzIwMCcsICctbWV0YWxfYmluZGluZycsICctaW1hZScsICc8aW5maWxlLm1hZT4nLCAnLW9tYWUnLCAnPG91dGZpbGUubWFlPic=

> <r_lp_tautomer_probability>
1

> <r_epik_Ionization_Penalty>
0.0017527

> <r_epik_Ionization_Penalty_Charging>
0.00175191

> <r_epik_Ionization_Penalty_Neutral>
7.94565e-07

> <r_epik_State_Penalty>
0.00118605

> <r_epik_Charging_Adjusted_Penalty>
0.00293796

> <i_epik_Tot_Q>
1

> <i_epik_Tot_abs_Q>
1

> <r_epik_Metal_State_Penalty>
-0

> <b_epik_Metal_Only>
0

> <s_lp_Force_Field>
OPLS_2005

> <r_lp_Energy>
18.9317

> <b_lp_Chiralities_Consistent>
1

> <s_lp_Variant>
AV-unprocessed.smi:3274-2

> <Gold.Version>
5.8.1

> <Gold.Id.Protein>
6NUR|6NUR_protein|mol2

> <Gold.PLP.Fitness>
56.8004

> <Gold.PLP.PLP>
-46.1361

> <Gold.PLP.part.hbond>
-3.0000

> <Gold.PLP.part.metal>
0.0000

> <Gold.PLP.part.buried>
-7.3577

> <Gold.PLP.part.nonpolar>
-37.3644

> <Gold.PLP.part.repulsive>
0.5521

> <Gold.PLP.ligand.clash>
0.0000

> <Gold.PLP.ligand.torsion>
2.0013

> <Gold.PLP.Chemscore.Hbond>
3.8857

> <Gold.PLP.Chemscore.CHOScore>
0.9636

> <Gold.PLP.Chemscore.Metal>
0.0000

> <Gold.Chemscore.Hbonds>
donor molecule, donor type, donor heavy atom, donor atom, acceptor molecule, acceptor atom, score
      L1  H    10    43       P1  8028  1.66
      P1  H  7989  7998       L1    18  0.08
      L1  C    15    41       P1  7949  0.03

> <Gold.PLP.Chemscore.Internal.Correction>
0.1191

> <Gold.Rescore>
     Score         DG    S(hbond)    S(metal)    S(lipo)     H(rot)  DE(clash)    DE(int)     intcor
     18.73     -21.17       2.77        0.00     106.71       2.36       0.33       2.11       ----

> <Gold.Chemscore.Fitness>
18.7313

> <Gold.Chemscore.DG>
-21.1741

> <Gold.Chemscore.ZeroCoef>
-5.4800

> <Gold.Chemscore.Hbond>
2.7707

> <Gold.Chemscore.Metal>
0.0000

> <Gold.Chemscore.Lipo>
106.7119

> <Gold.Chemscore.Internal_Hbond>
0.0000

> <Gold.Chemscore.DEClash>
0.3298

> <Gold.Chemscore.DEInternal>
2.1130

> <Gold.Chemscore.Rot>
2.3615

> <Gold.Chemscore.Internal.Correction>
   9.000000E+99

> <Gold.Chemscore.Hbonds>
donor molecule, donor type, donor heavy atom, donor atom, acceptor molecule, acceptor atom, score
      L1  H    10    43       P1  8028  0.81

> <Gold.Chemscore.Hbond.Weighted>
-9.2542

> <Gold.Chemscore.Metal.Weighted>
-0.0000

> <Gold.Chemscore.Lipo.Weighted>
-12.4853

> <Gold.Chemscore.Internal_Hbond.Weighted>
0.0000

> <Gold.Chemscore.DEClash.Weighted>
0.3298

> <Gold.Chemscore.DEInternal.Weighted>
2.1130

> <Gold.Chemscore.Rot.Weighted>
6.0454

> <Gold.Chemscore.Internal.Correction.Weighted>
   9.000000E+99

> <Gold.Protein.RotatedTorsions>
[ 6907 6896 6895 6894 ] final  136.83 input  -60.11 | X-H torsion
[ 7974 7965 7964 7962 ] final  125.05 input  175.53 | X-H torsion
[ 8008 7997 7996 7995 ] final   77.02 input   59.86 | X-H torsion
[ 10167 10162 10161 10158 ] final  162.04 input  -65.29 | X-H torsion
[ 10718 10713 10712 10709 ] final   90.96 input   66.30 | X-H torsion
[ 10763 10752 10751 10750 ] final  153.62 input  -60.55 | X-H torsion
[ 11005 11000 10999 10996 ] final   66.61 input  -57.11 | X-H torsion

> <Gold.Protein.ActiveResidues>
 VAL166  LYS551  ARG553  GLY616  TRP617  ASP618  TYR619  PRO620  LYS621  CYS622 
 ASP623  PHE694  ASN695  SER759  ASP760  ASP761  ALA762  ILE779  LEU786  VAL792 
 PHE793  MET794  SER795  GLU796  ALA797  LYS798  CYS799  TRP800  GLU811  SER814 

> <Gold.Protein.RotatedAtoms>
  152.2849  133.5506  159.5520 H   0  0  0  0  0  0  0  0  0  0  0  0  # atno 6907 bound_to 6896
  150.7211  134.0511  159.3807 H   0  0  0  0  0  0  0  0  0  0  0  0  # atno 6908 bound_to 6896
  151.8420  135.0587  160.0500 H   0  0  0  0  0  0  0  0  0  0  0  0  # atno 6909 bound_to 6896
  145.0774  139.3683  143.4927 H   0  0  0  0  0  0  0  0  0  0  0  0  # atno 7974 bound_to 7965
  155.8356  140.3464  155.5600 H   0  0  0  0  0  0  0  0  0  0  0  0  # atno 8008 bound_to 7997
  155.8195  140.0911  157.1877 H   0  0  0  0  0  0  0  0  0  0  0  0  # atno 8009 bound_to 7997
  154.4004  140.1432  156.3470 H   0  0  0  0  0  0  0  0  0  0  0  0  # atno 8010 bound_to 7997
  139.4856  144.4476  151.8871 H   0  0  0  0  0  0  0  0  0  0  0  0  # atno 10167 bound_to 10162
  157.6960  131.0390  150.3656 H   0  0  0  0  0  0  0  0  0  0  0  0  # atno 10718 bound_to 10713
  154.1391  135.2822  155.3165 H   0  0  0  0  0  0  0  0  0  0  0  0  # atno 10763 bound_to 10752
  154.6300  135.5438  153.7673 H   0  0  0  0  0  0  0  0  0  0  0  0  # atno 10764 bound_to 10752
  153.0256  135.6460  154.1539 H   0  0  0  0  0  0  0  0  0  0  0  0  # atno 10765 bound_to 10752
  139.9821  134.6727  156.0243 H   0  0  0  0  0  0  0  0  0  0  0  0  # atno 11005 bound_to 11000
  146.3530  140.0548  142.8633 LP  0  0  0  0  0  0  0  0  0  0  0  0  # atno 17320 bound_to 7965
  145.1219  140.9467  143.4595 LP  0  0  0  0  0  0  0  0  0  0  0  0  # atno 17321 bound_to 7965
  140.3931  144.2589  150.5898 LP  0  0  0  0  0  0  0  0  0  0  0  0  # atno 17342 bound_to 10162
  140.5127  143.2286  151.8511 LP  0  0  0  0  0  0  0  0  0  0  0  0  # atno 17343 bound_to 10162
  156.4087  130.3930  149.6907 LP  0  0  0  0  0  0  0  0  0  0  0  0  # atno 17370 bound_to 10713
  156.4198  130.7763  151.2780 LP  0  0  0  0  0  0  0  0  0  0  0  0  # atno 17371 bound_to 10713
  141.1492  133.6551  156.3960 LP  0  0  0  0  0  0  0  0  0  0  0  0  # atno 17394 bound_to 11000
  140.5075  134.6427  157.5272 LP  0  0  0  0  0  0  0  0  0  0  0  0  # atno 17395 bound_to 11000

$$$$
