AV-unprocessed.smi:2623|AV-procd|sdf|10229|dock10
  -GOLD-   2272014233D 1   1.00000     0.00000
 Structure written by MMmdl.
 40 42  0  0  0  0  0  0  0  0  1 V2000
  151.7795  139.4156  154.5458 O   0  0  0  0  0  0  0  0  0  0  0  0
  150.9960  139.2466  155.7066 C   0  0  0  0  0  0  0  0  0  0  0  0
  151.2356  140.3123  156.7330 C   0  0  0  0  0  0  0  0  0  0  0  0
  152.4248  140.4628  157.3175 N   0  0  0  0  0  0  0  0  0  0  0  0
  152.2193  141.5408  158.1552 C   0  0  0  0  0  0  0  0  0  0  0  0
  153.1028  142.1949  159.0432 C   0  0  0  0  0  0  0  0  0  0  0  0
  152.6634  143.2980  159.8041 C   0  0  0  0  0  0  0  0  0  0  0  0
  151.3376  143.7630  159.6867 C   0  0  0  0  0  0  0  0  0  0  0  0
  150.4411  143.1252  158.8080 C   0  0  0  0  0  0  0  0  0  0  0  0
  150.8835  142.0216  158.0537 C   0  0  0  0  0  0  0  0  0  0  0  0
  150.2709  141.1848  157.1253 N   0  0  0  0  0  0  0  0  0  0  0  0
  148.8850  141.2770  156.6814 C   0  0  0  0  0  0  0  0  0  0  0  0
  148.7427  141.1936  155.1476 C   0  0  2  0  0  0  0  0  0  0  0  0
  149.0927  142.4308  154.5617 O   0  0  0  0  0  0  0  0  0  0  0  0
  147.3148  140.8363  154.7115 C   0  0  0  0  0  0  0  0  0  0  0  0
  146.3947  141.4624  155.5962 O   0  0  0  0  0  0  0  0  0  0  0  0
  145.6813  142.5483  155.1362 C   0  0  0  0  0  0  0  0  0  0  0  0
  144.7479  143.1223  156.0242 C   0  0  0  0  0  0  0  0  0  0  0  0
  143.9741  144.2336  155.6377 C   0  0  0  0  0  0  0  0  0  0  0  0
  144.1285  144.7853  154.3527 C   0  0  0  0  0  0  0  0  0  0  0  0
  145.0564  144.2231  153.4565 C   0  0  0  0  0  0  0  0  0  0  0  0
  145.8294  143.1106  153.8427 C   0  0  0  0  0  0  0  0  0  0  0  0
  152.4349  138.7352  154.5242 H   0  0  0  0  0  0  0  0  0  0  0  0
  149.9448  139.2575  155.4159 H   0  0  0  0  0  0  0  0  0  0  0  0
  151.1845  138.2646  156.1402 H   0  0  0  0  0  0  0  0  0  0  0  0
  154.1213  141.8481  159.1379 H   0  0  0  0  0  0  0  0  0  0  0  0
  153.3473  143.7905  160.4797 H   0  0  0  0  0  0  0  0  0  0  0  0
  151.0093  144.6099  160.2715 H   0  0  0  0  0  0  0  0  0  0  0  0
  149.4255  143.4805  158.7155 H   0  0  0  0  0  0  0  0  0  0  0  0
  148.3333  140.4616  157.1507 H   0  0  0  0  0  0  0  0  0  0  0  0
  148.4331  142.1967  157.0507 H   0  0  0  0  0  0  0  0  0  0  0  0
  149.4279  140.4432  154.7524 H   0  0  0  0  0  0  0  0  0  0  0  0
  148.9265  143.1180  155.1893 H   0  0  0  0  0  0  0  0  0  0  0  0
  147.1458  141.1588  153.6825 H   0  0  0  0  0  0  0  0  0  0  0  0
  147.1776  139.7543  154.7546 H   0  0  0  0  0  0  0  0  0  0  0  0
  144.6233  142.7053  157.0127 H   0  0  0  0  0  0  0  0  0  0  0  0
  143.2621  144.6623  156.3275 H   0  0  0  0  0  0  0  0  0  0  0  0
  143.5355  145.6375  154.0548 H   0  0  0  0  0  0  0  0  0  0  0  0
  145.1760  144.6452  152.4696 H   0  0  0  0  0  0  0  0  0  0  0  0
  146.5289  142.7064  153.1270 H   0  0  0  0  0  0  0  0  0  0  0  0
  1  2  1  0  0  0  0
  1 23  1  0  0  0  0
  2  3  1  0  0  0  0
  2 24  1  0  0  0  0
  2 25  1  0  0  0  0
  3 11  1  0  0  0  0
  3  4  2  0  0  0  0
  4  5  1  0  0  0  0
  5 10  2  0  0  0  0
  5  6  1  0  0  0  0
  6  7  2  0  0  0  0
  6 26  1  0  0  0  0
  7  8  1  0  0  0  0
  7 27  1  0  0  0  0
  8  9  2  0  0  0  0
  8 28  1  0  0  0  0
  9 10  1  0  0  0  0
  9 29  1  0  0  0  0
 10 11  1  0  0  0  0
 11 12  1  0  0  0  0
 12 13  1  0  0  0  0
 12 30  1  0  0  0  0
 12 31  1  0  0  0  0
 13 14  1  0  0  0  0
 13 15  1  0  0  0  0
 13 32  1  0  0  0  0
 14 33  1  0  0  0  0
 15 16  1  0  0  0  0
 15 34  1  0  0  0  0
 15 35  1  0  0  0  0
 16 17  1  0  0  0  0
 17 22  1  0  0  0  0
 17 18  2  0  0  0  0
 18 19  1  0  0  0  0
 18 36  1  0  0  0  0
 19 20  2  0  0  0  0
 19 37  1  0  0  0  0
 20 21  1  0  0  0  0
 20 38  1  0  0  0  0
 21 22  2  0  0  0  0
 21 39  1  0  0  0  0
 22 40  1  0  0  0  0
M  END
> <s_m_source_file>
AV-unprocessed.smi

> <i_m_source_file_index>
2623

> <i_lp_mmshare_version>
43012

> <i_f3d_flags>
0

> <s_epik_input>
W2NIXTFbY0hdW2NIXVtjSF1jKGMxMiluKGMobjIpW0NIMl1bT0hdKVtDSDJdW0NASF0oW09IXSlbQ0gyXU9jM1tjSF1bY0hdW2NIXVtjSF1bY0hdMw==

> <s_epik_cmdline>
J2VwaWtfcHl0aG9uJywgJy1waCcsICc3LjAnLCAnLXRuJywgJzgnLCAnLW1hJywgJzIwMCcsICctbWV0YWxfYmluZGluZycsICctaW1hZScsICc8aW5maWxlLm1hZT4nLCAnLW9tYWUnLCAnPG91dGZpbGUubWFlPic=

> <r_lp_tautomer_probability>
1

> <r_epik_Ionization_Penalty>
0.0583159

> <r_epik_Ionization_Penalty_Charging>
0

> <r_epik_Ionization_Penalty_Neutral>
0.0583159

> <r_epik_State_Penalty>
0.0503525

> <r_epik_Charging_Adjusted_Penalty>
0.0503525

> <i_epik_Tot_Q>
0

> <i_epik_Tot_abs_Q>
0

> <r_epik_Metal_State_Penalty>
5.25517e-05

> <b_epik_Metal_Only>
0

> <s_lp_Force_Field>
OPLS_2005

> <r_lp_Energy>
14.6276

> <b_lp_Chiralities_Consistent>
1

> <s_lp_Variant>
AV-unprocessed.smi:2623-1

> <Gold.Version>
5.8.1

> <Gold.Id.Protein>
6NUR|6NUR_protein|mol2

> <Gold.PLP.Fitness>
50.1670

> <Gold.PLP.PLP>
-43.7249

> <Gold.PLP.part.hbond>
-3.9598

> <Gold.PLP.part.metal>
0.0000

> <Gold.PLP.part.buried>
-5.4910

> <Gold.PLP.part.nonpolar>
-33.3935

> <Gold.PLP.part.repulsive>
0.0987

> <Gold.PLP.ligand.clash>
0.0000

> <Gold.PLP.ligand.torsion>
0.9336

> <Gold.PLP.Chemscore.Hbond>
2.7374

> <Gold.PLP.Chemscore.CHOScore>
0.0000

> <Gold.PLP.Chemscore.Metal>
0.0000

> <Gold.Chemscore.Hbonds>
donor molecule, donor type, donor heavy atom, donor atom, acceptor molecule, acceptor atom, score
      L1  H    14    33       P1  8028  1.00
      P1  H  7989  7998       L1     1  1.00
      P1  H  7997  8010       L1     4  0.76
      P1  H  8011  8017       L1    14  0.04

> <Gold.PLP.Chemscore.Internal.Correction>
0.0972

> <Gold.Rescore>
     Score         DG    S(hbond)    S(metal)    S(lipo)     H(rot)  DE(clash)    DE(int)     intcor
     18.47     -20.44       2.84        0.00     113.28       3.04       0.11       1.86       ----

> <Gold.Chemscore.Fitness>
18.4716

> <Gold.Chemscore.DG>
-20.4387

> <Gold.Chemscore.ZeroCoef>
-5.4800

> <Gold.Chemscore.Hbond>
2.8373

> <Gold.Chemscore.Metal>
0.0000

> <Gold.Chemscore.Lipo>
113.2782

> <Gold.Chemscore.Internal_Hbond>
0.0000

> <Gold.Chemscore.DEClash>
0.1059

> <Gold.Chemscore.DEInternal>
1.8612

> <Gold.Chemscore.Rot>
3.0358

> <Gold.Chemscore.Internal.Correction>
   9.000000E+99

> <Gold.Chemscore.Hbonds>
donor molecule, donor type, donor heavy atom, donor atom, acceptor molecule, acceptor atom, score
      L1  H    14    33       P1  8028  0.96
      P1  H  7989  7998       L1     1  0.95
      P1  H  7997  8010       L1     4  0.69
      P1  H  8011  8017       L1    14  0.04

> <Gold.Chemscore.Hbond.Weighted>
-9.4767

> <Gold.Chemscore.Metal.Weighted>
-0.0000

> <Gold.Chemscore.Lipo.Weighted>
-13.2535

> <Gold.Chemscore.Internal_Hbond.Weighted>
0.0000

> <Gold.Chemscore.DEClash.Weighted>
0.1059

> <Gold.Chemscore.DEInternal.Weighted>
1.8612

> <Gold.Chemscore.Rot.Weighted>
7.7716

> <Gold.Chemscore.Internal.Correction.Weighted>
   9.000000E+99

> <Gold.Protein.RotatedTorsions>
[ 6907 6896 6895 6894 ] final -127.30 input  -60.11 | X-H torsion
[ 7974 7965 7964 7962 ] final -139.45 input  175.53 | X-H torsion
[ 8008 7997 7996 7995 ] final   63.52 input   59.86 | X-H torsion
[ 10167 10162 10161 10158 ] final  -76.66 input  -65.29 | X-H torsion
[ 10718 10713 10712 10709 ] final -126.37 input   66.30 | X-H torsion
[ 10763 10752 10751 10750 ] final  108.08 input  -60.55 | X-H torsion
[ 11005 11000 10999 10996 ] final -108.50 input  -57.11 | X-H torsion

> <Gold.Protein.ActiveResidues>
 VAL166  LYS551  ARG553  GLY616  TRP617  ASP618  TYR619  PRO620  LYS621  CYS622 
 ASP623  PHE694  ASN695  SER759  ASP760  ASP761  ALA762  ILE779  LEU786  VAL792 
 PHE793  MET794  SER795  GLU796  ALA797  LYS798  CYS799  TRP800  GLU811  SER814 

> <Gold.Protein.RotatedAtoms>
  150.9059  133.7059  159.2866 H   0  0  0  0  0  0  0  0  0  0  0  0  # atno 6907 bound_to 6896
  151.4562  135.1033  159.9721 H   0  0  0  0  0  0  0  0  0  0  0  0  # atno 6908 bound_to 6896
  152.4903  133.8433  159.7219 H   0  0  0  0  0  0  0  0  0  0  0  0  # atno 6909 bound_to 6896
  144.8676  140.6317  143.5288 H   0  0  0  0  0  0  0  0  0  0  0  0  # atno 7974 bound_to 7965
  155.6315  140.3496  155.4684 H   0  0  0  0  0  0  0  0  0  0  0  0  # atno 8008 bound_to 7997
  155.9999  140.1211  157.0581 H   0  0  0  0  0  0  0  0  0  0  0  0  # atno 8009 bound_to 7997
  154.4245  140.1102  156.5668 H   0  0  0  0  0  0  0  0  0  0  0  0  # atno 8010 bound_to 7997
  140.4837  143.2396  151.8017 H   0  0  0  0  0  0  0  0  0  0  0  0  # atno 10167 bound_to 10162
  156.1759  130.6699  151.0241 H   0  0  0  0  0  0  0  0  0  0  0  0  # atno 10718 bound_to 10713
  153.4156  135.3823  155.2078 H   0  0  0  0  0  0  0  0  0  0  0  0  # atno 10763 bound_to 10752
  154.8741  135.3805  154.4447 H   0  0  0  0  0  0  0  0  0  0  0  0  # atno 10764 bound_to 10752
  153.4961  135.7088  153.5920 H   0  0  0  0  0  0  0  0  0  0  0  0  # atno 10765 bound_to 10752
  141.0898  133.9075  157.2102 H   0  0  0  0  0  0  0  0  0  0  0  0  # atno 11005 bound_to 11000
  145.4192  139.1567  143.4083 LP  0  0  0  0  0  0  0  0  0  0  0  0  # atno 17320 bound_to 7965
  146.2907  140.4301  142.8740 LP  0  0  0  0  0  0  0  0  0  0  0  0  # atno 17321 bound_to 7965
  139.4838  144.4739  151.9391 LP  0  0  0  0  0  0  0  0  0  0  0  0  # atno 17342 bound_to 10162
  140.3825  144.2719  150.5907 LP  0  0  0  0  0  0  0  0  0  0  0  0  # atno 17343 bound_to 10162
  157.6835  131.0831  150.7306 LP  0  0  0  0  0  0  0  0  0  0  0  0  # atno 17370 bound_to 10713
  156.7364  130.4725  149.5487 LP  0  0  0  0  0  0  0  0  0  0  0  0  # atno 17371 bound_to 10713
  139.9722  135.0125  156.9541 LP  0  0  0  0  0  0  0  0  0  0  0  0  # atno 17394 bound_to 11000
  140.5278  134.0843  155.7308 LP  0  0  0  0  0  0  0  0  0  0  0  0  # atno 17395 bound_to 11000

$$$$
