AV-unprocessed.smi:1484|AV-procd|sdf|5996|dock6
  -GOLD-   22720 6 93D 1   1.00000     0.00000
 Structure written by MMmdl.
 37 38  0  0  0  0  0  0  0  0  2 V2000
  153.3746  142.8590  163.1828 C   0  0  0  0  0  0  0  0  0  0  0  0
  152.7505  142.8081  161.7812 C   0  0  1  0  0  0  0  0  0  0  0  0
  152.1765  144.1777  161.3700 C   0  0  0  0  0  0  0  0  0  0  0  0
  151.5599  144.1357  159.9627 C   0  0  0  0  0  0  0  0  0  0  0  0
  152.5757  143.6325  158.9213 C   0  0  0  0  0  0  0  0  0  0  0  0
  153.1672  142.2633  159.3079 C   0  0  2  0  0  0  0  0  0  0  0  0
  152.1344  141.2381  159.2095 N   0  0  0  0  0  0  0  0  0  0  0  0
  152.2546  140.0247  158.6472 C   0  0  0  0  0  0  0  0  0  0  0  0
  153.2875  139.6387  158.1004 O   0  0  0  0  0  0  0  0  0  0  0  0
  151.0332  139.0896  158.7089 C   0  0  0  0  0  0  0  0  0  0  0  0
  150.6616  138.4904  157.4155 N   0  0  0  0  0  0  0  0  0  0  0  0
  150.5775  139.4541  156.3208 N   0  5  0  0  0  0  0  0  0  0  0  0
  150.3661  139.0031  155.0561 C   0  0  0  0  0  0  0  0  0  0  0  0
  150.3333  139.7479  154.0795 O   0  0  0  0  0  0  0  0  0  0  0  0
  150.1664  137.5763  154.8637 C   0  0  0  0  0  0  0  0  0  0  0  0
  150.2109  136.7137  155.8982 C   0  0  0  0  0  0  0  0  0  0  0  0
  150.4774  137.1477  157.2644 C   0  0  0  0  0  0  0  0  0  0  0  0
  150.5535  136.3609  158.2080 O   0  0  0  0  0  0  0  0  0  0  0  0
  153.7656  142.3094  160.7303 C   0  0  0  0  0  0  0  0  0  0  0  0
  154.2111  143.5574  163.2199 H   0  0  0  0  0  0  0  0  0  0  0  0
  153.7452  141.8783  163.4820 H   0  0  0  0  0  0  0  0  0  0  0  0
  152.6427  143.1747  163.9269 H   0  0  0  0  0  0  0  0  0  0  0  0
  151.9241  142.0966  161.8219 H   0  0  0  0  0  0  0  0  0  0  0  0
  151.4209  144.4958  162.0891 H   0  0  0  0  0  0  0  0  0  0  0  0
  152.9651  144.9309  161.3970 H   0  0  0  0  0  0  0  0  0  0  0  0
  150.6815  143.4882  159.9678 H   0  0  0  0  0  0  0  0  0  0  0  0
  151.2052  145.1283  159.6843 H   0  0  0  0  0  0  0  0  0  0  0  0
  152.1056  143.5761  157.9385 H   0  0  0  0  0  0  0  0  0  0  0  0
  153.3836  144.3593  158.8303 H   0  0  0  0  0  0  0  0  0  0  0  0
  153.9599  142.0218  158.5977 H   0  0  0  0  0  0  0  0  0  0  0  0
  151.2476  141.4509  159.6448 H   0  0  0  0  0  0  0  0  0  0  0  0
  151.2242  138.3115  159.4498 H   0  0  0  0  0  0  0  0  0  0  0  0
  150.1917  139.6615  159.1038 H   0  0  0  0  0  0  0  0  0  0  0  0
  149.9725  137.2001  153.8701 H   0  0  0  0  0  0  0  0  0  0  0  0
  150.0532  135.6624  155.7092 H   0  0  0  0  0  0  0  0  0  0  0  0
  154.6335  142.9702  160.7271 H   0  0  0  0  0  0  0  0  0  0  0  0
  154.1401  141.3240  161.0104 H   0  0  0  0  0  0  0  0  0  0  0  0
  1  2  1  0  0  0  0
  1 20  1  0  0  0  0
  1 21  1  0  0  0  0
  1 22  1  0  0  0  0
  2 19  1  0  0  0  0
  2  3  1  0  0  0  0
  2 23  1  0  0  0  0
  3  4  1  0  0  0  0
  3 24  1  0  0  0  0
  3 25  1  0  0  0  0
  4  5  1  0  0  0  0
  4 26  1  0  0  0  0
  4 27  1  0  0  0  0
  5  6  1  0  0  0  0
  5 28  1  0  0  0  0
  5 29  1  0  0  0  0
  6  7  1  0  0  0  0
  6 19  1  0  0  0  0
  6 30  1  0  0  0  0
  7  8  1  0  0  0  0
  7 31  1  0  0  0  0
  8  9  2  0  0  0  0
  8 10  1  0  0  0  0
 10 32  1  0  0  0  0
 10 33  1  0  0  0  0
 10 11  1  0  0  0  0
 11 12  1  0  0  0  0
 11 17  1  0  0  0  0
 12 13  1  0  0  0  0
 13 14  2  0  0  0  0
 13 15  1  0  0  0  0
 15 34  1  0  0  0  0
 15 16  2  0  0  0  0
 16 35  1  0  0  0  0
 16 17  1  0  0  0  0
 17 18  2  0  0  0  0
 19 36  1  0  0  0  0
 19 37  1  0  0  0  0
M  CHG  1  12  -1
M  END
> <s_m_source_file>
AV-unprocessed.smi

> <i_m_source_file_index>
1484

> <i_lp_mmshare_version>
43012

> <i_f3d_flags>
0

> <s_epik_input>
W0NIM11bQ0BASF0xW0NIMl1bQ0gyXVtDSDJdW0NASF0oW0NIMl0xKVtOSF1DKD1PKVtDSDJdbjJbbkhdYyg9TylbY0hdW2NIXWMyPU8=

> <s_epik_cmdline>
J2VwaWtfcHl0aG9uJywgJy1waCcsICc3LjAnLCAnLXRuJywgJzgnLCAnLW1hJywgJzIwMCcsICctbWV0YWxfYmluZGluZycsICctaW1hZScsICc8aW5maWxlLm1hZT4nLCAnLW9tYWUnLCAnPG91dGZpbGUubWFlPic=

> <r_lp_tautomer_probability>
1

> <r_epik_Ionization_Penalty>
0.101352

> <r_epik_Ionization_Penalty_Charging>
0.101352

> <r_epik_Ionization_Penalty_Neutral>
1.90469e-08

> <r_epik_State_Penalty>
0.0358555

> <r_epik_Charging_Adjusted_Penalty>
0.137208

> <i_epik_Tot_Q>
-1

> <i_epik_Tot_abs_Q>
1

> <r_epik_Metal_State_Penalty>
0.0358555

> <b_epik_Metal_Only>
0

> <s_lp_Force_Field>
OPLS_2005

> <r_lp_Energy>
21.3013

> <b_lp_Chiralities_Consistent>
1

> <s_lp_Variant>
AV-unprocessed.smi:1484-4

> <Gold.Version>
5.8.1

> <Gold.Id.Protein>
6NUR|6NUR_protein|mol2

> <Gold.PLP.Fitness>
46.9890

> <Gold.PLP.PLP>
-39.4739

> <Gold.PLP.part.hbond>
-3.0000

> <Gold.PLP.part.metal>
0.0000

> <Gold.PLP.part.buried>
-6.0226

> <Gold.PLP.part.nonpolar>
-29.7216

> <Gold.PLP.part.repulsive>
0.7109

> <Gold.PLP.ligand.clash>
0.0000

> <Gold.PLP.ligand.torsion>
0.3991

> <Gold.PLP.Chemscore.Hbond>
2.7680

> <Gold.PLP.Chemscore.CHOScore>
0.0000

> <Gold.PLP.Chemscore.Metal>
0.0000

> <Gold.Chemscore.Hbonds>
donor molecule, donor type, donor heavy atom, donor atom, acceptor molecule, acceptor atom, score
      P1  H  6896  6908       L1    18  0.65
      P1  H  7989  7998       L1    14  1.00
      P1  H  7997  8010       L1     9  1.00

> <Gold.PLP.Chemscore.Internal.Correction>
0.0092

> <Gold.Rescore>
     Score         DG    S(hbond)    S(metal)    S(lipo)     H(rot)  DE(clash)    DE(int)     intcor
     21.56     -22.17       2.88        0.00      96.63       1.65       0.16       0.45       ----

> <Gold.Chemscore.Fitness>
21.5612

> <Gold.Chemscore.DG>
-22.1711

> <Gold.Chemscore.ZeroCoef>
-5.4800

> <Gold.Chemscore.Hbond>
2.8807

> <Gold.Chemscore.Metal>
0.0000

> <Gold.Chemscore.Lipo>
96.6338

> <Gold.Chemscore.Internal_Hbond>
0.0000

> <Gold.Chemscore.DEClash>
0.1600

> <Gold.Chemscore.DEInternal>
0.4500

> <Gold.Chemscore.Rot>
1.6549

> <Gold.Chemscore.Internal.Correction>
   9.000000E+99

> <Gold.Chemscore.Hbonds>
donor molecule, donor type, donor heavy atom, donor atom, acceptor molecule, acceptor atom, score
      P1  H  6896  6908       L1    18  0.64
      P1  H  7989  7998       L1    14  0.98
      P1  H  7997  8010       L1     9  1.00

> <Gold.Chemscore.Hbond.Weighted>
-9.6214

> <Gold.Chemscore.Metal.Weighted>
-0.0000

> <Gold.Chemscore.Lipo.Weighted>
-11.3062

> <Gold.Chemscore.Internal_Hbond.Weighted>
0.0000

> <Gold.Chemscore.DEClash.Weighted>
0.1600

> <Gold.Chemscore.DEInternal.Weighted>
0.4500

> <Gold.Chemscore.Rot.Weighted>
4.2364

> <Gold.Chemscore.Internal.Correction.Weighted>
   9.000000E+99

> <Gold.Protein.RotatedTorsions>
[ 6907 6896 6895 6894 ] final -159.90 input  -60.11 | X-H torsion
[ 7974 7965 7964 7962 ] final   81.82 input  175.53 | X-H torsion
[ 8008 7997 7996 7995 ] final   38.71 input   59.86 | X-H torsion
[ 10167 10162 10161 10158 ] final  133.14 input  -65.29 | X-H torsion
[ 10718 10713 10712 10709 ] final -161.66 input   66.30 | X-H torsion
[ 10763 10752 10751 10750 ] final -105.46 input  -60.55 | X-H torsion
[ 11005 11000 10999 10996 ] final  -76.79 input  -57.11 | X-H torsion

> <Gold.Protein.ActiveResidues>
 VAL166  LYS551  ARG553  GLY616  TRP617  ASP618  TYR619  PRO620  LYS621  CYS622 
 ASP623  PHE694  ASN695  SER759  ASP760  ASP761  ALA762  ILE779  LEU786  VAL792 
 PHE793  MET794  SER795  GLU796  ALA797  LYS798  CYS799  TRP800  GLU811  SER814 

> <Gold.Protein.RotatedAtoms>
  151.3407  133.3963  159.2670 H   0  0  0  0  0  0  0  0  0  0  0  0  # atno 6907 bound_to 6896
  150.9880  134.9222  159.7893 H   0  0  0  0  0  0  0  0  0  0  0  0  # atno 6908 bound_to 6896
  152.5238  134.3371  159.9256 H   0  0  0  0  0  0  0  0  0  0  0  0  # atno 6909 bound_to 6896
  145.6331  139.2409  143.2073 H   0  0  0  0  0  0  0  0  0  0  0  0  # atno 7974 bound_to 7965
  155.2246  140.3333  155.4311 H   0  0  0  0  0  0  0  0  0  0  0  0  # atno 8008 bound_to 7997
  156.2319  140.1854  156.7266 H   0  0  0  0  0  0  0  0  0  0  0  0  # atno 8009 bound_to 7997
  154.5993  140.0625  156.9332 H   0  0  0  0  0  0  0  0  0  0  0  0  # atno 8010 bound_to 7997
  139.5309  144.6630  151.4953 H   0  0  0  0  0  0  0  0  0  0  0  0  # atno 10167 bound_to 10162
  156.5994  130.8804  151.2910 H   0  0  0  0  0  0  0  0  0  0  0  0  # atno 10718 bound_to 10713
  154.7948  135.4748  154.0135 H   0  0  0  0  0  0  0  0  0  0  0  0  # atno 10763 bound_to 10752
  153.1686  135.6821  153.8647 H   0  0  0  0  0  0  0  0  0  0  0  0  # atno 10764 bound_to 10752
  153.8237  135.3201  155.3390 H   0  0  0  0  0  0  0  0  0  0  0  0  # atno 10765 bound_to 10752
  141.1656  133.6997  156.7722 H   0  0  0  0  0  0  0  0  0  0  0  0  # atno 11005 bound_to 11000
  146.1341  140.7147  142.9398 LP  0  0  0  0  0  0  0  0  0  0  0  0  # atno 17320 bound_to 7965
  144.7186  140.4295  143.7025 LP  0  0  0  0  0  0  0  0  0  0  0  0  # atno 17321 bound_to 7965
  140.6487  143.8741  150.6763 LP  0  0  0  0  0  0  0  0  0  0  0  0  # atno 17342 bound_to 10162
  140.2099  143.3892  152.1726 LP  0  0  0  0  0  0  0  0  0  0  0  0  # atno 17343 bound_to 10162
  157.7283  130.9655  150.1738 LP  0  0  0  0  0  0  0  0  0  0  0  0  # atno 17370 bound_to 10713
  156.2482  130.3698  149.8261 LP  0  0  0  0  0  0  0  0  0  0  0  0  # atno 17371 bound_to 10713
  140.2456  134.8580  157.3616 LP  0  0  0  0  0  0  0  0  0  0  0  0  # atno 17394 bound_to 11000
  140.1753  134.4557  155.7805 LP  0  0  0  0  0  0  0  0  0  0  0  0  # atno 17395 bound_to 11000

$$$$
