AV-unprocessed.smi:2784|AV-procd|sdf|10736|dock9
  -GOLD-   2272015173D 1   1.00000     0.00000
 Structure written by MMmdl.
 31 32  0  0  0  0  0  0  0  0  1 V2000
  152.7899  140.7380  159.7685 C   0  0  0  0  0  0  0  0  0  0  0  0
  151.8290  141.6510  159.2642 O   0  0  0  0  0  0  0  0  0  0  0  0
  152.3866  142.8841  158.8174 C   0  0  2  0  0  0  0  0  0  0  0  0
  153.1066  143.5005  160.0180 C   0  0  0  0  0  0  0  0  0  0  0  0
  151.9985  144.1924  160.8068 C   0  0  0  0  0  0  0  0  0  0  0  0
  151.0531  144.7501  159.7395 C   0  0  0  0  0  0  0  0  0  0  0  0
  151.2794  143.9066  158.4690 C   0  0  2  0  0  0  0  0  0  0  0  0
  150.0354  143.2765  158.0300 N   0  0  0  0  0  0  0  0  0  0  0  0
  149.9436  142.2095  157.2227 C   0  0  0  0  0  0  0  0  0  0  0  0
  150.9496  141.6597  156.7629 O   0  0  0  0  0  0  0  0  0  0  0  0
  148.6110  141.8706  157.0348 N   0  0  0  0  0  0  0  0  0  0  0  0
  148.1509  141.6737  155.8372 C   0  0  0  0  0  0  0  0  0  0  0  0
  148.7338  141.7335  154.5740 N   0  0  0  0  0  0  0  0  0  0  0  0
  147.7754  141.4319  153.6473 C   0  0  0  0  0  0  0  0  0  0  0  0
  146.6389  141.1910  154.2939 C   0  0  0  0  0  0  0  0  0  0  0  0
  146.8376  141.3316  155.6346 O   0  0  0  0  0  0  0  0  0  0  0  0
  152.2978  139.8068  160.0485 H   0  0  0  0  0  0  0  0  0  0  0  0
  153.2806  141.1401  160.6556 H   0  0  0  0  0  0  0  0  0  0  0  0
  153.5511  140.5057  159.0232 H   0  0  0  0  0  0  0  0  0  0  0  0
  153.0785  142.7391  157.9851 H   0  0  0  0  0  0  0  0  0  0  0  0
  153.6525  142.7653  160.6104 H   0  0  0  0  0  0  0  0  0  0  0  0
  153.8249  144.2449  159.6716 H   0  0  0  0  0  0  0  0  0  0  0  0
  151.4715  143.4567  161.4161 H   0  0  0  0  0  0  0  0  0  0  0  0
  152.3789  144.9653  161.4751 H   0  0  0  0  0  0  0  0  0  0  0  0
  150.0185  144.7331  160.0853 H   0  0  0  0  0  0  0  0  0  0  0  0
  151.3019  145.7921  159.5334 H   0  0  0  0  0  0  0  0  0  0  0  0
  151.6497  144.5775  157.6915 H   0  0  0  0  0  0  0  0  0  0  0  0
  149.1769  143.6745  158.3825 H   0  0  0  0  0  0  0  0  0  0  0  0
  149.6897  141.9583  154.3375 H   0  0  0  0  0  0  0  0  0  0  0  0
  148.0167  141.4214  152.5945 H   0  0  0  0  0  0  0  0  0  0  0  0
  145.6480  140.9204  153.9599 H   0  0  0  0  0  0  0  0  0  0  0  0
  1  2  1  0  0  0  0
  1 17  1  0  0  0  0
  1 18  1  0  0  0  0
  1 19  1  0  0  0  0
  2  3  1  0  0  0  0
  3  7  1  0  0  0  0
  3  4  1  0  0  0  0
  3 20  1  0  0  0  0
  4  5  1  0  0  0  0
  4 21  1  0  0  0  0
  4 22  1  0  0  0  0
  5  6  1  0  0  0  0
  5 23  1  0  0  0  0
  5 24  1  0  0  0  0
  6  7  1  0  0  0  0
  6 25  1  0  0  0  0
  6 26  1  0  0  0  0
  7  8  1  0  0  0  0
  7 27  1  0  0  0  0
  8 28  1  0  0  0  0
  8  9  1  0  0  0  0
  9 11  1  0  0  0  0
  9 10  2  0  0  0  0
 11 12  2  0  0  0  0
 12 16  1  0  0  0  0
 12 13  1  0  0  0  0
 13 29  1  0  0  0  0
 13 14  1  0  0  0  0
 14 30  1  0  0  0  0
 14 15  2  0  0  0  0
 15 31  1  0  0  0  0
 15 16  1  0  0  0  0
M  END
> <s_m_source_file>
AV-unprocessed.smi

> <i_m_source_file_index>
2784

> <i_lp_mmshare_version>
43012

> <i_f3d_flags>
0

> <s_epik_input>
W0NIM11PW0NAQEhdMVtDSDJdW0NIMl1bQ0gyXVtDQEhdMVtOSF1DKD1PKVtOSF1jMm5bY0hdW2NIXW8y

> <s_epik_cmdline>
J2VwaWtfcHl0aG9uJywgJy1waCcsICc3LjAnLCAnLXRuJywgJzgnLCAnLW1hJywgJzIwMCcsICctbWV0YWxfYmluZGluZycsICctaW1hZScsICc8aW5maWxlLm1hZT4nLCAnLW9tYWUnLCAnPG91dGZpbGUubWFlPic=

> <r_lp_tautomer_probability>
0.107061

> <r_epik_Ionization_Penalty>
1.29244

> <r_epik_Ionization_Penalty_Charging>
1.29208

> <r_epik_Ionization_Penalty_Neutral>
0.000359742

> <r_epik_State_Penalty>
2.59896

> <r_epik_Charging_Adjusted_Penalty>
3.89105

> <i_epik_Tot_Q>
0

> <i_epik_Tot_abs_Q>
0

> <r_epik_Metal_State_Penalty>
3.62496

> <b_epik_Metal_Only>
0

> <s_lp_Force_Field>
OPLS_2005

> <r_lp_Energy>
46.1047

> <b_lp_Chiralities_Consistent>
1

> <s_lp_Variant>
AV-unprocessed.smi:2784-11

> <Gold.Version>
5.8.1

> <Gold.Id.Protein>
6NUR|6NUR_protein|mol2

> <Gold.PLP.Fitness>
32.8766

> <Gold.PLP.PLP>
-28.3267

> <Gold.PLP.part.hbond>
-1.5635

> <Gold.PLP.part.metal>
0.0000

> <Gold.PLP.part.buried>
-4.2736

> <Gold.PLP.part.nonpolar>
-23.6158

> <Gold.PLP.part.repulsive>
0.5297

> <Gold.PLP.ligand.clash>
0.0000

> <Gold.PLP.ligand.torsion>
0.7314

> <Gold.PLP.Chemscore.Hbond>
0.0000

> <Gold.PLP.Chemscore.CHOScore>
2.0000

> <Gold.PLP.Chemscore.Metal>
0.0000

> <Gold.Chemscore.Hbonds>
donor molecule, donor type, donor heavy atom, donor atom, acceptor molecule, acceptor atom, score
      L1  C    14    30       P1  7957  1.00
      L1  C    15    31       P1 10175  1.00

> <Gold.PLP.Chemscore.Internal.Correction>
0.0127

> <Gold.Rescore>
     Score         DG    S(hbond)    S(metal)    S(lipo)     H(rot)  DE(clash)    DE(int)     intcor
      7.03     -11.50       0.00        0.00      80.43       1.32       0.04       4.43       ----

> <Gold.Chemscore.Fitness>
7.0333

> <Gold.Chemscore.DG>
-11.5020

> <Gold.Chemscore.ZeroCoef>
-5.4800

> <Gold.Chemscore.Hbond>
0.0000

> <Gold.Chemscore.Metal>
0.0000

> <Gold.Chemscore.Lipo>
80.4289

> <Gold.Chemscore.Internal_Hbond>
0.0000

> <Gold.Chemscore.DEClash>
0.0383

> <Gold.Chemscore.DEInternal>
4.4304

> <Gold.Chemscore.Rot>
1.3235

> <Gold.Chemscore.Internal.Correction>
   9.000000E+99

> <Gold.Chemscore.Hbond.Weighted>
-0.0000

> <Gold.Chemscore.Metal.Weighted>
-0.0000

> <Gold.Chemscore.Lipo.Weighted>
-9.4102

> <Gold.Chemscore.Internal_Hbond.Weighted>
0.0000

> <Gold.Chemscore.DEClash.Weighted>
0.0383

> <Gold.Chemscore.DEInternal.Weighted>
4.4304

> <Gold.Chemscore.Rot.Weighted>
3.3882

> <Gold.Chemscore.Internal.Correction.Weighted>
   9.000000E+99

> <Gold.Protein.RotatedTorsions>
[ 6907 6896 6895 6894 ] final  170.44 input  -60.11 | X-H torsion
[ 7974 7965 7964 7962 ] final   56.19 input  175.53 | X-H torsion
[ 8008 7997 7996 7995 ] final   86.99 input   59.86 | X-H torsion
[ 10167 10162 10161 10158 ] final   34.38 input  -65.29 | X-H torsion
[ 10718 10713 10712 10709 ] final   48.09 input   66.30 | X-H torsion
[ 10763 10752 10751 10750 ] final   27.12 input  -60.55 | X-H torsion
[ 11005 11000 10999 10996 ] final  149.41 input  -57.11 | X-H torsion

> <Gold.Protein.ActiveResidues>
 VAL166  LYS551  ARG553  GLY616  TRP617  ASP618  TYR619  PRO620  LYS621  CYS622 
 ASP623  PHE694  ASN695  SER759  ASP760  ASP761  ALA762  ILE779  LEU786  VAL792 
 PHE793  MET794  SER795  GLU796  ALA797  LYS798  CYS799  TRP800  GLU811  SER814 

> <Gold.Protein.RotatedAtoms>
  151.8160  133.3388  159.3569 H   0  0  0  0  0  0  0  0  0  0  0  0  # atno 6907 bound_to 6896
  150.7310  134.5619  159.5856 H   0  0  0  0  0  0  0  0  0  0  0  0  # atno 6908 bound_to 6896
  152.3040  134.7578  160.0402 H   0  0  0  0  0  0  0  0  0  0  0  0  # atno 6909 bound_to 6896
  145.9425  139.3900  143.0355 H   0  0  0  0  0  0  0  0  0  0  0  0  # atno 7974 bound_to 7965
  155.9697  140.3386  155.6565 H   0  0  0  0  0  0  0  0  0  0  0  0  # atno 8008 bound_to 7997
  155.6690  140.0724  157.2545 H   0  0  0  0  0  0  0  0  0  0  0  0  # atno 8009 bound_to 7997
  154.4163  140.1695  156.1846 H   0  0  0  0  0  0  0  0  0  0  0  0  # atno 8010 bound_to 7997
  140.4320  144.1311  150.6161 H   0  0  0  0  0  0  0  0  0  0  0  0  # atno 10167 bound_to 10162
  157.4651  130.8221  149.7928 H   0  0  0  0  0  0  0  0  0  0  0  0  # atno 10718 bound_to 10713
  153.0576  135.6544  154.0539 H   0  0  0  0  0  0  0  0  0  0  0  0  # atno 10763 bound_to 10752
  154.0213  135.2919  155.3382 H   0  0  0  0  0  0  0  0  0  0  0  0  # atno 10764 bound_to 10752
  154.6899  135.5287  153.8446 H   0  0  0  0  0  0  0  0  0  0  0  0  # atno 10765 bound_to 10752
  140.1042  134.8964  157.1842 H   0  0  0  0  0  0  0  0  0  0  0  0  # atno 11005 bound_to 11000
  145.8281  140.9645  143.0863 LP  0  0  0  0  0  0  0  0  0  0  0  0  # atno 17320 bound_to 7965
  144.6781  140.0127  143.7484 LP  0  0  0  0  0  0  0  0  0  0  0  0  # atno 17321 bound_to 7965
  140.4416  143.2524  151.9465 LP  0  0  0  0  0  0  0  0  0  0  0  0  # atno 17342 bound_to 10162
  139.4785  144.5649  151.8181 LP  0  0  0  0  0  0  0  0  0  0  0  0  # atno 17343 bound_to 10162
  156.0047  130.3862  150.2476 LP  0  0  0  0  0  0  0  0  0  0  0  0  # atno 17370 bound_to 10713
  157.0655  131.0102  151.3208 LP  0  0  0  0  0  0  0  0  0  0  0  0  # atno 17371 bound_to 10713
  140.3178  134.2951  155.7252 LP  0  0  0  0  0  0  0  0  0  0  0  0  # atno 17394 bound_to 11000
  141.2114  133.7691  156.9868 LP  0  0  0  0  0  0  0  0  0  0  0  0  # atno 17395 bound_to 11000

$$$$
