AV-unprocessed.smi:651|AV-procd|sdf|3189|dock7
  -GOLD-   22720 0113D 1   1.00000     0.00000
 Structure written by MMmdl.
 39 40  0  0  0  0  0  0  0  0  2 V2000
  151.6357  145.3127  158.8403 C   0  0  0  0  0  0  0  0  0  0  0  0
  151.6990  143.8480  158.4627 C   0  0  0  0  0  0  0  0  0  0  0  0
  152.4356  142.9068  159.2134 C   0  0  0  0  0  0  0  0  0  0  0  0
  152.4496  141.5576  158.8027 C   0  0  0  0  0  0  0  0  0  0  0  0
  151.7261  141.1757  157.6510 C   0  0  0  0  0  0  0  0  0  0  0  0
  151.7136  139.7280  157.1884 C   0  0  0  0  0  0  0  0  0  0  0  0
  151.0585  139.5928  155.8114 C   0  0  0  0  0  0  0  0  0  0  0  0
  151.6073  140.0740  154.8211 O   0  0  0  0  0  0  0  0  0  0  0  0
  149.8807  138.9505  155.7654 N   0  0  0  0  0  0  0  0  0  0  0  0
  149.0771  138.7307  154.5618 C   0  0  1  0  0  0  0  0  0  0  0  0
  147.8854  137.7991  154.8607 C   0  0  0  0  0  0  0  0  0  0  0  0
  146.6408  138.4585  154.2568 C   0  0  0  0  0  0  0  0  0  0  0  0
  147.1683  139.5386  153.3107 C   0  0  0  0  0  0  0  0  0  0  0  0
  148.4880  140.0228  153.9305 C   0  0  1  0  0  0  0  0  0  0  0  0
  148.2352  141.1845  154.9165 C   0  0  0  0  0  0  0  0  0  0  0  0
  148.9180  142.3132  154.7091 N   0  0  0  0  0  0  0  0  0  0  0  0
  147.4459  141.0656  155.8527 O   0  0  0  0  0  0  0  0  0  0  0  0
  151.0115  142.1626  156.9374 C   0  0  0  0  0  0  0  0  0  0  0  0
  151.0229  143.4444  157.3638 N   0  3  0  0  0  0  0  0  0  0  0  0
  152.0261  145.4753  159.8455 H   0  0  0  0  0  0  0  0  0  0  0  0
  150.6062  145.6713  158.8149 H   0  0  0  0  0  0  0  0  0  0  0  0
  152.2261  145.9085  158.1436 H   0  0  0  0  0  0  0  0  0  0  0  0
  152.9826  143.2112  160.0940 H   0  0  0  0  0  0  0  0  0  0  0  0
  153.0058  140.8244  159.3688 H   0  0  0  0  0  0  0  0  0  0  0  0
  152.7312  139.3381  157.1416 H   0  0  0  0  0  0  0  0  0  0  0  0
  151.1753  139.1198  157.9169 H   0  0  0  0  0  0  0  0  0  0  0  0
  149.4978  138.6013  156.6319 H   0  0  0  0  0  0  0  0  0  0  0  0
  149.6940  138.2387  153.8069 H   0  0  0  0  0  0  0  0  0  0  0  0
  148.0564  136.8206  154.4106 H   0  0  0  0  0  0  0  0  0  0  0  0
  147.7416  137.6366  155.9299 H   0  0  0  0  0  0  0  0  0  0  0  0
  145.9981  137.7410  153.7459 H   0  0  0  0  0  0  0  0  0  0  0  0
  146.0482  138.9183  155.0485 H   0  0  0  0  0  0  0  0  0  0  0  0
  147.3695  139.1010  152.3321 H   0  0  0  0  0  0  0  0  0  0  0  0
  146.4412  140.3381  153.1595 H   0  0  0  0  0  0  0  0  0  0  0  0
  149.1553  140.3830  153.1453 H   0  0  0  0  0  0  0  0  0  0  0  0
  148.7929  143.1006  155.3291 H   0  0  0  0  0  0  0  0  0  0  0  0
  149.5628  142.3736  153.9344 H   0  0  0  0  0  0  0  0  0  0  0  0
  150.4308  141.9672  156.0475 H   0  0  0  0  0  0  0  0  0  0  0  0
  150.4972  144.1392  156.8328 H   0  0  0  0  0  0  0  0  0  0  0  0
  1  2  1  0  0  0  0
  1 20  1  0  0  0  0
  1 21  1  0  0  0  0
  1 22  1  0  0  0  0
  2 19  1  0  0  0  0
  2  3  2  0  0  0  0
  3  4  1  0  0  0  0
  3 23  1  0  0  0  0
  4  5  2  0  0  0  0
  4 24  1  0  0  0  0
  5  6  1  0  0  0  0
  5 18  1  0  0  0  0
  6  7  1  0  0  0  0
  6 25  1  0  0  0  0
  6 26  1  0  0  0  0
  7  8  2  0  0  0  0
  7  9  1  0  0  0  0
  9 10  1  0  0  0  0
  9 27  1  0  0  0  0
 10 14  1  0  0  0  0
 10 11  1  0  0  0  0
 10 28  1  0  0  0  0
 11 12  1  0  0  0  0
 11 29  1  0  0  0  0
 11 30  1  0  0  0  0
 12 13  1  0  0  0  0
 12 31  1  0  0  0  0
 12 32  1  0  0  0  0
 13 14  1  0  0  0  0
 13 33  1  0  0  0  0
 13 34  1  0  0  0  0
 14 15  1  0  0  0  0
 14 35  1  0  0  0  0
 15 16  1  0  0  0  0
 15 17  2  0  0  0  0
 16 36  1  0  0  0  0
 16 37  1  0  0  0  0
 18 19  2  0  0  0  0
 18 38  1  0  0  0  0
 19 39  1  0  0  0  0
M  CHG  1  19   1
M  END
> <s_m_source_file>
AV-unprocessed.smi

> <i_m_source_file_index>
651

> <i_lp_mmshare_version>
43012

> <i_f3d_flags>
0

> <s_epik_input>
W0NIM11jMVtjSF1bY0hdYyhbY0hdbjEpW0NIMl1DKD1PKVtOSF1bQ0BASF0yW0NIMl1bQ0gyXVtDSDJdW0NASF0yQyg9TylbTkgyXQ==

> <s_epik_cmdline>
J2VwaWtfcHl0aG9uJywgJy1waCcsICc3LjAnLCAnLXRuJywgJzgnLCAnLW1hJywgJzIwMCcsICctbWV0YWxfYmluZGluZycsICctaW1hZScsICc8aW5maWxlLm1hZT4nLCAnLW9tYWUnLCAnPG91dGZpbGUubWFlPic=

> <r_epik_Ionization_Penalty>
2.14971

> <r_epik_Ionization_Penalty_Charging>
2.14971

> <r_epik_Ionization_Penalty_Neutral>
1.65229e-07

> <r_epik_State_Penalty>
2.28946

> <r_epik_Charging_Adjusted_Penalty>
4.43917

> <i_epik_Tot_Q>
1

> <i_epik_Tot_abs_Q>
1

> <r_epik_Metal_State_Penalty>
2.30508

> <b_epik_Metal_Only>
0

> <s_lp_Force_Field>
OPLS_2005

> <r_lp_Energy>
19.7283

> <b_lp_Chiralities_Consistent>
1

> <s_lp_Variant>
AV-unprocessed.smi:651-6

> <Gold.Version>
5.8.1

> <Gold.Id.Protein>
6NUR|6NUR_protein|mol2

> <Gold.PLP.Fitness>
45.3877

> <Gold.PLP.PLP>
-33.7985

> <Gold.PLP.part.hbond>
-2.8360

> <Gold.PLP.part.metal>
0.0000

> <Gold.PLP.part.buried>
-3.6184

> <Gold.PLP.part.nonpolar>
-28.3433

> <Gold.PLP.part.repulsive>
1.1293

> <Gold.PLP.ligand.clash>
0.0000

> <Gold.PLP.ligand.torsion>
0.2176

> <Gold.PLP.Chemscore.Hbond>
4.0000

> <Gold.PLP.Chemscore.CHOScore>
0.0000

> <Gold.PLP.Chemscore.Metal>
0.0000

> <Gold.Chemscore.Hbonds>
donor molecule, donor type, donor heavy atom, donor atom, acceptor molecule, acceptor atom, score
      L1  H    16    36       P1  8028  1.00
      L1  H    19    39       P1  8028  1.89
      P1  H  7989  7998       L1     8  1.00

> <Gold.PLP.Chemscore.Internal.Correction>
0.0245

> <Gold.Rescore>
     Score         DG    S(hbond)    S(metal)    S(lipo)     H(rot)  DE(clash)    DE(int)     intcor
     19.26     -19.86       2.95        0.00      83.28       2.04       0.19       0.40       ----

> <Gold.Chemscore.Fitness>
19.2631

> <Gold.Chemscore.DG>
-19.8605

> <Gold.Chemscore.ZeroCoef>
-5.4800

> <Gold.Chemscore.Hbond>
2.9507

> <Gold.Chemscore.Metal>
0.0000

> <Gold.Chemscore.Lipo>
83.2823

> <Gold.Chemscore.Internal_Hbond>
0.0000

> <Gold.Chemscore.DEClash>
0.1947

> <Gold.Chemscore.DEInternal>
0.4026

> <Gold.Chemscore.Rot>
2.0386

> <Gold.Chemscore.Internal.Correction>
   9.000000E+99

> <Gold.Chemscore.Hbonds>
donor molecule, donor type, donor heavy atom, donor atom, acceptor molecule, acceptor atom, score
      L1  H    16    36       P1  8028  0.95
      L1  H    19    39       P1  8028  0.87
      P1  H  7989  7998       L1     8  0.91

> <Gold.Chemscore.Hbond.Weighted>
-9.8552

> <Gold.Chemscore.Metal.Weighted>
-0.0000

> <Gold.Chemscore.Lipo.Weighted>
-9.7440

> <Gold.Chemscore.Internal_Hbond.Weighted>
0.0000

> <Gold.Chemscore.DEClash.Weighted>
0.1947

> <Gold.Chemscore.DEInternal.Weighted>
0.4026

> <Gold.Chemscore.Rot.Weighted>
5.2188

> <Gold.Chemscore.Internal.Correction.Weighted>
   9.000000E+99

> <Gold.Protein.RotatedTorsions>
[ 6907 6896 6895 6894 ] final   31.03 input  -60.11 | X-H torsion
[ 7974 7965 7964 7962 ] final -138.24 input  175.53 | X-H torsion
[ 8008 7997 7996 7995 ] final -168.97 input   59.86 | X-H torsion
[ 10167 10162 10161 10158 ] final  -55.46 input  -65.29 | X-H torsion
[ 10718 10713 10712 10709 ] final  -93.86 input   66.30 | X-H torsion
[ 10763 10752 10751 10750 ] final -104.46 input  -60.55 | X-H torsion
[ 11005 11000 10999 10996 ] final   66.10 input  -57.11 | X-H torsion

> <Gold.Protein.ActiveResidues>
 VAL166  LYS551  ARG553  GLY616  TRP617  ASP618  TYR619  PRO620  LYS621  CYS622 
 ASP623  PHE694  ASN695  SER759  ASP760  ASP761  ALA762  ILE779  LEU786  VAL792 
 PHE793  MET794  SER795  GLU796  ALA797  LYS798  CYS799  TRP800  GLU811  SER814 

> <Gold.Protein.RotatedAtoms>
  152.0544  134.9633  160.0574 H   0  0  0  0  0  0  0  0  0  0  0  0  # atno 6907 bound_to 6896
  152.1022  133.4251  159.4600 H   0  0  0  0  0  0  0  0  0  0  0  0  # atno 6908 bound_to 6896
  150.6840  134.2666  159.4614 H   0  0  0  0  0  0  0  0  0  0  0  0  # atno 6909 bound_to 6896
  144.8774  140.6458  143.5228 H   0  0  0  0  0  0  0  0  0  0  0  0  # atno 7974 bound_to 7965
  155.8986  140.1037  157.1366 H   0  0  0  0  0  0  0  0  0  0  0  0  # atno 8008 bound_to 7997
  154.4023  140.1297  156.4471 H   0  0  0  0  0  0  0  0  0  0  0  0  # atno 8009 bound_to 7997
  155.7449  140.3466  155.5124 H   0  0  0  0  0  0  0  0  0  0  0  0  # atno 8010 bound_to 7997
  140.6373  143.2489  151.5083 H   0  0  0  0  0  0  0  0  0  0  0  0  # atno 10167 bound_to 10162
  156.0019  130.5044  150.5839 H   0  0  0  0  0  0  0  0  0  0  0  0  # atno 10718 bound_to 10713
  154.7879  135.4785  153.9988 H   0  0  0  0  0  0  0  0  0  0  0  0  # atno 10763 bound_to 10752
  153.1588  135.6805  153.8780 H   0  0  0  0  0  0  0  0  0  0  0  0  # atno 10764 bound_to 10752
  153.8401  135.3180  155.3403 H   0  0  0  0  0  0  0  0  0  0  0  0  # atno 10765 bound_to 10752
  139.9853  134.6678  156.0188 H   0  0  0  0  0  0  0  0  0  0  0  0  # atno 11005 bound_to 11000
  145.4017  139.1596  143.4174 LP  0  0  0  0  0  0  0  0  0  0  0  0  # atno 17320 bound_to 7965
  146.2972  140.4114  142.8717 LP  0  0  0  0  0  0  0  0  0  0  0  0  # atno 17321 bound_to 7965
  139.5583  144.2220  152.1649 LP  0  0  0  0  0  0  0  0  0  0  0  0  # atno 17342 bound_to 10162
  140.1480  144.5141  150.6704 LP  0  0  0  0  0  0  0  0  0  0  0  0  # atno 17343 bound_to 10162
  157.3715  131.0766  151.1553 LP  0  0  0  0  0  0  0  0  0  0  0  0  # atno 17370 bound_to 10713
  157.2305  130.6523  149.5848 LP  0  0  0  0  0  0  0  0  0  0  0  0  # atno 17371 bound_to 10713
  141.1519  133.6547  156.4039 LP  0  0  0  0  0  0  0  0  0  0  0  0  # atno 17394 bound_to 11000
  140.5015  134.6481  157.5250 LP  0  0  0  0  0  0  0  0  0  0  0  0  # atno 17395 bound_to 11000

$$$$
