AV-unprocessed.smi:254|AV-procd|sdf|1947|dock9
  -GOLD-   2262021 83D 1   1.00000     0.00000
 Structure written by MMmdl.
 50 53  0  0  0  0  0  0  0  0  1 V2000
  152.1520  140.8103  159.6212 O   0  0  0  0  0  0  0  0  0  0  0  0
  151.8979  141.0780  158.4482 C   0  0  0  0  0  0  0  0  0  0  0  0
  152.2545  140.1661  157.2909 C   0  0  0  0  0  0  0  0  0  0  0  0
  151.7524  140.9026  156.1326 N   0  0  0  0  0  0  0  0  0  0  0  0
  151.0837  140.1458  155.2348 C   0  0  0  0  0  0  0  0  0  0  0  0
  151.7212  139.1366  154.5847 N   0  0  0  0  0  0  0  0  0  0  0  0
  151.0589  138.3991  153.6880 C   0  0  0  0  0  0  0  0  0  0  0  0
  149.7859  138.5023  153.2984 N   0  0  0  0  0  0  0  0  0  0  0  0
  149.1498  139.5212  153.9452 C   0  0  0  0  0  0  0  0  0  0  0  0
  149.7218  140.3863  154.9186 C   0  0  0  0  0  0  0  0  0  0  0  0
  148.7770  141.3042  155.3580 N   0  0  0  0  0  0  0  0  0  0  0  0
  147.7019  140.9962  154.6845 C   0  0  0  0  0  0  0  0  0  0  0  0
  147.8409  139.9479  153.8015 N   0  0  0  0  0  0  0  0  0  0  0  0
  146.8092  139.3915  152.9436 C   0  0  0  0  0  0  0  0  0  0  0  0
  146.6546  137.8508  153.0331 C   0  0  2  0  0  0  0  0  0  0  0  0
  145.9538  137.3676  151.7396 C   0  0  0  0  0  0  0  0  0  0  0  0
  146.4688  138.0041  150.5885 O   0  0  0  0  0  0  0  0  0  0  0  0
  145.9008  137.3904  154.3191 C   0  0  1  0  0  0  0  0  0  0  0  0
  145.5283  135.9167  154.3685 C   0  0  0  0  0  0  0  0  0  0  0  0
  145.2412  135.7041  155.8469 C   0  0  0  0  0  0  0  0  0  0  0  0
  146.2204  136.4881  156.5096 O   0  0  0  0  0  0  0  0  0  0  0  0
  146.6786  137.5195  155.6398 C   0  0  0  0  0  0  0  0  0  0  0  0
  151.1085  142.1477  156.5554 C   0  0  0  0  0  0  0  0  0  0  0  0
  151.2791  142.1712  157.9980 N   0  0  0  0  0  0  0  0  0  0  0  0
  150.7587  143.2767  158.7998 C   0  0  0  0  0  0  0  0  0  0  0  0
  151.8784  144.1349  159.4149 C   0  0  0  0  0  0  0  0  0  0  0  0
  152.5929  143.3806  160.2490 F   0  0  0  0  0  0  0  0  0  0  0  0
  152.6931  144.6121  158.4743 F   0  0  0  0  0  0  0  0  0  0  0  0
  151.3585  145.1522  160.1020 F   0  0  0  0  0  0  0  0  0  0  0  0
  153.3348  140.0372  157.2227 H   0  0  0  0  0  0  0  0  0  0  0  0
  151.7884  139.1874  157.4201 H   0  0  0  0  0  0  0  0  0  0  0  0
  151.6307  137.6150  153.2141 H   0  0  0  0  0  0  0  0  0  0  0  0
  146.7728  141.5335  154.8089 H   0  0  0  0  0  0  0  0  0  0  0  0
  145.8583  139.8751  153.1701 H   0  0  0  0  0  0  0  0  0  0  0  0
  147.0630  139.6851  151.9244 H   0  0  0  0  0  0  0  0  0  0  0  0
  147.6563  137.4185  153.0416 H   0  0  0  0  0  0  0  0  0  0  0  0
  146.0357  136.2857  151.6321 H   0  0  0  0  0  0  0  0  0  0  0  0
  144.8887  137.5992  151.7651 H   0  0  0  0  0  0  0  0  0  0  0  0
  145.7761  138.5062  150.1870 H   0  0  0  0  0  0  0  0  0  0  0  0
  144.9777  137.9655  154.4096 H   0  0  0  0  0  0  0  0  0  0  0  0
  144.6715  135.6675  153.7422 H   0  0  0  0  0  0  0  0  0  0  0  0
  146.3723  135.2967  154.0627 H   0  0  0  0  0  0  0  0  0  0  0  0
  144.2503  136.0813  156.1034 H   0  0  0  0  0  0  0  0  0  0  0  0
  145.2967  134.6563  156.1423 H   0  0  0  0  0  0  0  0  0  0  0  0
  147.7484  137.3766  155.4851 H   0  0  0  0  0  0  0  0  0  0  0  0
  146.5294  138.4908  156.1096 H   0  0  0  0  0  0  0  0  0  0  0  0
  151.6182  142.9981  156.1013 H   0  0  0  0  0  0  0  0  0  0  0  0
  150.0503  142.2075  156.2960 H   0  0  0  0  0  0  0  0  0  0  0  0
  150.1225  143.9015  158.1714 H   0  0  0  0  0  0  0  0  0  0  0  0
  150.1137  142.8835  159.5872 H   0  0  0  0  0  0  0  0  0  0  0  0
  1  2  2  0  0  0  0
  2 24  1  0  0  0  0
  2  3  1  0  0  0  0
  3  4  1  0  0  0  0
  3 30  1  0  0  0  0
  3 31  1  0  0  0  0
  4  5  1  0  0  0  0
  4 23  1  0  0  0  0
  5 10  1  0  0  0  0
  5  6  2  0  0  0  0
  6  7  1  0  0  0  0
  7  8  2  0  0  0  0
  7 32  1  0  0  0  0
  8  9  1  0  0  0  0
  9 13  1  0  0  0  0
  9 10  2  0  0  0  0
 10 11  1  0  0  0  0
 11 12  2  0  0  0  0
 12 13  1  0  0  0  0
 12 33  1  0  0  0  0
 13 14  1  0  0  0  0
 14 15  1  0  0  0  0
 14 34  1  0  0  0  0
 14 35  1  0  0  0  0
 15 16  1  0  0  0  0
 15 18  1  0  0  0  0
 15 36  1  0  0  0  0
 16 17  1  0  0  0  0
 16 37  1  0  0  0  0
 16 38  1  0  0  0  0
 17 39  1  0  0  0  0
 18 22  1  0  0  0  0
 18 19  1  0  0  0  0
 18 40  1  0  0  0  0
 19 20  1  0  0  0  0
 19 41  1  0  0  0  0
 19 42  1  0  0  0  0
 20 21  1  0  0  0  0
 20 43  1  0  0  0  0
 20 44  1  0  0  0  0
 21 22  1  0  0  0  0
 22 45  1  0  0  0  0
 22 46  1  0  0  0  0
 23 24  1  0  0  0  0
 23 47  1  0  0  0  0
 23 48  1  0  0  0  0
 24 25  1  0  0  0  0
 25 26  1  0  0  0  0
 25 49  1  0  0  0  0
 25 50  1  0  0  0  0
 26 27  1  0  0  0  0
 26 28  1  0  0  0  0
 26 29  1  0  0  0  0
M  END
> <s_m_source_file>
AV-unprocessed.smi

> <i_m_source_file_index>
254

> <i_lp_mmshare_version>
43012

> <i_f3d_flags>
0

> <s_epik_input>
RkMoRikoRilbQ0gyXU4xW0NIMl1OKFtDSDJdQzE9TyljKG5bY0hdbjIpYyhjMjMpbltjSF1uM1tDSDJdW0NASF0oW0NIMl1bT0hdKVtDQEBIXTRbQ0gyXVtDSDJdT1tDSDJdNA==

> <s_epik_cmdline>
J2VwaWtfcHl0aG9uJywgJy1waCcsICc3LjAnLCAnLXRuJywgJzgnLCAnLW1hJywgJzIwMCcsICctbWV0YWxfYmluZGluZycsICctaW1hZScsICc8aW5maWxlLm1hZT4nLCAnLW9tYWUnLCAnPG91dGZpbGUubWFlPic=

> <r_lp_tautomer_probability>
1

> <r_epik_Ionization_Penalty>
0.000292924

> <r_epik_Ionization_Penalty_Charging>
0

> <r_epik_Ionization_Penalty_Neutral>
0.000292924

> <r_epik_State_Penalty>
-0

> <r_epik_Charging_Adjusted_Penalty>
0

> <i_epik_Tot_Q>
0

> <i_epik_Tot_abs_Q>
0

> <r_epik_Metal_State_Penalty>
-0

> <b_epik_Metal_Only>
0

> <s_epik_Chemistry_Notes>
This compound contains an acetal/aminal-like group ( X-CH(R)-Y where X, Y are N, S, or O) that may be acid/base labile, releasing an aldehyde.

> <s_lp_Force_Field>
OPLS_2005

> <r_lp_Energy>
43.3232

> <b_lp_Chiralities_Consistent>
1

> <s_lp_Variant>
AV-unprocessed.smi:254-3

> <Gold.Version>
5.8.1

> <Gold.Id.Protein>
6NUR|6NUR_protein|mol2

> <Gold.PLP.Fitness>
56.1350

> <Gold.PLP.PLP>
-48.9282

> <Gold.PLP.part.hbond>
-2.8528

> <Gold.PLP.part.metal>
0.0000

> <Gold.PLP.part.buried>
-4.9108

> <Gold.PLP.part.nonpolar>
-43.6382

> <Gold.PLP.part.repulsive>
3.5217

> <Gold.PLP.ligand.clash>
0.0000

> <Gold.PLP.ligand.torsion>
0.7618

> <Gold.PLP.Chemscore.Hbond>
1.9600

> <Gold.PLP.Chemscore.CHOScore>
0.7771

> <Gold.PLP.Chemscore.Metal>
0.0000

> <Gold.Chemscore.Hbonds>
donor molecule, donor type, donor heavy atom, donor atom, acceptor molecule, acceptor atom, score
      L1  H    17    39       P1 10171  0.94
      P1  H  7954  7966       L1    17  0.96
      L1  C     7    32       P1  7949  1.00

> <Gold.PLP.Chemscore.Internal.Correction>
0.5191

> <Gold.Rescore>
     Score         DG    S(hbond)    S(metal)    S(lipo)     H(rot)  DE(clash)    DE(int)     intcor
      2.21      -7.15       1.60        0.00      51.27       3.78       1.23       3.71       ----

> <Gold.Chemscore.Fitness>
2.2071

> <Gold.Chemscore.DG>
-7.1474

> <Gold.Chemscore.ZeroCoef>
-5.4800

> <Gold.Chemscore.Hbond>
1.6035

> <Gold.Chemscore.Metal>
0.0000

> <Gold.Chemscore.Lipo>
51.2710

> <Gold.Chemscore.Internal_Hbond>
0.0000

> <Gold.Chemscore.DEClash>
1.2303

> <Gold.Chemscore.DEInternal>
3.7101

> <Gold.Chemscore.Rot>
3.7840

> <Gold.Chemscore.Internal.Correction>
   9.000000E+99

> <Gold.Chemscore.Hbonds>
donor molecule, donor type, donor heavy atom, donor atom, acceptor molecule, acceptor atom, score
      L1  H    17    39       P1 10171  0.91
      P1  H  7954  7966       L1    17  0.92

> <Gold.Chemscore.Hbond.Weighted>
-5.3558

> <Gold.Chemscore.Metal.Weighted>
-0.0000

> <Gold.Chemscore.Lipo.Weighted>
-5.9987

> <Gold.Chemscore.Internal_Hbond.Weighted>
0.0000

> <Gold.Chemscore.DEClash.Weighted>
1.2303

> <Gold.Chemscore.DEInternal.Weighted>
3.7101

> <Gold.Chemscore.Rot.Weighted>
9.6871

> <Gold.Chemscore.Internal.Correction.Weighted>
   9.000000E+99

> <Gold.Protein.RotatedTorsions>
[ 6907 6896 6895 6894 ] final -176.33 input  -60.11 | X-H torsion
[ 7974 7965 7964 7962 ] final  -45.20 input  175.53 | X-H torsion
[ 8008 7997 7996 7995 ] final   -8.86 input   59.86 | X-H torsion
[ 10167 10162 10161 10158 ] final  -25.65 input  -65.29 | X-H torsion
[ 10718 10713 10712 10709 ] final -134.03 input   66.30 | X-H torsion
[ 10763 10752 10751 10750 ] final  119.89 input  -60.55 | X-H torsion
[ 11005 11000 10999 10996 ] final   30.16 input  -57.11 | X-H torsion

> <Gold.Protein.ActiveResidues>
 VAL166  LYS551  ARG553  GLY616  TRP617  ASP618  TYR619  PRO620  LYS621  CYS622 
 ASP623  PHE694  ASN695  SER759  ASP760  ASP761  ALA762  ILE779  LEU786  VAL792 
 PHE793  MET794  SER795  GLU796  ALA797  LYS798  CYS799  TRP800  GLU811  SER814 

> <Gold.Protein.RotatedAtoms>
  151.6031  133.3354  159.3051 H   0  0  0  0  0  0  0  0  0  0  0  0  # atno 6907 bound_to 6896
  150.8197  134.7401  159.6773 H   0  0  0  0  0  0  0  0  0  0  0  0  # atno 6908 bound_to 6896
  152.4291  134.5817  160.0001 H   0  0  0  0  0  0  0  0  0  0  0  0  # atno 6909 bound_to 6896
  145.9844  140.7248  142.9347 H   0  0  0  0  0  0  0  0  0  0  0  0  # atno 7974 bound_to 7965
  154.5701  140.2370  155.8204 H   0  0  0  0  0  0  0  0  0  0  0  0  # atno 8008 bound_to 7997
  156.2100  140.3029  155.9669 H   0  0  0  0  0  0  0  0  0  0  0  0  # atno 8009 bound_to 7997
  155.2727  140.0419  157.2999 H   0  0  0  0  0  0  0  0  0  0  0  0  # atno 8010 bound_to 7997
  140.7286  143.4246  151.0896 H   0  0  0  0  0  0  0  0  0  0  0  0  # atno 10167 bound_to 10162
  156.2511  130.7154  151.1053 H   0  0  0  0  0  0  0  0  0  0  0  0  # atno 10718 bound_to 10713
  153.5901  135.3467  155.2907 H   0  0  0  0  0  0  0  0  0  0  0  0  # atno 10763 bound_to 10752
  154.8654  135.4202  154.2526 H   0  0  0  0  0  0  0  0  0  0  0  0  # atno 10764 bound_to 10752
  153.3331  135.7045  153.7001 H   0  0  0  0  0  0  0  0  0  0  0  0  # atno 10765 bound_to 10752
  140.2973  134.2797  155.7762 H   0  0  0  0  0  0  0  0  0  0  0  0  # atno 11005 bound_to 11000
  144.6870  140.2964  143.7270 LP  0  0  0  0  0  0  0  0  0  0  0  0  # atno 17320 bound_to 7965
  145.7722  139.1861  143.2206 LP  0  0  0  0  0  0  0  0  0  0  0  0  # atno 17321 bound_to 7965
  139.7896  143.8237  152.3150 LP  0  0  0  0  0  0  0  0  0  0  0  0  # atno 17342 bound_to 10162
  139.8217  144.7293  150.9564 LP  0  0  0  0  0  0  0  0  0  0  0  0  # atno 17343 bound_to 10162
  157.7215  131.0678  150.6116 LP  0  0  0  0  0  0  0  0  0  0  0  0  # atno 17370 bound_to 10713
  156.6196  130.4402  149.5827 LP  0  0  0  0  0  0  0  0  0  0  0  0  # atno 17371 bound_to 10713
  141.2135  133.7623  156.9714 LP  0  0  0  0  0  0  0  0  0  0  0  0  # atno 17394 bound_to 11000
  140.1141  134.9458  157.2108 LP  0  0  0  0  0  0  0  0  0  0  0  0  # atno 17395 bound_to 11000

$$$$
