AV-unprocessed.smi:1830|AV-procd|sdf|7436|dock1
  -GOLD-   22720 9123D 1   1.00000     0.00000
 Structure written by MMmdl.
 53 56  0  0  0  0  0  0  0  0  2 V2000
  146.4096  139.2301  152.0433 O   0  0  0  0  0  0  0  0  0  0  0  0
  146.7098  138.3512  152.8510 C   0  0  0  0  0  0  0  0  0  0  0  0
  146.1859  137.1176  152.8325 N   0  0  0  0  0  0  0  0  0  0  0  0
  145.1840  136.6463  151.8824 C   0  0  0  0  0  0  0  0  0  0  0  0
  145.6963  135.4478  151.0639 C   0  0  2  0  0  0  0  0  0  0  0  0
  144.5639  134.7690  150.2756 C   0  0  0  0  0  0  0  0  0  0  0  0
  145.0554  133.5878  149.5212 N   0  3  2  0  0  0  0  0  0  0  0  0
  143.9490  132.7539  149.0027 C   0  0  0  0  0  0  0  0  0  0  0  0
  143.7426  131.6154  150.0187 C   0  0  0  0  0  0  0  0  0  0  0  0
  144.8739  131.7620  151.0430 C   0  0  0  0  0  0  0  0  0  0  0  0
  145.8804  132.6762  150.3436 C   0  0  2  0  0  0  0  0  0  0  0  0
  146.8727  133.4159  151.2629 C   0  0  0  0  0  0  0  0  0  0  0  0
  146.2319  134.4770  151.9542 O   0  0  0  0  0  0  0  0  0  0  0  0
  147.5722  138.4964  153.8704 N   0  0  0  0  0  0  0  0  0  0  0  0
  148.2783  139.6681  154.2642 C   0  0  0  0  0  0  0  0  0  0  0  0
  147.6823  140.9515  154.2012 C   0  0  0  0  0  0  0  0  0  0  0  0
  148.4163  142.0743  154.6206 C   0  0  0  0  0  0  0  0  0  0  0  0
  149.7262  141.8755  155.0869 C   0  0  0  0  0  0  0  0  0  0  0  0
  150.3148  140.6638  155.1341 N   0  0  0  0  0  0  0  0  0  0  0  0
  149.6251  139.5730  154.7182 C   0  0  0  0  0  0  0  0  0  0  0  0
  150.3003  138.3319  154.7694 N   0  0  0  0  0  0  0  0  0  0  0  0
  149.7334  137.2107  155.5114 C   0  0  0  0  0  0  0  0  0  0  0  0
  150.8858  136.2244  155.6783 C   0  0  0  0  0  0  0  0  0  0  0  0
  152.0839  137.1521  155.8525 C   0  0  0  0  0  0  0  0  0  0  0  0
  151.7481  138.3483  154.9559 C   0  0  0  0  0  0  0  0  0  0  0  0
  146.4934  136.4604  153.5345 H   0  0  0  0  0  0  0  0  0  0  0  0
  144.2512  136.3978  152.3915 H   0  0  0  0  0  0  0  0  0  0  0  0
  144.9558  137.4762  151.2130 H   0  0  0  0  0  0  0  0  0  0  0  0
  146.4701  135.7942  150.3757 H   0  0  0  0  0  0  0  0  0  0  0  0
  143.7757  134.4643  150.9666 H   0  0  0  0  0  0  0  0  0  0  0  0
  144.1139  135.4736  149.5750 H   0  0  0  0  0  0  0  0  0  0  0  0
  143.0383  133.3279  148.8245 H   0  0  0  0  0  0  0  0  0  0  0  0
  144.2585  132.3354  148.0443 H   0  0  0  0  0  0  0  0  0  0  0  0
  142.7692  131.6830  150.5054 H   0  0  0  0  0  0  0  0  0  0  0  0
  143.7926  130.6479  149.5179 H   0  0  0  0  0  0  0  0  0  0  0  0
  144.4939  132.2399  151.9470 H   0  0  0  0  0  0  0  0  0  0  0  0
  145.3079  130.8041  151.3310 H   0  0  0  0  0  0  0  0  0  0  0  0
  146.4562  132.0567  149.6539 H   0  0  0  0  0  0  0  0  0  0  0  0
  147.3055  132.7254  151.9871 H   0  0  0  0  0  0  0  0  0  0  0  0
  147.7041  133.8158  150.6802 H   0  0  0  0  0  0  0  0  0  0  0  0
  147.6445  137.7159  154.5063 H   0  0  0  0  0  0  0  0  0  0  0  0
  146.6782  141.0933  153.8317 H   0  0  0  0  0  0  0  0  0  0  0  0
  147.9841  143.0635  154.5867 H   0  0  0  0  0  0  0  0  0  0  0  0
  150.3209  142.7113  155.4237 H   0  0  0  0  0  0  0  0  0  0  0  0
  149.3865  137.5305  156.4949 H   0  0  0  0  0  0  0  0  0  0  0  0
  148.8924  136.7659  154.9785 H   0  0  0  0  0  0  0  0  0  0  0  0
  150.7454  135.5437  156.5180 H   0  0  0  0  0  0  0  0  0  0  0  0
  151.0033  135.6290  154.7718 H   0  0  0  0  0  0  0  0  0  0  0  0
  152.1447  137.4780  156.8918 H   0  0  0  0  0  0  0  0  0  0  0  0
  153.0314  136.6799  155.5921 H   0  0  0  0  0  0  0  0  0  0  0  0
  152.2274  138.2277  153.9842 H   0  0  0  0  0  0  0  0  0  0  0  0
  152.0972  139.2845  155.3935 H   0  0  0  0  0  0  0  0  0  0  0  0
  145.6124  133.9295  148.7510 H   0  0  0  0  0  0  0  0  0  0  0  0
  1  2  2  0  0  0  0
  2  3  1  0  0  0  0
  2 14  1  0  0  0  0
  3  4  1  0  0  0  0
  3 26  1  0  0  0  0
  4  5  1  0  0  0  0
  4 27  1  0  0  0  0
  4 28  1  0  0  0  0
  5 13  1  0  0  0  0
  5  6  1  0  0  0  0
  5 29  1  0  0  0  0
  6  7  1  0  0  0  0
  6 30  1  0  0  0  0
  6 31  1  0  0  0  0
  7 11  1  0  0  0  0
  7  8  1  0  0  0  0
  7 53  1  0  0  0  0
  8  9  1  0  0  0  0
  8 32  1  0  0  0  0
  8 33  1  0  0  0  0
  9 10  1  0  0  0  0
  9 34  1  0  0  0  0
  9 35  1  0  0  0  0
 10 11  1  0  0  0  0
 10 36  1  0  0  0  0
 10 37  1  0  0  0  0
 11 12  1  0  0  0  0
 11 38  1  0  0  0  0
 12 13  1  0  0  0  0
 12 39  1  0  0  0  0
 12 40  1  0  0  0  0
 14 15  1  0  0  0  0
 14 41  1  0  0  0  0
 15 20  1  0  0  0  0
 15 16  2  0  0  0  0
 16 17  1  0  0  0  0
 16 42  1  0  0  0  0
 17 18  2  0  0  0  0
 17 43  1  0  0  0  0
 18 19  1  0  0  0  0
 18 44  1  0  0  0  0
 19 20  2  0  0  0  0
 20 21  1  0  0  0  0
 21 25  1  0  0  0  0
 21 22  1  0  0  0  0
 22 23  1  0  0  0  0
 22 45  1  0  0  0  0
 22 46  1  0  0  0  0
 23 24  1  0  0  0  0
 23 47  1  0  0  0  0
 23 48  1  0  0  0  0
 24 25  1  0  0  0  0
 24 49  1  0  0  0  0
 24 50  1  0  0  0  0
 25 51  1  0  0  0  0
 25 52  1  0  0  0  0
M  CHG  1   7   1
M  END
> <s_m_source_file>
AV-unprocessed.smi

> <i_m_source_file_index>
1830

> <i_lp_mmshare_version>
43012

> <i_f3d_flags>
0

> <s_epik_input>
W0NIMl0xW0NIMl1bQ0gyXVtDQEhdKE4xMilbQ0gyXU9bQ0BASF0oW0NIMl0yKVtDSDJdW05IXUMoPU8pW05IXWMzW2NIXVtjSF1bY0hdbmMzTjRbQ0gyXVtDSDJdW0NIMl1bQ0gyXTQ=

> <s_epik_cmdline>
J2VwaWtfcHl0aG9uJywgJy1waCcsICc3LjAnLCAnLXRuJywgJzgnLCAnLW1hJywgJzIwMCcsICctbWV0YWxfYmluZGluZycsICctaW1hZScsICc8aW5maWxlLm1hZT4nLCAnLW9tYWUnLCAnPG91dGZpbGUubWFlPic=

> <r_lp_tautomer_probability>
1

> <r_epik_Ionization_Penalty>
0.193547

> <r_epik_Ionization_Penalty_Charging>
0.10673

> <r_epik_Ionization_Penalty_Neutral>
0.0868166

> <r_epik_State_Penalty>
0.173595

> <r_epik_Charging_Adjusted_Penalty>
0.280326

> <i_epik_Tot_Q>
1

> <i_epik_Tot_abs_Q>
1

> <r_epik_Metal_State_Penalty>
0.164683

> <b_epik_Metal_Only>
0

> <s_lp_Force_Field>
OPLS_2005

> <r_lp_Energy>
65.0875

> <b_lp_Chiralities_Consistent>
1

> <s_lp_Variant>
AV-unprocessed.smi:1830-5

> <Gold.Version>
5.8.1

> <Gold.Id.Protein>
6NUR|6NUR_protein|mol2

> <Gold.PLP.Fitness>
43.5317

> <Gold.PLP.PLP>
-36.8281

> <Gold.PLP.part.hbond>
-2.9945

> <Gold.PLP.part.metal>
0.0000

> <Gold.PLP.part.buried>
3.4136

> <Gold.PLP.part.nonpolar>
-38.9611

> <Gold.PLP.part.repulsive>
1.6805

> <Gold.PLP.ligand.clash>
0.0000

> <Gold.PLP.ligand.torsion>
0.5275

> <Gold.PLP.Chemscore.Hbond>
1.8800

> <Gold.PLP.Chemscore.CHOScore>
0.5965

> <Gold.PLP.Chemscore.Metal>
0.0000

> <Gold.Chemscore.Hbonds>
donor molecule, donor type, donor heavy atom, donor atom, acceptor molecule, acceptor atom, score
      L1  H     7    53       P1  7921  0.94
      P1  H  7989  7998       L1    19  0.66
      L1  C    18    44       P1  8028  0.60

> <Gold.PLP.Chemscore.Internal.Correction>
0.3291

> <Gold.Rescore>
     Score         DG    S(hbond)    S(metal)    S(lipo)     H(rot)  DE(clash)    DE(int)     intcor
     13.69     -18.18       0.92        0.00     113.12       1.41       2.02       2.47       ----

> <Gold.Chemscore.Fitness>
13.6892

> <Gold.Chemscore.DG>
-18.1772

> <Gold.Chemscore.ZeroCoef>
-5.4800

> <Gold.Chemscore.Hbond>
0.9171

> <Gold.Chemscore.Metal>
0.0000

> <Gold.Chemscore.Lipo>
113.1216

> <Gold.Chemscore.Internal_Hbond>
0.0000

> <Gold.Chemscore.DEClash>
2.0153

> <Gold.Chemscore.DEInternal>
2.4728

> <Gold.Chemscore.Rot>
1.4067

> <Gold.Chemscore.Internal.Correction>
   9.000000E+99

> <Gold.Chemscore.Hbonds>
donor molecule, donor type, donor heavy atom, donor atom, acceptor molecule, acceptor atom, score
      L1  H     7    53       P1  7921  0.45
      P1  H  7989  7998       L1    19  0.03

> <Gold.Chemscore.Hbond.Weighted>
-3.0631

> <Gold.Chemscore.Metal.Weighted>
-0.0000

> <Gold.Chemscore.Lipo.Weighted>
-13.2352

> <Gold.Chemscore.Internal_Hbond.Weighted>
0.0000

> <Gold.Chemscore.DEClash.Weighted>
2.0153

> <Gold.Chemscore.DEInternal.Weighted>
2.4728

> <Gold.Chemscore.Rot.Weighted>
3.6011

> <Gold.Chemscore.Internal.Correction.Weighted>
   9.000000E+99

> <Gold.Protein.RotatedTorsions>
[ 6907 6896 6895 6894 ] final -115.45 input  -60.11 | X-H torsion
[ 7974 7965 7964 7962 ] final   98.18 input  175.53 | X-H torsion
[ 8008 7997 7996 7995 ] final  -51.51 input   59.86 | X-H torsion
[ 10167 10162 10161 10158 ] final  133.72 input  -65.29 | X-H torsion
[ 10718 10713 10712 10709 ] final  177.62 input   66.30 | X-H torsion
[ 10763 10752 10751 10750 ] final -162.17 input  -60.55 | X-H torsion
[ 11005 11000 10999 10996 ] final  164.81 input  -57.11 | X-H torsion

> <Gold.Protein.ActiveResidues>
 VAL166  LYS551  ARG553  GLY616  TRP617  ASP618  TYR619  PRO620  LYS621  CYS622 
 ASP623  PHE694  ASN695  SER759  ASP760  ASP761  ALA762  ILE779  LEU786  VAL792 
 PHE793  MET794  SER795  GLU796  ALA797  LYS798  CYS799  TRP800  GLU811  SER814 

> <Gold.Protein.RotatedAtoms>
  150.7979  133.8656  159.3243 H   0  0  0  0  0  0  0  0  0  0  0  0  # atno 6907 bound_to 6896
  151.6476  135.1003  160.0163 H   0  0  0  0  0  0  0  0  0  0  0  0  # atno 6908 bound_to 6896
  152.4063  133.6855  159.6394 H   0  0  0  0  0  0  0  0  0  0  0  0  # atno 6909 bound_to 6896
  145.4156  139.2328  143.3224 H   0  0  0  0  0  0  0  0  0  0  0  0  # atno 7974 bound_to 7965
  154.4085  140.1246  156.4841 H   0  0  0  0  0  0  0  0  0  0  0  0  # atno 8008 bound_to 7997
  155.7055  140.3494  155.4932 H   0  0  0  0  0  0  0  0  0  0  0  0  # atno 8009 bound_to 7997
  155.9347  140.1076  157.1094 H   0  0  0  0  0  0  0  0  0  0  0  0  # atno 8010 bound_to 7997
  139.5285  144.6602  151.5036 H   0  0  0  0  0  0  0  0  0  0  0  0  # atno 10167 bound_to 10162
  156.9027  130.9884  151.3033 H   0  0  0  0  0  0  0  0  0  0  0  0  # atno 10718 bound_to 10713
  154.7238  135.3031  154.9004 H   0  0  0  0  0  0  0  0  0  0  0  0  # atno 10763 bound_to 10752
  153.9867  135.6723  153.4756 H   0  0  0  0  0  0  0  0  0  0  0  0  # atno 10764 bound_to 10752
  153.0857  135.4985  154.8511 H   0  0  0  0  0  0  0  0  0  0  0  0  # atno 10765 bound_to 10752
  140.2497  134.7986  157.3490 H   0  0  0  0  0  0  0  0  0  0  0  0  # atno 11005 bound_to 11000
  146.2683  140.4873  142.8825 LP  0  0  0  0  0  0  0  0  0  0  0  0  # atno 17320 bound_to 7965
  144.8279  140.6659  143.6310 LP  0  0  0  0  0  0  0  0  0  0  0  0  # atno 17321 bound_to 7965
  140.6447  143.8819  150.6725 LP  0  0  0  0  0  0  0  0  0  0  0  0  # atno 17342 bound_to 10162
  140.2164  143.3843  152.1677 LP  0  0  0  0  0  0  0  0  0  0  0  0  # atno 17343 bound_to 10162
  157.6016  130.8517  149.8811 LP  0  0  0  0  0  0  0  0  0  0  0  0  # atno 17370 bound_to 10713
  156.0574  130.3706  150.1059 LP  0  0  0  0  0  0  0  0  0  0  0  0  # atno 17371 bound_to 10713
  140.1570  134.4777  155.7921 LP  0  0  0  0  0  0  0  0  0  0  0  0  # atno 17394 bound_to 11000
  141.2202  133.6885  156.7478 LP  0  0  0  0  0  0  0  0  0  0  0  0  # atno 17395 bound_to 11000

$$$$
