AV-unprocessed.smi:3168|AV-procd|sdf|12102|dock1
  -GOLD-   2272017533D 1   1.00000     0.00000
 Structure written by MMmdl.
 33 34  0  0  0  0  0  0  0  0  1 V2000
  153.1282  144.4004  158.1486 C   0  0  0  0  0  0  0  0  0  0  0  0
  152.0241  143.8511  159.0754 C   0  0  1  0  0  0  0  0  0  0  0  0
  151.0489  142.8995  158.3573 C   0  0  0  0  0  0  0  0  0  0  0  0
  149.9484  142.6384  158.8446 O   0  0  0  0  0  0  0  0  0  0  0  0
  151.4750  142.3711  157.1984 N   0  0  0  0  0  0  0  0  0  0  0  0
  150.7183  141.4415  156.3688 C   0  0  0  0  0  0  0  0  0  0  0  0
  151.6246  140.3525  155.7727 C   0  0  1  0  0  0  0  0  0  0  0  0
  151.8450  139.1613  156.7025 C   0  0  0  0  0  0  0  0  0  0  0  0
  152.1928  138.0685  155.7180 C   0  0  0  0  0  0  0  0  0  0  0  0
  151.2564  138.3865  154.5557 C   0  0  0  0  0  0  0  0  0  0  0  0
  151.0349  139.7941  154.6004 O   0  0  0  0  0  0  0  0  0  0  0  0
  152.5852  143.2230  160.2673 N   0  0  0  0  0  0  0  0  0  0  0  0
  152.4460  143.6209  161.5816 C   0  0  0  0  0  0  0  0  0  0  0  0
  153.1132  142.7170  162.3575 C   0  0  0  0  0  0  0  0  0  0  0  0
  153.6311  141.7830  161.4181 C   0  0  0  0  0  0  0  0  0  0  0  0
  153.3100  142.0839  160.1707 N   0  0  0  0  0  0  0  0  0  0  0  0
  152.7024  144.9498  157.3082 H   0  0  0  0  0  0  0  0  0  0  0  0
  153.7526  143.6042  157.7412 H   0  0  0  0  0  0  0  0  0  0  0  0
  153.7809  145.0872  158.6883 H   0  0  0  0  0  0  0  0  0  0  0  0
  151.4323  144.7038  159.4115 H   0  0  0  0  0  0  0  0  0  0  0  0
  152.3925  142.6315  156.8676 H   0  0  0  0  0  0  0  0  0  0  0  0
  149.9162  140.9879  156.9536 H   0  0  0  0  0  0  0  0  0  0  0  0
  150.2370  142.0073  155.5708 H   0  0  0  0  0  0  0  0  0  0  0  0
  152.5951  140.7691  155.4976 H   0  0  0  0  0  0  0  0  0  0  0  0
  152.6270  139.3376  157.4418 H   0  0  0  0  0  0  0  0  0  0  0  0
  150.9249  138.9072  157.2309 H   0  0  0  0  0  0  0  0  0  0  0  0
  153.2325  138.1665  155.4019 H   0  0  0  0  0  0  0  0  0  0  0  0
  152.0493  137.0652  156.1198 H   0  0  0  0  0  0  0  0  0  0  0  0
  151.6697  138.0791  153.5951 H   0  0  0  0  0  0  0  0  0  0  0  0
  150.2987  137.8824  154.6889 H   0  0  0  0  0  0  0  0  0  0  0  0
  151.8880  144.5049  161.8531 H   0  0  0  0  0  0  0  0  0  0  0  0
  153.2130  142.7207  163.4327 H   0  0  0  0  0  0  0  0  0  0  0  0
  154.2230  140.8991  161.6041 H   0  0  0  0  0  0  0  0  0  0  0  0
  1  2  1  0  0  0  0
  1 17  1  0  0  0  0
  1 18  1  0  0  0  0
  1 19  1  0  0  0  0
  2  3  1  0  0  0  0
  2 12  1  0  0  0  0
  2 20  1  0  0  0  0
  3  4  2  0  0  0  0
  3  5  1  0  0  0  0
  5  6  1  0  0  0  0
  5 21  1  0  0  0  0
  6  7  1  0  0  0  0
  6 22  1  0  0  0  0
  6 23  1  0  0  0  0
  7 11  1  0  0  0  0
  7  8  1  0  0  0  0
  7 24  1  0  0  0  0
  8  9  1  0  0  0  0
  8 25  1  0  0  0  0
  8 26  1  0  0  0  0
  9 10  1  0  0  0  0
  9 27  1  0  0  0  0
  9 28  1  0  0  0  0
 10 11  1  0  0  0  0
 10 29  1  0  0  0  0
 10 30  1  0  0  0  0
 12 16  1  0  0  0  0
 12 13  1  0  0  0  0
 13 14  2  0  0  0  0
 13 31  1  0  0  0  0
 14 15  1  0  0  0  0
 14 32  1  0  0  0  0
 15 16  2  0  0  0  0
 15 33  1  0  0  0  0
M  END
> <s_m_source_file>
AV-unprocessed.smi

> <i_m_source_file_index>
3168

> <i_lp_mmshare_version>
43012

> <i_f3d_flags>
0

> <s_epik_input>
bjFbY0hdW2NIXVtjSF1uMVtDQEhdKFtDSDNdKUMoPU8pW05IXVtDSDJdW0NAQEhdMltDSDJdW0NIMl1bQ0gyXU8y

> <s_epik_cmdline>
J2VwaWtfcHl0aG9uJywgJy1waCcsICc3LjAnLCAnLXRuJywgJzgnLCAnLW1hJywgJzIwMCcsICctbWV0YWxfYmluZGluZycsICctaW1hZScsICc8aW5maWxlLm1hZT4nLCAnLW9tYWUnLCAnPG91dGZpbGUubWFlPic=

> <r_lp_tautomer_probability>
1

> <r_epik_Ionization_Penalty>
4.14877e-05

> <r_epik_Ionization_Penalty_Charging>
0

> <r_epik_Ionization_Penalty_Neutral>
4.14877e-05

> <r_epik_State_Penalty>
-0

> <r_epik_Charging_Adjusted_Penalty>
0

> <i_epik_Tot_Q>
0

> <i_epik_Tot_abs_Q>
0

> <r_epik_Metal_State_Penalty>
-0

> <b_epik_Metal_Only>
0

> <s_lp_Force_Field>
OPLS_2005

> <r_lp_Energy>
21.2002

> <b_lp_Chiralities_Consistent>
1

> <s_lp_Variant>
AV-unprocessed.smi:3168-4

> <Gold.Version>
5.8.1

> <Gold.Id.Protein>
6NUR|6NUR_protein|mol2

> <Gold.PLP.Fitness>
44.6901

> <Gold.PLP.PLP>
-43.2027

> <Gold.PLP.part.hbond>
-2.0000

> <Gold.PLP.part.metal>
0.0000

> <Gold.PLP.part.buried>
-4.7330

> <Gold.PLP.part.nonpolar>
-36.3659

> <Gold.PLP.part.repulsive>
0.2208

> <Gold.PLP.ligand.clash>
0.0000

> <Gold.PLP.ligand.torsion>
0.8248

> <Gold.PLP.Chemscore.Hbond>
1.0000

> <Gold.PLP.Chemscore.CHOScore>
0.0000

> <Gold.PLP.Chemscore.Metal>
0.0000

> <Gold.Chemscore.Hbonds>
donor molecule, donor type, donor heavy atom, donor atom, acceptor molecule, acceptor atom, score
      P1  H  7989  7998       L1    11  0.90

> <Gold.PLP.Chemscore.Internal.Correction>
0.1370

> <Gold.Rescore>
     Score         DG    S(hbond)    S(metal)    S(lipo)     H(rot)  DE(clash)    DE(int)     intcor
     14.93     -15.75       0.94        0.00      96.11       1.61       0.04       0.78       ----

> <Gold.Chemscore.Fitness>
14.9343

> <Gold.Chemscore.DG>
-15.7550

> <Gold.Chemscore.ZeroCoef>
-5.4800

> <Gold.Chemscore.Hbond>
0.9431

> <Gold.Chemscore.Metal>
0.0000

> <Gold.Chemscore.Lipo>
96.1127

> <Gold.Chemscore.Internal_Hbond>
0.0000

> <Gold.Chemscore.DEClash>
0.0400

> <Gold.Chemscore.DEInternal>
0.7806

> <Gold.Chemscore.Rot>
1.6094

> <Gold.Chemscore.Internal.Correction>
   9.000000E+99

> <Gold.Chemscore.Hbonds>
donor molecule, donor type, donor heavy atom, donor atom, acceptor molecule, acceptor atom, score
      P1  H  7989  7998       L1    11  0.18

> <Gold.Chemscore.Hbond.Weighted>
-3.1498

> <Gold.Chemscore.Metal.Weighted>
-0.0000

> <Gold.Chemscore.Lipo.Weighted>
-11.2452

> <Gold.Chemscore.Internal_Hbond.Weighted>
0.0000

> <Gold.Chemscore.DEClash.Weighted>
0.0400

> <Gold.Chemscore.DEInternal.Weighted>
0.7806

> <Gold.Chemscore.Rot.Weighted>
4.1201

> <Gold.Chemscore.Internal.Correction.Weighted>
   9.000000E+99

> <Gold.Protein.RotatedTorsions>
[ 6907 6896 6895 6894 ] final  -76.42 input  -60.11 | X-H torsion
[ 7974 7965 7964 7962 ] final  -10.05 input  175.53 | X-H torsion
[ 8008 7997 7996 7995 ] final -130.27 input   59.86 | X-H torsion
[ 10167 10162 10161 10158 ] final  104.92 input  -65.29 | X-H torsion
[ 10718 10713 10712 10709 ] final  127.05 input   66.30 | X-H torsion
[ 10763 10752 10751 10750 ] final   21.45 input  -60.55 | X-H torsion
[ 11005 11000 10999 10996 ] final -150.39 input  -57.11 | X-H torsion

> <Gold.Protein.ActiveResidues>
 VAL166  LYS551  ARG553  GLY616  TRP617  ASP618  TYR619  PRO620  LYS621  CYS622 
 ASP623  PHE694  ASN695  SER759  ASP760  ASP761  ALA762  ILE779  LEU786  VAL792 
 PHE793  MET794  SER795  GLU796  ALA797  LYS798  CYS799  TRP800  GLU811  SER814 

> <Gold.Protein.RotatedAtoms>
  150.7028  134.4575  159.5364 H   0  0  0  0  0  0  0  0  0  0  0  0  # atno 6907 bound_to 6896
  152.2256  134.8369  160.0489 H   0  0  0  0  0  0  0  0  0  0  0  0  # atno 6908 bound_to 6896
  151.9203  133.3549  159.3931 H   0  0  0  0  0  0  0  0  0  0  0  0  # atno 6909 bound_to 6896
  146.2233  140.2707  142.8356 H   0  0  0  0  0  0  0  0  0  0  0  0  # atno 7974 bound_to 7965
  155.2929  140.0449  157.3024 H   0  0  0  0  0  0  0  0  0  0  0  0  # atno 8008 bound_to 7997
  154.5531  140.2323  155.8421 H   0  0  0  0  0  0  0  0  0  0  0  0  # atno 8009 bound_to 7997
  156.1984  140.3032  155.9481 H   0  0  0  0  0  0  0  0  0  0  0  0  # atno 8010 bound_to 7997
  139.7136  144.7073  151.0987 H   0  0  0  0  0  0  0  0  0  0  0  0  # atno 10167 bound_to 10162
  157.5366  131.1097  150.8925 H   0  0  0  0  0  0  0  0  0  0  0  0  # atno 10718 bound_to 10713
  153.0994  135.6668  153.9701 H   0  0  0  0  0  0  0  0  0  0  0  0  # atno 10763 bound_to 10752
  153.9276  135.3007  155.3448 H   0  0  0  0  0  0  0  0  0  0  0  0  # atno 10764 bound_to 10752
  154.7414  135.5077  153.9205 H   0  0  0  0  0  0  0  0  0  0  0  0  # atno 10765 bound_to 10752
  140.7407  134.3517  157.5148 H   0  0  0  0  0  0  0  0  0  0  0  0  # atno 11005 bound_to 11000
  144.9270  140.7933  143.5713 LP  0  0  0  0  0  0  0  0  0  0  0  0  # atno 17320 bound_to 7965
  145.2647  139.1978  143.4873 LP  0  0  0  0  0  0  0  0  0  0  0  0  # atno 17321 bound_to 7965
  140.7739  143.5260  150.9480 LP  0  0  0  0  0  0  0  0  0  0  0  0  # atno 17342 bound_to 10162
  139.8945  143.6911  152.3140 LP  0  0  0  0  0  0  0  0  0  0  0  0  # atno 17343 bound_to 10162
  156.9491  130.5413  149.5282 LP  0  0  0  0  0  0  0  0  0  0  0  0  # atno 17370 bound_to 10713
  156.0463  130.5539  150.8889 LP  0  0  0  0  0  0  0  0  0  0  0  0  # atno 17371 bound_to 10713
  139.8807  134.9079  156.2955 LP  0  0  0  0  0  0  0  0  0  0  0  0  # atno 17394 bound_to 11000
  140.9839  133.7250  156.0713 LP  0  0  0  0  0  0  0  0  0  0  0  0  # atno 17395 bound_to 11000

$$$$
