AV-unprocessed.smi:151|AV-procd|sdf|1244|dock10
  -GOLD-   2262018463D 1   1.00000     0.00000
 Structure written by MMmdl.
 56 59  0  0  0  0  0  0  0  0  1 V2000
  151.2407  139.5035  155.0534 C   0  0  0  0  0  0  0  0  0  0  0  0
  149.8927  138.8575  154.6917 C   0  0  0  0  0  0  0  0  0  0  0  0
  148.8255  139.8296  154.1233 C   0  0  2  0  0  0  0  0  0  0  0  0
  149.1220  141.2869  154.5396 C   0  0  0  0  0  0  0  0  0  0  0  0
  148.1209  142.1738  154.0479 O   0  0  0  0  0  0  0  0  0  0  0  0
  146.7864  141.8683  154.4593 C   0  0  0  0  0  0  0  0  0  0  0  0
  146.6002  142.0577  155.9803 C   0  0  0  0  0  0  0  0  0  0  0  0
  145.8876  142.8650  153.7109 C   0  0  0  0  0  0  0  0  0  0  0  0
  146.4547  140.4302  154.0143 C   0  0  0  0  0  0  0  0  0  0  0  0
  147.4495  139.4757  154.4927 N   0  0  0  0  0  0  0  0  0  0  0  0
  147.0291  138.2114  154.2513 C   0  0  0  0  0  0  0  0  0  0  0  0
  147.0833  137.2677  155.2282 N   0  0  0  0  0  0  0  0  0  0  0  0
  146.6861  136.0181  154.9706 C   0  0  0  0  0  0  0  0  0  0  0  0
  146.2214  135.5088  153.8278 N   0  0  0  0  0  0  0  0  0  0  0  0
  146.1808  136.4501  152.8408 C   0  0  0  0  0  0  0  0  0  0  0  0
  146.5662  137.8136  152.9694 C   0  0  0  0  0  0  0  0  0  0  0  0
  146.3933  138.4766  151.7617 N   0  0  0  0  0  0  0  0  0  0  0  0
  145.9286  137.5562  150.9617 C   0  0  0  0  0  0  0  0  0  0  0  0
  145.7698  136.3085  151.5244 N   0  0  0  0  0  0  0  0  0  0  0  0
  145.2726  135.1339  150.8633 C   0  0  0  0  0  0  0  0  0  0  0  0
  144.3279  134.1629  151.5783 C   0  0  0  0  0  0  0  0  0  0  0  0
  145.0173  132.9682  150.8777 C   0  0  0  0  0  0  0  0  0  0  0  0
  145.3557  131.7577  151.7685 C   0  0  0  0  0  0  0  0  0  0  0  0
  146.7261  131.6916  152.1093 O   0  0  0  0  0  0  0  0  0  0  0  0
  144.2784  132.3746  149.6600 C   0  0  0  0  0  0  0  0  0  0  0  0
  142.9273  132.0535  149.9234 O   0  0  0  0  0  0  0  0  0  0  0  0
  146.1818  133.9372  150.5626 C   0  0  0  0  0  0  0  0  0  0  0  0
  151.9188  138.7603  155.4731 H   0  0  0  0  0  0  0  0  0  0  0  0
  151.1215  140.2925  155.7963 H   0  0  0  0  0  0  0  0  0  0  0  0
  151.7331  139.9336  154.1822 H   0  0  0  0  0  0  0  0  0  0  0  0
  150.0684  138.0638  153.9650 H   0  0  0  0  0  0  0  0  0  0  0  0
  149.5045  138.3496  155.5740 H   0  0  0  0  0  0  0  0  0  0  0  0
  148.8881  139.7909  153.0346 H   0  0  0  0  0  0  0  0  0  0  0  0
  149.2060  141.3913  155.6200 H   0  0  0  0  0  0  0  0  0  0  0  0
  150.0828  141.6005  154.1309 H   0  0  0  0  0  0  0  0  0  0  0  0
  145.5541  141.9339  156.2618 H   0  0  0  0  0  0  0  0  0  0  0  0
  146.9107  143.0547  156.2938 H   0  0  0  0  0  0  0  0  0  0  0  0
  147.1691  141.3345  156.5643 H   0  0  0  0  0  0  0  0  0  0  0  0
  144.8339  142.6947  153.9342 H   0  0  0  0  0  0  0  0  0  0  0  0
  146.0146  142.7787  152.6312 H   0  0  0  0  0  0  0  0  0  0  0  0
  146.1233  143.8932  153.9874 H   0  0  0  0  0  0  0  0  0  0  0  0
  145.4607  140.1548  154.3712 H   0  0  0  0  0  0  0  0  0  0  0  0
  146.4225  140.3786  152.9245 H   0  0  0  0  0  0  0  0  0  0  0  0
  146.7510  135.3270  155.7978 H   0  0  0  0  0  0  0  0  0  0  0  0
  145.6863  137.7666  149.9300 H   0  0  0  0  0  0  0  0  0  0  0  0
  144.8096  135.4807  149.9385 H   0  0  0  0  0  0  0  0  0  0  0  0
  144.4596  134.1713  152.6606 H   0  0  0  0  0  0  0  0  0  0  0  0
  143.2767  134.2971  151.3215 H   0  0  0  0  0  0  0  0  0  0  0  0
  144.7846  131.7890  152.6971 H   0  0  0  0  0  0  0  0  0  0  0  0
  145.0931  130.8239  151.2700 H   0  0  0  0  0  0  0  0  0  0  0  0
  147.2084  131.3780  151.3595 H   0  0  0  0  0  0  0  0  0  0  0  0
  144.2927  133.0729  148.8224 H   0  0  0  0  0  0  0  0  0  0  0  0
  144.7716  131.4650  149.3155 H   0  0  0  0  0  0  0  0  0  0  0  0
  142.4028  132.8286  149.7918 H   0  0  0  0  0  0  0  0  0  0  0  0
  146.5379  133.8998  149.5327 H   0  0  0  0  0  0  0  0  0  0  0  0
  147.0186  133.8561  151.2564 H   0  0  0  0  0  0  0  0  0  0  0  0
  1  2  1  0  0  0  0
  1 28  1  0  0  0  0
  1 29  1  0  0  0  0
  1 30  1  0  0  0  0
  2  3  1  0  0  0  0
  2 31  1  0  0  0  0
  2 32  1  0  0  0  0
  3 10  1  0  0  0  0
  3  4  1  0  0  0  0
  3 33  1  0  0  0  0
  4  5  1  0  0  0  0
  4 34  1  0  0  0  0
  4 35  1  0  0  0  0
  5  6  1  0  0  0  0
  6  7  1  0  0  0  0
  6  8  1  0  0  0  0
  6  9  1  0  0  0  0
  7 36  1  0  0  0  0
  7 37  1  0  0  0  0
  7 38  1  0  0  0  0
  8 39  1  0  0  0  0
  8 40  1  0  0  0  0
  8 41  1  0  0  0  0
  9 10  1  0  0  0  0
  9 42  1  0  0  0  0
  9 43  1  0  0  0  0
 10 11  1  0  0  0  0
 11 16  1  0  0  0  0
 11 12  2  0  0  0  0
 12 13  1  0  0  0  0
 13 14  2  0  0  0  0
 13 44  1  0  0  0  0
 14 15  1  0  0  0  0
 15 19  1  0  0  0  0
 15 16  2  0  0  0  0
 16 17  1  0  0  0  0
 17 18  2  0  0  0  0
 18 19  1  0  0  0  0
 18 45  1  0  0  0  0
 19 20  1  0  0  0  0
 20 27  1  0  0  0  0
 20 21  1  0  0  0  0
 20 46  1  0  0  0  0
 21 22  1  0  0  0  0
 21 47  1  0  0  0  0
 21 48  1  0  0  0  0
 22 23  1  0  0  0  0
 22 25  1  0  0  0  0
 22 27  1  0  0  0  0
 23 24  1  0  0  0  0
 23 49  1  0  0  0  0
 23 50  1  0  0  0  0
 24 51  1  0  0  0  0
 25 26  1  0  0  0  0
 25 52  1  0  0  0  0
 25 53  1  0  0  0  0
 26 54  1  0  0  0  0
 27 55  1  0  0  0  0
 27 56  1  0  0  0  0
M  END
> <s_m_source_file>
AV-unprocessed.smi

> <i_m_source_file_index>
151

> <i_lp_mmshare_version>
43012

> <i_f3d_flags>
0

> <s_epik_input>
W0NIM11DMShbQ0gzXSlPW0NIMl1bQ0BASF0oW0NIMl1bQ0gzXSlOKFtDSDJdMSljKG5bY0hdbjIpYyhjMjMpbltjSF1uM1tDSF0oW0NIMl00KVtDSDJdQzQoW0NIMl1bT0hdKVtDSDJdW09IXQ==

> <s_epik_cmdline>
J2VwaWtfcHl0aG9uJywgJy1waCcsICc3LjAnLCAnLXRuJywgJzgnLCAnLW1hJywgJzIwMCcsICctbWV0YWxfYmluZGluZycsICctaW1hZScsICc8aW5maWxlLm1hZT4nLCAnLW9tYWUnLCAnPG91dGZpbGUubWFlPic=

> <r_lp_tautomer_probability>
1

> <r_epik_Ionization_Penalty>
0.000102837

> <r_epik_Ionization_Penalty_Charging>
0

> <r_epik_Ionization_Penalty_Neutral>
0.000102837

> <r_epik_State_Penalty>
-0

> <r_epik_Charging_Adjusted_Penalty>
0

> <i_epik_Tot_Q>
0

> <i_epik_Tot_abs_Q>
0

> <r_epik_Metal_State_Penalty>
-0

> <b_epik_Metal_Only>
0

> <s_lp_Force_Field>
OPLS_2005

> <r_lp_Energy>
52.7657

> <b_lp_Chiralities_Consistent>
1

> <s_lp_Variant>
AV-unprocessed.smi:151-1

> <Gold.Version>
5.8.1

> <Gold.Id.Protein>
6NUR|6NUR_protein|mol2

> <Gold.PLP.Fitness>
44.9670

> <Gold.PLP.PLP>
-41.5618

> <Gold.PLP.part.hbond>
-4.1976

> <Gold.PLP.part.metal>
0.0000

> <Gold.PLP.part.buried>
4.4806

> <Gold.PLP.part.nonpolar>
-41.7996

> <Gold.PLP.part.repulsive>
0.9198

> <Gold.PLP.ligand.clash>
0.0000

> <Gold.PLP.ligand.torsion>
2.6024

> <Gold.PLP.Chemscore.Hbond>
2.0625

> <Gold.PLP.Chemscore.CHOScore>
0.6326

> <Gold.PLP.Chemscore.Metal>
0.0000

> <Gold.Chemscore.Hbonds>
donor molecule, donor type, donor heavy atom, donor atom, acceptor molecule, acceptor atom, score
      L1  H    24    51       P1 10747  0.73
      L1  H    26    54       P1 10186  0.76
      P1  H 10785 10796       L1    26  0.19
      L1  C    18    45       P1 10171  0.54

> <Gold.PLP.Chemscore.Internal.Correction>
0.5246

> <Gold.Rescore>
     Score         DG    S(hbond)    S(metal)    S(lipo)     H(rot)  DE(clash)    DE(int)     intcor
      7.06     -15.03       1.93        0.00      97.92       3.26       4.63       3.35       ----

> <Gold.Chemscore.Fitness>
7.0586

> <Gold.Chemscore.DG>
-15.0345

> <Gold.Chemscore.ZeroCoef>
-5.4800

> <Gold.Chemscore.Hbond>
1.9287

> <Gold.Chemscore.Metal>
0.0000

> <Gold.Chemscore.Lipo>
97.9246

> <Gold.Chemscore.Internal_Hbond>
0.0000

> <Gold.Chemscore.DEClash>
4.6302

> <Gold.Chemscore.DEInternal>
3.3456

> <Gold.Chemscore.Rot>
3.2596

> <Gold.Chemscore.Internal.Correction>
   9.000000E+99

> <Gold.Chemscore.Hbonds>
donor molecule, donor type, donor heavy atom, donor atom, acceptor molecule, acceptor atom, score
      L1  H    24    51       P1 10747  0.71
      L1  H    26    54       P1 10186  0.75
      P1  H 10785 10796       L1    26  0.01

> <Gold.Chemscore.Hbond.Weighted>
-6.4420

> <Gold.Chemscore.Metal.Weighted>
-0.0000

> <Gold.Chemscore.Lipo.Weighted>
-11.4572

> <Gold.Chemscore.Internal_Hbond.Weighted>
0.0000

> <Gold.Chemscore.DEClash.Weighted>
4.6302

> <Gold.Chemscore.DEInternal.Weighted>
3.3456

> <Gold.Chemscore.Rot.Weighted>
8.3447

> <Gold.Chemscore.Internal.Correction.Weighted>
   9.000000E+99

> <Gold.Protein.RotatedTorsions>
[ 6907 6896 6895 6894 ] final  -87.00 input  -60.11 | X-H torsion
[ 7974 7965 7964 7962 ] final  138.74 input  175.53 | X-H torsion
[ 8008 7997 7996 7995 ] final   11.30 input   59.86 | X-H torsion
[ 10167 10162 10161 10158 ] final  -29.54 input  -65.29 | X-H torsion
[ 10718 10713 10712 10709 ] final  -61.82 input   66.30 | X-H torsion
[ 10763 10752 10751 10750 ] final  108.67 input  -60.55 | X-H torsion
[ 11005 11000 10999 10996 ] final   49.25 input  -57.11 | X-H torsion

> <Gold.Protein.ActiveResidues>
 VAL166  LYS551  ARG553  GLY616  TRP617  ASP618  TYR619  PRO620  LYS621  CYS622 
 ASP623  PHE694  ASN695  SER759  ASP760  ASP761  ALA762  ILE779  LEU786  VAL792 
 PHE793  MET794  SER795  GLU796  ALA797  LYS798  CYS799  TRP800  GLU811  SER814 

> <Gold.Protein.RotatedAtoms>
  150.6866  134.2964  159.4687 H   0  0  0  0  0  0  0  0  0  0  0  0  # atno 6907 bound_to 6896
  152.0864  134.9434  160.0582 H   0  0  0  0  0  0  0  0  0  0  0  0  # atno 6908 bound_to 6896
  152.0766  133.4098  159.4520 H   0  0  0  0  0  0  0  0  0  0  0  0  # atno 6909 bound_to 6896
  144.9344  139.5007  143.5602 H   0  0  0  0  0  0  0  0  0  0  0  0  # atno 7974 bound_to 7965
  154.8050  140.2858  155.5894 H   0  0  0  0  0  0  0  0  0  0  0  0  # atno 8008 bound_to 7997
  156.2982  140.2579  156.2856 H   0  0  0  0  0  0  0  0  0  0  0  0  # atno 8009 bound_to 7997
  154.9514  140.0379  157.2135 H   0  0  0  0  0  0  0  0  0  0  0  0  # atno 8010 bound_to 7997
  140.7259  143.3921  151.1412 H   0  0  0  0  0  0  0  0  0  0  0  0  # atno 10167 bound_to 10162
  156.0896  130.4202  150.1048 H   0  0  0  0  0  0  0  0  0  0  0  0  # atno 10718 bound_to 10713
  153.4239  135.3804  155.2128 H   0  0  0  0  0  0  0  0  0  0  0  0  # atno 10763 bound_to 10752
  154.8746  135.3824  154.4350 H   0  0  0  0  0  0  0  0  0  0  0  0  # atno 10764 bound_to 10752
  153.4874  135.7088  153.5966 H   0  0  0  0  0  0  0  0  0  0  0  0  # atno 10765 bound_to 10752
  140.1119  134.4943  155.8670 H   0  0  0  0  0  0  0  0  0  0  0  0  # atno 11005 bound_to 11000
  146.3260  139.8318  142.8907 LP  0  0  0  0  0  0  0  0  0  0  0  0  # atno 17320 bound_to 7965
  145.3090  141.0215  143.3565 LP  0  0  0  0  0  0  0  0  0  0  0  0  # atno 17321 bound_to 7965
  139.7527  143.8754  152.3081 LP  0  0  0  0  0  0  0  0  0  0  0  0  # atno 17342 bound_to 10162
  139.8613  144.7116  150.9096 LP  0  0  0  0  0  0  0  0  0  0  0  0  # atno 17343 bound_to 10162
  156.9061  130.9636  151.3569 LP  0  0  0  0  0  0  0  0  0  0  0  0  # atno 17370 bound_to 10713
  157.6041  130.8534  149.8848 LP  0  0  0  0  0  0  0  0  0  0  0  0  # atno 17371 bound_to 10713
  141.2132  133.6730  156.6722 LP  0  0  0  0  0  0  0  0  0  0  0  0  # atno 17394 bound_to 11000
  140.3079  134.8110  157.4152 LP  0  0  0  0  0  0  0  0  0  0  0  0  # atno 17395 bound_to 11000

$$$$
