AV-unprocessed.smi:1202|AV-procd|sdf|5030|dock5
  -GOLD-   22720 4 53D 1   1.00000     0.00000
 Structure written by MMmdl.
 45 46  0  0  0  0  0  0  0  0  2 V2000
  147.2863  133.3897  152.4811 C   0  0  0  0  0  0  0  0  0  0  0  0
  148.2305  134.1384  153.2969 N   0  0  0  0  0  0  0  0  0  0  0  0
  148.8940  133.6267  154.3431 C   0  0  0  0  0  0  0  0  0  0  0  0
  148.7603  132.4632  154.7240 O   0  0  0  0  0  0  0  0  0  0  0  0
  149.8392  134.5826  155.0788 C   0  0  0  0  0  0  0  0  0  0  0  0
  149.7791  135.9745  154.5625 N   0  3  2  0  0  0  0  0  0  0  0  0
  151.0615  136.7012  154.7461 C   0  0  0  0  0  0  0  0  0  0  0  0
  151.0195  138.0879  154.0777 C   0  0  0  0  0  0  0  0  0  0  0  0
  149.8347  138.9349  154.5735 C   0  0  2  0  0  0  0  0  0  0  0  0
  150.0598  139.3725  155.9507 N   0  0  0  0  0  0  0  0  0  0  0  0
  150.6615  140.5159  156.3128 C   0  0  0  0  0  0  0  0  0  0  0  0
  151.0771  141.3441  155.5015 O   0  0  0  0  0  0  0  0  0  0  0  0
  150.7861  140.7619  157.8230 C   0  0  0  0  0  0  0  0  0  0  0  0
  151.4333  142.0433  158.1508 N   0  0  0  0  0  0  0  0  0  0  0  0
  150.8864  143.2058  157.5720 C   0  0  0  0  0  0  0  0  0  0  0  0
  151.4029  144.4234  157.8013 C   0  0  0  0  0  0  0  0  0  0  0  0
  152.5520  144.5252  158.6697 C   0  0  0  0  0  0  0  0  0  0  0  0
  153.0842  143.4191  159.2267 C   0  0  0  0  0  0  0  0  0  0  0  0
  152.5242  142.0858  158.9768 C   0  0  0  0  0  0  0  0  0  0  0  0
  153.0053  141.0690  159.4782 O   0  0  0  0  0  0  0  0  0  0  0  0
  148.5275  138.1299  154.4342 C   0  0  0  0  0  0  0  0  0  0  0  0
  148.6295  136.7482  155.1032 C   0  0  0  0  0  0  0  0  0  0  0  0
  146.8406  134.0451  151.7329 H   0  0  0  0  0  0  0  0  0  0  0  0
  146.4831  132.9763  153.0925 H   0  0  0  0  0  0  0  0  0  0  0  0
  147.7864  132.5711  151.9621 H   0  0  0  0  0  0  0  0  0  0  0  0
  148.3866  135.1052  153.0492 H   0  0  0  0  0  0  0  0  0  0  0  0
  149.6368  134.5725  156.1513 H   0  0  0  0  0  0  0  0  0  0  0  0
  150.8463  134.1849  154.9462 H   0  0  0  0  0  0  0  0  0  0  0  0
  151.2773  136.7973  155.8113 H   0  0  0  0  0  0  0  0  0  0  0  0
  151.8768  136.1226  154.3103 H   0  0  0  0  0  0  0  0  0  0  0  0
  151.9593  138.6151  154.2474 H   0  0  0  0  0  0  0  0  0  0  0  0
  150.9370  137.9580  152.9975 H   0  0  0  0  0  0  0  0  0  0  0  0
  149.7697  139.8249  153.9447 H   0  0  0  0  0  0  0  0  0  0  0  0
  149.7531  138.7506  156.6847 H   0  0  0  0  0  0  0  0  0  0  0  0
  149.7866  140.7154  158.2570 H   0  0  0  0  0  0  0  0  0  0  0  0
  151.3346  139.9373  158.2829 H   0  0  0  0  0  0  0  0  0  0  0  0
  150.0329  143.0436  156.9298 H   0  0  0  0  0  0  0  0  0  0  0  0
  150.9728  145.3029  157.3453 H   0  0  0  0  0  0  0  0  0  0  0  0
  152.9875  145.4926  158.8730 H   0  0  0  0  0  0  0  0  0  0  0  0
  153.9444  143.5147  159.8729 H   0  0  0  0  0  0  0  0  0  0  0  0
  147.6858  138.6855  154.8492 H   0  0  0  0  0  0  0  0  0  0  0  0
  148.3034  137.9951  153.3751 H   0  0  0  0  0  0  0  0  0  0  0  0
  147.6989  136.2051  154.9367 H   0  0  0  0  0  0  0  0  0  0  0  0
  148.7373  136.8581  156.1834 H   0  0  0  0  0  0  0  0  0  0  0  0
  149.6373  135.8955  153.5651 H   0  0  0  0  0  0  0  0  0  0  0  0
  1  2  1  0  0  0  0
  1 23  1  0  0  0  0
  1 24  1  0  0  0  0
  1 25  1  0  0  0  0
  2  3  1  0  0  0  0
  2 26  1  0  0  0  0
  3  4  2  0  0  0  0
  3  5  1  0  0  0  0
  5  6  1  0  0  0  0
  5 27  1  0  0  0  0
  5 28  1  0  0  0  0
  6 22  1  0  0  0  0
  6  7  1  0  0  0  0
  6 45  1  0  0  0  0
  7  8  1  0  0  0  0
  7 29  1  0  0  0  0
  7 30  1  0  0  0  0
  8  9  1  0  0  0  0
  8 31  1  0  0  0  0
  8 32  1  0  0  0  0
  9 10  1  0  0  0  0
  9 21  1  0  0  0  0
  9 33  1  0  0  0  0
 10 11  1  0  0  0  0
 10 34  1  0  0  0  0
 11 12  2  0  0  0  0
 11 13  1  0  0  0  0
 13 14  1  0  0  0  0
 13 35  1  0  0  0  0
 13 36  1  0  0  0  0
 14 19  1  0  0  0  0
 14 15  1  0  0  0  0
 15 16  2  0  0  0  0
 15 37  1  0  0  0  0
 16 17  1  0  0  0  0
 16 38  1  0  0  0  0
 17 18  2  0  0  0  0
 17 39  1  0  0  0  0
 18 19  1  0  0  0  0
 18 40  1  0  0  0  0
 19 20  2  0  0  0  0
 21 22  1  0  0  0  0
 21 41  1  0  0  0  0
 21 42  1  0  0  0  0
 22 43  1  0  0  0  0
 22 44  1  0  0  0  0
M  CHG  1   6   1
M  END
> <s_m_source_file>
AV-unprocessed.smi

> <i_m_source_file_index>
1202

> <i_lp_mmshare_version>
43012

> <i_f3d_flags>
0

> <s_epik_input>
W0NIM11bTkhdQyg9TylbQ0gyXU4xW0NIMl1bQ0gyXVtDSF0oW0NIMl1bQ0gyXTEpW05IXUMoPU8pW0NIMl1uMltjSF1bY0hdW2NIXVtjSF1jMj1P

> <s_epik_cmdline>
J2VwaWtfcHl0aG9uJywgJy1waCcsICc3LjAnLCAnLXRuJywgJzgnLCAnLW1hJywgJzIwMCcsICctbWV0YWxfYmluZGluZycsICctaW1hZScsICc8aW5maWxlLm1hZT4nLCAnLW9tYWUnLCAnPG91dGZpbGUubWFlPic=

> <r_lp_tautomer_probability>
1

> <r_epik_Ionization_Penalty>
0.983979

> <r_epik_Ionization_Penalty_Charging>
0.983957

> <r_epik_Ionization_Penalty_Neutral>
2.18432e-05

> <r_epik_State_Penalty>
1.03106

> <r_epik_Charging_Adjusted_Penalty>
2.01502

> <i_epik_Tot_Q>
1

> <i_epik_Tot_abs_Q>
1

> <r_epik_Metal_State_Penalty>
1.03477

> <b_epik_Metal_Only>
0

> <s_lp_Force_Field>
OPLS_2005

> <r_lp_Energy>
22.4374

> <b_lp_Chiralities_Consistent>
1

> <s_lp_Variant>
AV-unprocessed.smi:1202-3

> <Gold.Version>
5.8.1

> <Gold.Id.Protein>
6NUR|6NUR_protein|mol2

> <Gold.PLP.Fitness>
52.1199

> <Gold.PLP.PLP>
-40.3657

> <Gold.PLP.part.hbond>
-3.0000

> <Gold.PLP.part.metal>
0.0000

> <Gold.PLP.part.buried>
-0.6276

> <Gold.PLP.part.nonpolar>
-36.5146

> <Gold.PLP.part.repulsive>
0.1484

> <Gold.PLP.ligand.clash>
0.0000

> <Gold.PLP.ligand.torsion>
0.7081

> <Gold.PLP.Chemscore.Hbond>
3.3696

> <Gold.PLP.Chemscore.CHOScore>
1.0000

> <Gold.PLP.Chemscore.Metal>
0.0000

> <Gold.Chemscore.Hbonds>
donor molecule, donor type, donor heavy atom, donor atom, acceptor molecule, acceptor atom, score
      L1  H     2    26       P1  7948  0.91
      L1  H     6    45       P1  7948  1.90
      P1  H  7989  7998       L1    12  0.39
      L1  C    15    37       P1  8028  0.91

> <Gold.PLP.Chemscore.Internal.Correction>
0.0615

> <Gold.Rescore>
     Score         DG    S(hbond)    S(metal)    S(lipo)     H(rot)  DE(clash)    DE(int)     intcor
     15.75     -17.84       2.35        0.00      87.56       2.23       0.15       1.95       ----

> <Gold.Chemscore.Fitness>
15.7469

> <Gold.Chemscore.DG>
-17.8415

> <Gold.Chemscore.ZeroCoef>
-5.4800

> <Gold.Chemscore.Hbond>
2.3466

> <Gold.Chemscore.Metal>
0.0000

> <Gold.Chemscore.Lipo>
87.5583

> <Gold.Chemscore.Internal_Hbond>
0.0000

> <Gold.Chemscore.DEClash>
0.1477

> <Gold.Chemscore.DEInternal>
1.9469

> <Gold.Chemscore.Rot>
2.2346

> <Gold.Chemscore.Internal.Correction>
   9.000000E+99

> <Gold.Chemscore.Hbonds>
donor molecule, donor type, donor heavy atom, donor atom, acceptor molecule, acceptor atom, score
      L1  H     2    26       P1  7948  0.79
      L1  H     6    45       P1  7948  0.21
      P1  H  7989  7998       L1    12  0.39

> <Gold.Chemscore.Hbond.Weighted>
-7.8377

> <Gold.Chemscore.Metal.Weighted>
-0.0000

> <Gold.Chemscore.Lipo.Weighted>
-10.2443

> <Gold.Chemscore.Internal_Hbond.Weighted>
0.0000

> <Gold.Chemscore.DEClash.Weighted>
0.1477

> <Gold.Chemscore.DEInternal.Weighted>
1.9469

> <Gold.Chemscore.Rot.Weighted>
5.7205

> <Gold.Chemscore.Internal.Correction.Weighted>
   9.000000E+99

> <Gold.Protein.RotatedTorsions>
[ 6907 6896 6895 6894 ] final   41.49 input  -60.11 | X-H torsion
[ 7974 7965 7964 7962 ] final  119.00 input  175.53 | X-H torsion
[ 8008 7997 7996 7995 ] final  -51.58 input   59.86 | X-H torsion
[ 10167 10162 10161 10158 ] final   33.14 input  -65.29 | X-H torsion
[ 10718 10713 10712 10709 ] final   89.89 input   66.30 | X-H torsion
[ 10763 10752 10751 10750 ] final  -54.78 input  -60.55 | X-H torsion
[ 11005 11000 10999 10996 ] final   59.45 input  -57.11 | X-H torsion

> <Gold.Protein.ActiveResidues>
 VAL166  LYS551  ARG553  GLY616  TRP617  ASP618  TYR619  PRO620  LYS621  CYS622 
 ASP623  PHE694  ASN695  SER759  ASP760  ASP761  ALA762  ILE779  LEU786  VAL792 
 PHE793  MET794  SER795  GLU796  ALA797  LYS798  CYS799  TRP800  GLU811  SER814 

> <Gold.Protein.RotatedAtoms>
  152.1960  134.8630  160.0512 H   0  0  0  0  0  0  0  0  0  0  0  0  # atno 6907 bound_to 6896
  151.9502  133.3658  159.4005 H   0  0  0  0  0  0  0  0  0  0  0  0  # atno 6908 bound_to 6896
  150.6944  134.4272  159.5276 H   0  0  0  0  0  0  0  0  0  0  0  0  # atno 6909 bound_to 6896
  145.1484  139.3225  143.4579 H   0  0  0  0  0  0  0  0  0  0  0  0  # atno 7974 bound_to 7965
  154.4086  140.1244  156.4852 H   0  0  0  0  0  0  0  0  0  0  0  0  # atno 8008 bound_to 7997
  155.7045  140.3494  155.4927 H   0  0  0  0  0  0  0  0  0  0  0  0  # atno 8009 bound_to 7997
  155.9356  140.1077  157.1087 H   0  0  0  0  0  0  0  0  0  0  0  0  # atno 8010 bound_to 7997
  140.4434  144.1154  150.6178 H   0  0  0  0  0  0  0  0  0  0  0  0  # atno 10167 bound_to 10162
  157.6957  131.0350  150.3495 H   0  0  0  0  0  0  0  0  0  0  0  0  # atno 10718 bound_to 10713
  154.1803  135.6444  153.5032 H   0  0  0  0  0  0  0  0  0  0  0  0  # atno 10763 bound_to 10752
  153.0061  135.5404  154.6521 H   0  0  0  0  0  0  0  0  0  0  0  0  # atno 10764 bound_to 10752
  154.5884  135.2932  155.0634 H   0  0  0  0  0  0  0  0  0  0  0  0  # atno 10765 bound_to 10752
  140.0303  134.6022  155.9516 H   0  0  0  0  0  0  0  0  0  0  0  0  # atno 11005 bound_to 11000
  146.3497  140.1549  142.8592 LP  0  0  0  0  0  0  0  0  0  0  0  0  # atno 17320 bound_to 7965
  145.0457  140.8979  143.5026 LP  0  0  0  0  0  0  0  0  0  0  0  0  # atno 17321 bound_to 7965
  140.4291  143.2576  151.9618 LP  0  0  0  0  0  0  0  0  0  0  0  0  # atno 17342 bound_to 10162
  139.4791  144.5760  151.8011 LP  0  0  0  0  0  0  0  0  0  0  0  0  # atno 17343 bound_to 10162
  156.3945  130.3904  149.7005 LP  0  0  0  0  0  0  0  0  0  0  0  0  # atno 17370 bound_to 10713
  156.4343  130.7830  151.2851 LP  0  0  0  0  0  0  0  0  0  0  0  0  # atno 17371 bound_to 10713
  141.1827  133.6549  156.5086 LP  0  0  0  0  0  0  0  0  0  0  0  0  # atno 17394 bound_to 11000
  140.4237  134.7164  157.4904 LP  0  0  0  0  0  0  0  0  0  0  0  0  # atno 17395 bound_to 11000

$$$$
