AV-unprocessed.smi:798|AV-procd|sdf|3778|dock5
  -GOLD-   22720 1213D 1   1.00000     0.00000
 Structure written by MMmdl.
 33 35  0  0  0  0  0  0  0  0  2 V2000
  151.8935  139.8629  159.2338 O   0  0  0  0  0  0  0  0  0  0  0  0
  153.0149  140.3486  159.0692 C   0  0  0  0  0  0  0  0  0  0  0  0
  154.1436  139.6719  158.7576 N   0  5  0  0  0  0  0  0  0  0  0  0
  154.2065  138.3448  158.9546 C   0  0  0  0  0  0  0  0  0  0  0  0
  153.2505  137.6706  159.6138 N   0  0  0  0  0  0  0  0  0  0  0  0
  153.5056  136.3088  159.7031 N   0  0  0  0  0  0  0  0  0  0  0  0
  154.6491  135.9882  159.0979 C   0  0  0  0  0  0  0  0  0  0  0  0
  155.5166  137.3194  158.3627 S   0  0  0  0  0  0  0  0  0  0  0  0
  153.1964  141.6717  159.1878 N   0  0  0  0  0  0  0  0  0  0  0  0
  152.1673  142.6606  159.5149 C   0  0  1  0  0  0  0  0  0  0  0  0
  152.8041  144.0586  159.6713 C   0  0  2  0  0  0  0  0  0  0  0  0
  151.8070  144.9893  160.3850 C   0  0  0  0  0  0  0  0  0  0  0  0
  150.7377  145.2259  159.3013 C   0  0  0  0  0  0  0  0  0  0  0  0
  151.2673  144.4025  158.1099 C   0  0  1  0  0  0  0  0  0  0  0  0
  152.7710  144.6028  158.2484 C   0  0  0  0  0  0  0  0  0  0  0  0
  151.0925  142.8928  158.4087 C   0  0  1  0  0  0  0  0  0  0  0  0
  151.2058  142.0035  157.1490 C   0  0  0  0  0  0  0  0  0  0  0  0
  150.1126  142.2277  156.2832 O   0  0  0  0  0  0  0  0  0  0  0  0
  154.9819  134.9611  159.0818 H   0  0  0  0  0  0  0  0  0  0  0  0
  154.1316  142.0224  159.0424 H   0  0  0  0  0  0  0  0  0  0  0  0
  151.6898  142.3740  160.4539 H   0  0  0  0  0  0  0  0  0  0  0  0
  153.7899  144.0477  160.1382 H   0  0  0  0  0  0  0  0  0  0  0  0
  151.3942  144.5439  161.2909 H   0  0  0  0  0  0  0  0  0  0  0  0
  152.2847  145.9295  160.6630 H   0  0  0  0  0  0  0  0  0  0  0  0
  149.7441  144.9071  159.6183 H   0  0  0  0  0  0  0  0  0  0  0  0
  150.6815  146.2847  159.0453 H   0  0  0  0  0  0  0  0  0  0  0  0
  150.8502  144.7202  157.1540 H   0  0  0  0  0  0  0  0  0  0  0  0
  153.0769  145.6481  158.1777 H   0  0  0  0  0  0  0  0  0  0  0  0
  153.3583  144.0131  157.5433 H   0  0  0  0  0  0  0  0  0  0  0  0
  150.1046  142.7183  158.8379 H   0  0  0  0  0  0  0  0  0  0  0  0
  152.1341  142.1888  156.6084 H   0  0  0  0  0  0  0  0  0  0  0  0
  151.1945  140.9487  157.4237 H   0  0  0  0  0  0  0  0  0  0  0  0
  150.0244  143.1591  156.1508 H   0  0  0  0  0  0  0  0  0  0  0  0
  1  2  2  0  0  0  0
  2  3  1  0  0  0  0
  2  9  1  0  0  0  0
  3  4  1  0  0  0  0
  4  8  1  0  0  0  0
  4  5  2  0  0  0  0
  5  6  1  0  0  0  0
  6  7  2  0  0  0  0
  7  8  1  0  0  0  0
  7 19  1  0  0  0  0
  9 10  1  0  0  0  0
  9 20  1  0  0  0  0
 10 16  1  0  0  0  0
 10 11  1  0  0  0  0
 10 21  1  0  0  0  0
 11 15  1  0  0  0  0
 11 12  1  0  0  0  0
 11 22  1  0  0  0  0
 12 13  1  0  0  0  0
 12 23  1  0  0  0  0
 12 24  1  0  0  0  0
 13 14  1  0  0  0  0
 13 25  1  0  0  0  0
 13 26  1  0  0  0  0
 14 15  1  0  0  0  0
 14 16  1  0  0  0  0
 14 27  1  0  0  0  0
 15 28  1  0  0  0  0
 15 29  1  0  0  0  0
 16 17  1  0  0  0  0
 16 30  1  0  0  0  0
 17 18  1  0  0  0  0
 17 31  1  0  0  0  0
 17 32  1  0  0  0  0
 18 33  1  0  0  0  0
M  CHG  1   3  -1
M  END
> <s_m_source_file>
AV-unprocessed.smi

> <i_m_source_file_index>
798

> <i_lp_mmshare_version>
43012

> <i_f3d_flags>
0

> <s_epik_input>
W0NIMl0xW0NIMl1bQ0BASF0oW0NIMl0yKVtDQEBIXShbQ0gyXVtPSF0pW0NAQEhdKFtDQEhdMTIpW05IXUMoPU8pW05IXWMzbm5bY0hdczM=

> <s_epik_cmdline>
J2VwaWtfcHl0aG9uJywgJy1waCcsICc3LjAnLCAnLXRuJywgJzgnLCAnLW1hJywgJzIwMCcsICctbWV0YWxfYmluZGluZycsICctaW1hZScsICc8aW5maWxlLm1hZT4nLCAnLW9tYWUnLCAnPG91dGZpbGUubWFlPic=

> <r_lp_tautomer_probability>
1

> <r_epik_Ionization_Penalty>
4.53732

> <r_epik_Ionization_Penalty_Charging>
4.48632

> <r_epik_Ionization_Penalty_Neutral>
0.0510007

> <r_epik_State_Penalty>
4.48602

> <r_epik_Charging_Adjusted_Penalty>
8.97234

> <i_epik_Tot_Q>
-1

> <i_epik_Tot_abs_Q>
1

> <r_epik_Metal_State_Penalty>
0.812492

> <b_epik_Metal_Only>
1

> <s_lp_Force_Field>
OPLS_2005

> <r_lp_Energy>
47.4454

> <b_lp_Chiralities_Consistent>
1

> <s_lp_Variant>
AV-unprocessed.smi:798-10

> <Gold.Version>
5.8.1

> <Gold.Id.Protein>
6NUR|6NUR_protein|mol2

> <Gold.PLP.Fitness>
47.4074

> <Gold.PLP.PLP>
-35.7361

> <Gold.PLP.part.hbond>
-3.0000

> <Gold.PLP.part.metal>
0.0000

> <Gold.PLP.part.buried>
-5.2495

> <Gold.PLP.part.nonpolar>
-27.0300

> <Gold.PLP.part.repulsive>
0.0822

> <Gold.PLP.ligand.clash>
0.0000

> <Gold.PLP.ligand.torsion>
0.1647

> <Gold.PLP.Chemscore.Hbond>
3.9920

> <Gold.PLP.Chemscore.CHOScore>
0.0000

> <Gold.PLP.Chemscore.Metal>
0.0000

> <Gold.Chemscore.Hbonds>
donor molecule, donor type, donor heavy atom, donor atom, acceptor molecule, acceptor atom, score
      L1  H    18    33       P1  8028  0.99
      P1  H  6896  6907       L1     6  1.00
      P1  H  7997  8009       L1     3  2.00

> <Gold.PLP.Chemscore.Internal.Correction>
0.0248

> <Gold.Rescore>
     Score         DG    S(hbond)    S(metal)    S(lipo)     H(rot)  DE(clash)    DE(int)     intcor
     19.11     -20.97       2.81        0.00      94.34       1.92       0.00       1.86       ----

> <Gold.Chemscore.Fitness>
19.1145

> <Gold.Chemscore.DG>
-20.9725

> <Gold.Chemscore.ZeroCoef>
-5.4800

> <Gold.Chemscore.Hbond>
2.8060

> <Gold.Chemscore.Metal>
0.0000

> <Gold.Chemscore.Lipo>
94.3353

> <Gold.Chemscore.Internal_Hbond>
0.0000

> <Gold.Chemscore.DEClash>
0.0000

> <Gold.Chemscore.DEInternal>
1.8580

> <Gold.Chemscore.Rot>
1.9207

> <Gold.Chemscore.Internal.Correction>
   9.000000E+99

> <Gold.Chemscore.Hbonds>
donor molecule, donor type, donor heavy atom, donor atom, acceptor molecule, acceptor atom, score
      L1  H    18    33       P1  8028  0.91
      P1  H  6896  6907       L1     6  0.94
      P1  H  7997  8009       L1     3  0.63

> <Gold.Chemscore.Hbond.Weighted>
-9.3721

> <Gold.Chemscore.Metal.Weighted>
-0.0000

> <Gold.Chemscore.Lipo.Weighted>
-11.0372

> <Gold.Chemscore.Internal_Hbond.Weighted>
0.0000

> <Gold.Chemscore.DEClash.Weighted>
0.0000

> <Gold.Chemscore.DEInternal.Weighted>
1.8580

> <Gold.Chemscore.Rot.Weighted>
4.9169

> <Gold.Chemscore.Internal.Correction.Weighted>
   9.000000E+99

> <Gold.Protein.RotatedTorsions>
[ 6907 6896 6895 6894 ] final   44.52 input  -60.11 | X-H torsion
[ 7974 7965 7964 7962 ] final  -66.05 input  175.53 | X-H torsion
[ 8008 7997 7996 7995 ] final  129.91 input   59.86 | X-H torsion
[ 10167 10162 10161 10158 ] final   85.09 input  -65.29 | X-H torsion
[ 10718 10713 10712 10709 ] final   34.88 input   66.30 | X-H torsion
[ 10763 10752 10751 10750 ] final -173.49 input  -60.55 | X-H torsion
[ 11005 11000 10999 10996 ] final  -13.81 input  -57.11 | X-H torsion

> <Gold.Protein.ActiveResidues>
 VAL166  LYS551  ARG553  GLY616  TRP617  ASP618  TYR619  PRO620  LYS621  CYS622 
 ASP623  PHE694  ASN695  SER759  ASP760  ASP761  ALA762  ILE779  LEU786  VAL792 
 PHE793  MET794  SER795  GLU796  ALA797  LYS798  CYS799  TRP800  GLU811  SER814 

> <Gold.Protein.RotatedAtoms>
  152.2335  134.8299  160.0470 H   0  0  0  0  0  0  0  0  0  0  0  0  # atno 6907 bound_to 6896
  151.9039  133.3539  159.3848 H   0  0  0  0  0  0  0  0  0  0  0  0  # atno 6908 bound_to 6896
  150.7032  134.4726  159.5476 H   0  0  0  0  0  0  0  0  0  0  0  0  # atno 6909 bound_to 6896
  145.7466  140.8928  143.0502 H   0  0  0  0  0  0  0  0  0  0  0  0  # atno 7974 bound_to 7965
  156.2945  140.2609  156.2676 H   0  0  0  0  0  0  0  0  0  0  0  0  # atno 8008 bound_to 7997
  154.9727  140.0391  157.2260 H   0  0  0  0  0  0  0  0  0  0  0  0  # atno 8009 bound_to 7997
  154.7844  140.2801  155.6044 H   0  0  0  0  0  0  0  0  0  0  0  0  # atno 8010 bound_to 7997
  139.9013  144.6327  150.8634 H   0  0  0  0  0  0  0  0  0  0  0  0  # atno 10167 bound_to 10162
  157.3158  130.7422  149.6753 H   0  0  0  0  0  0  0  0  0  0  0  0  # atno 10718 bound_to 10713
  154.6072  135.2860  155.0472 H   0  0  0  0  0  0  0  0  0  0  0  0  # atno 10763 bound_to 10752
  154.1715  135.6472  153.5014 H   0  0  0  0  0  0  0  0  0  0  0  0  # atno 10764 bound_to 10752
  153.0180  135.5402  154.6812 H   0  0  0  0  0  0  0  0  0  0  0  0  # atno 10765 bound_to 10752
  140.7800  133.8370  155.9283 H   0  0  0  0  0  0  0  0  0  0  0  0  # atno 11005 bound_to 11000
  144.6859  139.9533  143.7478 LP  0  0  0  0  0  0  0  0  0  0  0  0  # atno 17320 bound_to 7965
  146.0397  139.3410  143.0705 LP  0  0  0  0  0  0  0  0  0  0  0  0  # atno 17321 bound_to 7965
  140.7706  143.3434  151.2160 LP  0  0  0  0  0  0  0  0  0  0  0  0  # atno 17342 bound_to 10162
  139.7023  143.9513  152.2911 LP  0  0  0  0  0  0  0  0  0  0  0  0  # atno 17343 bound_to 10162
  155.9681  130.4238  150.4578 LP  0  0  0  0  0  0  0  0  0  0  0  0  # atno 17370 bound_to 10713
  157.2584  131.0561  151.2335 LP  0  0  0  0  0  0  0  0  0  0  0  0  # atno 17371 bound_to 10713
  140.9492  134.1801  157.4741 LP  0  0  0  0  0  0  0  0  0  0  0  0  # atno 17394 bound_to 11000
  139.8744  134.9902  156.5493 LP  0  0  0  0  0  0  0  0  0  0  0  0  # atno 17395 bound_to 11000

$$$$
