AV-unprocessed.smi:193|AV-procd|sdf|1518|dock4
  -GOLD-   2262019353D 1   1.00000     0.00000
 Structure written by MMmdl.
 61 65  0  0  0  0  0  0  0  0  1 V2000
  147.6315  141.9825  154.0530 C   0  0  0  0  0  0  0  0  0  0  0  0
  148.3684  140.9586  154.9306 C   0  0  2  0  0  0  0  0  0  0  0  0
  147.4090  139.8019  155.2857 C   0  0  0  0  0  0  0  0  0  0  0  0
  148.0779  138.5749  155.7245 N   0  0  0  0  0  0  0  0  0  0  0  0
  147.6170  137.3970  155.2245 C   0  0  0  0  0  0  0  0  0  0  0  0
  148.1999  136.2343  155.6219 N   0  0  0  0  0  0  0  0  0  0  0  0
  147.7791  135.0632  155.1364 C   0  0  0  0  0  0  0  0  0  0  0  0
  146.8019  134.8267  154.2601 N   0  0  0  0  0  0  0  0  0  0  0  0
  146.2021  135.9848  153.8638 C   0  0  0  0  0  0  0  0  0  0  0  0
  146.5439  137.3004  154.2900 C   0  0  0  0  0  0  0  0  0  0  0  0
  145.7056  138.2239  153.6746 N   0  0  0  0  0  0  0  0  0  0  0  0
  144.9247  137.4990  152.9222 C   0  0  0  0  0  0  0  0  0  0  0  0
  145.1445  136.1417  152.9840 N   0  0  0  0  0  0  0  0  0  0  0  0
  144.4194  135.1088  152.2581 C   0  0  0  0  0  0  0  0  0  0  0  0
  145.0713  134.7051  150.9071 C   0  0  0  0  0  0  0  0  0  0  0  0
  145.1750  135.8743  150.1154 O   0  0  0  0  0  0  0  0  0  0  0  0
  146.4992  134.1575  151.1018 C   0  0  0  0  0  0  0  0  0  0  0  0
  146.4865  132.7272  151.6710 C   0  0  0  0  0  0  0  0  0  0  0  0
  145.7185  131.8733  150.8297 O   0  0  0  0  0  0  0  0  0  0  0  0
  144.3547  132.2680  150.7298 C   0  0  0  0  0  0  0  0  0  0  0  0
  144.2599  133.6690  150.1000 C   0  0  0  0  0  0  0  0  0  0  0  0
  149.4065  138.6104  156.3358 C   0  0  0  0  0  0  0  0  0  0  0  0
  149.5362  139.6879  157.4220 C   0  0  0  0  0  0  0  0  0  0  0  0
  150.0064  140.9443  156.8461 N   0  0  0  0  0  0  0  0  0  0  0  0
  150.5075  141.7849  157.9234 C   0  0  1  0  0  0  0  0  0  0  0  0
  151.9172  141.5319  158.4086 C   0  0  0  0  0  0  0  0  0  0  0  0
  151.6123  142.7659  157.5920 C   0  0  2  0  0  0  0  0  0  0  0  0
  151.6415  144.1377  158.2301 C   0  0  0  0  0  0  0  0  0  0  0  0
  148.9165  141.6656  156.1903 C   0  0  0  0  0  0  0  0  0  0  0  0
  146.7837  142.4200  154.5812 H   0  0  0  0  0  0  0  0  0  0  0  0
  147.2533  141.5211  153.1402 H   0  0  0  0  0  0  0  0  0  0  0  0
  148.2935  142.7957  153.7539 H   0  0  0  0  0  0  0  0  0  0  0  0
  149.1978  140.5776  154.3324 H   0  0  0  0  0  0  0  0  0  0  0  0
  146.7009  140.1170  156.0528 H   0  0  0  0  0  0  0  0  0  0  0  0
  146.8170  139.5775  154.3975 H   0  0  0  0  0  0  0  0  0  0  0  0
  148.3011  134.1910  155.5017 H   0  0  0  0  0  0  0  0  0  0  0  0
  144.1559  137.9373  152.3023 H   0  0  0  0  0  0  0  0  0  0  0  0
  144.3400  134.2366  152.9087 H   0  0  0  0  0  0  0  0  0  0  0  0
  143.3983  135.4584  152.1072 H   0  0  0  0  0  0  0  0  0  0  0  0
  145.5946  135.6464  149.3001 H   0  0  0  0  0  0  0  0  0  0  0  0
  147.0178  134.1369  150.1418 H   0  0  0  0  0  0  0  0  0  0  0  0
  147.0805  134.8165  151.7478 H   0  0  0  0  0  0  0  0  0  0  0  0
  147.5042  132.3399  151.7224 H   0  0  0  0  0  0  0  0  0  0  0  0
  146.0926  132.7062  152.6877 H   0  0  0  0  0  0  0  0  0  0  0  0
  143.8259  131.5448  150.1087 H   0  0  0  0  0  0  0  0  0  0  0  0
  143.8856  132.2392  151.7133 H   0  0  0  0  0  0  0  0  0  0  0  0
  143.2178  133.9705  149.9962 H   0  0  0  0  0  0  0  0  0  0  0  0
  144.6549  133.6097  149.0847 H   0  0  0  0  0  0  0  0  0  0  0  0
  149.5902  137.6486  156.8167 H   0  0  0  0  0  0  0  0  0  0  0  0
  150.1755  138.7217  155.5702 H   0  0  0  0  0  0  0  0  0  0  0  0
  148.6161  139.8144  157.9953 H   0  0  0  0  0  0  0  0  0  0  0  0
  150.2926  139.3396  158.1268 H   0  0  0  0  0  0  0  0  0  0  0  0
  149.8080  142.1123  158.6912 H   0  0  0  0  0  0  0  0  0  0  0  0
  152.1096  141.6604  159.4718 H   0  0  0  0  0  0  0  0  0  0  0  0
  152.4879  140.7403  157.9262 H   0  0  0  0  0  0  0  0  0  0  0  0
  151.9756  142.7562  156.5659 H   0  0  0  0  0  0  0  0  0  0  0  0
  151.2714  144.0967  159.2552 H   0  0  0  0  0  0  0  0  0  0  0  0
  151.0161  144.8270  157.6626 H   0  0  0  0  0  0  0  0  0  0  0  0
  152.6613  144.5226  158.2438 H   0  0  0  0  0  0  0  0  0  0  0  0
  149.3089  142.6387  155.8914 H   0  0  0  0  0  0  0  0  0  0  0  0
  148.1102  141.8675  156.8975 H   0  0  0  0  0  0  0  0  0  0  0  0
  1  2  1  0  0  0  0
  1 30  1  0  0  0  0
  1 31  1  0  0  0  0
  1 32  1  0  0  0  0
  2 29  1  0  0  0  0
  2  3  1  0  0  0  0
  2 33  1  0  0  0  0
  3  4  1  0  0  0  0
  3 34  1  0  0  0  0
  3 35  1  0  0  0  0
  4  5  1  0  0  0  0
  4 22  1  0  0  0  0
  5 10  1  0  0  0  0
  5  6  2  0  0  0  0
  6  7  1  0  0  0  0
  7  8  2  0  0  0  0
  7 36  1  0  0  0  0
  8  9  1  0  0  0  0
  9 13  1  0  0  0  0
  9 10  2  0  0  0  0
 10 11  1  0  0  0  0
 11 12  2  0  0  0  0
 12 13  1  0  0  0  0
 12 37  1  0  0  0  0
 13 14  1  0  0  0  0
 14 15  1  0  0  0  0
 14 38  1  0  0  0  0
 14 39  1  0  0  0  0
 15 21  1  0  0  0  0
 15 16  1  0  0  0  0
 15 17  1  0  0  0  0
 16 40  1  0  0  0  0
 17 18  1  0  0  0  0
 17 41  1  0  0  0  0
 17 42  1  0  0  0  0
 18 19  1  0  0  0  0
 18 43  1  0  0  0  0
 18 44  1  0  0  0  0
 19 20  1  0  0  0  0
 20 21  1  0  0  0  0
 20 45  1  0  0  0  0
 20 46  1  0  0  0  0
 21 47  1  0  0  0  0
 21 48  1  0  0  0  0
 22 23  1  0  0  0  0
 22 49  1  0  0  0  0
 22 50  1  0  0  0  0
 23 24  1  0  0  0  0
 23 51  1  0  0  0  0
 23 52  1  0  0  0  0
 24 25  1  0  0  0  0
 24 29  1  0  0  0  0
 25 27  1  0  0  0  0
 25 26  1  0  0  0  0
 25 53  1  0  0  0  0
 26 27  1  0  0  0  0
 26 54  1  0  0  0  0
 26 55  1  0  0  0  0
 27 28  1  0  0  0  0
 27 56  1  0  0  0  0
 28 57  1  0  0  0  0
 28 58  1  0  0  0  0
 28 59  1  0  0  0  0
 29 60  1  0  0  0  0
 29 61  1  0  0  0  0
M  END
> <s_m_source_file>
AV-unprocessed.smi

> <i_m_source_file_index>
193

> <i_lp_mmshare_version>
43012

> <i_f3d_flags>
0

> <s_epik_input>
W0NIM11bQ0BASF0xW0NIMl1bQ0BIXTFOKFtDSDJdMilbQ0gyXVtDSDJdTihbQ0gyXVtDQEhdMltDSDNdKWMobltjSF1uMyljKGMzNCluW2NIXW40W0NIMl1DNShbT0hdKVtDSDJdW0NIMl1PW0NIMl1bQ0gyXTU=

> <s_epik_cmdline>
J2VwaWtfcHl0aG9uJywgJy1waCcsICc3LjAnLCAnLXRuJywgJzgnLCAnLW1hJywgJzIwMCcsICctbWV0YWxfYmluZGluZycsICctaW1hZScsICc8aW5maWxlLm1hZT4nLCAnLW9tYWUnLCAnPG91dGZpbGUubWFlPic=

> <r_lp_tautomer_probability>
1

> <r_epik_Ionization_Penalty>
1.45227

> <r_epik_Ionization_Penalty_Charging>
0

> <r_epik_Ionization_Penalty_Neutral>
1.45227

> <r_epik_State_Penalty>
2.02377

> <r_epik_Charging_Adjusted_Penalty>
2.02377

> <i_epik_Tot_Q>
0

> <i_epik_Tot_abs_Q>
0

> <r_epik_Metal_State_Penalty>
2.01937

> <b_epik_Metal_Only>
0

> <s_lp_Force_Field>
OPLS_2005

> <r_lp_Energy>
49.0818

> <b_lp_Chiralities_Consistent>
1

> <s_lp_Variant>
AV-unprocessed.smi:193-23

> <Gold.Version>
5.8.1

> <Gold.Id.Protein>
6NUR|6NUR_protein|mol2

> <Gold.PLP.Fitness>
44.2497

> <Gold.PLP.PLP>
-36.6135

> <Gold.PLP.part.hbond>
-2.0000

> <Gold.PLP.part.metal>
0.0000

> <Gold.PLP.part.buried>
-6.4740

> <Gold.PLP.part.nonpolar>
-28.1019

> <Gold.PLP.part.repulsive>
0.4589

> <Gold.PLP.ligand.clash>
0.0000

> <Gold.PLP.ligand.torsion>
1.0292

> <Gold.PLP.Chemscore.Hbond>
1.0000

> <Gold.PLP.Chemscore.CHOScore>
1.8118

> <Gold.PLP.Chemscore.Metal>
0.0000

> <Gold.Chemscore.Hbonds>
donor molecule, donor type, donor heavy atom, donor atom, acceptor molecule, acceptor atom, score
      L1  H    16    40       P1  7921  1.00
      L1  C    12    37       P1 10171  0.87
      L1  C    12    37       P1 10175  0.77

> <Gold.PLP.Chemscore.Internal.Correction>
1.2593

> <Gold.Rescore>
     Score         DG    S(hbond)    S(metal)    S(lipo)     H(rot)  DE(clash)    DE(int)     intcor
     13.21     -15.66       1.00        0.00     100.21       1.91       0.07       2.38       ----

> <Gold.Chemscore.Fitness>
13.2096

> <Gold.Chemscore.DG>
-15.6628

> <Gold.Chemscore.ZeroCoef>
-5.4800

> <Gold.Chemscore.Hbond>
1.0000

> <Gold.Chemscore.Metal>
0.0000

> <Gold.Chemscore.Lipo>
100.2065

> <Gold.Chemscore.Internal_Hbond>
0.0000

> <Gold.Chemscore.DEClash>
0.0714

> <Gold.Chemscore.DEInternal>
2.3818

> <Gold.Chemscore.Rot>
1.9068

> <Gold.Chemscore.Internal.Correction>
   9.000000E+99

> <Gold.Chemscore.Hbonds>
donor molecule, donor type, donor heavy atom, donor atom, acceptor molecule, acceptor atom, score
      L1  H    16    40       P1  7921  1.00

> <Gold.Chemscore.Hbond.Weighted>
-3.3400

> <Gold.Chemscore.Metal.Weighted>
-0.0000

> <Gold.Chemscore.Lipo.Weighted>
-11.7242

> <Gold.Chemscore.Internal_Hbond.Weighted>
0.0000

> <Gold.Chemscore.DEClash.Weighted>
0.0714

> <Gold.Chemscore.DEInternal.Weighted>
2.3818

> <Gold.Chemscore.Rot.Weighted>
4.8814

> <Gold.Chemscore.Internal.Correction.Weighted>
   9.000000E+99

> <Gold.Protein.RotatedTorsions>
[ 6907 6896 6895 6894 ] final    5.97 input  -60.11 | X-H torsion
[ 7974 7965 7964 7962 ] final   87.27 input  175.53 | X-H torsion
[ 8008 7997 7996 7995 ] final -119.20 input   59.86 | X-H torsion
[ 10167 10162 10161 10158 ] final -114.65 input  -65.29 | X-H torsion
[ 10718 10713 10712 10709 ] final  -71.69 input   66.30 | X-H torsion
[ 10763 10752 10751 10750 ] final  -53.79 input  -60.55 | X-H torsion
[ 11005 11000 10999 10996 ] final   80.08 input  -57.11 | X-H torsion

> <Gold.Protein.ActiveResidues>
 VAL166  LYS551  ARG553  GLY616  TRP617  ASP618  TYR619  PRO620  LYS621  CYS622 
 ASP623  PHE694  ASN695  SER759  ASP760  ASP761  ALA762  ILE779  LEU786  VAL792 
 PHE793  MET794  SER795  GLU796  ALA797  LYS798  CYS799  TRP800  GLU811  SER814 

> <Gold.Protein.RotatedAtoms>
  151.6661  135.0982  160.0188 H   0  0  0  0  0  0  0  0  0  0  0  0  # atno 6907 bound_to 6896
  152.3918  133.6686  159.6252 H   0  0  0  0  0  0  0  0  0  0  0  0  # atno 6908 bound_to 6896
  150.7832  133.8858  159.3340 H   0  0  0  0  0  0  0  0  0  0  0  0  # atno 6909 bound_to 6896
  145.5613  139.2304  143.2458 H   0  0  0  0  0  0  0  0  0  0  0  0  # atno 7974 bound_to 7965
  155.1119  140.0397  157.2726 H   0  0  0  0  0  0  0  0  0  0  0  0  # atno 8008 bound_to 7997
  154.6679  140.2605  155.7013 H   0  0  0  0  0  0  0  0  0  0  0  0  # atno 8009 bound_to 7997
  156.2646  140.2803  156.1177 H   0  0  0  0  0  0  0  0  0  0  0  0  # atno 8010 bound_to 7997
  140.0987  143.4633  152.1825 H   0  0  0  0  0  0  0  0  0  0  0  0  # atno 10167 bound_to 10162
  156.0352  130.4356  150.2482 H   0  0  0  0  0  0  0  0  0  0  0  0  # atno 10718 bound_to 10713
  154.1645  135.6469  153.4994 H   0  0  0  0  0  0  0  0  0  0  0  0  # atno 10763 bound_to 10752
  153.0101  135.5368  154.6676 H   0  0  0  0  0  0  0  0  0  0  0  0  # atno 10764 bound_to 10752
  154.5999  135.2942  155.0518 H   0  0  0  0  0  0  0  0  0  0  0  0  # atno 10765 bound_to 10752
  139.9148  134.7892  156.1862 H   0  0  0  0  0  0  0  0  0  0  0  0  # atno 11005 bound_to 11000
  146.1849  140.6437  142.9172 LP  0  0  0  0  0  0  0  0  0  0  0  0  # atno 17320 bound_to 7965
  144.7482  140.5122  143.6821 LP  0  0  0  0  0  0  0  0  0  0  0  0  # atno 17321 bound_to 7965
  139.5683  144.7448  151.3960 LP  0  0  0  0  0  0  0  0  0  0  0  0  # atno 17342 bound_to 10162
  140.6989  143.7680  150.7371 LP  0  0  0  0  0  0  0  0  0  0  0  0  # atno 17343 bound_to 10162
  157.0582  131.0082  151.3231 LP  0  0  0  0  0  0  0  0  0  0  0  0  # atno 17370 bound_to 10713
  157.5090  130.7927  149.7685 LP  0  0  0  0  0  0  0  0  0  0  0  0  # atno 17371 bound_to 10713
  141.0612  133.6841  156.1955 LP  0  0  0  0  0  0  0  0  0  0  0  0  # atno 17394 bound_to 11000
  140.6658  134.4919  157.5585 LP  0  0  0  0  0  0  0  0  0  0  0  0  # atno 17395 bound_to 11000

$$$$
