AV-unprocessed.smi:110|AV-procd|sdf|1077|dock7
  -GOLD-   2262018163D 1   1.00000     0.00000
 Structure written by MMmdl.
 46 50  0  0  0  0  0  0  0  0  1 V2000
  145.9505  137.7952  154.3013 O   0  0  0  0  0  0  0  0  0  0  0  0
  147.3507  137.8044  154.1212 C   0  0  0  0  0  0  0  0  0  0  0  0
  147.9717  139.0098  154.8499 C   0  0  1  0  0  0  0  0  0  0  0  0
  149.3861  139.0504  154.6626 O   0  0  0  0  0  0  0  0  0  0  0  0
  149.8547  140.3664  154.6989 C   0  0  2  0  0  0  0  0  0  0  0  0
  150.7898  140.5025  155.8608 N   0  0  0  0  0  0  0  0  0  0  0  0
  151.9356  139.7743  156.0883 C   0  0  0  0  0  0  0  0  0  0  0  0
  152.5859  140.0768  157.1780 N   0  0  0  0  0  0  0  0  0  0  0  0
  151.8211  141.0765  157.7664 C   0  0  0  0  0  0  0  0  0  0  0  0
  151.9400  141.8553  158.9533 C   0  0  0  0  0  0  0  0  0  0  0  0
  152.9541  141.7537  159.8433 N   0  0  0  0  0  0  0  0  0  0  0  0
  153.8425  140.5852  159.7570 C   0  0  0  0  0  0  0  0  0  0  0  0
  154.5180  140.4064  161.1300 C   0  0  0  0  0  0  0  0  0  0  0  0
  153.9686  141.5804  161.8732 C   0  0  0  0  0  0  0  0  0  0  0  0
  154.2668  141.9718  163.1899 C   0  0  0  0  0  0  0  0  0  0  0  0
  153.6460  143.1346  163.6945 C   0  0  0  0  0  0  0  0  0  0  0  0
  152.7578  143.8799  162.8845 C   0  0  0  0  0  0  0  0  0  0  0  0
  152.4746  143.4683  161.5636 C   0  0  0  0  0  0  0  0  0  0  0  0
  153.0835  142.2951  161.0726 C   0  0  0  0  0  0  0  0  0  0  0  0
  150.9977  142.8046  159.1812 N   0  0  0  0  0  0  0  0  0  0  0  0
  149.9824  142.9587  158.3279 C   0  0  0  0  0  0  0  0  0  0  0  0
  149.7364  142.2955  157.1973 N   0  0  0  0  0  0  0  0  0  0  0  0
  150.6928  141.3568  156.9431 C   0  0  0  0  0  0  0  0  0  0  0  0
  148.6385  141.2939  154.8354 C   0  0  1  0  0  0  0  0  0  0  0  0
  148.7326  142.4678  154.0500 O   0  0  0  0  0  0  0  0  0  0  0  0
  147.5035  140.3891  154.3680 C   0  0  1  0  0  0  0  0  0  0  0  0
  147.3488  140.3998  152.9572 O   0  0  0  0  0  0  0  0  0  0  0  0
  147.7563  138.9396  155.9160 H   0  0  0  0  0  0  0  0  0  0  0  0
  150.4606  140.5625  153.8132 H   0  0  0  0  0  0  0  0  0  0  0  0
  148.4859  141.5629  155.8808 H   0  0  0  0  0  0  0  0  0  0  0  0
  146.5515  140.6731  154.8177 H   0  0  0  0  0  0  0  0  0  0  0  0
  145.7474  138.2576  155.1000 H   0  0  0  0  0  0  0  0  0  0  0  0
  147.7825  136.8644  154.4661 H   0  0  0  0  0  0  0  0  0  0  0  0
  147.5392  137.8760  153.0497 H   0  0  0  0  0  0  0  0  0  0  0  0
  152.2832  139.0081  155.4104 H   0  0  0  0  0  0  0  0  0  0  0  0
  153.2776  139.6923  159.4851 H   0  0  0  0  0  0  0  0  0  0  0  0
  154.5895  140.7551  158.9811 H   0  0  0  0  0  0  0  0  0  0  0  0
  154.2241  139.4745  161.6134 H   0  0  0  0  0  0  0  0  0  0  0  0
  155.6051  140.4553  161.0652 H   0  0  0  0  0  0  0  0  0  0  0  0
  154.9543  141.4014  163.7970 H   0  0  0  0  0  0  0  0  0  0  0  0
  153.8559  143.4610  164.7025 H   0  0  0  0  0  0  0  0  0  0  0  0
  152.2953  144.7732  163.2773 H   0  0  0  0  0  0  0  0  0  0  0  0
  151.8052  144.0481  160.9453 H   0  0  0  0  0  0  0  0  0  0  0  0
  149.2659  143.7243  158.5865 H   0  0  0  0  0  0  0  0  0  0  0  0
  148.8110  143.2096  154.6305 H   0  0  0  0  0  0  0  0  0  0  0  0
  148.2070  140.3400  152.5651 H   0  0  0  0  0  0  0  0  0  0  0  0
  1  2  1  0  0  0  0
  1 32  1  0  0  0  0
  2  3  1  0  0  0  0
  2 33  1  0  0  0  0
  2 34  1  0  0  0  0
  3 28  1  0  0  0  0
  3 26  1  0  0  0  0
  3  4  1  0  0  0  0
  4  5  1  0  0  0  0
  5 29  1  0  0  0  0
  5  6  1  0  0  0  0
  5 24  1  0  0  0  0
  6 23  1  0  0  0  0
  6  7  1  0  0  0  0
  7  8  2  0  0  0  0
  7 35  1  0  0  0  0
  8  9  1  0  0  0  0
  9 23  2  0  0  0  0
  9 10  1  0  0  0  0
 10 11  1  0  0  0  0
 10 20  2  0  0  0  0
 11 19  1  0  0  0  0
 11 12  1  0  0  0  0
 12 13  1  0  0  0  0
 12 36  1  0  0  0  0
 12 37  1  0  0  0  0
 13 14  1  0  0  0  0
 13 38  1  0  0  0  0
 13 39  1  0  0  0  0
 14 19  2  0  0  0  0
 14 15  1  0  0  0  0
 15 16  2  0  0  0  0
 15 40  1  0  0  0  0
 16 17  1  0  0  0  0
 16 41  1  0  0  0  0
 17 18  2  0  0  0  0
 17 42  1  0  0  0  0
 18 19  1  0  0  0  0
 18 43  1  0  0  0  0
 20 21  1  0  0  0  0
 21 22  2  0  0  0  0
 21 44  1  0  0  0  0
 22 23  1  0  0  0  0
 24 30  1  0  0  0  0
 24 25  1  0  0  0  0
 24 26  1  0  0  0  0
 25 45  1  0  0  0  0
 26 31  1  0  0  0  0
 26 27  1  0  0  0  0
 27 46  1  0  0  0  0
M  END
> <s_m_source_file>
AV-unprocessed.smi

> <i_m_source_file_index>
110

> <i_lp_mmshare_version>
43012

> <i_f3d_flags>
0

> <s_epik_input>
W09IXVtDSDJdW0NASF0xT1tDQEhdKFtDQEhdKFtPSF0pW0NAQEhdMVtPSF0pbihbY0hdbjIpYyhjMjMpbltjSF1uYzNOKFtDSDJdW0NIMl00KWMoYzQ1KVtjSF1bY0hdW2NIXVtjSF01

> <s_epik_cmdline>
J2VwaWtfcHl0aG9uJywgJy1waCcsICc3LjAnLCAnLXRuJywgJzgnLCAnLW1hJywgJzIwMCcsICctbWV0YWxfYmluZGluZycsICctaW1hZScsICc8aW5maWxlLm1hZT4nLCAnLW9tYWUnLCAnPG91dGZpbGUubWFlPic=

> <r_lp_tautomer_probability>
1

> <r_epik_Ionization_Penalty>
0.00068475

> <r_epik_Ionization_Penalty_Charging>
0

> <r_epik_Ionization_Penalty_Neutral>
0.00068475

> <r_epik_State_Penalty>
0.000417442

> <r_epik_Charging_Adjusted_Penalty>
0.000417442

> <i_epik_Tot_Q>
0

> <i_epik_Tot_abs_Q>
0

> <r_epik_Metal_State_Penalty>
-0

> <b_epik_Metal_Only>
0

> <s_epik_Chemistry_Notes>
This compound contains an acetal/aminal-like group ( X-CH(R)-Y where X, Y are N, S, or O) that may be acid/base labile, releasing an aldehyde.

> <s_lp_Force_Field>
OPLS_2005

> <r_lp_Energy>
64.5887

> <b_lp_Chiralities_Consistent>
1

> <s_lp_Variant>
AV-unprocessed.smi:110-15

> <Gold.Version>
5.8.1

> <Gold.Id.Protein>
6NUR|6NUR_protein|mol2

> <Gold.PLP.Fitness>
62.2330

> <Gold.PLP.PLP>
-52.6484

> <Gold.PLP.part.hbond>
-4.2542

> <Gold.PLP.part.metal>
0.0000

> <Gold.PLP.part.buried>
-0.0214

> <Gold.PLP.part.nonpolar>
-46.6622

> <Gold.PLP.part.repulsive>
1.3627

> <Gold.PLP.ligand.clash>
0.0000

> <Gold.PLP.ligand.torsion>
0.0777

> <Gold.PLP.Chemscore.Hbond>
3.1280

> <Gold.PLP.Chemscore.CHOScore>
0.0736

> <Gold.PLP.Chemscore.Metal>
0.0000

> <Gold.Chemscore.Hbonds>
donor molecule, donor type, donor heavy atom, donor atom, acceptor molecule, acceptor atom, score
      L1  H    25    45       P1  8028  1.00
      L1  H    27    46       P1  7957  1.00
      P1  H  7997  8008       L1     8  1.00
      P1  H  8011  8017       L1    25  0.16
      L1  C    21    44       P1  8029  0.03

> <Gold.PLP.Chemscore.Internal.Correction>
0.1352

> <Gold.Rescore>
     Score         DG    S(hbond)    S(metal)    S(lipo)     H(rot)  DE(clash)    DE(int)     intcor
     14.42     -19.63       3.05        0.00     107.81       3.38       1.13       4.08       ----

> <Gold.Chemscore.Fitness>
14.4199

> <Gold.Chemscore.DG>
-19.6265

> <Gold.Chemscore.ZeroCoef>
-5.4800

> <Gold.Chemscore.Hbond>
3.0525

> <Gold.Chemscore.Metal>
0.0000

> <Gold.Chemscore.Lipo>
107.8066

> <Gold.Chemscore.Internal_Hbond>
0.0000

> <Gold.Chemscore.DEClash>
1.1254

> <Gold.Chemscore.DEInternal>
4.0812

> <Gold.Chemscore.Rot>
3.3837

> <Gold.Chemscore.Internal.Correction>
   9.000000E+99

> <Gold.Chemscore.Hbonds>
donor molecule, donor type, donor heavy atom, donor atom, acceptor molecule, acceptor atom, score
      L1  H    25    45       P1  8028  1.00
      L1  H    27    46       P1  7957  0.96
      P1  H  7997  8008       L1     8  0.34
      P1  H  8011  8017       L1    25  0.15

> <Gold.Chemscore.Hbond.Weighted>
-10.1953

> <Gold.Chemscore.Metal.Weighted>
-0.0000

> <Gold.Chemscore.Lipo.Weighted>
-12.6134

> <Gold.Chemscore.Internal_Hbond.Weighted>
0.0000

> <Gold.Chemscore.DEClash.Weighted>
1.1254

> <Gold.Chemscore.DEInternal.Weighted>
4.0812

> <Gold.Chemscore.Rot.Weighted>
8.6622

> <Gold.Chemscore.Internal.Correction.Weighted>
   9.000000E+99

> <Gold.Protein.RotatedTorsions>
[ 6907 6896 6895 6894 ] final  -64.83 input  -60.11 | X-H torsion
[ 7974 7965 7964 7962 ] final  178.07 input  175.53 | X-H torsion
[ 8008 7997 7996 7995 ] final  -56.86 input   59.86 | X-H torsion
[ 10167 10162 10161 10158 ] final -102.86 input  -65.29 | X-H torsion
[ 10718 10713 10712 10709 ] final -165.31 input   66.30 | X-H torsion
[ 10763 10752 10751 10750 ] final  -42.73 input  -60.55 | X-H torsion
[ 11005 11000 10999 10996 ] final  101.15 input  -57.11 | X-H torsion

> <Gold.Protein.ActiveResidues>
 VAL166  LYS551  ARG553  GLY616  TRP617  ASP618  TYR619  PRO620  LYS621  CYS622 
 ASP623  PHE694  ASN695  SER759  ASP760  ASP761  ALA762  ILE779  LEU786  VAL792 
 PHE793  MET794  SER795  GLU796  ALA797  LYS798  CYS799  TRP800  GLU811  SER814 

> <Gold.Protein.RotatedAtoms>
  150.7561  134.6245  159.6153 H   0  0  0  0  0  0  0  0  0  0  0  0  # atno 6907 bound_to 6896
  152.3541  134.6961  160.0236 H   0  0  0  0  0  0  0  0  0  0  0  0  # atno 6908 bound_to 6896
  151.7373  133.3284  159.3392 H   0  0  0  0  0  0  0  0  0  0  0  0  # atno 6909 bound_to 6896
  144.7161  140.0342  143.6438 H   0  0  0  0  0  0  0  0  0  0  0  0  # atno 7974 bound_to 7965
  154.4246  140.1120  156.5705 H   0  0  0  0  0  0  0  0  0  0  0  0  # atno 8008 bound_to 7997
  155.6217  140.3495  155.4635 H   0  0  0  0  0  0  0  0  0  0  0  0  # atno 8009 bound_to 7997
  156.0019  140.1201  157.0529 H   0  0  0  0  0  0  0  0  0  0  0  0  # atno 8010 bound_to 7997
  140.2262  143.3640  152.0927 H   0  0  0  0  0  0  0  0  0  0  0  0  # atno 10167 bound_to 10162
  156.6516  130.9009  151.3014 H   0  0  0  0  0  0  0  0  0  0  0  0  # atno 10718 bound_to 10713
  153.9839  135.6713  153.4751 H   0  0  0  0  0  0  0  0  0  0  0  0  # atno 10763 bound_to 10752
  153.0735  135.4961  154.8352 H   0  0  0  0  0  0  0  0  0  0  0  0  # atno 10764 bound_to 10752
  154.7148  135.3105  154.9102 H   0  0  0  0  0  0  0  0  0  0  0  0  # atno 10765 bound_to 10752
  139.8772  134.9171  156.4864 H   0  0  0  0  0  0  0  0  0  0  0  0  # atno 11005 bound_to 11000
  146.0077  139.3143  143.0889 LP  0  0  0  0  0  0  0  0  0  0  0  0  # atno 17320 bound_to 7965
  145.8719  140.9415  143.0646 LP  0  0  0  0  0  0  0  0  0  0  0  0  # atno 17321 bound_to 7965
  139.5126  144.6920  151.5734 LP  0  0  0  0  0  0  0  0  0  0  0  0  # atno 17342 bound_to 10162
  140.6219  143.9242  150.6533 LP  0  0  0  0  0  0  0  0  0  0  0  0  # atno 17343 bound_to 10162
  157.7139  130.9473  150.1185 LP  0  0  0  0  0  0  0  0  0  0  0  0  # atno 17370 bound_to 10713
  156.2080  130.3664  149.8705 LP  0  0  0  0  0  0  0  0  0  0  0  0  # atno 17371 bound_to 10713
  140.8690  133.8002  155.9345 LP  0  0  0  0  0  0  0  0  0  0  0  0  # atno 17394 bound_to 11000
  140.8972  134.2423  157.5062 LP  0  0  0  0  0  0  0  0  0  0  0  0  # atno 17395 bound_to 11000

$$$$
