AV-unprocessed.smi:1821|AV-procd|sdf|7386|dock1
  -GOLD-   22720 9 53D 1   1.00000     0.00000
 Structure written by MMmdl.
 35 37  0  0  0  0  0  0  0  0  1 V2000
  150.6803  145.2935  159.1616 C   0  0  0  0  0  0  0  0  0  0  0  0
  151.5238  144.2495  159.8217 C   0  0  0  0  0  0  0  0  0  0  0  0
  151.9438  144.3677  161.0816 N   0  0  0  0  0  0  0  0  0  0  0  0
  152.6698  143.2073  161.2688 C   0  0  0  0  0  0  0  0  0  0  0  0
  153.3730  142.7357  162.4004 C   0  0  0  0  0  0  0  0  0  0  0  0
  154.0517  141.5001  162.3554 C   0  0  0  0  0  0  0  0  0  0  0  0
  154.0369  140.7196  161.1810 C   0  0  0  0  0  0  0  0  0  0  0  0
  153.3415  141.1703  160.0425 C   0  0  0  0  0  0  0  0  0  0  0  0
  152.6661  142.4044  160.0930 C   0  0  0  0  0  0  0  0  0  0  0  0
  151.9074  143.1215  159.1739 N   0  0  0  0  0  0  0  0  0  0  0  0
  151.6045  142.7165  157.8079 C   0  0  0  0  0  0  0  0  0  0  0  0
  150.3999  141.7568  157.7260 C   0  0  2  0  0  0  0  0  0  0  0  0
  150.2281  141.0765  158.9551 O   0  0  0  0  0  0  0  0  0  0  0  0
  150.5281  140.8023  156.5436 C   0  0  0  0  0  0  0  0  0  0  0  0
  149.5785  140.8182  155.4936 C   0  0  0  0  0  0  0  0  0  0  0  0
  148.5339  141.6805  155.5214 F   0  0  0  0  0  0  0  0  0  0  0  0
  149.7053  139.9312  154.4073 C   0  0  0  0  0  0  0  0  0  0  0  0
  150.7742  139.0175  154.3611 C   0  0  0  0  0  0  0  0  0  0  0  0
  151.7161  138.9882  155.4058 C   0  0  0  0  0  0  0  0  0  0  0  0
  151.5945  139.8740  156.4941 C   0  0  0  0  0  0  0  0  0  0  0  0
  152.5094  139.8223  157.4921 F   0  0  0  0  0  0  0  0  0  0  0  0
  150.5637  146.1597  159.8137 H   0  0  0  0  0  0  0  0  0  0  0  0
  149.6905  144.8932  158.9411 H   0  0  0  0  0  0  0  0  0  0  0  0
  151.1429  145.6251  158.2320 H   0  0  0  0  0  0  0  0  0  0  0  0
  153.3900  143.3257  163.3048 H   0  0  0  0  0  0  0  0  0  0  0  0
  154.5856  141.1495  163.2265 H   0  0  0  0  0  0  0  0  0  0  0  0
  154.5595  139.7746  161.1549 H   0  0  0  0  0  0  0  0  0  0  0  0
  153.3276  140.5755  159.1414 H   0  0  0  0  0  0  0  0  0  0  0  0
  151.3971  143.6186  157.2307 H   0  0  0  0  0  0  0  0  0  0  0  0
  152.4885  142.2673  157.3562 H   0  0  0  0  0  0  0  0  0  0  0  0
  149.4966  142.3528  157.5956 H   0  0  0  0  0  0  0  0  0  0  0  0
  150.6928  140.2549  158.9112 H   0  0  0  0  0  0  0  0  0  0  0  0
  148.9786  139.9508  153.6084 H   0  0  0  0  0  0  0  0  0  0  0  0
  150.8692  138.3376  153.5275 H   0  0  0  0  0  0  0  0  0  0  0  0
  152.5340  138.2835  155.3733 H   0  0  0  0  0  0  0  0  0  0  0  0
  1  2  1  0  0  0  0
  1 22  1  0  0  0  0
  1 23  1  0  0  0  0
  1 24  1  0  0  0  0
  2 10  1  0  0  0  0
  2  3  2  0  0  0  0
  3  4  1  0  0  0  0
  4  9  2  0  0  0  0
  4  5  1  0  0  0  0
  5  6  2  0  0  0  0
  5 25  1  0  0  0  0
  6  7  1  0  0  0  0
  6 26  1  0  0  0  0
  7  8  2  0  0  0  0
  7 27  1  0  0  0  0
  8  9  1  0  0  0  0
  8 28  1  0  0  0  0
  9 10  1  0  0  0  0
 10 11  1  0  0  0  0
 11 12  1  0  0  0  0
 11 29  1  0  0  0  0
 11 30  1  0  0  0  0
 12 13  1  0  0  0  0
 12 14  1  0  0  0  0
 12 31  1  0  0  0  0
 13 32  1  0  0  0  0
 14 20  1  0  0  0  0
 14 15  2  0  0  0  0
 15 16  1  0  0  0  0
 15 17  1  0  0  0  0
 17 18  2  0  0  0  0
 17 33  1  0  0  0  0
 18 19  1  0  0  0  0
 18 34  1  0  0  0  0
 19 20  2  0  0  0  0
 19 35  1  0  0  0  0
 20 21  1  0  0  0  0
M  END
> <s_m_source_file>
AV-unprocessed.smi

> <i_m_source_file_index>
1821

> <i_lp_mmshare_version>
43012

> <i_f3d_flags>
0

> <s_epik_input>
W2NIXTFbY0hdW2NIXVtjSF1jKGMxMiluKGMobjIpW0NIM10pW0NIMl1bQ0BIXShbT0hdKWMzYyhGKVtjSF1bY0hdW2NIXWMzRg==

> <s_epik_cmdline>
J2VwaWtfcHl0aG9uJywgJy1waCcsICc3LjAnLCAnLXRuJywgJzgnLCAnLW1hJywgJzIwMCcsICctbWV0YWxfYmluZGluZycsICctaW1hZScsICc8aW5maWxlLm1hZT4nLCAnLW9tYWUnLCAnPG91dGZpbGUubWFlPic=

> <r_epik_Ionization_Penalty>
0.129663

> <r_epik_Ionization_Penalty_Charging>
0

> <r_epik_Ionization_Penalty_Neutral>
0.129663

> <r_epik_State_Penalty>
0.119073

> <r_epik_Charging_Adjusted_Penalty>
0.119073

> <i_epik_Tot_Q>
0

> <i_epik_Tot_abs_Q>
0

> <r_epik_Metal_State_Penalty>
0.000131867

> <b_epik_Metal_Only>
0

> <s_lp_Force_Field>
OPLS_2005

> <r_lp_Energy>
13.297

> <b_lp_Chiralities_Consistent>
1

> <s_lp_Variant>
AV-unprocessed.smi:1821-1

> <Gold.Version>
5.8.1

> <Gold.Id.Protein>
6NUR|6NUR_protein|mol2

> <Gold.PLP.Fitness>
47.2923

> <Gold.PLP.PLP>
-48.8090

> <Gold.PLP.part.hbond>
-1.0000

> <Gold.PLP.part.metal>
0.0000

> <Gold.PLP.part.buried>
-0.2749

> <Gold.PLP.part.nonpolar>
-46.5147

> <Gold.PLP.part.repulsive>
0.1541

> <Gold.PLP.ligand.clash>
0.0000

> <Gold.PLP.ligand.torsion>
0.7755

> <Gold.PLP.Chemscore.Hbond>
0.0000

> <Gold.PLP.Chemscore.CHOScore>
0.0000

> <Gold.PLP.Chemscore.Metal>
0.0000

> <Gold.PLP.Chemscore.Internal.Correction>
0.0342

> <Gold.Rescore>
     Score         DG    S(hbond)    S(metal)    S(lipo)     H(rot)  DE(clash)    DE(int)     intcor
     11.84     -15.83       0.00        0.00     129.67       1.88       1.05       2.94       ----

> <Gold.Chemscore.Fitness>
11.8404

> <Gold.Chemscore.DG>
-15.8284

> <Gold.Chemscore.ZeroCoef>
-5.4800

> <Gold.Chemscore.Hbond>
0.0000

> <Gold.Chemscore.Metal>
0.0000

> <Gold.Chemscore.Lipo>
129.6681

> <Gold.Chemscore.Internal_Hbond>
0.0000

> <Gold.Chemscore.DEClash>
1.0512

> <Gold.Chemscore.DEInternal>
2.9369

> <Gold.Chemscore.Rot>
1.8839

> <Gold.Chemscore.Internal.Correction>
   9.000000E+99

> <Gold.Chemscore.Hbond.Weighted>
-0.0000

> <Gold.Chemscore.Metal.Weighted>
-0.0000

> <Gold.Chemscore.Lipo.Weighted>
-15.1712

> <Gold.Chemscore.Internal_Hbond.Weighted>
0.0000

> <Gold.Chemscore.DEClash.Weighted>
1.0512

> <Gold.Chemscore.DEInternal.Weighted>
2.9369

> <Gold.Chemscore.Rot.Weighted>
4.8227

> <Gold.Chemscore.Internal.Correction.Weighted>
   9.000000E+99

> <Gold.Protein.RotatedTorsions>
[ 6907 6896 6895 6894 ] final -108.30 input  -60.11 | X-H torsion
[ 7974 7965 7964 7962 ] final   61.72 input  175.53 | X-H torsion
[ 8008 7997 7996 7995 ] final -177.98 input   59.86 | X-H torsion
[ 10167 10162 10161 10158 ] final -139.73 input  -65.29 | X-H torsion
[ 10718 10713 10712 10709 ] final   20.48 input   66.30 | X-H torsion
[ 10763 10752 10751 10750 ] final  -68.02 input  -60.55 | X-H torsion
[ 11005 11000 10999 10996 ] final  168.15 input  -57.11 | X-H torsion

> <Gold.Protein.ActiveResidues>
 VAL166  LYS551  ARG553  GLY616  TRP617  ASP618  TYR619  PRO620  LYS621  CYS622 
 ASP623  PHE694  ASN695  SER759  ASP760  ASP761  ALA762  ILE779  LEU786  VAL792 
 PHE793  MET794  SER795  GLU796  ALA797  LYS798  CYS799  TRP800  GLU811  SER814 

> <Gold.Protein.RotatedAtoms>
  150.7494  133.9698  159.3541 H   0  0  0  0  0  0  0  0  0  0  0  0  # atno 6907 bound_to 6896
  151.7630  135.0803  160.0358 H   0  0  0  0  0  0  0  0  0  0  0  0  # atno 6908 bound_to 6896
  152.3390  133.6008  159.5899 H   0  0  0  0  0  0  0  0  0  0  0  0  # atno 6909 bound_to 6896
  145.8815  139.3447  143.0703 H   0  0  0  0  0  0  0  0  0  0  0  0  # atno 7974 bound_to 7965
  156.0134  140.1245  157.0431 H   0  0  0  0  0  0  0  0  0  0  0  0  # atno 8008 bound_to 7997
  154.4284  140.1083  156.5931 H   0  0  0  0  0  0  0  0  0  0  0  0  # atno 8009 bound_to 7997
  155.6047  140.3471  155.4606 H   0  0  0  0  0  0  0  0  0  0  0  0  # atno 8010 bound_to 7997
  139.8351  143.7396  152.2665 H   0  0  0  0  0  0  0  0  0  0  0  0  # atno 10167 bound_to 10162
  157.1250  130.6566  149.5935 H   0  0  0  0  0  0  0  0  0  0  0  0  # atno 10718 bound_to 10713
  154.3830  135.6070  153.5801 H   0  0  0  0  0  0  0  0  0  0  0  0  # atno 10763 bound_to 10752
  152.9788  135.5865  154.4388 H   0  0  0  0  0  0  0  0  0  0  0  0  # atno 10764 bound_to 10752
  154.4160  135.2845  155.1984 H   0  0  0  0  0  0  0  0  0  0  0  0  # atno 10765 bound_to 10752
  140.2842  134.7726  157.3784 H   0  0  0  0  0  0  0  0  0  0  0  0  # atno 11005 bound_to 11000
  145.9017  140.9238  143.0499 LP  0  0  0  0  0  0  0  0  0  0  0  0  # atno 17320 bound_to 7965
  144.6727  140.1042  143.7459 LP  0  0  0  0  0  0  0  0  0  0  0  0  # atno 17321 bound_to 7965
  139.7615  144.7505  151.0356 LP  0  0  0  0  0  0  0  0  0  0  0  0  # atno 17342 bound_to 10162
  140.7803  143.4745  151.0101 LP  0  0  0  0  0  0  0  0  0  0  0  0  # atno 17343 bound_to 10162
  155.9820  130.4831  150.6858 LP  0  0  0  0  0  0  0  0  0  0  0  0  # atno 17370 bound_to 10713
  157.4443  131.0865  151.0912 LP  0  0  0  0  0  0  0  0  0  0  0  0  # atno 17371 bound_to 10713
  140.1255  134.5163  155.8148 LP  0  0  0  0  0  0  0  0  0  0  0  0  # atno 17394 bound_to 11000
  141.2157  133.6771  156.6944 LP  0  0  0  0  0  0  0  0  0  0  0  0  # atno 17395 bound_to 11000

$$$$
