AV-unprocessed.smi:1961|AV-procd|sdf|7918|dock9
  -GOLD-   2272010 83D 1   1.00000     0.00000
 Structure written by MMmdl.
 36 37  0  0  0  0  0  0  0  0  1 V2000
  142.0022  142.2171  160.5910 C   0  0  0  0  0  0  0  0  0  0  0  0
  142.7742  143.4085  161.1766 C   0  0  0  0  0  0  0  0  0  0  0  0
  142.1073  144.7610  160.8846 C   0  0  0  0  0  0  0  0  0  0  0  0
  144.2188  143.3947  160.7828 C   0  0  0  0  0  0  0  0  0  0  0  0
  145.0366  142.3657  161.0434 N   0  0  0  0  0  0  0  0  0  0  0  0
  146.3259  142.5843  160.5790 N   0  0  0  0  0  0  0  0  0  0  0  0
  146.4453  143.7760  159.9782 C   0  0  0  0  0  0  0  0  0  0  0  0
  147.6544  144.2550  159.4079 N   0  0  0  0  0  0  0  0  0  0  0  0
  148.8727  144.3236  159.9729 C   0  0  0  0  0  0  0  0  0  0  0  0
  149.1449  143.9819  161.1241 O   0  0  0  0  0  0  0  0  0  0  0  0
  149.7773  144.8190  159.1163 N   0  0  0  0  0  0  0  0  0  0  0  0
  151.1920  145.0161  159.4150 C   0  0  0  0  0  0  0  0  0  0  0  0
  151.8635  143.7260  159.9174 C   0  0  2  0  0  0  0  0  0  0  0  0
  153.3292  143.5629  159.5079 C   0  0  0  0  0  0  0  0  0  0  0  0
  153.5213  142.0548  159.4237 C   0  0  0  0  0  0  0  0  0  0  0  0
  152.1093  141.4854  159.5796 C   0  0  0  0  0  0  0  0  0  0  0  0
  151.2486  142.5876  159.3364 O   0  0  0  0  0  0  0  0  0  0  0  0
  144.9781  144.7382  159.9349 S   0  0  0  0  0  0  0  0  0  0  0  0
  142.4567  141.2712  160.8874 H   0  0  0  0  0  0  0  0  0  0  0  0
  141.9852  142.2520  159.5011 H   0  0  0  0  0  0  0  0  0  0  0  0
  140.9689  142.2102  160.9388 H   0  0  0  0  0  0  0  0  0  0  0  0
  142.7506  143.2841  162.2600 H   0  0  0  0  0  0  0  0  0  0  0  0
  142.6331  145.5740  161.3863 H   0  0  0  0  0  0  0  0  0  0  0  0
  141.0737  144.7730  161.2315 H   0  0  0  0  0  0  0  0  0  0  0  0
  142.1007  144.9774  159.8157 H   0  0  0  0  0  0  0  0  0  0  0  0
  147.5856  144.5736  158.4527 H   0  0  0  0  0  0  0  0  0  0  0  0
  149.4686  145.0755  158.1902 H   0  0  0  0  0  0  0  0  0  0  0  0
  151.7113  145.3921  158.5320 H   0  0  0  0  0  0  0  0  0  0  0  0
  151.2717  145.7959  160.1729 H   0  0  0  0  0  0  0  0  0  0  0  0
  151.7718  143.6483  161.0025 H   0  0  0  0  0  0  0  0  0  0  0  0
  153.5032  144.0069  158.5267 H   0  0  0  0  0  0  0  0  0  0  0  0
  154.0100  144.0374  160.2153 H   0  0  0  0  0  0  0  0  0  0  0  0
  153.9511  141.7805  158.4598 H   0  0  0  0  0  0  0  0  0  0  0  0
  154.1840  141.6813  160.2052 H   0  0  0  0  0  0  0  0  0  0  0  0
  151.9086  140.6630  158.8926 H   0  0  0  0  0  0  0  0  0  0  0  0
  151.9506  141.1258  160.5976 H   0  0  0  0  0  0  0  0  0  0  0  0
  1  2  1  0  0  0  0
  1 19  1  0  0  0  0
  1 20  1  0  0  0  0
  1 21  1  0  0  0  0
  2  3  1  0  0  0  0
  2  4  1  0  0  0  0
  2 22  1  0  0  0  0
  3 23  1  0  0  0  0
  3 24  1  0  0  0  0
  3 25  1  0  0  0  0
  4 18  1  0  0  0  0
  4  5  2  0  0  0  0
  5  6  1  0  0  0  0
  6  7  2  0  0  0  0
  7  8  1  0  0  0  0
  7 18  1  0  0  0  0
  8  9  1  0  0  0  0
  8 26  1  0  0  0  0
  9 10  2  0  0  0  0
  9 11  1  0  0  0  0
 11 12  1  0  0  0  0
 11 27  1  0  0  0  0
 12 13  1  0  0  0  0
 12 28  1  0  0  0  0
 12 29  1  0  0  0  0
 13 17  1  0  0  0  0
 13 14  1  0  0  0  0
 13 30  1  0  0  0  0
 14 15  1  0  0  0  0
 14 31  1  0  0  0  0
 14 32  1  0  0  0  0
 15 16  1  0  0  0  0
 15 33  1  0  0  0  0
 15 34  1  0  0  0  0
 16 17  1  0  0  0  0
 16 35  1  0  0  0  0
 16 36  1  0  0  0  0
M  END
> <s_m_source_file>
AV-unprocessed.smi

> <i_m_source_file_index>
1961

> <i_lp_mmshare_version>
43012

> <i_f3d_flags>
0

> <s_epik_input>
W0NIM11bQ0hdKFtDSDNdKWMxbm5jKHMxKVtOSF1DKD1PKVtOSF1bQ0gyXVtDQEBIXTJbQ0gyXVtDSDJdW0NIMl1PMg==

> <s_epik_cmdline>
J2VwaWtfcHl0aG9uJywgJy1waCcsICc3LjAnLCAnLXRuJywgJzgnLCAnLW1hJywgJzIwMCcsICctbWV0YWxfYmluZGluZycsICctaW1hZScsICc8aW5maWxlLm1hZT4nLCAnLW9tYWUnLCAnPG91dGZpbGUubWFlPic=

> <r_lp_tautomer_probability>
1

> <r_epik_Ionization_Penalty>
0.000505257

> <r_epik_Ionization_Penalty_Charging>
0

> <r_epik_Ionization_Penalty_Neutral>
0.000505257

> <r_epik_State_Penalty>
-0

> <r_epik_Charging_Adjusted_Penalty>
0

> <i_epik_Tot_Q>
0

> <i_epik_Tot_abs_Q>
0

> <r_epik_Metal_State_Penalty>
0.219912

> <b_epik_Metal_Only>
0

> <s_lp_Force_Field>
OPLS_2005

> <r_lp_Energy>
10.186

> <b_lp_Chiralities_Consistent>
1

> <s_lp_Variant>
AV-unprocessed.smi:1961-1

> <Gold.Version>
5.8.1

> <Gold.Id.Protein>
6NUR|6NUR_protein|mol2

> <Gold.PLP.Fitness>
41.0091

> <Gold.PLP.PLP>
-33.1079

> <Gold.PLP.part.hbond>
-5.0929

> <Gold.PLP.part.metal>
0.0000

> <Gold.PLP.part.buried>
-6.2776

> <Gold.PLP.part.nonpolar>
-22.8397

> <Gold.PLP.part.repulsive>
0.5475

> <Gold.PLP.ligand.clash>
0.0000

> <Gold.PLP.ligand.torsion>
0.9142

> <Gold.PLP.Chemscore.Hbond>
3.2162

> <Gold.PLP.Chemscore.CHOScore>
0.0000

> <Gold.PLP.Chemscore.Metal>
0.0000

> <Gold.Chemscore.Hbonds>
donor molecule, donor type, donor heavy atom, donor atom, acceptor molecule, acceptor atom, score
      L1  H     8    26       P1  8029  0.94
      L1  H    11    27       P1  8029  0.82
      P1  H  6933  6944       L1    10  0.51
      P1  H  6934  6946       L1     6  0.85

> <Gold.PLP.Chemscore.Internal.Correction>
0.0810

> <Gold.Rescore>
     Score         DG    S(hbond)    S(metal)    S(lipo)     H(rot)  DE(clash)    DE(int)     intcor
     19.25     -20.56       2.79        0.00      80.79       1.45       0.16       1.15       ----

> <Gold.Chemscore.Fitness>
19.2503

> <Gold.Chemscore.DG>
-20.5577

> <Gold.Chemscore.ZeroCoef>
-5.4800

> <Gold.Chemscore.Hbond>
2.7926

> <Gold.Chemscore.Metal>
0.0000

> <Gold.Chemscore.Lipo>
80.7888

> <Gold.Chemscore.Internal_Hbond>
0.0000

> <Gold.Chemscore.DEClash>
0.1604

> <Gold.Chemscore.DEInternal>
1.1470

> <Gold.Chemscore.Rot>
1.4461

> <Gold.Chemscore.Internal.Correction>
   9.000000E+99

> <Gold.Chemscore.Hbonds>
donor molecule, donor type, donor heavy atom, donor atom, acceptor molecule, acceptor atom, score
      L1  H     8    26       P1  8029  0.86
      L1  H    11    27       P1  8029  0.27
      P1  H  6933  6944       L1    10  0.39
      P1  H  6934  6946       L1     6  0.15

> <Gold.Chemscore.Hbond.Weighted>
-9.3273

> <Gold.Chemscore.Metal.Weighted>
-0.0000

> <Gold.Chemscore.Lipo.Weighted>
-9.4523

> <Gold.Chemscore.Internal_Hbond.Weighted>
0.0000

> <Gold.Chemscore.DEClash.Weighted>
0.1604

> <Gold.Chemscore.DEInternal.Weighted>
1.1470

> <Gold.Chemscore.Rot.Weighted>
3.7019

> <Gold.Chemscore.Internal.Correction.Weighted>
   9.000000E+99

> <Gold.Protein.RotatedTorsions>
[ 6907 6896 6895 6894 ] final   51.32 input  -60.11 | X-H torsion
[ 7974 7965 7964 7962 ] final   74.38 input  175.53 | X-H torsion
[ 8008 7997 7996 7995 ] final  -35.42 input   59.86 | X-H torsion
[ 10167 10162 10161 10158 ] final   34.18 input  -65.29 | X-H torsion
[ 10718 10713 10712 10709 ] final -126.20 input   66.30 | X-H torsion
[ 10763 10752 10751 10750 ] final  134.28 input  -60.55 | X-H torsion
[ 11005 11000 10999 10996 ] final   57.26 input  -57.11 | X-H torsion

> <Gold.Protein.ActiveResidues>
 VAL166  LYS551  ARG553  GLY616  TRP617  ASP618  TYR619  PRO620  LYS621  CYS622 
 ASP623  PHE694  ASN695  SER759  ASP760  ASP761  ALA762  ILE779  LEU786  VAL792 
 PHE793  MET794  SER795  GLU796  ALA797  LYS798  CYS799  TRP800  GLU811  SER814 

> <Gold.Protein.RotatedAtoms>
  152.3114  134.7493  160.0335 H   0  0  0  0  0  0  0  0  0  0  0  0  # atno 6907 bound_to 6896
  151.7972  133.3360  159.3524 H   0  0  0  0  0  0  0  0  0  0  0  0  # atno 6908 bound_to 6896
  150.7322  134.5717  159.5938 H   0  0  0  0  0  0  0  0  0  0  0  0  # atno 6909 bound_to 6896
  145.7290  139.2676  143.1552 H   0  0  0  0  0  0  0  0  0  0  0  0  # atno 7974 bound_to 7965
  154.4096  140.1657  156.2209 H   0  0  0  0  0  0  0  0  0  0  0  0  # atno 8008 bound_to 7997
  155.9364  140.3411  155.6268 H   0  0  0  0  0  0  0  0  0  0  0  0  # atno 8009 bound_to 7997
  155.7043  140.0749  157.2388 H   0  0  0  0  0  0  0  0  0  0  0  0  # atno 8010 bound_to 7997
  140.4339  144.1285  150.6163 H   0  0  0  0  0  0  0  0  0  0  0  0  # atno 10167 bound_to 10162
  156.1744  130.6689  151.0223 H   0  0  0  0  0  0  0  0  0  0  0  0  # atno 10718 bound_to 10713
  153.8210  135.3116  155.3410 H   0  0  0  0  0  0  0  0  0  0  0  0  # atno 10763 bound_to 10752
  154.8012  135.4725  154.0284 H   0  0  0  0  0  0  0  0  0  0  0  0  # atno 10764 bound_to 10752
  153.1693  135.6875  153.8720 H   0  0  0  0  0  0  0  0  0  0  0  0  # atno 10765 bound_to 10752
  140.0466  134.5797  155.9315 H   0  0  0  0  0  0  0  0  0  0  0  0  # atno 11005 bound_to 11000
  146.0555  140.8025  142.9760 LP  0  0  0  0  0  0  0  0  0  0  0  0  # atno 17320 bound_to 7965
  144.6897  140.3117  143.7247 LP  0  0  0  0  0  0  0  0  0  0  0  0  # atno 17321 bound_to 7965
  140.4396  143.2532  151.9490 LP  0  0  0  0  0  0  0  0  0  0  0  0  # atno 17342 bound_to 10162
  139.4786  144.5667  151.8153 LP  0  0  0  0  0  0  0  0  0  0  0  0  # atno 17343 bound_to 10162
  157.6825  131.0834  150.7331 LP  0  0  0  0  0  0  0  0  0  0  0  0  # atno 17370 bound_to 10713
  156.7389  130.4733  149.5482 LP  0  0  0  0  0  0  0  0  0  0  0  0  # atno 17371 bound_to 10713
  141.1910  133.6570  156.5435 LP  0  0  0  0  0  0  0  0  0  0  0  0  # atno 17394 bound_to 11000
  140.3984  134.7378  157.4765 LP  0  0  0  0  0  0  0  0  0  0  0  0  # atno 17395 bound_to 11000

$$$$
