AV-unprocessed.smi:2037|AV-procd|sdf|8276|dock6
  -GOLD-   2272010543D 1   1.00000     0.00000
 Structure written by MMmdl.
 39 40  0  0  0  0  0  0  0  0  2 V2000
  144.2764  132.2627  149.8827 C   0  0  0  0  0  0  0  0  0  0  0  0
  145.2223  132.3978  151.0841 C   0  0  2  0  0  0  0  0  0  0  0  0
  146.4871  133.1960  150.7271 C   0  0  0  0  0  0  0  0  0  0  0  0
  147.4401  133.2990  151.9298 C   0  0  0  0  0  0  0  0  0  0  0  0
  147.8077  131.9539  152.4430 N   0  3  1  0  0  0  0  0  0  0  0  0
  148.8247  132.0252  153.5218 C   0  0  0  0  0  0  0  0  0  0  0  0
  148.4939  133.1048  154.5711 C   0  0  0  0  0  0  0  0  0  0  0  0
  149.0881  134.3904  154.2233 N   0  0  0  0  0  0  0  0  0  0  0  0
  149.9560  135.0638  154.9926 C   0  0  0  0  0  0  0  0  0  0  0  0
  150.3380  134.6591  156.0912 O   0  0  0  0  0  0  0  0  0  0  0  0
  150.3379  136.2136  154.4098 N   0  0  0  0  0  0  0  0  0  0  0  0
  151.2271  137.1989  154.9143 C   0  0  0  0  0  0  0  0  0  0  0  0
  152.2284  136.9464  155.7656 N   0  0  0  0  0  0  0  0  0  0  0  0
  152.9398  138.1028  156.0956 C   0  0  0  0  0  0  0  0  0  0  0  0
  152.4621  139.2349  155.4831 C   0  0  0  0  0  0  0  0  0  0  0  0
  151.0916  138.8917  154.4614 S   0  0  0  0  0  0  0  0  0  0  0  0
  146.6021  131.1720  152.8280 C   0  0  0  0  0  0  0  0  0  0  0  0
  145.6331  131.0252  151.6428 C   0  0  0  0  0  0  0  0  0  0  0  0
  144.7531  131.7302  149.0590 H   0  0  0  0  0  0  0  0  0  0  0  0
  143.9698  133.2415  149.5127 H   0  0  0  0  0  0  0  0  0  0  0  0
  143.3731  131.7156  150.1541 H   0  0  0  0  0  0  0  0  0  0  0  0
  144.6888  132.9386  151.8674 H   0  0  0  0  0  0  0  0  0  0  0  0
  147.0036  132.7189  149.8927 H   0  0  0  0  0  0  0  0  0  0  0  0
  146.2143  134.1965  150.3892 H   0  0  0  0  0  0  0  0  0  0  0  0
  148.3387  133.8368  151.6249 H   0  0  0  0  0  0  0  0  0  0  0  0
  146.9777  133.8810  152.7289 H   0  0  0  0  0  0  0  0  0  0  0  0
  148.8746  131.0640  154.0354 H   0  0  0  0  0  0  0  0  0  0  0  0
  149.8096  132.1883  153.0813 H   0  0  0  0  0  0  0  0  0  0  0  0
  147.4178  133.2330  154.6911 H   0  0  0  0  0  0  0  0  0  0  0  0
  148.8808  132.8057  155.5457 H   0  0  0  0  0  0  0  0  0  0  0  0
  148.8273  134.7907  153.3335 H   0  0  0  0  0  0  0  0  0  0  0  0
  149.9466  136.4100  153.5003 H   0  0  0  0  0  0  0  0  0  0  0  0
  153.7749  138.0292  156.7765 H   0  0  0  0  0  0  0  0  0  0  0  0
  152.8318  140.2457  155.5708 H   0  0  0  0  0  0  0  0  0  0  0  0
  146.8859  130.1788  153.1738 H   0  0  0  0  0  0  0  0  0  0  0  0
  146.0995  131.6630  153.6631 H   0  0  0  0  0  0  0  0  0  0  0  0
  144.7487  130.4713  151.9598 H   0  0  0  0  0  0  0  0  0  0  0  0
  146.1045  130.4306  150.8586 H   0  0  0  0  0  0  0  0  0  0  0  0
  148.2421  131.4678  151.6716 H   0  0  0  0  0  0  0  0  0  0  0  0
  1  2  1  0  0  0  0
  1 19  1  0  0  0  0
  1 20  1  0  0  0  0
  1 21  1  0  0  0  0
  2 18  1  0  0  0  0
  2  3  1  0  0  0  0
  2 22  1  0  0  0  0
  3  4  1  0  0  0  0
  3 23  1  0  0  0  0
  3 24  1  0  0  0  0
  4  5  1  0  0  0  0
  4 25  1  0  0  0  0
  4 26  1  0  0  0  0
  5  6  1  0  0  0  0
  5 17  1  0  0  0  0
  5 39  1  0  0  0  0
  6  7  1  0  0  0  0
  6 27  1  0  0  0  0
  6 28  1  0  0  0  0
  7  8  1  0  0  0  0
  7 29  1  0  0  0  0
  7 30  1  0  0  0  0
  8  9  1  0  0  0  0
  8 31  1  0  0  0  0
  9 10  2  0  0  0  0
  9 11  1  0  0  0  0
 11 12  1  0  0  0  0
 11 32  1  0  0  0  0
 12 16  1  0  0  0  0
 12 13  2  0  0  0  0
 13 14  1  0  0  0  0
 14 15  2  0  0  0  0
 14 33  1  0  0  0  0
 15 16  1  0  0  0  0
 15 34  1  0  0  0  0
 17 18  1  0  0  0  0
 17 35  1  0  0  0  0
 17 36  1  0  0  0  0
 18 37  1  0  0  0  0
 18 38  1  0  0  0  0
M  CHG  1   5   1
M  END
> <s_m_source_file>
AV-unprocessed.smi

> <i_m_source_file_index>
2037

> <i_lp_mmshare_version>
43012

> <i_f3d_flags>
0

> <s_epik_input>
W0NIM11bQ0hdMVtDSDJdW0NIMl1OKFtDSDJdW0NIMl0xKVtDSDJdW0NIMl1bTkhdQyg9TylbTkhdYzJuW2NIXVtjSF1zMg==

> <s_epik_cmdline>
J2VwaWtfcHl0aG9uJywgJy1waCcsICc3LjAnLCAnLXRuJywgJzgnLCAnLW1hJywgJzIwMCcsICctbWV0YWxfYmluZGluZycsICctaW1hZScsICc8aW5maWxlLm1hZT4nLCAnLW9tYWUnLCAnPG91dGZpbGUubWFlPic=

> <r_lp_tautomer_probability>
0.999

> <r_epik_Ionization_Penalty>
0.00182893

> <r_epik_Ionization_Penalty_Charging>
0.00168873

> <r_epik_Ionization_Penalty_Neutral>
0.000140204

> <r_epik_State_Penalty>
0.00114045

> <r_epik_Charging_Adjusted_Penalty>
0.00282917

> <i_epik_Tot_Q>
1

> <i_epik_Tot_abs_Q>
1

> <r_epik_Metal_State_Penalty>
0.0569426

> <b_epik_Metal_Only>
0

> <s_lp_Force_Field>
OPLS_2005

> <r_lp_Energy>
13.393

> <b_lp_Chiralities_Consistent>
1

> <s_lp_Variant>
AV-unprocessed.smi:2037-1

> <Gold.Version>
5.8.1

> <Gold.Id.Protein>
6NUR|6NUR_protein|mol2

> <Gold.PLP.Fitness>
48.9037

> <Gold.PLP.PLP>
-38.0760

> <Gold.PLP.part.hbond>
-4.9597

> <Gold.PLP.part.metal>
0.0000

> <Gold.PLP.part.buried>
-4.6689

> <Gold.PLP.part.nonpolar>
-29.8352

> <Gold.PLP.part.repulsive>
0.1257

> <Gold.PLP.ligand.clash>
0.0000

> <Gold.PLP.ligand.torsion>
0.5134

> <Gold.PLP.Chemscore.Hbond>
3.9440

> <Gold.PLP.Chemscore.CHOScore>
0.0000

> <Gold.PLP.Chemscore.Metal>
0.0000

> <Gold.Chemscore.Hbonds>
donor molecule, donor type, donor heavy atom, donor atom, acceptor molecule, acceptor atom, score
      L1  H     5    39       P1 10747  1.00
      L1  H     8    31       P1  7948  1.00
      L1  H    11    32       P1  7948  0.80
      P1  H 10752 10764       L1    13  0.94

> <Gold.PLP.Chemscore.Internal.Correction>
0.0225

> <Gold.Rescore>
     Score         DG    S(hbond)    S(metal)    S(lipo)     H(rot)  DE(clash)    DE(int)     intcor
     19.14     -21.51       3.28        0.00      78.45       1.60       0.00       2.37       ----

> <Gold.Chemscore.Fitness>
19.1420

> <Gold.Chemscore.DG>
-21.5093

> <Gold.Chemscore.ZeroCoef>
-5.4800

> <Gold.Chemscore.Hbond>
3.2776

> <Gold.Chemscore.Metal>
0.0000

> <Gold.Chemscore.Lipo>
78.4490

> <Gold.Chemscore.Internal_Hbond>
0.0000

> <Gold.Chemscore.DEClash>
0.0000

> <Gold.Chemscore.DEInternal>
2.3673

> <Gold.Chemscore.Rot>
1.6001

> <Gold.Chemscore.Internal.Correction>
   9.000000E+99

> <Gold.Chemscore.Hbonds>
donor molecule, donor type, donor heavy atom, donor atom, acceptor molecule, acceptor atom, score
      L1  H     5    39       P1 10747  1.00
      L1  H     8    31       P1  7948  0.27
      L1  H    11    32       P1  7948  0.12
      P1  H 10752 10764       L1    13  0.23

> <Gold.Chemscore.Hbond.Weighted>
-10.9471

> <Gold.Chemscore.Metal.Weighted>
-0.0000

> <Gold.Chemscore.Lipo.Weighted>
-9.1785

> <Gold.Chemscore.Internal_Hbond.Weighted>
0.0000

> <Gold.Chemscore.DEClash.Weighted>
0.0000

> <Gold.Chemscore.DEInternal.Weighted>
2.3673

> <Gold.Chemscore.Rot.Weighted>
4.0963

> <Gold.Chemscore.Internal.Correction.Weighted>
   9.000000E+99

> <Gold.Protein.RotatedTorsions>
[ 6907 6896 6895 6894 ] final  -55.05 input  -60.11 | X-H torsion
[ 7974 7965 7964 7962 ] final  -99.34 input  175.53 | X-H torsion
[ 8008 7997 7996 7995 ] final  136.07 input   59.86 | X-H torsion
[ 10167 10162 10161 10158 ] final   91.37 input  -65.29 | X-H torsion
[ 10718 10713 10712 10709 ] final  -74.10 input   66.30 | X-H torsion
[ 10763 10752 10751 10750 ] final  -42.21 input  -60.55 | X-H torsion
[ 11005 11000 10999 10996 ] final -170.01 input  -57.11 | X-H torsion

> <Gold.Protein.ActiveResidues>
 VAL166  LYS551  ARG553  GLY616  TRP617  ASP618  TYR619  PRO620  LYS621  CYS622 
 ASP623  PHE694  ASN695  SER759  ASP760  ASP761  ALA762  ILE779  LEU786  VAL792 
 PHE793  MET794  SER795  GLU796  ALA797  LYS798  CYS799  TRP800  GLU811  SER814 

> <Gold.Protein.RotatedAtoms>
  150.8285  134.7528  159.6833 H   0  0  0  0  0  0  0  0  0  0  0  0  # atno 6907 bound_to 6896
  152.4393  134.5620  159.9906 H   0  0  0  0  0  0  0  0  0  0  0  0  # atno 6908 bound_to 6896
  151.5787  133.3343  159.3040 H   0  0  0  0  0  0  0  0  0  0  0  0  # atno 6909 bound_to 6896
  145.3088  140.9395  143.2781 H   0  0  0  0  0  0  0  0  0  0  0  0  # atno 7974 bound_to 7965
  156.3004  140.2454  156.3686 H   0  0  0  0  0  0  0  0  0  0  0  0  # atno 8008 bound_to 7997
  154.8810  140.0412  157.1802 H   0  0  0  0  0  0  0  0  0  0  0  0  # atno 8009 bound_to 7997
  154.8696  140.2933  155.5493 H   0  0  0  0  0  0  0  0  0  0  0  0  # atno 8010 bound_to 7997
  139.8381  144.6655  150.9317 H   0  0  0  0  0  0  0  0  0  0  0  0  # atno 10167 bound_to 10162
  156.0255  130.4409  150.2841 H   0  0  0  0  0  0  0  0  0  0  0  0  # atno 10718 bound_to 10713
  153.9753  135.6723  153.4748 H   0  0  0  0  0  0  0  0  0  0  0  0  # atno 10763 bound_to 10752
  153.0774  135.4941  154.8429 H   0  0  0  0  0  0  0  0  0  0  0  0  # atno 10764 bound_to 10752
  154.7196  135.3114  154.9030 H   0  0  0  0  0  0  0  0  0  0  0  0  # atno 10765 bound_to 10752
  140.5243  134.5679  157.5057 H   0  0  0  0  0  0  0  0  0  0  0  0  # atno 11005 bound_to 11000
  144.9033  139.4622  143.6622 LP  0  0  0  0  0  0  0  0  0  0  0  0  # atno 17320 bound_to 7965
  146.3125  139.7799  142.9008 LP  0  0  0  0  0  0  0  0  0  0  0  0  # atno 17321 bound_to 7965
  140.7801  143.3938  151.1264 LP  0  0  0  0  0  0  0  0  0  0  0  0  # atno 17342 bound_to 10162
  139.7587  143.8669  152.3095 LP  0  0  0  0  0  0  0  0  0  0  0  0  # atno 17343 bound_to 10162
  157.0944  131.0178  151.3109 LP  0  0  0  0  0  0  0  0  0  0  0  0  # atno 17370 bound_to 10713
  157.4829  130.7775  149.7431 LP  0  0  0  0  0  0  0  0  0  0  0  0  # atno 17371 bound_to 10713
  139.9589  134.7487  156.0281 LP  0  0  0  0  0  0  0  0  0  0  0  0  # atno 17394 bound_to 11000
  141.1317  133.6585  156.3482 LP  0  0  0  0  0  0  0  0  0  0  0  0  # atno 17395 bound_to 11000

$$$$
