AV-unprocessed.smi:1736|AV-procd|sdf|6990|dock8
  -GOLD-   22720 8203D 1   1.00000     0.00000
 Structure written by MMmdl.
 45 46  0  0  0  0  0  0  0  0  2 V2000
  143.9820  133.4209  150.5956 C   0  0  0  0  0  0  0  0  0  0  0  0
  145.3311  134.0073  150.4227 N   0  3  0  0  0  0  0  0  0  0  0  0
  146.4268  133.0117  150.4434 C   0  0  0  0  0  0  0  0  0  0  0  0
  146.7309  132.5356  151.8778 C   0  0  0  0  0  0  0  0  0  0  0  0
  147.1069  133.6764  152.7299 N   0  0  0  0  0  0  0  0  0  0  0  0
  147.6582  133.3014  154.0607 C   0  0  0  0  0  0  0  0  0  0  0  0
  146.6593  132.3735  154.7980 C   0  0  0  0  0  0  0  0  0  0  0  0
  149.0126  132.5637  153.9346 C   0  0  0  0  0  0  0  0  0  0  0  0
  147.8634  134.5695  154.9419 C   0  0  0  0  0  0  0  0  0  0  0  0
  148.8691  135.4859  154.4033 N   0  0  0  0  0  0  0  0  0  0  0  0
  149.5510  136.4021  155.1054 C   0  0  0  0  0  0  0  0  0  0  0  0
  149.4140  136.5769  156.3159 O   0  0  0  0  0  0  0  0  0  0  0  0
  150.3825  137.0988  154.3144 N   0  0  0  0  0  0  0  0  0  0  0  0
  151.2758  138.1274  154.7044 C   0  0  0  0  0  0  0  0  0  0  0  0
  152.6450  138.3156  154.3530 C   0  0  0  0  0  0  0  0  0  0  0  0
  153.1384  139.4090  154.9173 N   0  0  0  0  0  0  0  0  0  0  0  0
  152.1027  139.9182  155.6214 N   0  0  0  0  0  0  0  0  0  0  0  0
  150.9505  139.1708  155.5185 C   0  0  0  0  0  0  0  0  0  0  0  0
  145.9537  134.5915  152.7722 C   0  0  0  0  0  0  0  0  0  0  0  0
  145.6294  135.1149  151.3585 C   0  0  0  0  0  0  0  0  0  0  0  0
  152.1967  140.7676  156.1598 H   0  0  0  0  0  0  0  0  0  0  0  0
  143.8609  132.9556  151.5739 H   0  0  0  0  0  0  0  0  0  0  0  0
  143.7950  132.6625  149.8346 H   0  0  0  0  0  0  0  0  0  0  0  0
  143.2162  134.1899  150.4892 H   0  0  0  0  0  0  0  0  0  0  0  0
  146.1722  132.1648  149.8051 H   0  0  0  0  0  0  0  0  0  0  0  0
  147.3203  133.4652  150.0117 H   0  0  0  0  0  0  0  0  0  0  0  0
  145.8720  132.0084  152.2930 H   0  0  0  0  0  0  0  0  0  0  0  0
  147.5396  131.8119  151.8089 H   0  0  0  0  0  0  0  0  0  0  0  0
  146.9290  132.2627  155.8490 H   0  0  0  0  0  0  0  0  0  0  0  0
  146.6434  131.3644  154.3868 H   0  0  0  0  0  0  0  0  0  0  0  0
  145.6415  132.7641  154.7664 H   0  0  0  0  0  0  0  0  0  0  0  0
  149.3854  132.2770  154.9185 H   0  0  0  0  0  0  0  0  0  0  0  0
  149.7830  133.1856  153.4793 H   0  0  0  0  0  0  0  0  0  0  0  0
  148.9344  131.6468  153.3512 H   0  0  0  0  0  0  0  0  0  0  0  0
  146.9098  135.0855  155.0689 H   0  0  0  0  0  0  0  0  0  0  0  0
  148.1560  134.3071  155.9578 H   0  0  0  0  0  0  0  0  0  0  0  0
  149.0475  135.4240  153.4121 H   0  0  0  0  0  0  0  0  0  0  0  0
  150.3805  136.8666  153.3322 H   0  0  0  0  0  0  0  0  0  0  0  0
  153.2880  137.7191  153.7230 H   0  0  0  0  0  0  0  0  0  0  0  0
  150.0314  139.4399  156.0178 H   0  0  0  0  0  0  0  0  0  0  0  0
  145.0832  134.0995  153.2061 H   0  0  0  0  0  0  0  0  0  0  0  0
  146.1633  135.4624  153.3894 H   0  0  0  0  0  0  0  0  0  0  0  0
  146.4810  135.6783  150.9735 H   0  0  0  0  0  0  0  0  0  0  0  0
  144.7902  135.8107  151.3911 H   0  0  0  0  0  0  0  0  0  0  0  0
  145.3302  134.4099  149.4963 H   0  0  0  0  0  0  0  0  0  0  0  0
  1  2  1  0  0  0  0
  1 22  1  0  0  0  0
  1 23  1  0  0  0  0
  1 24  1  0  0  0  0
  2 20  1  0  0  0  0
  2  3  1  0  0  0  0
  2 45  1  0  0  0  0
  3  4  1  0  0  0  0
  3 25  1  0  0  0  0
  3 26  1  0  0  0  0
  4  5  1  0  0  0  0
  4 27  1  0  0  0  0
  4 28  1  0  0  0  0
  5  6  1  0  0  0  0
  5 19  1  0  0  0  0
  6  7  1  0  0  0  0
  6  8  1  0  0  0  0
  6  9  1  0  0  0  0
  7 29  1  0  0  0  0
  7 30  1  0  0  0  0
  7 31  1  0  0  0  0
  8 32  1  0  0  0  0
  8 33  1  0  0  0  0
  8 34  1  0  0  0  0
  9 10  1  0  0  0  0
  9 35  1  0  0  0  0
  9 36  1  0  0  0  0
 10 11  1  0  0  0  0
 10 37  1  0  0  0  0
 11 12  2  0  0  0  0
 11 13  1  0  0  0  0
 13 14  1  0  0  0  0
 13 38  1  0  0  0  0
 14 18  2  0  0  0  0
 14 15  1  0  0  0  0
 15 16  2  0  0  0  0
 15 39  1  0  0  0  0
 16 17  1  0  0  0  0
 17 21  1  0  0  0  0
 17 18  1  0  0  0  0
 18 40  1  0  0  0  0
 19 20  1  0  0  0  0
 19 41  1  0  0  0  0
 19 42  1  0  0  0  0
 20 43  1  0  0  0  0
 20 44  1  0  0  0  0
M  CHG  1   2   1
M  END
> <s_m_source_file>
AV-unprocessed.smi

> <i_m_source_file_index>
1736

> <i_lp_mmshare_version>
43012

> <i_f3d_flags>
0

> <s_epik_input>
W0NIM11OMVtDSDJdW0NIMl1OKFtDSDJdW0NIMl0xKUMoW0NIM10pKFtDSDNdKVtDSDJdW05IXUMoPU8pW05IXWMyW2NIXW5bbkhdW2NIXTI=

> <s_epik_cmdline>
J2VwaWtfcHl0aG9uJywgJy1waCcsICc3LjAnLCAnLXRuJywgJzgnLCAnLW1hJywgJzIwMCcsICctbWV0YWxfYmluZGluZycsICctaW1hZScsICc8aW5maWxlLm1hZT4nLCAnLW9tYWUnLCAnPG91dGZpbGUubWFlPic=

> <r_lp_tautomer_probability>
0.5

> <r_epik_Ionization_Penalty>
0.0248316

> <r_epik_Ionization_Penalty_Charging>
0.0238192

> <r_epik_Ionization_Penalty_Neutral>
0.00101244

> <r_epik_State_Penalty>
0.139266

> <r_epik_Charging_Adjusted_Penalty>
0.163085

> <i_epik_Tot_Q>
1

> <i_epik_Tot_abs_Q>
1

> <r_epik_Metal_State_Penalty>
0.139266

> <b_epik_Metal_Only>
0

> <s_lp_Force_Field>
OPLS_2005

> <r_lp_Energy>
29.1357

> <b_lp_Chiralities_Consistent>
1

> <s_lp_Variant>
AV-unprocessed.smi:1736-1

> <Gold.Version>
5.8.1

> <Gold.Id.Protein>
6NUR|6NUR_protein|mol2

> <Gold.PLP.Fitness>
40.5470

> <Gold.PLP.PLP>
-31.6426

> <Gold.PLP.part.hbond>
-5.4045

> <Gold.PLP.part.metal>
0.0000

> <Gold.PLP.part.buried>
-5.4504

> <Gold.PLP.part.nonpolar>
-22.6213

> <Gold.PLP.part.repulsive>
0.4912

> <Gold.PLP.ligand.clash>
0.0000

> <Gold.PLP.ligand.torsion>
0.6850

> <Gold.PLP.Chemscore.Hbond>
3.4134

> <Gold.PLP.Chemscore.CHOScore>
0.0000

> <Gold.PLP.Chemscore.Metal>
0.0000

> <Gold.Chemscore.Hbonds>
donor molecule, donor type, donor heavy atom, donor atom, acceptor molecule, acceptor atom, score
      L1  H     2    45       P1  7921  0.91
      L1  H    10    37       P1  7948  0.96
      L1  H    13    38       P1  7948  0.30
      P1  H  7997  8010       L1    16  1.00

> <Gold.PLP.Chemscore.Internal.Correction>
0.0343

> <Gold.Rescore>
     Score         DG    S(hbond)    S(metal)    S(lipo)     H(rot)  DE(clash)    DE(int)     intcor
     16.91     -18.16       2.62        0.00      69.26       1.63       0.56       0.68       ----

> <Gold.Chemscore.Fitness>
16.9145

> <Gold.Chemscore.DG>
-18.1572

> <Gold.Chemscore.ZeroCoef>
-5.4800

> <Gold.Chemscore.Hbond>
2.6163

> <Gold.Chemscore.Metal>
0.0000

> <Gold.Chemscore.Lipo>
69.2572

> <Gold.Chemscore.Internal_Hbond>
0.0000

> <Gold.Chemscore.DEClash>
0.5619

> <Gold.Chemscore.DEInternal>
0.6808

> <Gold.Chemscore.Rot>
1.6267

> <Gold.Chemscore.Internal.Correction>
   9.000000E+99

> <Gold.Chemscore.Hbonds>
donor molecule, donor type, donor heavy atom, donor atom, acceptor molecule, acceptor atom, score
      L1  H     2    45       P1  7921  0.83
      L1  H    10    37       P1  7948  0.51
      L1  H    13    38       P1  7948  0.01
      P1  H  7997  8010       L1    16  0.44

> <Gold.Chemscore.Hbond.Weighted>
-8.7385

> <Gold.Chemscore.Metal.Weighted>
-0.0000

> <Gold.Chemscore.Lipo.Weighted>
-8.1031

> <Gold.Chemscore.Internal_Hbond.Weighted>
0.0000

> <Gold.Chemscore.DEClash.Weighted>
0.5619

> <Gold.Chemscore.DEInternal.Weighted>
0.6808

> <Gold.Chemscore.Rot.Weighted>
4.1645

> <Gold.Chemscore.Internal.Correction.Weighted>
   9.000000E+99

> <Gold.Protein.RotatedTorsions>
[ 6907 6896 6895 6894 ] final  -48.60 input  -60.11 | X-H torsion
[ 7974 7965 7964 7962 ] final  150.28 input  175.53 | X-H torsion
[ 8008 7997 7996 7995 ] final  121.97 input   59.86 | X-H torsion
[ 10167 10162 10161 10158 ] final   90.05 input  -65.29 | X-H torsion
[ 10718 10713 10712 10709 ] final  125.76 input   66.30 | X-H torsion
[ 10763 10752 10751 10750 ] final   10.89 input  -60.55 | X-H torsion
[ 11005 11000 10999 10996 ] final   64.84 input  -57.11 | X-H torsion

> <Gold.Protein.ActiveResidues>
 VAL166  LYS551  ARG553  GLY616  TRP617  ASP618  TYR619  PRO620  LYS621  CYS622 
 ASP623  PHE694  ASN695  SER759  ASP760  ASP761  ALA762  ILE779  LEU786  VAL792 
 PHE793  MET794  SER795  GLU796  ALA797  LYS798  CYS799  TRP800  GLU811  SER814 

> <Gold.Protein.RotatedAtoms>
  150.8889  134.8290  159.7278 H   0  0  0  0  0  0  0  0  0  0  0  0  # atno 6907 bound_to 6896
  152.4824  134.4680  159.9636 H   0  0  0  0  0  0  0  0  0  0  0  0  # atno 6908 bound_to 6896
  151.4745  133.3522  159.2864 H   0  0  0  0  0  0  0  0  0  0  0  0  # atno 6909 bound_to 6896
  144.8376  139.6388  143.6031 H   0  0  0  0  0  0  0  0  0  0  0  0  # atno 7974 bound_to 7965
  156.2708  140.2796  156.1393 H   0  0  0  0  0  0  0  0  0  0  0  0  # atno 8008 bound_to 7997
  155.0971  140.0389  157.2703 H   0  0  0  0  0  0  0  0  0  0  0  0  # atno 8009 bound_to 7997
  154.6844  140.2615  155.6881 H   0  0  0  0  0  0  0  0  0  0  0  0  # atno 8010 bound_to 7997
  139.8512  144.6592  150.9168 H   0  0  0  0  0  0  0  0  0  0  0  0  # atno 10167 bound_to 10162
  157.5476  131.1095  150.8755 H   0  0  0  0  0  0  0  0  0  0  0  0  # atno 10718 bound_to 10713
  153.1984  135.6852  153.8263 H   0  0  0  0  0  0  0  0  0  0  0  0  # atno 10763 bound_to 10752
  153.7537  135.3220  155.3326 H   0  0  0  0  0  0  0  0  0  0  0  0  # atno 10764 bound_to 10752
  154.8157  135.4687  154.0739 H   0  0  0  0  0  0  0  0  0  0  0  0  # atno 10765 bound_to 10752
  139.9933  134.6557  156.0054 H   0  0  0  0  0  0  0  0  0  0  0  0  # atno 11005 bound_to 11000
  146.2672  139.6549  142.9321 LP  0  0  0  0  0  0  0  0  0  0  0  0  # atno 17320 bound_to 7965
  145.4762  141.0437  143.2671 LP  0  0  0  0  0  0  0  0  0  0  0  0  # atno 17321 bound_to 7965
  140.7787  143.3826  151.1450 LP  0  0  0  0  0  0  0  0  0  0  0  0  # atno 17342 bound_to 10162
  139.7464  143.8846  152.3064 LP  0  0  0  0  0  0  0  0  0  0  0  0  # atno 17343 bound_to 10162
  156.9289  130.5342  149.5279 LP  0  0  0  0  0  0  0  0  0  0  0  0  # atno 17370 bound_to 10713
  156.0549  130.5612  150.9070 LP  0  0  0  0  0  0  0  0  0  0  0  0  # atno 17371 bound_to 10713
  141.1583  133.6541  156.4235 LP  0  0  0  0  0  0  0  0  0  0  0  0  # atno 17394 bound_to 11000
  140.4867  134.6614  157.5194 LP  0  0  0  0  0  0  0  0  0  0  0  0  # atno 17395 bound_to 11000

$$$$
