AV-unprocessed.smi:278|AV-procd|sdf|2087|dock8
  -GOLD-   2262021363D 1   1.00000     0.00000
 Structure written by MMmdl.
 50 54  0  0  0  0  0  0  0  0  1 V2000
  152.7215  140.7890  159.7362 O   0  0  0  0  0  0  0  0  0  0  0  0
  152.0563  142.0988  159.8136 S   0  0  0  0  0  0  0  0  0  0  0  0
  151.6262  142.6475  161.1086 O   0  0  0  0  0  0  0  0  0  0  0  0
  153.0907  143.3460  158.9531 C   0  0  0  0  0  0  0  0  0  0  0  0
  152.1863  144.0025  157.9018 C   0  0  0  0  0  0  0  0  0  0  0  0
  151.1244  142.9859  157.4443 C   0  0  1  0  0  0  0  0  0  0  0  0
  151.6598  141.9128  156.4904 C   0  0  0  0  0  0  0  0  0  0  0  0
  150.8310  140.7412  156.7355 N   0  0  0  0  0  0  0  0  0  0  0  0
  151.0846  139.5543  156.1242 C   0  0  0  0  0  0  0  0  0  0  0  0
  151.5926  139.5684  154.8628 N   0  0  0  0  0  0  0  0  0  0  0  0
  151.8520  138.4262  154.2205 C   0  0  0  0  0  0  0  0  0  0  0  0
  151.6756  137.1739  154.6429 N   0  0  0  0  0  0  0  0  0  0  0  0
  151.1581  137.1476  155.9040 C   0  0  0  0  0  0  0  0  0  0  0  0
  150.8343  138.2773  156.7102 C   0  0  0  0  0  0  0  0  0  0  0  0
  150.3184  137.8454  157.9283 N   0  0  0  0  0  0  0  0  0  0  0  0
  150.3492  136.5433  157.8514 C   0  0  0  0  0  0  0  0  0  0  0  0
  150.8376  136.0400  156.6687 N   0  0  0  0  0  0  0  0  0  0  0  0
  150.9797  134.6386  156.3159 C   0  0  0  0  0  0  0  0  0  0  0  0
  149.7455  133.8036  156.7090 C   0  0  2  0  0  0  0  0  0  0  0  0
  149.8444  133.3594  158.0486 O   0  0  0  0  0  0  0  0  0  0  0  0
  149.5051  132.6127  155.7590 C   0  0  2  0  0  0  0  0  0  0  0  0
  150.6990  131.6889  155.5039 C   0  0  0  0  0  0  0  0  0  0  0  0
  150.3029  131.0561  154.1886 C   0  0  0  0  0  0  0  0  0  0  0  0
  149.6470  132.2285  153.4624 C   0  0  0  0  0  0  0  0  0  0  0  0
  149.0510  133.0352  154.4753 O   0  0  0  0  0  0  0  0  0  0  0  0
  150.2496  140.7979  158.0698 C   0  0  0  0  0  0  0  0  0  0  0  0
  150.6338  142.1703  158.6426 C   0  0  1  0  0  0  0  0  0  0  0  0
  150.2825  143.4915  156.9693 H   0  0  0  0  0  0  0  0  0  0  0  0
  149.8007  142.6536  159.1536 H   0  0  0  0  0  0  0  0  0  0  0  0
  153.4977  144.0585  159.6706 H   0  0  0  0  0  0  0  0  0  0  0  0
  153.9202  142.8224  158.4775 H   0  0  0  0  0  0  0  0  0  0  0  0
  151.6773  144.8504  158.3613 H   0  0  0  0  0  0  0  0  0  0  0  0
  152.7621  144.3969  157.0640 H   0  0  0  0  0  0  0  0  0  0  0  0
  151.5981  142.2375  155.4511 H   0  0  0  0  0  0  0  0  0  0  0  0
  152.6997  141.6690  156.7115 H   0  0  0  0  0  0  0  0  0  0  0  0
  152.2583  138.5312  153.2254 H   0  0  0  0  0  0  0  0  0  0  0  0
  150.0133  135.9102  158.6599 H   0  0  0  0  0  0  0  0  0  0  0  0
  151.1495  134.5737  155.2405 H   0  0  0  0  0  0  0  0  0  0  0  0
  151.8780  134.2487  156.7959 H   0  0  0  0  0  0  0  0  0  0  0  0
  148.8662  134.4473  156.6635 H   0  0  0  0  0  0  0  0  0  0  0  0
  148.9719  133.2969  158.4068 H   0  0  0  0  0  0  0  0  0  0  0  0
  148.6992  132.0042  156.1729 H   0  0  0  0  0  0  0  0  0  0  0  0
  151.6243  132.2508  155.3735 H   0  0  0  0  0  0  0  0  0  0  0  0
  150.8513  130.9610  156.3012 H   0  0  0  0  0  0  0  0  0  0  0  0
  151.1467  130.6342  153.6423 H   0  0  0  0  0  0  0  0  0  0  0  0
  149.5736  130.2630  154.3589 H   0  0  0  0  0  0  0  0  0  0  0  0
  150.4011  132.8243  152.9468 H   0  0  0  0  0  0  0  0  0  0  0  0
  148.9113  131.9038  152.7264 H   0  0  0  0  0  0  0  0  0  0  0  0
  149.1661  140.7222  157.9765 H   0  0  0  0  0  0  0  0  0  0  0  0
  150.5870  139.9791  158.7051 H   0  0  0  0  0  0  0  0  0  0  0  0
  1  2  2  0  0  0  0
  2 27  1  0  0  0  0
  2  3  2  0  0  0  0
  2  4  1  0  0  0  0
  4  5  1  0  0  0  0
  4 30  1  0  0  0  0
  4 31  1  0  0  0  0
  5  6  1  0  0  0  0
  5 32  1  0  0  0  0
  5 33  1  0  0  0  0
  6 28  1  0  0  0  0
  6 27  1  0  0  0  0
  6  7  1  0  0  0  0
  7  8  1  0  0  0  0
  7 34  1  0  0  0  0
  7 35  1  0  0  0  0
  8  9  1  0  0  0  0
  8 26  1  0  0  0  0
  9 14  1  0  0  0  0
  9 10  2  0  0  0  0
 10 11  1  0  0  0  0
 11 12  2  0  0  0  0
 11 36  1  0  0  0  0
 12 13  1  0  0  0  0
 13 17  1  0  0  0  0
 13 14  2  0  0  0  0
 14 15  1  0  0  0  0
 15 16  2  0  0  0  0
 16 17  1  0  0  0  0
 16 37  1  0  0  0  0
 17 18  1  0  0  0  0
 18 19  1  0  0  0  0
 18 38  1  0  0  0  0
 18 39  1  0  0  0  0
 19 20  1  0  0  0  0
 19 21  1  0  0  0  0
 19 40  1  0  0  0  0
 20 41  1  0  0  0  0
 21 25  1  0  0  0  0
 21 22  1  0  0  0  0
 21 42  1  0  0  0  0
 22 23  1  0  0  0  0
 22 43  1  0  0  0  0
 22 44  1  0  0  0  0
 23 24  1  0  0  0  0
 23 45  1  0  0  0  0
 23 46  1  0  0  0  0
 24 25  1  0  0  0  0
 24 47  1  0  0  0  0
 24 48  1  0  0  0  0
 26 27  1  0  0  0  0
 26 49  1  0  0  0  0
 26 50  1  0  0  0  0
 27 29  1  0  0  0  0
M  END
> <s_m_source_file>
AV-unprocessed.smi

> <i_m_source_file_index>
278

> <i_lp_mmshare_version>
43012

> <i_f3d_flags>
0

> <s_epik_input>
W0NIMl0xW0NIMl1TKD1PKSg9TylbQ0BASF0oW0NAQEhdMTIpW0NIMl1OKFtDSDJdMiljKG5bY0hdbjMpYyhjMzQpbltjSF1uNFtDSDJdW0NASF0oW09IXSlbQ0BASF01W0NIMl1bQ0gyXVtDSDJdTzU=

> <s_epik_cmdline>
J2VwaWtfcHl0aG9uJywgJy1waCcsICc3LjAnLCAnLXRuJywgJzgnLCAnLW1hJywgJzIwMCcsICctbWV0YWxfYmluZGluZycsICctaW1hZScsICc8aW5maWxlLm1hZT4nLCAnLW9tYWUnLCAnPG91dGZpbGUubWFlPic=

> <r_lp_tautomer_probability>
1

> <r_epik_Ionization_Penalty>
0.000636766

> <r_epik_Ionization_Penalty_Charging>
0

> <r_epik_Ionization_Penalty_Neutral>
0.000636766

> <r_epik_State_Penalty>
0.000329976

> <r_epik_Charging_Adjusted_Penalty>
0.000329976

> <i_epik_Tot_Q>
0

> <i_epik_Tot_abs_Q>
0

> <r_epik_Metal_State_Penalty>
-0

> <b_epik_Metal_Only>
0

> <s_lp_Force_Field>
OPLS_2005

> <r_lp_Energy>
50.3002

> <b_lp_Chiralities_Consistent>
1

> <s_lp_Variant>
AV-unprocessed.smi:278-1

> <Gold.Version>
5.8.1

> <Gold.Id.Protein>
6NUR|6NUR_protein|mol2

> <Gold.PLP.Fitness>
46.8776

> <Gold.PLP.PLP>
-39.1637

> <Gold.PLP.part.hbond>
-4.0000

> <Gold.PLP.part.metal>
0.0000

> <Gold.PLP.part.buried>
-8.8102

> <Gold.PLP.part.nonpolar>
-26.5458

> <Gold.PLP.part.repulsive>
0.3214

> <Gold.PLP.ligand.clash>
0.0000

> <Gold.PLP.ligand.torsion>
0.9290

> <Gold.PLP.Chemscore.Hbond>
3.1047

> <Gold.PLP.Chemscore.CHOScore>
0.0000

> <Gold.PLP.Chemscore.Metal>
0.0000

> <Gold.Chemscore.Hbonds>
donor molecule, donor type, donor heavy atom, donor atom, acceptor molecule, acceptor atom, score
      P1  H  6896  6907       L1    20  1.00
      P1  H  6933  6945       L1     3  0.31
      P1  H  7989  7998       L1    10  1.00
      P1  H 10752 10763       L1    12  1.00

> <Gold.PLP.Chemscore.Internal.Correction>
0.2576

> <Gold.Rescore>
     Score         DG    S(hbond)    S(metal)    S(lipo)     H(rot)  DE(clash)    DE(int)     intcor
     15.52     -19.58       2.73        0.00      89.22       2.13       1.96       2.10       ----

> <Gold.Chemscore.Fitness>
15.5169

> <Gold.Chemscore.DG>
-19.5842

> <Gold.Chemscore.ZeroCoef>
-5.4800

> <Gold.Chemscore.Hbond>
2.7336

> <Gold.Chemscore.Metal>
0.0000

> <Gold.Chemscore.Lipo>
89.2173

> <Gold.Chemscore.Internal_Hbond>
0.0000

> <Gold.Chemscore.DEClash>
1.9642

> <Gold.Chemscore.DEInternal>
2.1030

> <Gold.Chemscore.Rot>
2.1346

> <Gold.Chemscore.Internal.Correction>
   9.000000E+99

> <Gold.Chemscore.Hbonds>
donor molecule, donor type, donor heavy atom, donor atom, acceptor molecule, acceptor atom, score
      P1  H  6896  6907       L1    20  0.49
      P1  H  6933  6945       L1     3  0.29
      P1  H  7989  7998       L1    10  0.39
      P1  H 10752 10763       L1    12  0.79

> <Gold.Chemscore.Hbond.Weighted>
-9.1304

> <Gold.Chemscore.Metal.Weighted>
-0.0000

> <Gold.Chemscore.Lipo.Weighted>
-10.4384

> <Gold.Chemscore.Internal_Hbond.Weighted>
0.0000

> <Gold.Chemscore.DEClash.Weighted>
1.9642

> <Gold.Chemscore.DEInternal.Weighted>
2.1030

> <Gold.Chemscore.Rot.Weighted>
5.4646

> <Gold.Chemscore.Internal.Correction.Weighted>
   9.000000E+99

> <Gold.Protein.RotatedTorsions>
[ 6907 6896 6895 6894 ] final -114.46 input  -60.11 | X-H torsion
[ 7974 7965 7964 7962 ] final  100.73 input  175.53 | X-H torsion
[ 8008 7997 7996 7995 ] final  151.36 input   59.86 | X-H torsion
[ 10167 10162 10161 10158 ] final -109.13 input  -65.29 | X-H torsion
[ 10718 10713 10712 10709 ] final   69.46 input   66.30 | X-H torsion
[ 10763 10752 10751 10750 ] final   41.36 input  -60.55 | X-H torsion
[ 11005 11000 10999 10996 ] final  140.55 input  -57.11 | X-H torsion

> <Gold.Protein.ActiveResidues>
 VAL166  LYS551  ARG553  GLY616  TRP617  ASP618  TYR619  PRO620  LYS621  CYS622 
 ASP623  PHE694  ASN695  SER759  ASP760  ASP761  ALA762  ILE779  LEU786  VAL792 
 PHE793  MET794  SER795  GLU796  ALA797  LYS798  CYS799  TRP800  GLU811  SER814 

> <Gold.Protein.RotatedAtoms>
  150.7904  133.8797  159.3282 H   0  0  0  0  0  0  0  0  0  0  0  0  # atno 6907 bound_to 6896
  151.6636  135.0984  160.0194 H   0  0  0  0  0  0  0  0  0  0  0  0  # atno 6908 bound_to 6896
  152.3977  133.6732  159.6325 H   0  0  0  0  0  0  0  0  0  0  0  0  # atno 6909 bound_to 6896
  145.3817  139.2378  143.3400 H   0  0  0  0  0  0  0  0  0  0  0  0  # atno 7974 bound_to 7965
  156.2677  140.2050  156.6164 H   0  0  0  0  0  0  0  0  0  0  0  0  # atno 8008 bound_to 7997
  154.6791  140.0542  157.0271 H   0  0  0  0  0  0  0  0  0  0  0  0  # atno 8009 bound_to 7997
  155.1026  140.3207  155.4546 H   0  0  0  0  0  0  0  0  0  0  0  0  # atno 8010 bound_to 7997
  140.1586  143.4139  152.1442 H   0  0  0  0  0  0  0  0  0  0  0  0  # atno 10167 bound_to 10162
  157.6347  130.9427  150.0517 H   0  0  0  0  0  0  0  0  0  0  0  0  # atno 10718 bound_to 10713
  152.9910  135.6164  154.2775 H   0  0  0  0  0  0  0  0  0  0  0  0  # atno 10763 bound_to 10752
  154.2506  135.2785  155.2820 H   0  0  0  0  0  0  0  0  0  0  0  0  # atno 10764 bound_to 10752
  154.5291  135.5793  153.6801 H   0  0  0  0  0  0  0  0  0  0  0  0  # atno 10765 bound_to 10752
  140.0336  134.9340  157.0709 H   0  0  0  0  0  0  0  0  0  0  0  0  # atno 11005 bound_to 11000
  146.2839  140.4485  142.8765 LP  0  0  0  0  0  0  0  0  0  0  0  0  # atno 17320 bound_to 7965
  144.8503  140.6991  143.6172 LP  0  0  0  0  0  0  0  0  0  0  0  0  # atno 17321 bound_to 7965
  139.5392  144.7240  151.4791 LP  0  0  0  0  0  0  0  0  0  0  0  0  # atno 17342 bound_to 10162
  140.6657  143.8402  150.6939 LP  0  0  0  0  0  0  0  0  0  0  0  0  # atno 17343 bound_to 10162
  156.1577  130.3643  149.9345 LP  0  0  0  0  0  0  0  0  0  0  0  0  # atno 17370 bound_to 10713
  156.7351  130.9058  151.3628 LP  0  0  0  0  0  0  0  0  0  0  0  0  # atno 17371 bound_to 10713
  140.4185  134.1905  155.7164 LP  0  0  0  0  0  0  0  0  0  0  0  0  # atno 17394 bound_to 11000
  141.1844  133.8343  157.1139 LP  0  0  0  0  0  0  0  0  0  0  0  0  # atno 17395 bound_to 11000

$$$$
