AV-unprocessed.smi:92|AV-procd|sdf|847|dock5
  -GOLD-   2262017283D 1   1.00000     0.00000
 Structure written by MMmdl.
 61 64  0  0  0  0  0  0  0  0  2 V2000
  149.6451  143.6956  158.7992 C   0  0  0  0  0  0  0  0  0  0  0  0
  150.0615  142.3630  158.1599 C   0  0  0  0  0  0  0  0  0  0  0  0
  149.3381  142.0839  156.8931 N   0  3  2  0  0  0  0  0  0  0  0  0
  147.8698  141.9382  157.0758 C   0  0  0  0  0  0  0  0  0  0  0  0
  147.1386  141.7411  155.7331 C   0  0  0  0  0  0  0  0  0  0  0  0
  147.7449  140.6509  154.8249 C   0  0  2  0  0  0  0  0  0  0  0  0
  147.2333  139.2965  155.1038 N   0  0  0  0  0  0  0  0  0  0  0  0
  147.5419  138.5463  156.3198 C   0  0  0  0  0  0  0  0  0  0  0  0
  146.7950  138.5728  154.0412 C   0  0  0  0  0  0  0  0  0  0  0  0
  146.8962  139.1031  152.7937 N   0  0  0  0  0  0  0  0  0  0  0  0
  146.4510  138.4224  151.7341 C   0  0  0  0  0  0  0  0  0  0  0  0
  145.8860  137.2148  151.6970 N   0  0  0  0  0  0  0  0  0  0  0  0
  145.7957  136.6669  152.9430 C   0  0  0  0  0  0  0  0  0  0  0  0
  146.2231  137.2736  154.1584 C   0  0  0  0  0  0  0  0  0  0  0  0
  145.9811  136.4166  155.2253 N   0  0  0  0  0  0  0  0  0  0  0  0
  145.4318  135.3688  154.6746 C   0  0  0  0  0  0  0  0  0  0  0  0
  145.2828  135.4313  153.3069 N   0  0  0  0  0  0  0  0  0  0  0  0
  144.7050  134.4198  152.4656 C   0  0  0  0  0  0  0  0  0  0  0  0
  145.3177  133.0201  152.3536 C   0  0  0  0  0  0  0  0  0  0  0  0
  144.8762  132.9578  150.8721 C   0  0  0  0  0  0  0  0  0  0  0  0
  145.8809  132.3385  149.8803 C   0  0  0  0  0  0  0  0  0  0  0  0
  146.4923  131.1681  150.3858 O   0  0  0  0  0  0  0  0  0  0  0  0
  143.5242  132.2535  150.6520 C   0  0  0  0  0  0  0  0  0  0  0  0
  143.1659  132.2256  149.2849 O   0  0  0  0  0  0  0  0  0  0  0  0
  144.8142  134.5022  150.9413 C   0  0  0  0  0  0  0  0  0  0  0  0
  149.2877  140.7782  154.7660 C   0  0  2  0  0  0  0  0  0  0  0  0
  149.9702  139.6882  153.9223 C   0  0  0  0  0  0  0  0  0  0  0  0
  149.9206  140.9293  156.1625 C   0  0  0  0  0  0  0  0  0  0  0  0
  150.2691  143.9143  159.6660 H   0  0  0  0  0  0  0  0  0  0  0  0
  148.6114  143.6811  159.1436 H   0  0  0  0  0  0  0  0  0  0  0  0
  149.7565  144.5220  158.0967 H   0  0  0  0  0  0  0  0  0  0  0  0
  151.1319  142.4166  157.9571 H   0  0  0  0  0  0  0  0  0  0  0  0
  149.9224  141.5388  158.8614 H   0  0  0  0  0  0  0  0  0  0  0  0
  147.6632  141.1233  157.7658 H   0  0  0  0  0  0  0  0  0  0  0  0
  147.4673  142.8330  157.5488 H   0  0  0  0  0  0  0  0  0  0  0  0
  146.0781  141.5499  155.9010 H   0  0  0  0  0  0  0  0  0  0  0  0
  147.1833  142.6874  155.1924 H   0  0  0  0  0  0  0  0  0  0  0  0
  147.4160  140.9058  153.8178 H   0  0  0  0  0  0  0  0  0  0  0  0
  146.8560  137.7063  156.4395 H   0  0  0  0  0  0  0  0  0  0  0  0
  147.4412  139.1566  157.2116 H   0  0  0  0  0  0  0  0  0  0  0  0
  148.5552  138.1469  156.2851 H   0  0  0  0  0  0  0  0  0  0  0  0
  146.5621  138.9155  150.7796 H   0  0  0  0  0  0  0  0  0  0  0  0
  145.1185  134.5155  155.2585 H   0  0  0  0  0  0  0  0  0  0  0  0
  143.6560  134.3387  152.7562 H   0  0  0  0  0  0  0  0  0  0  0  0
  146.3991  133.0175  152.4916 H   0  0  0  0  0  0  0  0  0  0  0  0
  144.8506  132.2759  152.9994 H   0  0  0  0  0  0  0  0  0  0  0  0
  145.3910  132.0807  148.9408 H   0  0  0  0  0  0  0  0  0  0  0  0
  146.6768  133.0428  149.6370 H   0  0  0  0  0  0  0  0  0  0  0  0
  147.3819  131.1325  150.0691 H   0  0  0  0  0  0  0  0  0  0  0  0
  143.5499  131.2300  151.0279 H   0  0  0  0  0  0  0  0  0  0  0  0
  142.7237  132.7564  151.1951 H   0  0  0  0  0  0  0  0  0  0  0  0
  142.4589  132.8374  149.1462 H   0  0  0  0  0  0  0  0  0  0  0  0
  143.9464  134.9503  150.4568 H   0  0  0  0  0  0  0  0  0  0  0  0
  145.7314  134.9907  150.6105 H   0  0  0  0  0  0  0  0  0  0  0  0
  149.4881  141.7172  154.2473 H   0  0  0  0  0  0  0  0  0  0  0  0
  149.8993  138.7072  154.3910 H   0  0  0  0  0  0  0  0  0  0  0  0
  151.0293  139.9074  153.7848 H   0  0  0  0  0  0  0  0  0  0  0  0
  149.5188  139.6179  152.9321 H   0  0  0  0  0  0  0  0  0  0  0  0
  150.9932  141.0879  156.0435 H   0  0  0  0  0  0  0  0  0  0  0  0
  149.8078  140.0216  156.7540 H   0  0  0  0  0  0  0  0  0  0  0  0
  149.4817  142.8890  156.3003 H   0  0  0  0  0  0  0  0  0  0  0  0
  1  2  1  0  0  0  0
  1 29  1  0  0  0  0
  1 30  1  0  0  0  0
  1 31  1  0  0  0  0
  2  3  1  0  0  0  0
  2 32  1  0  0  0  0
  2 33  1  0  0  0  0
  3 28  1  0  0  0  0
  3  4  1  0  0  0  0
  3 61  1  0  0  0  0
  4  5  1  0  0  0  0
  4 34  1  0  0  0  0
  4 35  1  0  0  0  0
  5  6  1  0  0  0  0
  5 36  1  0  0  0  0
  5 37  1  0  0  0  0
  6  7  1  0  0  0  0
  6 26  1  0  0  0  0
  6 38  1  0  0  0  0
  7  8  1  0  0  0  0
  7  9  1  0  0  0  0
  8 39  1  0  0  0  0
  8 40  1  0  0  0  0
  8 41  1  0  0  0  0
  9 14  1  0  0  0  0
  9 10  2  0  0  0  0
 10 11  1  0  0  0  0
 11 12  2  0  0  0  0
 11 42  1  0  0  0  0
 12 13  1  0  0  0  0
 13 17  1  0  0  0  0
 13 14  2  0  0  0  0
 14 15  1  0  0  0  0
 15 16  2  0  0  0  0
 16 17  1  0  0  0  0
 16 43  1  0  0  0  0
 17 18  1  0  0  0  0
 18 25  1  0  0  0  0
 18 19  1  0  0  0  0
 18 44  1  0  0  0  0
 19 20  1  0  0  0  0
 19 45  1  0  0  0  0
 19 46  1  0  0  0  0
 20 21  1  0  0  0  0
 20 23  1  0  0  0  0
 20 25  1  0  0  0  0
 21 22  1  0  0  0  0
 21 47  1  0  0  0  0
 21 48  1  0  0  0  0
 22 49  1  0  0  0  0
 23 24  1  0  0  0  0
 23 50  1  0  0  0  0
 23 51  1  0  0  0  0
 24 52  1  0  0  0  0
 25 53  1  0  0  0  0
 25 54  1  0  0  0  0
 26 27  1  0  0  0  0
 26 28  1  0  0  0  0
 26 55  1  0  0  0  0
 27 56  1  0  0  0  0
 27 57  1  0  0  0  0
 27 58  1  0  0  0  0
 28 59  1  0  0  0  0
 28 60  1  0  0  0  0
M  CHG  1   3   1
M  END
> <s_m_source_file>
AV-unprocessed.smi

> <i_m_source_file_index>
92

> <i_lp_mmshare_version>
43012

> <i_f3d_flags>
0

> <s_epik_input>
W0NIM11bQ0gyXU4xW0NIMl1bQ0gyXVtDQEhdKFtDQEBIXShbQ0gzXSlbQ0gyXTEpTihbQ0gzXSljKG5bY0hdbjIpYyhjMjMpbltjSF1uM1tDSF0oW0NIMl00KVtDSDJdQzQoW0NIMl1bT0hdKVtDSDJdW09IXQ==

> <s_epik_cmdline>
J2VwaWtfcHl0aG9uJywgJy1waCcsICc3LjAnLCAnLXRuJywgJzgnLCAnLW1hJywgJzIwMCcsICctbWV0YWxfYmluZGluZycsICctaW1hZScsICc8aW5maWxlLm1hZT4nLCAnLW9tYWUnLCAnPG91dGZpbGUubWFlPic=

> <r_lp_tautomer_probability>
1

> <r_epik_Ionization_Penalty>
0.00235514

> <r_epik_Ionization_Penalty_Charging>
0.00137877

> <r_epik_Ionization_Penalty_Neutral>
0.000976366

> <r_epik_State_Penalty>
-0

> <r_epik_Charging_Adjusted_Penalty>
0.00137877

> <i_epik_Tot_Q>
1

> <i_epik_Tot_abs_Q>
1

> <r_epik_Metal_State_Penalty>
-0

> <b_epik_Metal_Only>
0

> <s_lp_Force_Field>
OPLS_2005

> <r_lp_Energy>
59.507

> <b_lp_Chiralities_Consistent>
1

> <s_lp_Variant>
AV-unprocessed.smi:92-7

> <Gold.Version>
5.8.1

> <Gold.Id.Protein>
6NUR|6NUR_protein|mol2

> <Gold.PLP.Fitness>
48.7245

> <Gold.PLP.PLP>
-36.7616

> <Gold.PLP.part.hbond>
-4.4485

> <Gold.PLP.part.metal>
0.0000

> <Gold.PLP.part.buried>
-4.1558

> <Gold.PLP.part.nonpolar>
-30.1699

> <Gold.PLP.part.repulsive>
0.8741

> <Gold.PLP.ligand.clash>
0.0000

> <Gold.PLP.ligand.torsion>
1.0935

> <Gold.PLP.Chemscore.Hbond>
4.3165

> <Gold.PLP.Chemscore.CHOScore>
0.0647

> <Gold.PLP.Chemscore.Metal>
0.0000

> <Gold.Chemscore.Hbonds>
donor molecule, donor type, donor heavy atom, donor atom, acceptor molecule, acceptor atom, score
      L1  H     3    61       P1  8028  1.98
      L1  H    22    49       P1 10747  1.00
      L1  H    24    52       P1 10186  0.63
      P1  H 10785 10796       L1    24  0.70
      L1  C    11    42       P1 10171  0.08

> <Gold.PLP.Chemscore.Internal.Correction>
1.0062

> <Gold.Rescore>
     Score         DG    S(hbond)    S(metal)    S(lipo)     H(rot)  DE(clash)    DE(int)     intcor
     13.47     -16.98       3.09        0.00      80.63       3.22       0.31       3.20       ----

> <Gold.Chemscore.Fitness>
13.4726

> <Gold.Chemscore.DG>
-16.9798

> <Gold.Chemscore.ZeroCoef>
-5.4800

> <Gold.Chemscore.Hbond>
3.0882

> <Gold.Chemscore.Metal>
0.0000

> <Gold.Chemscore.Lipo>
80.6273

> <Gold.Chemscore.Internal_Hbond>
0.0000

> <Gold.Chemscore.DEClash>
0.3104

> <Gold.Chemscore.DEInternal>
3.1968

> <Gold.Chemscore.Rot>
3.2219

> <Gold.Chemscore.Internal.Correction>
   9.000000E+99

> <Gold.Chemscore.Hbonds>
donor molecule, donor type, donor heavy atom, donor atom, acceptor molecule, acceptor atom, score
      L1  H     3    61       P1  8028  0.87
      L1  H    22    49       P1 10747  0.96
      L1  H    24    52       P1 10186  0.62
      P1  H 10785 10796       L1    24  0.34

> <Gold.Chemscore.Hbond.Weighted>
-10.3146

> <Gold.Chemscore.Metal.Weighted>
-0.0000

> <Gold.Chemscore.Lipo.Weighted>
-9.4334

> <Gold.Chemscore.Internal_Hbond.Weighted>
0.0000

> <Gold.Chemscore.DEClash.Weighted>
0.3104

> <Gold.Chemscore.DEInternal.Weighted>
3.1968

> <Gold.Chemscore.Rot.Weighted>
8.2482

> <Gold.Chemscore.Internal.Correction.Weighted>
   9.000000E+99

> <Gold.Protein.RotatedTorsions>
[ 6907 6896 6895 6894 ] final   57.82 input  -60.11 | X-H torsion
[ 7974 7965 7964 7962 ] final  -89.71 input  175.53 | X-H torsion
[ 8008 7997 7996 7995 ] final   79.78 input   59.86 | X-H torsion
[ 10167 10162 10161 10158 ] final -134.11 input  -65.29 | X-H torsion
[ 10718 10713 10712 10709 ] final -147.48 input   66.30 | X-H torsion
[ 10763 10752 10751 10750 ] final   71.81 input  -60.55 | X-H torsion
[ 11005 11000 10999 10996 ] final -156.00 input  -57.11 | X-H torsion

> <Gold.Protein.ActiveResidues>
 VAL166  LYS551  ARG553  GLY616  TRP617  ASP618  TYR619  PRO620  LYS621  CYS622 
 ASP623  PHE694  ASN695  SER759  ASP760  ASP761  ALA762  ILE779  LEU786  VAL792 
 PHE793  MET794  SER795  GLU796  ALA797  LYS798  CYS799  TRP800  GLU811  SER814 

> <Gold.Protein.RotatedAtoms>
  152.3767  134.6652  160.0157 H   0  0  0  0  0  0  0  0  0  0  0  0  # atno 6907 bound_to 6896
  151.6928  133.3305  159.3255 H   0  0  0  0  0  0  0  0  0  0  0  0  # atno 6908 bound_to 6896
  150.7715  134.6619  159.6389 H   0  0  0  0  0  0  0  0  0  0  0  0  # atno 6909 bound_to 6896
  145.4362  140.9557  143.2100 H   0  0  0  0  0  0  0  0  0  0  0  0  # atno 7974 bound_to 7965
  155.8744  140.3447  155.5844 H   0  0  0  0  0  0  0  0  0  0  0  0  # atno 8008 bound_to 7997
  155.7791  140.0856  157.2088 H   0  0  0  0  0  0  0  0  0  0  0  0  # atno 8009 bound_to 7997
  154.4019  140.1504  156.3018 H   0  0  0  0  0  0  0  0  0  0  0  0  # atno 8010 bound_to 7997
  139.8914  143.6717  152.2611 H   0  0  0  0  0  0  0  0  0  0  0  0  # atno 10167 bound_to 10162
  156.4080  130.7967  151.2183 H   0  0  0  0  0  0  0  0  0  0  0  0  # atno 10718 bound_to 10713
  153.0421  135.5123  154.7650 H   0  0  0  0  0  0  0  0  0  0  0  0  # atno 10763 bound_to 10752
  154.6579  135.2934  154.9907 H   0  0  0  0  0  0  0  0  0  0  0  0  # atno 10764 bound_to 10752
  154.0768  135.6669  153.4884 H   0  0  0  0  0  0  0  0  0  0  0  0  # atno 10765 bound_to 10752
  140.6803  134.4152  157.5227 H   0  0  0  0  0  0  0  0  0  0  0  0  # atno 11005 bound_to 11000
  144.8151  139.5892  143.7012 LP  0  0  0  0  0  0  0  0  0  0  0  0  # atno 17320 bound_to 7965
  146.2581  139.6347  142.9381 LP  0  0  0  0  0  0  0  0  0  0  0  0  # atno 17321 bound_to 7965
  139.7106  144.7621  151.1119 LP  0  0  0  0  0  0  0  0  0  0  0  0  # atno 17342 bound_to 10162
  140.7725  143.5336  150.9394 LP  0  0  0  0  0  0  0  0  0  0  0  0  # atno 17343 bound_to 10162
  157.7506  131.0266  150.3970 LP  0  0  0  0  0  0  0  0  0  0  0  0  # atno 17370 bound_to 10713
  156.4263  130.3963  149.6791 LP  0  0  0  0  0  0  0  0  0  0  0  0  # atno 17371 bound_to 10713
  139.8954  134.8684  156.2135 LP  0  0  0  0  0  0  0  0  0  0  0  0  # atno 17394 bound_to 11000
  141.0323  133.6982  156.1451 LP  0  0  0  0  0  0  0  0  0  0  0  0  # atno 17395 bound_to 11000

$$$$
