AV-unprocessed.smi:2775|AV-procd|sdf|10693|dock6
  -GOLD-   2272015133D 1   1.00000     0.00000
 Structure written by MMmdl.
 42 45  0  0  0  0  0  0  0  0  1 V2000
  147.0977  129.8712  152.4250 C   0  0  0  0  0  0  0  0  0  0  0  0
  148.0395  130.6789  153.2981 C   0  0  0  0  0  0  0  0  0  0  0  0
  148.7839  129.9667  154.1716 N   0  0  0  0  0  0  0  0  0  0  0  0
  149.6426  130.6368  154.9670 C   0  0  0  0  0  0  0  0  0  0  0  0
  149.7976  132.0358  154.9365 C   0  0  0  0  0  0  0  0  0  0  0  0
  149.0090  132.7866  154.0319 C   0  0  0  0  0  0  0  0  0  0  0  0
  149.0832  134.2000  153.8967 N   0  0  0  0  0  0  0  0  0  0  0  0
  149.4835  135.1345  154.7805 C   0  0  0  0  0  0  0  0  0  0  0  0
  149.8697  134.9065  155.9245 O   0  0  0  0  0  0  0  0  0  0  0  0
  149.4161  136.3905  154.3053 N   0  0  0  0  0  0  0  0  0  0  0  0
  149.7751  137.6243  155.0070 C   0  0  1  0  0  0  0  0  0  0  0  0
  150.9834  138.3340  154.3680 C   0  0  2  0  0  0  0  0  0  0  0  0
  152.2588  138.4894  155.1512 C   0  0  0  0  0  0  0  0  0  0  0  0
  152.1432  139.9082  155.7158 C   0  0  0  0  0  0  0  0  0  0  0  0
  150.7460  140.1912  155.6983 O   0  0  0  0  0  0  0  0  0  0  0  0
  150.2119  139.6427  154.4972 C   0  0  2  0  0  0  0  0  0  0  0  0
  148.9077  138.8511  154.6525 C   0  0  0  0  0  0  0  0  0  0  0  0
  147.8717  138.8436  153.5121 C   0  0  0  0  0  0  0  0  0  0  0  0
  146.7655  138.8251  154.5705 C   0  0  0  0  0  0  0  0  0  0  0  0
  147.7907  139.3374  155.5865 C   0  0  0  0  0  0  0  0  0  0  0  0
  148.1169  132.0866  153.1857 C   0  0  0  0  0  0  0  0  0  0  0  0
  147.1358  132.9367  152.0379 Cl  0  0  0  0  0  0  0  0  0  0  0  0
  146.0669  130.1867  152.5869 H   0  0  0  0  0  0  0  0  0  0  0  0
  147.1619  128.8044  152.6435 H   0  0  0  0  0  0  0  0  0  0  0  0
  147.3416  130.0149  151.3723 H   0  0  0  0  0  0  0  0  0  0  0  0
  150.2303  130.0379  155.6471 H   0  0  0  0  0  0  0  0  0  0  0  0
  150.5194  132.4928  155.5945 H   0  0  0  0  0  0  0  0  0  0  0  0
  148.7404  134.5579  153.0170 H   0  0  0  0  0  0  0  0  0  0  0  0
  149.0822  136.5008  153.3585 H   0  0  0  0  0  0  0  0  0  0  0  0
  149.9070  137.5126  156.0856 H   0  0  0  0  0  0  0  0  0  0  0  0
  151.1234  138.0602  153.3204 H   0  0  0  0  0  0  0  0  0  0  0  0
  152.3141  137.7553  155.9557 H   0  0  0  0  0  0  0  0  0  0  0  0
  153.1487  138.3749  154.5319 H   0  0  0  0  0  0  0  0  0  0  0  0
  152.5580  139.9972  156.7200 H   0  0  0  0  0  0  0  0  0  0  0  0
  152.6573  140.6205  155.0689 H   0  0  0  0  0  0  0  0  0  0  0  0
  150.2876  140.2979  153.6283 H   0  0  0  0  0  0  0  0  0  0  0  0
  147.8761  139.7711  152.9376 H   0  0  0  0  0  0  0  0  0  0  0  0
  147.8863  137.9747  152.8545 H   0  0  0  0  0  0  0  0  0  0  0  0
  145.9385  139.5083  154.3754 H   0  0  0  0  0  0  0  0  0  0  0  0
  146.4110  137.8188  154.7953 H   0  0  0  0  0  0  0  0  0  0  0  0
  147.7552  138.8398  156.5559 H   0  0  0  0  0  0  0  0  0  0  0  0
  147.7736  140.4234  155.6903 H   0  0  0  0  0  0  0  0  0  0  0  0
  1  2  1  0  0  0  0
  1 23  1  0  0  0  0
  1 24  1  0  0  0  0
  1 25  1  0  0  0  0
  2 21  1  0  0  0  0
  2  3  2  0  0  0  0
  3  4  1  0  0  0  0
  4  5  2  0  0  0  0
  4 26  1  0  0  0  0
  5  6  1  0  0  0  0
  5 27  1  0  0  0  0
  6  7  1  0  0  0  0
  6 21  2  0  0  0  0
  7  8  1  0  0  0  0
  7 28  1  0  0  0  0
  8  9  2  0  0  0  0
  8 10  1  0  0  0  0
 10 11  1  0  0  0  0
 10 29  1  0  0  0  0
 11 17  1  0  0  0  0
 11 12  1  0  0  0  0
 11 30  1  0  0  0  0
 12 16  1  0  0  0  0
 12 13  1  0  0  0  0
 12 31  1  0  0  0  0
 13 14  1  0  0  0  0
 13 32  1  0  0  0  0
 13 33  1  0  0  0  0
 14 15  1  0  0  0  0
 14 34  1  0  0  0  0
 14 35  1  0  0  0  0
 15 16  1  0  0  0  0
 16 17  1  0  0  0  0
 16 36  1  0  0  0  0
 17 20  1  0  0  0  0
 17 18  1  0  0  0  0
 18 19  1  0  0  0  0
 18 37  1  0  0  0  0
 18 38  1  0  0  0  0
 19 20  1  0  0  0  0
 19 39  1  0  0  0  0
 19 40  1  0  0  0  0
 20 41  1  0  0  0  0
 20 42  1  0  0  0  0
 21 22  1  0  0  0  0
M  END
> <s_m_source_file>
AV-unprocessed.smi

> <i_m_source_file_index>
2775

> <i_lp_mmshare_version>
43012

> <i_f3d_flags>
0

> <s_epik_input>
W0NIM11jMW5bY0hdW2NIXWMoYzFDbClbTkhdQyg9TylbTkhdW0NAQEhdMltDQEhdKFtDSDJdW0NIMl1PMylbQ0BASF0zQzI0W0NIMl1bQ0gyXVtDSDJdNA==

> <s_epik_cmdline>
J2VwaWtfcHl0aG9uJywgJy1waCcsICc3LjAnLCAnLXRuJywgJzgnLCAnLW1hJywgJzIwMCcsICctbWV0YWxfYmluZGluZycsICctaW1hZScsICc8aW5maWxlLm1hZT4nLCAnLW9tYWUnLCAnPG91dGZpbGUubWFlPic=

> <r_epik_Ionization_Penalty>
0.01026

> <r_epik_Ionization_Penalty_Charging>
0

> <r_epik_Ionization_Penalty_Neutral>
0.01026

> <r_epik_State_Penalty>
0.00780685

> <r_epik_Charging_Adjusted_Penalty>
0.00780685

> <i_epik_Tot_Q>
0

> <i_epik_Tot_abs_Q>
0

> <r_epik_Metal_State_Penalty>
0.00767411

> <b_epik_Metal_Only>
0

> <s_lp_Force_Field>
OPLS_2005

> <r_lp_Energy>
55.7344

> <b_lp_Chiralities_Consistent>
1

> <s_lp_Variant>
AV-unprocessed.smi:2775-6

> <Gold.Version>
5.8.1

> <Gold.Id.Protein>
6NUR|6NUR_protein|mol2

> <Gold.PLP.Fitness>
39.2050

> <Gold.PLP.PLP>
-34.5737

> <Gold.PLP.part.hbond>
-1.9385

> <Gold.PLP.part.metal>
0.0000

> <Gold.PLP.part.buried>
-0.7489

> <Gold.PLP.part.nonpolar>
-30.8105

> <Gold.PLP.part.repulsive>
0.1428

> <Gold.PLP.ligand.clash>
0.0000

> <Gold.PLP.ligand.torsion>
0.3168

> <Gold.PLP.Chemscore.Hbond>
1.6903

> <Gold.PLP.Chemscore.CHOScore>
0.0000

> <Gold.PLP.Chemscore.Metal>
0.0000

> <Gold.Chemscore.Hbonds>
donor molecule, donor type, donor heavy atom, donor atom, acceptor molecule, acceptor atom, score
      L1  H     7    28       P1  7948  0.61
      L1  H    10    29       P1  7948  0.94

> <Gold.PLP.Chemscore.Internal.Correction>
0.1940

> <Gold.Rescore>
     Score         DG    S(hbond)    S(metal)    S(lipo)     H(rot)  DE(clash)    DE(int)     intcor
     15.76     -17.28       1.14        0.00      90.28       1.00       0.17       1.35       ----

> <Gold.Chemscore.Fitness>
15.7637

> <Gold.Chemscore.DG>
-17.2825

> <Gold.Chemscore.ZeroCoef>
-5.4800

> <Gold.Chemscore.Hbond>
1.1376

> <Gold.Chemscore.Metal>
0.0000

> <Gold.Chemscore.Lipo>
90.2802

> <Gold.Chemscore.Internal_Hbond>
0.0000

> <Gold.Chemscore.DEClash>
0.1692

> <Gold.Chemscore.DEInternal>
1.3496

> <Gold.Chemscore.Rot>
1.0000

> <Gold.Chemscore.Internal.Correction>
   9.000000E+99

> <Gold.Chemscore.Hbonds>
donor molecule, donor type, donor heavy atom, donor atom, acceptor molecule, acceptor atom, score
      L1  H     7    28       P1  7948  0.09
      L1  H    10    29       P1  7948  0.88

> <Gold.Chemscore.Hbond.Weighted>
-3.7997

> <Gold.Chemscore.Metal.Weighted>
-0.0000

> <Gold.Chemscore.Lipo.Weighted>
-10.5628

> <Gold.Chemscore.Internal_Hbond.Weighted>
0.0000

> <Gold.Chemscore.DEClash.Weighted>
0.1692

> <Gold.Chemscore.DEInternal.Weighted>
1.3496

> <Gold.Chemscore.Rot.Weighted>
2.5600

> <Gold.Chemscore.Internal.Correction.Weighted>
   9.000000E+99

> <Gold.Protein.RotatedTorsions>
[ 6907 6896 6895 6894 ] final  112.57 input  -60.11 | X-H torsion
[ 7974 7965 7964 7962 ] final   -3.50 input  175.53 | X-H torsion
[ 8008 7997 7996 7995 ] final  149.62 input   59.86 | X-H torsion
[ 10167 10162 10161 10158 ] final -172.67 input  -65.29 | X-H torsion
[ 10718 10713 10712 10709 ] final -166.08 input   66.30 | X-H torsion
[ 10763 10752 10751 10750 ] final   84.99 input  -60.55 | X-H torsion
[ 11005 11000 10999 10996 ] final  147.79 input  -57.11 | X-H torsion

> <Gold.Protein.ActiveResidues>
 VAL166  LYS551  ARG553  GLY616  TRP617  ASP618  TYR619  PRO620  LYS621  CYS622 
 ASP623  PHE694  ASN695  SER759  ASP760  ASP761  ALA762  ILE779  LEU786  VAL792 
 PHE793  MET794  SER795  GLU796  ALA797  LYS798  CYS799  TRP800  GLU811  SER814 

> <Gold.Protein.RotatedAtoms>
  152.4909  133.8498  159.7195 H   0  0  0  0  0  0  0  0  0  0  0  0  # atno 6907 bound_to 6896
  150.9038  133.7075  159.2879 H   0  0  0  0  0  0  0  0  0  0  0  0  # atno 6908 bound_to 6896
  151.4507  135.1033  159.9749 H   0  0  0  0  0  0  0  0  0  0  0  0  # atno 6909 bound_to 6896
  146.2388  140.1731  142.8332 H   0  0  0  0  0  0  0  0  0  0  0  0  # atno 7974 bound_to 7965
  156.2748  140.2097  156.5887 H   0  0  0  0  0  0  0  0  0  0  0  0  # atno 8008 bound_to 7997
  154.7000  140.0522  157.0472 H   0  0  0  0  0  0  0  0  0  0  0  0  # atno 8009 bound_to 7997
  155.0748  140.3180  155.4622 H   0  0  0  0  0  0  0  0  0  0  0  0  # atno 8010 bound_to 7997
  139.5732  144.1594  152.1413 H   0  0  0  0  0  0  0  0  0  0  0  0  # atno 10167 bound_to 10162
  156.6627  130.9052  151.3031 H   0  0  0  0  0  0  0  0  0  0  0  0  # atno 10718 bound_to 10713
  153.1433  135.4633  154.9528 H   0  0  0  0  0  0  0  0  0  0  0  0  # atno 10763 bound_to 10752
  154.7765  135.3175  154.8083 H   0  0  0  0  0  0  0  0  0  0  0  0  # atno 10764 bound_to 10752
  153.8601  135.6913  153.4838 H   0  0  0  0  0  0  0  0  0  0  0  0  # atno 10765 bound_to 10752
  140.0905  134.9044  157.1643 H   0  0  0  0  0  0  0  0  0  0  0  0  # atno 11005 bound_to 11000
  144.9995  140.8619  143.5290 LP  0  0  0  0  0  0  0  0  0  0  0  0  # atno 17320 bound_to 7965
  145.1748  139.2384  143.5323 LP  0  0  0  0  0  0  0  0  0  0  0  0  # atno 17321 bound_to 7965
  140.1131  144.5439  150.6912 LP  0  0  0  0  0  0  0  0  0  0  0  0  # atno 17342 bound_to 10162
  140.7015  143.2438  151.4849 LP  0  0  0  0  0  0  0  0  0  0  0  0  # atno 17343 bound_to 10162
  157.7104  130.9434  150.1070 LP  0  0  0  0  0  0  0  0  0  0  0  0  # atno 17370 bound_to 10713
  156.1998  130.3659  149.8802 LP  0  0  0  0  0  0  0  0  0  0  0  0  # atno 17371 bound_to 10713
  140.3359  134.2758  155.7220 LP  0  0  0  0  0  0  0  0  0  0  0  0  # atno 17394 bound_to 11000
  141.2076  133.7800  157.0107 LP  0  0  0  0  0  0  0  0  0  0  0  0  # atno 17395 bound_to 11000

$$$$
