AV-unprocessed.smi:2622|AV-procd|sdf|10227|dock4
  -GOLD-   2272014233D 1   1.00000     0.00000
 Structure written by MMmdl.
 26 27  0  0  0  0  0  0  0  0  2 V2000
  153.9796  139.5703  158.9908 O   0  0  0  0  0  0  0  0  0  0  0  0
  152.7750  139.8638  158.8207 C   0  0  0  0  0  0  0  0  0  0  0  0
  151.8885  138.9814  158.8356 O   0  5  0  0  0  0  0  0  0  0  0  0
  152.4148  141.3190  158.5953 C   0  0  0  0  0  0  0  0  0  0  0  0
  152.9151  142.2906  159.4968 C   0  0  0  0  0  0  0  0  0  0  0  0
  152.6002  143.6492  159.3172 C   0  0  0  0  0  0  0  0  0  0  0  0
  151.7861  144.0034  158.2304 C   0  0  0  0  0  0  0  0  0  0  0  0
  151.2961  143.1037  157.3567 N   0  0  0  0  0  0  0  0  0  0  0  0
  151.5946  141.7902  157.5221 C   0  0  0  0  0  0  0  0  0  0  0  0
  151.0371  140.9253  156.5649 N   0  0  0  0  0  0  0  0  0  0  0  0
  150.1451  141.5760  155.6149 C   0  0  0  0  0  0  0  0  0  0  0  0
  149.4479  140.5154  154.7458 C   0  0  0  0  0  0  0  0  0  0  0  0
  150.4272  139.6981  154.1094 O   0  0  0  0  0  0  0  0  0  0  0  0
  151.2441  139.0091  155.0530 C   0  0  0  0  0  0  0  0  0  0  0  0
  151.9924  140.0280  155.9292 C   0  0  0  0  0  0  0  0  0  0  0  0
  153.5413  142.0109  160.3314 H   0  0  0  0  0  0  0  0  0  0  0  0
  152.9746  144.3997  159.9972 H   0  0  0  0  0  0  0  0  0  0  0  0
  151.5204  145.0356  158.0569 H   0  0  0  0  0  0  0  0  0  0  0  0
  149.4035  142.1697  156.1508 H   0  0  0  0  0  0  0  0  0  0  0  0
  150.7144  142.2587  154.9827 H   0  0  0  0  0  0  0  0  0  0  0  0
  148.7799  139.8981  155.3490 H   0  0  0  0  0  0  0  0  0  0  0  0
  148.8357  140.9970  153.9834 H   0  0  0  0  0  0  0  0  0  0  0  0
  150.6304  138.3469  155.6661 H   0  0  0  0  0  0  0  0  0  0  0  0
  151.9545  138.3801  154.5169 H   0  0  0  0  0  0  0  0  0  0  0  0
  152.6888  140.6028  155.3174 H   0  0  0  0  0  0  0  0  0  0  0  0
  152.5773  139.5112  156.6911 H   0  0  0  0  0  0  0  0  0  0  0  0
  1  2  2  0  0  0  0
  2  3  1  0  0  0  0
  2  4  1  0  0  0  0
  4  9  1  0  0  0  0
  4  5  2  0  0  0  0
  5  6  1  0  0  0  0
  5 16  1  0  0  0  0
  6  7  2  0  0  0  0
  6 17  1  0  0  0  0
  7  8  1  0  0  0  0
  7 18  1  0  0  0  0
  8  9  2  0  0  0  0
  9 10  1  0  0  0  0
 10 15  1  0  0  0  0
 10 11  1  0  0  0  0
 11 12  1  0  0  0  0
 11 19  1  0  0  0  0
 11 20  1  0  0  0  0
 12 13  1  0  0  0  0
 12 21  1  0  0  0  0
 12 22  1  0  0  0  0
 13 14  1  0  0  0  0
 14 15  1  0  0  0  0
 14 23  1  0  0  0  0
 14 24  1  0  0  0  0
 15 25  1  0  0  0  0
 15 26  1  0  0  0  0
M  CHG  1   3  -1
M  END
> <s_m_source_file>
AV-unprocessed.smi

> <i_m_source_file_index>
2622

> <i_lp_mmshare_version>
43012

> <i_f3d_flags>
0

> <s_epik_input>
Tz1DKFtPSF0pYzFbY0hdW2NIXVtjSF1uYzFOMltDSDJdW0NIMl1PW0NIMl1bQ0gyXTI=

> <s_epik_cmdline>
J2VwaWtfcHl0aG9uJywgJy1waCcsICc3LjAnLCAnLXRuJywgJzgnLCAnLW1hJywgJzIwMCcsICctbWV0YWxfYmluZGluZycsICctaW1hZScsICc8aW5maWxlLm1hZT4nLCAnLW9tYWUnLCAnPG91dGZpbGUubWFlPic=

> <r_epik_Ionization_Penalty>
0.0087984

> <r_epik_Ionization_Penalty_Charging>
0.000175699

> <r_epik_Ionization_Penalty_Neutral>
0.0086227

> <r_epik_State_Penalty>
0.00645777

> <r_epik_Charging_Adjusted_Penalty>
0.00663347

> <i_epik_Tot_Q>
-1

> <i_epik_Tot_abs_Q>
1

> <r_epik_Metal_State_Penalty>
6.49305e-06

> <b_epik_Metal_Only>
0

> <s_lp_Force_Field>
OPLS_2005

> <r_lp_Energy>
24.8518

> <b_lp_Chiralities_Consistent>
1

> <s_lp_Variant>
AV-unprocessed.smi:2622-1

> <Gold.Version>
5.8.1

> <Gold.Id.Protein>
6NUR|6NUR_protein|mol2

> <Gold.PLP.Fitness>
38.7548

> <Gold.PLP.PLP>
-31.5387

> <Gold.PLP.part.hbond>
-2.0000

> <Gold.PLP.part.metal>
0.0000

> <Gold.PLP.part.buried>
-4.5570

> <Gold.PLP.part.nonpolar>
-25.4658

> <Gold.PLP.part.repulsive>
0.7182

> <Gold.PLP.ligand.clash>
0.0000

> <Gold.PLP.ligand.torsion>
0.9743

> <Gold.PLP.Chemscore.Hbond>
3.0000

> <Gold.PLP.Chemscore.CHOScore>
0.0000

> <Gold.PLP.Chemscore.Metal>
0.0000

> <Gold.Chemscore.Hbonds>
donor molecule, donor type, donor heavy atom, donor atom, acceptor molecule, acceptor atom, score
      P1  H  7989  7998       L1    13  1.00
      P1  H  7997  8010       L1     1  2.00

> <Gold.PLP.Chemscore.Internal.Correction>
0.1647

> <Gold.Rescore>
     Score         DG    S(hbond)    S(metal)    S(lipo)     H(rot)  DE(clash)    DE(int)     intcor
     13.57     -14.65       0.93        0.00      73.81       1.00       0.04       1.05       ----

> <Gold.Chemscore.Fitness>
13.5677

> <Gold.Chemscore.DG>
-14.6543

> <Gold.Chemscore.ZeroCoef>
-5.4800

> <Gold.Chemscore.Hbond>
0.9277

> <Gold.Chemscore.Metal>
0.0000

> <Gold.Chemscore.Lipo>
73.8100

> <Gold.Chemscore.Internal_Hbond>
0.0000

> <Gold.Chemscore.DEClash>
0.0354

> <Gold.Chemscore.DEInternal>
1.0512

> <Gold.Chemscore.Rot>
1.0000

> <Gold.Chemscore.Internal.Correction>
   9.000000E+99

> <Gold.Chemscore.Hbonds>
donor molecule, donor type, donor heavy atom, donor atom, acceptor molecule, acceptor atom, score
      P1  H  7989  7998       L1    13  0.11
      P1  H  7997  8010       L1     1  0.38

> <Gold.Chemscore.Hbond.Weighted>
-3.0985

> <Gold.Chemscore.Metal.Weighted>
-0.0000

> <Gold.Chemscore.Lipo.Weighted>
-8.6358

> <Gold.Chemscore.Internal_Hbond.Weighted>
0.0000

> <Gold.Chemscore.DEClash.Weighted>
0.0354

> <Gold.Chemscore.DEInternal.Weighted>
1.0512

> <Gold.Chemscore.Rot.Weighted>
2.5600

> <Gold.Chemscore.Internal.Correction.Weighted>
   9.000000E+99

> <Gold.Protein.RotatedTorsions>
[ 6907 6896 6895 6894 ] final -111.58 input  -60.11 | X-H torsion
[ 7974 7965 7964 7962 ] final   66.97 input  175.53 | X-H torsion
[ 8008 7997 7996 7995 ] final   18.75 input   59.86 | X-H torsion
[ 10167 10162 10161 10158 ] final -102.18 input  -65.29 | X-H torsion
[ 10718 10713 10712 10709 ] final -161.27 input   66.30 | X-H torsion
[ 10763 10752 10751 10750 ] final  143.32 input  -60.55 | X-H torsion
[ 11005 11000 10999 10996 ] final  169.54 input  -57.11 | X-H torsion

> <Gold.Protein.ActiveResidues>
 VAL166  LYS551  ARG553  GLY616  TRP617  ASP618  TYR619  PRO620  LYS621  CYS622 
 ASP623  PHE694  ASN695  SER759  ASP760  ASP761  ALA762  ILE779  LEU786  VAL792 
 PHE793  MET794  SER795  GLU796  ALA797  LYS798  CYS799  TRP800  GLU811  SER814 

> <Gold.Protein.RotatedAtoms>
  150.7700  133.9214  159.3398 H   0  0  0  0  0  0  0  0  0  0  0  0  # atno 6907 bound_to 6896
  151.7102  135.0912  160.0276 H   0  0  0  0  0  0  0  0  0  0  0  0  # atno 6908 bound_to 6896
  152.3714  133.6385  159.6125 H   0  0  0  0  0  0  0  0  0  0  0  0  # atno 6909 bound_to 6896
  145.8202  139.3080  143.1048 H   0  0  0  0  0  0  0  0  0  0  0  0  # atno 7974 bound_to 7965
  154.9106  140.3013  155.5268 H   0  0  0  0  0  0  0  0  0  0  0  0  # atno 8008 bound_to 7997
  156.3015  140.2390  156.4081 H   0  0  0  0  0  0  0  0  0  0  0  0  # atno 8009 bound_to 7997
  154.8429  140.0413  157.1542 H   0  0  0  0  0  0  0  0  0  0  0  0  # atno 8010 bound_to 7997
  140.2334  143.3590  152.0866 H   0  0  0  0  0  0  0  0  0  0  0  0  # atno 10167 bound_to 10162
  156.5938  130.8781  151.2896 H   0  0  0  0  0  0  0  0  0  0  0  0  # atno 10718 bound_to 10713
  153.9704  135.2951  155.3427 H   0  0  0  0  0  0  0  0  0  0  0  0  # atno 10763 bound_to 10752
  154.7325  135.5061  153.8990 H   0  0  0  0  0  0  0  0  0  0  0  0  # atno 10764 bound_to 10752
  153.0902  135.6705  153.9980 H   0  0  0  0  0  0  0  0  0  0  0  0  # atno 10765 bound_to 10752
  140.2989  134.7612  157.3899 H   0  0  0  0  0  0  0  0  0  0  0  0  # atno 11005 bound_to 11000
  145.9683  140.8781  143.0175 LP  0  0  0  0  0  0  0  0  0  0  0  0  # atno 17320 bound_to 7965
  144.6748  140.1910  143.7396 LP  0  0  0  0  0  0  0  0  0  0  0  0  # atno 17321 bound_to 7965
  139.5102  144.6880  151.5836 LP  0  0  0  0  0  0  0  0  0  0  0  0  # atno 17342 bound_to 10162
  140.6168  143.9334  150.6495 LP  0  0  0  0  0  0  0  0  0  0  0  0  # atno 17343 bound_to 10162
  157.7297  130.9674  150.1798 LP  0  0  0  0  0  0  0  0  0  0  0  0  # atno 17370 bound_to 10713
  156.2527  130.3702  149.8215 LP  0  0  0  0  0  0  0  0  0  0  0  0  # atno 17371 bound_to 10713
  140.1128  134.5323  155.8251 LP  0  0  0  0  0  0  0  0  0  0  0  0  # atno 17394 bound_to 11000
  141.2132  133.6730  156.6720 LP  0  0  0  0  0  0  0  0  0  0  0  0  # atno 17395 bound_to 11000

$$$$
