AV-unprocessed.smi:910|AV-procd|sdf|4127|dock1
  -GOLD-   22720 2 33D 1   1.00000     0.00000
 Structure written by MMmdl.
 46 47  0  0  0  0  0  0  0  0  1 V2000
  154.5975  132.9680  163.7922 C   0  0  0  0  0  0  0  0  0  0  0  0
  154.5131  134.3892  164.3036 C   0  0  0  0  0  0  0  0  0  0  0  0
  154.5801  135.4676  163.4655 N   0  0  0  0  0  0  0  0  0  0  0  0
  154.4722  136.6248  164.2333 C   0  0  0  0  0  0  0  0  0  0  0  0
  154.4772  137.8879  163.9345 N   0  0  0  0  0  0  0  0  0  0  0  0
  154.5919  138.2860  162.6102 C   0  0  0  0  0  0  0  0  0  0  0  0
  154.4979  137.5955  161.5904 O   0  0  0  0  0  0  0  0  0  0  0  0
  154.8552  139.5994  162.5465 N   0  0  0  0  0  0  0  0  0  0  0  0
  155.0733  140.3648  161.3232 C   0  0  0  0  0  0  0  0  0  0  0  0
  153.9848  141.4280  161.1168 C   0  0  0  0  0  0  0  0  0  0  0  0
  153.1641  141.0369  160.0262 O   0  0  0  0  0  0  0  0  0  0  0  0
  152.2163  142.0157  159.6199 C   0  0  1  0  0  0  0  0  0  0  0  0
  152.9473  143.3351  159.2949 C   0  0  0  0  0  0  0  0  0  0  0  0
  151.9865  144.3840  158.7163 C   0  0  0  0  0  0  0  0  0  0  0  0
  151.2616  143.8409  157.4770 C   0  0  0  0  0  0  0  0  0  0  0  0
  150.5239  142.5321  157.7982 C   0  0  0  0  0  0  0  0  0  0  0  0
  151.4746  141.4664  158.3804 C   0  0  2  0  0  0  0  0  0  0  0  0
  150.7080  140.1731  158.7051 C   0  0  0  0  0  0  0  0  0  0  0  0
  154.3448  136.2090  165.5348 O   0  0  0  0  0  0  0  0  0  0  0  0
  154.3712  134.8469  165.5448 C   0  0  0  0  0  0  0  0  0  0  0  0
  154.2463  134.1263  166.8680 C   0  0  0  0  0  0  0  0  0  0  0  0
  155.4440  132.4534  164.2472 H   0  0  0  0  0  0  0  0  0  0  0  0
  154.7244  132.9488  162.7094 H   0  0  0  0  0  0  0  0  0  0  0  0
  153.6870  132.4227  164.0418 H   0  0  0  0  0  0  0  0  0  0  0  0
  154.6873  135.3911  162.4642 H   0  0  0  0  0  0  0  0  0  0  0  0
  154.9286  140.1064  163.4168 H   0  0  0  0  0  0  0  0  0  0  0  0
  156.0588  140.8323  161.3476 H   0  0  0  0  0  0  0  0  0  0  0  0
  155.0794  139.6727  160.4809 H   0  0  0  0  0  0  0  0  0  0  0  0
  153.3882  141.5391  162.0235 H   0  0  0  0  0  0  0  0  0  0  0  0
  154.4495  142.3931  160.9143 H   0  0  0  0  0  0  0  0  0  0  0  0
  151.4827  142.1879  160.4102 H   0  0  0  0  0  0  0  0  0  0  0  0
  153.4244  143.7385  160.1878 H   0  0  0  0  0  0  0  0  0  0  0  0
  153.7473  143.1419  158.5787 H   0  0  0  0  0  0  0  0  0  0  0  0
  151.2553  144.6689  159.4740 H   0  0  0  0  0  0  0  0  0  0  0  0
  152.5359  145.2899  158.4590 H   0  0  0  0  0  0  0  0  0  0  0  0
  150.5555  144.5834  157.1040 H   0  0  0  0  0  0  0  0  0  0  0  0
  151.9823  143.6690  156.6764 H   0  0  0  0  0  0  0  0  0  0  0  0
  149.7198  142.7351  158.5070 H   0  0  0  0  0  0  0  0  0  0  0  0
  150.0477  142.1524  156.8935 H   0  0  0  0  0  0  0  0  0  0  0  0
  152.2176  141.2288  157.6175 H   0  0  0  0  0  0  0  0  0  0  0  0
  149.9588  140.3401  159.4799 H   0  0  0  0  0  0  0  0  0  0  0  0
  151.3796  139.3898  159.0577 H   0  0  0  0  0  0  0  0  0  0  0  0
  150.1945  139.7894  157.8232 H   0  0  0  0  0  0  0  0  0  0  0  0
  153.6310  133.2327  166.7595 H   0  0  0  0  0  0  0  0  0  0  0  0
  153.7847  134.7742  167.6132 H   0  0  0  0  0  0  0  0  0  0  0  0
  155.2307  133.8285  167.2290 H   0  0  0  0  0  0  0  0  0  0  0  0
  1 22  1  0  0  0  0
  1 23  1  0  0  0  0
  1 24  1  0  0  0  0
  1  2  1  0  0  0  0
  2  3  1  0  0  0  0
  2 20  2  0  0  0  0
  3 25  1  0  0  0  0
  3  4  1  0  0  0  0
  4 19  1  0  0  0  0
  4  5  2  0  0  0  0
  5  6  1  0  0  0  0
  6  8  1  0  0  0  0
  6  7  2  0  0  0  0
  8  9  1  0  0  0  0
  8 26  1  0  0  0  0
  9 10  1  0  0  0  0
  9 27  1  0  0  0  0
  9 28  1  0  0  0  0
 10 11  1  0  0  0  0
 10 29  1  0  0  0  0
 10 30  1  0  0  0  0
 11 12  1  0  0  0  0
 12 17  1  0  0  0  0
 12 13  1  0  0  0  0
 12 31  1  0  0  0  0
 13 14  1  0  0  0  0
 13 32  1  0  0  0  0
 13 33  1  0  0  0  0
 14 15  1  0  0  0  0
 14 34  1  0  0  0  0
 14 35  1  0  0  0  0
 15 16  1  0  0  0  0
 15 36  1  0  0  0  0
 15 37  1  0  0  0  0
 16 17  1  0  0  0  0
 16 38  1  0  0  0  0
 16 39  1  0  0  0  0
 17 18  1  0  0  0  0
 17 40  1  0  0  0  0
 18 41  1  0  0  0  0
 18 42  1  0  0  0  0
 18 43  1  0  0  0  0
 19 20  1  0  0  0  0
 20 21  1  0  0  0  0
 21 44  1  0  0  0  0
 21 45  1  0  0  0  0
 21 46  1  0  0  0  0
M  END
> <s_m_source_file>
AV-unprocessed.smi

> <i_m_source_file_index>
910

> <i_lp_mmshare_version>
43012

> <i_f3d_flags>
0

> <s_epik_input>
W0NIM11jMW5jKG9jMVtDSDNdKVtOSF1DKD1PKVtOSF1bQ0gyXVtDSDJdT1tDQEBIXTJbQ0gyXVtDSDJdW0NIMl1bQ0gyXVtDQEhdMltDSDNd

> <s_epik_cmdline>
J2VwaWtfcHl0aG9uJywgJy1waCcsICc3LjAnLCAnLXRuJywgJzgnLCAnLW1hJywgJzIwMCcsICctbWV0YWxfYmluZGluZycsICctaW1hZScsICc8aW5maWxlLm1hZT4nLCAnLW9tYWUnLCAnPG91dGZpbGUubWFlPic=

> <r_lp_tautomer_probability>
0.107061

> <r_epik_Ionization_Penalty>
0.727192

> <r_epik_Ionization_Penalty_Charging>
0.726719

> <r_epik_Ionization_Penalty_Neutral>
0.000473387

> <r_epik_State_Penalty>
2.53712

> <r_epik_Charging_Adjusted_Penalty>
3.26383

> <i_epik_Tot_Q>
0

> <i_epik_Tot_abs_Q>
0

> <r_epik_Metal_State_Penalty>
3.71015

> <b_epik_Metal_Only>
0

> <s_lp_Force_Field>
OPLS_2005

> <r_lp_Energy>
31.2477

> <b_lp_Chiralities_Consistent>
1

> <s_lp_Variant>
AV-unprocessed.smi:910-12

> <Gold.Version>
5.8.1

> <Gold.Id.Protein>
6NUR|6NUR_protein|mol2

> <Gold.PLP.Fitness>
42.9341

> <Gold.PLP.PLP>
-43.7492

> <Gold.PLP.part.hbond>
0.0000

> <Gold.PLP.part.metal>
0.0000

> <Gold.PLP.part.buried>
-6.0111

> <Gold.PLP.part.nonpolar>
-39.0333

> <Gold.PLP.part.repulsive>
0.1604

> <Gold.PLP.ligand.clash>
0.0000

> <Gold.PLP.ligand.torsion>
0.4124

> <Gold.PLP.Chemscore.Hbond>
0.0000

> <Gold.PLP.Chemscore.CHOScore>
0.0000

> <Gold.PLP.Chemscore.Metal>
0.0000

> <Gold.PLP.Chemscore.Internal.Correction>
0.0098

> <Gold.Rescore>
     Score         DG    S(hbond)    S(metal)    S(lipo)     H(rot)  DE(clash)    DE(int)     intcor
     13.35     -15.34       0.00        0.00     120.58       1.66       0.09       1.90       ----

> <Gold.Chemscore.Fitness>
13.3501

> <Gold.Chemscore.DG>
-15.3445

> <Gold.Chemscore.ZeroCoef>
-5.4800

> <Gold.Chemscore.Hbond>
0.0000

> <Gold.Chemscore.Metal>
0.0000

> <Gold.Chemscore.Lipo>
120.5815

> <Gold.Chemscore.Internal_Hbond>
0.0000

> <Gold.Chemscore.DEClash>
0.0940

> <Gold.Chemscore.DEInternal>
1.9003

> <Gold.Chemscore.Rot>
1.6576

> <Gold.Chemscore.Internal.Correction>
   9.000000E+99

> <Gold.Chemscore.Hbond.Weighted>
-0.0000

> <Gold.Chemscore.Metal.Weighted>
-0.0000

> <Gold.Chemscore.Lipo.Weighted>
-14.1080

> <Gold.Chemscore.Internal_Hbond.Weighted>
0.0000

> <Gold.Chemscore.DEClash.Weighted>
0.0940

> <Gold.Chemscore.DEInternal.Weighted>
1.9003

> <Gold.Chemscore.Rot.Weighted>
4.2436

> <Gold.Chemscore.Internal.Correction.Weighted>
   9.000000E+99

> <Gold.Protein.RotatedTorsions>
[ 6907 6896 6895 6894 ] final  -55.32 input  -60.11 | X-H torsion
[ 7974 7965 7964 7962 ] final  -95.07 input  175.53 | X-H torsion
[ 8008 7997 7996 7995 ] final  131.63 input   59.86 | X-H torsion
[ 10167 10162 10161 10158 ] final -137.72 input  -65.29 | X-H torsion
[ 10718 10713 10712 10709 ] final   42.27 input   66.30 | X-H torsion
[ 10763 10752 10751 10750 ] final  -10.51 input  -60.55 | X-H torsion
[ 11005 11000 10999 10996 ] final    5.40 input  -57.11 | X-H torsion

> <Gold.Protein.ActiveResidues>
 VAL166  LYS551  ARG553  GLY616  TRP617  ASP618  TYR619  PRO620  LYS621  CYS622 
 ASP623  PHE694  ASN695  SER759  ASP760  ASP761  ALA762  ILE779  LEU786  VAL792 
 PHE793  MET794  SER795  GLU796  ALA797  LYS798  CYS799  TRP800  GLU811  SER814 

> <Gold.Protein.RotatedAtoms>
  150.8262  134.7494  159.6814 H   0  0  0  0  0  0  0  0  0  0  0  0  # atno 6907 bound_to 6896
  152.4372  134.5659  159.9917 H   0  0  0  0  0  0  0  0  0  0  0  0  # atno 6908 bound_to 6896
  151.5831  133.3338  159.3048 H   0  0  0  0  0  0  0  0  0  0  0  0  # atno 6909 bound_to 6896
  145.3649  140.9497  143.2479 H   0  0  0  0  0  0  0  0  0  0  0  0  # atno 7974 bound_to 7965
  156.2972  140.2566  156.2957 H   0  0  0  0  0  0  0  0  0  0  0  0  # atno 8008 bound_to 7997
  154.9466  140.0395  157.2142 H   0  0  0  0  0  0  0  0  0  0  0  0  # atno 8009 bound_to 7997
  154.8075  140.2838  155.5881 H   0  0  0  0  0  0  0  0  0  0  0  0  # atno 8010 bound_to 7997
  139.8550  143.7150  152.2655 H   0  0  0  0  0  0  0  0  0  0  0  0  # atno 10167 bound_to 10162
  157.4030  130.7871  149.7364 H   0  0  0  0  0  0  0  0  0  0  0  0  # atno 10718 bound_to 10713
  153.4702  135.7016  153.5998 H   0  0  0  0  0  0  0  0  0  0  0  0  # atno 10763 bound_to 10752
  153.4255  135.3815  155.2138 H   0  0  0  0  0  0  0  0  0  0  0  0  # atno 10764 bound_to 10752
  154.8725  135.3938  154.4139 H   0  0  0  0  0  0  0  0  0  0  0  0  # atno 10765 bound_to 10752
  140.5712  134.0101  155.8009 H   0  0  0  0  0  0  0  0  0  0  0  0  # atno 11005 bound_to 11000
  144.8619  139.5165  143.6808 LP  0  0  0  0  0  0  0  0  0  0  0  0  # atno 17320 bound_to 7965
  146.2911  139.7141  142.9160 LP  0  0  0  0  0  0  0  0  0  0  0  0  # atno 17321 bound_to 7965
  139.7429  144.7555  151.0625 LP  0  0  0  0  0  0  0  0  0  0  0  0  # atno 17342 bound_to 10162
  140.7783  143.4951  150.9843 LP  0  0  0  0  0  0  0  0  0  0  0  0  # atno 17343 bound_to 10162
  155.9828  130.4006  150.3395 LP  0  0  0  0  0  0  0  0  0  0  0  0  # atno 17370 bound_to 10713
  157.1525  131.0324  151.2878 LP  0  0  0  0  0  0  0  0  0  0  0  0  # atno 17371 bound_to 10713
  141.1055  133.9700  157.3004 LP  0  0  0  0  0  0  0  0  0  0  0  0  # atno 17394 bound_to 11000
  139.9361  135.0196  156.8560 LP  0  0  0  0  0  0  0  0  0  0  0  0  # atno 17395 bound_to 11000

$$$$
