AV-unprocessed.smi:3112|AV-procd|sdf|11844|dock1
  -GOLD-   2272017223D 1   1.00000     0.00000
 Structure written by MMmdl.
 36 36  0  0  0  0  0  0  0  0  1 V2000
  152.1598  144.2828  160.5435 C   0  0  0  0  0  0  0  0  0  0  0  0
  152.3063  144.7660  159.0940 C   0  0  0  0  0  0  0  0  0  0  0  0
  151.1246  144.3583  158.1916 C   0  0  2  0  0  0  0  0  0  0  0  0
  149.9230  144.7694  158.8107 O   0  0  0  0  0  0  0  0  0  0  0  0
  151.0330  142.8393  157.9684 C   0  0  0  0  0  0  0  0  0  0  0  0
  149.6968  142.4463  157.5175 N   0  0  0  0  0  0  0  0  0  0  0  0
  149.6139  141.1102  156.9193 C   0  0  2  0  0  0  0  0  0  0  0  0
  150.4055  140.1360  157.8123 C   0  0  0  0  0  0  0  0  0  0  0  0
  150.1184  141.1028  155.4447 C   0  0  2  0  0  0  0  0  0  0  0  0
  149.0736  141.5637  154.4112 C   0  0  0  0  0  0  0  0  0  0  0  0
  150.6419  139.7977  155.0590 N   0  0  0  0  0  0  0  0  0  0  0  0
  151.9539  139.3703  155.0597 C   0  0  0  0  0  0  0  0  0  0  0  0
  151.9629  138.0761  154.6250 C   0  0  0  0  0  0  0  0  0  0  0  0
  150.5909  137.7938  154.3767 C   0  0  0  0  0  0  0  0  0  0  0  0
  149.8029  138.8239  154.6372 N   0  0  0  0  0  0  0  0  0  0  0  0
  153.0019  144.6172  161.1497 H   0  0  0  0  0  0  0  0  0  0  0  0
  152.1246  143.1948  160.6009 H   0  0  0  0  0  0  0  0  0  0  0  0
  151.2486  144.6731  160.9980 H   0  0  0  0  0  0  0  0  0  0  0  0
  152.3955  145.8526  159.1090 H   0  0  0  0  0  0  0  0  0  0  0  0
  153.2419  144.3928  158.6752 H   0  0  0  0  0  0  0  0  0  0  0  0
  151.1972  144.8632  157.2272 H   0  0  0  0  0  0  0  0  0  0  0  0
  149.3374  145.0930  158.1431 H   0  0  0  0  0  0  0  0  0  0  0  0
  151.7801  142.5312  157.2356 H   0  0  0  0  0  0  0  0  0  0  0  0
  151.2894  142.3265  158.8934 H   0  0  0  0  0  0  0  0  0  0  0  0
  149.3637  143.1329  156.8484 H   0  0  0  0  0  0  0  0  0  0  0  0
  148.5768  140.7716  156.9348 H   0  0  0  0  0  0  0  0  0  0  0  0
  150.2813  139.1004  157.4955 H   0  0  0  0  0  0  0  0  0  0  0  0
  150.0662  140.1907  158.8474 H   0  0  0  0  0  0  0  0  0  0  0  0
  151.4721  140.3633  157.8002 H   0  0  0  0  0  0  0  0  0  0  0  0
  150.9573  141.7980  155.3809 H   0  0  0  0  0  0  0  0  0  0  0  0
  148.8549  142.6260  154.5143 H   0  0  0  0  0  0  0  0  0  0  0  0
  148.1392  141.0104  154.5101 H   0  0  0  0  0  0  0  0  0  0  0  0
  149.4391  141.4182  153.3941 H   0  0  0  0  0  0  0  0  0  0  0  0
  152.7634  140.0155  155.3678 H   0  0  0  0  0  0  0  0  0  0  0  0
  152.8189  137.4293  154.5025 H   0  0  0  0  0  0  0  0  0  0  0  0
  150.1468  136.8769  154.0177 H   0  0  0  0  0  0  0  0  0  0  0  0
  1  2  1  0  0  0  0
  1 16  1  0  0  0  0
  1 17  1  0  0  0  0
  1 18  1  0  0  0  0
  2  3  1  0  0  0  0
  2 19  1  0  0  0  0
  2 20  1  0  0  0  0
  3  4  1  0  0  0  0
  3  5  1  0  0  0  0
  3 21  1  0  0  0  0
  4 22  1  0  0  0  0
  5  6  1  0  0  0  0
  5 23  1  0  0  0  0
  5 24  1  0  0  0  0
  6  7  1  0  0  0  0
  6 25  1  0  0  0  0
  7  8  1  0  0  0  0
  7  9  1  0  0  0  0
  7 26  1  0  0  0  0
  8 27  1  0  0  0  0
  8 28  1  0  0  0  0
  8 29  1  0  0  0  0
  9 10  1  0  0  0  0
  9 11  1  0  0  0  0
  9 30  1  0  0  0  0
 10 31  1  0  0  0  0
 10 32  1  0  0  0  0
 10 33  1  0  0  0  0
 11 15  1  0  0  0  0
 11 12  1  0  0  0  0
 12 13  2  0  0  0  0
 12 34  1  0  0  0  0
 13 14  1  0  0  0  0
 13 35  1  0  0  0  0
 14 15  2  0  0  0  0
 14 36  1  0  0  0  0
M  END
> <s_m_source_file>
AV-unprocessed.smi

> <i_m_source_file_index>
3112

> <i_lp_mmshare_version>
43012

> <i_f3d_flags>
0

> <s_epik_input>
W0NIM11bQ0gyXVtDQEhdKFtPSF0pW0NIMl1bTkhdW0NASF0oW0NIM10pW0NASF0oW0NIM10pbjFbY0hdW2NIXVtjSF1uMQ==

> <s_epik_cmdline>
J2VwaWtfcHl0aG9uJywgJy1waCcsICc3LjAnLCAnLXRuJywgJzgnLCAnLW1hJywgJzIwMCcsICctbWV0YWxfYmluZGluZycsICctaW1hZScsICc8aW5maWxlLm1hZT4nLCAnLW9tYWUnLCAnPG91dGZpbGUubWFlPic=

> <r_lp_tautomer_probability>
1

> <r_epik_Ionization_Penalty>
2.16876

> <r_epik_Ionization_Penalty_Charging>
0

> <r_epik_Ionization_Penalty_Neutral>
2.16876

> <r_epik_State_Penalty>
2.30854

> <r_epik_Charging_Adjusted_Penalty>
2.30854

> <i_epik_Tot_Q>
0

> <i_epik_Tot_abs_Q>
0

> <r_epik_Metal_State_Penalty>
2.3073

> <b_epik_Metal_Only>
0

> <s_lp_Force_Field>
OPLS_2005

> <r_lp_Energy>
16.1769

> <b_lp_Chiralities_Consistent>
1

> <s_lp_Variant>
AV-unprocessed.smi:3112-9

> <Gold.Version>
5.8.1

> <Gold.Id.Protein>
6NUR|6NUR_protein|mol2

> <Gold.PLP.Fitness>
42.1243

> <Gold.PLP.PLP>
-35.9963

> <Gold.PLP.part.hbond>
-2.5344

> <Gold.PLP.part.metal>
0.0000

> <Gold.PLP.part.buried>
-0.5959

> <Gold.PLP.part.nonpolar>
-33.6006

> <Gold.PLP.part.repulsive>
0.1568

> <Gold.PLP.ligand.clash>
0.0000

> <Gold.PLP.ligand.torsion>
1.5308

> <Gold.PLP.Chemscore.Hbond>
2.0000

> <Gold.PLP.Chemscore.CHOScore>
1.0134

> <Gold.PLP.Chemscore.Metal>
0.0000

> <Gold.Chemscore.Hbonds>
donor molecule, donor type, donor heavy atom, donor atom, acceptor molecule, acceptor atom, score
      L1  H     4    22       P1  8029  1.00
      L1  H     6    25       P1  8028  0.99
      L1  C    14    36       P1  7948  1.00
      L1  C    14    36       P1  7949  0.03

> <Gold.PLP.Chemscore.Internal.Correction>
0.1493

> <Gold.Rescore>
     Score         DG    S(hbond)    S(metal)    S(lipo)     H(rot)  DE(clash)    DE(int)     intcor
     15.40     -16.57       1.87        0.00      92.01       2.31       0.01       1.16       ----

> <Gold.Chemscore.Fitness>
15.3998

> <Gold.Chemscore.DG>
-16.5693

> <Gold.Chemscore.ZeroCoef>
-5.4800

> <Gold.Chemscore.Hbond>
1.8682

> <Gold.Chemscore.Metal>
0.0000

> <Gold.Chemscore.Lipo>
92.0104

> <Gold.Chemscore.Internal_Hbond>
0.0000

> <Gold.Chemscore.DEClash>
0.0077

> <Gold.Chemscore.DEInternal>
1.1617

> <Gold.Chemscore.Rot>
2.3108

> <Gold.Chemscore.Internal.Correction>
   9.000000E+99

> <Gold.Chemscore.Hbonds>
donor molecule, donor type, donor heavy atom, donor atom, acceptor molecule, acceptor atom, score
      L1  H     4    22       P1  8029  0.40
      L1  H     6    25       P1  8028  0.91

> <Gold.Chemscore.Hbond.Weighted>
-6.2398

> <Gold.Chemscore.Metal.Weighted>
-0.0000

> <Gold.Chemscore.Lipo.Weighted>
-10.7652

> <Gold.Chemscore.Internal_Hbond.Weighted>
0.0000

> <Gold.Chemscore.DEClash.Weighted>
0.0077

> <Gold.Chemscore.DEInternal.Weighted>
1.1617

> <Gold.Chemscore.Rot.Weighted>
5.9157

> <Gold.Chemscore.Internal.Correction.Weighted>
   9.000000E+99

> <Gold.Protein.RotatedTorsions>
[ 6907 6896 6895 6894 ] final   53.38 input  -60.11 | X-H torsion
[ 7974 7965 7964 7962 ] final   20.33 input  175.53 | X-H torsion
[ 8008 7997 7996 7995 ] final -155.32 input   59.86 | X-H torsion
[ 10167 10162 10161 10158 ] final  -25.54 input  -65.29 | X-H torsion
[ 10718 10713 10712 10709 ] final  115.21 input   66.30 | X-H torsion
[ 10763 10752 10751 10750 ] final  129.04 input  -60.55 | X-H torsion
[ 11005 11000 10999 10996 ] final -148.06 input  -57.11 | X-H torsion

> <Gold.Protein.ActiveResidues>
 VAL166  LYS551  ARG553  GLY616  TRP617  ASP618  TYR619  PRO620  LYS621  CYS622 
 ASP623  PHE694  ASN695  SER759  ASP760  ASP761  ALA762  ILE779  LEU786  VAL792 
 PHE793  MET794  SER795  GLU796  ALA797  LYS798  CYS799  TRP800  GLU811  SER814 

> <Gold.Protein.RotatedAtoms>
  152.3331  134.7234  160.0284 H   0  0  0  0  0  0  0  0  0  0  0  0  # atno 6907 bound_to 6896
  151.7644  133.3331  159.3435 H   0  0  0  0  0  0  0  0  0  0  0  0  # atno 6908 bound_to 6896
  150.7434  134.6008  159.6080 H   0  0  0  0  0  0  0  0  0  0  0  0  # atno 6909 bound_to 6896
  146.2115  139.8185  142.8685 H   0  0  0  0  0  0  0  0  0  0  0  0  # atno 7974 bound_to 7965
  155.7000  140.0765  157.2414 H   0  0  0  0  0  0  0  0  0  0  0  0  # atno 8008 bound_to 7997
  154.4074  140.1649  156.2233 H   0  0  0  0  0  0  0  0  0  0  0  0  # atno 8009 bound_to 7997
  155.9376  140.3387  155.6304 H   0  0  0  0  0  0  0  0  0  0  0  0  # atno 8010 bound_to 7997
  140.7286  143.4256  151.0882 H   0  0  0  0  0  0  0  0  0  0  0  0  # atno 10167 bound_to 10162
  157.6235  131.1009  150.7297 H   0  0  0  0  0  0  0  0  0  0  0  0  # atno 10718 bound_to 10713
  153.7353  135.3232  155.3294 H   0  0  0  0  0  0  0  0  0  0  0  0  # atno 10763 bound_to 10752
  154.8313  135.4532  154.1081 H   0  0  0  0  0  0  0  0  0  0  0  0  # atno 10764 bound_to 10752
  153.2240  135.6952  153.8048 H   0  0  0  0  0  0  0  0  0  0  0  0  # atno 10765 bound_to 10752
  140.7652  134.3253  157.5091 H   0  0  0  0  0  0  0  0  0  0  0  0  # atno 11005 bound_to 11000
  145.3121  141.0222  143.3548 LP  0  0  0  0  0  0  0  0  0  0  0  0  # atno 17320 bound_to 7965
  144.8928  139.4752  143.6670 LP  0  0  0  0  0  0  0  0  0  0  0  0  # atno 17321 bound_to 7965
  139.7907  143.8222  152.3151 LP  0  0  0  0  0  0  0  0  0  0  0  0  # atno 17342 bound_to 10162
  139.8205  144.7297  150.9578 LP  0  0  0  0  0  0  0  0  0  0  0  0  # atno 17343 bound_to 10162
  156.7650  130.4811  149.5429 LP  0  0  0  0  0  0  0  0  0  0  0  0  # atno 17370 bound_to 10713
  156.1394  130.6234  151.0446 LP  0  0  0  0  0  0  0  0  0  0  0  0  # atno 17371 bound_to 10713
  139.8764  134.9226  156.3305 LP  0  0  0  0  0  0  0  0  0  0  0  0  # atno 17394 bound_to 11000
  140.9626  133.7379  156.0422 LP  0  0  0  0  0  0  0  0  0  0  0  0  # atno 17395 bound_to 11000

$$$$
