AV-unprocessed.smi:149|AV-procd|sdf|1240|dock1
  -GOLD-   2262018453D 1   1.00000     0.00000
 Structure written by MMmdl.
 59 63  0  0  0  0  0  0  0  0  1 V2000
  149.7670  143.8643  159.1755 C   0  0  0  0  0  0  0  0  0  0  0  0
  150.5501  143.1289  158.0740 C   0  0  2  0  0  0  0  0  0  0  0  0
  149.8418  141.9356  157.4406 C   0  0  0  0  0  0  0  0  0  0  0  0
  150.8991  141.2194  156.7415 N   0  0  0  0  0  0  0  0  0  0  0  0
  150.6412  140.0287  156.1382 C   0  0  0  0  0  0  0  0  0  0  0  0
  150.7260  139.9501  154.7831 N   0  0  0  0  0  0  0  0  0  0  0  0
  150.4837  138.7988  154.1511 C   0  0  0  0  0  0  0  0  0  0  0  0
  150.1471  137.6181  154.6706 N   0  0  0  0  0  0  0  0  0  0  0  0
  150.0658  137.6819  156.0298 C   0  0  0  0  0  0  0  0  0  0  0  0
  150.3017  138.8319  156.8378 C   0  0  0  0  0  0  0  0  0  0  0  0
  150.1518  138.4951  158.1793 N   0  0  0  0  0  0  0  0  0  0  0  0
  149.8431  137.2279  158.1634 C   0  0  0  0  0  0  0  0  0  0  0  0
  149.7400  136.6665  156.9117 N   0  0  0  0  0  0  0  0  0  0  0  0
  149.4561  135.2953  156.6061 C   0  0  0  0  0  0  0  0  0  0  0  0
  150.4433  134.4435  155.8047 C   0  0  0  0  0  0  0  0  0  0  0  0
  149.2608  133.6606  155.1934 C   0  0  0  0  0  0  0  0  0  0  0  0
  149.3921  133.3422  153.6946 C   0  0  0  0  0  0  0  0  0  0  0  0
  148.1502  132.9564  153.1414 O   0  0  0  0  0  0  0  0  0  0  0  0
  148.8630  132.3782  155.9517 C   0  0  0  0  0  0  0  0  0  0  0  0
  149.8474  131.3729  155.8182 O   0  0  0  0  0  0  0  0  0  0  0  0
  148.4272  134.9156  155.5384 C   0  0  0  0  0  0  0  0  0  0  0  0
  152.1675  141.4246  157.4310 C   0  0  0  0  0  0  0  0  0  0  0  0
  151.9527  142.5889  158.4244 C   0  0  2  0  0  0  0  0  0  0  0  0
  152.2229  142.2792  159.8386 N   0  0  0  0  0  0  0  0  0  0  0  0
  153.3790  141.4110  160.0755 C   0  0  0  0  0  0  0  0  0  0  0  0
  153.5293  141.0707  161.5672 C   0  0  0  0  0  0  0  0  0  0  0  0
  153.6371  142.2749  162.3203 O   0  0  0  0  0  0  0  0  0  0  0  0
  152.5142  143.1343  162.1498 C   0  0  0  0  0  0  0  0  0  0  0  0
  152.3448  143.4797  160.6599 C   0  0  0  0  0  0  0  0  0  0  0  0
  149.4814  143.2105  159.9974 H   0  0  0  0  0  0  0  0  0  0  0  0
  148.8497  144.2936  158.7723 H   0  0  0  0  0  0  0  0  0  0  0  0
  150.3571  144.6821  159.5899 H   0  0  0  0  0  0  0  0  0  0  0  0
  150.6989  143.8524  157.2703 H   0  0  0  0  0  0  0  0  0  0  0  0
  149.3959  141.2925  158.1999 H   0  0  0  0  0  0  0  0  0  0  0  0
  149.0556  142.2572  156.7563 H   0  0  0  0  0  0  0  0  0  0  0  0
  150.5711  138.8285  153.0752 H   0  0  0  0  0  0  0  0  0  0  0  0
  149.6764  136.6670  159.0716 H   0  0  0  0  0  0  0  0  0  0  0  0
  149.2182  134.8184  157.5583 H   0  0  0  0  0  0  0  0  0  0  0  0
  150.9943  135.0294  155.0662 H   0  0  0  0  0  0  0  0  0  0  0  0
  151.1230  133.8463  156.4133 H   0  0  0  0  0  0  0  0  0  0  0  0
  149.7813  134.1929  153.1348 H   0  0  0  0  0  0  0  0  0  0  0  0
  150.0948  132.5240  153.5333 H   0  0  0  0  0  0  0  0  0  0  0  0
  148.2627  132.8281  152.2119 H   0  0  0  0  0  0  0  0  0  0  0  0
  148.7025  132.5742  157.0121 H   0  0  0  0  0  0  0  0  0  0  0  0
  147.9234  131.9735  155.5755 H   0  0  0  0  0  0  0  0  0  0  0  0
  150.1479  131.3649  154.9223 H   0  0  0  0  0  0  0  0  0  0  0  0
  147.4286  134.7168  155.9287 H   0  0  0  0  0  0  0  0  0  0  0  0
  148.3881  135.6381  154.7209 H   0  0  0  0  0  0  0  0  0  0  0  0
  152.5052  140.5085  157.9143 H   0  0  0  0  0  0  0  0  0  0  0  0
  152.9255  141.7019  156.6980 H   0  0  0  0  0  0  0  0  0  0  0  0
  152.6468  143.3838  158.1465 H   0  0  0  0  0  0  0  0  0  0  0  0
  153.2966  140.4873  159.5071 H   0  0  0  0  0  0  0  0  0  0  0  0
  154.2955  141.8948  159.7395 H   0  0  0  0  0  0  0  0  0  0  0  0
  152.6767  140.4872  161.9182 H   0  0  0  0  0  0  0  0  0  0  0  0
  154.4219  140.4668  161.7303 H   0  0  0  0  0  0  0  0  0  0  0  0
  151.6168  142.6498  162.5376 H   0  0  0  0  0  0  0  0  0  0  0  0
  152.6663  144.0413  162.7350 H   0  0  0  0  0  0  0  0  0  0  0  0
  153.1981  144.0737  160.3298 H   0  0  0  0  0  0  0  0  0  0  0  0
  151.4612  144.1065  160.5364 H   0  0  0  0  0  0  0  0  0  0  0  0
  1  2  1  0  0  0  0
  1 30  1  0  0  0  0
  1 31  1  0  0  0  0
  1 32  1  0  0  0  0
  2 23  1  0  0  0  0
  2  3  1  0  0  0  0
  2 33  1  0  0  0  0
  3  4  1  0  0  0  0
  3 34  1  0  0  0  0
  3 35  1  0  0  0  0
  4  5  1  0  0  0  0
  4 22  1  0  0  0  0
  5 10  1  0  0  0  0
  5  6  2  0  0  0  0
  6  7  1  0  0  0  0
  7  8  2  0  0  0  0
  7 36  1  0  0  0  0
  8  9  1  0  0  0  0
  9 13  1  0  0  0  0
  9 10  2  0  0  0  0
 10 11  1  0  0  0  0
 11 12  2  0  0  0  0
 12 13  1  0  0  0  0
 12 37  1  0  0  0  0
 13 14  1  0  0  0  0
 14 21  1  0  0  0  0
 14 15  1  0  0  0  0
 14 38  1  0  0  0  0
 15 16  1  0  0  0  0
 15 39  1  0  0  0  0
 15 40  1  0  0  0  0
 16 17  1  0  0  0  0
 16 19  1  0  0  0  0
 16 21  1  0  0  0  0
 17 18  1  0  0  0  0
 17 41  1  0  0  0  0
 17 42  1  0  0  0  0
 18 43  1  0  0  0  0
 19 20  1  0  0  0  0
 19 44  1  0  0  0  0
 19 45  1  0  0  0  0
 20 46  1  0  0  0  0
 21 47  1  0  0  0  0
 21 48  1  0  0  0  0
 22 23  1  0  0  0  0
 22 49  1  0  0  0  0
 22 50  1  0  0  0  0
 23 24  1  0  0  0  0
 23 51  1  0  0  0  0
 24 29  1  0  0  0  0
 24 25  1  0  0  0  0
 25 26  1  0  0  0  0
 25 52  1  0  0  0  0
 25 53  1  0  0  0  0
 26 27  1  0  0  0  0
 26 54  1  0  0  0  0
 26 55  1  0  0  0  0
 27 28  1  0  0  0  0
 28 29  1  0  0  0  0
 28 56  1  0  0  0  0
 28 57  1  0  0  0  0
 29 58  1  0  0  0  0
 29 59  1  0  0  0  0
M  END
> <s_m_source_file>
AV-unprocessed.smi

> <i_m_source_file_index>
149

> <i_lp_mmshare_version>
43012

> <i_f3d_flags>
0

> <s_epik_input>
W0NIMl0xW0NIMl1PW0NIMl1bQ0gyXU4xW0NAQEhdMltDSDJdTihbQ0gyXVtDQEhdMltDSDNdKWMobltjSF1uMyljKGMzNCluW2NIXW40W0NIXShbQ0gyXTUpW0NIMl1DNShbQ0gyXVtPSF0pW0NIMl1bT0hd

> <s_epik_cmdline>
J2VwaWtfcHl0aG9uJywgJy1waCcsICc3LjAnLCAnLXRuJywgJzgnLCAnLW1hJywgJzIwMCcsICctbWV0YWxfYmluZGluZycsICctaW1hZScsICc8aW5maWxlLm1hZT4nLCAnLW9tYWUnLCAnPG91dGZpbGUubWFlPic=

> <r_lp_tautomer_probability>
1

> <r_epik_Ionization_Penalty>
0.41918

> <r_epik_Ionization_Penalty_Charging>
0

> <r_epik_Ionization_Penalty_Neutral>
0.41918

> <r_epik_State_Penalty>
0.654916

> <r_epik_Charging_Adjusted_Penalty>
0.654916

> <i_epik_Tot_Q>
0

> <i_epik_Tot_abs_Q>
0

> <r_epik_Metal_State_Penalty>
0.653217

> <b_epik_Metal_Only>
0

> <s_lp_Force_Field>
OPLS_2005

> <r_lp_Energy>
80.6686

> <b_lp_Chiralities_Consistent>
1

> <s_lp_Variant>
AV-unprocessed.smi:149-7

> <Gold.Version>
5.8.1

> <Gold.Id.Protein>
6NUR|6NUR_protein|mol2

> <Gold.PLP.Fitness>
45.0318

> <Gold.PLP.PLP>
-39.5012

> <Gold.PLP.part.hbond>
-1.7912

> <Gold.PLP.part.metal>
0.0000

> <Gold.PLP.part.buried>
-9.0753

> <Gold.PLP.part.nonpolar>
-28.8122

> <Gold.PLP.part.repulsive>
0.3270

> <Gold.PLP.ligand.clash>
0.0207

> <Gold.PLP.ligand.torsion>
0.7889

> <Gold.PLP.Chemscore.Hbond>
1.0000

> <Gold.PLP.Chemscore.CHOScore>
1.0000

> <Gold.PLP.Chemscore.Metal>
0.0000

> <Gold.Chemscore.Hbonds>
donor molecule, donor type, donor heavy atom, donor atom, acceptor molecule, acceptor atom, score
      P1  H  7989  7998       L1     6  1.00
      L1  C     7    36       P1  7957  1.00

> <Gold.PLP.Chemscore.Internal.Correction>
1.1291

> <Gold.Rescore>
     Score         DG    S(hbond)    S(metal)    S(lipo)     H(rot)  DE(clash)    DE(int)     intcor
      9.20     -12.40       0.82        0.00     108.86       3.34       1.17       2.02       ----

> <Gold.Chemscore.Fitness>
9.2021

> <Gold.Chemscore.DG>
-12.3995

> <Gold.Chemscore.ZeroCoef>
-5.4800

> <Gold.Chemscore.Hbond>
0.8195

> <Gold.Chemscore.Metal>
0.0000

> <Gold.Chemscore.Lipo>
108.8625

> <Gold.Chemscore.Internal_Hbond>
0.0000

> <Gold.Chemscore.DEClash>
1.1742

> <Gold.Chemscore.DEInternal>
2.0233

> <Gold.Chemscore.Rot>
3.3416

> <Gold.Chemscore.Internal.Correction>
   9.000000E+99

> <Gold.Chemscore.Hbonds>
donor molecule, donor type, donor heavy atom, donor atom, acceptor molecule, acceptor atom, score
      P1  H  7989  7998       L1     6  0.30

> <Gold.Chemscore.Hbond.Weighted>
-2.7371

> <Gold.Chemscore.Metal.Weighted>
-0.0000

> <Gold.Chemscore.Lipo.Weighted>
-12.7369

> <Gold.Chemscore.Internal_Hbond.Weighted>
0.0000

> <Gold.Chemscore.DEClash.Weighted>
1.1742

> <Gold.Chemscore.DEInternal.Weighted>
2.0233

> <Gold.Chemscore.Rot.Weighted>
8.5545

> <Gold.Chemscore.Internal.Correction.Weighted>
   9.000000E+99

> <Gold.Protein.RotatedTorsions>
[ 6907 6896 6895 6894 ] final   21.39 input  -60.11 | X-H torsion
[ 7974 7965 7964 7962 ] final   -0.14 input  175.53 | X-H torsion
[ 8008 7997 7996 7995 ] final  108.79 input   59.86 | X-H torsion
[ 10167 10162 10161 10158 ] final -170.84 input  -65.29 | X-H torsion
[ 10718 10713 10712 10709 ] final  -74.51 input   66.30 | X-H torsion
[ 10763 10752 10751 10750 ] final   60.20 input  -60.55 | X-H torsion
[ 11005 11000 10999 10996 ] final   79.03 input  -57.11 | X-H torsion

> <Gold.Protein.ActiveResidues>
 VAL166  LYS551  ARG553  GLY616  TRP617  ASP618  TYR619  PRO620  LYS621  CYS622 
 ASP623  PHE694  ASN695  SER759  ASP760  ASP761  ALA762  ILE779  LEU786  VAL792 
 PHE793  MET794  SER795  GLU796  ALA797  LYS798  CYS799  TRP800  GLU811  SER814 

> <Gold.Protein.RotatedAtoms>
  151.9111  135.0338  160.0514 H   0  0  0  0  0  0  0  0  0  0  0  0  # atno 6907 bound_to 6896
  152.2278  133.5030  159.5207 H   0  0  0  0  0  0  0  0  0  0  0  0  # atno 6908 bound_to 6896
  150.7017  134.1173  159.4064 H   0  0  0  0  0  0  0  0  0  0  0  0  # atno 6909 bound_to 6896
  146.2430  140.1225  142.8340 H   0  0  0  0  0  0  0  0  0  0  0  0  # atno 7974 bound_to 7965
  156.1930  140.3070  155.9370 H   0  0  0  0  0  0  0  0  0  0  0  0  # atno 8008 bound_to 7997
  155.3131  140.0452  157.3053 H   0  0  0  0  0  0  0  0  0  0  0  0  # atno 8009 bound_to 7997
  154.5475  140.2281  155.8549 H   0  0  0  0  0  0  0  0  0  0  0  0  # atno 8010 bound_to 7997
  139.5837  144.1365  152.1548 H   0  0  0  0  0  0  0  0  0  0  0  0  # atno 10167 bound_to 10162
  156.0240  130.4419  150.2904 H   0  0  0  0  0  0  0  0  0  0  0  0  # atno 10718 bound_to 10713
  152.9914  135.5544  154.5836 H   0  0  0  0  0  0  0  0  0  0  0  0  # atno 10763 bound_to 10752
  154.5212  135.2808  155.1263 H   0  0  0  0  0  0  0  0  0  0  0  0  # atno 10764 bound_to 10752
  154.2616  135.6380  153.5329 H   0  0  0  0  0  0  0  0  0  0  0  0  # atno 10765 bound_to 10752
  139.9189  134.7811  156.1726 H   0  0  0  0  0  0  0  0  0  0  0  0  # atno 11005 bound_to 11000
  145.0394  140.8933  143.5061 LP  0  0  0  0  0  0  0  0  0  0  0  0  # atno 17320 bound_to 7965
  145.1303  139.2636  143.5543 LP  0  0  0  0  0  0  0  0  0  0  0  0  # atno 17321 bound_to 7965
  140.0924  144.5609  150.7045 LP  0  0  0  0  0  0  0  0  0  0  0  0  # atno 17342 bound_to 10162
  140.7112  143.2507  151.4575 LP  0  0  0  0  0  0  0  0  0  0  0  0  # atno 17343 bound_to 10162
  157.1007  131.0195  151.3086 LP  0  0  0  0  0  0  0  0  0  0  0  0  # atno 17370 bound_to 10713
  157.4782  130.7749  149.7388 LP  0  0  0  0  0  0  0  0  0  0  0  0  # atno 17371 bound_to 10713
  141.0691  133.6805  156.2104 LP  0  0  0  0  0  0  0  0  0  0  0  0  # atno 17394 bound_to 11000
  140.6537  134.5041  157.5579 LP  0  0  0  0  0  0  0  0  0  0  0  0  # atno 17395 bound_to 11000

$$$$
