AV-unprocessed.smi:1514|AV-procd|sdf|6116|dock4
  -GOLD-   22720 6253D 1   1.00000     0.00000
 Structure written by MMmdl.
 47 48  0  0  0  0  0  0  0  0  1 V2000
  153.3042  142.6927  159.8114 C   0  0  0  0  0  0  0  0  0  0  0  0
  151.8943  142.7555  159.2070 C   0  0  0  0  0  0  0  0  0  0  0  0
  151.7564  142.1193  157.8986 N   0  0  0  0  0  0  0  0  0  0  0  0
  150.3605  142.1200  157.4613 C   0  0  0  0  0  0  0  0  0  0  0  0
  150.1972  141.4706  156.0745 C   0  0  0  0  0  0  0  0  0  0  0  0
  150.6785  140.0866  156.0678 N   0  0  0  0  0  0  0  0  0  0  0  0
  150.5453  139.4541  154.7573 C   0  0  0  0  0  0  0  0  0  0  0  0
  151.5130  138.2881  154.4985 C   0  0  0  0  0  0  0  0  0  0  0  0
  150.7788  137.1165  154.0427 N   0  0  0  0  0  0  0  0  0  0  0  0
  150.9345  135.8828  154.5411 C   0  0  0  0  0  0  0  0  0  0  0  0
  151.7174  135.6148  155.4527 O   0  0  0  0  0  0  0  0  0  0  0  0
  150.1297  135.0041  153.9182 N   0  0  0  0  0  0  0  0  0  0  0  0
  150.0265  133.6620  154.1085 C   0  0  0  0  0  0  0  0  0  0  0  0
  150.7410  132.8537  154.9502 C   0  0  0  0  0  0  0  0  0  0  0  0
  150.1868  131.5659  154.6932 C   0  0  0  0  0  0  0  0  0  0  0  0
  150.5660  130.2549  155.3163 C   0  0  0  0  0  0  0  0  0  0  0  0
  149.2220  131.5959  153.7808 N   0  0  0  0  0  0  0  0  0  0  0  0
  149.1207  132.8917  153.4141 N   0  0  0  0  0  0  0  0  0  0  0  0
  148.1488  133.2891  152.4142 C   0  0  0  0  0  0  0  0  0  0  0  0
  152.0740  140.0858  156.5075 C   0  0  0  0  0  0  0  0  0  0  0  0
  152.2359  140.7351  157.8944 C   0  0  0  0  0  0  0  0  0  0  0  0
  153.3524  143.2771  160.7302 H   0  0  0  0  0  0  0  0  0  0  0  0
  154.0457  143.0984  159.1225 H   0  0  0  0  0  0  0  0  0  0  0  0
  153.5963  141.6730  160.0616 H   0  0  0  0  0  0  0  0  0  0  0  0
  151.1776  142.3245  159.9075 H   0  0  0  0  0  0  0  0  0  0  0  0
  151.6264  143.8090  159.1145 H   0  0  0  0  0  0  0  0  0  0  0  0
  149.7404  141.5919  158.1875 H   0  0  0  0  0  0  0  0  0  0  0  0
  149.9878  143.1440  157.4207 H   0  0  0  0  0  0  0  0  0  0  0  0
  149.1435  141.5050  155.8004 H   0  0  0  0  0  0  0  0  0  0  0  0
  150.7345  142.0586  155.3286 H   0  0  0  0  0  0  0  0  0  0  0  0
  149.5176  139.1155  154.6150 H   0  0  0  0  0  0  0  0  0  0  0  0
  150.7221  140.2068  153.9876 H   0  0  0  0  0  0  0  0  0  0  0  0
  152.2479  138.5745  153.7442 H   0  0  0  0  0  0  0  0  0  0  0  0
  152.0602  138.0236  155.4035 H   0  0  0  0  0  0  0  0  0  0  0  0
  150.1145  137.2542  153.2952 H   0  0  0  0  0  0  0  0  0  0  0  0
  149.5297  135.3831  153.2005 H   0  0  0  0  0  0  0  0  0  0  0  0
  151.5307  133.1171  155.6375 H   0  0  0  0  0  0  0  0  0  0  0  0
  151.4543  130.3572  155.9396 H   0  0  0  0  0  0  0  0  0  0  0  0
  150.7811  129.5048  154.5547 H   0  0  0  0  0  0  0  0  0  0  0  0
  149.7614  129.8721  155.9443 H   0  0  0  0  0  0  0  0  0  0  0  0
  148.6470  133.8418  151.6174 H   0  0  0  0  0  0  0  0  0  0  0  0
  147.3934  133.9274  152.8730 H   0  0  0  0  0  0  0  0  0  0  0  0
  147.6599  132.4139  151.9839 H   0  0  0  0  0  0  0  0  0  0  0  0
  152.4460  139.0616  156.5492 H   0  0  0  0  0  0  0  0  0  0  0  0
  152.6956  140.6133  155.7822 H   0  0  0  0  0  0  0  0  0  0  0  0
  153.2893  140.7003  158.1706 H   0  0  0  0  0  0  0  0  0  0  0  0
  151.6967  140.1484  158.6399 H   0  0  0  0  0  0  0  0  0  0  0  0
  1  2  1  0  0  0  0
  1 22  1  0  0  0  0
  1 23  1  0  0  0  0
  1 24  1  0  0  0  0
  2  3  1  0  0  0  0
  2 25  1  0  0  0  0
  2 26  1  0  0  0  0
  3 21  1  0  0  0  0
  3  4  1  0  0  0  0
  4  5  1  0  0  0  0
  4 27  1  0  0  0  0
  4 28  1  0  0  0  0
  5  6  1  0  0  0  0
  5 29  1  0  0  0  0
  5 30  1  0  0  0  0
  6  7  1  0  0  0  0
  6 20  1  0  0  0  0
  7  8  1  0  0  0  0
  7 31  1  0  0  0  0
  7 32  1  0  0  0  0
  8  9  1  0  0  0  0
  8 33  1  0  0  0  0
  8 34  1  0  0  0  0
  9 10  1  0  0  0  0
  9 35  1  0  0  0  0
 10 11  2  0  0  0  0
 10 12  1  0  0  0  0
 12 13  1  0  0  0  0
 12 36  1  0  0  0  0
 13 18  1  0  0  0  0
 13 14  2  0  0  0  0
 14 15  1  0  0  0  0
 14 37  1  0  0  0  0
 15 16  1  0  0  0  0
 15 17  2  0  0  0  0
 16 38  1  0  0  0  0
 16 39  1  0  0  0  0
 16 40  1  0  0  0  0
 17 18  1  0  0  0  0
 18 19  1  0  0  0  0
 19 41  1  0  0  0  0
 19 42  1  0  0  0  0
 19 43  1  0  0  0  0
 20 21  1  0  0  0  0
 20 44  1  0  0  0  0
 20 45  1  0  0  0  0
 21 46  1  0  0  0  0
 21 47  1  0  0  0  0
M  END
> <s_m_source_file>
AV-unprocessed.smi

> <i_m_source_file_index>
1514

> <i_lp_mmshare_version>
43012

> <i_f3d_flags>
0

> <s_epik_input>
W0NIM11bQ0gyXU4xW0NIMl1bQ0gyXU4oW0NIMl1bQ0gyXTEpW0NIMl1bQ0gyXVtOSF1DKD1PKVtOSF1jMltjSF1jKFtDSDNdKW5uMltDSDNd

> <s_epik_cmdline>
J2VwaWtfcHl0aG9uJywgJy1waCcsICc3LjAnLCAnLXRuJywgJzgnLCAnLW1hJywgJzIwMCcsICctbWV0YWxfYmluZGluZycsICctaW1hZScsICc8aW5maWxlLm1hZT4nLCAnLW9tYWUnLCAnPG91dGZpbGUubWFlPic=

> <r_lp_tautomer_probability>
1

> <r_epik_Ionization_Penalty>
2.12169

> <r_epik_Ionization_Penalty_Charging>
0

> <r_epik_Ionization_Penalty_Neutral>
2.12169

> <r_epik_State_Penalty>
1.63644

> <r_epik_Charging_Adjusted_Penalty>
1.63644

> <i_epik_Tot_Q>
0

> <i_epik_Tot_abs_Q>
0

> <r_epik_Metal_State_Penalty>
1.63644

> <b_epik_Metal_Only>
0

> <s_lp_Force_Field>
OPLS_2005

> <r_lp_Energy>
34.6539

> <b_lp_Chiralities_Consistent>
1

> <s_lp_Variant>
AV-unprocessed.smi:1514-3

> <Gold.Version>
5.8.1

> <Gold.Id.Protein>
6NUR|6NUR_protein|mol2

> <Gold.PLP.Fitness>
46.8154

> <Gold.PLP.PLP>
-39.6031

> <Gold.PLP.part.hbond>
-4.8151

> <Gold.PLP.part.metal>
0.0000

> <Gold.PLP.part.buried>
-1.2516

> <Gold.PLP.part.nonpolar>
-34.0169

> <Gold.PLP.part.repulsive>
0.2717

> <Gold.PLP.ligand.clash>
0.0000

> <Gold.PLP.ligand.torsion>
0.7181

> <Gold.PLP.Chemscore.Hbond>
2.8480

> <Gold.PLP.Chemscore.CHOScore>
0.0000

> <Gold.PLP.Chemscore.Metal>
0.0000

> <Gold.Chemscore.Hbonds>
donor molecule, donor type, donor heavy atom, donor atom, acceptor molecule, acceptor atom, score
      L1  H     9    35       P1  7948  0.71
      L1  H    12    36       P1  7948  0.50
      P1  H 10752 10763       L1    11  0.89

> <Gold.PLP.Chemscore.Internal.Correction>
0.1046

> <Gold.Rescore>
     Score         DG    S(hbond)    S(metal)    S(lipo)     H(rot)  DE(clash)    DE(int)     intcor
     16.28     -18.16       2.11        0.00      84.10       1.64       0.12       1.75       ----

> <Gold.Chemscore.Fitness>
16.2826

> <Gold.Chemscore.DG>
-18.1568

> <Gold.Chemscore.ZeroCoef>
-5.4800

> <Gold.Chemscore.Hbond>
2.1087

> <Gold.Chemscore.Metal>
0.0000

> <Gold.Chemscore.Lipo>
84.1031

> <Gold.Chemscore.Internal_Hbond>
0.0000

> <Gold.Chemscore.DEClash>
0.1194

> <Gold.Chemscore.DEInternal>
1.7548

> <Gold.Chemscore.Rot>
1.6432

> <Gold.Chemscore.Internal.Correction>
   9.000000E+99

> <Gold.Chemscore.Hbonds>
donor molecule, donor type, donor heavy atom, donor atom, acceptor molecule, acceptor atom, score
      L1  H     9    35       P1  7948  0.13
      L1  H    12    36       P1  7948  0.02
      P1  H 10752 10763       L1    11  0.75

> <Gold.Chemscore.Hbond.Weighted>
-7.0432

> <Gold.Chemscore.Metal.Weighted>
-0.0000

> <Gold.Chemscore.Lipo.Weighted>
-9.8401

> <Gold.Chemscore.Internal_Hbond.Weighted>
0.0000

> <Gold.Chemscore.DEClash.Weighted>
0.1194

> <Gold.Chemscore.DEInternal.Weighted>
1.7548

> <Gold.Chemscore.Rot.Weighted>
4.2065

> <Gold.Chemscore.Internal.Correction.Weighted>
   9.000000E+99

> <Gold.Protein.RotatedTorsions>
[ 6907 6896 6895 6894 ] final   54.11 input  -60.11 | X-H torsion
[ 7974 7965 7964 7962 ] final   -5.95 input  175.53 | X-H torsion
[ 8008 7997 7996 7995 ] final  -93.32 input   59.86 | X-H torsion
[ 10167 10162 10161 10158 ] final  108.32 input  -65.29 | X-H torsion
[ 10718 10713 10712 10709 ] final -127.29 input   66.30 | X-H torsion
[ 10763 10752 10751 10750 ] final   91.44 input  -60.55 | X-H torsion
[ 11005 11000 10999 10996 ] final  160.31 input  -57.11 | X-H torsion

> <Gold.Protein.ActiveResidues>
 VAL166  LYS551  ARG553  GLY616  TRP617  ASP618  TYR619  PRO620  LYS621  CYS622 
 ASP623  PHE694  ASN695  SER759  ASP760  ASP761  ALA762  ILE779  LEU786  VAL792 
 PHE793  MET794  SER795  GLU796  ALA797  LYS798  CYS799  TRP800  GLU811  SER814 

> <Gold.Protein.RotatedAtoms>
  152.3405  134.7140  160.0264 H   0  0  0  0  0  0  0  0  0  0  0  0  # atno 6907 bound_to 6896
  151.7527  133.3323  159.3404 H   0  0  0  0  0  0  0  0  0  0  0  0  # atno 6908 bound_to 6896
  150.7477  134.6110  159.6131 H   0  0  0  0  0  0  0  0  0  0  0  0  # atno 6909 bound_to 6896
  146.2342  140.2097  142.8335 H   0  0  0  0  0  0  0  0  0  0  0  0  # atno 7974 bound_to 7965
  154.7341  140.0500  157.0753 H   0  0  0  0  0  0  0  0  0  0  0  0  # atno 8008 bound_to 7997
  155.0263  140.3153  155.4755 H   0  0  0  0  0  0  0  0  0  0  0  0  # atno 8009 bound_to 7997
  156.2849  140.2158  156.5383 H   0  0  0  0  0  0  0  0  0  0  0  0  # atno 8010 bound_to 7997
  139.6856  144.7114  151.1438 H   0  0  0  0  0  0  0  0  0  0  0  0  # atno 10167 bound_to 10162
  156.1844  130.6753  151.0345 H   0  0  0  0  0  0  0  0  0  0  0  0  # atno 10718 bound_to 10713
  153.2083  135.4397  155.0349 H   0  0  0  0  0  0  0  0  0  0  0  0  # atno 10763 bound_to 10752
  154.8186  135.3327  154.7107 H   0  0  0  0  0  0  0  0  0  0  0  0  # atno 10764 bound_to 10752
  153.7547  135.6996  153.4994 H   0  0  0  0  0  0  0  0  0  0  0  0  # atno 10765 bound_to 10752
  140.2046  134.8312  157.3056 H   0  0  0  0  0  0  0  0  0  0  0  0  # atno 11005 bound_to 11000
  144.9716  140.8374  143.5452 LP  0  0  0  0  0  0  0  0  0  0  0  0  # atno 17320 bound_to 7965
  145.2080  139.2219  143.5158 LP  0  0  0  0  0  0  0  0  0  0  0  0  # atno 17321 bound_to 7965
  140.7666  143.5634  150.9073 LP  0  0  0  0  0  0  0  0  0  0  0  0  # atno 17342 bound_to 10162
  139.9309  143.6494  152.3076 LP  0  0  0  0  0  0  0  0  0  0  0  0  # atno 17343 bound_to 10162
  157.6889  131.0816  150.7164 LP  0  0  0  0  0  0  0  0  0  0  0  0  # atno 17370 bound_to 10713
  156.7221  130.4684  149.5520 LP  0  0  0  0  0  0  0  0  0  0  0  0  # atno 17371 bound_to 10713
  140.2016  134.4247  155.7659 LP  0  0  0  0  0  0  0  0  0  0  0  0  # atno 17394 bound_to 11000
  141.2227  133.7075  156.8193 LP  0  0  0  0  0  0  0  0  0  0  0  0  # atno 17395 bound_to 11000

$$$$
