AV-unprocessed.smi:355|AV-procd|sdf|2407|dock8
  -GOLD-   2262022343D 1   1.00000     0.00000
 Structure written by MMmdl.
 39 40  0  0  0  0  0  0  0  0  1 V2000
  153.3505  142.3891  161.6220 C   0  0  0  0  0  0  0  0  0  0  0  0
  152.5745  142.7236  160.3647 C   0  0  0  0  0  0  0  0  0  0  0  0
  152.5034  144.0555  159.9103 C   0  0  0  0  0  0  0  0  0  0  0  0
  151.7815  144.3618  158.7421 C   0  0  0  0  0  0  0  0  0  0  0  0
  151.1294  143.3386  158.0285 C   0  0  0  0  0  0  0  0  0  0  0  0
  151.1868  142.0014  158.4712 C   0  0  0  0  0  0  0  0  0  0  0  0
  150.5190  141.0647  157.7125 O   0  0  0  0  0  0  0  0  0  0  0  0
  149.3814  141.4815  156.9707 C   0  0  0  0  0  0  0  0  0  0  0  0
  148.7923  140.2910  156.1877 C   0  0  0  0  0  0  0  0  0  0  0  0
  149.1696  138.9834  156.7771 N   0  0  0  0  0  0  0  0  0  0  0  0
  150.3338  138.2958  156.3076 C   0  0  0  0  0  0  0  0  0  0  0  0
  151.1445  138.8836  155.1426 C   0  0  0  0  0  0  0  0  0  0  0  0
  152.1640  138.0885  154.8148 F   0  0  0  0  0  0  0  0  0  0  0  0
  150.3866  139.0059  154.0524 F   0  0  0  0  0  0  0  0  0  0  0  0
  151.6713  140.0694  155.4451 F   0  0  0  0  0  0  0  0  0  0  0  0
  150.7036  137.1369  156.8835 C   0  0  0  0  0  0  0  0  0  0  0  0
  149.9300  136.5850  157.9605 C   0  0  0  0  0  0  0  0  0  0  0  0
  148.8108  137.2066  158.3960 C   0  0  0  0  0  0  0  0  0  0  0  0
  147.9804  136.6754  159.5015 C   0  0  0  0  0  0  0  0  0  0  0  0
  148.2914  135.4269  159.8722 N   0  0  0  0  0  0  0  0  0  0  0  0
  147.0651  137.2547  160.0863 O   0  0  0  0  0  0  0  0  0  0  0  0
  148.3639  138.4799  157.7740 C   0  0  0  0  0  0  0  0  0  0  0  0
  147.3382  139.0809  158.1070 O   0  0  0  0  0  0  0  0  0  0  0  0
  151.9170  141.7013  159.6492 C   0  0  0  0  0  0  0  0  0  0  0  0
  154.1148  143.1407  161.8229 H   0  0  0  0  0  0  0  0  0  0  0  0
  153.8461  141.4226  161.5245 H   0  0  0  0  0  0  0  0  0  0  0  0
  152.6778  142.3458  162.4787 H   0  0  0  0  0  0  0  0  0  0  0  0
  153.0011  144.8448  160.4546 H   0  0  0  0  0  0  0  0  0  0  0  0
  151.7268  145.3822  158.3926 H   0  0  0  0  0  0  0  0  0  0  0  0
  150.5770  143.5824  157.1328 H   0  0  0  0  0  0  0  0  0  0  0  0
  148.6240  141.8582  157.6597 H   0  0  0  0  0  0  0  0  0  0  0  0
  149.6500  142.2919  156.2922 H   0  0  0  0  0  0  0  0  0  0  0  0
  147.7091  140.4037  156.1164 H   0  0  0  0  0  0  0  0  0  0  0  0
  149.0982  140.3691  155.1493 H   0  0  0  0  0  0  0  0  0  0  0  0
  151.5752  136.5980  156.5427 H   0  0  0  0  0  0  0  0  0  0  0  0
  150.2817  135.6617  158.3967 H   0  0  0  0  0  0  0  0  0  0  0  0
  147.7817  134.9794  160.6197 H   0  0  0  0  0  0  0  0  0  0  0  0
  149.0390  134.9380  159.4013 H   0  0  0  0  0  0  0  0  0  0  0  0
  151.9878  140.6908  160.0221 H   0  0  0  0  0  0  0  0  0  0  0  0
  1  2  1  0  0  0  0
  1 25  1  0  0  0  0
  1 26  1  0  0  0  0
  1 27  1  0  0  0  0
  2 24  1  0  0  0  0
  2  3  2  0  0  0  0
  3  4  1  0  0  0  0
  3 28  1  0  0  0  0
  4  5  2  0  0  0  0
  4 29  1  0  0  0  0
  5  6  1  0  0  0  0
  5 30  1  0  0  0  0
  6  7  1  0  0  0  0
  6 24  2  0  0  0  0
  7  8  1  0  0  0  0
  8  9  1  0  0  0  0
  8 31  1  0  0  0  0
  8 32  1  0  0  0  0
  9 10  1  0  0  0  0
  9 33  1  0  0  0  0
  9 34  1  0  0  0  0
 10 22  1  0  0  0  0
 10 11  1  0  0  0  0
 11 12  1  0  0  0  0
 11 16  2  0  0  0  0
 12 13  1  0  0  0  0
 12 14  1  0  0  0  0
 12 15  1  0  0  0  0
 16 17  1  0  0  0  0
 16 35  1  0  0  0  0
 17 18  2  0  0  0  0
 17 36  1  0  0  0  0
 18 19  1  0  0  0  0
 18 22  1  0  0  0  0
 19 20  1  0  0  0  0
 19 21  2  0  0  0  0
 20 37  1  0  0  0  0
 20 38  1  0  0  0  0
 22 23  2  0  0  0  0
 24 39  1  0  0  0  0
M  END
> <s_m_source_file>
AV-unprocessed.smi

> <i_m_source_file_index>
355

> <i_lp_mmshare_version>
43012

> <i_f3d_flags>
0

> <s_epik_input>
W0NIM11jMVtjSF1bY0hdW2NIXWMoW2NIXTEpT1tDSDJdW0NIMl1uMmMoQyhGKShGKUYpW2NIXVtjSF1jKGMyPU8pQyg9TylbTkgyXQ==

> <s_epik_cmdline>
J2VwaWtfcHl0aG9uJywgJy1waCcsICc3LjAnLCAnLXRuJywgJzgnLCAnLW1hJywgJzIwMCcsICctbWV0YWxfYmluZGluZycsICctaW1hZScsICc8aW5maWxlLm1hZT4nLCAnLW9tYWUnLCAnPG91dGZpbGUubWFlPic=

> <r_lp_tautomer_probability>
1

> <r_epik_Ionization_Penalty>
1.75992e-06

> <r_epik_Ionization_Penalty_Charging>
1.13667e-09

> <r_epik_Ionization_Penalty_Neutral>
1.75878e-06

> <r_epik_State_Penalty>
-0

> <r_epik_Charging_Adjusted_Penalty>
1.13667e-09

> <i_epik_Tot_Q>
0

> <i_epik_Tot_abs_Q>
0

> <r_epik_Metal_State_Penalty>
-0

> <b_epik_Metal_Only>
0

> <s_lp_Force_Field>
OPLS_2005

> <r_lp_Energy>
35.0119

> <b_lp_Chiralities_Consistent>
1

> <s_lp_Variant>
AV-unprocessed.smi:355-1

> <Gold.Version>
5.8.1

> <Gold.Id.Protein>
6NUR|6NUR_protein|mol2

> <Gold.PLP.Fitness>
43.0350

> <Gold.PLP.PLP>
-42.1408

> <Gold.PLP.part.hbond>
-2.0000

> <Gold.PLP.part.metal>
0.0000

> <Gold.PLP.part.buried>
-4.4715

> <Gold.PLP.part.nonpolar>
-35.6579

> <Gold.PLP.part.repulsive>
0.1520

> <Gold.PLP.ligand.clash>
3.6069

> <Gold.PLP.ligand.torsion>
1.0627

> <Gold.PLP.Chemscore.Hbond>
1.0000

> <Gold.PLP.Chemscore.CHOScore>
0.0000

> <Gold.PLP.Chemscore.Metal>
0.0000

> <Gold.Chemscore.Hbonds>
donor molecule, donor type, donor heavy atom, donor atom, acceptor molecule, acceptor atom, score
      P1  H  6934  6947       L1    21  1.00

> <Gold.PLP.Chemscore.Internal.Correction>
3.6265

> <Gold.Rescore>
     Score         DG    S(hbond)    S(metal)    S(lipo)     H(rot)  DE(clash)    DE(int)     intcor
     11.94     -16.08       0.99        0.00     102.66       1.84       0.02       4.12       ----

> <Gold.Chemscore.Fitness>
11.9385

> <Gold.Chemscore.DG>
-16.0816

> <Gold.Chemscore.ZeroCoef>
-5.4800

> <Gold.Chemscore.Hbond>
0.9890

> <Gold.Chemscore.Metal>
0.0000

> <Gold.Chemscore.Lipo>
102.6629

> <Gold.Chemscore.Internal_Hbond>
0.0000

> <Gold.Chemscore.DEClash>
0.0231

> <Gold.Chemscore.DEInternal>
4.1200

> <Gold.Chemscore.Rot>
1.8412

> <Gold.Chemscore.Internal.Correction>
   9.000000E+99

> <Gold.Chemscore.Hbonds>
donor molecule, donor type, donor heavy atom, donor atom, acceptor molecule, acceptor atom, score
      P1  H  6934  6947       L1    21  0.98

> <Gold.Chemscore.Hbond.Weighted>
-3.3034

> <Gold.Chemscore.Metal.Weighted>
-0.0000

> <Gold.Chemscore.Lipo.Weighted>
-12.0116

> <Gold.Chemscore.Internal_Hbond.Weighted>
0.0000

> <Gold.Chemscore.DEClash.Weighted>
0.0231

> <Gold.Chemscore.DEInternal.Weighted>
4.1200

> <Gold.Chemscore.Rot.Weighted>
4.7134

> <Gold.Chemscore.Internal.Correction.Weighted>
   9.000000E+99

> <Gold.Protein.RotatedTorsions>
[ 6907 6896 6895 6894 ] final   35.68 input  -60.11 | X-H torsion
[ 7974 7965 7964 7962 ] final    3.33 input  175.53 | X-H torsion
[ 8008 7997 7996 7995 ] final   30.07 input   59.86 | X-H torsion
[ 10167 10162 10161 10158 ] final   80.62 input  -65.29 | X-H torsion
[ 10718 10713 10712 10709 ] final  123.97 input   66.30 | X-H torsion
[ 10763 10752 10751 10750 ] final -116.59 input  -60.55 | X-H torsion
[ 11005 11000 10999 10996 ] final  176.89 input  -57.11 | X-H torsion

> <Gold.Protein.ActiveResidues>
 VAL166  LYS551  ARG553  GLY616  TRP617  ASP618  TYR619  PRO620  LYS621  CYS622 
 ASP623  PHE694  ASN695  SER759  ASP760  ASP761  ALA762  ILE779  LEU786  VAL792 
 PHE793  MET794  SER795  GLU796  ALA797  LYS798  CYS799  TRP800  GLU811  SER814 

> <Gold.Protein.RotatedAtoms>
  152.1195  134.9216  160.0563 H   0  0  0  0  0  0  0  0  0  0  0  0  # atno 6907 bound_to 6896
  152.0362  133.3953  159.4326 H   0  0  0  0  0  0  0  0  0  0  0  0  # atno 6908 bound_to 6896
  150.6848  134.3386  159.4902 H   0  0  0  0  0  0  0  0  0  0  0  0  # atno 6909 bound_to 6896
  146.2445  140.0701  142.8363 H   0  0  0  0  0  0  0  0  0  0  0  0  # atno 7974 bound_to 7965
  155.0845  140.3213  155.4591 H   0  0  0  0  0  0  0  0  0  0  0  0  # atno 8008 bound_to 7997
  156.2758  140.2089  156.5919 H   0  0  0  0  0  0  0  0  0  0  0  0  # atno 8009 bound_to 7997
  154.6952  140.0512  157.0390 H   0  0  0  0  0  0  0  0  0  0  0  0  # atno 8010 bound_to 7997
  139.9479  144.6046  150.8189 H   0  0  0  0  0  0  0  0  0  0  0  0  # atno 10167 bound_to 10162
  157.5622  131.1089  150.8517 H   0  0  0  0  0  0  0  0  0  0  0  0  # atno 10718 bound_to 10713
  154.8525  135.4340  154.1845 H   0  0  0  0  0  0  0  0  0  0  0  0  # atno 10763 bound_to 10752
  153.2928  135.6963  153.7283 H   0  0  0  0  0  0  0  0  0  0  0  0  # atno 10764 bound_to 10752
  153.6443  135.3462  155.3055 H   0  0  0  0  0  0  0  0  0  0  0  0  # atno 10765 bound_to 10752
  140.3781  134.6971  157.4434 H   0  0  0  0  0  0  0  0  0  0  0  0  # atno 11005 bound_to 11000
  145.0823  140.9229  143.4818 LP  0  0  0  0  0  0  0  0  0  0  0  0  # atno 17320 bound_to 7965
  145.0857  139.2927  143.5761 LP  0  0  0  0  0  0  0  0  0  0  0  0  # atno 17321 bound_to 7965
  140.7592  143.3123  151.2816 LP  0  0  0  0  0  0  0  0  0  0  0  0  # atno 17342 bound_to 10162
  139.6652  144.0118  152.2718 LP  0  0  0  0  0  0  0  0  0  0  0  0  # atno 17343 bound_to 10162
  156.9012  130.5247  149.5282 LP  0  0  0  0  0  0  0  0  0  0  0  0  # atno 17370 bound_to 10713
  156.0674  130.5714  150.9316 LP  0  0  0  0  0  0  0  0  0  0  0  0  # atno 17371 bound_to 10713
  140.0500  134.6144  155.8874 LP  0  0  0  0  0  0  0  0  0  0  0  0  # atno 17394 bound_to 11000
  141.1933  133.6578  156.5540 LP  0  0  0  0  0  0  0  0  0  0  0  0  # atno 17395 bound_to 11000

$$$$
