AV-unprocessed.smi:1952|AV-procd|sdf|7892|dock2
  -GOLD-   2272010 43D 1   1.00000     0.00000
 Structure written by MMmdl.
 39 40  0  0  0  0  0  0  0  0  3 V2000
  153.4691  142.6922  160.5957 C   0  0  0  0  0  0  0  0  0  0  0  0
  152.6638  142.6617  159.3423 C   0  0  0  0  0  0  0  0  0  0  0  0
  152.3995  141.6781  158.4313 C   0  0  0  0  0  0  0  0  0  0  0  0
  151.5724  142.3344  157.4813 C   0  0  0  0  0  0  0  0  0  0  0  0
  151.0721  141.6352  156.3517 N   0  0  0  0  0  0  0  0  0  0  0  0
  151.5269  140.4973  155.7973 C   0  0  0  0  0  0  0  0  0  0  0  0
  152.4968  139.9061  156.2867 O   0  0  0  0  0  0  0  0  0  0  0  0
  150.8141  140.1389  154.6934 N   0  5  0  0  0  0  0  0  0  0  0  0
  150.6576  138.7681  154.1902 C   0  0  1  0  0  0  0  0  0  0  0  0
  152.0086  138.0475  154.2980 C   0  0  0  0  0  0  0  0  0  0  0  0
  149.5591  138.0255  154.9899 C   0  0  0  0  0  0  0  0  0  0  0  0
  148.3291  137.7992  154.1843 N   0  3  0  0  0  0  0  0  0  0  0  0
  147.2427  137.0884  154.9045 C   0  0  0  0  0  0  0  0  0  0  0  0
  146.0799  136.7969  153.9424 C   0  0  0  0  0  0  0  0  0  0  0  0
  145.6131  138.0162  153.3762 O   0  0  0  0  0  0  0  0  0  0  0  0
  146.6242  138.6757  152.6227 C   0  0  0  0  0  0  0  0  0  0  0  0
  147.8077  139.0266  153.5396 C   0  0  0  0  0  0  0  0  0  0  0  0
  151.3457  143.6027  157.7903 N   0  0  0  0  0  0  0  0  0  0  0  0
  152.0459  143.8193  158.9830 O   0  0  0  0  0  0  0  0  0  0  0  0
  153.7199  141.6827  160.9216 H   0  0  0  0  0  0  0  0  0  0  0  0
  152.9174  143.1795  161.3998 H   0  0  0  0  0  0  0  0  0  0  0  0
  154.3995  143.2392  160.4424 H   0  0  0  0  0  0  0  0  0  0  0  0
  152.7464  140.6554  158.4420 H   0  0  0  0  0  0  0  0  0  0  0  0
  150.2651  142.0469  155.9068 H   0  0  0  0  0  0  0  0  0  0  0  0
  150.3739  138.7574  153.1368 H   0  0  0  0  0  0  0  0  0  0  0  0
  151.9379  137.0263  153.9227 H   0  0  0  0  0  0  0  0  0  0  0  0
  152.3550  137.9976  155.3311 H   0  0  0  0  0  0  0  0  0  0  0  0
  152.7750  138.5575  153.7132 H   0  0  0  0  0  0  0  0  0  0  0  0
  149.9328  137.0704  155.3619 H   0  0  0  0  0  0  0  0  0  0  0  0
  149.3204  138.6147  155.8773 H   0  0  0  0  0  0  0  0  0  0  0  0
  147.6139  136.1517  155.3215 H   0  0  0  0  0  0  0  0  0  0  0  0
  146.8955  137.6969  155.7409 H   0  0  0  0  0  0  0  0  0  0  0  0
  146.3904  136.1093  153.1537 H   0  0  0  0  0  0  0  0  0  0  0  0
  145.2597  136.3185  154.4780 H   0  0  0  0  0  0  0  0  0  0  0  0
  146.9487  138.0426  151.7951 H   0  0  0  0  0  0  0  0  0  0  0  0
  146.2054  139.5824  152.1857 H   0  0  0  0  0  0  0  0  0  0  0  0
  147.4996  139.7421  154.3035 H   0  0  0  0  0  0  0  0  0  0  0  0
  148.5959  139.4980  152.9512 H   0  0  0  0  0  0  0  0  0  0  0  0
  148.6223  137.1940  153.4288 H   0  0  0  0  0  0  0  0  0  0  0  0
  1  2  1  0  0  0  0
  1 20  1  0  0  0  0
  1 21  1  0  0  0  0
  1 22  1  0  0  0  0
  2 19  1  0  0  0  0
  2  3  2  0  0  0  0
  3  4  1  0  0  0  0
  3 23  1  0  0  0  0
  4  5  1  0  0  0  0
  4 18  2  0  0  0  0
  5  6  1  0  0  0  0
  5 24  1  0  0  0  0
  6  7  2  0  0  0  0
  6  8  1  0  0  0  0
  8  9  1  0  0  0  0
  9 10  1  0  0  0  0
  9 11  1  0  0  0  0
  9 25  1  0  0  0  0
 10 26  1  0  0  0  0
 10 27  1  0  0  0  0
 10 28  1  0  0  0  0
 11 12  1  0  0  0  0
 11 29  1  0  0  0  0
 11 30  1  0  0  0  0
 12 17  1  0  0  0  0
 12 13  1  0  0  0  0
 12 39  1  0  0  0  0
 13 14  1  0  0  0  0
 13 31  1  0  0  0  0
 13 32  1  0  0  0  0
 14 15  1  0  0  0  0
 14 33  1  0  0  0  0
 14 34  1  0  0  0  0
 15 16  1  0  0  0  0
 16 17  1  0  0  0  0
 16 35  1  0  0  0  0
 16 36  1  0  0  0  0
 17 37  1  0  0  0  0
 17 38  1  0  0  0  0
 18 19  1  0  0  0  0
M  CHG  1   8  -1
M  CHG  1  12   1
M  END
> <s_m_source_file>
AV-unprocessed.smi

> <i_m_source_file_index>
1952

> <i_lp_mmshare_version>
43012

> <i_f3d_flags>
0

> <s_epik_input>
W0NIM11jMVtjSF1jKG5vMSlbTkhdQyg9TylbTkhdW0NASF0oW0NIM10pW0NIMl1OMltDSDJdW0NIMl1PW0NIMl1bQ0gyXTI=

> <s_epik_cmdline>
J2VwaWtfcHl0aG9uJywgJy1waCcsICc3LjAnLCAnLXRuJywgJzgnLCAnLW1hJywgJzIwMCcsICctbWV0YWxfYmluZGluZycsICctaW1hZScsICc8aW5maWxlLm1hZT4nLCAnLW9tYWUnLCAnPG91dGZpbGUubWFlPic=

> <r_epik_Ionization_Penalty>
6.76648

> <r_epik_Ionization_Penalty_Charging>
6.76648

> <r_epik_Ionization_Penalty_Neutral>
5.6208e-06

> <r_epik_State_Penalty>
7.45901

> <r_epik_Charging_Adjusted_Penalty>
14.2255

> <i_epik_Tot_Q>
0

> <i_epik_Tot_abs_Q>
2

> <r_epik_Metal_State_Penalty>
3.38802

> <b_epik_Metal_Only>
1

> <s_lp_Force_Field>
OPLS_2005

> <r_lp_Energy>
9.12096

> <b_lp_Chiralities_Consistent>
1

> <s_lp_Variant>
AV-unprocessed.smi:1952-10

> <Gold.Version>
5.8.1

> <Gold.Id.Protein>
6NUR|6NUR_protein|mol2

> <Gold.PLP.Fitness>
42.7982

> <Gold.PLP.PLP>
-33.0423

> <Gold.PLP.part.hbond>
-3.0000

> <Gold.PLP.part.metal>
0.0000

> <Gold.PLP.part.buried>
-6.3146

> <Gold.PLP.part.nonpolar>
-24.9340

> <Gold.PLP.part.repulsive>
0.5247

> <Gold.PLP.ligand.clash>
0.0000

> <Gold.PLP.ligand.torsion>
1.2233

> <Gold.PLP.Chemscore.Hbond>
3.9500

> <Gold.PLP.Chemscore.CHOScore>
0.0000

> <Gold.PLP.Chemscore.Metal>
0.0000

> <Gold.Chemscore.Hbonds>
donor molecule, donor type, donor heavy atom, donor atom, acceptor molecule, acceptor atom, score
      L1  H    12    39       P1  7948  2.00
      P1  H  7989  7998       L1     8  1.00
      P1  H  7997  8009       L1     7  1.00

> <Gold.PLP.Chemscore.Internal.Correction>
0.3524

> <Gold.Rescore>
     Score         DG    S(hbond)    S(metal)    S(lipo)     H(rot)  DE(clash)    DE(int)     intcor
     12.49     -16.61       2.07        0.00      70.56       1.58       0.01       4.11       ----

> <Gold.Chemscore.Fitness>
12.4912

> <Gold.Chemscore.DG>
-16.6114

> <Gold.Chemscore.ZeroCoef>
-5.4800

> <Gold.Chemscore.Hbond>
2.0720

> <Gold.Chemscore.Metal>
0.0000

> <Gold.Chemscore.Lipo>
70.5568

> <Gold.Chemscore.Internal_Hbond>
0.0000

> <Gold.Chemscore.DEClash>
0.0137

> <Gold.Chemscore.DEInternal>
4.1066

> <Gold.Chemscore.Rot>
1.5798

> <Gold.Chemscore.Internal.Correction>
   9.000000E+99

> <Gold.Chemscore.Hbonds>
donor molecule, donor type, donor heavy atom, donor atom, acceptor molecule, acceptor atom, score
      L1  H    12    39       P1  7948  1.00
      P1  H  7989  7998       L1     8  0.14
      P1  H  7997  8009       L1     7  1.00

> <Gold.Chemscore.Hbond.Weighted>
-6.9205

> <Gold.Chemscore.Metal.Weighted>
-0.0000

> <Gold.Chemscore.Lipo.Weighted>
-8.2551

> <Gold.Chemscore.Internal_Hbond.Weighted>
0.0000

> <Gold.Chemscore.DEClash.Weighted>
0.0137

> <Gold.Chemscore.DEInternal.Weighted>
4.1066

> <Gold.Chemscore.Rot.Weighted>
4.0442

> <Gold.Chemscore.Internal.Correction.Weighted>
   9.000000E+99

> <Gold.Protein.RotatedTorsions>
[ 6907 6896 6895 6894 ] final   41.93 input  -60.11 | X-H torsion
[ 7974 7965 7964 7962 ] final  137.02 input  175.53 | X-H torsion
[ 8008 7997 7996 7995 ] final -168.29 input   59.86 | X-H torsion
[ 10167 10162 10161 10158 ] final -142.20 input  -65.29 | X-H torsion
[ 10718 10713 10712 10709 ] final  100.44 input   66.30 | X-H torsion
[ 10763 10752 10751 10750 ] final  151.06 input  -60.55 | X-H torsion
[ 11005 11000 10999 10996 ] final  117.90 input  -57.11 | X-H torsion

> <Gold.Protein.ActiveResidues>
 VAL166  LYS551  ARG553  GLY616  TRP617  ASP618  TYR619  PRO620  LYS621  CYS622 
 ASP623  PHE694  ASN695  SER759  ASP760  ASP761  ALA762  ILE779  LEU786  VAL792 
 PHE793  MET794  SER795  GLU796  ALA797  LYS798  CYS799  TRP800  GLU811  SER814 

> <Gold.Protein.RotatedAtoms>
  152.2015  134.8583  160.0507 H   0  0  0  0  0  0  0  0  0  0  0  0  # atno 6907 bound_to 6896
  151.9435  133.3640  159.3982 H   0  0  0  0  0  0  0  0  0  0  0  0  # atno 6908 bound_to 6896
  150.6956  134.4339  159.5305 H   0  0  0  0  0  0  0  0  0  0  0  0  # atno 6909 bound_to 6896
  144.9508  139.4821  143.5526 H   0  0  0  0  0  0  0  0  0  0  0  0  # atno 7974 bound_to 7965
  155.8894  140.1022  157.1429 H   0  0  0  0  0  0  0  0  0  0  0  0  # atno 8008 bound_to 7997
  154.4013  140.1314  156.4360 H   0  0  0  0  0  0  0  0  0  0  0  0  # atno 8009 bound_to 7997
  155.7552  140.3464  155.5172 H   0  0  0  0  0  0  0  0  0  0  0  0  # atno 8010 bound_to 7997
  139.8112  143.7701  152.2663 H   0  0  0  0  0  0  0  0  0  0  0  0  # atno 10167 bound_to 10162
  157.6854  131.0698  150.5100 H   0  0  0  0  0  0  0  0  0  0  0  0  # atno 10718 bound_to 10713
  154.0975  135.2848  155.3258 H   0  0  0  0  0  0  0  0  0  0  0  0  # atno 10763 bound_to 10752
  154.6578  135.5346  153.7983 H   0  0  0  0  0  0  0  0  0  0  0  0  # atno 10764 bound_to 10752
  153.0391  135.6526  154.1141 H   0  0  0  0  0  0  0  0  0  0  0  0  # atno 10765 bound_to 10752
  139.9090  134.9615  156.7422 H   0  0  0  0  0  0  0  0  0  0  0  0  # atno 11005 bound_to 11000
  146.3320  139.8592  142.8859 LP  0  0  0  0  0  0  0  0  0  0  0  0  # atno 17320 bound_to 7965
  145.2847  141.0149  143.3697 LP  0  0  0  0  0  0  0  0  0  0  0  0  # atno 17321 bound_to 7965
  139.7850  144.7431  151.0034 LP  0  0  0  0  0  0  0  0  0  0  0  0  # atno 17342 bound_to 10162
  140.7817  143.4502  151.0424 LP  0  0  0  0  0  0  0  0  0  0  0  0  # atno 17343 bound_to 10162
  156.5418  130.4210  149.6150 LP  0  0  0  0  0  0  0  0  0  0  0  0  # atno 17370 bound_to 10713
  156.2979  130.7160  151.2025 LP  0  0  0  0  0  0  0  0  0  0  0  0  # atno 17371 bound_to 10713
  140.6840  133.9449  155.7927 LP  0  0  0  0  0  0  0  0  0  0  0  0  # atno 17394 bound_to 11000
  141.0489  134.0513  157.3808 LP  0  0  0  0  0  0  0  0  0  0  0  0  # atno 17395 bound_to 11000

$$$$
