AV-unprocessed.smi:2929|AV-procd|sdf|11239|dock10
  -GOLD-   2272016133D 1   1.00000     0.00000
 Structure written by MMmdl.
 33 34  0  0  0  0  0  0  0  0  1 V2000
  152.9252  129.7995  157.0753 C   0  0  0  0  0  0  0  0  0  0  0  0
  151.6702  131.0067  157.6659 S   0  0  0  0  0  0  0  0  0  0  0  0
  150.7549  130.2984  158.5744 O   0  0  0  0  0  0  0  0  0  0  0  0
  152.3730  132.2107  158.1363 O   0  0  0  0  0  0  0  0  0  0  0  0
  150.7673  131.4395  156.1831 C   0  0  0  0  0  0  0  0  0  0  0  0
  150.2889  132.7519  155.9972 C   0  0  0  0  0  0  0  0  0  0  0  0
  149.5460  133.0293  154.8338 C   0  0  0  0  0  0  0  0  0  0  0  0
  149.3083  131.9842  153.9065 C   0  0  0  0  0  0  0  0  0  0  0  0
  148.5637  132.1245  152.7033 N   0  0  0  0  0  0  0  0  0  0  0  0
  147.5670  132.9804  152.4179 C   0  0  0  0  0  0  0  0  0  0  0  0
  147.1246  133.8416  153.1774 O   0  0  0  0  0  0  0  0  0  0  0  0
  147.1098  132.7897  151.1725 N   0  0  0  0  0  0  0  0  0  0  0  0
  146.0258  133.5445  150.5570 C   0  0  0  0  0  0  0  0  0  0  0  0
  144.6366  133.0009  150.8302 C   0  0  0  0  0  0  0  0  0  0  0  0
  144.3873  131.5109  150.8321 C   0  0  0  0  0  0  0  0  0  0  0  0
  143.8125  132.3693  149.7319 C   0  0  0  0  0  0  0  0  0  0  0  0
  149.8167  130.7036  154.2138 C   0  0  0  0  0  0  0  0  0  0  0  0
  150.5276  130.4247  155.3263 N   0  0  0  0  0  0  0  0  0  0  0  0
  153.5351  129.4696  157.9158 H   0  0  0  0  0  0  0  0  0  0  0  0
  153.5618  130.2736  156.3283 H   0  0  0  0  0  0  0  0  0  0  0  0
  152.4223  128.9407  156.6315 H   0  0  0  0  0  0  0  0  0  0  0  0
  150.4793  133.5275  156.7237 H   0  0  0  0  0  0  0  0  0  0  0  0
  149.1665  134.0283  154.6905 H   0  0  0  0  0  0  0  0  0  0  0  0
  148.8524  131.5200  151.9480 H   0  0  0  0  0  0  0  0  0  0  0  0
  147.5344  132.0640  150.6137 H   0  0  0  0  0  0  0  0  0  0  0  0
  146.0779  134.5919  150.8597 H   0  0  0  0  0  0  0  0  0  0  0  0
  146.1877  133.5318  149.4790 H   0  0  0  0  0  0  0  0  0  0  0  0
  144.0872  133.5643  151.5823 H   0  0  0  0  0  0  0  0  0  0  0  0
  145.2175  130.8562  150.5748 H   0  0  0  0  0  0  0  0  0  0  0  0
  143.6971  131.1184  151.5764 H   0  0  0  0  0  0  0  0  0  0  0  0
  142.7399  132.5521  149.7426 H   0  0  0  0  0  0  0  0  0  0  0  0
  144.2611  132.2866  148.7438 H   0  0  0  0  0  0  0  0  0  0  0  0
  149.6466  129.8726  153.5449 H   0  0  0  0  0  0  0  0  0  0  0  0
  1  2  1  0  0  0  0
  1 19  1  0  0  0  0
  1 20  1  0  0  0  0
  1 21  1  0  0  0  0
  2  3  2  0  0  0  0
  2  4  2  0  0  0  0
  2  5  1  0  0  0  0
  5 18  1  0  0  0  0
  5  6  2  0  0  0  0
  6  7  1  0  0  0  0
  6 22  1  0  0  0  0
  7  8  2  0  0  0  0
  7 23  1  0  0  0  0
  8  9  1  0  0  0  0
  8 17  1  0  0  0  0
  9 10  1  0  0  0  0
  9 24  1  0  0  0  0
 10 11  2  0  0  0  0
 10 12  1  0  0  0  0
 12 13  1  0  0  0  0
 12 25  1  0  0  0  0
 13 14  1  0  0  0  0
 13 26  1  0  0  0  0
 13 27  1  0  0  0  0
 14 16  1  0  0  0  0
 14 15  1  0  0  0  0
 14 28  1  0  0  0  0
 15 16  1  0  0  0  0
 15 29  1  0  0  0  0
 15 30  1  0  0  0  0
 16 31  1  0  0  0  0
 16 32  1  0  0  0  0
 17 18  2  0  0  0  0
 17 33  1  0  0  0  0
M  END
> <s_m_source_file>
AV-unprocessed.smi

> <i_m_source_file_index>
2929

> <i_lp_mmshare_version>
43012

> <i_f3d_flags>
0

> <s_epik_input>
W0NIM11TKD1PKSg9TyljMVtjSF1bY0hdYyhbY0hdbjEpW05IXUMoPU8pW05IXVtDSDJdW0NIXTJbQ0gyXVtDSDJdMg==

> <s_epik_cmdline>
J2VwaWtfcHl0aG9uJywgJy1waCcsICc3LjAnLCAnLXRuJywgJzgnLCAnLW1hJywgJzIwMCcsICctbWV0YWxfYmluZGluZycsICctaW1hZScsICc8aW5maWxlLm1hZT4nLCAnLW9tYWUnLCAnPG91dGZpbGUubWFlPic=

> <r_lp_tautomer_probability>
1

> <r_epik_Ionization_Penalty>
4.04513e-05

> <r_epik_Ionization_Penalty_Charging>
0

> <r_epik_Ionization_Penalty_Neutral>
4.04513e-05

> <r_epik_State_Penalty>
-0

> <r_epik_Charging_Adjusted_Penalty>
0

> <i_epik_Tot_Q>
0

> <i_epik_Tot_abs_Q>
0

> <r_epik_Metal_State_Penalty>
-0

> <b_epik_Metal_Only>
0

> <s_lp_Force_Field>
OPLS_2005

> <r_lp_Energy>
13.7936

> <b_lp_Chiralities_Consistent>
1

> <s_lp_Variant>
AV-unprocessed.smi:2929-1

> <Gold.Version>
5.8.1

> <Gold.Id.Protein>
6NUR|6NUR_protein|mol2

> <Gold.PLP.Fitness>
38.7645

> <Gold.PLP.PLP>
-31.1147

> <Gold.PLP.part.hbond>
-3.0000

> <Gold.PLP.part.metal>
0.0000

> <Gold.PLP.part.buried>
-4.5615

> <Gold.PLP.part.nonpolar>
-23.7651

> <Gold.PLP.part.repulsive>
0.1979

> <Gold.PLP.ligand.clash>
0.0000

> <Gold.PLP.ligand.torsion>
1.9538

> <Gold.PLP.Chemscore.Hbond>
3.0000

> <Gold.PLP.Chemscore.CHOScore>
0.0000

> <Gold.PLP.Chemscore.Metal>
0.0000

> <Gold.Chemscore.Hbonds>
donor molecule, donor type, donor heavy atom, donor atom, acceptor molecule, acceptor atom, score
      L1  H     9    24       P1 10747  1.00
      L1  H    12    25       P1 10747  1.00
      P1  H  6896  6908       L1     4  1.00

> <Gold.PLP.Chemscore.Internal.Correction>
2.5574

> <Gold.Rescore>
     Score         DG    S(hbond)    S(metal)    S(lipo)     H(rot)  DE(clash)    DE(int)     intcor
     17.16     -19.25       2.86        0.00      63.07       1.23       0.02       2.06       ----

> <Gold.Chemscore.Fitness>
17.1631

> <Gold.Chemscore.DG>
-19.2493

> <Gold.Chemscore.ZeroCoef>
-5.4800

> <Gold.Chemscore.Hbond>
2.8598

> <Gold.Chemscore.Metal>
0.0000

> <Gold.Chemscore.Lipo>
63.0691

> <Gold.Chemscore.Internal_Hbond>
0.0000

> <Gold.Chemscore.DEClash>
0.0213

> <Gold.Chemscore.DEInternal>
2.0649

> <Gold.Chemscore.Rot>
1.2350

> <Gold.Chemscore.Internal.Correction>
   9.000000E+99

> <Gold.Chemscore.Hbonds>
donor molecule, donor type, donor heavy atom, donor atom, acceptor molecule, acceptor atom, score
      L1  H     9    24       P1 10747  0.90
      L1  H    12    25       P1 10747  0.95
      P1  H  6896  6908       L1     4  0.99

> <Gold.Chemscore.Hbond.Weighted>
-9.5519

> <Gold.Chemscore.Metal.Weighted>
-0.0000

> <Gold.Chemscore.Lipo.Weighted>
-7.3791

> <Gold.Chemscore.Internal_Hbond.Weighted>
0.0000

> <Gold.Chemscore.DEClash.Weighted>
0.0213

> <Gold.Chemscore.DEInternal.Weighted>
2.0649

> <Gold.Chemscore.Rot.Weighted>
3.1616

> <Gold.Chemscore.Internal.Correction.Weighted>
   9.000000E+99

> <Gold.Protein.RotatedTorsions>
[ 6907 6896 6895 6894 ] final   32.86 input  -60.11 | X-H torsion
[ 7974 7965 7964 7962 ] final   36.15 input  175.53 | X-H torsion
[ 8008 7997 7996 7995 ] final -169.97 input   59.86 | X-H torsion
[ 10167 10162 10161 10158 ] final   95.99 input  -65.29 | X-H torsion
[ 10718 10713 10712 10709 ] final  -25.74 input   66.30 | X-H torsion
[ 10763 10752 10751 10750 ] final -100.52 input  -60.55 | X-H torsion
[ 11005 11000 10999 10996 ] final  -50.86 input  -57.11 | X-H torsion

> <Gold.Protein.ActiveResidues>
 VAL166  LYS551  ARG553  GLY616  TRP617  ASP618  TYR619  PRO620  LYS621  CYS622 
 ASP623  PHE694  ASN695  SER759  ASP760  ASP761  ALA762  ILE779  LEU786  VAL792 
 PHE793  MET794  SER795  GLU796  ALA797  LYS798  CYS799  TRP800  GLU811  SER814 

> <Gold.Protein.RotatedAtoms>
  152.0803  134.9475  160.0573 H   0  0  0  0  0  0  0  0  0  0  0  0  # atno 6907 bound_to 6896
  152.0766  133.4127  159.4491 H   0  0  0  0  0  0  0  0  0  0  0  0  # atno 6908 bound_to 6896
  150.6836  134.2950  159.4726 H   0  0  0  0  0  0  0  0  0  0  0  0  # atno 6909 bound_to 6896
  146.1232  139.6054  142.9276 H   0  0  0  0  0  0  0  0  0  0  0  0  # atno 7974 bound_to 7965
  155.9120  140.1059  157.1272 H   0  0  0  0  0  0  0  0  0  0  0  0  # atno 8008 bound_to 7997
  154.4041  140.1272  156.4635 H   0  0  0  0  0  0  0  0  0  0  0  0  # atno 8009 bound_to 7997
  155.7298  140.3468  155.5056 H   0  0  0  0  0  0  0  0  0  0  0  0  # atno 8010 bound_to 7997
  139.7936  144.6842  150.9859 H   0  0  0  0  0  0  0  0  0  0  0  0  # atno 10167 bound_to 10162
  156.4603  130.4502  149.6933 H   0  0  0  0  0  0  0  0  0  0  0  0  # atno 10718 bound_to 10713
  154.7585  135.4932  153.9420 H   0  0  0  0  0  0  0  0  0  0  0  0  # atno 10763 bound_to 10752
  153.1224  135.6734  153.9322 H   0  0  0  0  0  0  0  0  0  0  0  0  # atno 10764 bound_to 10752
  153.9050  135.3105  155.3427 H   0  0  0  0  0  0  0  0  0  0  0  0  # atno 10765 bound_to 10752
  141.0839  133.6647  156.3793 H   0  0  0  0  0  0  0  0  0  0  0  0  # atno 11005 bound_to 11000
  145.5421  141.0420  143.2325 LP  0  0  0  0  0  0  0  0  0  0  0  0  # atno 17320 bound_to 7965
  144.7617  139.6941  143.7231 LP  0  0  0  0  0  0  0  0  0  0  0  0  # atno 17321 bound_to 7965
  140.7820  143.4355  151.0630 LP  0  0  0  0  0  0  0  0  0  0  0  0  # atno 17342 bound_to 10162
  139.8030  143.8057  152.3165 LP  0  0  0  0  0  0  0  0  0  0  0  0  # atno 17343 bound_to 10162
  156.3723  130.7537  151.2521 LP  0  0  0  0  0  0  0  0  0  0  0  0  # atno 17370 bound_to 10713
  157.7498  131.0319  150.4204 LP  0  0  0  0  0  0  0  0  0  0  0  0  # atno 17371 bound_to 10713
  140.5406  134.6124  157.5378 LP  0  0  0  0  0  0  0  0  0  0  0  0  # atno 17394 bound_to 11000
  139.9656  134.7379  156.0146 LP  0  0  0  0  0  0  0  0  0  0  0  0  # atno 17395 bound_to 11000

$$$$
