AV-unprocessed.smi:142|AV-procd|sdf|1189|dock6
  -GOLD-   2262018343D 1   1.00000     0.00000
 Structure written by MMmdl.
 52 55  0  0  0  0  0  0  0  0  1 V2000
  151.4159  138.8573  155.7803 C   0  0  0  0  0  0  0  0  0  0  0  0
  151.2765  138.4430  157.2514 C   0  0  2  0  0  0  0  0  0  0  0  0
  149.9062  137.9980  157.4985 N   0  0  0  0  0  0  0  0  0  0  0  0
  149.5283  137.1671  158.4818 C   0  0  0  0  0  0  0  0  0  0  0  0
  150.3208  136.6639  159.2796 O   0  0  0  0  0  0  0  0  0  0  0  0
  148.0242  136.8648  158.5625 C   0  0  0  0  0  0  0  0  0  0  0  0
  147.7163  135.6472  159.3438 N   0  0  0  0  0  0  0  0  0  0  0  0
  147.5757  135.7637  160.7488 C   0  0  0  0  0  0  0  0  0  0  0  0
  147.6887  136.8532  161.3133 O   0  0  0  0  0  0  0  0  0  0  0  0
  147.3021  134.5201  161.4600 C   0  0  0  0  0  0  0  0  0  0  0  0
  147.1478  134.5373  162.7947 F   0  0  0  0  0  0  0  0  0  0  0  0
  147.2031  133.3483  160.7988 C   0  0  0  0  0  0  0  0  0  0  0  0
  147.3490  133.2484  159.4266 N   0  0  0  0  0  0  0  0  0  0  0  0
  147.2544  131.9226  158.7018 C   0  0  2  0  0  0  0  0  0  0  0  0
  146.9648  130.7820  159.6943 C   0  0  0  0  0  0  0  0  0  0  0  0
  148.0174  129.7531  159.3337 C   0  0  0  0  0  0  0  0  0  0  0  0
  149.1542  130.6318  158.8337 C   0  0  0  0  0  0  0  0  0  0  0  0
  148.4753  131.6302  158.0833 O   0  0  0  0  0  0  0  0  0  0  0  0
  147.6142  134.4085  158.6671 C   0  0  0  0  0  0  0  0  0  0  0  0
  147.7567  134.3384  157.4443 O   0  0  0  0  0  0  0  0  0  0  0  0
  151.7235  139.5694  158.1795 C   0  0  0  0  0  0  0  0  0  0  0  0
  152.5548  139.2702  159.2801 C   0  0  0  0  0  0  0  0  0  0  0  0
  152.9897  140.2916  160.1464 C   0  0  0  0  0  0  0  0  0  0  0  0
  152.5990  141.6262  159.9178 C   0  0  0  0  0  0  0  0  0  0  0  0
  153.0322  142.6545  160.7807 C   0  0  0  0  0  0  0  0  0  0  0  0
  152.6369  143.9859  160.5457 C   0  0  0  0  0  0  0  0  0  0  0  0
  151.8082  144.2931  159.4493 C   0  0  0  0  0  0  0  0  0  0  0  0
  151.3742  143.2706  158.5834 C   0  0  0  0  0  0  0  0  0  0  0  0
  151.7673  141.9360  158.8135 C   0  0  0  0  0  0  0  0  0  0  0  0
  151.3370  140.9097  157.9483 C   0  0  0  0  0  0  0  0  0  0  0  0
  152.4466  139.1242  155.5447 H   0  0  0  0  0  0  0  0  0  0  0  0
  150.7888  139.7191  155.5493 H   0  0  0  0  0  0  0  0  0  0  0  0
  151.1268  138.0453  155.1122 H   0  0  0  0  0  0  0  0  0  0  0  0
  151.9376  137.5900  157.4165 H   0  0  0  0  0  0  0  0  0  0  0  0
  149.1913  138.3635  156.8864 H   0  0  0  0  0  0  0  0  0  0  0  0
  147.5107  137.7305  158.9848 H   0  0  0  0  0  0  0  0  0  0  0  0
  147.6339  136.7966  157.5462 H   0  0  0  0  0  0  0  0  0  0  0  0
  147.0040  132.4643  161.3848 H   0  0  0  0  0  0  0  0  0  0  0  0
  146.4878  132.0548  157.9359 H   0  0  0  0  0  0  0  0  0  0  0  0
  147.1081  131.1286  160.7190 H   0  0  0  0  0  0  0  0  0  0  0  0
  145.9446  130.4142  159.5826 H   0  0  0  0  0  0  0  0  0  0  0  0
  148.3038  129.1208  160.1743 H   0  0  0  0  0  0  0  0  0  0  0  0
  147.6568  129.1125  158.5279 H   0  0  0  0  0  0  0  0  0  0  0  0
  149.6886  131.0867  159.6688 H   0  0  0  0  0  0  0  0  0  0  0  0
  149.8721  130.0877  158.2198 H   0  0  0  0  0  0  0  0  0  0  0  0
  152.8622  138.2512  159.4644 H   0  0  0  0  0  0  0  0  0  0  0  0
  153.6244  140.0452  160.9851 H   0  0  0  0  0  0  0  0  0  0  0  0
  153.6681  142.4277  161.6242 H   0  0  0  0  0  0  0  0  0  0  0  0
  152.9689  144.7719  161.2078 H   0  0  0  0  0  0  0  0  0  0  0  0
  151.5049  145.3143  159.2716 H   0  0  0  0  0  0  0  0  0  0  0  0
  150.7388  143.5151  157.7445 H   0  0  0  0  0  0  0  0  0  0  0  0
  150.7091  141.1566  157.1045 H   0  0  0  0  0  0  0  0  0  0  0  0
  1  2  1  0  0  0  0
  1 31  1  0  0  0  0
  1 32  1  0  0  0  0
  1 33  1  0  0  0  0
  2  3  1  0  0  0  0
  2 21  1  0  0  0  0
  2 34  1  0  0  0  0
  3  4  1  0  0  0  0
  3 35  1  0  0  0  0
  4  5  2  0  0  0  0
  4  6  1  0  0  0  0
  6  7  1  0  0  0  0
  6 36  1  0  0  0  0
  6 37  1  0  0  0  0
  7 19  1  0  0  0  0
  7  8  1  0  0  0  0
  8  9  2  0  0  0  0
  8 10  1  0  0  0  0
 10 11  1  0  0  0  0
 10 12  2  0  0  0  0
 12 13  1  0  0  0  0
 12 38  1  0  0  0  0
 13 14  1  0  0  0  0
 13 19  1  0  0  0  0
 14 18  1  0  0  0  0
 14 15  1  0  0  0  0
 14 39  1  0  0  0  0
 15 16  1  0  0  0  0
 15 40  1  0  0  0  0
 15 41  1  0  0  0  0
 16 17  1  0  0  0  0
 16 42  1  0  0  0  0
 16 43  1  0  0  0  0
 17 18  1  0  0  0  0
 17 44  1  0  0  0  0
 17 45  1  0  0  0  0
 19 20  2  0  0  0  0
 21 30  1  0  0  0  0
 21 22  2  0  0  0  0
 22 23  1  0  0  0  0
 22 46  1  0  0  0  0
 23 24  2  0  0  0  0
 23 47  1  0  0  0  0
 24 29  1  0  0  0  0
 24 25  1  0  0  0  0
 25 26  2  0  0  0  0
 25 48  1  0  0  0  0
 26 27  1  0  0  0  0
 26 49  1  0  0  0  0
 27 28  2  0  0  0  0
 27 50  1  0  0  0  0
 28 29  1  0  0  0  0
 28 51  1  0  0  0  0
 29 30  2  0  0  0  0
 30 52  1  0  0  0  0
M  END
> <s_m_source_file>
AV-unprocessed.smi

> <i_m_source_file_index>
142

> <i_lp_mmshare_version>
43012

> <i_f3d_flags>
0

> <s_epik_input>
W2NIXTFbY0hdW2NIXVtjSF1jKGMxMilbY0hdYyhbY0hdW2NIXTIpW0NASF0oW0NIM10pW05IXUMoPU8pW0NIMl1uM2MoPU8pYyhGKVtjSF1uKGMzPU8pW0NAQEhdNFtDSDJdW0NIMl1bQ0gyXU80

> <s_epik_cmdline>
J2VwaWtfcHl0aG9uJywgJy1waCcsICc3LjAnLCAnLXRuJywgJzgnLCAnLW1hJywgJzIwMCcsICctbWV0YWxfYmluZGluZycsICctaW1hZScsICc8aW5maWxlLm1hZT4nLCAnLW9tYWUnLCAnPG91dGZpbGUubWFlPic=

> <r_lp_tautomer_probability>
1

> <r_epik_Ionization_Penalty>
3.35688e-08

> <r_epik_Ionization_Penalty_Charging>
3.59856e-09

> <r_epik_Ionization_Penalty_Neutral>
2.99702e-08

> <r_epik_State_Penalty>
-0

> <r_epik_Charging_Adjusted_Penalty>
3.59856e-09

> <i_epik_Tot_Q>
0

> <i_epik_Tot_abs_Q>
0

> <r_epik_Metal_State_Penalty>
-0

> <b_epik_Metal_Only>
0

> <s_epik_Chemistry_Notes>
This compound contains an acetal/aminal-like group ( X-CH(R)-Y where X, Y are N, S, or O) that may be acid/base labile, releasing an aldehyde.

> <s_lp_Force_Field>
OPLS_2005

> <r_lp_Energy>
31.3548

> <b_lp_Chiralities_Consistent>
1

> <s_lp_Variant>
AV-unprocessed.smi:142-1

> <Gold.Version>
5.8.1

> <Gold.Id.Protein>
6NUR|6NUR_protein|mol2

> <Gold.PLP.Fitness>
60.4427

> <Gold.PLP.PLP>
-54.8465

> <Gold.PLP.part.hbond>
-3.0000

> <Gold.PLP.part.metal>
0.0000

> <Gold.PLP.part.buried>
-6.7300

> <Gold.PLP.part.nonpolar>
-46.0567

> <Gold.PLP.part.repulsive>
0.0236

> <Gold.PLP.ligand.clash>
0.0000

> <Gold.PLP.ligand.torsion>
1.3919

> <Gold.PLP.Chemscore.Hbond>
2.7760

> <Gold.PLP.Chemscore.CHOScore>
0.0000

> <Gold.PLP.Chemscore.Metal>
0.0000

> <Gold.Chemscore.Hbonds>
donor molecule, donor type, donor heavy atom, donor atom, acceptor molecule, acceptor atom, score
      P1  H  6896  6907       L1     5  1.00
      P1  H  6931  6943       L1     9  1.00
      P1  H  6934  6947       L1     9  0.39

> <Gold.PLP.Chemscore.Internal.Correction>
0.0520

> <Gold.Rescore>
     Score         DG    S(hbond)    S(metal)    S(lipo)     H(rot)  DE(clash)    DE(int)     intcor
     22.43     -24.54       2.76        0.00     128.44       2.02       0.02       2.09       ----

> <Gold.Chemscore.Fitness>
22.4331

> <Gold.Chemscore.DG>
-24.5443

> <Gold.Chemscore.ZeroCoef>
-5.4800

> <Gold.Chemscore.Hbond>
2.7551

> <Gold.Chemscore.Metal>
0.0000

> <Gold.Chemscore.Lipo>
128.4372

> <Gold.Chemscore.Internal_Hbond>
0.0000

> <Gold.Chemscore.DEClash>
0.0179

> <Gold.Chemscore.DEInternal>
2.0933

> <Gold.Chemscore.Rot>
2.0175

> <Gold.Chemscore.Internal.Correction>
   9.000000E+99

> <Gold.Chemscore.Hbonds>
donor molecule, donor type, donor heavy atom, donor atom, acceptor molecule, acceptor atom, score
      P1  H  6896  6907       L1     5  1.00
      P1  H  6931  6943       L1     9  0.92
      P1  H  6934  6947       L1     9  0.38

> <Gold.Chemscore.Hbond.Weighted>
-9.2020

> <Gold.Chemscore.Metal.Weighted>
-0.0000

> <Gold.Chemscore.Lipo.Weighted>
-15.0272

> <Gold.Chemscore.Internal_Hbond.Weighted>
0.0000

> <Gold.Chemscore.DEClash.Weighted>
0.0179

> <Gold.Chemscore.DEInternal.Weighted>
2.0933

> <Gold.Chemscore.Rot.Weighted>
5.1648

> <Gold.Chemscore.Internal.Correction.Weighted>
   9.000000E+99

> <Gold.Protein.RotatedTorsions>
[ 6907 6896 6895 6894 ] final  -31.89 input  -60.11 | X-H torsion
[ 7974 7965 7964 7962 ] final   -1.39 input  175.53 | X-H torsion
[ 8008 7997 7996 7995 ] final  146.67 input   59.86 | X-H torsion
[ 10167 10162 10161 10158 ] final  150.42 input  -65.29 | X-H torsion
[ 10718 10713 10712 10709 ] final  123.05 input   66.30 | X-H torsion
[ 10763 10752 10751 10750 ] final -173.57 input  -60.55 | X-H torsion
[ 11005 11000 10999 10996 ] final   -9.00 input  -57.11 | X-H torsion

> <Gold.Protein.ActiveResidues>
 VAL166  LYS551  ARG553  GLY616  TRP617  ASP618  TYR619  PRO620  LYS621  CYS622 
 ASP623  PHE694  ASN695  SER759  ASP760  ASP761  ALA762  ILE779  LEU786  VAL792 
 PHE793  MET794  SER795  GLU796  ALA797  LYS798  CYS799  TRP800  GLU811  SER814 

> <Gold.Protein.RotatedAtoms>
  151.0860  134.9887  159.8379 H   0  0  0  0  0  0  0  0  0  0  0  0  # atno 6907 bound_to 6896
  152.5424  134.2123  159.8765 H   0  0  0  0  0  0  0  0  0  0  0  0  # atno 6908 bound_to 6896
  151.2156  133.4487  159.2633 H   0  0  0  0  0  0  0  0  0  0  0  0  # atno 6909 bound_to 6896
  146.2417  140.1413  142.8335 H   0  0  0  0  0  0  0  0  0  0  0  0  # atno 7974 bound_to 7965
  156.2848  140.2176  156.5414 H   0  0  0  0  0  0  0  0  0  0  0  0  # atno 8008 bound_to 7997
  154.7367  140.0491  157.0797 H   0  0  0  0  0  0  0  0  0  0  0  0  # atno 8009 bound_to 7997
  155.0284  140.3132  155.4770 H   0  0  0  0  0  0  0  0  0  0  0  0  # atno 8010 bound_to 7997
  139.4850  144.5523  151.7378 H   0  0  0  0  0  0  0  0  0  0  0  0  # atno 10167 bound_to 10162
  157.5695  131.1084  150.8393 H   0  0  0  0  0  0  0  0  0  0  0  0  # atno 10718 bound_to 10713
  154.6064  135.2860  155.0480 H   0  0  0  0  0  0  0  0  0  0  0  0  # atno 10763 bound_to 10752
  154.1726  135.6470  153.5017 H   0  0  0  0  0  0  0  0  0  0  0  0  # atno 10764 bound_to 10752
  153.0177  135.5404  154.6801 H   0  0  0  0  0  0  0  0  0  0  0  0  # atno 10765 bound_to 10752
  140.7295  133.8761  155.8882 H   0  0  0  0  0  0  0  0  0  0  0  0  # atno 11005 bound_to 11000
  145.0244  140.8820  143.5147 LP  0  0  0  0  0  0  0  0  0  0  0  0  # atno 17320 bound_to 7965
  145.1467  139.2539  143.5462 LP  0  0  0  0  0  0  0  0  0  0  0  0  # atno 17321 bound_to 7965
  140.5079  144.1069  150.5987 LP  0  0  0  0  0  0  0  0  0  0  0  0  # atno 17342 bound_to 10162
  140.3985  143.2716  151.9976 LP  0  0  0  0  0  0  0  0  0  0  0  0  # atno 17343 bound_to 10162
  156.8868  130.5199  149.5288 LP  0  0  0  0  0  0  0  0  0  0  0  0  # atno 17370 bound_to 10713
  156.0741  130.5767  150.9441 LP  0  0  0  0  0  0  0  0  0  0  0  0  # atno 17371 bound_to 10713
  140.9933  134.1249  157.4387 LP  0  0  0  0  0  0  0  0  0  0  0  0  # atno 17394 bound_to 11000
  139.8829  135.0047  156.6266 LP  0  0  0  0  0  0  0  0  0  0  0  0  # atno 17395 bound_to 11000

$$$$
