AV-unprocessed.smi:2385|AV-procd|sdf|9464|dock8
  -GOLD-   2272013 93D 1   1.00000     0.00000
 Structure written by MMmdl.
 50 52  0  0  0  0  0  0  0  0  2 V2000
  142.9705  135.5415  152.5646 C   0  0  0  0  0  0  0  0  0  0  0  0
  144.2090  136.4069  152.6620 C   0  0  0  0  0  0  0  0  0  0  0  0
  145.1964  136.3711  151.6595 C   0  0  0  0  0  0  0  0  0  0  0  0
  146.3331  137.1909  151.7964 C   0  0  0  0  0  0  0  0  0  0  0  0
  146.4571  138.0245  152.9306 C   0  0  0  0  0  0  0  0  0  0  0  0
  147.6429  138.8056  152.9769 N   0  0  0  0  0  0  0  0  0  0  0  0
  148.3484  139.1797  154.0588 C   0  0  0  0  0  0  0  0  0  0  0  0
  148.0527  138.9237  155.2265 O   0  0  0  0  0  0  0  0  0  0  0  0
  149.4383  139.8811  153.7130 N   0  0  0  0  0  0  0  0  0  0  0  0
  150.4269  140.4039  154.6520 C   0  0  2  0  0  0  0  0  0  0  0  0
  150.9590  139.2929  155.5747 C   0  0  0  0  0  0  0  0  0  0  0  0
  151.9402  139.8607  156.6142 C   0  0  0  0  0  0  0  0  0  0  0  0
  151.3161  140.9492  157.4117 N   0  3  1  0  0  0  0  0  0  0  0  0
  152.1976  141.4339  158.5064 C   0  0  0  0  0  0  0  0  0  0  0  0
  151.7057  142.7633  159.1113 C   0  0  1  0  0  0  0  0  0  0  0  0
  152.2802  143.0429  160.4862 C   0  0  0  0  0  0  0  0  0  0  0  0
  152.0335  144.5400  160.6427 C   0  0  0  0  0  0  0  0  0  0  0  0
  152.0888  145.0808  159.3264 O   0  0  0  0  0  0  0  0  0  0  0  0
  152.1361  144.0294  158.3678 C   0  0  0  0  0  0  0  0  0  0  0  0
  150.8170  142.0453  156.5391 C   0  0  0  0  0  0  0  0  0  0  0  0
  149.8068  141.5203  155.5056 C   0  0  0  0  0  0  0  0  0  0  0  0
  145.4996  138.0525  153.8912 N   0  0  0  0  0  0  0  0  0  0  0  0
  144.4103  137.2670  153.7592 C   0  0  0  0  0  0  0  0  0  0  0  0
  142.6159  135.4927  151.5348 H   0  0  0  0  0  0  0  0  0  0  0  0
  142.1648  135.9403  153.1820 H   0  0  0  0  0  0  0  0  0  0  0  0
  143.1922  134.5286  152.9014 H   0  0  0  0  0  0  0  0  0  0  0  0
  145.0880  135.7264  150.7996 H   0  0  0  0  0  0  0  0  0  0  0  0
  147.1006  137.1742  151.0363 H   0  0  0  0  0  0  0  0  0  0  0  0
  148.0041  139.0967  152.0807 H   0  0  0  0  0  0  0  0  0  0  0  0
  149.6052  140.0484  152.7314 H   0  0  0  0  0  0  0  0  0  0  0  0
  151.2602  140.8288  154.0888 H   0  0  0  0  0  0  0  0  0  0  0  0
  150.1283  138.8046  156.0869 H   0  0  0  0  0  0  0  0  0  0  0  0
  151.4568  138.5199  154.9882 H   0  0  0  0  0  0  0  0  0  0  0  0
  152.2588  139.0549  157.2768 H   0  0  0  0  0  0  0  0  0  0  0  0
  152.8358  140.2390  156.1186 H   0  0  0  0  0  0  0  0  0  0  0  0
  152.2078  140.6976  159.3116 H   0  0  0  0  0  0  0  0  0  0  0  0
  153.2320  141.5097  158.1675 H   0  0  0  0  0  0  0  0  0  0  0  0
  150.6174  142.7491  159.1933 H   0  0  0  0  0  0  0  0  0  0  0  0
  151.8132  142.4527  161.2753 H   0  0  0  0  0  0  0  0  0  0  0  0
  153.3524  142.8402  160.4996 H   0  0  0  0  0  0  0  0  0  0  0  0
  151.0386  144.7222  161.0513 H   0  0  0  0  0  0  0  0  0  0  0  0
  152.7622  145.0147  161.3003 H   0  0  0  0  0  0  0  0  0  0  0  0
  153.1627  143.9393  158.0097 H   0  0  0  0  0  0  0  0  0  0  0  0
  151.4957  144.2515  157.5140 H   0  0  0  0  0  0  0  0  0  0  0  0
  150.3417  142.8201  157.1384 H   0  0  0  0  0  0  0  0  0  0  0  0
  151.6586  142.5174  156.0294 H   0  0  0  0  0  0  0  0  0  0  0  0
  149.4752  142.3397  154.8667 H   0  0  0  0  0  0  0  0  0  0  0  0
  148.9192  141.1492  156.0206 H   0  0  0  0  0  0  0  0  0  0  0  0
  143.6809  137.3280  154.5536 H   0  0  0  0  0  0  0  0  0  0  0  0
  150.5098  140.5363  157.8585 H   0  0  0  0  0  0  0  0  0  0  0  0
  1  2  1  0  0  0  0
  1 24  1  0  0  0  0
  1 25  1  0  0  0  0
  1 26  1  0  0  0  0
  2 23  1  0  0  0  0
  2  3  2  0  0  0  0
  3  4  1  0  0  0  0
  3 27  1  0  0  0  0
  4  5  2  0  0  0  0
  4 28  1  0  0  0  0
  5  6  1  0  0  0  0
  5 22  1  0  0  0  0
  6  7  1  0  0  0  0
  6 29  1  0  0  0  0
  7  8  2  0  0  0  0
  7  9  1  0  0  0  0
  9 10  1  0  0  0  0
  9 30  1  0  0  0  0
 10 21  1  0  0  0  0
 10 11  1  0  0  0  0
 10 31  1  0  0  0  0
 11 12  1  0  0  0  0
 11 32  1  0  0  0  0
 11 33  1  0  0  0  0
 12 13  1  0  0  0  0
 12 34  1  0  0  0  0
 12 35  1  0  0  0  0
 13 14  1  0  0  0  0
 13 20  1  0  0  0  0
 13 50  1  0  0  0  0
 14 15  1  0  0  0  0
 14 36  1  0  0  0  0
 14 37  1  0  0  0  0
 15 19  1  0  0  0  0
 15 16  1  0  0  0  0
 15 38  1  0  0  0  0
 16 17  1  0  0  0  0
 16 39  1  0  0  0  0
 16 40  1  0  0  0  0
 17 18  1  0  0  0  0
 17 41  1  0  0  0  0
 17 42  1  0  0  0  0
 18 19  1  0  0  0  0
 19 43  1  0  0  0  0
 19 44  1  0  0  0  0
 20 21  1  0  0  0  0
 20 45  1  0  0  0  0
 20 46  1  0  0  0  0
 21 47  1  0  0  0  0
 21 48  1  0  0  0  0
 22 23  2  0  0  0  0
 23 49  1  0  0  0  0
M  CHG  1  13   1
M  END
> <s_m_source_file>
AV-unprocessed.smi

> <i_m_source_file_index>
2385

> <i_lp_mmshare_version>
43012

> <i_f3d_flags>
0

> <s_epik_input>
W0NIM11jMVtjSF1bY0hdYyhuW2NIXTEpW05IXUMoPU8pW05IXVtDSF0yW0NIMl1bQ0gyXU4oW0NIMl1bQ0gyXTIpW0NIMl1bQ0BASF0zW0NIMl1bQ0gyXU9bQ0gyXTM=

> <s_epik_cmdline>
J2VwaWtfcHl0aG9uJywgJy1waCcsICc3LjAnLCAnLXRuJywgJzgnLCAnLW1hJywgJzIwMCcsICctbWV0YWxfYmluZGluZycsICctaW1hZScsICc8aW5maWxlLm1hZT4nLCAnLW9tYWUnLCAnPG91dGZpbGUubWFlPic=

> <r_epik_Ionization_Penalty>
0.00752367

> <r_epik_Ionization_Penalty_Charging>
0.00747775

> <r_epik_Ionization_Penalty_Neutral>
4.59207e-05

> <r_epik_State_Penalty>
0.00558817

> <r_epik_Charging_Adjusted_Penalty>
0.0130659

> <i_epik_Tot_Q>
1

> <i_epik_Tot_abs_Q>
1

> <r_epik_Metal_State_Penalty>
-0

> <b_epik_Metal_Only>
0

> <s_lp_Force_Field>
OPLS_2005

> <r_lp_Energy>
36.1133

> <b_lp_Chiralities_Consistent>
1

> <s_lp_Variant>
AV-unprocessed.smi:2385-2

> <Gold.Version>
5.8.1

> <Gold.Id.Protein>
6NUR|6NUR_protein|mol2

> <Gold.PLP.Fitness>
44.4558

> <Gold.PLP.PLP>
-40.0790

> <Gold.PLP.part.hbond>
-2.7707

> <Gold.PLP.part.metal>
0.0000

> <Gold.PLP.part.buried>
-0.0042

> <Gold.PLP.part.nonpolar>
-38.6452

> <Gold.PLP.part.repulsive>
0.5338

> <Gold.PLP.ligand.clash>
0.0000

> <Gold.PLP.ligand.torsion>
0.6484

> <Gold.PLP.Chemscore.Hbond>
1.8800

> <Gold.PLP.Chemscore.CHOScore>
0.0000

> <Gold.PLP.Chemscore.Metal>
0.0000

> <Gold.Chemscore.Hbonds>
donor molecule, donor type, donor heavy atom, donor atom, acceptor molecule, acceptor atom, score
      L1  H     6    29       P1  7957  0.86
      L1  H     9    30       P1  7957  1.00

> <Gold.PLP.Chemscore.Internal.Correction>
0.0336

> <Gold.Rescore>
     Score         DG    S(hbond)    S(metal)    S(lipo)     H(rot)  DE(clash)    DE(int)     intcor
     15.98     -21.33       1.90        0.00     111.96       1.41       2.76       2.59       ----

> <Gold.Chemscore.Fitness>
15.9780

> <Gold.Chemscore.DG>
-21.3290

> <Gold.Chemscore.ZeroCoef>
-5.4800

> <Gold.Chemscore.Hbond>
1.9004

> <Gold.Chemscore.Metal>
0.0000

> <Gold.Chemscore.Lipo>
111.9642

> <Gold.Chemscore.Internal_Hbond>
0.0000

> <Gold.Chemscore.DEClash>
2.7564

> <Gold.Chemscore.DEInternal>
2.5946

> <Gold.Chemscore.Rot>
1.4056

> <Gold.Chemscore.Internal.Correction>
   9.000000E+99

> <Gold.Chemscore.Hbonds>
donor molecule, donor type, donor heavy atom, donor atom, acceptor molecule, acceptor atom, score
      L1  H     6    29       P1  7957  0.79
      L1  H     9    30       P1  7957  0.97

> <Gold.Chemscore.Hbond.Weighted>
-6.3474

> <Gold.Chemscore.Metal.Weighted>
-0.0000

> <Gold.Chemscore.Lipo.Weighted>
-13.0998

> <Gold.Chemscore.Internal_Hbond.Weighted>
0.0000

> <Gold.Chemscore.DEClash.Weighted>
2.7564

> <Gold.Chemscore.DEInternal.Weighted>
2.5946

> <Gold.Chemscore.Rot.Weighted>
3.5982

> <Gold.Chemscore.Internal.Correction.Weighted>
   9.000000E+99

> <Gold.Protein.RotatedTorsions>
[ 6907 6896 6895 6894 ] final  -58.13 input  -60.11 | X-H torsion
[ 7974 7965 7964 7962 ] final  -65.74 input  175.53 | X-H torsion
[ 8008 7997 7996 7995 ] final   84.25 input   59.86 | X-H torsion
[ 10167 10162 10161 10158 ] final -177.61 input  -65.29 | X-H torsion
[ 10718 10713 10712 10709 ] final  116.97 input   66.30 | X-H torsion
[ 10763 10752 10751 10750 ] final  -88.88 input  -60.55 | X-H torsion
[ 11005 11000 10999 10996 ] final   35.47 input  -57.11 | X-H torsion

> <Gold.Protein.ActiveResidues>
 VAL166  LYS551  ARG553  GLY616  TRP617  ASP618  TYR619  PRO620  LYS621  CYS622 
 ASP623  PHE694  ASN695  SER759  ASP760  ASP761  ALA762  ILE779  LEU786  VAL792 
 PHE793  MET794  SER795  GLU796  ALA797  LYS798  CYS799  TRP800  GLU811  SER814 

> <Gold.Protein.RotatedAtoms>
  150.8031  134.7138  159.6618 H   0  0  0  0  0  0  0  0  0  0  0  0  # atno 6907 bound_to 6896
  152.4149  134.6056  160.0022 H   0  0  0  0  0  0  0  0  0  0  0  0  # atno 6908 bound_to 6896
  151.6288  133.3296  159.3140 H   0  0  0  0  0  0  0  0  0  0  0  0  # atno 6909 bound_to 6896
  145.7505  140.8911  143.0482 H   0  0  0  0  0  0  0  0  0  0  0  0  # atno 7974 bound_to 7965
  155.9345  140.3412  155.6276 H   0  0  0  0  0  0  0  0  0  0  0  0  # atno 8008 bound_to 7997
  155.7116  140.0772  157.2387 H   0  0  0  0  0  0  0  0  0  0  0  0  # atno 8009 bound_to 7997
  154.4091  140.1621  156.2290 H   0  0  0  0  0  0  0  0  0  0  0  0  # atno 8010 bound_to 7997
  139.5472  144.2204  152.1010 H   0  0  0  0  0  0  0  0  0  0  0  0  # atno 10167 bound_to 10162
  157.6126  131.1032  150.7548 H   0  0  0  0  0  0  0  0  0  0  0  0  # atno 10718 bound_to 10713
  154.6493  135.5361  153.7883 H   0  0  0  0  0  0  0  0  0  0  0  0  # atno 10763 bound_to 10752
  153.0377  135.6478  154.1041 H   0  0  0  0  0  0  0  0  0  0  0  0  # atno 10764 bound_to 10752
  154.0959  135.2936  155.3242 H   0  0  0  0  0  0  0  0  0  0  0  0  # atno 10765 bound_to 10752
  140.2424  134.3399  155.7921 H   0  0  0  0  0  0  0  0  0  0  0  0  # atno 11005 bound_to 11000
  144.6851  139.9584  143.7479 LP  0  0  0  0  0  0  0  0  0  0  0  0  # atno 17320 bound_to 7965
  146.0361  139.3379  143.0725 LP  0  0  0  0  0  0  0  0  0  0  0  0  # atno 17321 bound_to 7965
  140.1693  144.4951  150.6588 LP  0  0  0  0  0  0  0  0  0  0  0  0  # atno 17342 bound_to 10162
  140.6724  143.2291  151.5592 LP  0  0  0  0  0  0  0  0  0  0  0  0  # atno 17343 bound_to 10162
  156.7922  130.4894  149.5383 LP  0  0  0  0  0  0  0  0  0  0  0  0  # atno 17370 bound_to 10713
  156.1235  130.6127  151.0229 LP  0  0  0  0  0  0  0  0  0  0  0  0  # atno 17371 bound_to 10713
  141.2209  133.7306  156.8906 LP  0  0  0  0  0  0  0  0  0  0  0  0  # atno 17394 bound_to 11000
  140.1640  134.9146  157.2751 LP  0  0  0  0  0  0  0  0  0  0  0  0  # atno 17395 bound_to 11000

$$$$
