AV-unprocessed.smi:1006|AV-procd|sdf|4390|dock3
  -GOLD-   22720 2323D 1   1.00000     0.00000
 Structure written by MMmdl.
 45 47  0  0  0  0  0  0  0  0  1 V2000
  153.3173  131.7344  165.0935 C   0  0  0  0  0  0  0  0  0  0  0  0
  154.0074  132.8528  164.3417 C   0  0  0  0  0  0  0  0  0  0  0  0
  154.7149  132.6065  163.1455 C   0  0  0  0  0  0  0  0  0  0  0  0
  155.3083  133.7283  162.5298 C   0  0  0  0  0  0  0  0  0  0  0  0
  156.0289  133.5926  161.3462 N   0  0  0  0  0  0  0  0  0  0  0  0
  155.2024  134.9677  163.0550 N   0  0  0  0  0  0  0  0  0  0  0  0
  154.5109  135.0764  164.1918 C   0  0  0  0  0  0  0  0  0  0  0  0
  154.3684  136.7291  164.8441 S   0  0  0  0  0  0  0  0  0  0  0  0
  155.3048  137.6998  163.6229 C   0  0  0  0  0  0  0  0  0  0  0  0
  154.4237  138.1600  162.4506 C   0  0  2  0  0  0  0  0  0  0  0  0
  153.5040  137.1360  162.1206 O   0  0  0  0  0  0  0  0  0  0  0  0
  155.2600  138.5183  161.2077 C   0  0  0  0  0  0  0  0  0  0  0  0
  154.4749  139.1926  160.1900 N   0  0  0  0  0  0  0  0  0  0  0  0
  154.2333  138.7739  158.9327 C   0  0  0  0  0  0  0  0  0  0  0  0
  153.4805  139.5565  158.1646 N   0  0  0  0  0  0  0  0  0  0  0  0
  153.2006  140.6051  159.0244 C   0  0  0  0  0  0  0  0  0  0  0  0
  152.4399  141.7780  158.8245 C   0  0  0  0  0  0  0  0  0  0  0  0
  152.2859  142.7273  159.8601 C   0  0  0  0  0  0  0  0  0  0  0  0
  151.4591  143.9746  159.6017 C   0  0  0  0  0  0  0  0  0  0  0  0
  152.8978  142.5098  161.1208 C   0  0  0  0  0  0  0  0  0  0  0  0
  152.7465  143.5156  162.2482 C   0  0  0  0  0  0  0  0  0  0  0  0
  153.6611  141.3435  161.3372 C   0  0  0  0  0  0  0  0  0  0  0  0
  153.8076  140.4071  160.2988 C   0  0  0  0  0  0  0  0  0  0  0  0
  153.9047  134.0943  164.8659 N   0  0  0  0  0  0  0  0  0  0  0  0
  153.8059  130.7789  164.9004 H   0  0  0  0  0  0  0  0  0  0  0  0
  152.2764  131.6575  164.7786 H   0  0  0  0  0  0  0  0  0  0  0  0
  153.3399  131.9151  166.1687 H   0  0  0  0  0  0  0  0  0  0  0  0
  154.7944  131.6146  162.7250 H   0  0  0  0  0  0  0  0  0  0  0  0
  156.1468  132.6955  160.8981 H   0  0  0  0  0  0  0  0  0  0  0  0
  156.4682  134.3881  160.9058 H   0  0  0  0  0  0  0  0  0  0  0  0
  155.7233  138.5729  164.1241 H   0  0  0  0  0  0  0  0  0  0  0  0
  156.1436  137.1046  163.2598 H   0  0  0  0  0  0  0  0  0  0  0  0
  153.8543  139.0375  162.7604 H   0  0  0  0  0  0  0  0  0  0  0  0
  152.7586  137.2022  162.6975 H   0  0  0  0  0  0  0  0  0  0  0  0
  156.0857  139.1741  161.4863 H   0  0  0  0  0  0  0  0  0  0  0  0
  155.7071  137.6235  160.7720 H   0  0  0  0  0  0  0  0  0  0  0  0
  154.6305  137.8403  158.5614 H   0  0  0  0  0  0  0  0  0  0  0  0
  151.9735  141.9431  157.8644 H   0  0  0  0  0  0  0  0  0  0  0  0
  152.0629  144.8706  159.7481 H   0  0  0  0  0  0  0  0  0  0  0  0
  150.6072  144.0152  160.2809 H   0  0  0  0  0  0  0  0  0  0  0  0
  151.0747  143.9937  158.5814 H   0  0  0  0  0  0  0  0  0  0  0  0
  153.2520  143.1776  163.1533 H   0  0  0  0  0  0  0  0  0  0  0  0
  151.6939  143.6644  162.4900 H   0  0  0  0  0  0  0  0  0  0  0  0
  153.1764  144.4760  161.9630 H   0  0  0  0  0  0  0  0  0  0  0  0
  154.1326  141.1641  162.2922 H   0  0  0  0  0  0  0  0  0  0  0  0
  1  2  1  0  0  0  0
  1 25  1  0  0  0  0
  1 26  1  0  0  0  0
  1 27  1  0  0  0  0
  2 24  1  0  0  0  0
  2  3  2  0  0  0  0
  3  4  1  0  0  0  0
  3 28  1  0  0  0  0
  4  5  1  0  0  0  0
  4  6  2  0  0  0  0
  5 29  1  0  0  0  0
  5 30  1  0  0  0  0
  6  7  1  0  0  0  0
  7  8  1  0  0  0  0
  7 24  2  0  0  0  0
  8  9  1  0  0  0  0
  9 10  1  0  0  0  0
  9 31  1  0  0  0  0
  9 32  1  0  0  0  0
 10 11  1  0  0  0  0
 10 12  1  0  0  0  0
 10 33  1  0  0  0  0
 11 34  1  0  0  0  0
 12 13  1  0  0  0  0
 12 35  1  0  0  0  0
 12 36  1  0  0  0  0
 13 23  1  0  0  0  0
 13 14  1  0  0  0  0
 14 15  2  0  0  0  0
 14 37  1  0  0  0  0
 15 16  1  0  0  0  0
 16 23  2  0  0  0  0
 16 17  1  0  0  0  0
 17 18  2  0  0  0  0
 17 38  1  0  0  0  0
 18 19  1  0  0  0  0
 18 20  1  0  0  0  0
 19 39  1  0  0  0  0
 19 40  1  0  0  0  0
 19 41  1  0  0  0  0
 20 21  1  0  0  0  0
 20 22  2  0  0  0  0
 21 42  1  0  0  0  0
 21 43  1  0  0  0  0
 21 44  1  0  0  0  0
 22 23  1  0  0  0  0
 22 45  1  0  0  0  0
M  END
> <s_m_source_file>
AV-unprocessed.smi

> <i_m_source_file_index>
1006

> <i_lp_mmshare_version>
43012

> <i_f3d_flags>
0

> <s_epik_input>
W0NIM11jMVtjSF1jKFtOSDJdKW5jKG4xKVNbQ0gyXVtDQEhdKFtPSF0pW0NIMl1uKFtjSF1uMiljKGMyMylbY0hdYyhbQ0gzXSljKFtjSF0zKVtDSDNd

> <s_epik_cmdline>
J2VwaWtfcHl0aG9uJywgJy1waCcsICc3LjAnLCAnLXRuJywgJzgnLCAnLW1hJywgJzIwMCcsICctbWV0YWxfYmluZGluZycsICctaW1hZScsICc8aW5maWxlLm1hZT4nLCAnLW9tYWUnLCAnPG91dGZpbGUubWFlPic=

> <r_lp_tautomer_probability>
1

> <r_epik_Ionization_Penalty>
0.490208

> <r_epik_Ionization_Penalty_Charging>
0

> <r_epik_Ionization_Penalty_Neutral>
0.490208

> <r_epik_State_Penalty>
0.473203

> <r_epik_Charging_Adjusted_Penalty>
0.473203

> <i_epik_Tot_Q>
0

> <i_epik_Tot_abs_Q>
0

> <r_epik_Metal_State_Penalty>
0.354099

> <b_epik_Metal_Only>
0

> <s_lp_Force_Field>
OPLS_2005

> <r_lp_Energy>
3.13918

> <b_lp_Chiralities_Consistent>
1

> <s_lp_Variant>
AV-unprocessed.smi:1006-1

> <Gold.Version>
5.8.1

> <Gold.Id.Protein>
6NUR|6NUR_protein|mol2

> <Gold.PLP.Fitness>
47.3560

> <Gold.PLP.PLP>
-45.4791

> <Gold.PLP.part.hbond>
-1.0000

> <Gold.PLP.part.metal>
0.0000

> <Gold.PLP.part.buried>
-2.7201

> <Gold.PLP.part.nonpolar>
-42.2001

> <Gold.PLP.part.repulsive>
0.1230

> <Gold.PLP.ligand.clash>
0.0000

> <Gold.PLP.ligand.torsion>
0.4334

> <Gold.PLP.Chemscore.Hbond>
0.9000

> <Gold.PLP.Chemscore.CHOScore>
0.0000

> <Gold.PLP.Chemscore.Metal>
0.0000

> <Gold.Chemscore.Hbonds>
donor molecule, donor type, donor heavy atom, donor atom, acceptor molecule, acceptor atom, score
      P1  H  7997  8009       L1    15  0.75

> <Gold.PLP.Chemscore.Internal.Correction>
0.0437

> <Gold.Rescore>
     Score         DG    S(hbond)    S(metal)    S(lipo)     H(rot)  DE(clash)    DE(int)     intcor
     13.66     -14.32       0.18        0.00     132.04       2.82       0.28       0.38       ----

> <Gold.Chemscore.Fitness>
13.6578

> <Gold.Chemscore.DG>
-14.3176

> <Gold.Chemscore.ZeroCoef>
-5.4800

> <Gold.Chemscore.Hbond>
0.1829

> <Gold.Chemscore.Metal>
0.0000

> <Gold.Chemscore.Lipo>
132.0352

> <Gold.Chemscore.Internal_Hbond>
0.0000

> <Gold.Chemscore.DEClash>
0.2767

> <Gold.Chemscore.DEInternal>
0.3832

> <Gold.Chemscore.Rot>
2.8209

> <Gold.Chemscore.Internal.Correction>
   9.000000E+99

> <Gold.Chemscore.Hbonds>
donor molecule, donor type, donor heavy atom, donor atom, acceptor molecule, acceptor atom, score
      P1  H  7997  8009       L1    15  0.06

> <Gold.Chemscore.Hbond.Weighted>
-0.6110

> <Gold.Chemscore.Metal.Weighted>
-0.0000

> <Gold.Chemscore.Lipo.Weighted>
-15.4481

> <Gold.Chemscore.Internal_Hbond.Weighted>
0.0000

> <Gold.Chemscore.DEClash.Weighted>
0.2767

> <Gold.Chemscore.DEInternal.Weighted>
0.3832

> <Gold.Chemscore.Rot.Weighted>
7.2215

> <Gold.Chemscore.Internal.Correction.Weighted>
   9.000000E+99

> <Gold.Protein.RotatedTorsions>
[ 6907 6896 6895 6894 ] final -152.85 input  -60.11 | X-H torsion
[ 7974 7965 7964 7962 ] final  -26.18 input  175.53 | X-H torsion
[ 8008 7997 7996 7995 ] final  142.61 input   59.86 | X-H torsion
[ 10167 10162 10161 10158 ] final  -91.10 input  -65.29 | X-H torsion
[ 10718 10713 10712 10709 ] final  160.24 input   66.30 | X-H torsion
[ 10763 10752 10751 10750 ] final   86.96 input  -60.55 | X-H torsion
[ 11005 11000 10999 10996 ] final -132.01 input  -57.11 | X-H torsion

> <Gold.Protein.ActiveResidues>
 VAL166  LYS551  ARG553  GLY616  TRP617  ASP618  TYR619  PRO620  LYS621  CYS622 
 ASP623  PHE694  ASN695  SER759  ASP760  ASP761  ALA762  ILE779  LEU786  VAL792 
 PHE793  MET794  SER795  GLU796  ALA797  LYS798  CYS799  TRP800  GLU811  SER814 

> <Gold.Protein.RotatedAtoms>
  151.2339  133.4435  159.2604 H   0  0  0  0  0  0  0  0  0  0  0  0  # atno 6907 bound_to 6896
  151.0768  134.9833  159.8346 H   0  0  0  0  0  0  0  0  0  0  0  0  # atno 6908 bound_to 6896
  152.5419  134.2281  159.8867 H   0  0  0  0  0  0  0  0  0  0  0  0  # atno 6909 bound_to 6896
  146.1442  140.4985  142.8639 H   0  0  0  0  0  0  0  0  0  0  0  0  # atno 7974 bound_to 7965
  156.2946  140.2284  156.4755 H   0  0  0  0  0  0  0  0  0  0  0  0  # atno 8008 bound_to 7997
  154.7898  140.0455  157.1213 H   0  0  0  0  0  0  0  0  0  0  0  0  # atno 8009 bound_to 7997
  154.9659  140.3060  155.5013 H   0  0  0  0  0  0  0  0  0  0  0  0  # atno 8010 bound_to 7997
  140.3483  143.2905  151.9756 H   0  0  0  0  0  0  0  0  0  0  0  0  # atno 10167 bound_to 10162
  157.1532  131.0569  151.2270 H   0  0  0  0  0  0  0  0  0  0  0  0  # atno 10718 bound_to 10713
  153.1622  135.4561  154.9787 H   0  0  0  0  0  0  0  0  0  0  0  0  # atno 10763 bound_to 10752
  154.7905  135.3219  154.7789 H   0  0  0  0  0  0  0  0  0  0  0  0  # atno 10764 bound_to 10752
  153.8278  135.6941  153.4873 H   0  0  0  0  0  0  0  0  0  0  0  0  # atno 10765 bound_to 10752
  140.9208  134.1447  157.4315 H   0  0  0  0  0  0  0  0  0  0  0  0  # atno 11005 bound_to 11000
  144.7827  140.5874  143.6594 LP  0  0  0  0  0  0  0  0  0  0  0  0  # atno 17320 bound_to 7965
  145.4975  139.1485  143.3675 LP  0  0  0  0  0  0  0  0  0  0  0  0  # atno 17321 bound_to 7965
  139.4830  144.6098  151.7455 LP  0  0  0  0  0  0  0  0  0  0  0  0  # atno 17342 bound_to 10162
  140.5243  144.0829  150.6032 LP  0  0  0  0  0  0  0  0  0  0  0  0  # atno 17343 bound_to 10162
  157.4201  130.7433  149.6907 LP  0  0  0  0  0  0  0  0  0  0  0  0  # atno 17370 bound_to 10713
  155.9767  130.4072  150.3763 LP  0  0  0  0  0  0  0  0  0  0  0  0  # atno 17371 bound_to 10713
  139.8775  134.9970  156.5826 LP  0  0  0  0  0  0  0  0  0  0  0  0  # atno 17394 bound_to 11000
  140.7990  133.8520  155.8710 LP  0  0  0  0  0  0  0  0  0  0  0  0  # atno 17395 bound_to 11000

$$$$
