AV-unprocessed.smi:564|AV-procd|sdf|2948|dock8
  -GOLD-   2262023443D 1   1.00000     0.00000
 Structure written by MMmdl.
 50 51  0  0  0  0  0  0  0  0  2 V2000
  146.3257  130.6414  151.9064 C   0  0  0  0  0  0  0  0  0  0  0  0
  145.7116  131.8087  151.1878 C   0  0  0  0  0  0  0  0  0  0  0  0
  144.9408  131.5922  150.1350 N   0  0  0  0  0  0  0  0  0  0  0  0
  144.5541  132.8195  149.7334 N   0  0  0  0  0  0  0  0  0  0  0  0
  143.6859  132.9485  148.5790 C   0  0  0  0  0  0  0  0  0  0  0  0
  145.0833  133.8138  150.5333 C   0  0  0  0  0  0  0  0  0  0  0  0
  144.8011  135.2622  150.2957 C   0  0  0  0  0  0  0  0  0  0  0  0
  145.8450  133.1959  151.4892 C   0  0  0  0  0  0  0  0  0  0  0  0
  146.6462  133.8158  152.6064 C   0  0  0  0  0  0  0  0  0  0  0  0
  145.8762  134.9820  153.2316 C   0  0  0  0  0  0  0  0  0  0  0  0
  144.7875  134.7899  153.7740 O   0  0  0  0  0  0  0  0  0  0  0  0
  146.4536  136.1898  153.1534 N   0  0  0  0  0  0  0  0  0  0  0  0
  145.8760  137.4160  153.6864 C   0  0  0  0  0  0  0  0  0  0  0  0
  146.6811  138.6379  153.2128 C   0  0  0  0  0  0  0  0  0  0  0  0
  146.2488  139.9125  153.8478 N   0  3  1  0  0  0  0  0  0  0  0  0
  145.7737  139.7064  155.2431 C   0  0  0  0  0  0  0  0  0  0  0  0
  145.1258  140.9795  155.8102 C   0  0  0  0  0  0  0  0  0  0  0  0
  146.0887  142.1687  155.7325 C   0  0  0  0  0  0  0  0  0  0  0  0
  146.5773  142.3492  154.2889 C   0  0  0  0  0  0  0  0  0  0  0  0
  147.2040  141.0588  153.7184 C   0  0  1  0  0  0  0  0  0  0  0  0
  148.5982  140.7751  154.3182 C   0  0  0  0  0  0  0  0  0  0  0  0
  146.1187  130.6908  152.9755 H   0  0  0  0  0  0  0  0  0  0  0  0
  147.4079  130.6317  151.7777 H   0  0  0  0  0  0  0  0  0  0  0  0
  145.9389  129.6898  151.5396 H   0  0  0  0  0  0  0  0  0  0  0  0
  144.2328  133.4181  147.7615 H   0  0  0  0  0  0  0  0  0  0  0  0
  142.8239  133.5653  148.8332 H   0  0  0  0  0  0  0  0  0  0  0  0
  143.3319  131.9698  148.2521 H   0  0  0  0  0  0  0  0  0  0  0  0
  145.2664  135.8861  151.0586 H   0  0  0  0  0  0  0  0  0  0  0  0
  143.7287  135.4569  150.3162 H   0  0  0  0  0  0  0  0  0  0  0  0
  145.1846  135.5772  149.3251 H   0  0  0  0  0  0  0  0  0  0  0  0
  146.8582  133.0897  153.3917 H   0  0  0  0  0  0  0  0  0  0  0  0
  147.6172  134.1590  152.2470 H   0  0  0  0  0  0  0  0  0  0  0  0
  147.3489  136.2611  152.6915 H   0  0  0  0  0  0  0  0  0  0  0  0
  144.8412  137.4684  153.3485 H   0  0  0  0  0  0  0  0  0  0  0  0
  145.8629  137.3806  154.7770 H   0  0  0  0  0  0  0  0  0  0  0  0
  147.7274  138.4661  153.4703 H   0  0  0  0  0  0  0  0  0  0  0  0
  146.6530  138.7243  152.1264 H   0  0  0  0  0  0  0  0  0  0  0  0
  145.0377  138.9018  155.2639 H   0  0  0  0  0  0  0  0  0  0  0  0
  146.6003  139.3850  155.8774 H   0  0  0  0  0  0  0  0  0  0  0  0
  144.2168  141.2073  155.2519 H   0  0  0  0  0  0  0  0  0  0  0  0
  144.8203  140.8141  156.8438 H   0  0  0  0  0  0  0  0  0  0  0  0
  145.5923  143.0764  156.0771 H   0  0  0  0  0  0  0  0  0  0  0  0
  146.9358  142.0071  156.3999 H   0  0  0  0  0  0  0  0  0  0  0  0
  145.7325  142.6428  153.6641 H   0  0  0  0  0  0  0  0  0  0  0  0
  147.2899  143.1732  154.2361 H   0  0  0  0  0  0  0  0  0  0  0  0
  147.3507  141.2508  152.6563 H   0  0  0  0  0  0  0  0  0  0  0  0
  149.2421  141.6500  154.2245 H   0  0  0  0  0  0  0  0  0  0  0  0
  149.1041  139.9604  153.8008 H   0  0  0  0  0  0  0  0  0  0  0  0
  148.5521  140.5211  155.3768 H   0  0  0  0  0  0  0  0  0  0  0  0
  145.4261  140.1959  153.3344 H   0  0  0  0  0  0  0  0  0  0  0  0
  1  2  1  0  0  0  0
  1 22  1  0  0  0  0
  1 23  1  0  0  0  0
  1 24  1  0  0  0  0
  2  8  1  0  0  0  0
  2  3  2  0  0  0  0
  3  4  1  0  0  0  0
  4  5  1  0  0  0  0
  4  6  1  0  0  0  0
  5 25  1  0  0  0  0
  5 26  1  0  0  0  0
  5 27  1  0  0  0  0
  6  7  1  0  0  0  0
  6  8  2  0  0  0  0
  7 28  1  0  0  0  0
  7 29  1  0  0  0  0
  7 30  1  0  0  0  0
  8  9  1  0  0  0  0
  9 10  1  0  0  0  0
  9 31  1  0  0  0  0
  9 32  1  0  0  0  0
 10 11  2  0  0  0  0
 10 12  1  0  0  0  0
 12 13  1  0  0  0  0
 12 33  1  0  0  0  0
 13 14  1  0  0  0  0
 13 34  1  0  0  0  0
 13 35  1  0  0  0  0
 14 15  1  0  0  0  0
 14 36  1  0  0  0  0
 14 37  1  0  0  0  0
 15 20  1  0  0  0  0
 15 16  1  0  0  0  0
 15 50  1  0  0  0  0
 16 17  1  0  0  0  0
 16 38  1  0  0  0  0
 16 39  1  0  0  0  0
 17 18  1  0  0  0  0
 17 40  1  0  0  0  0
 17 41  1  0  0  0  0
 18 19  1  0  0  0  0
 18 42  1  0  0  0  0
 18 43  1  0  0  0  0
 19 20  1  0  0  0  0
 19 44  1  0  0  0  0
 19 45  1  0  0  0  0
 20 21  1  0  0  0  0
 20 46  1  0  0  0  0
 21 47  1  0  0  0  0
 21 48  1  0  0  0  0
 21 49  1  0  0  0  0
M  CHG  1  15   1
M  END
> <s_m_source_file>
AV-unprocessed.smi

> <i_m_source_file_index>
564

> <i_lp_mmshare_version>
43012

> <i_f3d_flags>
0

> <s_epik_input>
W0NIM11jMW5uKFtDSDNdKWMoW0NIM10pYzFbQ0gyXUMoPU8pW05IXVtDSDJdW0NIMl1OMltDSDJdW0NIMl1bQ0gyXVtDSDJdW0NASF0yW0NIM10=

> <s_epik_cmdline>
J2VwaWtfcHl0aG9uJywgJy1waCcsICc3LjAnLCAnLXRuJywgJzgnLCAnLW1hJywgJzIwMCcsICctbWV0YWxfYmluZGluZycsICctaW1hZScsICc8aW5maWxlLm1hZT4nLCAnLW9tYWUnLCAnPG91dGZpbGUubWFlPic=

> <r_lp_tautomer_probability>
1

> <r_epik_Ionization_Penalty>
0.00456826

> <r_epik_Ionization_Penalty_Charging>
0.00240401

> <r_epik_Ionization_Penalty_Neutral>
0.00216425

> <r_epik_State_Penalty>
-0

> <r_epik_Charging_Adjusted_Penalty>
0.00240401

> <i_epik_Tot_Q>
1

> <i_epik_Tot_abs_Q>
1

> <r_epik_Metal_State_Penalty>
-0

> <b_epik_Metal_Only>
0

> <s_lp_Force_Field>
OPLS_2005

> <r_lp_Energy>
16.0318

> <b_lp_Chiralities_Consistent>
1

> <s_lp_Variant>
AV-unprocessed.smi:564-2

> <Gold.Version>
5.8.1

> <Gold.Id.Protein>
6NUR|6NUR_protein|mol2

> <Gold.PLP.Fitness>
45.5577

> <Gold.PLP.PLP>
-37.6107

> <Gold.PLP.part.hbond>
-2.2241

> <Gold.PLP.part.metal>
0.0000

> <Gold.PLP.part.buried>
-4.7784

> <Gold.PLP.part.nonpolar>
-31.6185

> <Gold.PLP.part.repulsive>
0.1754

> <Gold.PLP.ligand.clash>
0.0000

> <Gold.PLP.ligand.torsion>
0.5527

> <Gold.PLP.Chemscore.Hbond>
3.0000

> <Gold.PLP.Chemscore.CHOScore>
0.0000

> <Gold.PLP.Chemscore.Metal>
0.0000

> <Gold.Chemscore.Hbonds>
donor molecule, donor type, donor heavy atom, donor atom, acceptor molecule, acceptor atom, score
      L1  H    12    33       P1  7948  1.00
      L1  H    15    50       P1 10175  2.00

> <Gold.PLP.Chemscore.Internal.Correction>
0.0524

> <Gold.Rescore>
     Score         DG    S(hbond)    S(metal)    S(lipo)     H(rot)  DE(clash)    DE(int)     intcor
     18.11     -18.90       1.99        0.00      93.12       1.61       0.17       0.63       ----

> <Gold.Chemscore.Fitness>
18.1058

> <Gold.Chemscore.DG>
-18.9019

> <Gold.Chemscore.ZeroCoef>
-5.4800

> <Gold.Chemscore.Hbond>
1.9939

> <Gold.Chemscore.Metal>
0.0000

> <Gold.Chemscore.Lipo>
93.1180

> <Gold.Chemscore.Internal_Hbond>
0.0000

> <Gold.Chemscore.DEClash>
0.1707

> <Gold.Chemscore.DEInternal>
0.6254

> <Gold.Chemscore.Rot>
1.6142

> <Gold.Chemscore.Internal.Correction>
   9.000000E+99

> <Gold.Chemscore.Hbonds>
donor molecule, donor type, donor heavy atom, donor atom, acceptor molecule, acceptor atom, score
      L1  H    12    33       P1  7948  1.00
      L1  H    15    50       P1 10175  0.98

> <Gold.Chemscore.Hbond.Weighted>
-6.6595

> <Gold.Chemscore.Metal.Weighted>
-0.0000

> <Gold.Chemscore.Lipo.Weighted>
-10.8948

> <Gold.Chemscore.Internal_Hbond.Weighted>
0.0000

> <Gold.Chemscore.DEClash.Weighted>
0.1707

> <Gold.Chemscore.DEInternal.Weighted>
0.6254

> <Gold.Chemscore.Rot.Weighted>
4.1324

> <Gold.Chemscore.Internal.Correction.Weighted>
   9.000000E+99

> <Gold.Protein.RotatedTorsions>
[ 6907 6896 6895 6894 ] final -116.26 input  -60.11 | X-H torsion
[ 7974 7965 7964 7962 ] final -139.14 input  175.53 | X-H torsion
[ 8008 7997 7996 7995 ] final  103.15 input   59.86 | X-H torsion
[ 10167 10162 10161 10158 ] final  -81.02 input  -65.29 | X-H torsion
[ 10718 10713 10712 10709 ] final   11.42 input   66.30 | X-H torsion
[ 10763 10752 10751 10750 ] final -149.74 input  -60.55 | X-H torsion
[ 11005 11000 10999 10996 ] final  -66.51 input  -57.11 | X-H torsion

> <Gold.Protein.ActiveResidues>
 VAL166  LYS551  ARG553  GLY616  TRP617  ASP618  TYR619  PRO620  LYS621  CYS622 
 ASP623  PHE694  ASN695  SER759  ASP760  ASP761  ALA762  ILE779  LEU786  VAL792 
 PHE793  MET794  SER795  GLU796  ALA797  LYS798  CYS799  TRP800  GLU811  SER814 

> <Gold.Protein.RotatedAtoms>
  150.8042  133.8542  159.3213 H   0  0  0  0  0  0  0  0  0  0  0  0  # atno 6907 bound_to 6896
  151.6346  135.1017  160.0138 H   0  0  0  0  0  0  0  0  0  0  0  0  # atno 6908 bound_to 6896
  152.4131  133.6955  159.6450 H   0  0  0  0  0  0  0  0  0  0  0  0  # atno 6909 bound_to 6896
  144.8701  140.6353  143.5272 H   0  0  0  0  0  0  0  0  0  0  0  0  # atno 7974 bound_to 7965
  156.1458  140.3169  155.8568 H   0  0  0  0  0  0  0  0  0  0  0  0  # atno 8008 bound_to 7997
  155.4067  140.0503  157.3051 H   0  0  0  0  0  0  0  0  0  0  0  0  # atno 8009 bound_to 7997
  154.5015  140.2131  155.9349 H   0  0  0  0  0  0  0  0  0  0  0  0  # atno 8010 bound_to 7997
  140.4450  143.2502  151.8571 H   0  0  0  0  0  0  0  0  0  0  0  0  # atno 10167 bound_to 10162
  156.9954  130.6058  149.5690 H   0  0  0  0  0  0  0  0  0  0  0  0  # atno 10718 bound_to 10713
  154.8160  135.3302  154.7175 H   0  0  0  0  0  0  0  0  0  0  0  0  # atno 10763 bound_to 10752
  153.7815  135.6918  153.4892 H   0  0  0  0  0  0  0  0  0  0  0  0  # atno 10764 bound_to 10752
  153.1977  135.4527  155.0175 H   0  0  0  0  0  0  0  0  0  0  0  0  # atno 10765 bound_to 10752
  141.1484  133.6701  156.6151 H   0  0  0  0  0  0  0  0  0  0  0  0  # atno 11005 bound_to 11000
  145.4147  139.1574  143.4107 LP  0  0  0  0  0  0  0  0  0  0  0  0  # atno 17320 bound_to 7965
  146.2924  140.4253  142.8734 LP  0  0  0  0  0  0  0  0  0  0  0  0  # atno 17321 bound_to 7965
  139.4792  144.5186  151.8834 LP  0  0  0  0  0  0  0  0  0  0  0  0  # atno 17342 bound_to 10162
  140.4274  144.2162  150.5887 LP  0  0  0  0  0  0  0  0  0  0  0  0  # atno 17343 bound_to 10162
  156.0191  130.5286  150.8223 LP  0  0  0  0  0  0  0  0  0  0  0  0  # atno 17370 bound_to 10713
  157.5429  131.0941  150.9803 LP  0  0  0  0  0  0  0  0  0  0  0  0  # atno 17371 bound_to 10713
  140.3584  134.7708  157.4516 LP  0  0  0  0  0  0  0  0  0  0  0  0  # atno 17394 bound_to 11000
  140.0804  134.5738  155.8546 LP  0  0  0  0  0  0  0  0  0  0  0  0  # atno 17395 bound_to 11000

$$$$
