AV-unprocessed.smi:1269|AV-procd|sdf|5327|dock4
  -GOLD-   22720 4453D 1   1.00000     0.00000
 Structure written by MMmdl.
 43 44  0  0  0  0  0  0  0  0  1 V2000
  150.7737  129.3546  154.7426 C   0  0  0  0  0  0  0  0  0  0  0  0
  151.0383  130.3942  155.6781 O   0  0  0  0  0  0  0  0  0  0  0  0
  150.5926  131.6671  155.3866 C   0  0  0  0  0  0  0  0  0  0  0  0
  150.9544  132.7220  156.2471 C   0  0  0  0  0  0  0  0  0  0  0  0
  150.5078  134.0253  155.9553 C   0  0  0  0  0  0  0  0  0  0  0  0
  149.7075  134.2340  154.8058 C   0  0  0  0  0  0  0  0  0  0  0  0
  149.1893  135.4907  154.3853 N   0  0  0  0  0  0  0  0  0  0  0  0
  148.9646  136.6090  155.0969 C   0  0  0  0  0  0  0  0  0  0  0  0
  149.1480  136.7382  156.3065 O   0  0  0  0  0  0  0  0  0  0  0  0
  148.5092  137.5930  154.3073 N   0  0  0  0  0  0  0  0  0  0  0  0
  148.2025  138.9590  154.7292 C   0  0  2  0  0  0  0  0  0  0  0  0
  146.7263  139.2528  154.4297 C   0  0  0  0  0  0  0  0  0  0  0  0
  149.1255  139.9624  154.0037 C   0  0  0  0  0  0  0  0  0  0  0  0
  150.4812  140.0827  154.5421 N   0  0  0  0  0  0  0  0  0  0  0  0
  151.2368  138.8346  154.4535 C   0  0  0  0  0  0  0  0  0  0  0  0
  152.6531  138.9813  155.0362 C   0  0  0  0  0  0  0  0  0  0  0  0
  152.5712  139.4297  156.3851 O   0  0  0  0  0  0  0  0  0  0  0  0
  151.8772  140.6666  156.5112 C   0  0  0  0  0  0  0  0  0  0  0  0
  150.4589  140.5235  155.9322 C   0  0  0  0  0  0  0  0  0  0  0  0
  149.4000  133.1090  154.0124 C   0  0  0  0  0  0  0  0  0  0  0  0
  149.8255  131.8579  154.2854 N   0  0  0  0  0  0  0  0  0  0  0  0
  151.1864  128.4183  155.1179 H   0  0  0  0  0  0  0  0  0  0  0  0
  151.2401  129.5582  153.7775 H   0  0  0  0  0  0  0  0  0  0  0  0
  149.7020  129.2092  154.5989 H   0  0  0  0  0  0  0  0  0  0  0  0
  151.5665  132.5357  157.1172 H   0  0  0  0  0  0  0  0  0  0  0  0
  150.7926  134.8232  156.6214 H   0  0  0  0  0  0  0  0  0  0  0  0
  148.9810  135.5543  153.3995 H   0  0  0  0  0  0  0  0  0  0  0  0
  148.3886  137.3897  153.3261 H   0  0  0  0  0  0  0  0  0  0  0  0
  148.3262  139.0565  155.8083 H   0  0  0  0  0  0  0  0  0  0  0  0
  146.4550  140.2594  154.7494 H   0  0  0  0  0  0  0  0  0  0  0  0
  146.0725  138.5547  154.9540 H   0  0  0  0  0  0  0  0  0  0  0  0
  146.5122  139.1736  153.3632 H   0  0  0  0  0  0  0  0  0  0  0  0
  149.1874  139.6570  152.9580 H   0  0  0  0  0  0  0  0  0  0  0  0
  148.6538  140.9463  153.9949 H   0  0  0  0  0  0  0  0  0  0  0  0
  150.7079  138.0429  154.9863 H   0  0  0  0  0  0  0  0  0  0  0  0
  151.3206  138.5108  153.4172 H   0  0  0  0  0  0  0  0  0  0  0  0
  153.1755  138.0248  155.0096 H   0  0  0  0  0  0  0  0  0  0  0  0
  153.2417  139.6853  154.4457 H   0  0  0  0  0  0  0  0  0  0  0  0
  151.8308  140.9443  157.5643 H   0  0  0  0  0  0  0  0  0  0  0  0
  152.4278  141.4547  155.9948 H   0  0  0  0  0  0  0  0  0  0  0  0
  149.9430  141.4813  156.0088 H   0  0  0  0  0  0  0  0  0  0  0  0
  149.8915  139.8142  156.5370 H   0  0  0  0  0  0  0  0  0  0  0  0
  148.7917  133.2144  153.1258 H   0  0  0  0  0  0  0  0  0  0  0  0
  1  2  1  0  0  0  0
  1 22  1  0  0  0  0
  1 23  1  0  0  0  0
  1 24  1  0  0  0  0
  2  3  1  0  0  0  0
  3 21  1  0  0  0  0
  3  4  2  0  0  0  0
  4  5  1  0  0  0  0
  4 25  1  0  0  0  0
  5  6  2  0  0  0  0
  5 26  1  0  0  0  0
  6  7  1  0  0  0  0
  6 20  1  0  0  0  0
  7  8  1  0  0  0  0
  7 27  1  0  0  0  0
  8  9  2  0  0  0  0
  8 10  1  0  0  0  0
 10 11  1  0  0  0  0
 10 28  1  0  0  0  0
 11 12  1  0  0  0  0
 11 13  1  0  0  0  0
 11 29  1  0  0  0  0
 12 30  1  0  0  0  0
 12 31  1  0  0  0  0
 12 32  1  0  0  0  0
 13 14  1  0  0  0  0
 13 33  1  0  0  0  0
 13 34  1  0  0  0  0
 14 19  1  0  0  0  0
 14 15  1  0  0  0  0
 15 16  1  0  0  0  0
 15 35  1  0  0  0  0
 15 36  1  0  0  0  0
 16 17  1  0  0  0  0
 16 37  1  0  0  0  0
 16 38  1  0  0  0  0
 17 18  1  0  0  0  0
 18 19  1  0  0  0  0
 18 39  1  0  0  0  0
 18 40  1  0  0  0  0
 19 41  1  0  0  0  0
 19 42  1  0  0  0  0
 20 21  2  0  0  0  0
 20 43  1  0  0  0  0
M  END
> <s_m_source_file>
AV-unprocessed.smi

> <i_m_source_file_index>
1269

> <i_lp_mmshare_version>
43012

> <i_f3d_flags>
0

> <s_epik_input>
W0NIM11PYzFbY0hdW2NIXWMoW2NIXW4xKVtOSF1DKD1PKVtOSF1bQ0BIXShbQ0gzXSlbQ0gyXU4yW0NIMl1bQ0gyXU9bQ0gyXVtDSDJdMg==

> <s_epik_cmdline>
J2VwaWtfcHl0aG9uJywgJy1waCcsICc3LjAnLCAnLXRuJywgJzgnLCAnLW1hJywgJzIwMCcsICctbWV0YWxfYmluZGluZycsICctaW1hZScsICc8aW5maWxlLm1hZT4nLCAnLW9tYWUnLCAnPG91dGZpbGUubWFlPic=

> <r_lp_tautomer_probability>
1

> <r_epik_Ionization_Penalty>
0.266086

> <r_epik_Ionization_Penalty_Charging>
0

> <r_epik_Ionization_Penalty_Neutral>
0.266086

> <r_epik_State_Penalty>
0.257924

> <r_epik_Charging_Adjusted_Penalty>
0.257924

> <i_epik_Tot_Q>
0

> <i_epik_Tot_abs_Q>
0

> <r_epik_Metal_State_Penalty>
0.25792

> <b_epik_Metal_Only>
0

> <s_lp_Force_Field>
OPLS_2005

> <r_lp_Energy>
28.3998

> <b_lp_Chiralities_Consistent>
1

> <s_lp_Variant>
AV-unprocessed.smi:1269-1

> <Gold.Version>
5.8.1

> <Gold.Id.Protein>
6NUR|6NUR_protein|mol2

> <Gold.PLP.Fitness>
41.4341

> <Gold.PLP.PLP>
-31.6544

> <Gold.PLP.part.hbond>
-4.0000

> <Gold.PLP.part.metal>
0.0000

> <Gold.PLP.part.buried>
-2.3747

> <Gold.PLP.part.nonpolar>
-24.8876

> <Gold.PLP.part.repulsive>
0.1690

> <Gold.PLP.ligand.clash>
0.0000

> <Gold.PLP.ligand.torsion>
0.3245

> <Gold.PLP.Chemscore.Hbond>
3.4460

> <Gold.PLP.Chemscore.CHOScore>
0.0000

> <Gold.PLP.Chemscore.Metal>
0.0000

> <Gold.Chemscore.Hbonds>
donor molecule, donor type, donor heavy atom, donor atom, acceptor molecule, acceptor atom, score
      L1  H     7    27       P1  7948  1.00
      L1  H    10    28       P1  7948  0.90
      P1  H  7989  7998       L1    14  0.55
      P1  H  7997  8009       L1    17  0.95

> <Gold.PLP.Chemscore.Internal.Correction>
0.0909

> <Gold.Rescore>
     Score         DG    S(hbond)    S(metal)    S(lipo)     H(rot)  DE(clash)    DE(int)     intcor
     13.24     -14.81       1.70        0.00      68.89       1.72       0.11       1.46       ----

> <Gold.Chemscore.Fitness>
13.2407

> <Gold.Chemscore.DG>
-14.8125

> <Gold.Chemscore.ZeroCoef>
-5.4800

> <Gold.Chemscore.Hbond>
1.6984

> <Gold.Chemscore.Metal>
0.0000

> <Gold.Chemscore.Lipo>
68.8909

> <Gold.Chemscore.Internal_Hbond>
0.0000

> <Gold.Chemscore.DEClash>
0.1134

> <Gold.Chemscore.DEInternal>
1.4584

> <Gold.Chemscore.Rot>
1.7189

> <Gold.Chemscore.Internal.Correction>
   9.000000E+99

> <Gold.Chemscore.Hbonds>
donor molecule, donor type, donor heavy atom, donor atom, acceptor molecule, acceptor atom, score
      L1  H     7    27       P1  7948  0.74
      L1  H    10    28       P1  7948  0.87
      P1  H  7989  7998       L1    14  0.03
      P1  H  7997  8009       L1    17  0.07

> <Gold.Chemscore.Hbond.Weighted>
-5.6727

> <Gold.Chemscore.Metal.Weighted>
-0.0000

> <Gold.Chemscore.Lipo.Weighted>
-8.0602

> <Gold.Chemscore.Internal_Hbond.Weighted>
0.0000

> <Gold.Chemscore.DEClash.Weighted>
0.1134

> <Gold.Chemscore.DEInternal.Weighted>
1.4584

> <Gold.Chemscore.Rot.Weighted>
4.4004

> <Gold.Chemscore.Internal.Correction.Weighted>
   9.000000E+99

> <Gold.Protein.RotatedTorsions>
[ 6907 6896 6895 6894 ] final -102.64 input  -60.11 | X-H torsion
[ 7974 7965 7964 7962 ] final  -60.90 input  175.53 | X-H torsion
[ 8008 7997 7996 7995 ] final  172.87 input   59.86 | X-H torsion
[ 10167 10162 10161 10158 ] final  105.89 input  -65.29 | X-H torsion
[ 10718 10713 10712 10709 ] final   11.91 input   66.30 | X-H torsion
[ 10763 10752 10751 10750 ] final  164.24 input  -60.55 | X-H torsion
[ 11005 11000 10999 10996 ] final   -7.58 input  -57.11 | X-H torsion

> <Gold.Protein.ActiveResidues>
 VAL166  LYS551  ARG553  GLY616  TRP617  ASP618  TYR619  PRO620  LYS621  CYS622 
 ASP623  PHE694  ASN695  SER759  ASP760  ASP761  ALA762  ILE779  LEU786  VAL792 
 PHE793  MET794  SER795  GLU796  ALA797  LYS798  CYS799  TRP800  GLU811  SER814 

> <Gold.Protein.RotatedAtoms>
  150.7205  134.0550  159.3811 H   0  0  0  0  0  0  0  0  0  0  0  0  # atno 6907 bound_to 6896
  151.8528  135.0549  160.0470 H   0  0  0  0  0  0  0  0  0  0  0  0  # atno 6908 bound_to 6896
  152.2777  133.5405  159.5515 H   0  0  0  0  0  0  0  0  0  0  0  0  # atno 6909 bound_to 6896
  145.8099  140.8605  143.0187 H   0  0  0  0  0  0  0  0  0  0  0  0  # atno 7974 bound_to 7965
  156.1131  140.1474  156.9310 H   0  0  0  0  0  0  0  0  0  0  0  0  # atno 8008 bound_to 7997
  154.4781  140.0888  156.7355 H   0  0  0  0  0  0  0  0  0  0  0  0  # atno 8009 bound_to 7997
  155.4560  140.3436  155.4309 H   0  0  0  0  0  0  0  0  0  0  0  0  # atno 8010 bound_to 7997
  139.7055  144.7087  151.1114 H   0  0  0  0  0  0  0  0  0  0  0  0  # atno 10167 bound_to 10162
  157.0025  130.6085  149.5698 H   0  0  0  0  0  0  0  0  0  0  0  0  # atno 10718 bound_to 10713
  154.3059  135.2758  155.2589 H   0  0  0  0  0  0  0  0  0  0  0  0  # atno 10763 bound_to 10752
  154.5005  135.5809  153.6531 H   0  0  0  0  0  0  0  0  0  0  0  0  # atno 10764 bound_to 10752
  152.9894  135.6157  154.3233 H   0  0  0  0  0  0  0  0  0  0  0  0  # atno 10765 bound_to 10752
  140.7142  133.8883  155.8773 H   0  0  0  0  0  0  0  0  0  0  0  0  # atno 11005 bound_to 11000
  144.6758  140.0380  143.7481 LP  0  0  0  0  0  0  0  0  0  0  0  0  # atno 17320 bound_to 7965
  145.9788  139.2925  143.1054 LP  0  0  0  0  0  0  0  0  0  0  0  0  # atno 17321 bound_to 7965
  140.7720  143.5365  150.9363 LP  0  0  0  0  0  0  0  0  0  0  0  0  # atno 17342 bound_to 10162
  139.9048  143.6792  152.3125 LP  0  0  0  0  0  0  0  0  0  0  0  0  # atno 17343 bound_to 10162
  156.0166  130.5260  150.8152 LP  0  0  0  0  0  0  0  0  0  0  0  0  # atno 17370 bound_to 10713
  157.5380  131.0939  150.9866 LP  0  0  0  0  0  0  0  0  0  0  0  0  # atno 17371 bound_to 10713
  141.0058  134.1088  157.4271 LP  0  0  0  0  0  0  0  0  0  0  0  0  # atno 17394 bound_to 11000
  139.8864  135.0081  156.6495 LP  0  0  0  0  0  0  0  0  0  0  0  0  # atno 17395 bound_to 11000

$$$$
