AV-unprocessed.smi:3354|AV-procd|sdf|12955|dock8
  -GOLD-   2272019393D 1   1.00000     0.00000
 Structure written by MMmdl.
 38 40  0  0  0  0  0  0  0  0  1 V2000
  146.7823  129.4274  152.1432 C   0  0  0  0  0  0  0  0  0  0  0  0
  145.8292  130.6026  152.1153 C   0  0  2  0  0  0  0  0  0  0  0  0
  144.6823  130.6217  151.1328 C   0  0  0  0  0  0  0  0  0  0  0  0
  145.8404  131.5862  150.9651 C   0  0  1  0  0  0  0  0  0  0  0  0
  145.6767  132.9801  151.2572 N   0  0  0  0  0  0  0  0  0  0  0  0
  146.3734  133.6359  152.3554 C   0  0  0  0  0  0  0  0  0  0  0  0
  145.6440  134.9770  152.5644 C   0  0  1  0  0  0  0  0  0  0  0  0
  146.5753  136.0911  152.7214 N   0  0  0  0  0  0  0  0  0  0  0  0
  146.2691  137.2771  153.2656 C   0  0  0  0  0  0  0  0  0  0  0  0
  145.1570  137.5456  153.7190 O   0  0  0  0  0  0  0  0  0  0  0  0
  147.3309  138.1016  153.2571 N   0  0  0  0  0  0  0  0  0  0  0  0
  147.4248  139.4481  153.7047 C   0  0  0  0  0  0  0  0  0  0  0  0
  146.3658  140.1741  154.3035 C   0  0  0  0  0  0  0  0  0  0  0  0
  146.5891  141.5108  154.6865 C   0  0  0  0  0  0  0  0  0  0  0  0
  147.8577  142.0755  154.4527 C   0  0  0  0  0  0  0  0  0  0  0  0
  148.8726  141.4000  153.8743 N   0  0  0  0  0  0  0  0  0  0  0  0
  148.6511  140.1191  153.5095 C   0  0  0  0  0  0  0  0  0  0  0  0
  144.7532  135.1522  151.3276 C   0  0  0  0  0  0  0  0  0  0  0  0
  144.7659  133.7758  150.6853 C   0  0  0  0  0  0  0  0  0  0  0  0
  144.0093  133.4657  149.7658 O   0  0  0  0  0  0  0  0  0  0  0  0
  146.9616  129.0488  151.1366 H   0  0  0  0  0  0  0  0  0  0  0  0
  146.3668  128.6224  152.7492 H   0  0  0  0  0  0  0  0  0  0  0  0
  147.7361  129.7314  152.5745 H   0  0  0  0  0  0  0  0  0  0  0  0
  145.6181  131.0161  153.1000 H   0  0  0  0  0  0  0  0  0  0  0  0
  144.6131  129.8018  150.4208 H   0  0  0  0  0  0  0  0  0  0  0  0
  143.7270  130.9873  151.5031 H   0  0  0  0  0  0  0  0  0  0  0  0
  146.5151  131.3576  150.1412 H   0  0  0  0  0  0  0  0  0  0  0  0
  146.3493  133.0306  153.2625 H   0  0  0  0  0  0  0  0  0  0  0  0
  147.4171  133.7819  152.0719 H   0  0  0  0  0  0  0  0  0  0  0  0
  145.0021  134.9076  153.4451 H   0  0  0  0  0  0  0  0  0  0  0  0
  147.5154  135.9511  152.3809 H   0  0  0  0  0  0  0  0  0  0  0  0
  148.1921  137.7053  152.9103 H   0  0  0  0  0  0  0  0  0  0  0  0
  145.3894  139.7460  154.4658 H   0  0  0  0  0  0  0  0  0  0  0  0
  145.8028  142.0916  155.1455 H   0  0  0  0  0  0  0  0  0  0  0  0
  148.0609  143.0985  154.7333 H   0  0  0  0  0  0  0  0  0  0  0  0
  149.4851  139.6116  153.0464 H   0  0  0  0  0  0  0  0  0  0  0  0
  143.7401  135.4577  151.5920 H   0  0  0  0  0  0  0  0  0  0  0  0
  145.1611  135.8761  150.6206 H   0  0  0  0  0  0  0  0  0  0  0  0
  1  2  1  0  0  0  0
  1 21  1  0  0  0  0
  1 22  1  0  0  0  0
  1 23  1  0  0  0  0
  2  4  1  0  0  0  0
  2  3  1  0  0  0  0
  2 24  1  0  0  0  0
  3  4  1  0  0  0  0
  3 25  1  0  0  0  0
  3 26  1  0  0  0  0
  4  5  1  0  0  0  0
  4 27  1  0  0  0  0
  5 19  1  0  0  0  0
  5  6  1  0  0  0  0
  6  7  1  0  0  0  0
  6 28  1  0  0  0  0
  6 29  1  0  0  0  0
  7  8  1  0  0  0  0
  7 18  1  0  0  0  0
  7 30  1  0  0  0  0
  8  9  1  0  0  0  0
  8 31  1  0  0  0  0
  9 10  2  0  0  0  0
  9 11  1  0  0  0  0
 11 12  1  0  0  0  0
 11 32  1  0  0  0  0
 12 17  1  0  0  0  0
 12 13  2  0  0  0  0
 13 14  1  0  0  0  0
 13 33  1  0  0  0  0
 14 15  2  0  0  0  0
 14 34  1  0  0  0  0
 15 16  1  0  0  0  0
 15 35  1  0  0  0  0
 16 17  2  0  0  0  0
 17 36  1  0  0  0  0
 18 19  1  0  0  0  0
 18 37  1  0  0  0  0
 18 38  1  0  0  0  0
 19 20  2  0  0  0  0
M  END
> <s_m_source_file>
AV-unprocessed.smi

> <i_m_source_file_index>
3354

> <i_lp_mmshare_version>
43012

> <i_f3d_flags>
0

> <s_epik_input>
W0NIM11bQ0BASF0xW0NIMl1bQ0BIXTFOMltDSDJdW0NASF0oW0NIMl1DMj1PKVtOSF1DKD1PKVtOSF1jM1tjSF1bY0hdW2NIXW5bY0hdMw==

> <s_epik_cmdline>
J2VwaWtfcHl0aG9uJywgJy1waCcsICc3LjAnLCAnLXRuJywgJzgnLCAnLW1hJywgJzIwMCcsICctbWV0YWxfYmluZGluZycsICctaW1hZScsICc8aW5maWxlLm1hZT4nLCAnLW9tYWUnLCAnPG91dGZpbGUubWFlPic=

> <r_epik_Ionization_Penalty>
0.00456191

> <r_epik_Ionization_Penalty_Charging>
0

> <r_epik_Ionization_Penalty_Neutral>
0.00456191

> <r_epik_State_Penalty>
0.00327094

> <r_epik_Charging_Adjusted_Penalty>
0.00327094

> <i_epik_Tot_Q>
0

> <i_epik_Tot_abs_Q>
0

> <r_epik_Metal_State_Penalty>
-0

> <b_epik_Metal_Only>
0

> <s_lp_Force_Field>
OPLS_2005

> <r_lp_Energy>
43.1486

> <b_lp_Chiralities_Consistent>
1

> <s_lp_Variant>
AV-unprocessed.smi:3354-1

> <Gold.Version>
5.8.1

> <Gold.Id.Protein>
6NUR|6NUR_protein|mol2

> <Gold.PLP.Fitness>
40.8446

> <Gold.PLP.PLP>
-29.2021

> <Gold.PLP.part.hbond>
-3.0390

> <Gold.PLP.part.metal>
0.0000

> <Gold.PLP.part.buried>
0.6522

> <Gold.PLP.part.nonpolar>
-28.3340

> <Gold.PLP.part.repulsive>
0.8981

> <Gold.PLP.ligand.clash>
0.0000

> <Gold.PLP.ligand.torsion>
0.4305

> <Gold.PLP.Chemscore.Hbond>
2.6480

> <Gold.PLP.Chemscore.CHOScore>
1.4635

> <Gold.PLP.Chemscore.Metal>
0.0000

> <Gold.Chemscore.Hbonds>
donor molecule, donor type, donor heavy atom, donor atom, acceptor molecule, acceptor atom, score
      L1  H     8    31       P1  7948  1.00
      L1  H    11    32       P1  7948  0.90
      P1  H  8011  8017       L1    16  0.70
      L1  C    15    35       P1  8028  0.94
      L1  C    17    36       P1  7957  0.49

> <Gold.PLP.Chemscore.Internal.Correction>
0.1690

> <Gold.Rescore>
     Score         DG    S(hbond)    S(metal)    S(lipo)     H(rot)  DE(clash)    DE(int)     intcor
     16.49     -20.20       2.51        0.00      81.08       1.24       2.06       1.65       ----

> <Gold.Chemscore.Fitness>
16.4879

> <Gold.Chemscore.DG>
-20.2002

> <Gold.Chemscore.ZeroCoef>
-5.4800

> <Gold.Chemscore.Hbond>
2.5142

> <Gold.Chemscore.Metal>
0.0000

> <Gold.Chemscore.Lipo>
81.0848

> <Gold.Chemscore.Internal_Hbond>
0.0000

> <Gold.Chemscore.DEClash>
2.0633

> <Gold.Chemscore.DEInternal>
1.6490

> <Gold.Chemscore.Rot>
1.2361

> <Gold.Chemscore.Internal.Correction>
   9.000000E+99

> <Gold.Chemscore.Hbonds>
donor molecule, donor type, donor heavy atom, donor atom, acceptor molecule, acceptor atom, score
      L1  H     8    31       P1  7948  0.94
      L1  H    11    32       P1  7948  0.87
      P1  H  8011  8017       L1    16  0.44

> <Gold.Chemscore.Hbond.Weighted>
-8.3976

> <Gold.Chemscore.Metal.Weighted>
-0.0000

> <Gold.Chemscore.Lipo.Weighted>
-9.4869

> <Gold.Chemscore.Internal_Hbond.Weighted>
0.0000

> <Gold.Chemscore.DEClash.Weighted>
2.0633

> <Gold.Chemscore.DEInternal.Weighted>
1.6490

> <Gold.Chemscore.Rot.Weighted>
3.1643

> <Gold.Chemscore.Internal.Correction.Weighted>
   9.000000E+99

> <Gold.Protein.RotatedTorsions>
[ 6907 6896 6895 6894 ] final  -81.57 input  -60.11 | X-H torsion
[ 7974 7965 7964 7962 ] final   90.04 input  175.53 | X-H torsion
[ 8008 7997 7996 7995 ] final   39.61 input   59.86 | X-H torsion
[ 10167 10162 10161 10158 ] final   45.39 input  -65.29 | X-H torsion
[ 10718 10713 10712 10709 ] final -101.79 input   66.30 | X-H torsion
[ 10763 10752 10751 10750 ] final  -11.45 input  -60.55 | X-H torsion
[ 11005 11000 10999 10996 ] final  101.87 input  -57.11 | X-H torsion

> <Gold.Protein.ActiveResidues>
 VAL166  LYS551  ARG553  GLY616  TRP617  ASP618  TYR619  PRO620  LYS621  CYS622 
 ASP623  PHE694  ASN695  SER759  ASP760  ASP761  ALA762  ILE779  LEU786  VAL792 
 PHE793  MET794  SER795  GLU796  ALA797  LYS798  CYS799  TRP800  GLU811  SER814 

> <Gold.Protein.RotatedAtoms>
  150.6910  134.3797  159.5028 H   0  0  0  0  0  0  0  0  0  0  0  0  # atno 6907 bound_to 6896
  152.1601  134.8916  160.0551 H   0  0  0  0  0  0  0  0  0  0  0  0  # atno 6908 bound_to 6896
  151.9981  133.3780  159.4208 H   0  0  0  0  0  0  0  0  0  0  0  0  # atno 6909 bound_to 6896
  145.5243  139.2280  143.2654 H   0  0  0  0  0  0  0  0  0  0  0  0  # atno 7974 bound_to 7965
  155.2394  140.3344  155.4294 H   0  0  0  0  0  0  0  0  0  0  0  0  # atno 8008 bound_to 7997
  156.2262  140.1830  156.7402 H   0  0  0  0  0  0  0  0  0  0  0  0  # atno 8009 bound_to 7997
  154.5902  140.0639  156.9214 H   0  0  0  0  0  0  0  0  0  0  0  0  # atno 8010 bound_to 7997
  140.3246  144.2663  150.6177 H   0  0  0  0  0  0  0  0  0  0  0  0  # atno 10167 bound_to 10162
  156.0206  130.5390  150.7015 H   0  0  0  0  0  0  0  0  0  0  0  0  # atno 10718 bound_to 10713
  153.4839  135.7017  153.5922 H   0  0  0  0  0  0  0  0  0  0  0  0  # atno 10763 bound_to 10752
  153.4124  135.3845  155.2059 H   0  0  0  0  0  0  0  0  0  0  0  0  # atno 10764 bound_to 10752
  154.8720  135.3907  154.4292 H   0  0  0  0  0  0  0  0  0  0  0  0  # atno 10765 bound_to 10752
  139.8775  134.9201  156.4972 H   0  0  0  0  0  0  0  0  0  0  0  0  # atno 11005 bound_to 11000
  146.2085  140.6057  142.9070 LP  0  0  0  0  0  0  0  0  0  0  0  0  # atno 17320 bound_to 7965
  144.7659  140.5529  143.6703 LP  0  0  0  0  0  0  0  0  0  0  0  0  # atno 17321 bound_to 7965
  140.5452  143.2216  151.8019 LP  0  0  0  0  0  0  0  0  0  0  0  0  # atno 17342 bound_to 10162
  139.4867  144.4548  151.9611 LP  0  0  0  0  0  0  0  0  0  0  0  0  # atno 17343 bound_to 10162
  157.4674  131.0889  151.0680 LP  0  0  0  0  0  0  0  0  0  0  0  0  # atno 17370 bound_to 10713
  157.1150  130.6038  149.5491 LP  0  0  0  0  0  0  0  0  0  0  0  0  # atno 17371 bound_to 10713
  140.8616  133.8056  155.9270 LP  0  0  0  0  0  0  0  0  0  0  0  0  # atno 17394 bound_to 11000
  140.9044  134.2338  157.5023 LP  0  0  0  0  0  0  0  0  0  0  0  0  # atno 17395 bound_to 11000

$$$$
