AV-unprocessed.smi:2636|AV-procd|sdf|10257|dock7
  -GOLD-   2272014263D 1   1.00000     0.00000
 Structure written by MMmdl.
 36 37  0  0  0  0  0  0  0  0  1 V2000
  149.8050  141.5580  157.3053 C   0  0  0  0  0  0  0  0  0  0  0  0
  150.8145  140.4693  156.9814 C   0  0  0  0  0  0  0  0  0  0  0  0
  151.5469  139.8472  157.9407 C   0  0  0  0  0  0  0  0  0  0  0  0
  152.4714  138.8518  157.6703 N   0  0  0  0  0  0  0  0  0  0  0  0
  153.2878  138.2363  158.7013 C   0  0  0  0  0  0  0  0  0  0  0  0
  154.5734  138.7639  158.6354 O   0  0  0  0  0  0  0  0  0  0  0  0
  155.0986  139.1177  159.9039 C   0  0  0  0  0  0  0  0  0  0  0  0
  154.5197  140.4381  160.3618 C   0  0  0  0  0  0  0  0  0  0  0  0
  153.6737  141.1859  159.6304 C   0  0  0  0  0  0  0  0  0  0  0  0
  153.0779  142.4759  160.0217 C   0  0  0  0  0  0  0  0  0  0  0  0
  152.7741  143.4917  159.0843 C   0  0  0  0  0  0  0  0  0  0  0  0
  152.2023  144.7079  159.5069 C   0  0  0  0  0  0  0  0  0  0  0  0
  151.9271  144.9234  160.8699 C   0  0  0  0  0  0  0  0  0  0  0  0
  152.2249  143.9200  161.8102 C   0  0  0  0  0  0  0  0  0  0  0  0
  152.7966  142.7045  161.3865 C   0  0  0  0  0  0  0  0  0  0  0  0
  152.7087  138.4570  156.3371 C   0  0  0  0  0  0  0  0  0  0  0  0
  153.5319  137.5959  156.0260 O   0  0  0  0  0  0  0  0  0  0  0  0
  151.9545  139.0938  155.3529 N   0  0  0  0  0  0  0  0  0  0  0  0
  151.0004  140.0907  155.5768 C   0  0  0  0  0  0  0  0  0  0  0  0
  150.3959  140.5771  154.6225 O   0  0  0  0  0  0  0  0  0  0  0  0
  152.1137  138.8141  154.3960 H   0  0  0  0  0  0  0  0  0  0  0  0
  149.7423  141.7445  158.3777 H   0  0  0  0  0  0  0  0  0  0  0  0
  148.8115  141.2733  156.9569 H   0  0  0  0  0  0  0  0  0  0  0  0
  150.0843  142.4930  156.8186 H   0  0  0  0  0  0  0  0  0  0  0  0
  151.4032  140.1414  158.9707 H   0  0  0  0  0  0  0  0  0  0  0  0
  152.8472  138.4488  159.6772 H   0  0  0  0  0  0  0  0  0  0  0  0
  153.2891  137.1528  158.5574 H   0  0  0  0  0  0  0  0  0  0  0  0
  154.8762  138.3395  160.6361 H   0  0  0  0  0  0  0  0  0  0  0  0
  156.1834  139.2177  159.8471 H   0  0  0  0  0  0  0  0  0  0  0  0
  154.8348  140.7586  161.3427 H   0  0  0  0  0  0  0  0  0  0  0  0
  153.3912  140.8180  158.6544 H   0  0  0  0  0  0  0  0  0  0  0  0
  152.9730  143.3576  158.0324 H   0  0  0  0  0  0  0  0  0  0  0  0
  151.9744  145.4762  158.7829 H   0  0  0  0  0  0  0  0  0  0  0  0
  151.4885  145.8560  161.1932 H   0  0  0  0  0  0  0  0  0  0  0  0
  152.0146  144.0814  162.8572 H   0  0  0  0  0  0  0  0  0  0  0  0
  153.0185  141.9435  162.1205 H   0  0  0  0  0  0  0  0  0  0  0  0
  1  2  1  0  0  0  0
  1 22  1  0  0  0  0
  1 23  1  0  0  0  0
  1 24  1  0  0  0  0
  2 19  1  0  0  0  0
  2  3  2  0  0  0  0
  3  4  1  0  0  0  0
  3 25  1  0  0  0  0
  4  5  1  0  0  0  0
  4 16  1  0  0  0  0
  5  6  1  0  0  0  0
  5 26  1  0  0  0  0
  5 27  1  0  0  0  0
  6  7  1  0  0  0  0
  7  8  1  0  0  0  0
  7 28  1  0  0  0  0
  7 29  1  0  0  0  0
  8  9  2  0  0  0  0
  8 30  1  0  0  0  0
  9 10  1  0  0  0  0
  9 31  1  0  0  0  0
 10 15  1  0  0  0  0
 10 11  2  0  0  0  0
 11 12  1  0  0  0  0
 11 32  1  0  0  0  0
 12 13  2  0  0  0  0
 12 33  1  0  0  0  0
 13 14  1  0  0  0  0
 13 34  1  0  0  0  0
 14 15  2  0  0  0  0
 14 35  1  0  0  0  0
 15 36  1  0  0  0  0
 16 17  2  0  0  0  0
 16 18  1  0  0  0  0
 18 21  1  0  0  0  0
 18 19  1  0  0  0  0
 19 20  2  0  0  0  0
M  END
> <s_m_source_file>
AV-unprocessed.smi

> <i_m_source_file_index>
2636

> <i_lp_mmshare_version>
43012

> <i_f3d_flags>
0

> <s_epik_input>
Tz1jMVtuSF1jKD1PKW4oW2NIXWMxW0NIM10pW0NIMl1PW0NIMl0vW0NIXT1bQ0hdL2MyW2NIXVtjSF1bY0hdW2NIXVtjSF0y

> <s_epik_cmdline>
J2VwaWtfcHl0aG9uJywgJy1waCcsICc3LjAnLCAnLXRuJywgJzgnLCAnLW1hJywgJzIwMCcsICctbWV0YWxfYmluZGluZycsICctaW1hZScsICc8aW5maWxlLm1hZT4nLCAnLW9tYWUnLCAnPG91dGZpbGUubWFlPic=

> <r_lp_tautomer_probability>
0.999537

> <r_epik_Ionization_Penalty>
0.00179702

> <r_epik_Ionization_Penalty_Charging>
0.00179702

> <r_epik_Ionization_Penalty_Neutral>
9.83266e-13

> <r_epik_State_Penalty>
0.00121868

> <r_epik_Charging_Adjusted_Penalty>
0.0030157

> <i_epik_Tot_Q>
0

> <i_epik_Tot_abs_Q>
0

> <r_epik_Metal_State_Penalty>
0.826903

> <b_epik_Metal_Only>
0

> <s_epik_Chemistry_Notes>
This compound contains an acetal/aminal-like group ( X-CH(R)-Y where X, Y are N, S, or O) that may be acid/base labile, releasing an aldehyde.

> <s_lp_Force_Field>
OPLS_2005

> <r_lp_Energy>
1.95272

> <b_lp_Chiralities_Consistent>
1

> <s_lp_Variant>
AV-unprocessed.smi:2636-1

> <Gold.Version>
5.8.1

> <Gold.Id.Protein>
6NUR|6NUR_protein|mol2

> <Gold.PLP.Fitness>
51.9267

> <Gold.PLP.PLP>
-46.9317

> <Gold.PLP.part.hbond>
-3.0000

> <Gold.PLP.part.metal>
0.0000

> <Gold.PLP.part.buried>
-5.6734

> <Gold.PLP.part.nonpolar>
-37.9758

> <Gold.PLP.part.repulsive>
0.2817

> <Gold.PLP.ligand.clash>
0.0000

> <Gold.PLP.ligand.torsion>
0.8124

> <Gold.PLP.Chemscore.Hbond>
2.2015

> <Gold.PLP.Chemscore.CHOScore>
0.0000

> <Gold.PLP.Chemscore.Metal>
0.0000

> <Gold.Chemscore.Hbonds>
donor molecule, donor type, donor heavy atom, donor atom, acceptor molecule, acceptor atom, score
      P1  H  7989  7998       L1    20  0.94
      P1  H  7997  8008       L1     6  1.00
      P1  H 10752 10763       L1    17  0.13

> <Gold.PLP.Chemscore.Internal.Correction>
0.0152

> <Gold.Rescore>
     Score         DG    S(hbond)    S(metal)    S(lipo)     H(rot)  DE(clash)    DE(int)     intcor
     21.97     -23.01       2.54        0.00     119.20       1.92       0.07       0.96       ----

> <Gold.Chemscore.Fitness>
21.9730

> <Gold.Chemscore.DG>
-23.0072

> <Gold.Chemscore.ZeroCoef>
-5.4800

> <Gold.Chemscore.Hbond>
2.5448

> <Gold.Chemscore.Metal>
0.0000

> <Gold.Chemscore.Lipo>
119.2048

> <Gold.Chemscore.Internal_Hbond>
0.0000

> <Gold.Chemscore.DEClash>
0.0701

> <Gold.Chemscore.DEInternal>
0.9640

> <Gold.Chemscore.Rot>
1.9216

> <Gold.Chemscore.Internal.Correction>
   9.000000E+99

> <Gold.Chemscore.Hbonds>
donor molecule, donor type, donor heavy atom, donor atom, acceptor molecule, acceptor atom, score
      P1  H  7989  7998       L1    20  0.41
      P1  H  7997  8008       L1     6  0.83
      P1  H 10752 10763       L1    17  0.12

> <Gold.Chemscore.Hbond.Weighted>
-8.4995

> <Gold.Chemscore.Metal.Weighted>
-0.0000

> <Gold.Chemscore.Lipo.Weighted>
-13.9470

> <Gold.Chemscore.Internal_Hbond.Weighted>
0.0000

> <Gold.Chemscore.DEClash.Weighted>
0.0701

> <Gold.Chemscore.DEInternal.Weighted>
0.9640

> <Gold.Chemscore.Rot.Weighted>
4.9193

> <Gold.Chemscore.Internal.Correction.Weighted>
   9.000000E+99

> <Gold.Protein.RotatedTorsions>
[ 6907 6896 6895 6894 ] final  -97.16 input  -60.11 | X-H torsion
[ 7974 7965 7964 7962 ] final  -30.21 input  175.53 | X-H torsion
[ 8008 7997 7996 7995 ] final -114.93 input   59.86 | X-H torsion
[ 10167 10162 10161 10158 ] final   28.80 input  -65.29 | X-H torsion
[ 10718 10713 10712 10709 ] final  109.45 input   66.30 | X-H torsion
[ 10763 10752 10751 10750 ] final  119.19 input  -60.55 | X-H torsion
[ 11005 11000 10999 10996 ] final   41.68 input  -57.11 | X-H torsion

> <Gold.Protein.ActiveResidues>
 VAL166  LYS551  ARG553  GLY616  TRP617  ASP618  TYR619  PRO620  LYS621  CYS622 
 ASP623  PHE694  ASN695  SER759  ASP760  ASP761  ALA762  ILE779  LEU786  VAL792 
 PHE793  MET794  SER795  GLU796  ALA797  LYS798  CYS799  TRP800  GLU811  SER814 

> <Gold.Protein.RotatedAtoms>
  150.7008  134.1392  159.4098 H   0  0  0  0  0  0  0  0  0  0  0  0  # atno 6907 bound_to 6896
  151.9376  135.0226  160.0543 H   0  0  0  0  0  0  0  0  0  0  0  0  # atno 6908 bound_to 6896
  152.2121  133.4884  159.5153 H   0  0  0  0  0  0  0  0  0  0  0  0  # atno 6909 bound_to 6896
  146.1159  140.5512  142.8757 H   0  0  0  0  0  0  0  0  0  0  0  0  # atno 7974 bound_to 7965
  155.0440  140.0392  157.2520 H   0  0  0  0  0  0  0  0  0  0  0  0  # atno 8008 bound_to 7997
  154.7193  140.2708  155.6533 H   0  0  0  0  0  0  0  0  0  0  0  0  # atno 8009 bound_to 7997
  156.2812  140.2706  156.1859 H   0  0  0  0  0  0  0  0  0  0  0  0  # atno 8010 bound_to 7997
  140.4821  144.0599  150.6269 H   0  0  0  0  0  0  0  0  0  0  0  0  # atno 10167 bound_to 10162
  157.6541  131.0914  150.6456 H   0  0  0  0  0  0  0  0  0  0  0  0  # atno 10718 bound_to 10713
  153.5793  135.3487  155.2868 H   0  0  0  0  0  0  0  0  0  0  0  0  # atno 10763 bound_to 10752
  154.8670  135.4178  154.2638 H   0  0  0  0  0  0  0  0  0  0  0  0  # atno 10764 bound_to 10752
  153.3421  135.7050  153.6928 H   0  0  0  0  0  0  0  0  0  0  0  0  # atno 10765 bound_to 10752
  140.1811  134.4102  155.8199 H   0  0  0  0  0  0  0  0  0  0  0  0  # atno 11005 bound_to 11000
  144.7553  140.5292  143.6773 LP  0  0  0  0  0  0  0  0  0  0  0  0  # atno 17320 bound_to 7965
  145.5567  139.1478  143.3364 LP  0  0  0  0  0  0  0  0  0  0  0  0  # atno 17321 bound_to 7965
  140.3844  143.2785  152.0133 LP  0  0  0  0  0  0  0  0  0  0  0  0  # atno 17342 bound_to 10162
  139.4835  144.6128  151.7401 LP  0  0  0  0  0  0  0  0  0  0  0  0  # atno 17343 bound_to 10162
  156.6764  130.4554  149.5641 LP  0  0  0  0  0  0  0  0  0  0  0  0  # atno 17370 bound_to 10713
  156.1961  130.6590  151.1115 LP  0  0  0  0  0  0  0  0  0  0  0  0  # atno 17371 bound_to 10713
  141.2223  133.7001  156.7933 LP  0  0  0  0  0  0  0  0  0  0  0  0  # atno 17394 bound_to 11000
  140.2266  134.8717  157.3433 LP  0  0  0  0  0  0  0  0  0  0  0  0  # atno 17395 bound_to 11000

$$$$
