AV-unprocessed.smi:276|AV-procd|sdf|2071|dock9
  -GOLD-   2262021333D 1   1.00000     0.00000
 Structure written by MMmdl.
 57 61  0  0  0  0  0  0  0  0  1 V2000
  150.4426  141.8591  157.2343 C   0  0  0  0  0  0  0  0  0  0  0  0
  150.3003  140.8556  156.2445 O   0  0  0  0  0  0  0  0  0  0  0  0
  150.4952  139.5438  156.7550 C   0  0  1  0  0  0  0  0  0  0  0  0
  149.3158  139.0585  157.6116 C   0  0  0  0  0  0  0  0  0  0  0  0
  148.6749  138.4566  156.3452 C   0  0  1  0  0  0  0  0  0  0  0  0
  147.7025  139.3791  155.7419 N   0  0  0  0  0  0  0  0  0  0  0  0
  146.6099  139.8169  156.6048 C   0  0  0  0  0  0  0  0  0  0  0  0
  147.2173  139.0193  154.5332 C   0  0  0  0  0  0  0  0  0  0  0  0
  147.6393  139.7359  153.4617 N   0  0  0  0  0  0  0  0  0  0  0  0
  147.2115  139.4196  152.2360 C   0  0  0  0  0  0  0  0  0  0  0  0
  146.3736  138.4477  151.8683 N   0  0  0  0  0  0  0  0  0  0  0  0
  145.9345  137.7374  152.9471 C   0  0  0  0  0  0  0  0  0  0  0  0
  146.2959  137.9572  154.3059 C   0  0  0  0  0  0  0  0  0  0  0  0
  145.6430  137.0419  155.1233 N   0  0  0  0  0  0  0  0  0  0  0  0
  144.9487  136.3123  154.2939 C   0  0  0  0  0  0  0  0  0  0  0  0
  145.0683  136.6589  152.9679 N   0  0  0  0  0  0  0  0  0  0  0  0
  144.4179  136.0114  151.8416 C   0  0  0  0  0  0  0  0  0  0  0  0
  145.4152  135.2404  150.9463 C   0  0  2  0  0  0  0  0  0  0  0  0
  144.8782  135.2030  149.6364 O   0  0  0  0  0  0  0  0  0  0  0  0
  145.6580  133.7765  151.3829 C   0  0  2  0  0  0  0  0  0  0  0  0
  146.6556  132.9852  150.5173 C   0  0  0  0  0  0  0  0  0  0  0  0
  145.7714  132.2747  149.5184 C   0  0  0  0  0  0  0  0  0  0  0  0
  144.5674  131.9440  150.3837 C   0  0  0  0  0  0  0  0  0  0  0  0
  144.4180  133.0789  151.2260 O   0  0  0  0  0  0  0  0  0  0  0  0
  150.0986  138.4714  155.7257 C   0  0  0  0  0  0  0  0  0  0  0  0
  150.9162  137.1683  155.6880 C   0  0  0  0  0  0  0  0  0  0  0  0
  151.6580  137.7263  154.4712 C   0  0  0  0  0  0  0  0  0  0  0  0
  150.4424  138.6220  154.2290 C   0  0  0  0  0  0  0  0  0  0  0  0
  150.2905  142.8398  156.7839 H   0  0  0  0  0  0  0  0  0  0  0  0
  151.4422  141.8414  157.6700 H   0  0  0  0  0  0  0  0  0  0  0  0
  149.7109  141.7404  158.0338 H   0  0  0  0  0  0  0  0  0  0  0  0
  151.4800  139.3861  157.1979 H   0  0  0  0  0  0  0  0  0  0  0  0
  149.6158  138.2888  158.3245 H   0  0  0  0  0  0  0  0  0  0  0  0
  148.7550  139.8479  158.1105 H   0  0  0  0  0  0  0  0  0  0  0  0
  148.2860  137.4536  156.5209 H   0  0  0  0  0  0  0  0  0  0  0  0
  145.7938  140.2692  156.0386 H   0  0  0  0  0  0  0  0  0  0  0  0
  146.9610  140.5648  157.3149 H   0  0  0  0  0  0  0  0  0  0  0  0
  146.2042  138.9755  157.1676 H   0  0  0  0  0  0  0  0  0  0  0  0
  147.5988  140.0313  151.4345 H   0  0  0  0  0  0  0  0  0  0  0  0
  144.3296  135.4926  154.6284 H   0  0  0  0  0  0  0  0  0  0  0  0
  143.6594  135.3451  152.2497 H   0  0  0  0  0  0  0  0  0  0  0  0
  143.8894  136.7677  151.2596 H   0  0  0  0  0  0  0  0  0  0  0  0
  146.3629  135.7798  150.9163 H   0  0  0  0  0  0  0  0  0  0  0  0
  145.5923  135.1406  149.0205 H   0  0  0  0  0  0  0  0  0  0  0  0
  145.9760  133.7436  152.4264 H   0  0  0  0  0  0  0  0  0  0  0  0
  147.4323  133.5801  150.0417 H   0  0  0  0  0  0  0  0  0  0  0  0
  147.1598  132.2428  151.1379 H   0  0  0  0  0  0  0  0  0  0  0  0
  145.4870  132.9527  148.7126 H   0  0  0  0  0  0  0  0  0  0  0  0
  146.2389  131.3921  149.0810 H   0  0  0  0  0  0  0  0  0  0  0  0
  143.6658  131.7559  149.8002 H   0  0  0  0  0  0  0  0  0  0  0  0
  144.7666  131.0669  151.0010 H   0  0  0  0  0  0  0  0  0  0  0  0
  151.5428  136.9876  156.5620 H   0  0  0  0  0  0  0  0  0  0  0  0
  150.3069  136.2960  155.4447 H   0  0  0  0  0  0  0  0  0  0  0  0
  152.5523  138.2904  154.7412 H   0  0  0  0  0  0  0  0  0  0  0  0
  151.8561  136.9999  153.6827 H   0  0  0  0  0  0  0  0  0  0  0  0
  149.7310  138.1426  153.5571 H   0  0  0  0  0  0  0  0  0  0  0  0
  150.6786  139.6357  153.9049 H   0  0  0  0  0  0  0  0  0  0  0  0
  1  2  1  0  0  0  0
  1 29  1  0  0  0  0
  1 30  1  0  0  0  0
  1 31  1  0  0  0  0
  2  3  1  0  0  0  0
  3 25  1  0  0  0  0
  3  4  1  0  0  0  0
  3 32  1  0  0  0  0
  4  5  1  0  0  0  0
  4 33  1  0  0  0  0
  4 34  1  0  0  0  0
  5  6  1  0  0  0  0
  5 25  1  0  0  0  0
  5 35  1  0  0  0  0
  6  7  1  0  0  0  0
  6  8  1  0  0  0  0
  7 36  1  0  0  0  0
  7 37  1  0  0  0  0
  7 38  1  0  0  0  0
  8 13  1  0  0  0  0
  8  9  2  0  0  0  0
  9 10  1  0  0  0  0
 10 11  2  0  0  0  0
 10 39  1  0  0  0  0
 11 12  1  0  0  0  0
 12 16  1  0  0  0  0
 12 13  2  0  0  0  0
 13 14  1  0  0  0  0
 14 15  2  0  0  0  0
 15 16  1  0  0  0  0
 15 40  1  0  0  0  0
 16 17  1  0  0  0  0
 17 18  1  0  0  0  0
 17 41  1  0  0  0  0
 17 42  1  0  0  0  0
 18 19  1  0  0  0  0
 18 20  1  0  0  0  0
 18 43  1  0  0  0  0
 19 44  1  0  0  0  0
 20 24  1  0  0  0  0
 20 21  1  0  0  0  0
 20 45  1  0  0  0  0
 21 22  1  0  0  0  0
 21 46  1  0  0  0  0
 21 47  1  0  0  0  0
 22 23  1  0  0  0  0
 22 48  1  0  0  0  0
 22 49  1  0  0  0  0
 23 24  1  0  0  0  0
 23 50  1  0  0  0  0
 23 51  1  0  0  0  0
 25 28  1  0  0  0  0
 25 26  1  0  0  0  0
 26 27  1  0  0  0  0
 26 52  1  0  0  0  0
 26 53  1  0  0  0  0
 27 28  1  0  0  0  0
 27 54  1  0  0  0  0
 27 55  1  0  0  0  0
 28 56  1  0  0  0  0
 28 57  1  0  0  0  0
M  END
> <s_m_source_file>
AV-unprocessed.smi

> <i_m_source_file_index>
276

> <i_lp_mmshare_version>
43012

> <i_f3d_flags>
0

> <s_epik_input>
W0NIMl0xW0NIMl1bQ0gyXUMxMltDQEhdKE9bQ0gzXSlbQ0gyXVtDQEhdMk4oW0NIM10pYyhuW2NIXW4zKWMoYzM0KW5bY0hdbjRbQ0gyXVtDQEhdKFtPSF0pW0NAQEhdNVtDSDJdW0NIMl1bQ0gyXU81

> <s_epik_cmdline>
J2VwaWtfcHl0aG9uJywgJy1waCcsICc3LjAnLCAnLXRuJywgJzgnLCAnLW1hJywgJzIwMCcsICctbWV0YWxfYmluZGluZycsICctaW1hZScsICc8aW5maWxlLm1hZT4nLCAnLW9tYWUnLCAnPG91dGZpbGUubWFlPic=

> <r_lp_tautomer_probability>
1

> <r_epik_Ionization_Penalty>
0.00204117

> <r_epik_Ionization_Penalty_Charging>
0

> <r_epik_Ionization_Penalty_Neutral>
0.00204117

> <r_epik_State_Penalty>
0.00127401

> <r_epik_Charging_Adjusted_Penalty>
0.00127401

> <i_epik_Tot_Q>
0

> <i_epik_Tot_abs_Q>
0

> <r_epik_Metal_State_Penalty>
-0

> <b_epik_Metal_Only>
0

> <s_lp_Force_Field>
OPLS_2005

> <r_lp_Energy>
58.0583

> <b_lp_Chiralities_Consistent>
1

> <s_lp_Variant>
AV-unprocessed.smi:276-2

> <Gold.Version>
5.8.1

> <Gold.Id.Protein>
6NUR|6NUR_protein|mol2

> <Gold.PLP.Fitness>
40.6776

> <Gold.PLP.PLP>
-36.5451

> <Gold.PLP.part.hbond>
-1.0000

> <Gold.PLP.part.metal>
0.0000

> <Gold.PLP.part.buried>
-6.8189

> <Gold.PLP.part.nonpolar>
-30.7176

> <Gold.PLP.part.repulsive>
1.0268

> <Gold.PLP.ligand.clash>
0.0000

> <Gold.PLP.ligand.torsion>
0.8503

> <Gold.PLP.Chemscore.Hbond>
1.0000

> <Gold.PLP.Chemscore.CHOScore>
0.7030

> <Gold.PLP.Chemscore.Metal>
0.0000

> <Gold.Chemscore.Hbonds>
donor molecule, donor type, donor heavy atom, donor atom, acceptor molecule, acceptor atom, score
      L1  H    19    44       P1  7921  0.98
      L1  C    10    39       P1  7957  0.68

> <Gold.PLP.Chemscore.Internal.Correction>
0.7240

> <Gold.Rescore>
     Score         DG    S(hbond)    S(metal)    S(lipo)     H(rot)  DE(clash)    DE(int)     intcor
      8.97     -11.45       1.00        0.00      82.04       2.72       1.62       0.86       ----

> <Gold.Chemscore.Fitness>
8.9717

> <Gold.Chemscore.DG>
-11.4501

> <Gold.Chemscore.ZeroCoef>
-5.4800

> <Gold.Chemscore.Hbond>
0.9961

> <Gold.Chemscore.Metal>
0.0000

> <Gold.Chemscore.Lipo>
82.0448

> <Gold.Chemscore.Internal_Hbond>
0.0000

> <Gold.Chemscore.DEClash>
1.6215

> <Gold.Chemscore.DEInternal>
0.8568

> <Gold.Chemscore.Rot>
2.7172

> <Gold.Chemscore.Internal.Correction>
   9.000000E+99

> <Gold.Chemscore.Hbonds>
donor molecule, donor type, donor heavy atom, donor atom, acceptor molecule, acceptor atom, score
      L1  H    19    44       P1  7921  0.88

> <Gold.Chemscore.Hbond.Weighted>
-3.3268

> <Gold.Chemscore.Metal.Weighted>
-0.0000

> <Gold.Chemscore.Lipo.Weighted>
-9.5992

> <Gold.Chemscore.Internal_Hbond.Weighted>
0.0000

> <Gold.Chemscore.DEClash.Weighted>
1.6215

> <Gold.Chemscore.DEInternal.Weighted>
0.8568

> <Gold.Chemscore.Rot.Weighted>
6.9560

> <Gold.Chemscore.Internal.Correction.Weighted>
   9.000000E+99

> <Gold.Protein.RotatedTorsions>
[ 6907 6896 6895 6894 ] final  -52.16 input  -60.11 | X-H torsion
[ 7974 7965 7964 7962 ] final  -86.80 input  175.53 | X-H torsion
[ 8008 7997 7996 7995 ] final -106.49 input   59.86 | X-H torsion
[ 10167 10162 10161 10158 ] final   61.37 input  -65.29 | X-H torsion
[ 10718 10713 10712 10709 ] final   -4.22 input   66.30 | X-H torsion
[ 10763 10752 10751 10750 ] final   61.93 input  -60.55 | X-H torsion
[ 11005 11000 10999 10996 ] final  140.72 input  -57.11 | X-H torsion

> <Gold.Protein.ActiveResidues>
 VAL166  LYS551  ARG553  GLY616  TRP617  ASP618  TYR619  PRO620  LYS621  CYS622 
 ASP623  PHE694  ASN695  SER759  ASP760  ASP761  ALA762  ILE779  LEU786  VAL792 
 PHE793  MET794  SER795  GLU796  ALA797  LYS798  CYS799  TRP800  GLU811  SER814 

> <Gold.Protein.RotatedAtoms>
  150.8543  134.7877  159.7033 H   0  0  0  0  0  0  0  0  0  0  0  0  # atno 6907 bound_to 6896
  152.4599  134.5204  159.9790 H   0  0  0  0  0  0  0  0  0  0  0  0  # atno 6908 bound_to 6896
  151.5319  133.3409  159.2955 H   0  0  0  0  0  0  0  0  0  0  0  0  # atno 6909 bound_to 6896
  145.4750  140.9558  143.1896 H   0  0  0  0  0  0  0  0  0  0  0  0  # atno 7974 bound_to 7965
  154.9152  140.0409  157.1968 H   0  0  0  0  0  0  0  0  0  0  0  0  # atno 8008 bound_to 7997
  154.8308  140.2899  155.5702 H   0  0  0  0  0  0  0  0  0  0  0  0  # atno 8009 bound_to 7997
  156.2986  140.2501  156.3233 H   0  0  0  0  0  0  0  0  0  0  0  0  # atno 8010 bound_to 7997
  140.1555  144.4421  150.6736 H   0  0  0  0  0  0  0  0  0  0  0  0  # atno 10167 bound_to 10162
  156.7645  130.5280  149.5779 H   0  0  0  0  0  0  0  0  0  0  0  0  # atno 10718 bound_to 10713
  152.9966  135.5483  154.6111 H   0  0  0  0  0  0  0  0  0  0  0  0  # atno 10763 bound_to 10752
  154.5432  135.2821  155.1079 H   0  0  0  0  0  0  0  0  0  0  0  0  # atno 10764 bound_to 10752
  154.2348  135.6427  153.5240 H   0  0  0  0  0  0  0  0  0  0  0  0  # atno 10765 bound_to 10752
  140.0348  134.9334  157.0731 H   0  0  0  0  0  0  0  0  0  0  0  0  # atno 11005 bound_to 11000
  144.7922  139.6305  143.7108 LP  0  0  0  0  0  0  0  0  0  0  0  0  # atno 17320 bound_to 7965
  146.2374  139.5933  142.9514 LP  0  0  0  0  0  0  0  0  0  0  0  0  # atno 17321 bound_to 7965
  140.6676  143.2273  151.5705 LP  0  0  0  0  0  0  0  0  0  0  0  0  # atno 17342 bound_to 10162
  139.5405  144.2660  152.1342 LP  0  0  0  0  0  0  0  0  0  0  0  0  # atno 17343 bound_to 10162
  156.1318  130.6183  151.0344 LP  0  0  0  0  0  0  0  0  0  0  0  0  # atno 17370 bound_to 10713
  157.6719  131.0859  150.7590 LP  0  0  0  0  0  0  0  0  0  0  0  0  # atno 17371 bound_to 10713
  140.4166  134.1925  155.7163 LP  0  0  0  0  0  0  0  0  0  0  0  0  # atno 17394 bound_to 11000
  141.1851  133.8330  157.1116 LP  0  0  0  0  0  0  0  0  0  0  0  0  # atno 17395 bound_to 11000

$$$$
