AV-unprocessed.smi:183|AV-procd|sdf|1458|dock6
  -GOLD-   2262019263D 1   1.00000     0.00000
 Structure written by MMmdl.
 55 57  0  0  0  0  0  0  0  0  1 V2000
  156.7578  138.7533  161.6424 C   0  0  0  0  0  0  0  0  0  0  0  0
  155.7334  139.8613  161.8609 C   0  0  0  0  0  0  0  0  0  0  0  0
  155.7739  140.5454  162.8837 O   0  0  0  0  0  0  0  0  0  0  0  0
  154.8226  140.0289  160.8884 N   0  0  0  0  0  0  0  0  0  0  0  0
  153.7734  141.0410  160.9041 C   0  0  0  0  0  0  0  0  0  0  0  0
  153.8838  141.9873  159.6884 C   0  0  0  0  0  0  0  0  0  0  0  0
  152.6359  142.6902  159.3714 N   0  0  0  0  0  0  0  0  0  0  0  0
  151.9359  142.0189  158.4220 C   0  0  0  0  0  0  0  0  0  0  0  0
  150.8066  142.6111  157.9570 N   0  0  0  0  0  0  0  0  0  0  0  0
  150.0318  141.9800  157.0707 C   0  0  0  0  0  0  0  0  0  0  0  0
  150.1899  140.7667  156.5395 N   0  0  0  0  0  0  0  0  0  0  0  0
  151.3211  140.1651  157.0071 C   0  0  0  0  0  0  0  0  0  0  0  0
  152.2535  140.7197  157.9285 C   0  0  0  0  0  0  0  0  0  0  0  0
  153.2823  139.8129  158.1581 N   0  0  0  0  0  0  0  0  0  0  0  0
  152.9690  138.7799  157.4264 C   0  0  0  0  0  0  0  0  0  0  0  0
  151.7904  138.8943  156.7256 N   0  0  0  0  0  0  0  0  0  0  0  0
  151.1872  137.8888  155.8662 C   0  0  0  0  0  0  0  0  0  0  0  0
  150.8839  136.5369  156.5648 C   0  0  2  0  0  0  0  0  0  0  0  0
  152.1417  135.9426  156.8368 O   0  0  0  0  0  0  0  0  0  0  0  0
  150.0464  135.5584  155.7525 C   0  0  0  0  0  0  0  0  0  0  0  0
  149.5295  134.5923  156.8138 C   0  0  0  0  0  0  0  0  0  0  0  0
  149.4016  135.3604  158.0060 O   0  0  0  0  0  0  0  0  0  0  0  0
  150.0463  136.6238  157.8592 C   0  0  1  0  0  0  0  0  0  0  0  0
  150.8004  137.0180  159.1384 C   0  0  0  0  0  0  0  0  0  0  0  0
  152.6029  144.1623  159.3549 C   0  0  0  0  0  0  0  0  0  0  0  0
  151.3054  144.7096  159.9787 C   0  0  0  0  0  0  0  0  0  0  0  0
  152.7469  144.7389  157.9294 C   0  0  0  0  0  0  0  0  0  0  0  0
  157.3457  138.9500  160.7455 H   0  0  0  0  0  0  0  0  0  0  0  0
  156.2596  137.7907  161.5262 H   0  0  0  0  0  0  0  0  0  0  0  0
  157.4407  138.6850  162.4898 H   0  0  0  0  0  0  0  0  0  0  0  0
  154.8642  139.4210  160.0831 H   0  0  0  0  0  0  0  0  0  0  0  0
  152.8019  140.5468  160.9028 H   0  0  0  0  0  0  0  0  0  0  0  0
  153.8269  141.5818  161.8482 H   0  0  0  0  0  0  0  0  0  0  0  0
  154.6693  142.7240  159.8654 H   0  0  0  0  0  0  0  0  0  0  0  0
  154.2266  141.4325  158.8154 H   0  0  0  0  0  0  0  0  0  0  0  0
  149.1523  142.5192  156.7514 H   0  0  0  0  0  0  0  0  0  0  0  0
  153.5816  137.8906  157.3953 H   0  0  0  0  0  0  0  0  0  0  0  0
  150.2694  138.3072  155.4506 H   0  0  0  0  0  0  0  0  0  0  0  0
  151.8561  137.7284  155.0194 H   0  0  0  0  0  0  0  0  0  0  0  0
  152.5084  136.3603  157.6012 H   0  0  0  0  0  0  0  0  0  0  0  0
  149.1897  136.0585  155.3026 H   0  0  0  0  0  0  0  0  0  0  0  0
  150.6001  135.0639  154.9535 H   0  0  0  0  0  0  0  0  0  0  0  0
  148.5816  134.1332  156.5321 H   0  0  0  0  0  0  0  0  0  0  0  0
  150.2524  133.7948  156.9895 H   0  0  0  0  0  0  0  0  0  0  0  0
  149.2310  137.3307  157.7134 H   0  0  0  0  0  0  0  0  0  0  0  0
  151.2951  137.9821  159.0194 H   0  0  0  0  0  0  0  0  0  0  0  0
  151.5574  136.2803  159.4053 H   0  0  0  0  0  0  0  0  0  0  0  0
  150.1133  137.1001  159.9805 H   0  0  0  0  0  0  0  0  0  0  0  0
  153.4333  144.5301  159.9572 H   0  0  0  0  0  0  0  0  0  0  0  0
  151.2725  145.7980  159.9210 H   0  0  0  0  0  0  0  0  0  0  0  0
  151.2197  144.4505  161.0337 H   0  0  0  0  0  0  0  0  0  0  0  0
  150.4246  144.3245  159.4638 H   0  0  0  0  0  0  0  0  0  0  0  0
  152.6850  145.8274  157.9416 H   0  0  0  0  0  0  0  0  0  0  0  0
  151.9565  144.3719  157.2740 H   0  0  0  0  0  0  0  0  0  0  0  0
  153.7018  144.4874  157.4693 H   0  0  0  0  0  0  0  0  0  0  0  0
  1  2  1  0  0  0  0
  1 28  1  0  0  0  0
  1 29  1  0  0  0  0
  1 30  1  0  0  0  0
  2  3  2  0  0  0  0
  2  4  1  0  0  0  0
  4  5  1  0  0  0  0
  4 31  1  0  0  0  0
  5  6  1  0  0  0  0
  5 32  1  0  0  0  0
  5 33  1  0  0  0  0
  6  7  1  0  0  0  0
  6 34  1  0  0  0  0
  6 35  1  0  0  0  0
  7  8  1  0  0  0  0
  7 25  1  0  0  0  0
  8 13  1  0  0  0  0
  8  9  2  0  0  0  0
  9 10  1  0  0  0  0
 10 11  2  0  0  0  0
 10 36  1  0  0  0  0
 11 12  1  0  0  0  0
 12 16  1  0  0  0  0
 12 13  2  0  0  0  0
 13 14  1  0  0  0  0
 14 15  2  0  0  0  0
 15 16  1  0  0  0  0
 15 37  1  0  0  0  0
 16 17  1  0  0  0  0
 17 18  1  0  0  0  0
 17 38  1  0  0  0  0
 17 39  1  0  0  0  0
 18 23  1  0  0  0  0
 18 19  1  0  0  0  0
 18 20  1  0  0  0  0
 19 40  1  0  0  0  0
 20 21  1  0  0  0  0
 20 41  1  0  0  0  0
 20 42  1  0  0  0  0
 21 22  1  0  0  0  0
 21 43  1  0  0  0  0
 21 44  1  0  0  0  0
 22 23  1  0  0  0  0
 23 24  1  0  0  0  0
 23 45  1  0  0  0  0
 24 46  1  0  0  0  0
 24 47  1  0  0  0  0
 24 48  1  0  0  0  0
 25 26  1  0  0  0  0
 25 27  1  0  0  0  0
 25 49  1  0  0  0  0
 26 50  1  0  0  0  0
 26 51  1  0  0  0  0
 26 52  1  0  0  0  0
 27 53  1  0  0  0  0
 27 54  1  0  0  0  0
 27 55  1  0  0  0  0
M  END
> <s_m_source_file>
AV-unprocessed.smi

> <i_m_source_file_index>
183

> <i_lp_mmshare_version>
43012

> <i_f3d_flags>
0

> <s_epik_input>
W0NIM11DKD1PKVtOSF1bQ0gyXVtDSDJdTihbQ0hdKFtDSDNdKVtDSDNdKWMobltjSF1uMSljKGMxMiluW2NIXW4yW0NIMl1bQ0BAXTMoW09IXSlbQ0gyXVtDSDJdT1tDQEhdM1tDSDNd

> <s_epik_cmdline>
J2VwaWtfcHl0aG9uJywgJy1waCcsICc3LjAnLCAnLXRuJywgJzgnLCAnLW1hJywgJzIwMCcsICctbWV0YWxfYmluZGluZycsICctaW1hZScsICc8aW5maWxlLm1hZT4nLCAnLW9tYWUnLCAnPG91dGZpbGUubWFlPic=

> <r_lp_tautomer_probability>
1

> <r_epik_Ionization_Penalty>
0.00156158

> <r_epik_Ionization_Penalty_Charging>
0

> <r_epik_Ionization_Penalty_Neutral>
0.00156158

> <r_epik_State_Penalty>
0.000865808

> <r_epik_Charging_Adjusted_Penalty>
0.000865808

> <i_epik_Tot_Q>
0

> <i_epik_Tot_abs_Q>
0

> <r_epik_Metal_State_Penalty>
-0

> <b_epik_Metal_Only>
0

> <s_lp_Force_Field>
OPLS_2005

> <r_lp_Energy>
32.608

> <b_lp_Chiralities_Consistent>
1

> <s_lp_Variant>
AV-unprocessed.smi:183-2

> <Gold.Version>
5.8.1

> <Gold.Id.Protein>
6NUR|6NUR_protein|mol2

> <Gold.PLP.Fitness>
44.5569

> <Gold.PLP.PLP>
-39.4394

> <Gold.PLP.part.hbond>
-3.9588

> <Gold.PLP.part.metal>
0.0000

> <Gold.PLP.part.buried>
-3.4695

> <Gold.PLP.part.nonpolar>
-32.1595

> <Gold.PLP.part.repulsive>
0.1462

> <Gold.PLP.ligand.clash>
2.1911

> <Gold.PLP.ligand.torsion>
1.8883

> <Gold.PLP.Chemscore.Hbond>
2.2937

> <Gold.PLP.Chemscore.CHOScore>
1.0000

> <Gold.PLP.Chemscore.Metal>
0.0000

> <Gold.Chemscore.Hbonds>
donor molecule, donor type, donor heavy atom, donor atom, acceptor molecule, acceptor atom, score
      P1  H  6896  6907       L1    22  0.73
      P1  H  7997  8008       L1    14  0.41
      P1  H 10752 10764       L1    19  0.91
      L1  C    10    36       P1  8028  1.00

> <Gold.PLP.Chemscore.Internal.Correction>
1.2042

> <Gold.Rescore>
     Score         DG    S(hbond)    S(metal)    S(lipo)     H(rot)  DE(clash)    DE(int)     intcor
      5.50     -11.13       1.06        0.00      93.55       3.45       0.76       4.88       ----

> <Gold.Chemscore.Fitness>
5.4982

> <Gold.Chemscore.DG>
-11.1336

> <Gold.Chemscore.ZeroCoef>
-5.4800

> <Gold.Chemscore.Hbond>
1.0562

> <Gold.Chemscore.Metal>
0.0000

> <Gold.Chemscore.Lipo>
93.5498

> <Gold.Chemscore.Internal_Hbond>
0.0000

> <Gold.Chemscore.DEClash>
0.7594

> <Gold.Chemscore.DEInternal>
4.8760

> <Gold.Chemscore.Rot>
3.4451

> <Gold.Chemscore.Internal.Correction>
   9.000000E+99

> <Gold.Chemscore.Hbonds>
donor molecule, donor type, donor heavy atom, donor atom, acceptor molecule, acceptor atom, score
      P1  H  6896  6907       L1    22  0.12
      P1  H  7997  8008       L1    14  0.04
      P1  H 10752 10764       L1    19  0.83

> <Gold.Chemscore.Hbond.Weighted>
-3.5277

> <Gold.Chemscore.Metal.Weighted>
-0.0000

> <Gold.Chemscore.Lipo.Weighted>
-10.9453

> <Gold.Chemscore.Internal_Hbond.Weighted>
0.0000

> <Gold.Chemscore.DEClash.Weighted>
0.7594

> <Gold.Chemscore.DEInternal.Weighted>
4.8760

> <Gold.Chemscore.Rot.Weighted>
8.8194

> <Gold.Chemscore.Internal.Correction.Weighted>
   9.000000E+99

> <Gold.Protein.RotatedTorsions>
[ 6907 6896 6895 6894 ] final  -80.73 input  -60.11 | X-H torsion
[ 7974 7965 7964 7962 ] final  -32.99 input  175.53 | X-H torsion
[ 8008 7997 7996 7995 ] final -116.24 input   59.86 | X-H torsion
[ 10167 10162 10161 10158 ] final  138.37 input  -65.29 | X-H torsion
[ 10718 10713 10712 10709 ] final -148.46 input   66.30 | X-H torsion
[ 10763 10752 10751 10750 ] final  -17.47 input  -60.55 | X-H torsion
[ 11005 11000 10999 10996 ] final  176.63 input  -57.11 | X-H torsion

> <Gold.Protein.ActiveResidues>
 VAL166  LYS551  ARG553  GLY616  TRP617  ASP618  TYR619  PRO620  LYS621  CYS622 
 ASP623  PHE694  ASN695  SER759  ASP760  ASP761  ALA762  ILE779  LEU786  VAL792 
 PHE793  MET794  SER795  GLU796  ALA797  LYS798  CYS799  TRP800  GLU811  SER814 

> <Gold.Protein.RotatedAtoms>
  150.6924  134.3924  159.5082 H   0  0  0  0  0  0  0  0  0  0  0  0  # atno 6907 bound_to 6896
  152.1710  134.8831  160.0543 H   0  0  0  0  0  0  0  0  0  0  0  0  # atno 6908 bound_to 6896
  151.9857  133.3738  159.4161 H   0  0  0  0  0  0  0  0  0  0  0  0  # atno 6909 bound_to 6896
  146.0946  140.5861  142.8848 H   0  0  0  0  0  0  0  0  0  0  0  0  # atno 7974 bound_to 7965
  155.0647  140.0393  157.2588 H   0  0  0  0  0  0  0  0  0  0  0  0  # atno 8008 bound_to 7997
  154.7031  140.2677  155.6676 H   0  0  0  0  0  0  0  0  0  0  0  0  # atno 8009 bound_to 7997
  156.2766  140.2736  156.1648 H   0  0  0  0  0  0  0  0  0  0  0  0  # atno 8010 bound_to 7997
  139.5113  144.6357  151.5703 H   0  0  0  0  0  0  0  0  0  0  0  0  # atno 10167 bound_to 10162
  156.4205  130.8026  151.2249 H   0  0  0  0  0  0  0  0  0  0  0  0  # atno 10718 bound_to 10713
  153.5743  135.7007  153.5491 H   0  0  0  0  0  0  0  0  0  0  0  0  # atno 10763 bound_to 10752
  153.3316  135.4045  155.1500 H   0  0  0  0  0  0  0  0  0  0  0  0  # atno 10764 bound_to 10752
  154.8628  135.3720  154.5268 H   0  0  0  0  0  0  0  0  0  0  0  0  # atno 10765 bound_to 10752
  140.3752  134.6995  157.4417 H   0  0  0  0  0  0  0  0  0  0  0  0  # atno 11005 bound_to 11000
  144.7386  140.4878  143.6886 LP  0  0  0  0  0  0  0  0  0  0  0  0  # atno 17320 bound_to 7965
  145.5973  139.1500  143.3149 LP  0  0  0  0  0  0  0  0  0  0  0  0  # atno 17321 bound_to 7965
  140.6105  143.9445  150.6450 LP  0  0  0  0  0  0  0  0  0  0  0  0  # atno 17342 bound_to 10162
  140.2686  143.3472  152.1258 LP  0  0  0  0  0  0  0  0  0  0  0  0  # atno 17343 bound_to 10162
  157.7508  131.0229  150.3813 LP  0  0  0  0  0  0  0  0  0  0  0  0  # atno 17370 bound_to 10713
  156.4130  130.3938  149.6878 LP  0  0  0  0  0  0  0  0  0  0  0  0  # atno 17371 bound_to 10713
  140.0521  134.6116  155.8849 LP  0  0  0  0  0  0  0  0  0  0  0  0  # atno 17394 bound_to 11000
  141.1941  133.6582  156.5581 LP  0  0  0  0  0  0  0  0  0  0  0  0  # atno 17395 bound_to 11000

$$$$
