AV-unprocessed.smi:48|AV-procd|sdf|455|dock9
  -GOLD-   2262016323D 1   1.00000     0.00000
 Structure written by MMmdl.
 30 32  0  0  0  0  0  0  0  0  1 V2000
  150.8725  143.6503  157.5983 O   0  0  0  0  0  0  0  0  0  0  0  0
  150.8762  142.2388  157.6049 C   0  0  0  0  0  0  0  0  0  0  0  0
  150.7052  141.7029  156.1724 C   0  0  1  0  0  0  0  0  0  0  0  0
  151.3778  140.4631  156.0081 O   0  0  0  0  0  0  0  0  0  0  0  0
  150.8709  139.8196  154.8827 C   0  0  1  0  0  0  0  0  0  0  0  0
  150.8756  138.3494  155.1448 N   0  0  0  0  0  0  0  0  0  0  0  0
  151.3137  137.3763  154.3207 C   0  0  0  0  0  0  0  0  0  0  0  0
  151.2202  136.1188  154.7508 N   0  0  0  0  0  0  0  0  0  0  0  0
  150.6563  136.2970  156.0034 C   0  0  0  0  0  0  0  0  0  0  0  0
  150.2777  135.3894  157.0225 C   0  0  0  0  0  0  0  0  0  0  0  0
  150.4938  133.6891  156.8230 Cl  0  0  0  0  0  0  0  0  0  0  0  0
  149.7396  135.8861  158.1618 N   0  0  0  0  0  0  0  0  0  0  0  0
  149.5839  137.2093  158.2903 C   0  0  0  0  0  0  0  0  0  0  0  0
  149.8920  138.1796  157.4227 N   0  0  0  0  0  0  0  0  0  0  0  0
  150.4331  137.6775  156.2734 C   0  0  0  0  0  0  0  0  0  0  0  0
  149.4393  140.3333  154.6497 C   0  0  2  0  0  0  0  0  0  0  0  0
  149.3245  140.9561  153.3861 O   0  0  0  0  0  0  0  0  0  0  0  0
  149.2639  141.3777  155.7500 C   0  0  1  0  0  0  0  0  0  0  0  0
  148.5122  140.8418  156.8228 O   0  0  0  0  0  0  0  0  0  0  0  0
  151.1153  142.4141  155.4528 H   0  0  0  0  0  0  0  0  0  0  0  0
  151.5350  139.9603  154.0281 H   0  0  0  0  0  0  0  0  0  0  0  0
  148.7086  139.5254  154.7180 H   0  0  0  0  0  0  0  0  0  0  0  0
  148.7428  142.2710  155.4024 H   0  0  0  0  0  0  0  0  0  0  0  0
  150.2794  143.9464  156.9247 H   0  0  0  0  0  0  0  0  0  0  0  0
  151.7931  141.8653  158.0625 H   0  0  0  0  0  0  0  0  0  0  0  0
  150.0433  141.9154  158.2298 H   0  0  0  0  0  0  0  0  0  0  0  0
  151.7215  137.6042  153.3465 H   0  0  0  0  0  0  0  0  0  0  0  0
  149.1494  137.5390  159.2224 H   0  0  0  0  0  0  0  0  0  0  0  0
  149.3730  140.2888  152.7185 H   0  0  0  0  0  0  0  0  0  0  0  0
  148.9875  140.9875  157.6262 H   0  0  0  0  0  0  0  0  0  0  0  0
  1  2  1  0  0  0  0
  1 24  1  0  0  0  0
  2  3  1  0  0  0  0
  2 25  1  0  0  0  0
  2 26  1  0  0  0  0
  3 20  1  0  0  0  0
  3 18  1  0  0  0  0
  3  4  1  0  0  0  0
  4  5  1  0  0  0  0
  5 21  1  0  0  0  0
  5  6  1  0  0  0  0
  5 16  1  0  0  0  0
  6 15  1  0  0  0  0
  6  7  1  0  0  0  0
  7  8  2  0  0  0  0
  7 27  1  0  0  0  0
  8  9  1  0  0  0  0
  9 15  2  0  0  0  0
  9 10  1  0  0  0  0
 10 11  1  0  0  0  0
 10 12  2  0  0  0  0
 12 13  1  0  0  0  0
 13 14  2  0  0  0  0
 13 28  1  0  0  0  0
 14 15  1  0  0  0  0
 16 22  1  0  0  0  0
 16 17  1  0  0  0  0
 16 18  1  0  0  0  0
 17 29  1  0  0  0  0
 18 23  1  0  0  0  0
 18 19  1  0  0  0  0
 19 30  1  0  0  0  0
M  END
> <s_m_source_file>
AV-unprocessed.smi

> <i_m_source_file_index>
48

> <i_lp_mmshare_version>
43012

> <i_f3d_flags>
0

> <s_epik_input>
W09IXVtDSDJdW0NASF0xT1tDQEhdKFtDQEhdKFtPSF0pW0NAQEhdMVtPSF0pbihbY0hdbjIpYyhjMjMpbltjSF1uYzNDbA==

> <s_epik_cmdline>
J2VwaWtfcHl0aG9uJywgJy1waCcsICc3LjAnLCAnLXRuJywgJzgnLCAnLW1hJywgJzIwMCcsICctbWV0YWxfYmluZGluZycsICctaW1hZScsICc8aW5maWxlLm1hZT4nLCAnLW9tYWUnLCAnPG91dGZpbGUubWFlPic=

> <r_lp_tautomer_probability>
1

> <r_epik_Ionization_Penalty>
3.45505e-06

> <r_epik_Ionization_Penalty_Charging>
0

> <r_epik_Ionization_Penalty_Neutral>
3.45505e-06

> <r_epik_State_Penalty>
-0

> <r_epik_Charging_Adjusted_Penalty>
0

> <i_epik_Tot_Q>
0

> <i_epik_Tot_abs_Q>
0

> <r_epik_Metal_State_Penalty>
-0

> <b_epik_Metal_Only>
0

> <s_epik_Chemistry_Notes>
This compound contains an acetal/aminal-like group ( X-CH(R)-Y where X, Y are N, S, or O) that may be acid/base labile, releasing an aldehyde.

> <s_lp_Force_Field>
OPLS_2005

> <r_lp_Energy>
33.2991

> <b_lp_Chiralities_Consistent>
1

> <s_lp_Variant>
AV-unprocessed.smi:48-9

> <Gold.Version>
5.8.1

> <Gold.Id.Protein>
6NUR|6NUR_protein|mol2

> <Gold.PLP.Fitness>
42.3905

> <Gold.PLP.PLP>
-27.6134

> <Gold.PLP.part.hbond>
-5.6167

> <Gold.PLP.part.metal>
0.0000

> <Gold.PLP.part.buried>
-2.8122

> <Gold.PLP.part.nonpolar>
-21.5132

> <Gold.PLP.part.repulsive>
0.1660

> <Gold.PLP.ligand.clash>
0.0000

> <Gold.PLP.ligand.torsion>
0.7012

> <Gold.PLP.Chemscore.Hbond>
4.6787

> <Gold.PLP.Chemscore.CHOScore>
0.7126

> <Gold.PLP.Chemscore.Metal>
0.0000

> <Gold.Chemscore.Hbonds>
donor molecule, donor type, donor heavy atom, donor atom, acceptor molecule, acceptor atom, score
      L1  H     1    24       P1  8028  1.00
      L1  H    17    29       P1  7957  0.86
      P1  H  6896  6908       L1    12  0.77
      P1  H  8011  8017       L1    17  0.90
      P1  H 10752 10764       L1     8  1.00
      L1  C     7    27       P1  7949  0.74

> <Gold.PLP.Chemscore.Internal.Correction>
0.0057

> <Gold.Rescore>
     Score         DG    S(hbond)    S(metal)    S(lipo)     H(rot)  DE(clash)    DE(int)     intcor
     10.03     -10.88       3.24        0.00      36.77       3.80       0.13       0.72       ----

> <Gold.Chemscore.Fitness>
10.0317

> <Gold.Chemscore.DG>
-10.8829

> <Gold.Chemscore.ZeroCoef>
-5.4800

> <Gold.Chemscore.Hbond>
3.2433

> <Gold.Chemscore.Metal>
0.0000

> <Gold.Chemscore.Lipo>
36.7742

> <Gold.Chemscore.Internal_Hbond>
0.0000

> <Gold.Chemscore.DEClash>
0.1341

> <Gold.Chemscore.DEInternal>
0.7172

> <Gold.Chemscore.Rot>
3.8017

> <Gold.Chemscore.Internal.Correction>
   9.000000E+99

> <Gold.Chemscore.Hbonds>
donor molecule, donor type, donor heavy atom, donor atom, acceptor molecule, acceptor atom, score
      L1  H     1    24       P1  8028  0.93
      L1  H    17    29       P1  7957  0.83
      P1  H  6896  6908       L1    12  0.16
      P1  H  8011  8017       L1    17  0.18
      P1  H 10752 10764       L1     8  0.37

> <Gold.Chemscore.Hbond.Weighted>
-10.8327

> <Gold.Chemscore.Metal.Weighted>
-0.0000

> <Gold.Chemscore.Lipo.Weighted>
-4.3026

> <Gold.Chemscore.Internal_Hbond.Weighted>
0.0000

> <Gold.Chemscore.DEClash.Weighted>
0.1341

> <Gold.Chemscore.DEInternal.Weighted>
0.7172

> <Gold.Chemscore.Rot.Weighted>
9.7324

> <Gold.Chemscore.Internal.Correction.Weighted>
   9.000000E+99

> <Gold.Protein.RotatedTorsions>
[ 6907 6896 6895 6894 ] final  173.92 input  -60.11 | X-H torsion
[ 7974 7965 7964 7962 ] final  -18.60 input  175.53 | X-H torsion
[ 8008 7997 7996 7995 ] final  123.33 input   59.86 | X-H torsion
[ 10167 10162 10161 10158 ] final -112.95 input  -65.29 | X-H torsion
[ 10718 10713 10712 10709 ] final  -85.63 input   66.30 | X-H torsion
[ 10763 10752 10751 10750 ] final  -51.66 input  -60.55 | X-H torsion
[ 11005 11000 10999 10996 ] final    7.62 input  -57.11 | X-H torsion

> <Gold.Protein.ActiveResidues>
 VAL166  LYS551  ARG553  GLY616  TRP617  ASP618  TYR619  PRO620  LYS621  CYS622 
 ASP623  PHE694  ASN695  SER759  ASP760  ASP761  ALA762  ILE779  LEU786  VAL792 
 PHE793  MET794  SER795  GLU796  ALA797  LYS798  CYS799  TRP800  GLU811  SER814 

> <Gold.Protein.RotatedAtoms>
  151.7606  133.3333  159.3416 H   0  0  0  0  0  0  0  0  0  0  0  0  # atno 6907 bound_to 6896
  150.7499  134.6109  159.6095 H   0  0  0  0  0  0  0  0  0  0  0  0  # atno 6908 bound_to 6896
  152.3407  134.7139  160.0316 H   0  0  0  0  0  0  0  0  0  0  0  0  # atno 6909 bound_to 6896
  146.1884  140.3943  142.8467 H   0  0  0  0  0  0  0  0  0  0  0  0  # atno 7974 bound_to 7965
  156.2762  140.2765  156.1611 H   0  0  0  0  0  0  0  0  0  0  0  0  # atno 8008 bound_to 7997
  155.0753  140.0387  157.2639 H   0  0  0  0  0  0  0  0  0  0  0  0  # atno 8009 bound_to 7997
  154.7007  140.2648  155.6728 H   0  0  0  0  0  0  0  0  0  0  0  0  # atno 8010 bound_to 7997
  140.1171  143.4476  152.1715 H   0  0  0  0  0  0  0  0  0  0  0  0  # atno 10167 bound_to 10162
  155.9995  130.4737  150.4591 H   0  0  0  0  0  0  0  0  0  0  0  0  # atno 10718 bound_to 10713
  154.1301  135.6521  153.4920 H   0  0  0  0  0  0  0  0  0  0  0  0  # atno 10763 bound_to 10752
  153.0198  135.5291  154.7009 H   0  0  0  0  0  0  0  0  0  0  0  0  # atno 10764 bound_to 10752
  154.6242  135.2968  155.0262 H   0  0  0  0  0  0  0  0  0  0  0  0  # atno 10765 bound_to 10752
  140.5462  134.0327  155.7921 H   0  0  0  0  0  0  0  0  0  0  0  0  # atno 11005 bound_to 11000
  144.8440  140.6901  143.6211 LP  0  0  0  0  0  0  0  0  0  0  0  0  # atno 17320 bound_to 7965
  145.3868  139.1625  143.4251 LP  0  0  0  0  0  0  0  0  0  0  0  0  # atno 17321 bound_to 7965
  139.5588  144.7391  151.4216 LP  0  0  0  0  0  0  0  0  0  0  0  0  # atno 17342 bound_to 10162
  140.6893  143.7900  150.7231 LP  0  0  0  0  0  0  0  0  0  0  0  0  # atno 17343 bound_to 10162
  157.2617  131.0568  151.2316 LP  0  0  0  0  0  0  0  0  0  0  0  0  # atno 17370 bound_to 10713
  157.3428  130.7042  149.6392 LP  0  0  0  0  0  0  0  0  0  0  0  0  # atno 17371 bound_to 10713
  141.1198  133.9480  157.2751 LP  0  0  0  0  0  0  0  0  0  0  0  0  # atno 17394 bound_to 11000
  139.9478  135.0181  156.8905 LP  0  0  0  0  0  0  0  0  0  0  0  0  # atno 17395 bound_to 11000

$$$$
