AV-unprocessed.smi:1512|AV-procd|sdf|6103|dock10
  -GOLD-   22720 6233D 1   1.00000     0.00000
 Structure written by MMmdl.
 44 46  0  0  0  0  0  0  0  0  3 V2000
  153.0086  139.8378  159.2821 C   0  0  0  0  0  0  0  0  0  0  0  0
  152.3817  140.9501  158.4243 C   0  0  1  0  0  0  0  0  0  0  0  0
  151.3357  140.3880  157.5770 N   0  0  0  0  0  0  0  0  0  0  0  0
  151.4045  140.2021  156.2481 C   0  0  0  0  0  0  0  0  0  0  0  0
  152.4096  140.4638  155.5887 O   0  0  0  0  0  0  0  0  0  0  0  0
  150.1603  139.6507  155.5300 C   0  0  0  0  0  0  0  0  0  0  0  0
  148.9936  140.5537  155.5378 N   0  0  0  0  0  0  0  0  0  0  0  0
  148.6113  141.1004  154.2984 C   0  0  0  0  0  0  0  0  0  0  0  0
  147.5776  141.9460  154.1851 C   0  0  0  0  0  0  0  0  0  0  0  0
  146.8516  142.3001  155.3801 C   0  0  0  0  0  0  0  0  0  0  0  0
  147.2039  141.7929  156.5842 C   0  0  0  0  0  0  0  0  0  0  0  0
  146.4445  142.2044  157.7430 N   0  3  0  0  0  0  0  0  0  0  0  0
  145.5059  142.9803  157.5921 O   0  0  0  0  0  0  0  0  0  0  0  0
  146.7558  141.7488  158.8394 O   0  5  0  0  0  0  0  0  0  0  0  0
  148.3376  140.8520  156.7026 C   0  0  0  0  0  0  0  0  0  0  0  0
  148.6868  140.3572  157.7756 O   0  0  0  0  0  0  0  0  0  0  0  0
  151.7809  142.0809  159.2918 C   0  0  1  0  0  0  0  0  0  0  0  0
  152.8165  142.9273  160.0651 C   0  0  0  0  0  0  0  0  0  0  0  0
  152.4042  144.3724  159.7268 C   0  0  1  0  0  0  0  0  0  0  0  0
  152.8104  144.6843  158.2748 C   0  0  0  0  0  0  0  0  0  0  0  0
  151.7946  143.8662  157.4570 C   0  0  0  0  0  0  0  0  0  0  0  0
  150.9600  143.1667  158.5497 C   0  0  2  0  0  0  0  0  0  0  0  0
  150.8884  144.2587  159.6122 C   0  0  0  0  0  0  0  0  0  0  0  0
  153.8058  140.2273  159.9153 H   0  0  0  0  0  0  0  0  0  0  0  0
  153.4430  139.0551  158.6592 H   0  0  0  0  0  0  0  0  0  0  0  0
  152.2670  139.3709  159.9312 H   0  0  0  0  0  0  0  0  0  0  0  0
  153.1645  141.3697  157.7910 H   0  0  0  0  0  0  0  0  0  0  0  0
  150.4720  140.1426  158.0383 H   0  0  0  0  0  0  0  0  0  0  0  0
  150.4411  139.4170  154.5020 H   0  0  0  0  0  0  0  0  0  0  0  0
  149.9056  138.6865  155.9731 H   0  0  0  0  0  0  0  0  0  0  0  0
  149.2129  140.7939  153.4547 H   0  0  0  0  0  0  0  0  0  0  0  0
  147.3006  142.3576  153.2258 H   0  0  0  0  0  0  0  0  0  0  0  0
  146.0263  142.9928  155.2998 H   0  0  0  0  0  0  0  0  0  0  0  0
  151.1119  141.6174  160.0200 H   0  0  0  0  0  0  0  0  0  0  0  0
  152.7400  142.7379  161.1364 H   0  0  0  0  0  0  0  0  0  0  0  0
  153.8453  142.7222  159.7666 H   0  0  0  0  0  0  0  0  0  0  0  0
  152.7604  145.1090  160.4476 H   0  0  0  0  0  0  0  0  0  0  0  0
  152.7061  145.7487  158.0603 H   0  0  0  0  0  0  0  0  0  0  0  0
  153.8418  144.3996  158.0631 H   0  0  0  0  0  0  0  0  0  0  0  0
  151.1640  144.5315  156.8658 H   0  0  0  0  0  0  0  0  0  0  0  0
  152.2698  143.1732  156.7637 H   0  0  0  0  0  0  0  0  0  0  0  0
  149.9883  142.8173  158.1982 H   0  0  0  0  0  0  0  0  0  0  0  0
  150.4064  143.9362  160.5369 H   0  0  0  0  0  0  0  0  0  0  0  0
  150.4110  145.1758  159.2617 H   0  0  0  0  0  0  0  0  0  0  0  0
  1  2  1  0  0  0  0
  1 24  1  0  0  0  0
  1 25  1  0  0  0  0
  1 26  1  0  0  0  0
  2  3  1  0  0  0  0
  2 17  1  0  0  0  0
  2 27  1  0  0  0  0
  3  4  1  0  0  0  0
  3 28  1  0  0  0  0
  4  5  2  0  0  0  0
  4  6  1  0  0  0  0
  6  7  1  0  0  0  0
  6 29  1  0  0  0  0
  6 30  1  0  0  0  0
  7 15  1  0  0  0  0
  7  8  1  0  0  0  0
  8  9  2  0  0  0  0
  8 31  1  0  0  0  0
  9 10  1  0  0  0  0
  9 32  1  0  0  0  0
 10 11  2  0  0  0  0
 10 33  1  0  0  0  0
 11 12  1  0  0  0  0
 11 15  1  0  0  0  0
 12 13  2  0  0  0  0
 12 14  1  0  0  0  0
 15 16  2  0  0  0  0
 17 22  1  0  0  0  0
 17 18  1  0  0  0  0
 17 34  1  0  0  0  0
 18 19  1  0  0  0  0
 18 35  1  0  0  0  0
 18 36  1  0  0  0  0
 19 23  1  0  0  0  0
 19 20  1  0  0  0  0
 19 37  1  0  0  0  0
 20 21  1  0  0  0  0
 20 38  1  0  0  0  0
 20 39  1  0  0  0  0
 21 22  1  0  0  0  0
 21 40  1  0  0  0  0
 21 41  1  0  0  0  0
 22 23  1  0  0  0  0
 22 42  1  0  0  0  0
 23 43  1  0  0  0  0
 23 44  1  0  0  0  0
M  CHG  1  12   1
M  CHG  1  14  -1
M  END
> <s_m_source_file>
AV-unprocessed.smi

> <i_m_source_file_index>
1512

> <i_lp_mmshare_version>
43012

> <i_f3d_flags>
0

> <s_epik_input>
W0NIMl0xW0NIMl1bQ0BIXShbQ0gyXTIpW0NAQEhdKFtDSDJdW0NAQEhdMTIpW0NASF0oW0NIM10pW05IXUMoPU8pW0NIMl1uM1tjSF1bY0hdW2NIXWMoW04rXSg9TylbTy1dKWMzPU8=

> <s_epik_cmdline>
J2VwaWtfcHl0aG9uJywgJy1waCcsICc3LjAnLCAnLXRuJywgJzgnLCAnLW1hJywgJzIwMCcsICctbWV0YWxfYmluZGluZycsICctaW1hZScsICc8aW5maWxlLm1hZT4nLCAnLW9tYWUnLCAnPG91dGZpbGUubWFlPic=

> <r_lp_tautomer_probability>
1

> <r_epik_Ionization_Penalty>
2.17697e-08

> <r_epik_Ionization_Penalty_Charging>
1.42735e-10

> <r_epik_Ionization_Penalty_Neutral>
2.16269e-08

> <r_epik_State_Penalty>
-0

> <r_epik_Charging_Adjusted_Penalty>
1.42735e-10

> <i_epik_Tot_Q>
0

> <i_epik_Tot_abs_Q>
2

> <r_epik_Metal_State_Penalty>
-0

> <b_epik_Metal_Only>
0

> <s_lp_Force_Field>
OPLS_2005

> <r_lp_Energy>
64.3313

> <b_lp_Chiralities_Consistent>
1

> <s_lp_Variant>
AV-unprocessed.smi:1512-4

> <Gold.Version>
5.8.1

> <Gold.Id.Protein>
6NUR|6NUR_protein|mol2

> <Gold.PLP.Fitness>
51.2797

> <Gold.PLP.PLP>
-43.3133

> <Gold.PLP.part.hbond>
-3.0000

> <Gold.PLP.part.metal>
0.0000

> <Gold.PLP.part.buried>
-3.2310

> <Gold.PLP.part.nonpolar>
-37.3421

> <Gold.PLP.part.repulsive>
0.1768

> <Gold.PLP.ligand.clash>
0.0000

> <Gold.PLP.ligand.torsion>
0.2804

> <Gold.PLP.Chemscore.Hbond>
1.8331

> <Gold.PLP.Chemscore.CHOScore>
1.0000

> <Gold.PLP.Chemscore.Metal>
0.0000

> <Gold.Chemscore.Hbonds>
donor molecule, donor type, donor heavy atom, donor atom, acceptor molecule, acceptor atom, score
      P1  H  6934  6946       L1    14  0.58
      P1  H  7989  7998       L1     5  0.24
      P1  H  7997  8009       L1     5  0.98
      L1  C     8    31       P1  7957  1.00

> <Gold.PLP.Chemscore.Internal.Correction>
0.0278

> <Gold.Rescore>
     Score         DG    S(hbond)    S(metal)    S(lipo)     H(rot)  DE(clash)    DE(int)     intcor
     16.35     -19.97       1.55        0.00     117.75       1.75       0.18       3.44       ----

> <Gold.Chemscore.Fitness>
16.3487

> <Gold.Chemscore.DG>
-19.9728

> <Gold.Chemscore.ZeroCoef>
-5.4800

> <Gold.Chemscore.Hbond>
1.5536

> <Gold.Chemscore.Metal>
0.0000

> <Gold.Chemscore.Lipo>
117.7536

> <Gold.Chemscore.Internal_Hbond>
0.0000

> <Gold.Chemscore.DEClash>
0.1818

> <Gold.Chemscore.DEInternal>
3.4423

> <Gold.Chemscore.Rot>
1.7474

> <Gold.Chemscore.Internal.Correction>
   9.000000E+99

> <Gold.Chemscore.Hbonds>
donor molecule, donor type, donor heavy atom, donor atom, acceptor molecule, acceptor atom, score
      P1  H  6934  6946       L1    14  0.57
      P1  H  7989  7998       L1     5  0.13
      P1  H  7997  8009       L1     5  0.89

> <Gold.Chemscore.Hbond.Weighted>
-5.1889

> <Gold.Chemscore.Metal.Weighted>
-0.0000

> <Gold.Chemscore.Lipo.Weighted>
-13.7772

> <Gold.Chemscore.Internal_Hbond.Weighted>
0.0000

> <Gold.Chemscore.DEClash.Weighted>
0.1818

> <Gold.Chemscore.DEInternal.Weighted>
3.4423

> <Gold.Chemscore.Rot.Weighted>
4.4733

> <Gold.Chemscore.Internal.Correction.Weighted>
   9.000000E+99

> <Gold.Protein.RotatedTorsions>
[ 6907 6896 6895 6894 ] final   78.66 input  -60.11 | X-H torsion
[ 7974 7965 7964 7962 ] final  -58.74 input  175.53 | X-H torsion
[ 8008 7997 7996 7995 ] final -145.75 input   59.86 | X-H torsion
[ 10167 10162 10161 10158 ] final -111.51 input  -65.29 | X-H torsion
[ 10718 10713 10712 10709 ] final  159.63 input   66.30 | X-H torsion
[ 10763 10752 10751 10750 ] final   -7.30 input  -60.55 | X-H torsion
[ 11005 11000 10999 10996 ] final -123.82 input  -57.11 | X-H torsion

> <Gold.Protein.ActiveResidues>
 VAL166  LYS551  ARG553  GLY616  TRP617  ASP618  TYR619  PRO620  LYS621  CYS622 
 ASP623  PHE694  ASN695  SER759  ASP760  ASP761  ALA762  ILE779  LEU786  VAL792 
 PHE793  MET794  SER795  GLU796  ALA797  LYS798  CYS799  TRP800  GLU811  SER814 

> <Gold.Protein.RotatedAtoms>
  152.5168  134.3631  159.9291 H   0  0  0  0  0  0  0  0  0  0  0  0  # atno 6907 bound_to 6896
  151.3583  133.3892  159.2695 H   0  0  0  0  0  0  0  0  0  0  0  0  # atno 6908 bound_to 6896
  150.9672  134.9069  159.7824 H   0  0  0  0  0  0  0  0  0  0  0  0  # atno 6909 bound_to 6896
  145.8357  140.8450  143.0060 H   0  0  0  0  0  0  0  0  0  0  0  0  # atno 7974 bound_to 7965
  155.5483  140.0614  157.2855 H   0  0  0  0  0  0  0  0  0  0  0  0  # atno 8008 bound_to 7997
  154.4429  140.1907  156.0705 H   0  0  0  0  0  0  0  0  0  0  0  0  # atno 8009 bound_to 7997
  156.0534  140.3281  155.7382 H   0  0  0  0  0  0  0  0  0  0  0  0  # atno 8010 bound_to 7997
  140.1328  143.4346  152.1616 H   0  0  0  0  0  0  0  0  0  0  0  0  # atno 10167 bound_to 10162
  157.1616  131.0588  151.2229 H   0  0  0  0  0  0  0  0  0  0  0  0  # atno 10718 bound_to 10713
  153.4244  135.7010  153.6272 H   0  0  0  0  0  0  0  0  0  0  0  0  # atno 10763 bound_to 10752
  153.4713  135.3714  155.2393 H   0  0  0  0  0  0  0  0  0  0  0  0  # atno 10764 bound_to 10752
  154.8723  135.4043  154.3618 H   0  0  0  0  0  0  0  0  0  0  0  0  # atno 10765 bound_to 10752
  140.9889  134.0567  157.3678 H   0  0  0  0  0  0  0  0  0  0  0  0  # atno 11005 bound_to 11000
  144.6736  140.0738  143.7472 LP  0  0  0  0  0  0  0  0  0  0  0  0  # atno 17320 bound_to 7965
  145.9521  139.2741  143.1206 LP  0  0  0  0  0  0  0  0  0  0  0  0  # atno 17321 bound_to 7965
  139.5511  144.7338  151.4432 LP  0  0  0  0  0  0  0  0  0  0  0  0  # atno 17342 bound_to 10162
  140.6807  143.8088  150.7118 LP  0  0  0  0  0  0  0  0  0  0  0  0  # atno 17343 bound_to 10162
  157.4127  130.7394  149.6851 LP  0  0  0  0  0  0  0  0  0  0  0  0  # atno 17370 bound_to 10713
  155.9753  130.4091  150.3861 LP  0  0  0  0  0  0  0  0  0  0  0  0  # atno 17371 bound_to 10713
  139.8983  135.0154  156.7143 LP  0  0  0  0  0  0  0  0  0  0  0  0  # atno 17394 bound_to 11000
  140.7071  133.9256  155.8060 LP  0  0  0  0  0  0  0  0  0  0  0  0  # atno 17395 bound_to 11000

$$$$
