AV-unprocessed.smi:3202|AV-procd|sdf|12245|dock5
  -GOLD-   2272018 83D 1   1.00000     0.00000
 Structure written by MMmdl.
 43 44  0  0  0  0  0  0  0  0  2 V2000
  143.8443  134.4518  151.4755 C   0  0  0  0  0  0  0  0  0  0  0  0
  144.4254  135.8210  151.6721 C   0  0  0  0  0  0  0  0  0  0  0  0
  145.7415  136.2730  151.3617 C   0  0  0  0  0  0  0  0  0  0  0  0
  145.7447  137.5874  151.7371 C   0  0  0  0  0  0  0  0  0  0  0  0
  146.8156  138.6289  151.6778 C   0  0  0  0  0  0  0  0  0  0  0  0
  147.2408  139.1736  153.0547 C   0  0  2  0  0  0  0  0  0  0  0  0
  147.0162  140.6890  153.1841 C   0  0  0  0  0  0  0  0  0  0  0  0
  148.6677  138.8616  153.2922 N   0  3  0  0  0  0  0  0  0  0  0  0
  149.1748  139.1768  154.6473 C   0  0  2  0  0  0  0  0  0  0  0  0
  149.5601  140.6517  154.8244 C   0  0  0  0  0  0  0  0  0  0  0  0
  150.6033  140.6680  155.9488 C   0  0  0  0  0  0  0  0  0  0  0  0
  150.9672  139.2010  156.2244 C   0  0  0  0  0  0  0  0  0  0  0  0
  150.4439  138.3846  155.0279 C   0  0  0  0  0  0  0  0  0  0  0  0
  150.1115  136.9388  155.4422 C   0  0  0  0  0  0  0  0  0  0  0  0
  151.5030  138.3689  153.9009 C   0  0  0  0  0  0  0  0  0  0  0  0
  144.4857  137.8489  152.2277 N   0  0  0  0  0  0  0  0  0  0  0  0
  143.6732  136.7769  152.1961 N   0  0  0  0  0  0  0  0  0  0  0  0
  144.1705  138.7400  152.5841 H   0  0  0  0  0  0  0  0  0  0  0  0
  144.5466  133.7960  150.9605 H   0  0  0  0  0  0  0  0  0  0  0  0
  142.9322  134.4929  150.8795 H   0  0  0  0  0  0  0  0  0  0  0  0
  143.5980  133.9892  152.4315 H   0  0  0  0  0  0  0  0  0  0  0  0
  146.5585  135.7143  150.9295 H   0  0  0  0  0  0  0  0  0  0  0  0
  146.4846  139.4555  151.0471 H   0  0  0  0  0  0  0  0  0  0  0  0
  147.6854  138.2027  151.1762 H   0  0  0  0  0  0  0  0  0  0  0  0
  146.6318  138.6808  153.8143 H   0  0  0  0  0  0  0  0  0  0  0  0
  145.9631  140.9484  153.0732 H   0  0  0  0  0  0  0  0  0  0  0  0
  147.5755  141.2396  152.4269 H   0  0  0  0  0  0  0  0  0  0  0  0
  147.3356  141.0508  154.1619 H   0  0  0  0  0  0  0  0  0  0  0  0
  148.7943  137.8714  153.1388 H   0  0  0  0  0  0  0  0  0  0  0  0
  148.3928  138.9373  155.3708 H   0  0  0  0  0  0  0  0  0  0  0  0
  150.0078  141.0424  153.9094 H   0  0  0  0  0  0  0  0  0  0  0  0
  148.6977  141.2774  155.0563 H   0  0  0  0  0  0  0  0  0  0  0  0
  151.4821  141.2347  155.6386 H   0  0  0  0  0  0  0  0  0  0  0  0
  150.2118  141.1424  156.8492 H   0  0  0  0  0  0  0  0  0  0  0  0
  152.0364  139.0667  156.3935 H   0  0  0  0  0  0  0  0  0  0  0  0
  150.4635  138.8855  157.1395 H   0  0  0  0  0  0  0  0  0  0  0  0
  151.0030  136.4127  155.7855 H   0  0  0  0  0  0  0  0  0  0  0  0
  149.6962  136.3732  154.6075 H   0  0  0  0  0  0  0  0  0  0  0  0
  149.3822  136.9091  156.2526 H   0  0  0  0  0  0  0  0  0  0  0  0
  152.4250  137.8936  154.2378 H   0  0  0  0  0  0  0  0  0  0  0  0
  151.7623  139.3734  153.5662 H   0  0  0  0  0  0  0  0  0  0  0  0
  151.1578  137.8104  153.0304 H   0  0  0  0  0  0  0  0  0  0  0  0
  149.2284  139.3607  152.6163 H   0  0  0  0  0  0  0  0  0  0  0  0
  1 19  1  0  0  0  0
  1 20  1  0  0  0  0
  1 21  1  0  0  0  0
  1  2  1  0  0  0  0
  2 17  2  0  0  0  0
  2  3  1  0  0  0  0
  3  4  2  0  0  0  0
  3 22  1  0  0  0  0
  4 16  1  0  0  0  0
  4  5  1  0  0  0  0
  5  6  1  0  0  0  0
  5 23  1  0  0  0  0
  5 24  1  0  0  0  0
  6  7  1  0  0  0  0
  6  8  1  0  0  0  0
  6 25  1  0  0  0  0
  7 26  1  0  0  0  0
  7 27  1  0  0  0  0
  7 28  1  0  0  0  0
  8  9  1  0  0  0  0
  8 29  1  0  0  0  0
  8 43  1  0  0  0  0
  9 13  1  0  0  0  0
  9 10  1  0  0  0  0
  9 30  1  0  0  0  0
 10 11  1  0  0  0  0
 10 31  1  0  0  0  0
 10 32  1  0  0  0  0
 11 12  1  0  0  0  0
 11 33  1  0  0  0  0
 11 34  1  0  0  0  0
 12 13  1  0  0  0  0
 12 35  1  0  0  0  0
 12 36  1  0  0  0  0
 13 14  1  0  0  0  0
 13 15  1  0  0  0  0
 14 37  1  0  0  0  0
 14 38  1  0  0  0  0
 14 39  1  0  0  0  0
 15 40  1  0  0  0  0
 15 41  1  0  0  0  0
 15 42  1  0  0  0  0
 16 17  1  0  0  0  0
 16 18  1  0  0  0  0
M  CHG  1   8   1
M  END
> <s_m_source_file>
AV-unprocessed.smi

> <i_m_source_file_index>
3202

> <i_lp_mmshare_version>
43012

> <i_f3d_flags>
0

> <s_epik_input>
W0NIM11jMVtjSF1jKG5bbkhdMSlbQ0gyXVtDQEhdKFtDSDNdKVtOSF1bQ0BASF0oQzIoW0NIM10pW0NIM10pW0NIMl1bQ0gyXVtDSDJdMg==

> <s_epik_cmdline>
J2VwaWtfcHl0aG9uJywgJy1waCcsICc3LjAnLCAnLXRuJywgJzgnLCAnLW1hJywgJzIwMCcsICctbWV0YWxfYmluZGluZycsICctaW1hZScsICc8aW5maWxlLm1hZT4nLCAnLW9tYWUnLCAnPG91dGZpbGUubWFlPic=

> <r_lp_tautomer_probability>
0.5

> <r_epik_Ionization_Penalty>
0.000449684

> <r_epik_Ionization_Penalty_Charging>
0.000404963

> <r_epik_Ionization_Penalty_Neutral>
4.47208e-05

> <r_epik_State_Penalty>
0.41068

> <r_epik_Charging_Adjusted_Penalty>
0.411085

> <i_epik_Tot_Q>
1

> <i_epik_Tot_abs_Q>
1

> <r_epik_Metal_State_Penalty>
0.410687

> <b_epik_Metal_Only>
0

> <s_lp_Force_Field>
OPLS_2005

> <r_lp_Energy>
32.3092

> <b_lp_Chiralities_Consistent>
1

> <s_lp_Variant>
AV-unprocessed.smi:3202-5

> <Gold.Version>
5.8.1

> <Gold.Id.Protein>
6NUR|6NUR_protein|mol2

> <Gold.PLP.Fitness>
43.6371

> <Gold.PLP.PLP>
-33.6160

> <Gold.PLP.part.hbond>
-4.0000

> <Gold.PLP.part.metal>
0.0000

> <Gold.PLP.part.buried>
0.1860

> <Gold.PLP.part.nonpolar>
-30.1346

> <Gold.PLP.part.repulsive>
0.4316

> <Gold.PLP.ligand.clash>
0.0000

> <Gold.PLP.ligand.torsion>
0.9946

> <Gold.PLP.Chemscore.Hbond>
4.0000

> <Gold.PLP.Chemscore.CHOScore>
0.0000

> <Gold.PLP.Chemscore.Metal>
0.0000

> <Gold.Chemscore.Hbonds>
donor molecule, donor type, donor heavy atom, donor atom, acceptor molecule, acceptor atom, score
      L1  H     8    29       P1  7948  1.82
      L1  H     8    43       P1  7957  1.00
      L1  H    16    18       P1 10175  1.00

> <Gold.PLP.Chemscore.Internal.Correction>
0.0102

> <Gold.Rescore>
     Score         DG    S(hbond)    S(metal)    S(lipo)     H(rot)  DE(clash)    DE(int)     intcor
     19.26     -21.90       2.83        0.00      91.44       1.46       1.50       1.13       ----

> <Gold.Chemscore.Fitness>
19.2618

> <Gold.Chemscore.DG>
-21.8960

> <Gold.Chemscore.ZeroCoef>
-5.4800

> <Gold.Chemscore.Hbond>
2.8304

> <Gold.Chemscore.Metal>
0.0000

> <Gold.Chemscore.Lipo>
91.4429

> <Gold.Chemscore.Internal_Hbond>
0.0000

> <Gold.Chemscore.DEClash>
1.5041

> <Gold.Chemscore.DEInternal>
1.1301

> <Gold.Chemscore.Rot>
1.4596

> <Gold.Chemscore.Internal.Correction>
   9.000000E+99

> <Gold.Chemscore.Hbonds>
donor molecule, donor type, donor heavy atom, donor atom, acceptor molecule, acceptor atom, score
      L1  H     8    29       P1  7948  0.84
      L1  H     8    43       P1  7957  0.99
      L1  H    16    18       P1 10175  0.98

> <Gold.Chemscore.Hbond.Weighted>
-9.4536

> <Gold.Chemscore.Metal.Weighted>
-0.0000

> <Gold.Chemscore.Lipo.Weighted>
-10.6988

> <Gold.Chemscore.Internal_Hbond.Weighted>
0.0000

> <Gold.Chemscore.DEClash.Weighted>
1.5041

> <Gold.Chemscore.DEInternal.Weighted>
1.1301

> <Gold.Chemscore.Rot.Weighted>
3.7365

> <Gold.Chemscore.Internal.Correction.Weighted>
   9.000000E+99

> <Gold.Protein.RotatedTorsions>
[ 6907 6896 6895 6894 ] final  -52.52 input  -60.11 | X-H torsion
[ 7974 7965 7964 7962 ] final -140.84 input  175.53 | X-H torsion
[ 8008 7997 7996 7995 ] final  -65.18 input   59.86 | X-H torsion
[ 10167 10162 10161 10158 ] final  -50.97 input  -65.29 | X-H torsion
[ 10718 10713 10712 10709 ] final  110.85 input   66.30 | X-H torsion
[ 10763 10752 10751 10750 ] final  108.50 input  -60.55 | X-H torsion
[ 11005 11000 10999 10996 ] final -145.96 input  -57.11 | X-H torsion

> <Gold.Protein.ActiveResidues>
 VAL166  LYS551  ARG553  GLY616  TRP617  ASP618  TYR619  PRO620  LYS621  CYS622 
 ASP623  PHE694  ASN695  SER759  ASP760  ASP761  ALA762  ILE779  LEU786  VAL792 
 PHE793  MET794  SER795  GLU796  ALA797  LYS798  CYS799  TRP800  GLU811  SER814 

> <Gold.Protein.RotatedAtoms>
  150.8510  134.7834  159.7008 H   0  0  0  0  0  0  0  0  0  0  0  0  # atno 6907 bound_to 6896
  152.4575  134.5256  159.9805 H   0  0  0  0  0  0  0  0  0  0  0  0  # atno 6908 bound_to 6896
  151.5377  133.3400  159.2965 H   0  0  0  0  0  0  0  0  0  0  0  0  # atno 6909 bound_to 6896
  144.8566  140.6152  143.5355 H   0  0  0  0  0  0  0  0  0  0  0  0  # atno 7974 bound_to 7965
  154.4656  140.0938  156.7011 H   0  0  0  0  0  0  0  0  0  0  0  0  # atno 8008 bound_to 7997
  155.4868  140.3469  155.4330 H   0  0  0  0  0  0  0  0  0  0  0  0  # atno 8009 bound_to 7997
  156.0950  140.1407  156.9531 H   0  0  0  0  0  0  0  0  0  0  0  0  # atno 8010 bound_to 7997
  140.6611  143.2637  151.4436 H   0  0  0  0  0  0  0  0  0  0  0  0  # atno 10167 bound_to 10162
  157.6474  131.0940  150.6663 H   0  0  0  0  0  0  0  0  0  0  0  0  # atno 10718 bound_to 10713
  153.4216  135.3810  155.2115 H   0  0  0  0  0  0  0  0  0  0  0  0  # atno 10763 bound_to 10752
  154.8745  135.3818  154.4377 H   0  0  0  0  0  0  0  0  0  0  0  0  # atno 10764 bound_to 10752
  153.4898  135.7088  153.5953 H   0  0  0  0  0  0  0  0  0  0  0  0  # atno 10765 bound_to 10752
  140.7869  134.3014  157.5027 H   0  0  0  0  0  0  0  0  0  0  0  0  # atno 11005 bound_to 11000
  145.4394  139.1538  143.3978 LP  0  0  0  0  0  0  0  0  0  0  0  0  # atno 17320 bound_to 7965
  146.2828  140.4515  142.8770 LP  0  0  0  0  0  0  0  0  0  0  0  0  # atno 17321 bound_to 7965
  139.5846  144.1633  152.2012 LP  0  0  0  0  0  0  0  0  0  0  0  0  # atno 17342 bound_to 10162
  140.0969  144.5573  150.7016 LP  0  0  0  0  0  0  0  0  0  0  0  0  # atno 17343 bound_to 10162
  156.6978  130.4614  149.5581 LP  0  0  0  0  0  0  0  0  0  0  0  0  # atno 17370 bound_to 10713
  156.1816  130.6503  151.0958 LP  0  0  0  0  0  0  0  0  0  0  0  0  # atno 17371 bound_to 10713
  139.8736  134.9351  156.3625 LP  0  0  0  0  0  0  0  0  0  0  0  0  # atno 17394 bound_to 11000
  140.9428  133.7503  156.0169 LP  0  0  0  0  0  0  0  0  0  0  0  0  # atno 17395 bound_to 11000

$$$$
