AV-unprocessed.smi:1644|AV-procd|sdf|6591|dock10
  -GOLD-   22720 7283D 1   1.00000     0.00000
 Structure written by MMmdl.
 50 52  0  0  0  0  0  0  0  0  2 V2000
  147.1726  133.8147  161.8591 C   0  0  0  0  0  0  0  0  0  0  0  0
  146.6540  135.2543  161.7771 C   0  0  0  0  0  0  0  0  0  0  0  0
  147.7326  136.2414  161.2857 C   0  0  0  0  0  0  0  0  0  0  0  0
  148.0837  136.1608  159.7822 C   0  0  1  0  0  0  0  0  0  0  0  0
  147.0582  136.7180  158.9224 N   0  0  0  0  0  0  0  0  0  0  0  0
  147.5215  137.7046  158.1432 C   0  0  0  0  0  0  0  0  0  0  0  0
  146.8573  138.3237  157.3138 O   0  0  0  0  0  0  0  0  0  0  0  0
  148.8240  137.8904  158.4237 N   0  0  0  0  0  0  0  0  0  0  0  0
  149.6795  138.8828  157.7665 C   0  0  0  0  0  0  0  0  0  0  0  0
  150.7852  138.2116  156.9266 C   0  0  1  0  0  0  0  0  0  0  0  0
  150.1820  137.3976  155.9399 O   0  0  0  0  0  0  0  0  0  0  0  0
  151.6751  139.2498  156.2159 C   0  0  0  0  0  0  0  0  0  0  0  0
  151.1936  140.6245  156.3982 N   0  0  0  0  0  0  0  0  0  0  0  0
  150.4085  141.3944  155.5972 C   0  0  0  0  0  0  0  0  0  0  0  0
  150.2516  142.5990  156.2139 N   0  3  0  0  0  0  0  0  0  0  0  0
  150.9485  142.5974  157.4247 C   0  0  0  0  0  0  0  0  0  0  0  0
  151.0926  143.5808  158.3962 C   0  0  0  0  0  0  0  0  0  0  0  0
  151.8804  143.2616  159.5256 C   0  0  0  0  0  0  0  0  0  0  0  0
  152.0591  144.3145  160.6061 C   0  0  0  0  0  0  0  0  0  0  0  0
  152.4941  141.9880  159.6521 C   0  0  0  0  0  0  0  0  0  0  0  0
  153.3431  141.6566  160.8677 C   0  0  0  0  0  0  0  0  0  0  0  0
  152.3325  141.0002  158.6548 C   0  0  0  0  0  0  0  0  0  0  0  0
  151.5540  141.3324  157.5489 C   0  0  0  0  0  0  0  0  0  0  0  0
  149.2504  137.0367  159.3644 C   0  0  0  0  0  0  0  0  0  0  0  0
  150.3876  136.9416  159.8264 O   0  0  0  0  0  0  0  0  0  0  0  0
  146.3928  133.1408  162.2149 H   0  0  0  0  0  0  0  0  0  0  0  0
  148.0162  133.7381  162.5458 H   0  0  0  0  0  0  0  0  0  0  0  0
  147.5005  133.4580  160.8824 H   0  0  0  0  0  0  0  0  0  0  0  0
  145.7922  135.2808  161.1099 H   0  0  0  0  0  0  0  0  0  0  0  0
  146.2917  135.5526  162.7613 H   0  0  0  0  0  0  0  0  0  0  0  0
  147.4188  137.2596  161.5204 H   0  0  0  0  0  0  0  0  0  0  0  0
  148.6452  136.0768  161.8599 H   0  0  0  0  0  0  0  0  0  0  0  0
  148.2827  135.1292  159.4892 H   0  0  0  0  0  0  0  0  0  0  0  0
  146.1071  136.3788  158.9100 H   0  0  0  0  0  0  0  0  0  0  0  0
  149.0958  139.5818  157.1641 H   0  0  0  0  0  0  0  0  0  0  0  0
  150.1320  139.4963  158.5477 H   0  0  0  0  0  0  0  0  0  0  0  0
  151.4104  137.5815  157.5603 H   0  0  0  0  0  0  0  0  0  0  0  0
  150.6374  137.5287  155.1218 H   0  0  0  0  0  0  0  0  0  0  0  0
  152.6982  139.2011  156.5917 H   0  0  0  0  0  0  0  0  0  0  0  0
  151.7280  139.0511  155.1447 H   0  0  0  0  0  0  0  0  0  0  0  0
  149.9903  141.1035  154.6444 H   0  0  0  0  0  0  0  0  0  0  0  0
  150.6236  144.5484  158.2924 H   0  0  0  0  0  0  0  0  0  0  0  0
  151.7048  143.9420  161.5677 H   0  0  0  0  0  0  0  0  0  0  0  0
  151.5009  145.2224  160.3754 H   0  0  0  0  0  0  0  0  0  0  0  0
  153.1105  144.5857  160.7054 H   0  0  0  0  0  0  0  0  0  0  0  0
  153.7631  140.6526  160.7990 H   0  0  0  0  0  0  0  0  0  0  0  0
  152.7443  141.7060  161.7775 H   0  0  0  0  0  0  0  0  0  0  0  0
  154.1726  142.3583  160.9593 H   0  0  0  0  0  0  0  0  0  0  0  0
  152.7987  140.0303  158.7493 H   0  0  0  0  0  0  0  0  0  0  0  0
  149.7098  143.3642  155.8329 H   0  0  0  0  0  0  0  0  0  0  0  0
  1  2  1  0  0  0  0
  1 26  1  0  0  0  0
  1 27  1  0  0  0  0
  1 28  1  0  0  0  0
  2  3  1  0  0  0  0
  2 29  1  0  0  0  0
  2 30  1  0  0  0  0
  3  4  1  0  0  0  0
  3 31  1  0  0  0  0
  3 32  1  0  0  0  0
  4 24  1  0  0  0  0
  4  5  1  0  0  0  0
  4 33  1  0  0  0  0
  5  6  1  0  0  0  0
  5 34  1  0  0  0  0
  6  7  2  0  0  0  0
  6  8  1  0  0  0  0
  8  9  1  0  0  0  0
  8 24  1  0  0  0  0
  9 10  1  0  0  0  0
  9 35  1  0  0  0  0
  9 36  1  0  0  0  0
 10 11  1  0  0  0  0
 10 12  1  0  0  0  0
 10 37  1  0  0  0  0
 11 38  1  0  0  0  0
 12 13  1  0  0  0  0
 12 39  1  0  0  0  0
 12 40  1  0  0  0  0
 13 23  1  0  0  0  0
 13 14  1  0  0  0  0
 14 15  2  0  0  0  0
 14 41  1  0  0  0  0
 15 16  1  0  0  0  0
 15 50  1  0  0  0  0
 16 23  2  0  0  0  0
 16 17  1  0  0  0  0
 17 18  2  0  0  0  0
 17 42  1  0  0  0  0
 18 19  1  0  0  0  0
 18 20  1  0  0  0  0
 19 43  1  0  0  0  0
 19 44  1  0  0  0  0
 19 45  1  0  0  0  0
 20 21  1  0  0  0  0
 20 22  2  0  0  0  0
 21 46  1  0  0  0  0
 21 47  1  0  0  0  0
 21 48  1  0  0  0  0
 22 23  1  0  0  0  0
 22 49  1  0  0  0  0
 24 25  2  0  0  0  0
M  CHG  1  15   1
M  END
> <s_m_source_file>
AV-unprocessed.smi

> <i_m_source_file_index>
1644

> <i_lp_mmshare_version>
43012

> <i_f3d_flags>
0

> <s_epik_input>
W0NIM11bQ0gyXVtDSDJdW0NAQEhdMVtOSF1DKD1PKU4oQzE9TylbQ0gyXVtDQEhdKFtPSF0pW0NIMl1uKFtjSF1uMiljKGMyMylbY0hdYyhbQ0gzXSljKFtjSF0zKVtDSDNd

> <s_epik_cmdline>
J2VwaWtfcHl0aG9uJywgJy1waCcsICc3LjAnLCAnLXRuJywgJzgnLCAnLW1hJywgJzIwMCcsICctbWV0YWxfYmluZGluZycsICctaW1hZScsICc8aW5maWxlLm1hZT4nLCAnLW9tYWUnLCAnPG91dGZpbGUubWFlPic=

> <r_lp_tautomer_probability>
1

> <r_epik_Ionization_Penalty>
1.06742

> <r_epik_Ionization_Penalty_Charging>
1.06736

> <r_epik_Ionization_Penalty_Neutral>
5.56132e-05

> <r_epik_State_Penalty>
1.12163

> <r_epik_Charging_Adjusted_Penalty>
2.18899

> <i_epik_Tot_Q>
1

> <i_epik_Tot_abs_Q>
1

> <r_epik_Metal_State_Penalty>
1.26636

> <b_epik_Metal_Only>
0

> <s_lp_Force_Field>
OPLS_2005

> <r_lp_Energy>
28.3475

> <b_lp_Chiralities_Consistent>
1

> <s_lp_Variant>
AV-unprocessed.smi:1644-8

> <Gold.Version>
5.8.1

> <Gold.Id.Protein>
6NUR|6NUR_protein|mol2

> <Gold.PLP.Fitness>
55.9232

> <Gold.PLP.PLP>
-49.2748

> <Gold.PLP.part.hbond>
-2.4116

> <Gold.PLP.part.metal>
0.0000

> <Gold.PLP.part.buried>
-5.5636

> <Gold.PLP.part.nonpolar>
-41.5074

> <Gold.PLP.part.repulsive>
0.2064

> <Gold.PLP.ligand.clash>
0.0000

> <Gold.PLP.ligand.torsion>
1.2066

> <Gold.PLP.Chemscore.Hbond>
3.0000

> <Gold.PLP.Chemscore.CHOScore>
0.0000

> <Gold.PLP.Chemscore.Metal>
0.0000

> <Gold.Chemscore.Hbonds>
donor molecule, donor type, donor heavy atom, donor atom, acceptor molecule, acceptor atom, score
      L1  H    15    50       P1  8028  2.00
      P1  H  6896  6908       L1    25  1.00

> <Gold.PLP.Chemscore.Internal.Correction>
0.0616

> <Gold.Rescore>
     Score         DG    S(hbond)    S(metal)    S(lipo)     H(rot)  DE(clash)    DE(int)     intcor
     17.75     -18.91       1.98        0.00     119.55       2.80       0.02       1.14       ----

> <Gold.Chemscore.Fitness>
17.7546

> <Gold.Chemscore.DG>
-18.9147

> <Gold.Chemscore.ZeroCoef>
-5.4800

> <Gold.Chemscore.Hbond>
1.9778

> <Gold.Chemscore.Metal>
0.0000

> <Gold.Chemscore.Lipo>
119.5473

> <Gold.Chemscore.Internal_Hbond>
0.0000

> <Gold.Chemscore.DEClash>
0.0191

> <Gold.Chemscore.DEInternal>
1.1411

> <Gold.Chemscore.Rot>
2.7961

> <Gold.Chemscore.Internal.Correction>
   9.000000E+99

> <Gold.Chemscore.Hbonds>
donor molecule, donor type, donor heavy atom, donor atom, acceptor molecule, acceptor atom, score
      L1  H    15    50       P1  8028  0.98
      P1  H  6896  6908       L1    25  0.88

> <Gold.Chemscore.Hbond.Weighted>
-6.6057

> <Gold.Chemscore.Metal.Weighted>
-0.0000

> <Gold.Chemscore.Lipo.Weighted>
-13.9870

> <Gold.Chemscore.Internal_Hbond.Weighted>
0.0000

> <Gold.Chemscore.DEClash.Weighted>
0.0191

> <Gold.Chemscore.DEInternal.Weighted>
1.1411

> <Gold.Chemscore.Rot.Weighted>
7.1580

> <Gold.Chemscore.Internal.Correction.Weighted>
   9.000000E+99

> <Gold.Protein.RotatedTorsions>
[ 6907 6896 6895 6894 ] final -147.47 input  -60.11 | X-H torsion
[ 7974 7965 7964 7962 ] final -150.73 input  175.53 | X-H torsion
[ 8008 7997 7996 7995 ] final   51.06 input   59.86 | X-H torsion
[ 10167 10162 10161 10158 ] final  -67.48 input  -65.29 | X-H torsion
[ 10718 10713 10712 10709 ] final   79.83 input   66.30 | X-H torsion
[ 10763 10752 10751 10750 ] final  -10.32 input  -60.55 | X-H torsion
[ 11005 11000 10999 10996 ] final   11.56 input  -57.11 | X-H torsion

> <Gold.Protein.ActiveResidues>
 VAL166  LYS551  ARG553  GLY616  TRP617  ASP618  TYR619  PRO620  LYS621  CYS622 
 ASP623  PHE694  ASN695  SER759  ASP760  ASP761  ALA762  ILE779  LEU786  VAL792 
 PHE793  MET794  SER795  GLU796  ALA797  LYS798  CYS799  TRP800  GLU811  SER814 

> <Gold.Protein.RotatedAtoms>
  151.1561  133.4875  159.2594 H   0  0  0  0  0  0  0  0  0  0  0  0  # atno 6907 bound_to 6896
  151.1503  135.0223  159.8675 H   0  0  0  0  0  0  0  0  0  0  0  0  # atno 6908 bound_to 6896
  152.5463  134.1446  159.8546 H   0  0  0  0  0  0  0  0  0  0  0  0  # atno 6909 bound_to 6896
  144.7891  140.4893  143.5785 H   0  0  0  0  0  0  0  0  0  0  0  0  # atno 7974 bound_to 7965
  155.4290  140.3450  155.4278 H   0  0  0  0  0  0  0  0  0  0  0  0  # atno 8008 bound_to 7997
  156.1347  140.1524  156.9043 H   0  0  0  0  0  0  0  0  0  0  0  0  # atno 8009 bound_to 7997
  154.4923  140.0838  156.7600 H   0  0  0  0  0  0  0  0  0  0  0  0  # atno 8010 bound_to 7997
  140.5580  143.2312  151.6784 H   0  0  0  0  0  0  0  0  0  0  0  0  # atno 10167 bound_to 10162
  157.6788  130.9932  150.1990 H   0  0  0  0  0  0  0  0  0  0  0  0  # atno 10718 bound_to 10713
  153.4676  135.7016  153.6013 H   0  0  0  0  0  0  0  0  0  0  0  0  # atno 10763 bound_to 10752
  153.4281  135.3809  155.2153 H   0  0  0  0  0  0  0  0  0  0  0  0  # atno 10764 bound_to 10752
  154.8726  135.3944  154.4109 H   0  0  0  0  0  0  0  0  0  0  0  0  # atno 10765 bound_to 10752
  140.5018  134.0738  155.7796 H   0  0  0  0  0  0  0  0  0  0  0  0  # atno 11005 bound_to 11000
  145.5843  139.1491  143.3218 LP  0  0  0  0  0  0  0  0  0  0  0  0  # atno 17320 bound_to 7965
  146.2135  140.5972  142.9049 LP  0  0  0  0  0  0  0  0  0  0  0  0  # atno 17321 bound_to 7965
  139.5057  144.3709  152.0471 LP  0  0  0  0  0  0  0  0  0  0  0  0  # atno 17342 bound_to 10162
  140.2833  144.3835  150.6112 LP  0  0  0  0  0  0  0  0  0  0  0  0  # atno 17343 bound_to 10162
  156.2685  130.3719  149.8056 LP  0  0  0  0  0  0  0  0  0  0  0  0  # atno 17370 bound_to 10713
  156.5780  130.8453  151.3375 LP  0  0  0  0  0  0  0  0  0  0  0  0  # atno 17371 bound_to 10713
  141.1431  133.9103  157.2279 LP  0  0  0  0  0  0  0  0  0  0  0  0  # atno 17394 bound_to 11000
  139.9709  135.0128  156.9508 LP  0  0  0  0  0  0  0  0  0  0  0  0  # atno 17395 bound_to 11000

$$$$
