AV-unprocessed.smi:1679|AV-procd|sdf|6729|dock8
  -GOLD-   22720 7473D 1   1.00000     0.00000
 Structure written by MMmdl.
 45 46  0  0  0  0  0  0  0  0  1 V2000
  151.6239  145.2847  159.8970 C   0  0  0  0  0  0  0  0  0  0  0  0
  151.9033  143.8853  160.4693 C   0  0  2  0  0  0  0  0  0  0  0  0
  152.5324  143.9894  161.8734 C   0  0  0  0  0  0  0  0  0  0  0  0
  152.8316  142.6055  162.4686 C   0  0  0  0  0  0  0  0  0  0  0  0
  153.7357  141.7895  161.5350 C   0  0  0  0  0  0  0  0  0  0  0  0
  153.1128  141.6663  160.1367 C   0  0  0  0  0  0  0  0  0  0  0  0
  152.8007  143.0502  159.5276 C   0  0  1  0  0  0  0  0  0  0  0  0
  152.1031  142.8720  158.3013 O   0  0  0  0  0  0  0  0  0  0  0  0
  150.9901  141.9934  158.3814 C   0  0  0  0  0  0  0  0  0  0  0  0
  150.2810  141.9661  157.0235 C   0  0  0  0  0  0  0  0  0  0  0  0
  148.9677  142.5877  157.1211 N   0  0  0  0  0  0  0  0  0  0  0  0
  147.9036  142.0293  157.7141 C   0  0  0  0  0  0  0  0  0  0  0  0
  147.9364  140.9171  158.2429 O   0  0  0  0  0  0  0  0  0  0  0  0
  146.6106  142.8576  157.6844 C   0  0  0  0  0  0  0  0  0  0  0  0
  146.0653  143.1391  159.0205 N   0  0  0  0  0  0  0  0  0  0  0  0
  146.5720  144.1890  159.7734 C   0  0  0  0  0  0  0  0  0  0  0  0
  146.1146  144.5115  161.0062 C   0  0  0  0  0  0  0  0  0  0  0  0
  145.0334  143.7455  161.6166 C   0  0  0  0  0  0  0  0  0  0  0  0
  144.5526  143.9585  162.7274 O   0  0  0  0  0  0  0  0  0  0  0  0
  144.5474  142.7001  160.8268 N   0  0  0  0  0  0  0  0  0  0  0  0
  145.0132  142.3634  159.5547 C   0  0  0  0  0  0  0  0  0  0  0  0
  144.5099  141.4231  158.9410 O   0  0  0  0  0  0  0  0  0  0  0  0
  143.7955  142.1436  161.2067 H   0  0  0  0  0  0  0  0  0  0  0  0
  152.5473  145.8468  159.7544 H   0  0  0  0  0  0  0  0  0  0  0  0
  150.9842  145.8612  160.5656 H   0  0  0  0  0  0  0  0  0  0  0  0
  151.1181  145.2265  158.9328 H   0  0  0  0  0  0  0  0  0  0  0  0
  150.9463  143.3712  160.5698 H   0  0  0  0  0  0  0  0  0  0  0  0
  153.4554  144.5686  161.8226 H   0  0  0  0  0  0  0  0  0  0  0  0
  151.8642  144.5343  162.5412 H   0  0  0  0  0  0  0  0  0  0  0  0
  153.3057  142.7144  163.4445 H   0  0  0  0  0  0  0  0  0  0  0  0
  151.8970  142.0683  162.6359 H   0  0  0  0  0  0  0  0  0  0  0  0
  154.7139  142.2663  161.4609 H   0  0  0  0  0  0  0  0  0  0  0  0
  153.9052  140.7978  161.9553 H   0  0  0  0  0  0  0  0  0  0  0  0
  153.7889  141.1061  159.4914 H   0  0  0  0  0  0  0  0  0  0  0  0
  152.1945  141.0807  160.2009 H   0  0  0  0  0  0  0  0  0  0  0  0
  153.7306  143.5974  159.3601 H   0  0  0  0  0  0  0  0  0  0  0  0
  151.3383  140.9912  158.6345 H   0  0  0  0  0  0  0  0  0  0  0  0
  150.2930  142.3026  159.1607 H   0  0  0  0  0  0  0  0  0  0  0  0
  150.8822  142.4821  156.2733 H   0  0  0  0  0  0  0  0  0  0  0  0
  150.1645  140.9335  156.6908 H   0  0  0  0  0  0  0  0  0  0  0  0
  148.8590  143.4988  156.6998 H   0  0  0  0  0  0  0  0  0  0  0  0
  146.7915  143.7882  157.1427 H   0  0  0  0  0  0  0  0  0  0  0  0
  145.8737  142.3181  157.0873 H   0  0  0  0  0  0  0  0  0  0  0  0
  147.3715  144.7865  159.3589 H   0  0  0  0  0  0  0  0  0  0  0  0
  146.5510  145.3412  161.5432 H   0  0  0  0  0  0  0  0  0  0  0  0
  1  2  1  0  0  0  0
  1 24  1  0  0  0  0
  1 25  1  0  0  0  0
  1 26  1  0  0  0  0
  2  7  1  0  0  0  0
  2  3  1  0  0  0  0
  2 27  1  0  0  0  0
  3  4  1  0  0  0  0
  3 28  1  0  0  0  0
  3 29  1  0  0  0  0
  4  5  1  0  0  0  0
  4 30  1  0  0  0  0
  4 31  1  0  0  0  0
  5  6  1  0  0  0  0
  5 32  1  0  0  0  0
  5 33  1  0  0  0  0
  6  7  1  0  0  0  0
  6 34  1  0  0  0  0
  6 35  1  0  0  0  0
  7  8  1  0  0  0  0
  7 36  1  0  0  0  0
  8  9  1  0  0  0  0
  9 10  1  0  0  0  0
  9 37  1  0  0  0  0
  9 38  1  0  0  0  0
 10 11  1  0  0  0  0
 10 39  1  0  0  0  0
 10 40  1  0  0  0  0
 11 12  1  0  0  0  0
 11 41  1  0  0  0  0
 12 13  2  0  0  0  0
 12 14  1  0  0  0  0
 14 15  1  0  0  0  0
 14 42  1  0  0  0  0
 14 43  1  0  0  0  0
 15 21  1  0  0  0  0
 15 16  1  0  0  0  0
 16 17  2  0  0  0  0
 16 44  1  0  0  0  0
 17 18  1  0  0  0  0
 17 45  1  0  0  0  0
 18 19  2  0  0  0  0
 18 20  1  0  0  0  0
 20 23  1  0  0  0  0
 20 21  1  0  0  0  0
 21 22  2  0  0  0  0
M  END
> <s_m_source_file>
AV-unprocessed.smi

> <i_m_source_file_index>
1679

> <i_lp_mmshare_version>
43012

> <i_f3d_flags>
0

> <s_epik_input>
W0NIM11bQ0BASF0xW0NIMl1bQ0gyXVtDSDJdW0NIMl1bQ0BIXTFPW0NIMl1bQ0gyXVtOSF1DKD1PKVtDSDJdbjJbY0hdW2NIXWMoPU8pW25IXWMyPU8=

> <s_epik_cmdline>
J2VwaWtfcHl0aG9uJywgJy1waCcsICc3LjAnLCAnLXRuJywgJzgnLCAnLW1hJywgJzIwMCcsICctbWV0YWxfYmluZGluZycsICctaW1hZScsICc8aW5maWxlLm1hZT4nLCAnLW9tYWUnLCAnPG91dGZpbGUubWFlPic=

> <r_lp_tautomer_probability>
0.999537

> <r_epik_Ionization_Penalty>
0.0033132

> <r_epik_Ionization_Penalty_Charging>
0.00331317

> <r_epik_Ionization_Penalty_Neutral>
2.78599e-08

> <r_epik_State_Penalty>
0.002342

> <r_epik_Charging_Adjusted_Penalty>
0.00565517

> <i_epik_Tot_Q>
0

> <i_epik_Tot_abs_Q>
0

> <r_epik_Metal_State_Penalty>
0.365595

> <b_epik_Metal_Only>
0

> <s_lp_Force_Field>
OPLS_2005

> <r_lp_Energy>
12.8009

> <b_lp_Chiralities_Consistent>
1

> <s_lp_Variant>
AV-unprocessed.smi:1679-1

> <Gold.Version>
5.8.1

> <Gold.Id.Protein>
6NUR|6NUR_protein|mol2

> <Gold.PLP.Fitness>
51.2142

> <Gold.PLP.PLP>
-46.7691

> <Gold.PLP.part.hbond>
-2.0000

> <Gold.PLP.part.metal>
0.0000

> <Gold.PLP.part.buried>
-8.0485

> <Gold.PLP.part.nonpolar>
-36.9357

> <Gold.PLP.part.repulsive>
0.3120

> <Gold.PLP.ligand.clash>
0.0000

> <Gold.PLP.ligand.torsion>
0.8119

> <Gold.PLP.Chemscore.Hbond>
1.0000

> <Gold.PLP.Chemscore.CHOScore>
1.0000

> <Gold.PLP.Chemscore.Metal>
0.0000

> <Gold.Chemscore.Hbonds>
donor molecule, donor type, donor heavy atom, donor atom, acceptor molecule, acceptor atom, score
      L1  H    11    41       P1  8028  1.00
      L1  C    16    44       P1  8029  1.00

> <Gold.PLP.Chemscore.Internal.Correction>
0.0688

> <Gold.Rescore>
     Score         DG    S(hbond)    S(metal)    S(lipo)     H(rot)  DE(clash)    DE(int)     intcor
     13.76     -14.54       0.99        0.00     104.17       2.52       0.01       0.77       ----

> <Gold.Chemscore.Fitness>
13.7580

> <Gold.Chemscore.DG>
-14.5418

> <Gold.Chemscore.ZeroCoef>
-5.4800

> <Gold.Chemscore.Hbond>
0.9943

> <Gold.Chemscore.Metal>
0.0000

> <Gold.Chemscore.Lipo>
104.1728

> <Gold.Chemscore.Internal_Hbond>
0.0000

> <Gold.Chemscore.DEClash>
0.0111

> <Gold.Chemscore.DEInternal>
0.7726

> <Gold.Chemscore.Rot>
2.5185

> <Gold.Chemscore.Internal.Correction>
   9.000000E+99

> <Gold.Chemscore.Hbonds>
donor molecule, donor type, donor heavy atom, donor atom, acceptor molecule, acceptor atom, score
      L1  H    11    41       P1  8028  0.73

> <Gold.Chemscore.Hbond.Weighted>
-3.3208

> <Gold.Chemscore.Metal.Weighted>
-0.0000

> <Gold.Chemscore.Lipo.Weighted>
-12.1882

> <Gold.Chemscore.Internal_Hbond.Weighted>
0.0000

> <Gold.Chemscore.DEClash.Weighted>
0.0111

> <Gold.Chemscore.DEInternal.Weighted>
0.7726

> <Gold.Chemscore.Rot.Weighted>
6.4472

> <Gold.Chemscore.Internal.Correction.Weighted>
   9.000000E+99

> <Gold.Protein.RotatedTorsions>
[ 6907 6896 6895 6894 ] final  133.80 input  -60.11 | X-H torsion
[ 7974 7965 7964 7962 ] final  -15.44 input  175.53 | X-H torsion
[ 8008 7997 7996 7995 ] final -156.28 input   59.86 | X-H torsion
[ 10167 10162 10161 10158 ] final  123.95 input  -65.29 | X-H torsion
[ 10718 10713 10712 10709 ] final -118.29 input   66.30 | X-H torsion
[ 10763 10752 10751 10750 ] final   42.31 input  -60.55 | X-H torsion
[ 11005 11000 10999 10996 ] final   94.21 input  -57.11 | X-H torsion

> <Gold.Protein.ActiveResidues>
 VAL166  LYS551  ARG553  GLY616  TRP617  ASP618  TYR619  PRO620  LYS621  CYS622 
 ASP623  PHE694  ASN695  SER759  ASP760  ASP761  ALA762  ILE779  LEU786  VAL792 
 PHE793  MET794  SER795  GLU796  ALA797  LYS798  CYS799  TRP800  GLU811  SER814 

> <Gold.Protein.RotatedAtoms>
  152.3181  133.5824  159.5725 H   0  0  0  0  0  0  0  0  0  0  0  0  # atno 6907 bound_to 6896
  150.7357  134.0053  159.3660 H   0  0  0  0  0  0  0  0  0  0  0  0  # atno 6908 bound_to 6896
  151.7939  135.0728  160.0442 H   0  0  0  0  0  0  0  0  0  0  0  0  # atno 6909 bound_to 6896
  146.2032  140.3493  142.8416 H   0  0  0  0  0  0  0  0  0  0  0  0  # atno 7974 bound_to 7965
  155.7147  140.0782  157.2356 H   0  0  0  0  0  0  0  0  0  0  0  0  # atno 8008 bound_to 7997
  154.4053  140.1623  156.2389 H   0  0  0  0  0  0  0  0  0  0  0  0  # atno 8009 bound_to 7997
  155.9251  140.3395  155.6206 H   0  0  0  0  0  0  0  0  0  0  0  0  # atno 8010 bound_to 7997
  139.5770  144.6968  151.3628 H   0  0  0  0  0  0  0  0  0  0  0  0  # atno 10167 bound_to 10162
  156.1095  130.6238  150.9272 H   0  0  0  0  0  0  0  0  0  0  0  0  # atno 10718 bound_to 10713
  152.9886  135.6136  154.2928 H   0  0  0  0  0  0  0  0  0  0  0  0  # atno 10763 bound_to 10752
  154.2652  135.2781  155.2763 H   0  0  0  0  0  0  0  0  0  0  0  0  # atno 10764 bound_to 10752
  154.5170  135.5825  153.6707 H   0  0  0  0  0  0  0  0  0  0  0  0  # atno 10765 bound_to 10752
  139.8801  134.8833  156.3831 H   0  0  0  0  0  0  0  0  0  0  0  0  # atno 11005 bound_to 11000
  144.8730  140.7298  143.6035 LP  0  0  0  0  0  0  0  0  0  0  0  0  # atno 17320 bound_to 7965
  145.3413  139.1731  143.4484 LP  0  0  0  0  0  0  0  0  0  0  0  0  # atno 17321 bound_to 7965
  140.7051  143.7533  150.7469 LP  0  0  0  0  0  0  0  0  0  0  0  0  # atno 17342 bound_to 10162
  140.1055  143.4747  152.2400 LP  0  0  0  0  0  0  0  0  0  0  0  0  # atno 17343 bound_to 10162
  157.6275  131.0924  150.8505 LP  0  0  0  0  0  0  0  0  0  0  0  0  # atno 17370 bound_to 10713
  156.8618  130.5115  149.5303 LP  0  0  0  0  0  0  0  0  0  0  0  0  # atno 17371 bound_to 10713
  140.9385  133.7531  156.0115 LP  0  0  0  0  0  0  0  0  0  0  0  0  # atno 17394 bound_to 11000
  140.8248  134.3247  157.5369 LP  0  0  0  0  0  0  0  0  0  0  0  0  # atno 17395 bound_to 11000

$$$$
