AV-unprocessed.smi:560|AV-procd|sdf|2926|dock3
  -GOLD-   2262023413D 1   1.00000     0.00000
 Structure written by MMmdl.
 41 42  0  0  0  0  0  0  0  0  1 V2000
  154.2804  141.6227  160.1707 C   0  0  0  0  0  0  0  0  0  0  0  0
  152.7676  141.9249  160.1829 C   0  0  2  0  0  0  0  0  0  0  0  0
  151.9849  141.0196  159.2202 C   0  0  0  0  0  0  0  0  0  0  0  0
  152.1608  139.8006  159.2225 O   0  0  0  0  0  0  0  0  0  0  0  0
  151.1294  141.6367  158.3900 N   0  0  0  0  0  0  0  0  0  0  0  0
  150.3247  140.9787  157.3657 C   0  0  0  0  0  0  0  0  0  0  0  0
  150.7423  141.4524  155.9643 C   0  0  0  0  0  0  0  0  0  0  0  0
  149.8046  140.8951  154.8788 C   0  0  0  0  0  0  0  0  0  0  0  0
  148.4121  141.2828  155.1491 N   0  0  0  0  0  0  0  0  0  0  0  0
  147.4801  140.8355  154.0889 C   0  0  0  0  0  0  0  0  0  0  0  0
  147.4520  139.3182  153.8675 C   0  0  0  0  0  0  0  0  0  0  0  0
  147.9743  138.8576  152.7283 N   0  0  0  0  0  0  0  0  0  0  0  0
  146.9597  138.5735  154.7126 O   0  0  0  0  0  0  0  0  0  0  0  0
  147.9772  140.7378  156.4392 C   0  0  0  0  0  0  0  0  0  0  0  0
  148.8398  141.3019  157.5815 C   0  0  0  0  0  0  0  0  0  0  0  0
  152.4684  143.3255  159.9030 N   0  0  0  0  0  0  0  0  0  0  0  0
  151.9293  144.2627  160.7618 C   0  0  0  0  0  0  0  0  0  0  0  0
  151.7767  145.4246  160.0614 C   0  0  0  0  0  0  0  0  0  0  0  0
  152.2404  145.0958  158.7577 C   0  0  0  0  0  0  0  0  0  0  0  0
  152.6417  143.8393  158.6625 N   0  0  0  0  0  0  0  0  0  0  0  0
  154.4739  140.5851  160.4449 H   0  0  0  0  0  0  0  0  0  0  0  0
  154.8078  142.2528  160.8872 H   0  0  0  0  0  0  0  0  0  0  0  0
  154.7281  141.7919  159.1906 H   0  0  0  0  0  0  0  0  0  0  0  0
  152.4110  141.7215  161.1942 H   0  0  0  0  0  0  0  0  0  0  0  0
  151.0463  142.6408  158.4569 H   0  0  0  0  0  0  0  0  0  0  0  0
  150.4550  139.8968  157.4335 H   0  0  0  0  0  0  0  0  0  0  0  0
  150.7332  142.5428  155.9221 H   0  0  0  0  0  0  0  0  0  0  0  0
  151.7677  141.1453  155.7551 H   0  0  0  0  0  0  0  0  0  0  0  0
  150.1382  141.2829  153.9164 H   0  0  0  0  0  0  0  0  0  0  0  0
  149.8892  139.8081  154.8268 H   0  0  0  0  0  0  0  0  0  0  0  0
  146.4734  141.1971  154.3084 H   0  0  0  0  0  0  0  0  0  0  0  0
  147.7700  141.2871  153.1389 H   0  0  0  0  0  0  0  0  0  0  0  0
  147.9796  137.8659  152.5397 H   0  0  0  0  0  0  0  0  0  0  0  0
  148.3644  139.5056  152.0594 H   0  0  0  0  0  0  0  0  0  0  0  0
  146.9355  141.0053  156.6216 H   0  0  0  0  0  0  0  0  0  0  0  0
  148.0270  139.6473  156.4293 H   0  0  0  0  0  0  0  0  0  0  0  0
  148.5037  140.8919  158.5346 H   0  0  0  0  0  0  0  0  0  0  0  0
  148.6960  142.3820  157.6418 H   0  0  0  0  0  0  0  0  0  0  0  0
  151.7004  144.0260  161.7904 H   0  0  0  0  0  0  0  0  0  0  0  0
  151.3870  146.3645  160.4229 H   0  0  0  0  0  0  0  0  0  0  0  0
  152.2913  145.7263  157.8826 H   0  0  0  0  0  0  0  0  0  0  0  0
  1  2  1  0  0  0  0
  1 21  1  0  0  0  0
  1 22  1  0  0  0  0
  1 23  1  0  0  0  0
  2  3  1  0  0  0  0
  2 16  1  0  0  0  0
  2 24  1  0  0  0  0
  3  4  2  0  0  0  0
  3  5  1  0  0  0  0
  5  6  1  0  0  0  0
  5 25  1  0  0  0  0
  6 15  1  0  0  0  0
  6  7  1  0  0  0  0
  6 26  1  0  0  0  0
  7  8  1  0  0  0  0
  7 27  1  0  0  0  0
  7 28  1  0  0  0  0
  8  9  1  0  0  0  0
  8 29  1  0  0  0  0
  8 30  1  0  0  0  0
  9 10  1  0  0  0  0
  9 14  1  0  0  0  0
 10 11  1  0  0  0  0
 10 31  1  0  0  0  0
 10 32  1  0  0  0  0
 11 12  1  0  0  0  0
 11 13  2  0  0  0  0
 12 33  1  0  0  0  0
 12 34  1  0  0  0  0
 14 15  1  0  0  0  0
 14 35  1  0  0  0  0
 14 36  1  0  0  0  0
 15 37  1  0  0  0  0
 15 38  1  0  0  0  0
 16 20  1  0  0  0  0
 16 17  1  0  0  0  0
 17 18  2  0  0  0  0
 17 39  1  0  0  0  0
 18 19  1  0  0  0  0
 18 40  1  0  0  0  0
 19 20  2  0  0  0  0
 19 41  1  0  0  0  0
M  END
> <s_m_source_file>
AV-unprocessed.smi

> <i_m_source_file_index>
560

> <i_lp_mmshare_version>
43012

> <i_f3d_flags>
0

> <s_epik_input>
bjFbY0hdW2NIXVtjSF1uMVtDQEhdKFtDSDNdKUMoPU8pW05IXVtDSF0yW0NIMl1bQ0gyXU4oW0NIMl1bQ0gyXTIpW0NIMl1DKD1PKVtOSDJd

> <s_epik_cmdline>
J2VwaWtfcHl0aG9uJywgJy1waCcsICc3LjAnLCAnLXRuJywgJzgnLCAnLW1hJywgJzIwMCcsICctbWV0YWxfYmluZGluZycsICctaW1hZScsICc8aW5maWxlLm1hZT4nLCAnLW9tYWUnLCAnPG91dGZpbGUubWFlPic=

> <r_lp_tautomer_probability>
1

> <r_epik_Ionization_Penalty>
0.114724

> <r_epik_Ionization_Penalty_Charging>
0

> <r_epik_Ionization_Penalty_Neutral>
0.114724

> <r_epik_State_Penalty>
0.104339

> <r_epik_Charging_Adjusted_Penalty>
0.104339

> <i_epik_Tot_Q>
0

> <i_epik_Tot_abs_Q>
0

> <r_epik_Metal_State_Penalty>
0.117437

> <b_epik_Metal_Only>
0

> <s_lp_Force_Field>
OPLS_2005

> <r_lp_Energy>
15.4208

> <b_lp_Chiralities_Consistent>
1

> <s_lp_Variant>
AV-unprocessed.smi:560-1

> <Gold.Version>
5.8.1

> <Gold.Id.Protein>
6NUR|6NUR_protein|mol2

> <Gold.PLP.Fitness>
48.4963

> <Gold.PLP.PLP>
-43.0556

> <Gold.PLP.part.hbond>
-1.9137

> <Gold.PLP.part.metal>
0.0000

> <Gold.PLP.part.buried>
-7.1596

> <Gold.PLP.part.nonpolar>
-34.4056

> <Gold.PLP.part.repulsive>
0.3737

> <Gold.PLP.ligand.clash>
0.0000

> <Gold.PLP.ligand.torsion>
0.3426

> <Gold.PLP.Chemscore.Hbond>
1.9920

> <Gold.PLP.Chemscore.CHOScore>
0.0000

> <Gold.PLP.Chemscore.Metal>
0.0000

> <Gold.Chemscore.Hbonds>
donor molecule, donor type, donor heavy atom, donor atom, acceptor molecule, acceptor atom, score
      L1  H    12    33       P1  7948  0.96
      L1  H    12    34       P1  7957  1.00

> <Gold.PLP.Chemscore.Internal.Correction>
0.1498

> <Gold.Rescore>
     Score         DG    S(hbond)    S(metal)    S(lipo)     H(rot)  DE(clash)    DE(int)     intcor
     14.22     -16.08       1.96        0.00      88.90       2.48       0.01       1.86       ----

> <Gold.Chemscore.Fitness>
14.2152

> <Gold.Chemscore.DG>
-16.0771

> <Gold.Chemscore.ZeroCoef>
-5.4800

> <Gold.Chemscore.Hbond>
1.9572

> <Gold.Chemscore.Metal>
0.0000

> <Gold.Chemscore.Lipo>
88.8963

> <Gold.Chemscore.Internal_Hbond>
0.0000

> <Gold.Chemscore.DEClash>
0.0060

> <Gold.Chemscore.DEInternal>
1.8559

> <Gold.Chemscore.Rot>
2.4768

> <Gold.Chemscore.Internal.Correction>
   9.000000E+99

> <Gold.Chemscore.Hbonds>
donor molecule, donor type, donor heavy atom, donor atom, acceptor molecule, acceptor atom, score
      L1  H    12    33       P1  7948  0.89
      L1  H    12    34       P1  7957  0.94

> <Gold.Chemscore.Hbond.Weighted>
-6.5369

> <Gold.Chemscore.Metal.Weighted>
-0.0000

> <Gold.Chemscore.Lipo.Weighted>
-10.4009

> <Gold.Chemscore.Internal_Hbond.Weighted>
0.0000

> <Gold.Chemscore.DEClash.Weighted>
0.0060

> <Gold.Chemscore.DEInternal.Weighted>
1.8559

> <Gold.Chemscore.Rot.Weighted>
6.3406

> <Gold.Chemscore.Internal.Correction.Weighted>
   9.000000E+99

> <Gold.Protein.RotatedTorsions>
[ 6907 6896 6895 6894 ] final   43.78 input  -60.11 | X-H torsion
[ 7974 7965 7964 7962 ] final  -21.00 input  175.53 | X-H torsion
[ 8008 7997 7996 7995 ] final -100.15 input   59.86 | X-H torsion
[ 10167 10162 10161 10158 ] final   56.92 input  -65.29 | X-H torsion
[ 10718 10713 10712 10709 ] final   21.89 input   66.30 | X-H torsion
[ 10763 10752 10751 10750 ] final  -90.26 input  -60.55 | X-H torsion
[ 11005 11000 10999 10996 ] final -159.12 input  -57.11 | X-H torsion

> <Gold.Protein.ActiveResidues>
 VAL166  LYS551  ARG553  GLY616  TRP617  ASP618  TYR619  PRO620  LYS621  CYS622 
 ASP623  PHE694  ASN695  SER759  ASP760  ASP761  ALA762  ILE779  LEU786  VAL792 
 PHE793  MET794  SER795  GLU796  ALA797  LYS798  CYS799  TRP800  GLU811  SER814 

> <Gold.Protein.RotatedAtoms>
  152.2245  134.8381  160.0481 H   0  0  0  0  0  0  0  0  0  0  0  0  # atno 6907 bound_to 6896
  151.9152  133.3566  159.3886 H   0  0  0  0  0  0  0  0  0  0  0  0  # atno 6908 bound_to 6896
  150.7009  134.4616  159.5427 H   0  0  0  0  0  0  0  0  0  0  0  0  # atno 6909 bound_to 6896
  146.1757  140.4280  142.8514 H   0  0  0  0  0  0  0  0  0  0  0  0  # atno 7974 bound_to 7965
  154.8247  140.0443  157.1435 H   0  0  0  0  0  0  0  0  0  0  0  0  # atno 8008 bound_to 7997
  154.9220  140.3028  155.5191 H   0  0  0  0  0  0  0  0  0  0  0  0  # atno 8009 bound_to 7997
  156.2983  140.2339  156.4271 H   0  0  0  0  0  0  0  0  0  0  0  0  # atno 8010 bound_to 7997
  140.2036  144.3962  150.6518 H   0  0  0  0  0  0  0  0  0  0  0  0  # atno 10167 bound_to 10162
  157.1447  130.6648  149.5992 H   0  0  0  0  0  0  0  0  0  0  0  0  # atno 10718 bound_to 10713
  154.6639  135.5311  153.8053 H   0  0  0  0  0  0  0  0  0  0  0  0  # atno 10763 bound_to 10752
  153.0459  135.6512  154.0829 H   0  0  0  0  0  0  0  0  0  0  0  0  # atno 10764 bound_to 10752
  154.0735  135.2952  155.3283 H   0  0  0  0  0  0  0  0  0  0  0  0  # atno 10765 bound_to 10752
  140.6460  134.4500  157.5234 H   0  0  0  0  0  0  0  0  0  0  0  0  # atno 11005 bound_to 11000
  144.8233  140.6586  143.6338 LP  0  0  0  0  0  0  0  0  0  0  0  0  # atno 17320 bound_to 7965
  145.4217  139.1563  143.4070 LP  0  0  0  0  0  0  0  0  0  0  0  0  # atno 17321 bound_to 7965
  140.6373  143.2197  151.6367 LP  0  0  0  0  0  0  0  0  0  0  0  0  # atno 17342 bound_to 10162
  139.5207  144.3214  152.0907 LP  0  0  0  0  0  0  0  0  0  0  0  0  # atno 17343 bound_to 10162
  155.9782  130.4765  150.6639 LP  0  0  0  0  0  0  0  0  0  0  0  0  # atno 17370 bound_to 10713
  157.4275  131.0845  151.1071 LP  0  0  0  0  0  0  0  0  0  0  0  0  # atno 17371 bound_to 10713
  139.9063  134.8443  156.1696 LP  0  0  0  0  0  0  0  0  0  0  0  0  # atno 17394 bound_to 11000
  141.0571  133.6859  156.1882 LP  0  0  0  0  0  0  0  0  0  0  0  0  # atno 17395 bound_to 11000

$$$$
