AV-unprocessed.smi:2091|AV-procd|sdf|8541|dock7
  -GOLD-   2272011263D 1   1.00000     0.00000
 Structure written by MMmdl.
 35 36  0  0  0  0  0  0  0  0  2 V2000
  152.6073  139.8797  156.9349 O   0  0  0  0  0  0  0  0  0  0  0  0
  151.9449  139.3812  157.8461 C   0  0  0  0  0  0  0  0  0  0  0  0
  151.7900  137.8589  157.9600 C   0  0  0  0  0  0  0  0  0  0  0  0
  152.7980  137.2435  158.8385 N   0  0  0  0  0  0  0  0  0  0  0  0
  152.8122  137.6305  160.1902 C   0  0  0  0  0  0  0  0  0  0  0  0
  153.6980  137.1194  161.0663 C   0  0  0  0  0  0  0  0  0  0  0  0
  154.6610  136.1383  160.5814 C   0  0  0  0  0  0  0  0  0  0  0  0
  155.4732  135.6565  161.3688 O   0  0  0  0  0  0  0  0  0  0  0  0
  154.6111  135.7997  159.2598 N   0  5  0  0  0  0  0  0  0  0  0  0
  153.7062  136.3302  158.3794 C   0  0  0  0  0  0  0  0  0  0  0  0
  153.6802  136.0126  157.1897 O   0  0  0  0  0  0  0  0  0  0  0  0
  151.3466  140.1076  158.8035 N   0  0  0  0  0  0  0  0  0  0  0  0
  151.3760  141.5682  158.9073 C   0  0  1  0  0  0  0  0  0  0  0  0
  152.8481  141.9902  159.1191 C   0  0  0  0  0  0  0  0  0  0  0  0
  153.0104  143.3750  159.7699 C   0  0  0  0  0  0  0  0  0  0  0  0
  152.5060  144.5533  158.9232 C   0  0  0  0  0  0  0  0  0  0  0  0
  150.9969  144.5031  158.6302 C   0  0  0  0  0  0  0  0  0  0  0  0
  150.6748  143.5519  157.5743 N   0  0  0  0  0  0  0  0  0  0  0  0
  150.8425  142.2210  157.6103 C   0  0  0  0  0  0  0  0  0  0  0  0
  150.5792  141.5353  156.6224 O   0  0  0  0  0  0  0  0  0  0  0  0
  150.7846  137.6488  158.3270 H   0  0  0  0  0  0  0  0  0  0  0  0
  151.8324  137.4058  156.9675 H   0  0  0  0  0  0  0  0  0  0  0  0
  152.0709  138.3657  160.4661 H   0  0  0  0  0  0  0  0  0  0  0  0
  153.6974  137.4294  162.1007 H   0  0  0  0  0  0  0  0  0  0  0  0
  150.8336  139.6121  159.5178 H   0  0  0  0  0  0  0  0  0  0  0  0
  150.7698  141.8767  159.7609 H   0  0  0  0  0  0  0  0  0  0  0  0
  153.3320  141.2702  159.7809 H   0  0  0  0  0  0  0  0  0  0  0  0
  153.4069  141.9450  158.1825 H   0  0  0  0  0  0  0  0  0  0  0  0
  152.5058  143.3810  160.7369 H   0  0  0  0  0  0  0  0  0  0  0  0
  154.0670  143.5339  159.9872 H   0  0  0  0  0  0  0  0  0  0  0  0
  152.7215  145.4748  159.4652 H   0  0  0  0  0  0  0  0  0  0  0  0
  153.0690  144.6170  157.9911 H   0  0  0  0  0  0  0  0  0  0  0  0
  150.4250  144.2822  159.5326 H   0  0  0  0  0  0  0  0  0  0  0  0
  150.6655  145.4841  158.2896 H   0  0  0  0  0  0  0  0  0  0  0  0
  150.3141  143.9444  156.7167 H   0  0  0  0  0  0  0  0  0  0  0  0
  1  2  2  0  0  0  0
  2  3  1  0  0  0  0
  2 12  1  0  0  0  0
  3  4  1  0  0  0  0
  3 21  1  0  0  0  0
  3 22  1  0  0  0  0
  4 10  1  0  0  0  0
  4  5  1  0  0  0  0
  5  6  2  0  0  0  0
  5 23  1  0  0  0  0
  6  7  1  0  0  0  0
  6 24  1  0  0  0  0
  7  8  2  0  0  0  0
  7  9  1  0  0  0  0
  9 10  1  0  0  0  0
 10 11  2  0  0  0  0
 12 13  1  0  0  0  0
 12 25  1  0  0  0  0
 13 19  1  0  0  0  0
 13 14  1  0  0  0  0
 13 26  1  0  0  0  0
 14 15  1  0  0  0  0
 14 27  1  0  0  0  0
 14 28  1  0  0  0  0
 15 16  1  0  0  0  0
 15 29  1  0  0  0  0
 15 30  1  0  0  0  0
 16 17  1  0  0  0  0
 16 31  1  0  0  0  0
 16 32  1  0  0  0  0
 17 18  1  0  0  0  0
 17 33  1  0  0  0  0
 17 34  1  0  0  0  0
 18 19  1  0  0  0  0
 18 35  1  0  0  0  0
 19 20  2  0  0  0  0
M  CHG  1   9  -1
M  END
> <s_m_source_file>
AV-unprocessed.smi

> <i_m_source_file_index>
2091

> <i_lp_mmshare_version>
43012

> <i_f3d_flags>
0

> <s_epik_input>
Tz1jMVtuSF1jKD1PKVtjSF1bY0hdbjFbQ0gyXUMoPU8pW05IXVtDQEBIXTJbQ0gyXVtDSDJdW0NIMl1bQ0gyXVtOSF1DMj1P

> <s_epik_cmdline>
J2VwaWtfcHl0aG9uJywgJy1waCcsICc3LjAnLCAnLXRuJywgJzgnLCAnLW1hJywgJzIwMCcsICctbWV0YWxfYmluZGluZycsICctaW1hZScsICc8aW5maWxlLm1hZT4nLCAnLW9tYWUnLCAnPG91dGZpbGUubWFlPic=

> <r_lp_tautomer_probability>
0.999537

> <r_epik_Ionization_Penalty>
3.03155

> <r_epik_Ionization_Penalty_Charging>
2.38195e-08

> <r_epik_Ionization_Penalty_Neutral>
3.03155

> <r_epik_State_Penalty>
3.03052

> <r_epik_Charging_Adjusted_Penalty>
3.03052

> <i_epik_Tot_Q>
-1

> <i_epik_Tot_abs_Q>
1

> <r_epik_Metal_State_Penalty>
0.455936

> <b_epik_Metal_Only>
1

> <s_lp_Force_Field>
OPLS_2005

> <r_lp_Energy>
21.0556

> <b_lp_Chiralities_Consistent>
1

> <s_lp_Variant>
AV-unprocessed.smi:2091-4

> <Gold.Version>
5.8.1

> <Gold.Id.Protein>
6NUR|6NUR_protein|mol2

> <Gold.PLP.Fitness>
41.0553

> <Gold.PLP.PLP>
-32.8290

> <Gold.PLP.part.hbond>
-3.0000

> <Gold.PLP.part.metal>
0.0000

> <Gold.PLP.part.buried>
-5.0580

> <Gold.PLP.part.nonpolar>
-25.2358

> <Gold.PLP.part.repulsive>
0.2318

> <Gold.PLP.ligand.clash>
0.0000

> <Gold.PLP.ligand.torsion>
0.3759

> <Gold.PLP.Chemscore.Hbond>
2.9920

> <Gold.PLP.Chemscore.CHOScore>
0.0000

> <Gold.PLP.Chemscore.Metal>
0.0000

> <Gold.Chemscore.Hbonds>
donor molecule, donor type, donor heavy atom, donor atom, acceptor molecule, acceptor atom, score
      L1  H    18    35       P1  8028  1.00
      P1  H  7997  8010       L1     1  1.00
      P1  H 10752 10764       L1    11  1.00

> <Gold.PLP.Chemscore.Internal.Correction>
0.0021

> <Gold.Rescore>
     Score         DG    S(hbond)    S(metal)    S(lipo)     H(rot)  DE(clash)    DE(int)     intcor
     16.23     -19.22       2.98        0.00      72.91       1.85       0.30       2.69       ----

> <Gold.Chemscore.Fitness>
16.2272

> <Gold.Chemscore.DG>
-19.2202

> <Gold.Chemscore.ZeroCoef>
-5.4800

> <Gold.Chemscore.Hbond>
2.9792

> <Gold.Chemscore.Metal>
0.0000

> <Gold.Chemscore.Lipo>
72.9101

> <Gold.Chemscore.Internal_Hbond>
0.0000

> <Gold.Chemscore.DEClash>
0.2987

> <Gold.Chemscore.DEInternal>
2.6943

> <Gold.Chemscore.Rot>
1.8519

> <Gold.Chemscore.Internal.Correction>
   9.000000E+99

> <Gold.Chemscore.Hbonds>
donor molecule, donor type, donor heavy atom, donor atom, acceptor molecule, acceptor atom, score
      L1  H    18    35       P1  8028  0.96
      P1  H  7997  8010       L1     1  1.00
      P1  H 10752 10764       L1    11  1.00

> <Gold.Chemscore.Hbond.Weighted>
-9.9506

> <Gold.Chemscore.Metal.Weighted>
-0.0000

> <Gold.Chemscore.Lipo.Weighted>
-8.5305

> <Gold.Chemscore.Internal_Hbond.Weighted>
0.0000

> <Gold.Chemscore.DEClash.Weighted>
0.2987

> <Gold.Chemscore.DEInternal.Weighted>
2.6943

> <Gold.Chemscore.Rot.Weighted>
4.7408

> <Gold.Chemscore.Internal.Correction.Weighted>
   9.000000E+99

> <Gold.Protein.RotatedTorsions>
[ 6907 6896 6895 6894 ] final  -16.56 input  -60.11 | X-H torsion
[ 7974 7965 7964 7962 ] final -119.77 input  175.53 | X-H torsion
[ 8008 7997 7996 7995 ] final   59.21 input   59.86 | X-H torsion
[ 10167 10162 10161 10158 ] final   35.03 input  -65.29 | X-H torsion
[ 10718 10713 10712 10709 ] final  -76.33 input   66.30 | X-H torsion
[ 10763 10752 10751 10750 ] final   19.68 input  -60.55 | X-H torsion
[ 11005 11000 10999 10996 ] final  161.75 input  -57.11 | X-H torsion

> <Gold.Protein.ActiveResidues>
 VAL166  LYS551  ARG553  GLY616  TRP617  ASP618  TYR619  PRO620  LYS621  CYS622 
 ASP623  PHE694  ASN695  SER759  ASP760  ASP761  ALA762  ILE779  LEU786  VAL792 
 PHE793  MET794  SER795  GLU796  ALA797  LYS798  CYS799  TRP800  GLU811  SER814 

> <Gold.Protein.RotatedAtoms>
  151.3068  135.0783  159.9257 H   0  0  0  0  0  0  0  0  0  0  0  0  # atno 6907 bound_to 6896
  152.5286  133.9777  159.7802 H   0  0  0  0  0  0  0  0  0  0  0  0  # atno 6908 bound_to 6896
  151.0073  133.5947  159.2717 H   0  0  0  0  0  0  0  0  0  0  0  0  # atno 6909 bound_to 6896
  145.0588  140.8275  143.4164 H   0  0  0  0  0  0  0  0  0  0  0  0  # atno 7974 bound_to 7965
  155.5625  140.3488  155.4495 H   0  0  0  0  0  0  0  0  0  0  0  0  # atno 8008 bound_to 7997
  156.0504  140.1316  157.0082 H   0  0  0  0  0  0  0  0  0  0  0  0  # atno 8009 bound_to 7997
  154.4432  140.1006  156.6353 H   0  0  0  0  0  0  0  0  0  0  0  0  # atno 8010 bound_to 7997
  140.4260  144.1393  150.6153 H   0  0  0  0  0  0  0  0  0  0  0  0  # atno 10167 bound_to 10162
  156.0178  130.4463  150.3177 H   0  0  0  0  0  0  0  0  0  0  0  0  # atno 10718 bound_to 10713
  153.1142  135.6704  153.9447 H   0  0  0  0  0  0  0  0  0  0  0  0  # atno 10763 bound_to 10752
  153.8982  135.3039  155.3449 H   0  0  0  0  0  0  0  0  0  0  0  0  # atno 10764 bound_to 10752
  154.7559  135.5012  153.9452 H   0  0  0  0  0  0  0  0  0  0  0  0  # atno 10765 bound_to 10752
  140.2189  134.8211  157.3200 H   0  0  0  0  0  0  0  0  0  0  0  0  # atno 11005 bound_to 11000
  145.1434  139.2558  143.5478 LP  0  0  0  0  0  0  0  0  0  0  0  0  # atno 17320 bound_to 7965
  146.3523  140.1117  142.8603 LP  0  0  0  0  0  0  0  0  0  0  0  0  # atno 17321 bound_to 7965
  140.4481  143.2498  151.9384 LP  0  0  0  0  0  0  0  0  0  0  0  0  # atno 17342 bound_to 10162
  139.4783  144.5589  151.8270 LP  0  0  0  0  0  0  0  0  0  0  0  0  # atno 17343 bound_to 10162
  157.1278  131.0263  151.2982 LP  0  0  0  0  0  0  0  0  0  0  0  0  # atno 17370 bound_to 10713
  157.4576  130.7634  149.7206 LP  0  0  0  0  0  0  0  0  0  0  0  0  # atno 17371 bound_to 10713
  140.1870  134.4418  155.7738 LP  0  0  0  0  0  0  0  0  0  0  0  0  # atno 17394 bound_to 11000
  141.2224  133.7010  156.7964 LP  0  0  0  0  0  0  0  0  0  0  0  0  # atno 17395 bound_to 11000

$$$$
