AV-unprocessed.smi:671|AV-procd|sdf|3273|dock4
  -GOLD-   22720 0233D 1   1.00000     0.00000
 Structure written by MMmdl.
 49 50  0  0  0  0  0  0  0  0  1 V2000
  152.8407  138.4786  154.6857 C   0  0  0  0  0  0  0  0  0  0  0  0
  152.0610  139.3548  155.6249 C   0  0  0  0  0  0  0  0  0  0  0  0
  152.6530  139.8291  156.7080 N   0  0  0  0  0  0  0  0  0  0  0  0
  151.7015  140.5517  157.3322 N   0  0  0  0  0  0  0  0  0  0  0  0
  152.0215  141.2213  158.5780 C   0  0  0  0  0  0  0  0  0  0  0  0
  150.5060  140.5373  156.6399 C   0  0  0  0  0  0  0  0  0  0  0  0
  149.2950  141.2660  157.1266 C   0  0  0  0  0  0  0  0  0  0  0  0
  150.6998  139.7680  155.5236 C   0  0  0  0  0  0  0  0  0  0  0  0
  149.7222  139.4181  154.4313 C   0  0  0  0  0  0  0  0  0  0  0  0
  148.4530  138.7259  154.9769 C   0  0  2  0  0  0  0  0  0  0  0  0
  148.6852  138.0629  156.3437 C   0  0  0  0  0  0  0  0  0  0  0  0
  147.9757  137.7099  154.0354 N   0  0  0  0  0  0  0  0  0  0  0  0
  146.8921  136.9189  154.1443 C   0  0  0  0  0  0  0  0  0  0  0  0
  146.1503  136.9653  155.1237 O   0  0  0  0  0  0  0  0  0  0  0  0
  146.7088  136.0772  153.1135 N   0  0  0  0  0  0  0  0  0  0  0  0
  145.6220  135.1115  152.9846 C   0  0  2  0  0  0  0  0  0  0  0  0
  146.1570  133.7872  152.4086 C   0  0  0  0  0  0  0  0  0  0  0  0
  145.6195  133.7005  150.9808 C   0  0  0  0  0  0  0  0  0  0  0  0
  144.2838  134.4326  151.0479 C   0  0  0  0  0  0  0  0  0  0  0  0
  144.5458  135.6106  151.9928 C   0  0  1  0  0  0  0  0  0  0  0  0
  143.2748  136.1399  152.6718 C   0  0  0  0  0  0  0  0  0  0  0  0
  152.6089  138.7087  153.6463 H   0  0  0  0  0  0  0  0  0  0  0  0
  152.6068  137.4273  154.8518 H   0  0  0  0  0  0  0  0  0  0  0  0
  153.9160  138.6044  154.8155 H   0  0  0  0  0  0  0  0  0  0  0  0
  152.0737  142.2975  158.4114 H   0  0  0  0  0  0  0  0  0  0  0  0
  152.9806  140.8750  158.9653 H   0  0  0  0  0  0  0  0  0  0  0  0
  151.2494  141.0113  159.3185 H   0  0  0  0  0  0  0  0  0  0  0  0
  148.5312  141.3270  156.3521 H   0  0  0  0  0  0  0  0  0  0  0  0
  149.5450  142.2847  157.4238 H   0  0  0  0  0  0  0  0  0  0  0  0
  148.8601  140.7583  157.9876 H   0  0  0  0  0  0  0  0  0  0  0  0
  149.4442  140.3260  153.8957 H   0  0  0  0  0  0  0  0  0  0  0  0
  150.1870  138.7809  153.6784 H   0  0  0  0  0  0  0  0  0  0  0  0
  147.6666  139.4704  155.1104 H   0  0  0  0  0  0  0  0  0  0  0  0
  148.9731  138.7953  157.0980 H   0  0  0  0  0  0  0  0  0  0  0  0
  149.4733  137.3110  156.2922 H   0  0  0  0  0  0  0  0  0  0  0  0
  147.7793  137.5716  156.6998 H   0  0  0  0  0  0  0  0  0  0  0  0
  148.5625  137.5539  153.2284 H   0  0  0  0  0  0  0  0  0  0  0  0
  147.3757  136.1098  152.3566 H   0  0  0  0  0  0  0  0  0  0  0  0
  145.1855  134.9073  153.9643 H   0  0  0  0  0  0  0  0  0  0  0  0
  147.2441  133.7044  152.4443 H   0  0  0  0  0  0  0  0  0  0  0  0
  145.7565  132.9566  152.9913 H   0  0  0  0  0  0  0  0  0  0  0  0
  146.2919  134.2229  150.2991 H   0  0  0  0  0  0  0  0  0  0  0  0
  145.5196  132.6726  150.6310 H   0  0  0  0  0  0  0  0  0  0  0  0
  143.9326  134.7526  150.0665 H   0  0  0  0  0  0  0  0  0  0  0  0
  143.5281  133.7691  151.4714 H   0  0  0  0  0  0  0  0  0  0  0  0
  144.9675  136.4158  151.3878 H   0  0  0  0  0  0  0  0  0  0  0  0
  142.8030  135.3722  153.2861 H   0  0  0  0  0  0  0  0  0  0  0  0
  142.5456  136.4711  151.9320 H   0  0  0  0  0  0  0  0  0  0  0  0
  143.5017  136.9895  153.3163 H   0  0  0  0  0  0  0  0  0  0  0  0
  1  2  1  0  0  0  0
  1 22  1  0  0  0  0
  1 23  1  0  0  0  0
  1 24  1  0  0  0  0
  2  8  1  0  0  0  0
  2  3  2  0  0  0  0
  3  4  1  0  0  0  0
  4  5  1  0  0  0  0
  4  6  1  0  0  0  0
  5 25  1  0  0  0  0
  5 26  1  0  0  0  0
  5 27  1  0  0  0  0
  6  7  1  0  0  0  0
  6  8  2  0  0  0  0
  7 28  1  0  0  0  0
  7 29  1  0  0  0  0
  7 30  1  0  0  0  0
  8  9  1  0  0  0  0
  9 10  1  0  0  0  0
  9 31  1  0  0  0  0
  9 32  1  0  0  0  0
 10 11  1  0  0  0  0
 10 12  1  0  0  0  0
 10 33  1  0  0  0  0
 11 34  1  0  0  0  0
 11 35  1  0  0  0  0
 11 36  1  0  0  0  0
 12 13  1  0  0  0  0
 12 37  1  0  0  0  0
 13 14  2  0  0  0  0
 13 15  1  0  0  0  0
 15 16  1  0  0  0  0
 15 38  1  0  0  0  0
 16 20  1  0  0  0  0
 16 17  1  0  0  0  0
 16 39  1  0  0  0  0
 17 18  1  0  0  0  0
 17 40  1  0  0  0  0
 17 41  1  0  0  0  0
 18 19  1  0  0  0  0
 18 42  1  0  0  0  0
 18 43  1  0  0  0  0
 19 20  1  0  0  0  0
 19 44  1  0  0  0  0
 19 45  1  0  0  0  0
 20 21  1  0  0  0  0
 20 46  1  0  0  0  0
 21 47  1  0  0  0  0
 21 48  1  0  0  0  0
 21 49  1  0  0  0  0
M  END
> <s_m_source_file>
AV-unprocessed.smi

> <i_m_source_file_index>
671

> <i_lp_mmshare_version>
43012

> <i_f3d_flags>
0

> <s_epik_input>
W0NIM11jMW5uKFtDSDNdKWMoW0NIM10pYzFbQ0gyXVtDQEhdKFtDSDNdKVtOSF1DKD1PKVtOSF1bQ0BASF0yW0NIMl1bQ0gyXVtDSDJdW0NASF0yW0NIM10=

> <s_epik_cmdline>
J2VwaWtfcHl0aG9uJywgJy1waCcsICc3LjAnLCAnLXRuJywgJzgnLCAnLW1hJywgJzIwMCcsICctbWV0YWxfYmluZGluZycsICctaW1hZScsICc8aW5maWxlLm1hZT4nLCAnLW9tYWUnLCAnPG91dGZpbGUubWFlPic=

> <r_lp_tautomer_probability>
1

> <r_epik_Ionization_Penalty>
0.0126855

> <r_epik_Ionization_Penalty_Charging>
0

> <r_epik_Ionization_Penalty_Neutral>
0.0126855

> <r_epik_State_Penalty>
0.00977547

> <r_epik_Charging_Adjusted_Penalty>
0.00977547

> <i_epik_Tot_Q>
0

> <i_epik_Tot_abs_Q>
0

> <r_epik_Metal_State_Penalty>
0.00957132

> <b_epik_Metal_Only>
0

> <s_lp_Force_Field>
OPLS_2005

> <r_lp_Energy>
21.9144

> <b_lp_Chiralities_Consistent>
1

> <s_lp_Variant>
AV-unprocessed.smi:671-1

> <Gold.Version>
5.8.1

> <Gold.Id.Protein>
6NUR|6NUR_protein|mol2

> <Gold.PLP.Fitness>
40.1715

> <Gold.PLP.PLP>
-33.0311

> <Gold.PLP.part.hbond>
-3.0000

> <Gold.PLP.part.metal>
0.0000

> <Gold.PLP.part.buried>
-4.4065

> <Gold.PLP.part.nonpolar>
-26.4318

> <Gold.PLP.part.repulsive>
0.0383

> <Gold.PLP.ligand.clash>
0.0000

> <Gold.PLP.ligand.torsion>
0.7606

> <Gold.PLP.Chemscore.Hbond>
2.8800

> <Gold.PLP.Chemscore.CHOScore>
0.0000

> <Gold.PLP.Chemscore.Metal>
0.0000

> <Gold.Chemscore.Hbonds>
donor molecule, donor type, donor heavy atom, donor atom, acceptor molecule, acceptor atom, score
      L1  H    12    37       P1  7948  0.86
      L1  H    15    38       P1  7948  1.00
      P1  H  7997  8009       L1     3  1.00

> <Gold.PLP.Chemscore.Internal.Correction>
0.0216

> <Gold.Rescore>
     Score         DG    S(hbond)    S(metal)    S(lipo)     H(rot)  DE(clash)    DE(int)     intcor
     19.97     -20.62       2.92        0.00      77.72       1.45       0.09       0.55       ----

> <Gold.Chemscore.Fitness>
19.9717

> <Gold.Chemscore.DG>
-20.6152

> <Gold.Chemscore.ZeroCoef>
-5.4800

> <Gold.Chemscore.Hbond>
2.9204

> <Gold.Chemscore.Metal>
0.0000

> <Gold.Chemscore.Lipo>
77.7184

> <Gold.Chemscore.Internal_Hbond>
0.0000

> <Gold.Chemscore.DEClash>
0.0923

> <Gold.Chemscore.DEInternal>
0.5512

> <Gold.Chemscore.Rot>
1.4499

> <Gold.Chemscore.Internal.Correction>
   9.000000E+99

> <Gold.Chemscore.Hbonds>
donor molecule, donor type, donor heavy atom, donor atom, acceptor molecule, acceptor atom, score
      L1  H    12    37       P1  7948  0.84
      L1  H    15    38       P1  7948  0.94
      P1  H  7997  8009       L1     3  0.88

> <Gold.Chemscore.Hbond.Weighted>
-9.7540

> <Gold.Chemscore.Metal.Weighted>
-0.0000

> <Gold.Chemscore.Lipo.Weighted>
-9.0931

> <Gold.Chemscore.Internal_Hbond.Weighted>
0.0000

> <Gold.Chemscore.DEClash.Weighted>
0.0923

> <Gold.Chemscore.DEInternal.Weighted>
0.5512

> <Gold.Chemscore.Rot.Weighted>
3.7118

> <Gold.Chemscore.Internal.Correction.Weighted>
   9.000000E+99

> <Gold.Protein.RotatedTorsions>
[ 6907 6896 6895 6894 ] final -115.44 input  -60.11 | X-H torsion
[ 7974 7965 7964 7962 ] final  -95.89 input  175.53 | X-H torsion
[ 8008 7997 7996 7995 ] final -173.53 input   59.86 | X-H torsion
[ 10167 10162 10161 10158 ] final   28.25 input  -65.29 | X-H torsion
[ 10718 10713 10712 10709 ] final   18.84 input   66.30 | X-H torsion
[ 10763 10752 10751 10750 ] final -122.50 input  -60.55 | X-H torsion
[ 11005 11000 10999 10996 ] final  -59.62 input  -57.11 | X-H torsion

> <Gold.Protein.ActiveResidues>
 VAL166  LYS551  ARG553  GLY616  TRP617  ASP618  TYR619  PRO620  LYS621  CYS622 
 ASP623  PHE694  ASN695  SER759  ASP760  ASP761  ALA762  ILE779  LEU786  VAL792 
 PHE793  MET794  SER795  GLU796  ALA797  LYS798  CYS799  TRP800  GLU811  SER814 

> <Gold.Protein.RotatedAtoms>
  150.7978  133.8659  159.3244 H   0  0  0  0  0  0  0  0  0  0  0  0  # atno 6907 bound_to 6896
  151.6479  135.1003  160.0164 H   0  0  0  0  0  0  0  0  0  0  0  0  # atno 6908 bound_to 6896
  152.4062  133.6852  159.6393 H   0  0  0  0  0  0  0  0  0  0  0  0  # atno 6909 bound_to 6896
  145.3540  140.9481  143.2538 H   0  0  0  0  0  0  0  0  0  0  0  0  # atno 7974 bound_to 7965
  155.9586  140.1140  157.0915 H   0  0  0  0  0  0  0  0  0  0  0  0  # atno 8008 bound_to 7997
  154.4126  140.1186  156.5215 H   0  0  0  0  0  0  0  0  0  0  0  0  # atno 8009 bound_to 7997
  155.6750  140.3473  155.4835 H   0  0  0  0  0  0  0  0  0  0  0  0  # atno 8010 bound_to 7997
  140.4869  144.0528  150.6283 H   0  0  0  0  0  0  0  0  0  0  0  0  # atno 10167 bound_to 10162
  157.1020  130.6472  149.5875 H   0  0  0  0  0  0  0  0  0  0  0  0  # atno 10718 bound_to 10713
  154.8690  135.4131  154.2792 H   0  0  0  0  0  0  0  0  0  0  0  0  # atno 10763 bound_to 10752
  153.3687  135.7006  153.6660 H   0  0  0  0  0  0  0  0  0  0  0  0  # atno 10764 bound_to 10752
  153.5530  135.3625  155.2739 H   0  0  0  0  0  0  0  0  0  0  0  0  # atno 10765 bound_to 10752
  141.1255  133.6617  156.5099 H   0  0  0  0  0  0  0  0  0  0  0  0  # atno 11005 bound_to 11000
  144.8696  139.5057  143.6774 LP  0  0  0  0  0  0  0  0  0  0  0  0  # atno 17320 bound_to 7965
  146.2956  139.7267  142.9129 LP  0  0  0  0  0  0  0  0  0  0  0  0  # atno 17321 bound_to 7965
  140.3786  143.2815  152.0196 LP  0  0  0  0  0  0  0  0  0  0  0  0  # atno 17342 bound_to 10162
  139.4843  144.6172  151.7323 LP  0  0  0  0  0  0  0  0  0  0  0  0  # atno 17343 bound_to 10162
  155.9871  130.4909  150.7110 LP  0  0  0  0  0  0  0  0  0  0  0  0  # atno 17370 bound_to 10713
  157.4633  131.0885  151.0722 LP  0  0  0  0  0  0  0  0  0  0  0  0  # atno 17371 bound_to 10713
  140.4378  134.7043  157.4976 LP  0  0  0  0  0  0  0  0  0  0  0  0  # atno 17394 bound_to 11000
  140.0250  134.6491  155.9186 LP  0  0  0  0  0  0  0  0  0  0  0  0  # atno 17395 bound_to 11000

$$$$
