AV-unprocessed.smi:1350|AV-procd|sdf|5522|dock5
  -GOLD-   22720 5113D 1   1.00000     0.00000
 Structure written by MMmdl.
 44 46  0  0  0  0  0  0  0  0  2 V2000
  153.3984  138.9543  158.7698 C   0  0  0  0  0  0  0  0  0  0  0  0
  152.8913  139.8841  157.8234 O   0  0  0  0  0  0  0  0  0  0  0  0
  152.4805  141.1236  158.2712 C   0  0  0  0  0  0  0  0  0  0  0  0
  153.0491  141.7690  159.4001 C   0  0  0  0  0  0  0  0  0  0  0  0
  152.5915  143.0347  159.8120 C   0  0  0  0  0  0  0  0  0  0  0  0
  151.5608  143.6761  159.1039 C   0  0  0  0  0  0  0  0  0  0  0  0
  150.9883  143.0482  157.9837 C   0  0  0  0  0  0  0  0  0  0  0  0
  151.4387  141.7780  157.5661 C   0  0  0  0  0  0  0  0  0  0  0  0
  150.7933  141.1523  156.3402 C   0  0  0  0  0  0  0  0  0  0  0  0
  149.4330  140.8297  156.5786 O   0  0  0  0  0  0  0  0  0  0  0  0
  148.5391  141.6316  155.8242 C   0  0  0  0  0  0  0  0  0  0  0  0
  148.4215  141.0540  154.4069 C   0  0  2  0  0  0  0  0  0  0  0  0
  149.5244  141.5007  153.6432 O   0  0  0  0  0  0  0  0  0  0  0  0
  147.1080  141.4625  153.7102 C   0  0  0  0  0  0  0  0  0  0  0  0
  146.0817  141.9153  154.6576 N   0  0  0  0  0  0  0  0  0  0  0  0
  145.5597  141.2935  155.7496 C   0  0  0  0  0  0  0  0  0  0  0  0
  144.6414  142.1347  156.3016 N   0  3  0  0  0  0  0  0  0  0  0  0
  144.5752  143.3104  155.5503 C   0  0  0  0  0  0  0  0  0  0  0  0
  143.7996  144.4543  155.7121 C   0  0  0  0  0  0  0  0  0  0  0  0
  143.9797  145.4803  154.7609 C   0  0  0  0  0  0  0  0  0  0  0  0
  144.9011  145.3474  153.7012 C   0  0  0  0  0  0  0  0  0  0  0  0
  145.6819  144.1830  153.5466 C   0  0  0  0  0  0  0  0  0  0  0  0
  145.4976  143.1746  154.4914 C   0  0  0  0  0  0  0  0  0  0  0  0
  153.6715  138.0326  158.2563 H   0  0  0  0  0  0  0  0  0  0  0  0
  152.6502  138.7020  159.5224 H   0  0  0  0  0  0  0  0  0  0  0  0
  154.2947  139.3342  159.2618 H   0  0  0  0  0  0  0  0  0  0  0  0
  153.8434  141.3134  159.9714 H   0  0  0  0  0  0  0  0  0  0  0  0
  153.0344  143.5143  160.6722 H   0  0  0  0  0  0  0  0  0  0  0  0
  151.2110  144.6485  159.4178 H   0  0  0  0  0  0  0  0  0  0  0  0
  150.1983  143.5461  157.4407 H   0  0  0  0  0  0  0  0  0  0  0  0
  150.8613  141.8695  155.5209 H   0  0  0  0  0  0  0  0  0  0  0  0
  151.3283  140.2583  156.0201 H   0  0  0  0  0  0  0  0  0  0  0  0
  147.5600  141.6702  156.3048 H   0  0  0  0  0  0  0  0  0  0  0  0
  148.9236  142.6522  155.7793 H   0  0  0  0  0  0  0  0  0  0  0  0
  148.4857  139.9669  154.4643 H   0  0  0  0  0  0  0  0  0  0  0  0
  149.2863  141.4754  152.7291 H   0  0  0  0  0  0  0  0  0  0  0  0
  147.2794  142.2580  152.9835 H   0  0  0  0  0  0  0  0  0  0  0  0
  146.6941  140.6203  153.1541 H   0  0  0  0  0  0  0  0  0  0  0  0
  145.8290  140.3131  156.1152 H   0  0  0  0  0  0  0  0  0  0  0  0
  143.0937  144.5594  156.5228 H   0  0  0  0  0  0  0  0  0  0  0  0
  143.4000  146.3881  154.8463 H   0  0  0  0  0  0  0  0  0  0  0  0
  145.0122  146.1554  152.9927 H   0  0  0  0  0  0  0  0  0  0  0  0
  146.3868  144.0899  152.7335 H   0  0  0  0  0  0  0  0  0  0  0  0
  144.1036  141.9207  157.1317 H   0  0  0  0  0  0  0  0  0  0  0  0
  1  2  1  0  0  0  0
  1 24  1  0  0  0  0
  1 25  1  0  0  0  0
  1 26  1  0  0  0  0
  2  3  1  0  0  0  0
  3  8  1  0  0  0  0
  3  4  2  0  0  0  0
  4  5  1  0  0  0  0
  4 27  1  0  0  0  0
  5  6  2  0  0  0  0
  5 28  1  0  0  0  0
  6  7  1  0  0  0  0
  6 29  1  0  0  0  0
  7  8  2  0  0  0  0
  7 30  1  0  0  0  0
  8  9  1  0  0  0  0
  9 10  1  0  0  0  0
  9 31  1  0  0  0  0
  9 32  1  0  0  0  0
 10 11  1  0  0  0  0
 11 12  1  0  0  0  0
 11 33  1  0  0  0  0
 11 34  1  0  0  0  0
 12 13  1  0  0  0  0
 12 14  1  0  0  0  0
 12 35  1  0  0  0  0
 13 36  1  0  0  0  0
 14 15  1  0  0  0  0
 14 37  1  0  0  0  0
 14 38  1  0  0  0  0
 15 23  1  0  0  0  0
 15 16  1  0  0  0  0
 16 17  2  0  0  0  0
 16 39  1  0  0  0  0
 17 18  1  0  0  0  0
 17 44  1  0  0  0  0
 18 23  2  0  0  0  0
 18 19  1  0  0  0  0
 19 20  2  0  0  0  0
 19 40  1  0  0  0  0
 20 21  1  0  0  0  0
 20 41  1  0  0  0  0
 21 22  2  0  0  0  0
 21 42  1  0  0  0  0
 22 23  1  0  0  0  0
 22 43  1  0  0  0  0
M  CHG  1  17   1
M  END
> <s_m_source_file>
AV-unprocessed.smi

> <i_m_source_file_index>
1350

> <i_lp_mmshare_version>
43012

> <i_f3d_flags>
0

> <s_epik_input>
W0NIM11PYzFbY0hdW2NIXVtjSF1bY0hdYzFbQ0gyXU9bQ0gyXVtDQEhdKFtPSF0pW0NIMl1uKFtjSF1uMiljKGMyMylbY0hdW2NIXVtjSF1bY0hdMw==

> <s_epik_cmdline>
J2VwaWtfcHl0aG9uJywgJy1waCcsICc3LjAnLCAnLXRuJywgJzgnLCAnLW1hJywgJzIwMCcsICctbWV0YWxfYmluZGluZycsICctaW1hZScsICc8aW5maWxlLm1hZT4nLCAnLW9tYWUnLCAnPG91dGZpbGUubWFlPic=

> <r_lp_tautomer_probability>
1

> <r_epik_Ionization_Penalty>
1.28975

> <r_epik_Ionization_Penalty_Charging>
1.28975

> <r_epik_Ionization_Penalty_Neutral>
1.07667e-06

> <r_epik_State_Penalty>
1.36276

> <r_epik_Charging_Adjusted_Penalty>
2.65251

> <i_epik_Tot_Q>
1

> <i_epik_Tot_abs_Q>
1

> <r_epik_Metal_State_Penalty>
5.39298

> <b_epik_Metal_Only>
0

> <s_lp_Force_Field>
OPLS_2005

> <r_lp_Energy>
23.7531

> <b_lp_Chiralities_Consistent>
1

> <s_lp_Variant>
AV-unprocessed.smi:1350-3

> <Gold.Version>
5.8.1

> <Gold.Id.Protein>
6NUR|6NUR_protein|mol2

> <Gold.PLP.Fitness>
52.5678

> <Gold.PLP.PLP>
-49.1543

> <Gold.PLP.part.hbond>
-4.0000

> <Gold.PLP.part.metal>
0.0000

> <Gold.PLP.part.buried>
-5.0337

> <Gold.PLP.part.nonpolar>
-39.5749

> <Gold.PLP.part.repulsive>
0.0540

> <Gold.PLP.ligand.clash>
0.0179

> <Gold.PLP.ligand.torsion>
1.7075

> <Gold.PLP.Chemscore.Hbond>
2.2108

> <Gold.PLP.Chemscore.CHOScore>
0.0000

> <Gold.PLP.Chemscore.Metal>
0.0000

> <Gold.Chemscore.Hbonds>
donor molecule, donor type, donor heavy atom, donor atom, acceptor molecule, acceptor atom, score
      L1  H    13    36       P1  7957  0.51
      P1  H  7989  7998       L1    13  0.07
      P1  H  7997  8010       L1     2  0.85

> <Gold.PLP.Chemscore.Internal.Correction>
0.2139

> <Gold.Rescore>
     Score         DG    S(hbond)    S(metal)    S(lipo)     H(rot)  DE(clash)    DE(int)     intcor
     15.51     -18.11       1.18        0.00     134.07       2.74       0.13       2.47       ----

> <Gold.Chemscore.Fitness>
15.5085

> <Gold.Chemscore.DG>
-18.1102

> <Gold.Chemscore.ZeroCoef>
-5.4800

> <Gold.Chemscore.Hbond>
1.1844

> <Gold.Chemscore.Metal>
0.0000

> <Gold.Chemscore.Lipo>
134.0687

> <Gold.Chemscore.Internal_Hbond>
0.0000

> <Gold.Chemscore.DEClash>
0.1341

> <Gold.Chemscore.DEInternal>
2.4676

> <Gold.Chemscore.Rot>
2.7390

> <Gold.Chemscore.Internal.Correction>
   9.000000E+99

> <Gold.Chemscore.Hbonds>
donor molecule, donor type, donor heavy atom, donor atom, acceptor molecule, acceptor atom, score
      L1  H    13    36       P1  7957  0.51
      P1  H  7989  7998       L1    13  0.02
      P1  H  7997  8010       L1     2  0.10

> <Gold.Chemscore.Hbond.Weighted>
-3.9559

> <Gold.Chemscore.Metal.Weighted>
-0.0000

> <Gold.Chemscore.Lipo.Weighted>
-15.6860

> <Gold.Chemscore.Internal_Hbond.Weighted>
0.0000

> <Gold.Chemscore.DEClash.Weighted>
0.1341

> <Gold.Chemscore.DEInternal.Weighted>
2.4676

> <Gold.Chemscore.Rot.Weighted>
7.0118

> <Gold.Chemscore.Internal.Correction.Weighted>
   9.000000E+99

> <Gold.Protein.RotatedTorsions>
[ 6907 6896 6895 6894 ] final  -72.19 input  -60.11 | X-H torsion
[ 7974 7965 7964 7962 ] final   95.60 input  175.53 | X-H torsion
[ 8008 7997 7996 7995 ] final   48.17 input   59.86 | X-H torsion
[ 10167 10162 10161 10158 ] final  -74.74 input  -65.29 | X-H torsion
[ 10718 10713 10712 10709 ] final -177.32 input   66.30 | X-H torsion
[ 10763 10752 10751 10750 ] final  -88.11 input  -60.55 | X-H torsion
[ 11005 11000 10999 10996 ] final -171.73 input  -57.11 | X-H torsion

> <Gold.Protein.ActiveResidues>
 VAL166  LYS551  ARG553  GLY616  TRP617  ASP618  TYR619  PRO620  LYS621  CYS622 
 ASP623  PHE694  ASN695  SER759  ASP760  ASP761  ALA762  ILE779  LEU786  VAL792 
 PHE793  MET794  SER795  GLU796  ALA797  LYS798  CYS799  TRP800  GLU811  SER814 

> <Gold.Protein.RotatedAtoms>
  150.7180  134.5199  159.5647 H   0  0  0  0  0  0  0  0  0  0  0  0  # atno 6907 bound_to 6896
  152.2756  134.7882  160.0415 H   0  0  0  0  0  0  0  0  0  0  0  0  # atno 6908 bound_to 6896
  151.8547  133.3411  159.3721 H   0  0  0  0  0  0  0  0  0  0  0  0  # atno 6909 bound_to 6896
  145.4500  139.2294  143.3045 H   0  0  0  0  0  0  0  0  0  0  0  0  # atno 7974 bound_to 7965
  155.3811  140.3428  155.4247 H   0  0  0  0  0  0  0  0  0  0  0  0  # atno 8008 bound_to 7997
  156.1610  140.1600  156.8646 H   0  0  0  0  0  0  0  0  0  0  0  0  # atno 8009 bound_to 7997
  154.5139  140.0783  156.8026 H   0  0  0  0  0  0  0  0  0  0  0  0  # atno 8010 bound_to 7997
  140.5001  143.2363  151.7766 H   0  0  0  0  0  0  0  0  0  0  0  0  # atno 10167 bound_to 10162
  156.8277  130.9642  151.3108 H   0  0  0  0  0  0  0  0  0  0  0  0  # atno 10718 bound_to 10713
  154.6410  135.5389  153.7789 H   0  0  0  0  0  0  0  0  0  0  0  0  # atno 10763 bound_to 10752
  153.0334  135.6459  154.1160 H   0  0  0  0  0  0  0  0  0  0  0  0  # atno 10764 bound_to 10752
  154.1084  135.2928  155.3216 H   0  0  0  0  0  0  0  0  0  0  0  0  # atno 10765 bound_to 10752
  140.5050  134.5857  157.5000 H   0  0  0  0  0  0  0  0  0  0  0  0  # atno 11005 bound_to 11000
  146.2509  140.5258  142.8893 LP  0  0  0  0  0  0  0  0  0  0  0  0  # atno 17320 bound_to 7965
  144.8067  140.6313  143.6442 LP  0  0  0  0  0  0  0  0  0  0  0  0  # atno 17321 bound_to 7965
  139.4870  144.4533  151.9628 LP  0  0  0  0  0  0  0  0  0  0  0  0  # atno 17342 bound_to 10162
  140.3622  144.2959  150.5932 LP  0  0  0  0  0  0  0  0  0  0  0  0  # atno 17343 bound_to 10162
  157.6423  130.8816  149.9472 LP  0  0  0  0  0  0  0  0  0  0  0  0  # atno 17370 bound_to 10713
  156.0952  130.3660  150.0320 LP  0  0  0  0  0  0  0  0  0  0  0  0  # atno 17371 bound_to 10713
  139.9691  134.7322  156.0077 LP  0  0  0  0  0  0  0  0  0  0  0  0  # atno 17394 bound_to 11000
  141.1416  133.6564  156.3745 LP  0  0  0  0  0  0  0  0  0  0  0  0  # atno 17395 bound_to 11000

$$$$
