AV-unprocessed.smi:2775|AV-procd|sdf|10698|dock9
  -GOLD-   2272015133D 1   1.00000     0.00000
 Structure written by MMmdl.
 43 46  0  0  0  0  0  0  0  0  2 V2000
  149.2190  130.2356  153.7615 C   0  0  0  0  0  0  0  0  0  0  0  0
  149.7655  131.4525  154.4831 C   0  0  0  0  0  0  0  0  0  0  0  0
  150.6328  131.2448  155.4982 N   0  3  0  0  0  0  0  0  0  0  0  0
  151.1789  132.2484  156.2154 C   0  0  0  0  0  0  0  0  0  0  0  0
  150.8554  133.5856  155.9136 C   0  0  0  0  0  0  0  0  0  0  0  0
  149.9613  133.8622  154.8481 C   0  0  0  0  0  0  0  0  0  0  0  0
  149.5638  135.1760  154.4750 N   0  0  0  0  0  0  0  0  0  0  0  0
  149.5344  136.3066  155.2067 C   0  0  0  0  0  0  0  0  0  0  0  0
  149.8582  136.3886  156.3891 O   0  0  0  0  0  0  0  0  0  0  0  0
  149.1170  137.3847  154.5205 N   0  0  0  0  0  0  0  0  0  0  0  0
  148.9732  138.7529  155.0211 C   0  0  2  0  0  0  0  0  0  0  0  0
  148.5147  139.7342  153.9261 C   0  0  1  0  0  0  0  0  0  0  0  0
  147.1862  140.4300  154.0539 C   0  0  0  0  0  0  0  0  0  0  0  0
  147.5688  141.7934  154.6361 C   0  0  0  0  0  0  0  0  0  0  0  0
  148.8294  141.5744  155.2650 O   0  0  0  0  0  0  0  0  0  0  0  0
  149.5810  140.7031  154.4254 C   0  0  1  0  0  0  0  0  0  0  0  0
  150.2928  139.5455  155.1360 C   0  0  0  0  0  0  0  0  0  0  0  0
  151.6366  139.0223  154.5936 C   0  0  0  0  0  0  0  0  0  0  0  0
  152.0843  138.7856  156.0386 C   0  0  0  0  0  0  0  0  0  0  0  0
  150.9843  139.7505  156.4911 C   0  0  0  0  0  0  0  0  0  0  0  0
  149.4011  132.7741  154.1338 C   0  0  0  0  0  0  0  0  0  0  0  0
  148.2825  133.0539  152.8409 Cl  0  0  0  0  0  0  0  0  0  0  0  0
  149.4588  130.2851  152.6988 H   0  0  0  0  0  0  0  0  0  0  0  0
  148.1351  130.1865  153.8686 H   0  0  0  0  0  0  0  0  0  0  0  0
  149.6413  129.3123  154.1601 H   0  0  0  0  0  0  0  0  0  0  0  0
  151.8514  131.9539  157.0081 H   0  0  0  0  0  0  0  0  0  0  0  0
  151.2925  134.3676  156.5143 H   0  0  0  0  0  0  0  0  0  0  0  0
  149.3226  135.2868  153.5007 H   0  0  0  0  0  0  0  0  0  0  0  0
  148.8648  137.2391  153.5534 H   0  0  0  0  0  0  0  0  0  0  0  0
  148.3582  138.8465  155.9189 H   0  0  0  0  0  0  0  0  0  0  0  0
  148.7460  139.3780  152.9205 H   0  0  0  0  0  0  0  0  0  0  0  0
  146.6706  140.5314  153.0986 H   0  0  0  0  0  0  0  0  0  0  0  0
  146.5273  139.8897  154.7344 H   0  0  0  0  0  0  0  0  0  0  0  0
  147.6929  142.5285  153.8396 H   0  0  0  0  0  0  0  0  0  0  0  0
  146.8285  142.1740  155.3398 H   0  0  0  0  0  0  0  0  0  0  0  0
  150.1365  141.2076  153.6337 H   0  0  0  0  0  0  0  0  0  0  0  0
  151.5909  138.1234  153.9791 H   0  0  0  0  0  0  0  0  0  0  0  0
  152.2216  139.8026  154.1046 H   0  0  0  0  0  0  0  0  0  0  0  0
  151.9152  137.7614  156.3720 H   0  0  0  0  0  0  0  0  0  0  0  0
  153.0988  139.1188  156.2591 H   0  0  0  0  0  0  0  0  0  0  0  0
  151.3495  140.7696  156.6266 H   0  0  0  0  0  0  0  0  0  0  0  0
  150.4104  139.4106  157.3535 H   0  0  0  0  0  0  0  0  0  0  0  0
  150.8828  130.2848  155.7363 H   0  0  0  0  0  0  0  0  0  0  0  0
  1  2  1  0  0  0  0
  1 23  1  0  0  0  0
  1 24  1  0  0  0  0
  1 25  1  0  0  0  0
  2 21  1  0  0  0  0
  2  3  2  0  0  0  0
  3  4  1  0  0  0  0
  3 43  1  0  0  0  0
  4  5  2  0  0  0  0
  4 26  1  0  0  0  0
  5  6  1  0  0  0  0
  5 27  1  0  0  0  0
  6  7  1  0  0  0  0
  6 21  2  0  0  0  0
  7  8  1  0  0  0  0
  7 28  1  0  0  0  0
  8  9  2  0  0  0  0
  8 10  1  0  0  0  0
 10 11  1  0  0  0  0
 10 29  1  0  0  0  0
 11 17  1  0  0  0  0
 11 12  1  0  0  0  0
 11 30  1  0  0  0  0
 12 16  1  0  0  0  0
 12 13  1  0  0  0  0
 12 31  1  0  0  0  0
 13 14  1  0  0  0  0
 13 32  1  0  0  0  0
 13 33  1  0  0  0  0
 14 15  1  0  0  0  0
 14 34  1  0  0  0  0
 14 35  1  0  0  0  0
 15 16  1  0  0  0  0
 16 17  1  0  0  0  0
 16 36  1  0  0  0  0
 17 20  1  0  0  0  0
 17 18  1  0  0  0  0
 18 19  1  0  0  0  0
 18 37  1  0  0  0  0
 18 38  1  0  0  0  0
 19 20  1  0  0  0  0
 19 39  1  0  0  0  0
 19 40  1  0  0  0  0
 20 41  1  0  0  0  0
 20 42  1  0  0  0  0
 21 22  1  0  0  0  0
M  CHG  1   3   1
M  END
> <s_m_source_file>
AV-unprocessed.smi

> <i_m_source_file_index>
2775

> <i_lp_mmshare_version>
43012

> <i_f3d_flags>
0

> <s_epik_input>
W0NIM11jMW5bY0hdW2NIXWMoYzFDbClbTkhdQyg9TylbTkhdW0NAQEhdMltDQEhdKFtDSDJdW0NIMl1PMylbQ0BASF0zQzI0W0NIMl1bQ0gyXVtDSDJdNA==

> <s_epik_cmdline>
J2VwaWtfcHl0aG9uJywgJy1waCcsICc3LjAnLCAnLXRuJywgJzgnLCAnLW1hJywgJzIwMCcsICctbWV0YWxfYmluZGluZycsICctaW1hZScsICc8aW5maWxlLm1hZT4nLCAnLW9tYWUnLCAnPG91dGZpbGUubWFlPic=

> <r_epik_Ionization_Penalty>
2.4104

> <r_epik_Ionization_Penalty_Charging>
2.41038

> <r_epik_Ionization_Penalty_Neutral>
1.9872e-05

> <r_epik_State_Penalty>
2.56896

> <r_epik_Charging_Adjusted_Penalty>
4.97934

> <i_epik_Tot_Q>
1

> <i_epik_Tot_abs_Q>
1

> <r_epik_Metal_State_Penalty>
2.57906

> <b_epik_Metal_Only>
0

> <s_lp_Force_Field>
OPLS_2005

> <r_lp_Energy>
60.4392

> <b_lp_Chiralities_Consistent>
1

> <s_lp_Variant>
AV-unprocessed.smi:2775-11

> <Gold.Version>
5.8.1

> <Gold.Id.Protein>
6NUR|6NUR_protein|mol2

> <Gold.PLP.Fitness>
42.6615

> <Gold.PLP.PLP>
-36.9941

> <Gold.PLP.part.hbond>
-2.0000

> <Gold.PLP.part.metal>
0.0000

> <Gold.PLP.part.buried>
-1.7364

> <Gold.PLP.part.nonpolar>
-34.0395

> <Gold.PLP.part.repulsive>
0.1840

> <Gold.PLP.ligand.clash>
0.0000

> <Gold.PLP.ligand.torsion>
0.2629

> <Gold.PLP.Chemscore.Hbond>
2.0000

> <Gold.PLP.Chemscore.CHOScore>
0.0000

> <Gold.PLP.Chemscore.Metal>
0.0000

> <Gold.Chemscore.Hbonds>
donor molecule, donor type, donor heavy atom, donor atom, acceptor molecule, acceptor atom, score
      L1  H     7    28       P1  7948  0.90
      L1  H    10    29       P1  7948  1.00

> <Gold.PLP.Chemscore.Internal.Correction>
0.1932

> <Gold.Rescore>
     Score         DG    S(hbond)    S(metal)    S(lipo)     H(rot)  DE(clash)    DE(int)     intcor
     16.67     -18.18       1.29        0.00      93.70       1.00       0.30       1.21       ----

> <Gold.Chemscore.Fitness>
16.6670

> <Gold.Chemscore.DG>
-18.1824

> <Gold.Chemscore.ZeroCoef>
-5.4800

> <Gold.Chemscore.Hbond>
1.2874

> <Gold.Chemscore.Metal>
0.0000

> <Gold.Chemscore.Lipo>
93.6952

> <Gold.Chemscore.Internal_Hbond>
0.0000

> <Gold.Chemscore.DEClash>
0.3040

> <Gold.Chemscore.DEInternal>
1.2114

> <Gold.Chemscore.Rot>
1.0000

> <Gold.Chemscore.Internal.Correction>
   9.000000E+99

> <Gold.Chemscore.Hbonds>
donor molecule, donor type, donor heavy atom, donor atom, acceptor molecule, acceptor atom, score
      L1  H     7    28       P1  7948  0.18
      L1  H    10    29       P1  7948  0.95

> <Gold.Chemscore.Hbond.Weighted>
-4.3001

> <Gold.Chemscore.Metal.Weighted>
-0.0000

> <Gold.Chemscore.Lipo.Weighted>
-10.9623

> <Gold.Chemscore.Internal_Hbond.Weighted>
0.0000

> <Gold.Chemscore.DEClash.Weighted>
0.3040

> <Gold.Chemscore.DEInternal.Weighted>
1.2114

> <Gold.Chemscore.Rot.Weighted>
2.5600

> <Gold.Chemscore.Internal.Correction.Weighted>
   9.000000E+99

> <Gold.Protein.RotatedTorsions>
[ 6907 6896 6895 6894 ] final -137.06 input  -60.11 | X-H torsion
[ 7974 7965 7964 7962 ] final  -22.53 input  175.53 | X-H torsion
[ 8008 7997 7996 7995 ] final   84.14 input   59.86 | X-H torsion
[ 10167 10162 10161 10158 ] final  177.13 input  -65.29 | X-H torsion
[ 10718 10713 10712 10709 ] final    5.78 input   66.30 | X-H torsion
[ 10763 10752 10751 10750 ] final -141.06 input  -60.55 | X-H torsion
[ 11005 11000 10999 10996 ] final  112.64 input  -57.11 | X-H torsion

> <Gold.Protein.ActiveResidues>
 VAL166  LYS551  ARG553  GLY616  TRP617  ASP618  TYR619  PRO620  LYS621  CYS622 
 ASP623  PHE694  ASN695  SER759  ASP760  ASP761  ALA762  ILE779  LEU786  VAL792 
 PHE793  MET794  SER795  GLU796  ALA797  LYS798  CYS799  TRP800  GLU811  SER814 

> <Gold.Protein.RotatedAtoms>
  151.0178  133.5905  159.2674 H   0  0  0  0  0  0  0  0  0  0  0  0  # atno 6907 bound_to 6896
  151.3033  135.0773  159.9256 H   0  0  0  0  0  0  0  0  0  0  0  0  # atno 6908 bound_to 6896
  152.5316  133.9856  159.7881 H   0  0  0  0  0  0  0  0  0  0  0  0  # atno 6909 bound_to 6896
  146.1670  140.4492  142.8548 H   0  0  0  0  0  0  0  0  0  0  0  0  # atno 7974 bound_to 7965
  155.9331  140.3413  155.6266 H   0  0  0  0  0  0  0  0  0  0  0  0  # atno 8008 bound_to 7997
  155.7132  140.0774  157.2381 H   0  0  0  0  0  0  0  0  0  0  0  0  # atno 8009 bound_to 7997
  154.4089  140.1619  156.2307 H   0  0  0  0  0  0  0  0  0  0  0  0  # atno 8010 bound_to 7997
  139.5241  144.2834  152.0527 H   0  0  0  0  0  0  0  0  0  0  0  0  # atno 10167 bound_to 10162
  156.9124  130.5761  149.5647 H   0  0  0  0  0  0  0  0  0  0  0  0  # atno 10718 bound_to 10713
  154.8558  135.3535  154.5807 H   0  0  0  0  0  0  0  0  0  0  0  0  # atno 10763 bound_to 10752
  153.6418  135.6998  153.5243 H   0  0  0  0  0  0  0  0  0  0  0  0  # atno 10764 bound_to 10752
  153.2965  135.4219  155.1173 H   0  0  0  0  0  0  0  0  0  0  0  0  # atno 10765 bound_to 10752
  139.8932  134.9534  156.6617 H   0  0  0  0  0  0  0  0  0  0  0  0  # atno 11005 bound_to 11000
  144.8107  140.6379  143.6417 LP  0  0  0  0  0  0  0  0  0  0  0  0  # atno 17320 bound_to 7965
  145.4442  139.1532  143.3954 LP  0  0  0  0  0  0  0  0  0  0  0  0  # atno 17321 bound_to 7965
  140.2288  144.4390  150.6309 LP  0  0  0  0  0  0  0  0  0  0  0  0  # atno 17342 bound_to 10162
  140.6369  143.2196  151.6375 LP  0  0  0  0  0  0  0  0  0  0  0  0  # atno 17343 bound_to 10162
  156.0529  130.5596  150.9029 LP  0  0  0  0  0  0  0  0  0  0  0  0  # atno 17370 bound_to 10713
  157.5959  131.0943  150.9042 LP  0  0  0  0  0  0  0  0  0  0  0  0  # atno 17371 bound_to 10713
  140.7442  133.8952  155.8300 LP  0  0  0  0  0  0  0  0  0  0  0  0  # atno 17394 bound_to 11000
  141.0053  134.1094  157.4276 LP  0  0  0  0  0  0  0  0  0  0  0  0  # atno 17395 bound_to 11000

$$$$
