AV-unprocessed.smi:102|AV-procd|sdf|971|dock3
  -GOLD-   2262017523D 1   1.00000     0.00000
 Structure written by MMmdl.
 43 44  0  0  0  0  0  0  0  0  2 V2000
  143.6358  136.9868  152.6440 C   0  0  0  0  0  0  0  0  0  0  0  0
  145.1410  136.8119  152.7978 C   0  0  0  0  0  0  0  0  0  0  0  0
  145.8604  136.5513  151.8331 O   0  0  0  0  0  0  0  0  0  0  0  0
  145.5485  136.9713  154.0656 O   0  0  0  0  0  0  0  0  0  0  0  0
  146.9359  136.9736  154.3593 C   0  0  0  0  0  0  0  0  0  0  0  0
  147.2885  135.7242  155.1778 C   0  0  2  0  0  0  0  0  0  0  0  0
  146.7586  135.8000  156.4916 O   0  0  0  0  0  0  0  0  0  0  0  0
  147.4327  134.8729  157.2804 C   0  0  2  0  0  0  0  0  0  0  0  0
  147.4762  135.4117  158.6938 N   0  0  0  0  0  0  0  0  0  0  0  0
  147.3236  134.5502  159.7679 C   0  0  0  0  0  0  0  0  0  0  0  0
  147.4335  134.9836  161.0397 C   0  0  0  0  0  0  0  0  0  0  0  0
  147.2768  134.1196  162.0575 F   0  0  0  0  0  0  0  0  0  0  0  0
  147.7429  136.3875  161.2990 C   0  0  0  0  0  0  0  0  0  0  0  0
  147.8101  136.7868  162.4606 O   0  0  0  0  0  0  0  0  0  0  0  0
  147.9543  137.2006  160.2243 N   0  5  0  0  0  0  0  0  0  0  0  0
  147.8611  136.7611  158.9345 C   0  0  0  0  0  0  0  0  0  0  0  0
  148.0926  137.4864  157.9675 O   0  0  0  0  0  0  0  0  0  0  0  0
  148.8329  134.6523  156.6722 C   0  0  1  0  0  0  0  0  0  0  0  0
  149.0285  133.2879  156.3242 O   0  0  0  0  0  0  0  0  0  0  0  0
  150.2601  132.7507  156.3745 C   0  0  0  0  0  0  0  0  0  0  0  0
  150.4471  131.6321  155.3584 C   0  0  0  0  0  0  0  0  0  0  0  0
  151.1668  133.0850  157.1372 O   0  0  0  0  0  0  0  0  0  0  0  0
  148.7886  135.5030  155.4064 C   0  0  2  0  0  0  0  0  0  0  0  0
  149.4674  136.7377  155.6142 O   0  0  0  0  0  0  0  0  0  0  0  0
  150.8105  136.7780  155.6538 C   0  0  0  0  0  0  0  0  0  0  0  0
  151.3478  138.2024  155.6186 C   0  0  0  0  0  0  0  0  0  0  0  0
  151.5637  135.8065  155.7184 O   0  0  0  0  0  0  0  0  0  0  0  0
  143.3053  137.8961  153.1469 H   0  0  0  0  0  0  0  0  0  0  0  0
  143.1101  136.1375  153.0806 H   0  0  0  0  0  0  0  0  0  0  0  0
  143.3641  137.0574  151.5905 H   0  0  0  0  0  0  0  0  0  0  0  0
  147.4920  136.9682  153.4208 H   0  0  0  0  0  0  0  0  0  0  0  0
  147.2138  137.8785  154.9018 H   0  0  0  0  0  0  0  0  0  0  0  0
  146.8797  134.8354  154.6934 H   0  0  0  0  0  0  0  0  0  0  0  0
  146.8689  133.9398  157.2974 H   0  0  0  0  0  0  0  0  0  0  0  0
  147.1248  133.5035  159.5970 H   0  0  0  0  0  0  0  0  0  0  0  0
  149.6268  134.9825  157.3422 H   0  0  0  0  0  0  0  0  0  0  0  0
  150.2626  132.0017  154.3497 H   0  0  0  0  0  0  0  0  0  0  0  0
  149.7534  130.8164  155.5624 H   0  0  0  0  0  0  0  0  0  0  0  0
  151.4637  131.2407  155.4028 H   0  0  0  0  0  0  0  0  0  0  0  0
  149.2271  134.9873  154.5503 H   0  0  0  0  0  0  0  0  0  0  0  0
  151.0487  138.6968  154.6942 H   0  0  0  0  0  0  0  0  0  0  0  0
  152.4366  138.2037  155.6754 H   0  0  0  0  0  0  0  0  0  0  0  0
  150.9569  138.7743  156.4605 H   0  0  0  0  0  0  0  0  0  0  0  0
  1  2  1  0  0  0  0
  1 28  1  0  0  0  0
  1 29  1  0  0  0  0
  1 30  1  0  0  0  0
  2  3  2  0  0  0  0
  2  4  1  0  0  0  0
  4  5  1  0  0  0  0
  5  6  1  0  0  0  0
  5 31  1  0  0  0  0
  5 32  1  0  0  0  0
  6 23  1  0  0  0  0
  6  7  1  0  0  0  0
  6 33  1  0  0  0  0
  7  8  1  0  0  0  0
  8  9  1  0  0  0  0
  8 18  1  0  0  0  0
  8 34  1  0  0  0  0
  9 16  1  0  0  0  0
  9 10  1  0  0  0  0
 10 11  2  0  0  0  0
 10 35  1  0  0  0  0
 11 12  1  0  0  0  0
 11 13  1  0  0  0  0
 13 14  2  0  0  0  0
 13 15  1  0  0  0  0
 15 16  1  0  0  0  0
 16 17  2  0  0  0  0
 18 19  1  0  0  0  0
 18 23  1  0  0  0  0
 18 36  1  0  0  0  0
 19 20  1  0  0  0  0
 20 21  1  0  0  0  0
 20 22  2  0  0  0  0
 21 37  1  0  0  0  0
 21 38  1  0  0  0  0
 21 39  1  0  0  0  0
 23 24  1  0  0  0  0
 23 40  1  0  0  0  0
 24 25  1  0  0  0  0
 25 26  1  0  0  0  0
 25 27  2  0  0  0  0
 26 41  1  0  0  0  0
 26 42  1  0  0  0  0
 26 43  1  0  0  0  0
M  CHG  1  15  -1
M  END
> <s_m_source_file>
AV-unprocessed.smi

> <i_m_source_file_index>
102

> <i_lp_mmshare_version>
43012

> <i_f3d_flags>
0

> <s_epik_input>
W0NIM11DKD1PKU9bQ0gyXVtDQEBIXTFPW0NASF0oW0NAQEhdKE9DKD1PKVtDSDNdKVtDQEhdMU9DKD1PKVtDSDNdKW4yW2NIXWMoRiljKD1PKVtuSF1jMj1P

> <s_epik_cmdline>
J2VwaWtfcHl0aG9uJywgJy1waCcsICc3LjAnLCAnLXRuJywgJzgnLCAnLW1hJywgJzIwMCcsICctbWV0YWxfYmluZGluZycsICctaW1hZScsICc8aW5maWxlLm1hZT4nLCAnLW9tYWUnLCAnPG91dGZpbGUubWFlPic=

> <r_epik_Ionization_Penalty>
1.40304

> <r_epik_Ionization_Penalty_Charging>
1.43915e-08

> <r_epik_Ionization_Penalty_Neutral>
1.40304

> <r_epik_State_Penalty>
1.48536

> <r_epik_Charging_Adjusted_Penalty>
1.48536

> <i_epik_Tot_Q>
-1

> <i_epik_Tot_abs_Q>
1

> <r_epik_Metal_State_Penalty>
0.00663881

> <b_epik_Metal_Only>
0

> <s_epik_Chemistry_Notes>
This compound has an ester and may undergo hydrolysis at high or low pH. This compound contains an acetal/aminal-like group ( X-CH(R)-Y where X, Y are N, S, or O) that may be acid/base labile, releasing an aldehyde.

> <s_lp_Force_Field>
OPLS_2005

> <r_lp_Energy>
22.9576

> <b_lp_Chiralities_Consistent>
1

> <s_lp_Variant>
AV-unprocessed.smi:102-27

> <Gold.Version>
5.8.1

> <Gold.Id.Protein>
6NUR|6NUR_protein|mol2

> <Gold.PLP.Fitness>
36.9802

> <Gold.PLP.PLP>
-28.3454

> <Gold.PLP.part.hbond>
-5.0000

> <Gold.PLP.part.metal>
0.0000

> <Gold.PLP.part.buried>
-5.3462

> <Gold.PLP.part.nonpolar>
-19.5301

> <Gold.PLP.part.repulsive>
0.4770

> <Gold.PLP.ligand.clash>
0.0000

> <Gold.PLP.ligand.torsion>
1.9016

> <Gold.PLP.Chemscore.Hbond>
4.0480

> <Gold.PLP.Chemscore.CHOScore>
0.0000

> <Gold.PLP.Chemscore.Metal>
0.0000

> <Gold.Chemscore.Hbonds>
donor molecule, donor type, donor heavy atom, donor atom, acceptor molecule, acceptor atom, score
      P1  H  6896  6908       L1    22  0.74
      P1  H  6931  6943       L1    14  0.60
      P1  H  6934  6947       L1    15  1.30
      P1  H 10752 10764       L1    27  1.00

> <Gold.PLP.Chemscore.Internal.Correction>
0.2941

> <Gold.Rescore>
     Score         DG    S(hbond)    S(metal)    S(lipo)     H(rot)  DE(clash)    DE(int)     intcor
      4.30      -8.45       2.87        0.00      30.96       4.00       0.03       4.11       ----

> <Gold.Chemscore.Fitness>
4.2999

> <Gold.Chemscore.DG>
-8.4455

> <Gold.Chemscore.ZeroCoef>
-5.4800

> <Gold.Chemscore.Hbond>
2.8654

> <Gold.Chemscore.Metal>
0.0000

> <Gold.Chemscore.Lipo>
30.9626

> <Gold.Chemscore.Internal_Hbond>
0.0000

> <Gold.Chemscore.DEClash>
0.0310

> <Gold.Chemscore.DEInternal>
4.1146

> <Gold.Chemscore.Rot>
3.9951

> <Gold.Chemscore.Internal.Correction>
   9.000000E+99

> <Gold.Chemscore.Hbonds>
donor molecule, donor type, donor heavy atom, donor atom, acceptor molecule, acceptor atom, score
      P1  H  6896  6908       L1    22  0.71
      P1  H  6931  6943       L1    14  0.04
      P1  H  6934  6947       L1    15  0.22
      P1  H 10752 10764       L1    27  1.00

> <Gold.Chemscore.Hbond.Weighted>
-9.5703

> <Gold.Chemscore.Metal.Weighted>
-0.0000

> <Gold.Chemscore.Lipo.Weighted>
-3.6226

> <Gold.Chemscore.Internal_Hbond.Weighted>
0.0000

> <Gold.Chemscore.DEClash.Weighted>
0.0310

> <Gold.Chemscore.DEInternal.Weighted>
4.1146

> <Gold.Chemscore.Rot.Weighted>
10.2274

> <Gold.Chemscore.Internal.Correction.Weighted>
   9.000000E+99

> <Gold.Protein.RotatedTorsions>
[ 6907 6896 6895 6894 ] final   88.33 input  -60.11 | X-H torsion
[ 7974 7965 7964 7962 ] final  -20.10 input  175.53 | X-H torsion
[ 8008 7997 7996 7995 ] final   60.89 input   59.86 | X-H torsion
[ 10167 10162 10161 10158 ] final -174.13 input  -65.29 | X-H torsion
[ 10718 10713 10712 10709 ] final  171.88 input   66.30 | X-H torsion
[ 10763 10752 10751 10750 ] final  -35.04 input  -60.55 | X-H torsion
[ 11005 11000 10999 10996 ] final   67.86 input  -57.11 | X-H torsion

> <Gold.Protein.ActiveResidues>
 VAL166  LYS551  ARG553  GLY616  TRP617  ASP618  TYR619  PRO620  LYS621  CYS622 
 ASP623  PHE694  ASN695  SER759  ASP760  ASP761  ALA762  ILE779  LEU786  VAL792 
 PHE793  MET794  SER795  GLU796  ALA797  LYS798  CYS799  TRP800  GLU811  SER814 

> <Gold.Protein.RotatedAtoms>
  152.5423  134.2138  159.8760 H   0  0  0  0  0  0  0  0  0  0  0  0  # atno 6907 bound_to 6896
  151.2119  133.4544  159.2606 H   0  0  0  0  0  0  0  0  0  0  0  0  # atno 6908 bound_to 6896
  151.0888  134.9916  159.8448 H   0  0  0  0  0  0  0  0  0  0  0  0  # atno 6909 bound_to 6896
  146.1806  140.4155  142.8496 H   0  0  0  0  0  0  0  0  0  0  0  0  # atno 7974 bound_to 7965
  155.5896  140.3492  155.4563 H   0  0  0  0  0  0  0  0  0  0  0  0  # atno 8008 bound_to 7997
  156.0311  140.1275  157.0281 H   0  0  0  0  0  0  0  0  0  0  0  0  # atno 8009 bound_to 7997
  154.4353  140.1043  156.6087 H   0  0  0  0  0  0  0  0  0  0  0  0  # atno 8010 bound_to 7997
  139.5651  144.1776  152.1299 H   0  0  0  0  0  0  0  0  0  0  0  0  # atno 10167 bound_to 10162
  156.9870  131.0136  151.2867 H   0  0  0  0  0  0  0  0  0  0  0  0  # atno 10718 bound_to 10713
  153.8566  135.6844  153.4787 H   0  0  0  0  0  0  0  0  0  0  0  0  # atno 10763 bound_to 10752
  153.1366  135.4675  154.9430 H   0  0  0  0  0  0  0  0  0  0  0  0  # atno 10764 bound_to 10752
  154.7778  135.3259  154.8004 H   0  0  0  0  0  0  0  0  0  0  0  0  # atno 10765 bound_to 10752
  139.9745  134.6844  156.0380 H   0  0  0  0  0  0  0  0  0  0  0  0  # atno 11005 bound_to 11000
  144.8309  140.6705  143.6292 LP  0  0  0  0  0  0  0  0  0  0  0  0  # atno 17320 bound_to 7965
  145.4087  139.1584  143.4138 LP  0  0  0  0  0  0  0  0  0  0  0  0  # atno 17321 bound_to 7965
  140.1297  144.5299  150.6810 LP  0  0  0  0  0  0  0  0  0  0  0  0  # atno 17342 bound_to 10162
  140.6933  143.2389  151.5070 LP  0  0  0  0  0  0  0  0  0  0  0  0  # atno 17343 bound_to 10162
  157.5486  130.8167  149.8116 LP  0  0  0  0  0  0  0  0  0  0  0  0  # atno 17370 bound_to 10713
  156.0222  130.3791  150.1929 LP  0  0  0  0  0  0  0  0  0  0  0  0  # atno 17371 bound_to 10713
  141.1423  133.6562  156.3766 LP  0  0  0  0  0  0  0  0  0  0  0  0  # atno 17394 bound_to 11000
  140.5222  134.6293  157.5322 LP  0  0  0  0  0  0  0  0  0  0  0  0  # atno 17395 bound_to 11000

$$$$
