AV-unprocessed.smi:2731|AV-procd|sdf|10530|dock6
  -GOLD-   2272014573D 1   1.00000     0.00000
 Structure written by MMmdl.
 45 46  0  0  0  0  0  0  0  0  1 V2000
  148.8452  131.0917  154.4075 C   0  0  0  0  0  0  0  0  0  0  0  0
  147.8607  131.9511  153.6682 C   0  0  0  0  0  0  0  0  0  0  0  0
  147.2429  131.4537  152.6101 N   0  0  0  0  0  0  0  0  0  0  0  0
  146.4564  132.4545  152.1677 N   0  0  0  0  0  0  0  0  0  0  0  0
  145.6194  132.2375  151.0034 C   0  0  0  0  0  0  0  0  0  0  0  0
  146.5810  133.5892  152.9458 C   0  0  0  0  0  0  0  0  0  0  0  0
  145.8215  134.8433  152.6530 C   0  0  0  0  0  0  0  0  0  0  0  0
  147.4809  133.2993  153.9371 C   0  0  0  0  0  0  0  0  0  0  0  0
  147.9819  134.1936  155.0469 C   0  0  0  0  0  0  0  0  0  0  0  0
  149.5154  134.3514  155.0574 C   0  0  0  0  0  0  0  0  0  0  0  0
  149.9385  135.6455  154.5267 N   0  0  0  0  0  0  0  0  0  0  0  0
  150.9828  136.3614  154.9722 C   0  0  0  0  0  0  0  0  0  0  0  0
  151.6626  136.0296  155.9446 O   0  0  0  0  0  0  0  0  0  0  0  0
  151.3071  137.6387  154.1871 C   0  0  0  0  0  0  0  0  0  0  0  0
  150.8244  138.8489  154.8651 N   0  0  0  0  0  0  0  0  0  0  0  0
  149.3726  139.0659  154.8919 C   0  0  0  0  0  0  0  0  0  0  0  0
  149.0302  140.4974  154.4466 C   0  0  0  0  0  0  0  0  0  0  0  0
  149.8170  141.5617  155.2382 C   0  0  0  0  0  0  0  0  0  0  0  0
  151.0148  141.0045  156.0402 C   0  0  0  0  0  0  0  0  0  0  0  0
  151.6609  139.7764  155.3856 C   0  0  0  0  0  0  0  0  0  0  0  0
  152.8875  139.6741  155.3695 O   0  0  0  0  0  0  0  0  0  0  0  0
  149.8030  131.0647  153.8876 H   0  0  0  0  0  0  0  0  0  0  0  0
  148.4858  130.0664  154.5004 H   0  0  0  0  0  0  0  0  0  0  0  0
  149.0253  131.4689  155.4138 H   0  0  0  0  0  0  0  0  0  0  0  0
  145.8143  133.0091  150.2584 H   0  0  0  0  0  0  0  0  0  0  0  0
  144.5698  132.2807  151.2955 H   0  0  0  0  0  0  0  0  0  0  0  0
  145.8233  131.2622  150.5583 H   0  0  0  0  0  0  0  0  0  0  0  0
  146.2521  135.6976  153.1746 H   0  0  0  0  0  0  0  0  0  0  0  0
  144.7817  134.7456  152.9650 H   0  0  0  0  0  0  0  0  0  0  0  0
  145.8361  135.0722  151.5875 H   0  0  0  0  0  0  0  0  0  0  0  0
  147.5313  135.1832  154.9734 H   0  0  0  0  0  0  0  0  0  0  0  0
  147.6631  133.8112  156.0168 H   0  0  0  0  0  0  0  0  0  0  0  0
  149.8875  134.2569  156.0777 H   0  0  0  0  0  0  0  0  0  0  0  0
  149.9745  133.5371  154.4945 H   0  0  0  0  0  0  0  0  0  0  0  0
  149.4294  135.9980  153.7293 H   0  0  0  0  0  0  0  0  0  0  0  0
  152.3869  137.7152  154.0493 H   0  0  0  0  0  0  0  0  0  0  0  0
  150.8872  137.5514  153.1837 H   0  0  0  0  0  0  0  0  0  0  0  0
  148.8612  138.3526  154.2448 H   0  0  0  0  0  0  0  0  0  0  0  0
  149.0058  138.8857  155.9033 H   0  0  0  0  0  0  0  0  0  0  0  0
  149.2717  140.5947  153.3871 H   0  0  0  0  0  0  0  0  0  0  0  0
  147.9584  140.6784  154.5288 H   0  0  0  0  0  0  0  0  0  0  0  0
  150.1615  142.3360  154.5516 H   0  0  0  0  0  0  0  0  0  0  0  0
  149.1418  142.0634  155.9322 H   0  0  0  0  0  0  0  0  0  0  0  0
  151.7598  141.7855  156.1971 H   0  0  0  0  0  0  0  0  0  0  0  0
  150.6764  140.6990  157.0308 H   0  0  0  0  0  0  0  0  0  0  0  0
  1  2  1  0  0  0  0
  1 22  1  0  0  0  0
  1 23  1  0  0  0  0
  1 24  1  0  0  0  0
  2  8  1  0  0  0  0
  2  3  2  0  0  0  0
  3  4  1  0  0  0  0
  4  5  1  0  0  0  0
  4  6  1  0  0  0  0
  5 25  1  0  0  0  0
  5 26  1  0  0  0  0
  5 27  1  0  0  0  0
  6  7  1  0  0  0  0
  6  8  2  0  0  0  0
  7 28  1  0  0  0  0
  7 29  1  0  0  0  0
  7 30  1  0  0  0  0
  8  9  1  0  0  0  0
  9 10  1  0  0  0  0
  9 31  1  0  0  0  0
  9 32  1  0  0  0  0
 10 11  1  0  0  0  0
 10 33  1  0  0  0  0
 10 34  1  0  0  0  0
 11 12  1  0  0  0  0
 11 35  1  0  0  0  0
 12 13  2  0  0  0  0
 12 14  1  0  0  0  0
 14 15  1  0  0  0  0
 14 36  1  0  0  0  0
 14 37  1  0  0  0  0
 15 20  1  0  0  0  0
 15 16  1  0  0  0  0
 16 17  1  0  0  0  0
 16 38  1  0  0  0  0
 16 39  1  0  0  0  0
 17 18  1  0  0  0  0
 17 40  1  0  0  0  0
 17 41  1  0  0  0  0
 18 19  1  0  0  0  0
 18 42  1  0  0  0  0
 18 43  1  0  0  0  0
 19 20  1  0  0  0  0
 19 44  1  0  0  0  0
 19 45  1  0  0  0  0
 20 21  2  0  0  0  0
M  END
> <s_m_source_file>
AV-unprocessed.smi

> <i_m_source_file_index>
2731

> <i_lp_mmshare_version>
43012

> <i_f3d_flags>
0

> <s_epik_input>
W0NIM11jMW5uKFtDSDNdKWMoW0NIM10pYzFbQ0gyXVtDSDJdW05IXUMoPU8pW0NIMl1OMltDSDJdW0NIMl1bQ0gyXVtDSDJdQzI9Tw==

> <s_epik_cmdline>
J2VwaWtfcHl0aG9uJywgJy1waCcsICc3LjAnLCAnLXRuJywgJzgnLCAnLW1hJywgJzIwMCcsICctbWV0YWxfYmluZGluZycsICctaW1hZScsICc8aW5maWxlLm1hZT4nLCAnLW9tYWUnLCAnPG91dGZpbGUubWFlPic=

> <r_lp_tautomer_probability>
1

> <r_epik_Ionization_Penalty>
0.0111965

> <r_epik_Ionization_Penalty_Charging>
0

> <r_epik_Ionization_Penalty_Neutral>
0.0111965

> <r_epik_State_Penalty>
0.00860379

> <r_epik_Charging_Adjusted_Penalty>
0.00860379

> <i_epik_Tot_Q>
0

> <i_epik_Tot_abs_Q>
0

> <r_epik_Metal_State_Penalty>
0.00844338

> <b_epik_Metal_Only>
0

> <s_lp_Force_Field>
OPLS_2005

> <r_lp_Energy>
7.02137

> <b_lp_Chiralities_Consistent>
1

> <s_lp_Variant>
AV-unprocessed.smi:2731-1

> <Gold.Version>
5.8.1

> <Gold.Id.Protein>
6NUR|6NUR_protein|mol2

> <Gold.PLP.Fitness>
45.0537

> <Gold.PLP.PLP>
-37.6880

> <Gold.PLP.part.hbond>
-3.6206

> <Gold.PLP.part.metal>
0.0000

> <Gold.PLP.part.buried>
-2.3079

> <Gold.PLP.part.nonpolar>
-33.6494

> <Gold.PLP.part.repulsive>
1.3654

> <Gold.PLP.ligand.clash>
0.0000

> <Gold.PLP.ligand.torsion>
0.8332

> <Gold.PLP.Chemscore.Hbond>
3.0000

> <Gold.PLP.Chemscore.CHOScore>
0.0000

> <Gold.PLP.Chemscore.Metal>
0.0000

> <Gold.Chemscore.Hbonds>
donor molecule, donor type, donor heavy atom, donor atom, acceptor molecule, acceptor atom, score
      L1  H    11    35       P1  7948  1.00
      P1  H  7997  8010       L1    21  1.00
      P1  H 10752 10763       L1    13  0.85

> <Gold.PLP.Chemscore.Internal.Correction>
0.0323

> <Gold.Rescore>
     Score         DG    S(hbond)    S(metal)    S(lipo)     H(rot)  DE(clash)    DE(int)     intcor
     14.17     -14.88       1.83        0.00      67.02       1.78       0.01       0.70       ----

> <Gold.Chemscore.Fitness>
14.1667

> <Gold.Chemscore.DG>
-14.8783

> <Gold.Chemscore.ZeroCoef>
-5.4800

> <Gold.Chemscore.Hbond>
1.8278

> <Gold.Chemscore.Metal>
0.0000

> <Gold.Chemscore.Lipo>
67.0227

> <Gold.Chemscore.Internal_Hbond>
0.0000

> <Gold.Chemscore.DEClash>
0.0073

> <Gold.Chemscore.DEInternal>
0.7042

> <Gold.Chemscore.Rot>
1.7767

> <Gold.Chemscore.Internal.Correction>
   9.000000E+99

> <Gold.Chemscore.Hbonds>
donor molecule, donor type, donor heavy atom, donor atom, acceptor molecule, acceptor atom, score
      L1  H    11    35       P1  7948  0.59
      P1  H  7997  8010       L1    21  1.00
      P1  H 10752 10763       L1    13  0.15

> <Gold.Chemscore.Hbond.Weighted>
-6.1049

> <Gold.Chemscore.Metal.Weighted>
-0.0000

> <Gold.Chemscore.Lipo.Weighted>
-7.8417

> <Gold.Chemscore.Internal_Hbond.Weighted>
0.0000

> <Gold.Chemscore.DEClash.Weighted>
0.0073

> <Gold.Chemscore.DEInternal.Weighted>
0.7042

> <Gold.Chemscore.Rot.Weighted>
4.5483

> <Gold.Chemscore.Internal.Correction.Weighted>
   9.000000E+99

> <Gold.Protein.RotatedTorsions>
[ 6907 6896 6895 6894 ] final  -94.85 input  -60.11 | X-H torsion
[ 7974 7965 7964 7962 ] final   45.04 input  175.53 | X-H torsion
[ 8008 7997 7996 7995 ] final  106.19 input   59.86 | X-H torsion
[ 10167 10162 10161 10158 ] final    2.47 input  -65.29 | X-H torsion
[ 10718 10713 10712 10709 ] final   24.55 input   66.30 | X-H torsion
[ 10763 10752 10751 10750 ] final   87.78 input  -60.55 | X-H torsion
[ 11005 11000 10999 10996 ] final  130.15 input  -57.11 | X-H torsion

> <Gold.Protein.ActiveResidues>
 VAL166  LYS551  ARG553  GLY616  TRP617  ASP618  TYR619  PRO620  LYS621  CYS622 
 ASP623  PHE694  ASN695  SER759  ASP760  ASP761  ALA762  ILE779  LEU786  VAL792 
 PHE793  MET794  SER795  GLU796  ALA797  LYS798  CYS799  TRP800  GLU811  SER814 

> <Gold.Protein.RotatedAtoms>
  150.6951  134.1748  159.4225 H   0  0  0  0  0  0  0  0  0  0  0  0  # atno 6907 bound_to 6896
  151.9725  135.0067  160.0563 H   0  0  0  0  0  0  0  0  0  0  0  0  # atno 6908 bound_to 6896
  152.1829  133.4684  159.5004 H   0  0  0  0  0  0  0  0  0  0  0  0  # atno 6909 bound_to 6896
  146.0515  139.5008  142.9715 H   0  0  0  0  0  0  0  0  0  0  0  0  # atno 7974 bound_to 7965
  156.1722  140.3117  155.8995 H   0  0  0  0  0  0  0  0  0  0  0  0  # atno 8008 bound_to 7997
  155.3562  140.0474  157.3063 H   0  0  0  0  0  0  0  0  0  0  0  0  # atno 8009 bound_to 7997
  154.5253  140.2212  155.8911 H   0  0  0  0  0  0  0  0  0  0  0  0  # atno 8010 bound_to 7997
  140.6633  143.7246  150.7779 H   0  0  0  0  0  0  0  0  0  0  0  0  # atno 10167 bound_to 10162
  157.1813  130.6804  149.6114 H   0  0  0  0  0  0  0  0  0  0  0  0  # atno 10718 bound_to 10713
  153.1703  135.4531  154.9893 H   0  0  0  0  0  0  0  0  0  0  0  0  # atno 10763 bound_to 10752
  154.7961  135.3238  154.7666 H   0  0  0  0  0  0  0  0  0  0  0  0  # atno 10764 bound_to 10752
  153.8143  135.6952  153.4891 H   0  0  0  0  0  0  0  0  0  0  0  0  # atno 10765 bound_to 10752
  139.9656  134.9591  156.9252 H   0  0  0  0  0  0  0  0  0  0  0  0  # atno 11005 bound_to 11000
  145.6716  141.0215  143.1655 LP  0  0  0  0  0  0  0  0  0  0  0  0  # atno 17320 bound_to 7965
  144.7125  139.8317  143.7410 LP  0  0  0  0  0  0  0  0  0  0  0  0  # atno 17321 bound_to 7965
  140.0919  143.4870  152.2474 LP  0  0  0  0  0  0  0  0  0  0  0  0  # atno 17342 bound_to 10162
  139.5874  144.7536  151.3486 LP  0  0  0  0  0  0  0  0  0  0  0  0  # atno 17343 bound_to 10162
  155.9724  130.4646  150.6222 LP  0  0  0  0  0  0  0  0  0  0  0  0  # atno 17370 bound_to 10713
  157.3950  131.0801  151.1360 LP  0  0  0  0  0  0  0  0  0  0  0  0  # atno 17371 bound_to 10713
  140.5405  134.0725  155.7340 LP  0  0  0  0  0  0  0  0  0  0  0  0  # atno 17394 bound_to 11000
  141.1335  133.9261  157.2484 LP  0  0  0  0  0  0  0  0  0  0  0  0  # atno 17395 bound_to 11000

$$$$
