AV-unprocessed.smi:3151|AV-procd|sdf|12015|dock4
  -GOLD-   2272017423D 1   1.00000     0.00000
 Structure written by MMmdl.
 36 37  0  0  0  0  0  0  0  0  2 V2000
  152.5812  140.0557  156.4107 O   0  0  0  0  0  0  0  0  0  0  0  0
  151.6669  140.4095  157.1556 C   0  0  0  0  0  0  0  0  0  0  0  0
  151.9650  140.8589  158.5901 C   0  0  0  0  0  0  0  0  0  0  0  0
  152.3567  142.3477  158.6969 C   0  0  0  0  0  0  0  0  0  0  0  0
  152.1993  142.9561  160.0974 C   0  0  0  0  0  0  0  0  0  0  0  0
  152.0422  144.4679  159.8814 C   0  0  0  0  0  0  0  0  0  0  0  0
  151.7467  144.6655  158.3875 C   0  0  0  0  0  0  0  0  0  0  0  0
  151.5031  143.2657  157.8202 C   0  0  0  0  0  0  0  0  0  0  0  0
  150.3796  140.4322  156.7768 N   0  0  0  0  0  0  0  0  0  0  0  0
  149.8924  140.0293  155.4632 C   0  0  0  0  0  0  0  0  0  0  0  0
  149.6817  141.2422  154.5422 C   0  0  0  0  0  0  0  0  0  0  0  0
  148.2693  141.4244  154.2049 N   0  0  0  0  0  0  0  0  0  0  0  0
  147.3677  142.2597  154.8128 C   0  0  0  0  0  0  0  0  0  0  0  0
  146.1738  142.0854  154.1610 C   0  0  0  0  0  0  0  0  0  0  0  0
  146.3973  141.1512  153.1852 N   0  3  0  0  0  0  0  0  0  0  0  0
  147.6722  140.7498  153.2141 C   0  0  0  0  0  0  0  0  0  0  0  0
  151.0746  140.6720  159.1912 H   0  0  0  0  0  0  0  0  0  0  0  0
  152.7570  140.2380  159.0122 H   0  0  0  0  0  0  0  0  0  0  0  0
  153.3960  142.4700  158.3859 H   0  0  0  0  0  0  0  0  0  0  0  0
  151.2980  142.5653  160.5723 H   0  0  0  0  0  0  0  0  0  0  0  0
  153.0406  142.7192  160.7496 H   0  0  0  0  0  0  0  0  0  0  0  0
  151.2359  144.8615  160.5014 H   0  0  0  0  0  0  0  0  0  0  0  0
  152.9540  144.9983  160.1586 H   0  0  0  0  0  0  0  0  0  0  0  0
  150.9001  145.3308  158.2157 H   0  0  0  0  0  0  0  0  0  0  0  0
  152.6160  145.1099  157.9007 H   0  0  0  0  0  0  0  0  0  0  0  0
  151.7601  143.1950  156.7627 H   0  0  0  0  0  0  0  0  0  0  0  0
  150.4478  143.0083  157.9240 H   0  0  0  0  0  0  0  0  0  0  0  0
  149.6909  140.7389  157.4490 H   0  0  0  0  0  0  0  0  0  0  0  0
  150.5892  139.3207  155.0117 H   0  0  0  0  0  0  0  0  0  0  0  0
  148.9512  139.4949  155.5966 H   0  0  0  0  0  0  0  0  0  0  0  0
  150.0349  142.1570  155.0202 H   0  0  0  0  0  0  0  0  0  0  0  0
  150.2387  141.1313  153.6103 H   0  0  0  0  0  0  0  0  0  0  0  0
  147.6353  142.8984  155.6420 H   0  0  0  0  0  0  0  0  0  0  0  0
  145.2074  142.5435  154.3150 H   0  0  0  0  0  0  0  0  0  0  0  0
  148.1293  140.0230  152.5659 H   0  0  0  0  0  0  0  0  0  0  0  0
  145.7002  140.8108  152.5348 H   0  0  0  0  0  0  0  0  0  0  0  0
  1  2  2  0  0  0  0
  2  3  1  0  0  0  0
  2  9  1  0  0  0  0
  3  4  1  0  0  0  0
  3 17  1  0  0  0  0
  3 18  1  0  0  0  0
  4  8  1  0  0  0  0
  4  5  1  0  0  0  0
  4 19  1  0  0  0  0
  5  6  1  0  0  0  0
  5 20  1  0  0  0  0
  5 21  1  0  0  0  0
  6  7  1  0  0  0  0
  6 22  1  0  0  0  0
  6 23  1  0  0  0  0
  7  8  1  0  0  0  0
  7 24  1  0  0  0  0
  7 25  1  0  0  0  0
  8 26  1  0  0  0  0
  8 27  1  0  0  0  0
  9 10  1  0  0  0  0
  9 28  1  0  0  0  0
 10 11  1  0  0  0  0
 10 29  1  0  0  0  0
 10 30  1  0  0  0  0
 11 12  1  0  0  0  0
 11 31  1  0  0  0  0
 11 32  1  0  0  0  0
 12 16  1  0  0  0  0
 12 13  1  0  0  0  0
 13 14  2  0  0  0  0
 13 33  1  0  0  0  0
 14 15  1  0  0  0  0
 14 34  1  0  0  0  0
 15 16  2  0  0  0  0
 15 36  1  0  0  0  0
 16 35  1  0  0  0  0
M  CHG  1  15   1
M  END
> <s_m_source_file>
AV-unprocessed.smi

> <i_m_source_file_index>
3151

> <i_lp_mmshare_version>
43012

> <i_f3d_flags>
0

> <s_epik_input>
W0NIMl0xW0NIMl1bQ0gyXVtDSDJdW0NIXTFbQ0gyXUMoPU8pW05IXVtDSDJdW0NIMl1uMltjSF1bY0hdbltjSF0y

> <s_epik_cmdline>
J2VwaWtfcHl0aG9uJywgJy1waCcsICc3LjAnLCAnLXRuJywgJzgnLCAnLW1hJywgJzIwMCcsICctbWV0YWxfYmluZGluZycsICctaW1hZScsICc8aW5maWxlLm1hZT4nLCAnLW9tYWUnLCAnPG91dGZpbGUubWFlPic=

> <r_lp_tautomer_probability>
1

> <r_epik_Ionization_Penalty>
0.269485

> <r_epik_Ionization_Penalty_Charging>
0

> <r_epik_Ionization_Penalty_Neutral>
0.269485

> <r_epik_State_Penalty>
0.261564

> <r_epik_Charging_Adjusted_Penalty>
0.261564

> <i_epik_Tot_Q>
1

> <i_epik_Tot_abs_Q>
1

> <r_epik_Metal_State_Penalty>
0.546677

> <b_epik_Metal_Only>
0

> <s_lp_Force_Field>
OPLS_2005

> <r_lp_Energy>
22.4511

> <b_lp_Chiralities_Consistent>
1

> <s_lp_Variant>
AV-unprocessed.smi:3151-1

> <Gold.Version>
5.8.1

> <Gold.Id.Protein>
6NUR|6NUR_protein|mol2

> <Gold.PLP.Fitness>
49.4340

> <Gold.PLP.PLP>
-37.2471

> <Gold.PLP.part.hbond>
-2.0000

> <Gold.PLP.part.metal>
0.0000

> <Gold.PLP.part.buried>
-0.9673

> <Gold.PLP.part.nonpolar>
-34.2065

> <Gold.PLP.part.repulsive>
0.0399

> <Gold.PLP.ligand.clash>
0.0000

> <Gold.PLP.ligand.torsion>
1.3809

> <Gold.PLP.Chemscore.Hbond>
3.0000

> <Gold.PLP.Chemscore.CHOScore>
1.9749

> <Gold.PLP.Chemscore.Metal>
0.0000

> <Gold.Chemscore.Hbonds>
donor molecule, donor type, donor heavy atom, donor atom, acceptor molecule, acceptor atom, score
      L1  H    15    36       P1 10175  1.41
      P1  H  7997  8009       L1     1  1.00
      L1  C    13    33       P1  8028  0.98
      L1  C    16    35       P1  7957  1.00

> <Gold.PLP.Chemscore.Internal.Correction>
0.0238

> <Gold.Rescore>
     Score         DG    S(hbond)    S(metal)    S(lipo)     H(rot)  DE(clash)    DE(int)     intcor
     15.72     -17.18       1.97        0.00      89.16       2.08       0.03       1.43       ----

> <Gold.Chemscore.Fitness>
15.7241

> <Gold.Chemscore.DG>
-17.1814

> <Gold.Chemscore.ZeroCoef>
-5.4800

> <Gold.Chemscore.Hbond>
1.9725

> <Gold.Chemscore.Metal>
0.0000

> <Gold.Chemscore.Lipo>
89.1593

> <Gold.Chemscore.Internal_Hbond>
0.0000

> <Gold.Chemscore.DEClash>
0.0323

> <Gold.Chemscore.DEInternal>
1.4250

> <Gold.Chemscore.Rot>
2.0774

> <Gold.Chemscore.Internal.Correction>
   9.000000E+99

> <Gold.Chemscore.Hbonds>
donor molecule, donor type, donor heavy atom, donor atom, acceptor molecule, acceptor atom, score
      L1  H    15    36       P1 10175  0.13
      P1  H  7997  8009       L1     1  0.99

> <Gold.Chemscore.Hbond.Weighted>
-6.5880

> <Gold.Chemscore.Metal.Weighted>
-0.0000

> <Gold.Chemscore.Lipo.Weighted>
-10.4316

> <Gold.Chemscore.Internal_Hbond.Weighted>
0.0000

> <Gold.Chemscore.DEClash.Weighted>
0.0323

> <Gold.Chemscore.DEInternal.Weighted>
1.4250

> <Gold.Chemscore.Rot.Weighted>
5.3183

> <Gold.Chemscore.Internal.Correction.Weighted>
   9.000000E+99

> <Gold.Protein.RotatedTorsions>
[ 6907 6896 6895 6894 ] final  172.44 input  -60.11 | X-H torsion
[ 7974 7965 7964 7962 ] final -119.15 input  175.53 | X-H torsion
[ 8008 7997 7996 7995 ] final -159.05 input   59.86 | X-H torsion
[ 10167 10162 10161 10158 ] final  -26.94 input  -65.29 | X-H torsion
[ 10718 10713 10712 10709 ] final   99.69 input   66.30 | X-H torsion
[ 10763 10752 10751 10750 ] final  -92.98 input  -60.55 | X-H torsion
[ 11005 11000 10999 10996 ] final   31.54 input  -57.11 | X-H torsion

> <Gold.Protein.ActiveResidues>
 VAL166  LYS551  ARG553  GLY616  TRP617  ASP618  TYR619  PRO620  LYS621  CYS622 
 ASP623  PHE694  ASN695  SER759  ASP760  ASP761  ALA762  ILE779  LEU786  VAL792 
 PHE793  MET794  SER795  GLU796  ALA797  LYS798  CYS799  TRP800  GLU811  SER814 

> <Gold.Protein.RotatedAtoms>
  151.7842  133.3352  159.3480 H   0  0  0  0  0  0  0  0  0  0  0  0  # atno 6907 bound_to 6896
  150.7415  134.5902  159.5993 H   0  0  0  0  0  0  0  0  0  0  0  0  # atno 6908 bound_to 6896
  152.3255  134.7328  160.0354 H   0  0  0  0  0  0  0  0  0  0  0  0  # atno 6909 bound_to 6896
  145.0658  140.8323  143.4125 H   0  0  0  0  0  0  0  0  0  0  0  0  # atno 7974 bound_to 7965
  155.7568  140.0834  157.2175 H   0  0  0  0  0  0  0  0  0  0  0  0  # atno 8008 bound_to 7997
  154.4007  140.1550  156.2842 H   0  0  0  0  0  0  0  0  0  0  0  0  # atno 8009 bound_to 7997
  155.8878  140.3417  155.5937 H   0  0  0  0  0  0  0  0  0  0  0  0  # atno 8010 bound_to 7997
  140.7280  143.4136  151.1066 H   0  0  0  0  0  0  0  0  0  0  0  0  # atno 10167 bound_to 10162
  157.6870  131.0677  150.4987 H   0  0  0  0  0  0  0  0  0  0  0  0  # atno 10718 bound_to 10713
  154.6915  135.5211  153.8398 H   0  0  0  0  0  0  0  0  0  0  0  0  # atno 10763 bound_to 10752
  153.0635  135.6577  154.0416 H   0  0  0  0  0  0  0  0  0  0  0  0  # atno 10764 bound_to 10752
  154.0290  135.2987  155.3351 H   0  0  0  0  0  0  0  0  0  0  0  0  # atno 10765 bound_to 10752
  140.2828  134.2953  155.7796 H   0  0  0  0  0  0  0  0  0  0  0  0  # atno 11005 bound_to 11000
  145.1353  139.2606  143.5518 LP  0  0  0  0  0  0  0  0  0  0  0  0  # atno 17320 bound_to 7965
  146.3526  140.1015  142.8608 LP  0  0  0  0  0  0  0  0  0  0  0  0  # atno 17321 bound_to 7965
  139.7772  143.8408  152.3131 LP  0  0  0  0  0  0  0  0  0  0  0  0  # atno 17342 bound_to 10162
  139.8346  144.7238  150.9407 LP  0  0  0  0  0  0  0  0  0  0  0  0  # atno 17343 bound_to 10162
  156.5310  130.4185  149.6201 LP  0  0  0  0  0  0  0  0  0  0  0  0  # atno 17370 bound_to 10713
  156.3069  130.7208  151.2092 LP  0  0  0  0  0  0  0  0  0  0  0  0  # atno 17371 bound_to 10713
  141.2160  133.7536  156.9507 LP  0  0  0  0  0  0  0  0  0  0  0  0  # atno 17394 bound_to 11000
  140.1267  134.9382  157.2280 LP  0  0  0  0  0  0  0  0  0  0  0  0  # atno 17395 bound_to 11000

$$$$
