AV-unprocessed.smi:3188|AV-procd|sdf|12185|dock5
  -GOLD-   2272018 23D 1   1.00000     0.00000
 Structure written by MMmdl.
 40 41  0  0  0  0  0  0  0  0  2 V2000
  151.3621  144.8838  160.1647 C   0  0  0  0  0  0  0  0  0  0  0  0
  152.0173  143.5243  159.9792 C   0  0  0  0  0  0  0  0  0  0  0  0
  153.1037  143.2048  160.7083 C   0  0  0  0  0  0  0  0  0  0  0  0
  153.7948  141.8618  160.6660 C   0  0  0  0  0  0  0  0  0  0  0  0
  152.8618  140.7815  160.1145 C   0  0  0  0  0  0  0  0  0  0  0  0
  152.2007  141.2283  158.8006 C   0  0  1  0  0  0  0  0  0  0  0  0
  151.3519  140.0721  158.2370 C   0  0  0  0  0  0  0  0  0  0  0  0
  151.3829  142.5467  158.9667 C   0  0  2  0  0  0  0  0  0  0  0  0
  151.1328  143.1943  157.5786 C   0  0  0  0  0  0  0  0  0  0  0  0
  150.0185  142.5618  156.8451 N   0  3  0  0  0  0  0  0  0  0  0  0
  150.4362  141.7134  155.7112 C   0  0  0  0  0  0  0  0  0  0  0  0
  149.7107  140.3586  155.7270 C   0  0  0  0  0  0  0  0  0  0  0  0
  150.5142  139.3103  155.1240 N   0  0  0  0  0  0  0  0  0  0  0  0
  150.1325  138.0347  154.7641 C   0  0  0  0  0  0  0  0  0  0  0  0
  151.2845  137.4840  154.2795 C   0  0  0  0  0  0  0  0  0  0  0  0
  152.3029  138.4315  154.3653 N   0  0  0  0  0  0  0  0  0  0  0  0
  151.8268  139.5261  154.8683 N   0  0  0  0  0  0  0  0  0  0  0  0
  150.2906  144.7738  160.3332 H   0  0  0  0  0  0  0  0  0  0  0  0
  151.5219  145.5175  159.2925 H   0  0  0  0  0  0  0  0  0  0  0  0
  151.7765  145.4103  161.0253 H   0  0  0  0  0  0  0  0  0  0  0  0
  153.5272  143.9281  161.3903 H   0  0  0  0  0  0  0  0  0  0  0  0
  154.6932  141.9497  160.0545 H   0  0  0  0  0  0  0  0  0  0  0  0
  154.1162  141.5925  161.6724 H   0  0  0  0  0  0  0  0  0  0  0  0
  153.4258  139.8598  159.9654 H   0  0  0  0  0  0  0  0  0  0  0  0
  152.0903  140.5549  160.8523 H   0  0  0  0  0  0  0  0  0  0  0  0
  153.0087  141.4197  158.0924 H   0  0  0  0  0  0  0  0  0  0  0  0
  150.5131  139.8409  158.8943 H   0  0  0  0  0  0  0  0  0  0  0  0
  151.9483  139.1646  158.1369 H   0  0  0  0  0  0  0  0  0  0  0  0
  150.9483  140.2929  157.2504 H   0  0  0  0  0  0  0  0  0  0  0  0
  150.4168  142.2745  159.3950 H   0  0  0  0  0  0  0  0  0  0  0  0
  150.9330  144.2594  157.7045 H   0  0  0  0  0  0  0  0  0  0  0  0
  152.0123  143.1207  156.9412 H   0  0  0  0  0  0  0  0  0  0  0  0
  149.4736  142.0065  157.4892 H   0  0  0  0  0  0  0  0  0  0  0  0
  150.2303  142.2291  154.7720 H   0  0  0  0  0  0  0  0  0  0  0  0
  151.5147  141.5597  155.7622 H   0  0  0  0  0  0  0  0  0  0  0  0
  149.4894  140.0674  156.7544 H   0  0  0  0  0  0  0  0  0  0  0  0
  148.7531  140.4263  155.2077 H   0  0  0  0  0  0  0  0  0  0  0  0
  149.1300  137.6496  154.8813 H   0  0  0  0  0  0  0  0  0  0  0  0
  151.4648  136.4955  153.8832 H   0  0  0  0  0  0  0  0  0  0  0  0
  149.4316  143.2997  156.4816 H   0  0  0  0  0  0  0  0  0  0  0  0
  1  2  1  0  0  0  0
  1 18  1  0  0  0  0
  1 19  1  0  0  0  0
  1 20  1  0  0  0  0
  2  8  1  0  0  0  0
  2  3  2  0  0  0  0
  3  4  1  0  0  0  0
  3 21  1  0  0  0  0
  4  5  1  0  0  0  0
  4 22  1  0  0  0  0
  4 23  1  0  0  0  0
  5  6  1  0  0  0  0
  5 24  1  0  0  0  0
  5 25  1  0  0  0  0
  6  7  1  0  0  0  0
  6  8  1  0  0  0  0
  6 26  1  0  0  0  0
  7 27  1  0  0  0  0
  7 28  1  0  0  0  0
  7 29  1  0  0  0  0
  8  9  1  0  0  0  0
  8 30  1  0  0  0  0
  9 10  1  0  0  0  0
  9 31  1  0  0  0  0
  9 32  1  0  0  0  0
 10 11  1  0  0  0  0
 10 33  1  0  0  0  0
 10 40  1  0  0  0  0
 11 12  1  0  0  0  0
 11 34  1  0  0  0  0
 11 35  1  0  0  0  0
 12 13  1  0  0  0  0
 12 36  1  0  0  0  0
 12 37  1  0  0  0  0
 13 17  1  0  0  0  0
 13 14  1  0  0  0  0
 14 15  2  0  0  0  0
 14 38  1  0  0  0  0
 15 16  1  0  0  0  0
 15 39  1  0  0  0  0
 16 17  2  0  0  0  0
M  CHG  1  10   1
M  END
> <s_m_source_file>
AV-unprocessed.smi

> <i_m_source_file_index>
3188

> <i_lp_mmshare_version>
43012

> <i_f3d_flags>
0

> <s_epik_input>
W0NIM11DMT1bQ0hdW0NIMl1bQ0gyXVtDQEBIXShbQ0gzXSlbQ0BIXTFbQ0gyXVtOSF1bQ0gyXVtDSDJdbjJbY0hdW2NIXW5uMg==

> <s_epik_cmdline>
J2VwaWtfcHl0aG9uJywgJy1waCcsICc3LjAnLCAnLXRuJywgJzgnLCAnLW1hJywgJzIwMCcsICctbWV0YWxfYmluZGluZycsICctaW1hZScsICc8aW5maWxlLm1hZT4nLCAnLW9tYWUnLCAnPG91dGZpbGUubWFlPic=

> <r_lp_tautomer_probability>
1

> <r_epik_Ionization_Penalty>
0.007268

> <r_epik_Ionization_Penalty_Charging>
0.00726786

> <r_epik_Ionization_Penalty_Neutral>
1.34882e-07

> <r_epik_State_Penalty>
0.00542069

> <r_epik_Charging_Adjusted_Penalty>
0.0126886

> <i_epik_Tot_Q>
1

> <i_epik_Tot_abs_Q>
1

> <r_epik_Metal_State_Penalty>
-0

> <b_epik_Metal_Only>
0

> <s_lp_Force_Field>
OPLS_2005

> <r_lp_Energy>
14.3192

> <b_lp_Chiralities_Consistent>
1

> <s_lp_Variant>
AV-unprocessed.smi:3188-3

> <Gold.Version>
5.8.1

> <Gold.Id.Protein>
6NUR|6NUR_protein|mol2

> <Gold.PLP.Fitness>
46.7327

> <Gold.PLP.PLP>
-37.5728

> <Gold.PLP.part.hbond>
-2.0000

> <Gold.PLP.part.metal>
0.0000

> <Gold.PLP.part.buried>
-4.5910

> <Gold.PLP.part.nonpolar>
-31.3410

> <Gold.PLP.part.repulsive>
0.1670

> <Gold.PLP.ligand.clash>
0.0000

> <Gold.PLP.ligand.torsion>
1.2237

> <Gold.PLP.Chemscore.Hbond>
3.0000

> <Gold.PLP.Chemscore.CHOScore>
0.8448

> <Gold.PLP.Chemscore.Metal>
0.0000

> <Gold.Chemscore.Hbonds>
donor molecule, donor type, donor heavy atom, donor atom, acceptor molecule, acceptor atom, score
      L1  H    10    40       P1  8028  2.00
      P1  H  7989  7998       L1    17  1.00
      L1  C    15    39       P1  7949  0.84

> <Gold.PLP.Chemscore.Internal.Correction>
0.0728

> <Gold.Rescore>
     Score         DG    S(hbond)    S(metal)    S(lipo)     H(rot)  DE(clash)    DE(int)     intcor
     18.66     -19.83       1.85        0.00     108.88       1.78       0.02       1.16       ----

> <Gold.Chemscore.Fitness>
18.6572

> <Gold.Chemscore.DG>
-19.8313

> <Gold.Chemscore.ZeroCoef>
-5.4800

> <Gold.Chemscore.Hbond>
1.8478

> <Gold.Chemscore.Metal>
0.0000

> <Gold.Chemscore.Lipo>
108.8766

> <Gold.Chemscore.Internal_Hbond>
0.0000

> <Gold.Chemscore.DEClash>
0.0186

> <Gold.Chemscore.DEInternal>
1.1555

> <Gold.Chemscore.Rot>
1.7809

> <Gold.Chemscore.Internal.Correction>
   9.000000E+99

> <Gold.Chemscore.Hbonds>
donor molecule, donor type, donor heavy atom, donor atom, acceptor molecule, acceptor atom, score
      L1  H    10    40       P1  8028  1.00
      P1  H  7989  7998       L1    17  0.18

> <Gold.Chemscore.Hbond.Weighted>
-6.1718

> <Gold.Chemscore.Metal.Weighted>
-0.0000

> <Gold.Chemscore.Lipo.Weighted>
-12.7386

> <Gold.Chemscore.Internal_Hbond.Weighted>
0.0000

> <Gold.Chemscore.DEClash.Weighted>
0.0186

> <Gold.Chemscore.DEInternal.Weighted>
1.1555

> <Gold.Chemscore.Rot.Weighted>
4.5590

> <Gold.Chemscore.Internal.Correction.Weighted>
   9.000000E+99

> <Gold.Protein.RotatedTorsions>
[ 6907 6896 6895 6894 ] final   19.17 input  -60.11 | X-H torsion
[ 7974 7965 7964 7962 ] final  -21.95 input  175.53 | X-H torsion
[ 8008 7997 7996 7995 ] final  -26.21 input   59.86 | X-H torsion
[ 10167 10162 10161 10158 ] final   45.80 input  -65.29 | X-H torsion
[ 10718 10713 10712 10709 ] final  126.01 input   66.30 | X-H torsion
[ 10763 10752 10751 10750 ] final  -31.06 input  -60.55 | X-H torsion
[ 11005 11000 10999 10996 ] final    7.17 input  -57.11 | X-H torsion

> <Gold.Protein.ActiveResidues>
 VAL166  LYS551  ARG553  GLY616  TRP617  ASP618  TYR619  PRO620  LYS621  CYS622 
 ASP623  PHE694  ASN695  SER759  ASP760  ASP761  ALA762  ILE779  LEU786  VAL792 
 PHE793  MET794  SER795  GLU796  ALA797  LYS798  CYS799  TRP800  GLU811  SER814 

> <Gold.Protein.RotatedAtoms>
  151.8768  135.0469  160.0484 H   0  0  0  0  0  0  0  0  0  0  0  0  # atno 6907 bound_to 6896
  152.2545  133.5239  159.5353 H   0  0  0  0  0  0  0  0  0  0  0  0  # atno 6908 bound_to 6896
  150.7095  134.0831  159.3947 H   0  0  0  0  0  0  0  0  0  0  0  0  # atno 6909 bound_to 6896
  146.1703  140.4412  142.8535 H   0  0  0  0  0  0  0  0  0  0  0  0  # atno 7974 bound_to 7965
  154.4436  140.1905  156.0740 H   0  0  0  0  0  0  0  0  0  0  0  0  # atno 8008 bound_to 7997
  156.0489  140.3311  155.7302 H   0  0  0  0  0  0  0  0  0  0  0  0  # atno 8009 bound_to 7997
  155.5586  140.0601  157.2824 H   0  0  0  0  0  0  0  0  0  0  0  0  # atno 8010 bound_to 7997
  140.3204  144.2712  150.6184 H   0  0  0  0  0  0  0  0  0  0  0  0  # atno 10167 bound_to 10162
  157.5455  131.1096  150.8789 H   0  0  0  0  0  0  0  0  0  0  0  0  # atno 10718 bound_to 10713
  153.7912  135.6897  153.4871 H   0  0  0  0  0  0  0  0  0  0  0  0  # atno 10763 bound_to 10752
  153.1748  135.4529  154.9949 H   0  0  0  0  0  0  0  0  0  0  0  0  # atno 10764 bound_to 10752
  154.8044  135.3350  154.7408 H   0  0  0  0  0  0  0  0  0  0  0  0  # atno 10765 bound_to 10752
  140.5513  134.0280  155.7938 H   0  0  0  0  0  0  0  0  0  0  0  0  # atno 11005 bound_to 11000
  144.8154  140.6458  143.6388 LP  0  0  0  0  0  0  0  0  0  0  0  0  # atno 17320 bound_to 7965
  145.4357  139.1543  143.3998 LP  0  0  0  0  0  0  0  0  0  0  0  0  # atno 17321 bound_to 7965
  140.5489  143.2210  151.7961 LP  0  0  0  0  0  0  0  0  0  0  0  0  # atno 17342 bound_to 10162
  139.4875  144.4503  151.9662 LP  0  0  0  0  0  0  0  0  0  0  0  0  # atno 17343 bound_to 10162
  156.9329  130.5356  149.5279 LP  0  0  0  0  0  0  0  0  0  0  0  0  # atno 17370 bound_to 10713
  156.0532  130.5598  150.9034 LP  0  0  0  0  0  0  0  0  0  0  0  0  # atno 17371 bound_to 10713
  141.1170  133.9524  157.2803 LP  0  0  0  0  0  0  0  0  0  0  0  0  # atno 17394 bound_to 11000
  139.9454  135.0185  156.8835 LP  0  0  0  0  0  0  0  0  0  0  0  0  # atno 17395 bound_to 11000

$$$$
