AV-unprocessed.smi:38|AV-procd|sdf|345|dock6
  -GOLD-   2262016183D 1   1.00000     0.00000
 Structure written by MMmdl.
 27 28  0  0  0  0  0  0  0  0  2 V2000
  152.9617  141.1797  159.0320 O   0  0  0  0  0  0  0  0  0  0  0  0
  152.2481  141.1109  158.0324 C   0  0  0  0  0  0  0  0  0  0  0  0
  152.4802  140.2269  157.0187 N   0  5  0  0  0  0  0  0  0  0  0  0
  151.6891  140.1540  155.9080 C   0  0  0  0  0  0  0  0  0  0  0  0
  151.8766  139.3432  155.0007 O   0  0  0  0  0  0  0  0  0  0  0  0
  150.5898  141.0469  155.7900 N   0  0  0  0  0  0  0  0  0  0  0  0
  149.6968  140.9722  154.5753 C   0  0  1  0  0  0  0  0  0  0  0  0
  149.1367  139.5662  154.3895 C   0  0  0  0  0  0  0  0  0  0  0  0
  147.7735  139.8392  153.7617 C   0  0  1  0  0  0  0  0  0  0  0  0
  146.7726  139.0985  154.4357 O   0  0  0  0  0  0  0  0  0  0  0  0
  147.5913  141.3736  153.8486 C   0  0  1  0  0  0  0  0  0  0  0  0
  146.2092  141.8703  154.3125 C   0  0  0  0  0  0  0  0  0  0  0  0
  146.2828  143.2272  154.6955 O   0  0  0  0  0  0  0  0  0  0  0  0
  148.5934  141.7935  154.7654 O   0  0  0  0  0  0  0  0  0  0  0  0
  150.3174  141.9407  156.8115 C   0  0  0  0  0  0  0  0  0  0  0  0
  151.0968  142.0037  157.9104 C   0  0  0  0  0  0  0  0  0  0  0  0
  150.8073  142.8805  158.8875 F   0  0  0  0  0  0  0  0  0  0  0  0
  150.2678  141.3389  153.7200 H   0  0  0  0  0  0  0  0  0  0  0  0
  147.7704  139.5317  152.7154 H   0  0  0  0  0  0  0  0  0  0  0  0
  147.8288  141.7958  152.8699 H   0  0  0  0  0  0  0  0  0  0  0  0
  149.7983  138.9661  153.7638 H   0  0  0  0  0  0  0  0  0  0  0  0
  149.0379  139.0849  155.3646 H   0  0  0  0  0  0  0  0  0  0  0  0
  145.9453  139.5414  154.3255 H   0  0  0  0  0  0  0  0  0  0  0  0
  145.4894  141.8120  153.4959 H   0  0  0  0  0  0  0  0  0  0  0  0
  145.8249  141.2636  155.1331 H   0  0  0  0  0  0  0  0  0  0  0  0
  147.1812  143.4317  154.9048 H   0  0  0  0  0  0  0  0  0  0  0  0
  149.4640  142.5986  156.7387 H   0  0  0  0  0  0  0  0  0  0  0  0
  1  2  2  0  0  0  0
  2 16  1  0  0  0  0
  2  3  1  0  0  0  0
  3  4  1  0  0  0  0
  4  5  2  0  0  0  0
  4  6  1  0  0  0  0
  6  7  1  0  0  0  0
  6 15  1  0  0  0  0
  7 18  1  0  0  0  0
  7 14  1  0  0  0  0
  7  8  1  0  0  0  0
  8  9  1  0  0  0  0
  8 21  1  0  0  0  0
  8 22  1  0  0  0  0
  9 19  1  0  0  0  0
  9 10  1  0  0  0  0
  9 11  1  0  0  0  0
 10 23  1  0  0  0  0
 11 20  1  0  0  0  0
 11 12  1  0  0  0  0
 11 14  1  0  0  0  0
 12 13  1  0  0  0  0
 12 24  1  0  0  0  0
 12 25  1  0  0  0  0
 13 26  1  0  0  0  0
 15 16  2  0  0  0  0
 15 27  1  0  0  0  0
 16 17  1  0  0  0  0
M  CHG  1   3  -1
M  END
> <s_m_source_file>
AV-unprocessed.smi

> <i_m_source_file_index>
38

> <i_lp_mmshare_version>
43012

> <i_f3d_flags>
0

> <s_epik_input>
Tz1jMVtuSF1jKD1PKW4oW2NIXWMxRilbQ0BIXTJbQ0gyXVtDQEhdKFtPSF0pW0NASF0oTzIpW0NIMl1bT0hd

> <s_epik_cmdline>
J2VwaWtfcHl0aG9uJywgJy1waCcsICc3LjAnLCAnLXRuJywgJzgnLCAnLW1hJywgJzIwMCcsICctbWV0YWxfYmluZGluZycsICctaW1hZScsICc8aW5maWxlLm1hZT4nLCAnLW9tYWUnLCAnPG91dGZpbGUubWFlPic=

> <r_epik_Ionization_Penalty>
1.68146

> <r_epik_Ionization_Penalty_Charging>
3.4211e-08

> <r_epik_Ionization_Penalty_Neutral>
1.68146

> <r_epik_State_Penalty>
1.78593

> <r_epik_Charging_Adjusted_Penalty>
1.78593

> <i_epik_Tot_Q>
-1

> <i_epik_Tot_abs_Q>
1

> <r_epik_Metal_State_Penalty>
0.0113696

> <b_epik_Metal_Only>
0

> <s_epik_Chemistry_Notes>
This compound contains an acetal/aminal-like group ( X-CH(R)-Y where X, Y are N, S, or O) that may be acid/base labile, releasing an aldehyde.

> <s_lp_Force_Field>
OPLS_2005

> <r_lp_Energy>
42.0277

> <b_lp_Chiralities_Consistent>
1

> <s_lp_Variant>
AV-unprocessed.smi:38-11

> <Gold.Version>
5.8.1

> <Gold.Id.Protein>
6NUR|6NUR_protein|mol2

> <Gold.PLP.Fitness>
38.9655

> <Gold.PLP.PLP>
-27.7329

> <Gold.PLP.part.hbond>
-2.7961

> <Gold.PLP.part.metal>
0.0000

> <Gold.PLP.part.buried>
-0.4509

> <Gold.PLP.part.nonpolar>
-23.9847

> <Gold.PLP.part.repulsive>
0.6320

> <Gold.PLP.ligand.clash>
0.0000

> <Gold.PLP.ligand.torsion>
0.1776

> <Gold.PLP.Chemscore.Hbond>
2.8554

> <Gold.PLP.Chemscore.CHOScore>
1.0000

> <Gold.PLP.Chemscore.Metal>
0.0000

> <Gold.Chemscore.Hbonds>
donor molecule, donor type, donor heavy atom, donor atom, acceptor molecule, acceptor atom, score
      L1  H    13    26       P1  8028  0.33
      P1  H  7989  7998       L1     5  0.43
      P1  H  7997  8010       L1     3  1.98
      L1  C    15    27       P1  8028  1.00

> <Gold.PLP.Chemscore.Internal.Correction>
0.0215

> <Gold.Rescore>
     Score         DG    S(hbond)    S(metal)    S(lipo)     H(rot)  DE(clash)    DE(int)     intcor
      3.86      -5.52       0.94        0.00      36.57       2.88       0.44       1.22       ----

> <Gold.Chemscore.Fitness>
3.8588

> <Gold.Chemscore.DG>
-5.5186

> <Gold.Chemscore.ZeroCoef>
-5.4800

> <Gold.Chemscore.Hbond>
0.9392

> <Gold.Chemscore.Metal>
0.0000

> <Gold.Chemscore.Lipo>
36.5669

> <Gold.Chemscore.Internal_Hbond>
0.0000

> <Gold.Chemscore.DEClash>
0.4436

> <Gold.Chemscore.DEInternal>
1.2162

> <Gold.Chemscore.Rot>
2.8815

> <Gold.Chemscore.Internal.Correction>
   9.000000E+99

> <Gold.Chemscore.Hbonds>
donor molecule, donor type, donor heavy atom, donor atom, acceptor molecule, acceptor atom, score
      L1  H    13    26       P1  8028  0.02
      P1  H  7989  7998       L1     5  0.03
      P1  H  7997  8010       L1     3  0.53

> <Gold.Chemscore.Hbond.Weighted>
-3.1368

> <Gold.Chemscore.Metal.Weighted>
-0.0000

> <Gold.Chemscore.Lipo.Weighted>
-4.2783

> <Gold.Chemscore.Internal_Hbond.Weighted>
0.0000

> <Gold.Chemscore.DEClash.Weighted>
0.4436

> <Gold.Chemscore.DEInternal.Weighted>
1.2162

> <Gold.Chemscore.Rot.Weighted>
7.3765

> <Gold.Chemscore.Internal.Correction.Weighted>
   9.000000E+99

> <Gold.Protein.RotatedTorsions>
[ 6907 6896 6895 6894 ] final   93.08 input  -60.11 | X-H torsion
[ 7974 7965 7964 7962 ] final  164.44 input  175.53 | X-H torsion
[ 8008 7997 7996 7995 ] final   72.63 input   59.86 | X-H torsion
[ 10167 10162 10161 10158 ] final  -34.38 input  -65.29 | X-H torsion
[ 10718 10713 10712 10709 ] final -135.77 input   66.30 | X-H torsion
[ 10763 10752 10751 10750 ] final -142.29 input  -60.55 | X-H torsion
[ 11005 11000 10999 10996 ] final  103.64 input  -57.11 | X-H torsion

> <Gold.Protein.ActiveResidues>
 VAL166  LYS551  ARG553  GLY616  TRP617  ASP618  TYR619  PRO620  LYS621  CYS622 
 ASP623  PHE694  ASN695  SER759  ASP760  ASP761  ALA762  ILE779  LEU786  VAL792 
 PHE793  MET794  SER795  GLU796  ALA797  LYS798  CYS799  TRP800  GLU811  SER814 

> <Gold.Protein.RotatedAtoms>
  152.5453  134.1403  159.8475 H   0  0  0  0  0  0  0  0  0  0  0  0  # atno 6907 bound_to 6896
  151.1440  133.4945  159.2604 H   0  0  0  0  0  0  0  0  0  0  0  0  # atno 6908 bound_to 6896
  151.1543  135.0253  159.8737 H   0  0  0  0  0  0  0  0  0  0  0  0  # atno 6909 bound_to 6896
  144.7545  139.8326  143.6355 H   0  0  0  0  0  0  0  0  0  0  0  0  # atno 7974 bound_to 7965
  155.7717  140.3484  155.5250 H   0  0  0  0  0  0  0  0  0  0  0  0  # atno 8008 bound_to 7997
  155.8815  140.1003  157.1503 H   0  0  0  0  0  0  0  0  0  0  0  0  # atno 8009 bound_to 7997
  154.4025  140.1321  156.4190 H   0  0  0  0  0  0  0  0  0  0  0  0  # atno 8010 bound_to 7997
  140.7187  143.3552  151.2074 H   0  0  0  0  0  0  0  0  0  0  0  0  # atno 10167 bound_to 10162
  156.2698  130.7259  151.1222 H   0  0  0  0  0  0  0  0  0  0  0  0  # atno 10718 bound_to 10713
  154.8514  135.3500  154.6003 H   0  0  0  0  0  0  0  0  0  0  0  0  # atno 10763 bound_to 10752
  153.6612  135.6989  153.5181 H   0  0  0  0  0  0  0  0  0  0  0  0  # atno 10764 bound_to 10752
  153.2816  135.4262  155.1041 H   0  0  0  0  0  0  0  0  0  0  0  0  # atno 10765 bound_to 10752
  139.8785  134.9270  156.5240 H   0  0  0  0  0  0  0  0  0  0  0  0  # atno 11005 bound_to 11000
  146.1538  139.4629  143.0032 LP  0  0  0  0  0  0  0  0  0  0  0  0  # atno 17320 bound_to 7965
  145.6827  141.0186  143.1597 LP  0  0  0  0  0  0  0  0  0  0  0  0  # atno 17321 bound_to 7965
  139.7092  143.9405  152.2940 LP  0  0  0  0  0  0  0  0  0  0  0  0  # atno 17342 bound_to 10162
  139.9124  144.6848  150.8548 LP  0  0  0  0  0  0  0  0  0  0  0  0  # atno 17343 bound_to 10162
  157.7280  131.0635  150.5840 LP  0  0  0  0  0  0  0  0  0  0  0  0  # atno 17370 bound_to 10713
  156.5936  130.4335  149.5926 LP  0  0  0  0  0  0  0  0  0  0  0  0  # atno 17371 bound_to 10713
  140.8430  133.8190  155.9093 LP  0  0  0  0  0  0  0  0  0  0  0  0  # atno 17394 bound_to 11000
  140.9219  134.2131  157.4921 LP  0  0  0  0  0  0  0  0  0  0  0  0  # atno 17395 bound_to 11000

$$$$
