AV-unprocessed.smi:3249|AV-procd|sdf|12420|dock4
  -GOLD-   2272018303D 1   1.00000     0.00000
 Structure written by MMmdl.
 44 45  0  0  0  0  0  0  0  0  2 V2000
  146.1680  143.3461  154.0383 C   0  0  0  0  0  0  0  0  0  0  0  0
  146.8804  142.0282  154.1390 C   0  0  0  0  0  0  0  0  0  0  0  0
  148.1232  141.7522  154.7763 C   0  0  0  0  0  0  0  0  0  0  0  0
  148.4766  140.4810  154.6834 N   0  0  0  0  0  0  0  0  0  0  0  0
  147.4748  139.8991  153.9871 N   0  0  0  0  0  0  0  0  0  0  0  0
  147.5245  138.4747  153.6818 C   0  0  1  0  0  0  0  0  0  0  0  0
  147.5598  137.6593  154.9884 C   0  0  0  0  0  0  0  0  0  0  0  0
  146.3774  138.0402  152.7296 C   0  0  1  0  0  0  0  0  0  0  0  0
  146.4813  138.6734  151.3302 C   0  0  0  0  0  0  0  0  0  0  0  0
  146.3562  136.5671  152.5858 N   0  3  0  0  0  0  0  0  0  0  0  0
  145.2481  136.0390  151.7628 C   0  0  0  0  0  0  0  0  0  0  0  0
  145.6084  134.6858  151.1314 C   0  0  2  0  0  0  0  0  0  0  0  0
  144.4092  134.0160  150.4282 C   0  0  0  0  0  0  0  0  0  0  0  0
  144.7972  132.6283  149.9045 C   0  0  0  0  0  0  0  0  0  0  0  0
  145.4039  131.7977  151.0400 C   0  0  0  0  0  0  0  0  0  0  0  0
  146.5441  132.5732  151.7185 C   0  0  0  0  0  0  0  0  0  0  0  0
  146.0670  133.8343  152.1785 O   0  0  0  0  0  0  0  0  0  0  0  0
  146.5004  140.8132  153.6437 C   0  0  0  0  0  0  0  0  0  0  0  0
  146.6354  144.1087  154.6617 H   0  0  0  0  0  0  0  0  0  0  0  0
  145.1278  143.2670  154.3545 H   0  0  0  0  0  0  0  0  0  0  0  0
  146.1661  143.7242  153.0160 H   0  0  0  0  0  0  0  0  0  0  0  0
  148.7757  142.4352  155.3003 H   0  0  0  0  0  0  0  0  0  0  0  0
  148.4700  138.3028  153.1646 H   0  0  0  0  0  0  0  0  0  0  0  0
  147.7433  136.6023  154.7966 H   0  0  0  0  0  0  0  0  0  0  0  0
  146.6203  137.7393  155.5360 H   0  0  0  0  0  0  0  0  0  0  0  0
  148.3568  138.0091  155.6455 H   0  0  0  0  0  0  0  0  0  0  0  0
  145.4289  138.3692  153.1584 H   0  0  0  0  0  0  0  0  0  0  0  0
  146.3976  139.7597  151.3682 H   0  0  0  0  0  0  0  0  0  0  0  0
  145.6823  138.3160  150.6799 H   0  0  0  0  0  0  0  0  0  0  0  0
  147.4316  138.4295  150.8542 H   0  0  0  0  0  0  0  0  0  0  0  0
  147.2266  136.2789  152.1620 H   0  0  0  0  0  0  0  0  0  0  0  0
  144.3706  135.9180  152.3991 H   0  0  0  0  0  0  0  0  0  0  0  0
  144.9836  136.7622  150.9901 H   0  0  0  0  0  0  0  0  0  0  0  0
  146.4238  134.8331  150.4205 H   0  0  0  0  0  0  0  0  0  0  0  0
  143.5777  133.9205  151.1276 H   0  0  0  0  0  0  0  0  0  0  0  0
  144.0545  134.6343  149.6034 H   0  0  0  0  0  0  0  0  0  0  0  0
  143.9274  132.1217  149.4853 H   0  0  0  0  0  0  0  0  0  0  0  0
  145.5220  132.7296  149.0959 H   0  0  0  0  0  0  0  0  0  0  0  0
  144.6336  131.5646  151.7762 H   0  0  0  0  0  0  0  0  0  0  0  0
  145.7697  130.8447  150.6570 H   0  0  0  0  0  0  0  0  0  0  0  0
  146.9255  132.0095  152.5700 H   0  0  0  0  0  0  0  0  0  0  0  0
  147.3802  132.7166  151.0322 H   0  0  0  0  0  0  0  0  0  0  0  0
  145.6239  140.5272  153.0807 H   0  0  0  0  0  0  0  0  0  0  0  0
  146.2985  136.1587  153.5079 H   0  0  0  0  0  0  0  0  0  0  0  0
  1  2  1  0  0  0  0
  1 19  1  0  0  0  0
  1 20  1  0  0  0  0
  1 21  1  0  0  0  0
  2 18  2  0  0  0  0
  2  3  1  0  0  0  0
  3  4  2  0  0  0  0
  3 22  1  0  0  0  0
  4  5  1  0  0  0  0
  5  6  1  0  0  0  0
  5 18  1  0  0  0  0
  6  7  1  0  0  0  0
  6  8  1  0  0  0  0
  6 23  1  0  0  0  0
  7 24  1  0  0  0  0
  7 25  1  0  0  0  0
  7 26  1  0  0  0  0
  8  9  1  0  0  0  0
  8 10  1  0  0  0  0
  8 27  1  0  0  0  0
  9 28  1  0  0  0  0
  9 29  1  0  0  0  0
  9 30  1  0  0  0  0
 10 11  1  0  0  0  0
 10 31  1  0  0  0  0
 10 44  1  0  0  0  0
 11 12  1  0  0  0  0
 11 32  1  0  0  0  0
 11 33  1  0  0  0  0
 12 17  1  0  0  0  0
 12 13  1  0  0  0  0
 12 34  1  0  0  0  0
 13 14  1  0  0  0  0
 13 35  1  0  0  0  0
 13 36  1  0  0  0  0
 14 15  1  0  0  0  0
 14 37  1  0  0  0  0
 14 38  1  0  0  0  0
 15 16  1  0  0  0  0
 15 39  1  0  0  0  0
 15 40  1  0  0  0  0
 16 17  1  0  0  0  0
 16 41  1  0  0  0  0
 16 42  1  0  0  0  0
 18 43  1  0  0  0  0
M  CHG  1  10   1
M  END
> <s_m_source_file>
AV-unprocessed.smi

> <i_m_source_file_index>
3249

> <i_lp_mmshare_version>
43012

> <i_f3d_flags>
0

> <s_epik_input>
W0NIM11jMVtjSF1ubihbY0hdMSlbQ0BIXShbQ0gzXSlbQ0BIXShbQ0gzXSlbTkhdW0NIMl1bQ0BASF0yW0NIMl1bQ0gyXVtDSDJdW0NIMl1PMg==

> <s_epik_cmdline>
J2VwaWtfcHl0aG9uJywgJy1waCcsICc3LjAnLCAnLXRuJywgJzgnLCAnLW1hJywgJzIwMCcsICctbWV0YWxfYmluZGluZycsICctaW1hZScsICc8aW5maWxlLm1hZT4nLCAnLW9tYWUnLCAnPG91dGZpbGUubWFlPic=

> <r_lp_tautomer_probability>
1

> <r_epik_Ionization_Penalty>
0.00659207

> <r_epik_Ionization_Penalty_Charging>
0.00656881

> <r_epik_Ionization_Penalty_Neutral>
2.32662e-05

> <r_epik_State_Penalty>
0.0048654

> <r_epik_Charging_Adjusted_Penalty>
0.0114342

> <i_epik_Tot_Q>
1

> <i_epik_Tot_abs_Q>
1

> <r_epik_Metal_State_Penalty>
-0

> <b_epik_Metal_Only>
0

> <s_lp_Force_Field>
OPLS_2005

> <r_lp_Energy>
19.2424

> <b_lp_Chiralities_Consistent>
1

> <s_lp_Variant>
AV-unprocessed.smi:3249-4

> <Gold.Version>
5.8.1

> <Gold.Id.Protein>
6NUR|6NUR_protein|mol2

> <Gold.PLP.Fitness>
44.8002

> <Gold.PLP.PLP>
-33.3293

> <Gold.PLP.part.hbond>
-1.0000

> <Gold.PLP.part.metal>
0.0000

> <Gold.PLP.part.buried>
0.3196

> <Gold.PLP.part.nonpolar>
-33.5795

> <Gold.PLP.part.repulsive>
0.2460

> <Gold.PLP.ligand.clash>
0.0000

> <Gold.PLP.ligand.torsion>
0.3166

> <Gold.PLP.Chemscore.Hbond>
2.0000

> <Gold.PLP.Chemscore.CHOScore>
2.0000

> <Gold.PLP.Chemscore.Metal>
0.0000

> <Gold.Chemscore.Hbonds>
donor molecule, donor type, donor heavy atom, donor atom, acceptor molecule, acceptor atom, score
      L1  H    10    31       P1  7948  2.00
      L1  C     3    22       P1  8028  1.00
      L1  C    18    43       P1 10175  1.00

> <Gold.PLP.Chemscore.Internal.Correction>
0.1040

> <Gold.Rescore>
     Score         DG    S(hbond)    S(metal)    S(lipo)     H(rot)  DE(clash)    DE(int)     intcor
     15.29     -15.78       1.00        0.00      93.07       1.53       0.13       0.37       ----

> <Gold.Chemscore.Fitness>
15.2864

> <Gold.Chemscore.DG>
-15.7841

> <Gold.Chemscore.ZeroCoef>
-5.4800

> <Gold.Chemscore.Hbond>
0.9999

> <Gold.Chemscore.Metal>
0.0000

> <Gold.Chemscore.Lipo>
93.0731

> <Gold.Chemscore.Internal_Hbond>
0.0000

> <Gold.Chemscore.DEClash>
0.1327

> <Gold.Chemscore.DEInternal>
0.3650

> <Gold.Chemscore.Rot>
1.5333

> <Gold.Chemscore.Internal.Correction>
   9.000000E+99

> <Gold.Chemscore.Hbonds>
donor molecule, donor type, donor heavy atom, donor atom, acceptor molecule, acceptor atom, score
      L1  H    10    31       P1  7948  0.99

> <Gold.Chemscore.Hbond.Weighted>
-3.3398

> <Gold.Chemscore.Metal.Weighted>
-0.0000

> <Gold.Chemscore.Lipo.Weighted>
-10.8896

> <Gold.Chemscore.Internal_Hbond.Weighted>
0.0000

> <Gold.Chemscore.DEClash.Weighted>
0.1327

> <Gold.Chemscore.DEInternal.Weighted>
0.3650

> <Gold.Chemscore.Rot.Weighted>
3.9252

> <Gold.Chemscore.Internal.Correction.Weighted>
   9.000000E+99

> <Gold.Protein.RotatedTorsions>
[ 6907 6896 6895 6894 ] final  146.46 input  -60.11 | X-H torsion
[ 7974 7965 7964 7962 ] final   76.64 input  175.53 | X-H torsion
[ 8008 7997 7996 7995 ] final  -87.31 input   59.86 | X-H torsion
[ 10167 10162 10161 10158 ] final  133.70 input  -65.29 | X-H torsion
[ 10718 10713 10712 10709 ] final  -78.67 input   66.30 | X-H torsion
[ 10763 10752 10751 10750 ] final  149.58 input  -60.55 | X-H torsion
[ 11005 11000 10999 10996 ] final -143.55 input  -57.11 | X-H torsion

> <Gold.Protein.ActiveResidues>
 VAL166  LYS551  ARG553  GLY616  TRP617  ASP618  TYR619  PRO620  LYS621  CYS622 
 ASP623  PHE694  ASN695  SER759  ASP760  ASP761  ALA762  ILE779  LEU786  VAL792 
 PHE793  MET794  SER795  GLU796  ALA797  LYS798  CYS799  TRP800  GLU811  SER814 

> <Gold.Protein.RotatedAtoms>
  152.1675  133.4622  159.4892 H   0  0  0  0  0  0  0  0  0  0  0  0  # atno 6907 bound_to 6896
  150.6915  134.1994  159.4325 H   0  0  0  0  0  0  0  0  0  0  0  0  # atno 6908 bound_to 6896
  151.9899  134.9984  160.0611 H   0  0  0  0  0  0  0  0  0  0  0  0  # atno 6909 bound_to 6896
  145.7003  139.2580  143.1709 H   0  0  0  0  0  0  0  0  0  0  0  0  # atno 7974 bound_to 7965
  154.6617  140.0567  157.0070 H   0  0  0  0  0  0  0  0  0  0  0  0  # atno 8008 bound_to 7997
  155.1218  140.3248  155.4477 H   0  0  0  0  0  0  0  0  0  0  0  0  # atno 8009 bound_to 7997
  156.2621  140.1996  156.6340 H   0  0  0  0  0  0  0  0  0  0  0  0  # atno 8010 bound_to 7997
  139.5286  144.6603  151.5033 H   0  0  0  0  0  0  0  0  0  0  0  0  # atno 10167 bound_to 10162
  156.0112  130.4524  150.3531 H   0  0  0  0  0  0  0  0  0  0  0  0  # atno 10718 bound_to 10713
  154.0735  135.2865  155.3304 H   0  0  0  0  0  0  0  0  0  0  0  0  # atno 10763 bound_to 10752
  154.6731  135.5292  153.8167 H   0  0  0  0  0  0  0  0  0  0  0  0  # atno 10764 bound_to 10752
  153.0476  135.6562  154.0915 H   0  0  0  0  0  0  0  0  0  0  0  0  # atno 10765 bound_to 10752
  140.8114  134.2740  157.4939 H   0  0  0  0  0  0  0  0  0  0  0  0  # atno 11005 bound_to 11000
  146.0804  140.7770  142.9644 LP  0  0  0  0  0  0  0  0  0  0  0  0  # atno 17320 bound_to 7965
  144.6970  140.3480  143.7187 LP  0  0  0  0  0  0  0  0  0  0  0  0  # atno 17321 bound_to 7965
  140.6448  143.8816  150.6727 LP  0  0  0  0  0  0  0  0  0  0  0  0  # atno 17342 bound_to 10162
  140.2162  143.3844  152.1679 LP  0  0  0  0  0  0  0  0  0  0  0  0  # atno 17343 bound_to 10162
  157.1623  131.0348  151.2835 LP  0  0  0  0  0  0  0  0  0  0  0  0  # atno 17370 bound_to 10713
  157.4301  130.7485  149.6983 LP  0  0  0  0  0  0  0  0  0  0  0  0  # atno 17371 bound_to 10713
  139.8714  134.9485  156.3998 LP  0  0  0  0  0  0  0  0  0  0  0  0  # atno 17394 bound_to 11000
  140.9194  133.7656  155.9887 LP  0  0  0  0  0  0  0  0  0  0  0  0  # atno 17395 bound_to 11000

$$$$
