AV-unprocessed.smi:1831|AV-procd|sdf|7462|dock7
  -GOLD-   22720 9153D 1   1.00000     0.00000
 Structure written by MMmdl.
 40 41  0  0  0  0  0  0  0  0  3 V2000
  152.1823  143.7677  161.8926 C   0  0  0  0  0  0  0  0  0  0  0  0
  152.2092  142.6571  160.8993 C   0  0  0  0  0  0  0  0  0  0  0  0
  151.1756  142.3785  160.1016 N   0  0  0  0  0  0  0  0  0  0  0  0
  151.4379  141.3061  159.2616 N   0  0  0  0  0  0  0  0  0  0  0  0
  152.6594  140.7841  159.4408 C   0  0  0  0  0  0  0  0  0  0  0  0
  153.1086  139.7398  158.7251 N   0  5  0  0  0  0  0  0  0  0  0  0
  152.2388  138.9747  158.0288 C   0  0  0  0  0  0  0  0  0  0  0  0
  151.3747  138.2346  158.5045 O   0  0  0  0  0  0  0  0  0  0  0  0
  152.3890  139.0621  156.6991 N   0  0  0  0  0  0  0  0  0  0  0  0
  151.6181  138.3366  155.6935 C   0  0  0  0  0  0  0  0  0  0  0  0
  150.8752  139.2938  154.7422 C   0  0  2  0  0  0  0  0  0  0  0  0
  150.6166  140.6777  155.3333 C   0  0  0  0  0  0  0  0  0  0  0  0
  149.3968  141.2104  154.5691 C   0  0  0  0  0  0  0  0  0  0  0  0
  148.8112  140.0667  153.8252 N   0  3  2  0  0  0  0  0  0  0  0  0
  147.3221  140.0263  153.7888 C   0  0  0  0  0  0  0  0  0  0  0  0
  146.8040  139.0239  152.7393 C   0  0  0  0  0  0  0  0  0  0  0  0
  146.7371  141.4218  153.5011 C   0  0  0  0  0  0  0  0  0  0  0  0
  149.4693  138.8480  154.3403 C   0  0  0  0  0  0  0  0  0  0  0  0
  153.6034  141.6131  160.6782 S   0  0  0  0  0  0  0  0  0  0  0  0
  152.2448  144.7277  161.3802 H   0  0  0  0  0  0  0  0  0  0  0  0
  153.0236  143.6820  162.5805 H   0  0  0  0  0  0  0  0  0  0  0  0
  151.2570  143.7355  162.4682 H   0  0  0  0  0  0  0  0  0  0  0  0
  153.1055  139.6868  156.3586 H   0  0  0  0  0  0  0  0  0  0  0  0
  152.2576  137.6520  155.1339 H   0  0  0  0  0  0  0  0  0  0  0  0
  150.8948  137.7135  156.2196 H   0  0  0  0  0  0  0  0  0  0  0  0
  151.4663  139.4184  153.8330 H   0  0  0  0  0  0  0  0  0  0  0  0
  150.3707  140.5925  156.3929 H   0  0  0  0  0  0  0  0  0  0  0  0
  151.4829  141.3344  155.2482 H   0  0  0  0  0  0  0  0  0  0  0  0
  148.6851  141.6458  155.2723 H   0  0  0  0  0  0  0  0  0  0  0  0
  149.6815  141.9883  153.8598 H   0  0  0  0  0  0  0  0  0  0  0  0
  146.9680  139.7012  154.7685 H   0  0  0  0  0  0  0  0  0  0  0  0
  145.7150  139.0419  152.6861 H   0  0  0  0  0  0  0  0  0  0  0  0
  147.0889  137.9987  152.9767 H   0  0  0  0  0  0  0  0  0  0  0  0
  147.1864  139.2569  151.7448 H   0  0  0  0  0  0  0  0  0  0  0  0
  145.6482  141.3868  153.4573 H   0  0  0  0  0  0  0  0  0  0  0  0
  147.0931  141.8101  152.5461 H   0  0  0  0  0  0  0  0  0  0  0  0
  146.9992  142.1452  154.2732 H   0  0  0  0  0  0  0  0  0  0  0  0
  149.4890  138.0550  153.5920 H   0  0  0  0  0  0  0  0  0  0  0  0
  148.9277  138.4819  155.2144 H   0  0  0  0  0  0  0  0  0  0  0  0
  149.1289  140.1628  152.8713 H   0  0  0  0  0  0  0  0  0  0  0  0
  1  2  1  0  0  0  0
  1 20  1  0  0  0  0
  1 21  1  0  0  0  0
  1 22  1  0  0  0  0
  2 19  1  0  0  0  0
  2  3  2  0  0  0  0
  3  4  1  0  0  0  0
  4  5  2  0  0  0  0
  5  6  1  0  0  0  0
  5 19  1  0  0  0  0
  6  7  1  0  0  0  0
  7  8  2  0  0  0  0
  7  9  1  0  0  0  0
  9 10  1  0  0  0  0
  9 23  1  0  0  0  0
 10 11  1  0  0  0  0
 10 24  1  0  0  0  0
 10 25  1  0  0  0  0
 11 18  1  0  0  0  0
 11 12  1  0  0  0  0
 11 26  1  0  0  0  0
 12 13  1  0  0  0  0
 12 27  1  0  0  0  0
 12 28  1  0  0  0  0
 13 14  1  0  0  0  0
 13 29  1  0  0  0  0
 13 30  1  0  0  0  0
 14 15  1  0  0  0  0
 14 18  1  0  0  0  0
 14 40  1  0  0  0  0
 15 16  1  0  0  0  0
 15 17  1  0  0  0  0
 15 31  1  0  0  0  0
 16 32  1  0  0  0  0
 16 33  1  0  0  0  0
 16 34  1  0  0  0  0
 17 35  1  0  0  0  0
 17 36  1  0  0  0  0
 17 37  1  0  0  0  0
 18 38  1  0  0  0  0
 18 39  1  0  0  0  0
M  CHG  1   6  -1
M  CHG  1  14   1
M  END
> <s_m_source_file>
AV-unprocessed.smi

> <i_m_source_file_index>
1831

> <i_lp_mmshare_version>
43012

> <i_f3d_flags>
0

> <s_epik_input>
W0NIM11jMW5uYyhzMSlbTkhdQyg9TylbTkhdW0NIMl1bQ0BASF0yW0NIMl1bQ0gyXU4oW0NIMl0yKVtDSF0oW0NIM10pW0NIM10=

> <s_epik_cmdline>
J2VwaWtfcHl0aG9uJywgJy1waCcsICc3LjAnLCAnLXRuJywgJzgnLCAnLW1hJywgJzIwMCcsICctbWV0YWxfYmluZGluZycsICctaW1hZScsICc8aW5maWxlLm1hZT4nLCAnLW9tYWUnLCAnPG91dGZpbGUubWFlPic=

> <r_lp_tautomer_probability>
1

> <r_epik_Ionization_Penalty>
4.24531

> <r_epik_Ionization_Penalty_Charging>
4.11954

> <r_epik_Ionization_Penalty_Neutral>
0.125766

> <r_epik_State_Penalty>
4.11879

> <r_epik_Charging_Adjusted_Penalty>
8.23833

> <i_epik_Tot_Q>
0

> <i_epik_Tot_abs_Q>
2

> <r_epik_Metal_State_Penalty>
0.659341

> <b_epik_Metal_Only>
1

> <s_lp_Force_Field>
OPLS_2005

> <r_lp_Energy>
22.0207

> <b_lp_Chiralities_Consistent>
1

> <s_lp_Variant>
AV-unprocessed.smi:1831-7

> <Gold.Version>
5.8.1

> <Gold.Id.Protein>
6NUR|6NUR_protein|mol2

> <Gold.PLP.Fitness>
44.3408

> <Gold.PLP.PLP>
-38.0294

> <Gold.PLP.part.hbond>
-3.0000

> <Gold.PLP.part.metal>
0.0000

> <Gold.PLP.part.buried>
-2.2362

> <Gold.PLP.part.nonpolar>
-32.5601

> <Gold.PLP.part.repulsive>
0.6184

> <Gold.PLP.ligand.clash>
0.0000

> <Gold.PLP.ligand.torsion>
1.3696

> <Gold.PLP.Chemscore.Hbond>
3.0000

> <Gold.PLP.Chemscore.CHOScore>
0.0000

> <Gold.PLP.Chemscore.Metal>
0.0000

> <Gold.Chemscore.Hbonds>
donor molecule, donor type, donor heavy atom, donor atom, acceptor molecule, acceptor atom, score
      L1  H    14    40       P1  7957  1.00
      P1  H  7997  8008       L1     6  0.81

> <Gold.PLP.Chemscore.Internal.Correction>
0.0505

> <Gold.Rescore>
     Score         DG    S(hbond)    S(metal)    S(lipo)     H(rot)  DE(clash)    DE(int)     intcor
     14.94     -17.19       1.62        0.00      86.91       1.51       0.88       1.37       ----

> <Gold.Chemscore.Fitness>
14.9444

> <Gold.Chemscore.DG>
-17.1915

> <Gold.Chemscore.ZeroCoef>
-5.4800

> <Gold.Chemscore.Hbond>
1.6216

> <Gold.Chemscore.Metal>
0.0000

> <Gold.Chemscore.Lipo>
86.9124

> <Gold.Chemscore.Internal_Hbond>
0.0000

> <Gold.Chemscore.DEClash>
0.8778

> <Gold.Chemscore.DEInternal>
1.3694

> <Gold.Chemscore.Rot>
1.5131

> <Gold.Chemscore.Internal.Correction>
   9.000000E+99

> <Gold.Chemscore.Hbonds>
donor molecule, donor type, donor heavy atom, donor atom, acceptor molecule, acceptor atom, score
      L1  H    14    40       P1  7957  1.00
      P1  H  7997  8008       L1     6  0.10

> <Gold.Chemscore.Hbond.Weighted>
-5.4163

> <Gold.Chemscore.Metal.Weighted>
-0.0000

> <Gold.Chemscore.Lipo.Weighted>
-10.1687

> <Gold.Chemscore.Internal_Hbond.Weighted>
0.0000

> <Gold.Chemscore.DEClash.Weighted>
0.8778

> <Gold.Chemscore.DEInternal.Weighted>
1.3694

> <Gold.Chemscore.Rot.Weighted>
3.8735

> <Gold.Chemscore.Internal.Correction.Weighted>
   9.000000E+99

> <Gold.Protein.RotatedTorsions>
[ 6907 6896 6895 6894 ] final  129.41 input  -60.11 | X-H torsion
[ 7974 7965 7964 7962 ] final  -69.67 input  175.53 | X-H torsion
[ 8008 7997 7996 7995 ] final  -95.13 input   59.86 | X-H torsion
[ 10167 10162 10161 10158 ] final   36.70 input  -65.29 | X-H torsion
[ 10718 10713 10712 10709 ] final   43.49 input   66.30 | X-H torsion
[ 10763 10752 10751 10750 ] final  118.99 input  -60.55 | X-H torsion
[ 11005 11000 10999 10996 ] final  127.51 input  -57.11 | X-H torsion

> <Gold.Protein.ActiveResidues>
 VAL166  LYS551  ARG553  GLY616  TRP617  ASP618  TYR619  PRO620  LYS621  CYS622 
 ASP623  PHE694  ASN695  SER759  ASP760  ASP761  ALA762  ILE779  LEU786  VAL792 
 PHE793  MET794  SER795  GLU796  ALA797  LYS798  CYS799  TRP800  GLU811  SER814 

> <Gold.Protein.RotatedAtoms>
  152.3627  133.6317  159.6026 H   0  0  0  0  0  0  0  0  0  0  0  0  # atno 6907 bound_to 6896
  150.7612  133.9398  159.3461 H   0  0  0  0  0  0  0  0  0  0  0  0  # atno 6908 bound_to 6896
  151.7234  135.0890  160.0339 H   0  0  0  0  0  0  0  0  0  0  0  0  # atno 6909 bound_to 6896
  145.7008  140.9117  143.0732 H   0  0  0  0  0  0  0  0  0  0  0  0  # atno 7974 bound_to 7965
  154.7574  140.0483  157.0945 H   0  0  0  0  0  0  0  0  0  0  0  0  # atno 8008 bound_to 7997
  154.9980  140.3121  155.4859 H   0  0  0  0  0  0  0  0  0  0  0  0  # atno 8009 bound_to 7997
  156.2897  140.2206  156.5089 H   0  0  0  0  0  0  0  0  0  0  0  0  # atno 8010 bound_to 7997
  140.4103  144.1602  150.6139 H   0  0  0  0  0  0  0  0  0  0  0  0  # atno 10167 bound_to 10162
  157.4164  130.7944  149.7476 H   0  0  0  0  0  0  0  0  0  0  0  0  # atno 10718 bound_to 10713
  153.5761  135.3493  155.2857 H   0  0  0  0  0  0  0  0  0  0  0  0  # atno 10763 bound_to 10752
  154.8675  135.4171  154.2672 H   0  0  0  0  0  0  0  0  0  0  0  0  # atno 10764 bound_to 10752
  153.3448  135.7052  153.6907 H   0  0  0  0  0  0  0  0  0  0  0  0  # atno 10765 bound_to 10752
  139.9511  134.9622  156.8865 H   0  0  0  0  0  0  0  0  0  0  0  0  # atno 11005 bound_to 11000
  144.6969  139.8944  143.7455 LP  0  0  0  0  0  0  0  0  0  0  0  0  # atno 17320 bound_to 7965
  146.0800  139.3787  143.0470 LP  0  0  0  0  0  0  0  0  0  0  0  0  # atno 17321 bound_to 7965
  140.4645  143.2436  151.9174 LP  0  0  0  0  0  0  0  0  0  0  0  0  # atno 17342 bound_to 10162
  139.4782  144.5434  151.8495 LP  0  0  0  0  0  0  0  0  0  0  0  0  # atno 17343 bound_to 10162
  155.9866  130.3973  150.3202 LP  0  0  0  0  0  0  0  0  0  0  0  0  # atno 17370 bound_to 10713
  157.1345  131.0280  151.2954 LP  0  0  0  0  0  0  0  0  0  0  0  0  # atno 17371 bound_to 10713
  140.5717  134.0437  155.7433 LP  0  0  0  0  0  0  0  0  0  0  0  0  # atno 17394 bound_to 11000
  141.1174  133.9518  157.2796 LP  0  0  0  0  0  0  0  0  0  0  0  0  # atno 17395 bound_to 11000

$$$$
