AV-unprocessed.smi:1936|AV-procd|sdf|7831|dock6
  -GOLD-   22720 9573D 1   1.00000     0.00000
 Structure written by MMmdl.
 39 40  0  0  0  0  0  0  0  0  2 V2000
  146.5564  138.4529  151.9961 C   0  0  0  0  0  0  0  0  0  0  0  0
  146.5379  137.7060  153.3366 C   0  0  2  0  0  0  0  0  0  0  0  0
  147.5884  138.2809  154.3135 C   0  0  0  0  0  0  0  0  0  0  0  0
  148.9179  137.6316  154.1868 N   0  3  0  0  0  0  0  0  0  0  0  0
  150.0447  138.5773  154.3607 C   0  0  0  0  0  0  0  0  0  0  0  0
  151.3847  137.8543  154.1406 C   0  0  0  0  0  0  0  0  0  0  0  0
  151.4882  136.7538  155.0359 O   0  0  0  0  0  0  0  0  0  0  0  0
  150.4560  135.7972  154.8271 C   0  0  0  0  0  0  0  0  0  0  0  0
  149.0879  136.4547  155.0734 C   0  0  0  0  0  0  0  0  0  0  0  0
  146.7624  136.2816  153.0891 N   0  0  0  0  0  0  0  0  0  0  0  0
  145.8582  135.2989  153.2392 C   0  0  0  0  0  0  0  0  0  0  0  0
  144.7225  135.4870  153.6740 O   0  0  0  0  0  0  0  0  0  0  0  0
  146.3067  133.8831  152.8654 C   0  0  0  0  0  0  0  0  0  0  0  0
  145.4655  133.2997  151.8338 N   0  0  0  0  0  0  0  0  0  0  0  0
  145.8092  132.3776  150.8667 C   0  0  0  0  0  0  0  0  0  0  0  0
  144.6908  132.1324  150.1229 C   0  0  0  0  0  0  0  0  0  0  0  0
  143.6991  132.9595  150.7204 C   0  0  0  0  0  0  0  0  0  0  0  0
  144.1651  133.6554  151.7449 N   0  0  0  0  0  0  0  0  0  0  0  0
  146.3501  139.5144  152.1363 H   0  0  0  0  0  0  0  0  0  0  0  0
  145.8000  138.0590  151.3161 H   0  0  0  0  0  0  0  0  0  0  0  0
  147.5254  138.3654  151.5034 H   0  0  0  0  0  0  0  0  0  0  0  0
  145.5412  137.8433  153.7583 H   0  0  0  0  0  0  0  0  0  0  0  0
  147.6903  139.3481  154.1092 H   0  0  0  0  0  0  0  0  0  0  0  0
  147.2407  138.2030  155.3449 H   0  0  0  0  0  0  0  0  0  0  0  0
  149.9524  139.3993  153.6497 H   0  0  0  0  0  0  0  0  0  0  0  0
  150.0097  139.0104  155.3618 H   0  0  0  0  0  0  0  0  0  0  0  0
  151.4765  137.5094  153.1092 H   0  0  0  0  0  0  0  0  0  0  0  0
  152.2146  138.5371  154.3229 H   0  0  0  0  0  0  0  0  0  0  0  0
  150.5165  135.3910  153.8161 H   0  0  0  0  0  0  0  0  0  0  0  0
  150.6018  134.9640  155.5148 H   0  0  0  0  0  0  0  0  0  0  0  0
  149.0061  136.7647  156.1165 H   0  0  0  0  0  0  0  0  0  0  0  0
  148.2982  135.7257  154.8943 H   0  0  0  0  0  0  0  0  0  0  0  0
  147.6708  136.0264  152.7286 H   0  0  0  0  0  0  0  0  0  0  0  0
  147.3377  133.9098  152.5108 H   0  0  0  0  0  0  0  0  0  0  0  0
  146.2870  133.2368  153.7445 H   0  0  0  0  0  0  0  0  0  0  0  0
  146.8099  131.9783  150.7880 H   0  0  0  0  0  0  0  0  0  0  0  0
  144.5946  131.4638  149.2803 H   0  0  0  0  0  0  0  0  0  0  0  0
  142.6615  133.0746  150.4423 H   0  0  0  0  0  0  0  0  0  0  0  0
  148.9782  137.2931  153.2367 H   0  0  0  0  0  0  0  0  0  0  0  0
  1  2  1  0  0  0  0
  1 19  1  0  0  0  0
  1 20  1  0  0  0  0
  1 21  1  0  0  0  0
  2  3  1  0  0  0  0
  2 10  1  0  0  0  0
  2 22  1  0  0  0  0
  3  4  1  0  0  0  0
  3 23  1  0  0  0  0
  3 24  1  0  0  0  0
  4  9  1  0  0  0  0
  4  5  1  0  0  0  0
  4 39  1  0  0  0  0
  5  6  1  0  0  0  0
  5 25  1  0  0  0  0
  5 26  1  0  0  0  0
  6  7  1  0  0  0  0
  6 27  1  0  0  0  0
  6 28  1  0  0  0  0
  7  8  1  0  0  0  0
  8  9  1  0  0  0  0
  8 29  1  0  0  0  0
  8 30  1  0  0  0  0
  9 31  1  0  0  0  0
  9 32  1  0  0  0  0
 10 11  1  0  0  0  0
 10 33  1  0  0  0  0
 11 12  2  0  0  0  0
 11 13  1  0  0  0  0
 13 14  1  0  0  0  0
 13 34  1  0  0  0  0
 13 35  1  0  0  0  0
 14 18  1  0  0  0  0
 14 15  1  0  0  0  0
 15 16  2  0  0  0  0
 15 36  1  0  0  0  0
 16 17  1  0  0  0  0
 16 37  1  0  0  0  0
 17 18  2  0  0  0  0
 17 38  1  0  0  0  0
M  CHG  1   4   1
M  END
> <s_m_source_file>
AV-unprocessed.smi

> <i_m_source_file_index>
1936

> <i_lp_mmshare_version>
43012

> <i_f3d_flags>
0

> <s_epik_input>
W0NIMl0xW0NIMl1PW0NIMl1bQ0gyXU4xW0NIMl1bQ0BASF0oW0NIM10pW05IXUMoPU8pW0NIMl1uMltjSF1bY0hdW2NIXW4y

> <s_epik_cmdline>
J2VwaWtfcHl0aG9uJywgJy1waCcsICc3LjAnLCAnLXRuJywgJzgnLCAnLW1hJywgJzIwMCcsICctbWV0YWxfYmluZGluZycsICctaW1hZScsICc8aW5maWxlLm1hZT4nLCAnLW9tYWUnLCAnPG91dGZpbGUubWFlPic=

> <r_lp_tautomer_probability>
1

> <r_epik_Ionization_Penalty>
0.748405

> <r_epik_Ionization_Penalty_Charging>
0.748396

> <r_epik_Ionization_Penalty_Neutral>
9.02181e-06

> <r_epik_State_Penalty>
0.775162

> <r_epik_Charging_Adjusted_Penalty>
1.52356

> <i_epik_Tot_Q>
1

> <i_epik_Tot_abs_Q>
1

> <r_epik_Metal_State_Penalty>
0.775167

> <b_epik_Metal_Only>
0

> <s_lp_Force_Field>
OPLS_2005

> <r_lp_Energy>
23.0503

> <b_lp_Chiralities_Consistent>
1

> <s_lp_Variant>
AV-unprocessed.smi:1936-3

> <Gold.Version>
5.8.1

> <Gold.Id.Protein>
6NUR|6NUR_protein|mol2

> <Gold.PLP.Fitness>
44.3376

> <Gold.PLP.PLP>
-29.1744

> <Gold.PLP.part.hbond>
-2.8699

> <Gold.PLP.part.metal>
0.0000

> <Gold.PLP.part.buried>
-4.0895

> <Gold.PLP.part.nonpolar>
-24.0293

> <Gold.PLP.part.repulsive>
0.2997

> <Gold.PLP.ligand.clash>
0.0000

> <Gold.PLP.ligand.torsion>
1.2215

> <Gold.PLP.Chemscore.Hbond>
3.8500

> <Gold.PLP.Chemscore.CHOScore>
2.0000

> <Gold.PLP.Chemscore.Metal>
0.0000

> <Gold.Chemscore.Hbonds>
donor molecule, donor type, donor heavy atom, donor atom, acceptor molecule, acceptor atom, score
      L1  H     4    39       P1  7948  2.00
      L1  H    10    33       P1  7948  1.00
      P1  H 10752 10765       L1     7  0.80
      L1  C    15    36       P1 10747  1.00
      L1  C    17    38       P1 10186  1.00

> <Gold.PLP.Chemscore.Internal.Correction>
0.0563

> <Gold.Rescore>
     Score         DG    S(hbond)    S(metal)    S(lipo)     H(rot)  DE(clash)    DE(int)     intcor
     13.45     -16.16       2.01        0.00      76.31       1.93       0.07       2.65       ----

> <Gold.Chemscore.Fitness>
13.4457

> <Gold.Chemscore.DG>
-16.1591

> <Gold.Chemscore.ZeroCoef>
-5.4800

> <Gold.Chemscore.Hbond>
2.0064

> <Gold.Chemscore.Metal>
0.0000

> <Gold.Chemscore.Lipo>
76.3131

> <Gold.Chemscore.Internal_Hbond>
0.0000

> <Gold.Chemscore.DEClash>
0.0651

> <Gold.Chemscore.DEInternal>
2.6483

> <Gold.Chemscore.Rot>
1.9340

> <Gold.Chemscore.Internal.Correction>
   9.000000E+99

> <Gold.Chemscore.Hbonds>
donor molecule, donor type, donor heavy atom, donor atom, acceptor molecule, acceptor atom, score
      L1  H     4    39       P1  7948  1.00
      L1  H    10    33       P1  7948  0.93
      P1  H 10752 10765       L1     7  0.08

> <Gold.Chemscore.Hbond.Weighted>
-6.7015

> <Gold.Chemscore.Metal.Weighted>
-0.0000

> <Gold.Chemscore.Lipo.Weighted>
-8.9286

> <Gold.Chemscore.Internal_Hbond.Weighted>
0.0000

> <Gold.Chemscore.DEClash.Weighted>
0.0651

> <Gold.Chemscore.DEInternal.Weighted>
2.6483

> <Gold.Chemscore.Rot.Weighted>
4.9510

> <Gold.Chemscore.Internal.Correction.Weighted>
   9.000000E+99

> <Gold.Protein.RotatedTorsions>
[ 6907 6896 6895 6894 ] final  -37.08 input  -60.11 | X-H torsion
[ 7974 7965 7964 7962 ] final   -4.93 input  175.53 | X-H torsion
[ 8008 7997 7996 7995 ] final   96.43 input   59.86 | X-H torsion
[ 10167 10162 10161 10158 ] final -175.35 input  -65.29 | X-H torsion
[ 10718 10713 10712 10709 ] final   12.87 input   66.30 | X-H torsion
[ 10763 10752 10751 10750 ] final  171.49 input  -60.55 | X-H torsion
[ 11005 11000 10999 10996 ] final  109.91 input  -57.11 | X-H torsion

> <Gold.Protein.ActiveResidues>
 VAL166  LYS551  ARG553  GLY616  TRP617  ASP618  TYR619  PRO620  LYS621  CYS622 
 ASP623  PHE694  ASN695  SER759  ASP760  ASP761  ALA762  ILE779  LEU786  VAL792 
 PHE793  MET794  SER795  GLU796  ALA797  LYS798  CYS799  TRP800  GLU811  SER814 

> <Gold.Protein.RotatedAtoms>
  151.0191  134.9455  159.8049 H   0  0  0  0  0  0  0  0  0  0  0  0  # atno 6907 bound_to 6896
  152.5321  134.2927  159.9059 H   0  0  0  0  0  0  0  0  0  0  0  0  # atno 6908 bound_to 6896
  151.2934  133.4113  159.2669 H   0  0  0  0  0  0  0  0  0  0  0  0  # atno 6909 bound_to 6896
  146.2363  140.1945  142.8333 H   0  0  0  0  0  0  0  0  0  0  0  0  # atno 7974 bound_to 7965
  156.0795  140.3272  155.7676 H   0  0  0  0  0  0  0  0  0  0  0  0  # atno 8008 bound_to 7997
  155.5175  140.0582  157.2930 H   0  0  0  0  0  0  0  0  0  0  0  0  # atno 8009 bound_to 7997
  154.4574  140.1949  156.0357 H   0  0  0  0  0  0  0  0  0  0  0  0  # atno 8010 bound_to 7997
  139.5586  144.1927  152.1200 H   0  0  0  0  0  0  0  0  0  0  0  0  # atno 10167 bound_to 10162
  157.0164  130.6137  149.5715 H   0  0  0  0  0  0  0  0  0  0  0  0  # atno 10718 bound_to 10713
  154.4126  135.2756  155.2027 H   0  0  0  0  0  0  0  0  0  0  0  0  # atno 10763 bound_to 10752
  154.4006  135.6045  153.5898 H   0  0  0  0  0  0  0  0  0  0  0  0  # atno 10764 bound_to 10752
  152.9831  135.5925  154.4410 H   0  0  0  0  0  0  0  0  0  0  0  0  # atno 10765 bound_to 10752
  139.8871  134.9471  156.6199 H   0  0  0  0  0  0  0  0  0  0  0  0  # atno 11005 bound_to 11000
  144.9831  140.8478  143.5385 LP  0  0  0  0  0  0  0  0  0  0  0  0  # atno 17320 bound_to 7965
  145.1941  139.2286  143.5227 LP  0  0  0  0  0  0  0  0  0  0  0  0  # atno 17321 bound_to 7965
  140.1436  144.5179  150.6729 LP  0  0  0  0  0  0  0  0  0  0  0  0  # atno 17342 bound_to 10162
  140.6862  143.2351  151.5253 LP  0  0  0  0  0  0  0  0  0  0  0  0  # atno 17343 bound_to 10162
  156.0117  130.5209  150.8011 LP  0  0  0  0  0  0  0  0  0  0  0  0  # atno 17370 bound_to 10713
  157.5282  131.0935  150.9990 LP  0  0  0  0  0  0  0  0  0  0  0  0  # atno 17371 bound_to 10713
  140.7747  133.8709  155.8520 LP  0  0  0  0  0  0  0  0  0  0  0  0  # atno 17394 bound_to 11000
  140.9812  134.1403  157.4493 LP  0  0  0  0  0  0  0  0  0  0  0  0  # atno 17395 bound_to 11000

$$$$
