AV-unprocessed.smi:2786|AV-procd|sdf|10751|dock2
  -GOLD-   2272015183D 1   1.00000     0.00000
 Structure written by MMmdl.
 28 29  0  0  0  0  0  0  0  0  3 V2000
  149.4885  139.9642  154.2225 C   0  0  0  0  0  0  0  0  0  0  0  0
  148.2255  140.6915  154.0800 N   0  0  0  0  0  0  0  0  0  0  0  0
  147.9394  141.9335  154.5866 C   0  0  0  0  0  0  0  0  0  0  0  0
  146.6497  142.2189  154.2228 C   0  0  0  0  0  0  0  0  0  0  0  0
  146.2029  141.1408  153.5084 N   0  3  0  0  0  0  0  0  0  0  0  0
  147.1627  140.2113  153.4118 C   0  0  0  0  0  0  0  0  0  0  0  0
  147.0400  138.8869  152.7136 C   0  0  1  0  0  0  0  0  0  0  0  0
  146.4939  137.7981  153.6656 C   0  0  0  0  0  0  0  0  0  0  0  0
  146.4193  136.4931  152.9761 N   0  3  0  0  0  0  0  0  0  0  0  0
  145.6202  136.5896  151.7387 C   0  0  0  0  0  0  0  0  0  0  0  0
  146.1943  137.6893  150.8277 C   0  0  0  0  0  0  0  0  0  0  0  0
  146.1852  138.9702  151.5287 N   0  0  0  0  0  0  0  0  0  0  0  0
  150.1537  140.5146  154.8891 H   0  0  0  0  0  0  0  0  0  0  0  0
  149.9595  139.8655  153.2441 H   0  0  0  0  0  0  0  0  0  0  0  0
  149.2955  138.9773  154.6439 H   0  0  0  0  0  0  0  0  0  0  0  0
  148.6555  142.5085  155.1566 H   0  0  0  0  0  0  0  0  0  0  0  0
  146.0327  143.0848  154.4146 H   0  0  0  0  0  0  0  0  0  0  0  0
  148.0466  138.6228  152.3869 H   0  0  0  0  0  0  0  0  0  0  0  0
  147.1397  137.6933  154.5377 H   0  0  0  0  0  0  0  0  0  0  0  0
  145.5031  138.0686  154.0340 H   0  0  0  0  0  0  0  0  0  0  0  0
  147.3541  136.1968  152.7343 H   0  0  0  0  0  0  0  0  0  0  0  0
  145.6364  135.6265  151.2280 H   0  0  0  0  0  0  0  0  0  0  0  0
  144.5798  136.8015  151.9902 H   0  0  0  0  0  0  0  0  0  0  0  0
  147.2094  137.4435  150.5126 H   0  0  0  0  0  0  0  0  0  0  0  0
  145.5915  137.7775  149.9234 H   0  0  0  0  0  0  0  0  0  0  0  0
  146.5285  139.6926  150.9105 H   0  0  0  0  0  0  0  0  0  0  0  0
  146.0045  135.8080  153.5917 H   0  0  0  0  0  0  0  0  0  0  0  0
  145.2789  141.0570  153.1028 H   0  0  0  0  0  0  0  0  0  0  0  0
  1  2  1  0  0  0  0
  1 13  1  0  0  0  0
  1 14  1  0  0  0  0
  1 15  1  0  0  0  0
  2  6  1  0  0  0  0
  2  3  1  0  0  0  0
  3  4  2  0  0  0  0
  3 16  1  0  0  0  0
  4  5  1  0  0  0  0
  4 17  1  0  0  0  0
  5  6  2  0  0  0  0
  5 28  1  0  0  0  0
  6  7  1  0  0  0  0
  7 12  1  0  0  0  0
  7  8  1  0  0  0  0
  7 18  1  0  0  0  0
  8  9  1  0  0  0  0
  8 19  1  0  0  0  0
  8 20  1  0  0  0  0
  9 10  1  0  0  0  0
  9 21  1  0  0  0  0
  9 27  1  0  0  0  0
 10 11  1  0  0  0  0
 10 22  1  0  0  0  0
 10 23  1  0  0  0  0
 11 12  1  0  0  0  0
 11 24  1  0  0  0  0
 11 25  1  0  0  0  0
 12 26  1  0  0  0  0
M  CHG  1   5   1
M  CHG  1   9   1
M  END
> <s_m_source_file>
AV-unprocessed.smi

> <i_m_source_file_index>
2786

> <i_lp_mmshare_version>
43012

> <i_f3d_flags>
0

> <s_epik_input>
W0NIM11uMVtjSF1bY0hdbmMxW0NAQEhdMltDSDJdW05IXVtDSDJdW0NIMl1bTkhdMg==

> <s_epik_cmdline>
J2VwaWtfcHl0aG9uJywgJy1waCcsICc3LjAnLCAnLXRuJywgJzgnLCAnLW1hJywgJzIwMCcsICctbWV0YWxfYmluZGluZycsICctaW1hZScsICc8aW5maWxlLm1hZT4nLCAnLW9tYWUnLCAnPG91dGZpbGUubWFlPic=

> <r_lp_tautomer_probability>
1

> <r_epik_Ionization_Penalty>
1.19986

> <r_epik_Ionization_Penalty_Charging>
0.069211

> <r_epik_Ionization_Penalty_Neutral>
1.13065

> <r_epik_State_Penalty>
0.776615

> <r_epik_Charging_Adjusted_Penalty>
0.845826

> <i_epik_Tot_Q>
2

> <i_epik_Tot_abs_Q>
2

> <r_epik_Metal_State_Penalty>
4.73559

> <b_epik_Metal_Only>
0

> <s_lp_Force_Field>
OPLS_2005

> <r_lp_Energy>
18.3539

> <b_lp_Chiralities_Consistent>
1

> <s_lp_Variant>
AV-unprocessed.smi:2786-4

> <Gold.Version>
5.8.1

> <Gold.Id.Protein>
6NUR|6NUR_protein|mol2

> <Gold.PLP.Fitness>
37.9847

> <Gold.PLP.PLP>
-24.4410

> <Gold.PLP.part.hbond>
-3.8853

> <Gold.PLP.part.metal>
0.0000

> <Gold.PLP.part.buried>
3.8429

> <Gold.PLP.part.nonpolar>
-24.2356

> <Gold.PLP.part.repulsive>
0.0256

> <Gold.PLP.ligand.clash>
0.0000

> <Gold.PLP.ligand.torsion>
0.7333

> <Gold.PLP.Chemscore.Hbond>
4.0000

> <Gold.PLP.Chemscore.CHOScore>
1.0000

> <Gold.PLP.Chemscore.Metal>
0.0000

> <Gold.Chemscore.Hbonds>
donor molecule, donor type, donor heavy atom, donor atom, acceptor molecule, acceptor atom, score
      L1  H     5    28       P1 10175  2.00
      L1  H     9    21       P1  7948  2.00
      L1  C     3    16       P1  8028  1.00

> <Gold.PLP.Chemscore.Internal.Correction>
0.0104

> <Gold.Rescore>
     Score         DG    S(hbond)    S(metal)    S(lipo)     H(rot)  DE(clash)    DE(int)     intcor
     12.48     -14.56       1.96        0.00      43.62       1.00       1.36       0.73       ----

> <Gold.Chemscore.Fitness>
12.4765

> <Gold.Chemscore.DG>
-14.5603

> <Gold.Chemscore.ZeroCoef>
-5.4800

> <Gold.Chemscore.Hbond>
1.9571

> <Gold.Chemscore.Metal>
0.0000

> <Gold.Chemscore.Lipo>
43.6198

> <Gold.Chemscore.Internal_Hbond>
0.0000

> <Gold.Chemscore.DEClash>
1.3581

> <Gold.Chemscore.DEInternal>
0.7257

> <Gold.Chemscore.Rot>
1.0000

> <Gold.Chemscore.Internal.Correction>
   9.000000E+99

> <Gold.Chemscore.Hbonds>
donor molecule, donor type, donor heavy atom, donor atom, acceptor molecule, acceptor atom, score
      L1  H     5    28       P1 10175  0.30
      L1  H     9    21       P1  7948  0.99

> <Gold.Chemscore.Hbond.Weighted>
-6.5368

> <Gold.Chemscore.Metal.Weighted>
-0.0000

> <Gold.Chemscore.Lipo.Weighted>
-5.1035

> <Gold.Chemscore.Internal_Hbond.Weighted>
0.0000

> <Gold.Chemscore.DEClash.Weighted>
1.3581

> <Gold.Chemscore.DEInternal.Weighted>
0.7257

> <Gold.Chemscore.Rot.Weighted>
2.5600

> <Gold.Chemscore.Internal.Correction.Weighted>
   9.000000E+99

> <Gold.Protein.RotatedTorsions>
[ 6907 6896 6895 6894 ] final  163.78 input  -60.11 | X-H torsion
[ 7974 7965 7964 7962 ] final   -2.02 input  175.53 | X-H torsion
[ 8008 7997 7996 7995 ] final  153.88 input   59.86 | X-H torsion
[ 10167 10162 10161 10158 ] final   12.99 input  -65.29 | X-H torsion
[ 10718 10713 10712 10709 ] final  174.62 input   66.30 | X-H torsion
[ 10763 10752 10751 10750 ] final   15.40 input  -60.55 | X-H torsion
[ 11005 11000 10999 10996 ] final  171.79 input  -57.11 | X-H torsion

> <Gold.Protein.ActiveResidues>
 VAL166  LYS551  ARG553  GLY616  TRP617  ASP618  TYR619  PRO620  LYS621  CYS622 
 ASP623  PHE694  ASN695  SER759  ASP760  ASP761  ALA762  ILE779  LEU786  VAL792 
 PHE793  MET794  SER795  GLU796  ALA797  LYS798  CYS799  TRP800  GLU811  SER814 

> <Gold.Protein.RotatedAtoms>
  151.9199  133.3583  159.3892 H   0  0  0  0  0  0  0  0  0  0  0  0  # atno 6907 bound_to 6896
  150.7039  134.4646  159.5406 H   0  0  0  0  0  0  0  0  0  0  0  0  # atno 6908 bound_to 6896
  152.2267  134.8361  160.0530 H   0  0  0  0  0  0  0  0  0  0  0  0  # atno 6909 bound_to 6896
  146.2410  140.1509  142.8334 H   0  0  0  0  0  0  0  0  0  0  0  0  # atno 7974 bound_to 7965
  156.2559  140.1982  156.6559 H   0  0  0  0  0  0  0  0  0  0  0  0  # atno 8008 bound_to 7997
  154.6501  140.0573  156.9971 H   0  0  0  0  0  0  0  0  0  0  0  0  # atno 8009 bound_to 7997
  155.1431  140.3244  155.4450 H   0  0  0  0  0  0  0  0  0  0  0  0  # atno 8010 bound_to 7997
  140.6032  143.8561  150.6987 H   0  0  0  0  0  0  0  0  0  0  0  0  # atno 10167 bound_to 10162
  156.9469  131.0019  151.2957 H   0  0  0  0  0  0  0  0  0  0  0  0  # atno 10718 bound_to 10713
  153.1528  135.6781  153.8856 H   0  0  0  0  0  0  0  0  0  0  0  0  # atno 10763 bound_to 10752
  153.8277  135.3122  155.3417 H   0  0  0  0  0  0  0  0  0  0  0  0  # atno 10764 bound_to 10752
  154.7875  135.4853  154.0066 H   0  0  0  0  0  0  0  0  0  0  0  0  # atno 10765 bound_to 10752
  140.3228  134.7423  157.4076 H   0  0  0  0  0  0  0  0  0  0  0  0  # atno 11005 bound_to 11000
  145.0169  140.8761  143.5190 LP  0  0  0  0  0  0  0  0  0  0  0  0  # atno 17320 bound_to 7965
  145.1551  139.2491  143.5421 LP  0  0  0  0  0  0  0  0  0  0  0  0  # atno 17321 bound_to 7965
  140.2112  143.3882  152.1716 LP  0  0  0  0  0  0  0  0  0  0  0  0  # atno 17342 bound_to 10162
  139.5306  144.7154  151.5070 LP  0  0  0  0  0  0  0  0  0  0  0  0  # atno 17343 bound_to 10162
  157.5748  130.8335  149.8440 LP  0  0  0  0  0  0  0  0  0  0  0  0  # atno 17370 bound_to 10713
  156.0380  130.3746  150.1510 LP  0  0  0  0  0  0  0  0  0  0  0  0  # atno 17371 bound_to 10713
  140.0927  134.5579  155.8428 LP  0  0  0  0  0  0  0  0  0  0  0  0  # atno 17394 bound_to 11000
  141.2082  133.6672  156.6358 LP  0  0  0  0  0  0  0  0  0  0  0  0  # atno 17395 bound_to 11000

$$$$
