AV-unprocessed.smi:910|AV-procd|sdf|4120|dock8
  -GOLD-   22720 2 23D 1   1.00000     0.00000
 Structure written by MMmdl.
 46 47  0  0  0  0  0  0  0  0  1 V2000
  147.0625  139.5959  151.6207 C   0  0  0  0  0  0  0  0  0  0  0  0
  148.2137  139.6991  152.5972 C   0  0  0  0  0  0  0  0  0  0  0  0
  149.0970  138.6713  152.7876 N   0  0  0  0  0  0  0  0  0  0  0  0
  150.0312  139.0714  153.7306 C   0  0  0  0  0  0  0  0  0  0  0  0
  151.0342  138.3890  154.1901 N   0  0  0  0  0  0  0  0  0  0  0  0
  151.8791  138.9630  155.1286 C   0  0  0  0  0  0  0  0  0  0  0  0
  152.0931  140.1612  155.3393 O   0  0  0  0  0  0  0  0  0  0  0  0
  152.4741  138.0066  155.8569 N   0  0  0  0  0  0  0  0  0  0  0  0
  153.3967  138.2323  156.9650 C   0  0  0  0  0  0  0  0  0  0  0  0
  152.6972  138.9060  158.1542 C   0  0  0  0  0  0  0  0  0  0  0  0
  153.4299  140.0678  158.5150 O   0  0  0  0  0  0  0  0  0  0  0  0
  152.6792  141.0458  159.2234 C   0  0  2  0  0  0  0  0  0  0  0  0
  152.1858  142.1318  158.2443 C   0  0  0  0  0  0  0  0  0  0  0  0
  151.4918  143.2847  158.9840 C   0  0  0  0  0  0  0  0  0  0  0  0
  152.4137  143.8885  160.0528 C   0  0  0  0  0  0  0  0  0  0  0  0
  152.8978  142.8118  161.0356 C   0  0  0  0  0  0  0  0  0  0  0  0
  153.6006  141.6477  160.3084 C   0  0  1  0  0  0  0  0  0  0  0  0
  154.0659  140.5809  161.3138 C   0  0  0  0  0  0  0  0  0  0  0  0
  149.6860  140.3513  154.0998 O   0  0  0  0  0  0  0  0  0  0  0  0
  148.5774  140.7031  153.3916 C   0  0  0  0  0  0  0  0  0  0  0  0
  147.9880  142.0791  153.6046 C   0  0  0  0  0  0  0  0  0  0  0  0
  147.1424  140.3733  150.8605 H   0  0  0  0  0  0  0  0  0  0  0  0
  146.1131  139.7194  152.1419 H   0  0  0  0  0  0  0  0  0  0  0  0
  147.0578  138.6264  151.1221 H   0  0  0  0  0  0  0  0  0  0  0  0
  149.0404  137.7896  152.2988 H   0  0  0  0  0  0  0  0  0  0  0  0
  152.2528  137.0453  155.6410 H   0  0  0  0  0  0  0  0  0  0  0  0
  153.8075  137.2704  157.2725 H   0  0  0  0  0  0  0  0  0  0  0  0
  154.2409  138.8369  156.6298 H   0  0  0  0  0  0  0  0  0  0  0  0
  151.6773  139.1731  157.8773 H   0  0  0  0  0  0  0  0  0  0  0  0
  152.6346  138.2139  158.9952 H   0  0  0  0  0  0  0  0  0  0  0  0
  151.8236  140.5826  159.7188 H   0  0  0  0  0  0  0  0  0  0  0  0
  153.0314  142.5224  157.6765 H   0  0  0  0  0  0  0  0  0  0  0  0
  151.4961  141.7061  157.5159 H   0  0  0  0  0  0  0  0  0  0  0  0
  151.1910  144.0551  158.2735 H   0  0  0  0  0  0  0  0  0  0  0  0
  150.5768  142.9205  159.4527 H   0  0  0  0  0  0  0  0  0  0  0  0
  153.2728  144.3597  159.5732 H   0  0  0  0  0  0  0  0  0  0  0  0
  151.8895  144.6770  160.5934 H   0  0  0  0  0  0  0  0  0  0  0  0
  153.5761  143.2615  161.7615 H   0  0  0  0  0  0  0  0  0  0  0  0
  152.0475  142.4319  161.6037 H   0  0  0  0  0  0  0  0  0  0  0  0
  154.4877  142.0490  159.8156 H   0  0  0  0  0  0  0  0  0  0  0  0
  153.2199  140.1292  161.8329 H   0  0  0  0  0  0  0  0  0  0  0  0
  154.7260  141.0131  162.0662 H   0  0  0  0  0  0  0  0  0  0  0  0
  154.6168  139.7802  160.8191 H   0  0  0  0  0  0  0  0  0  0  0  0
  146.9687  142.1275  153.2211 H   0  0  0  0  0  0  0  0  0  0  0  0
  148.5884  142.8292  153.0900 H   0  0  0  0  0  0  0  0  0  0  0  0
  147.9682  142.3212  154.6673 H   0  0  0  0  0  0  0  0  0  0  0  0
  1 22  1  0  0  0  0
  1 23  1  0  0  0  0
  1 24  1  0  0  0  0
  1  2  1  0  0  0  0
  2  3  1  0  0  0  0
  2 20  2  0  0  0  0
  3 25  1  0  0  0  0
  3  4  1  0  0  0  0
  4 19  1  0  0  0  0
  4  5  2  0  0  0  0
  5  6  1  0  0  0  0
  6  8  1  0  0  0  0
  6  7  2  0  0  0  0
  8  9  1  0  0  0  0
  8 26  1  0  0  0  0
  9 10  1  0  0  0  0
  9 27  1  0  0  0  0
  9 28  1  0  0  0  0
 10 11  1  0  0  0  0
 10 29  1  0  0  0  0
 10 30  1  0  0  0  0
 11 12  1  0  0  0  0
 12 17  1  0  0  0  0
 12 13  1  0  0  0  0
 12 31  1  0  0  0  0
 13 14  1  0  0  0  0
 13 32  1  0  0  0  0
 13 33  1  0  0  0  0
 14 15  1  0  0  0  0
 14 34  1  0  0  0  0
 14 35  1  0  0  0  0
 15 16  1  0  0  0  0
 15 36  1  0  0  0  0
 15 37  1  0  0  0  0
 16 17  1  0  0  0  0
 16 38  1  0  0  0  0
 16 39  1  0  0  0  0
 17 18  1  0  0  0  0
 17 40  1  0  0  0  0
 18 41  1  0  0  0  0
 18 42  1  0  0  0  0
 18 43  1  0  0  0  0
 19 20  1  0  0  0  0
 20 21  1  0  0  0  0
 21 44  1  0  0  0  0
 21 45  1  0  0  0  0
 21 46  1  0  0  0  0
M  END
> <s_m_source_file>
AV-unprocessed.smi

> <i_m_source_file_index>
910

> <i_lp_mmshare_version>
43012

> <i_f3d_flags>
0

> <s_epik_input>
W0NIM11jMW5jKG9jMVtDSDNdKVtOSF1DKD1PKVtOSF1bQ0gyXVtDSDJdT1tDQEBIXTJbQ0gyXVtDSDJdW0NIMl1bQ0gyXVtDQEhdMltDSDNd

> <s_epik_cmdline>
J2VwaWtfcHl0aG9uJywgJy1waCcsICc3LjAnLCAnLXRuJywgJzgnLCAnLW1hJywgJzIwMCcsICctbWV0YWxfYmluZGluZycsICctaW1hZScsICc8aW5maWxlLm1hZT4nLCAnLW9tYWUnLCAnPG91dGZpbGUubWFlPic=

> <r_lp_tautomer_probability>
0.107061

> <r_epik_Ionization_Penalty>
0.727192

> <r_epik_Ionization_Penalty_Charging>
0.726719

> <r_epik_Ionization_Penalty_Neutral>
0.000473387

> <r_epik_State_Penalty>
2.53712

> <r_epik_Charging_Adjusted_Penalty>
3.26383

> <i_epik_Tot_Q>
0

> <i_epik_Tot_abs_Q>
0

> <r_epik_Metal_State_Penalty>
3.71015

> <b_epik_Metal_Only>
0

> <s_lp_Force_Field>
OPLS_2005

> <r_lp_Energy>
30.8071

> <b_lp_Chiralities_Consistent>
1

> <s_lp_Variant>
AV-unprocessed.smi:910-5

> <Gold.Version>
5.8.1

> <Gold.Id.Protein>
6NUR|6NUR_protein|mol2

> <Gold.PLP.Fitness>
45.7152

> <Gold.PLP.PLP>
-39.9908

> <Gold.PLP.part.hbond>
-4.0000

> <Gold.PLP.part.metal>
0.0000

> <Gold.PLP.part.buried>
2.1919

> <Gold.PLP.part.nonpolar>
-37.4853

> <Gold.PLP.part.repulsive>
0.5270

> <Gold.PLP.ligand.clash>
0.0000

> <Gold.PLP.ligand.torsion>
1.1519

> <Gold.PLP.Chemscore.Hbond>
2.6640

> <Gold.PLP.Chemscore.CHOScore>
0.0000

> <Gold.PLP.Chemscore.Metal>
0.0000

> <Gold.Chemscore.Hbonds>
donor molecule, donor type, donor heavy atom, donor atom, acceptor molecule, acceptor atom, score
      L1  H     3    25       P1  7948  1.00
      P1  H  7989  7998       L1     7  0.70
      P1  H  7997  8010       L1    11  0.98

> <Gold.PLP.Chemscore.Internal.Correction>
0.0362

> <Gold.Rescore>
     Score         DG    S(hbond)    S(metal)    S(lipo)     H(rot)  DE(clash)    DE(int)     intcor
     17.25     -20.96       2.08        0.00     109.20       1.66       1.08       2.64       ----

> <Gold.Chemscore.Fitness>
17.2493

> <Gold.Chemscore.DG>
-20.9632

> <Gold.Chemscore.ZeroCoef>
-5.4800

> <Gold.Chemscore.Hbond>
2.0811

> <Gold.Chemscore.Metal>
0.0000

> <Gold.Chemscore.Lipo>
109.1952

> <Gold.Chemscore.Internal_Hbond>
0.0000

> <Gold.Chemscore.DEClash>
1.0753

> <Gold.Chemscore.DEInternal>
2.6386

> <Gold.Chemscore.Rot>
1.6576

> <Gold.Chemscore.Internal.Correction>
   9.000000E+99

> <Gold.Chemscore.Hbonds>
donor molecule, donor type, donor heavy atom, donor atom, acceptor molecule, acceptor atom, score
      L1  H     3    25       P1  7948  0.94
      P1  H  7989  7998       L1     7  0.15
      P1  H  7997  8010       L1    11  0.24

> <Gold.Chemscore.Hbond.Weighted>
-6.9509

> <Gold.Chemscore.Metal.Weighted>
-0.0000

> <Gold.Chemscore.Lipo.Weighted>
-12.7758

> <Gold.Chemscore.Internal_Hbond.Weighted>
0.0000

> <Gold.Chemscore.DEClash.Weighted>
1.0753

> <Gold.Chemscore.DEInternal.Weighted>
2.6386

> <Gold.Chemscore.Rot.Weighted>
4.2436

> <Gold.Chemscore.Internal.Correction.Weighted>
   9.000000E+99

> <Gold.Protein.RotatedTorsions>
[ 6907 6896 6895 6894 ] final   90.10 input  -60.11 | X-H torsion
[ 7974 7965 7964 7962 ] final  104.35 input  175.53 | X-H torsion
[ 8008 7997 7996 7995 ] final   19.36 input   59.86 | X-H torsion
[ 10167 10162 10161 10158 ] final  120.64 input  -65.29 | X-H torsion
[ 10718 10713 10712 10709 ] final    7.81 input   66.30 | X-H torsion
[ 10763 10752 10751 10750 ] final -178.56 input  -60.55 | X-H torsion
[ 11005 11000 10999 10996 ] final -165.97 input  -57.11 | X-H torsion

> <Gold.Protein.ActiveResidues>
 VAL166  LYS551  ARG553  GLY616  TRP617  ASP618  TYR619  PRO620  LYS621  CYS622 
 ASP623  PHE694  ASN695  SER759  ASP760  ASP761  ALA762  ILE779  LEU786  VAL792 
 PHE793  MET794  SER795  GLU796  ALA797  LYS798  CYS799  TRP800  GLU811  SER814 

> <Gold.Protein.RotatedAtoms>
  152.5442  134.1863  159.8655 H   0  0  0  0  0  0  0  0  0  0  0  0  # atno 6907 bound_to 6896
  151.1862  133.4688  159.2602 H   0  0  0  0  0  0  0  0  0  0  0  0  # atno 6908 bound_to 6896
  151.1129  135.0048  159.8558 H   0  0  0  0  0  0  0  0  0  0  0  0  # atno 6909 bound_to 6896
  145.3339  139.2479  143.3646 H   0  0  0  0  0  0  0  0  0  0  0  0  # atno 7974 bound_to 7965
  154.9196  140.3025  155.5223 H   0  0  0  0  0  0  0  0  0  0  0  0  # atno 8008 bound_to 7997
  156.3010  140.2374  156.4181 H   0  0  0  0  0  0  0  0  0  0  0  0  # atno 8009 bound_to 7997
  154.8344  140.0417  157.1487 H   0  0  0  0  0  0  0  0  0  0  0  0  # atno 8010 bound_to 7997
  139.5969  144.7044  151.3155 H   0  0  0  0  0  0  0  0  0  0  0  0  # atno 10167 bound_to 10162
  156.9424  130.5866  149.5653 H   0  0  0  0  0  0  0  0  0  0  0  0  # atno 10718 bound_to 10713
  154.5461  135.2809  155.1051 H   0  0  0  0  0  0  0  0  0  0  0  0  # atno 10763 bound_to 10752
  154.2515  135.6338  153.5245 H   0  0  0  0  0  0  0  0  0  0  0  0  # atno 10764 bound_to 10752
  152.9991  135.5584  154.6014 H   0  0  0  0  0  0  0  0  0  0  0  0  # atno 10765 bound_to 10752
  140.5698  134.5249  157.5159 H   0  0  0  0  0  0  0  0  0  0  0  0  # atno 11005 bound_to 11000
  146.3034  140.3922  142.8696 LP  0  0  0  0  0  0  0  0  0  0  0  0  # atno 17320 bound_to 7965
  144.8843  140.7441  143.5967 LP  0  0  0  0  0  0  0  0  0  0  0  0  # atno 17321 bound_to 7965
  140.7219  143.7112  150.7768 LP  0  0  0  0  0  0  0  0  0  0  0  0  # atno 17342 bound_to 10162
  140.0680  143.5089  152.2594 LP  0  0  0  0  0  0  0  0  0  0  0  0  # atno 17343 bound_to 10162
  156.0398  130.5482  150.8744 LP  0  0  0  0  0  0  0  0  0  0  0  0  # atno 17370 bound_to 10713
  157.5776  131.0946  150.9322 LP  0  0  0  0  0  0  0  0  0  0  0  0  # atno 17371 bound_to 10713
  139.9367  134.7861  156.0783 LP  0  0  0  0  0  0  0  0  0  0  0  0  # atno 17394 bound_to 11000
  141.1063  133.6659  156.2872 LP  0  0  0  0  0  0  0  0  0  0  0  0  # atno 17395 bound_to 11000

$$$$
