AV-unprocessed.smi:525|AV-procd|sdf|2807|dock3
  -GOLD-   2262023283D 1   1.00000     0.00000
 Structure written by MMmdl.
 43 45  0  0  0  0  0  0  0  0  1 V2000
  147.5453  140.4629  154.1918 C   0  0  0  0  0  0  0  0  0  0  0  0
  148.9216  140.5772  153.8743 O   0  0  0  0  0  0  0  0  0  0  0  0
  149.7561  140.1023  154.9159 C   0  0  0  0  0  0  0  0  0  0  0  0
  149.4346  140.8650  156.2066 C   0  0  0  0  0  0  0  0  0  0  0  0
  150.4452  140.6375  157.2276 N   0  0  0  0  0  0  0  0  0  0  0  0
  150.8367  139.4559  157.7630 C   0  0  0  0  0  0  0  0  0  0  0  0
  150.1332  137.9222  157.2561 S   0  0  0  0  0  0  0  0  0  0  0  0
  151.5972  137.1950  156.4446 C   0  0  2  0  0  0  0  0  0  0  0  0
  151.8022  137.7292  155.0176 C   0  0  0  0  0  0  0  0  0  0  0  0
  150.8802  137.3863  154.1138 N   0  0  0  0  0  0  0  0  0  0  0  0
  152.7550  138.4510  154.7258 O   0  0  0  0  0  0  0  0  0  0  0  0
  151.5065  135.6705  156.4923 C   0  0  0  0  0  0  0  0  0  0  0  0
  150.4377  134.9830  155.8717 C   0  0  0  0  0  0  0  0  0  0  0  0
  150.3568  133.5791  155.9428 C   0  0  0  0  0  0  0  0  0  0  0  0
  151.3439  132.8504  156.6328 C   0  0  0  0  0  0  0  0  0  0  0  0
  152.4120  133.5270  157.2516 C   0  0  0  0  0  0  0  0  0  0  0  0
  152.4934  134.9312  157.1811 C   0  0  0  0  0  0  0  0  0  0  0  0
  151.7898  139.5285  158.6925 N   0  0  0  0  0  0  0  0  0  0  0  0
  152.0329  140.8858  158.7733 C   0  0  0  0  0  0  0  0  0  0  0  0
  152.9366  141.6105  159.5830 C   0  0  0  0  0  0  0  0  0  0  0  0
  153.0070  143.0162  159.4915 C   0  0  0  0  0  0  0  0  0  0  0  0
  152.1762  143.7157  158.5923 C   0  0  0  0  0  0  0  0  0  0  0  0
  151.2693  143.0129  157.7761 C   0  0  0  0  0  0  0  0  0  0  0  0
  151.2045  141.6098  157.8697 C   0  0  0  0  0  0  0  0  0  0  0  0
  146.9451  140.8466  153.3670 H   0  0  0  0  0  0  0  0  0  0  0  0
  147.2974  141.0378  155.0850 H   0  0  0  0  0  0  0  0  0  0  0  0
  147.2637  139.4222  154.3561 H   0  0  0  0  0  0  0  0  0  0  0  0
  149.6018  139.0318  155.0611 H   0  0  0  0  0  0  0  0  0  0  0  0
  150.8010  140.2501  154.6456 H   0  0  0  0  0  0  0  0  0  0  0  0
  149.3560  141.9347  156.0111 H   0  0  0  0  0  0  0  0  0  0  0  0
  148.4652  140.5525  156.5958 H   0  0  0  0  0  0  0  0  0  0  0  0
  152.4839  137.4888  157.0073 H   0  0  0  0  0  0  0  0  0  0  0  0
  150.9630  137.7126  153.1613 H   0  0  0  0  0  0  0  0  0  0  0  0
  150.1015  136.8049  154.3874 H   0  0  0  0  0  0  0  0  0  0  0  0
  149.6750  135.5312  155.3382 H   0  0  0  0  0  0  0  0  0  0  0  0
  149.5368  133.0616  155.4671 H   0  0  0  0  0  0  0  0  0  0  0  0
  151.2811  131.7735  156.6872 H   0  0  0  0  0  0  0  0  0  0  0  0
  153.1693  132.9688  157.7820 H   0  0  0  0  0  0  0  0  0  0  0  0
  153.3165  135.4382  157.6631 H   0  0  0  0  0  0  0  0  0  0  0  0
  153.5766  141.0843  160.2758 H   0  0  0  0  0  0  0  0  0  0  0  0
  153.7015  143.5604  160.1146 H   0  0  0  0  0  0  0  0  0  0  0  0
  152.2357  144.7924  158.5291 H   0  0  0  0  0  0  0  0  0  0  0  0
  150.6317  143.5462  157.0868 H   0  0  0  0  0  0  0  0  0  0  0  0
  1  2  1  0  0  0  0
  1 25  1  0  0  0  0
  1 26  1  0  0  0  0
  1 27  1  0  0  0  0
  2  3  1  0  0  0  0
  3  4  1  0  0  0  0
  3 28  1  0  0  0  0
  3 29  1  0  0  0  0
  4  5  1  0  0  0  0
  4 30  1  0  0  0  0
  4 31  1  0  0  0  0
  5 24  1  0  0  0  0
  5  6  1  0  0  0  0
  6  7  1  0  0  0  0
  6 18  2  0  0  0  0
  7  8  1  0  0  0  0
  8  9  1  0  0  0  0
  8 12  1  0  0  0  0
  8 32  1  0  0  0  0
  9 10  1  0  0  0  0
  9 11  2  0  0  0  0
 10 33  1  0  0  0  0
 10 34  1  0  0  0  0
 12 17  1  0  0  0  0
 12 13  2  0  0  0  0
 13 14  1  0  0  0  0
 13 35  1  0  0  0  0
 14 15  2  0  0  0  0
 14 36  1  0  0  0  0
 15 16  1  0  0  0  0
 15 37  1  0  0  0  0
 16 17  2  0  0  0  0
 16 38  1  0  0  0  0
 17 39  1  0  0  0  0
 18 19  1  0  0  0  0
 19 24  2  0  0  0  0
 19 20  1  0  0  0  0
 20 21  2  0  0  0  0
 20 40  1  0  0  0  0
 21 22  1  0  0  0  0
 21 41  1  0  0  0  0
 22 23  2  0  0  0  0
 22 42  1  0  0  0  0
 23 24  1  0  0  0  0
 23 43  1  0  0  0  0
M  END
> <s_m_source_file>
AV-unprocessed.smi

> <i_m_source_file_index>
525

> <i_lp_mmshare_version>
43012

> <i_f3d_flags>
0

> <s_epik_input>
W2NIXTFbY0hdW2NIXVtjSF1jKGMxMiluKFtDSDJdW0NIMl1PW0NIM10pYyhuMilTW0NASF0oQyg9TylbTkgyXSljM1tjSF1bY0hdW2NIXVtjSF1bY0hdMw==

> <s_epik_cmdline>
J2VwaWtfcHl0aG9uJywgJy1waCcsICc3LjAnLCAnLXRuJywgJzgnLCAnLW1hJywgJzIwMCcsICctbWV0YWxfYmluZGluZycsICctaW1hZScsICc8aW5maWxlLm1hZT4nLCAnLW9tYWUnLCAnPG91dGZpbGUubWFlPic=

> <r_epik_Ionization_Penalty>
0.0706634

> <r_epik_Ionization_Penalty_Charging>
0

> <r_epik_Ionization_Penalty_Neutral>
0.0706634

> <r_epik_State_Penalty>
0.0619781

> <r_epik_Charging_Adjusted_Penalty>
0.0619781

> <i_epik_Tot_Q>
0

> <i_epik_Tot_abs_Q>
0

> <r_epik_Metal_State_Penalty>
0.0552401

> <b_epik_Metal_Only>
0

> <s_lp_Force_Field>
OPLS_2005

> <r_lp_Energy>
11.715

> <b_lp_Chiralities_Consistent>
1

> <s_lp_Variant>
AV-unprocessed.smi:525-1

> <Gold.Version>
5.8.1

> <Gold.Id.Protein>
6NUR|6NUR_protein|mol2

> <Gold.PLP.Fitness>
49.6126

> <Gold.PLP.PLP>
-43.3359

> <Gold.PLP.part.hbond>
-4.0000

> <Gold.PLP.part.metal>
0.0000

> <Gold.PLP.part.buried>
-0.7279

> <Gold.PLP.part.nonpolar>
-37.1478

> <Gold.PLP.part.repulsive>
0.3904

> <Gold.PLP.ligand.clash>
0.0000

> <Gold.PLP.ligand.torsion>
0.4490

> <Gold.PLP.Chemscore.Hbond>
2.2800

> <Gold.PLP.Chemscore.CHOScore>
0.0000

> <Gold.PLP.Chemscore.Metal>
0.0000

> <Gold.Chemscore.Hbonds>
donor molecule, donor type, donor heavy atom, donor atom, acceptor molecule, acceptor atom, score
      L1  H    10    33       P1  7949  0.02

> <Gold.PLP.Chemscore.Internal.Correction>
0.3347

> <Gold.Rescore>
     Score         DG    S(hbond)    S(metal)    S(lipo)     H(rot)  DE(clash)    DE(int)     intcor
     15.46     -18.32       1.91        0.00     108.70       2.44       1.46       1.41       ----

> <Gold.Chemscore.Fitness>
15.4563

> <Gold.Chemscore.DG>
-18.3227

> <Gold.Chemscore.ZeroCoef>
-5.4800

> <Gold.Chemscore.Hbond>
1.9071

> <Gold.Chemscore.Metal>
0.0000

> <Gold.Chemscore.Lipo>
108.7039

> <Gold.Chemscore.Internal_Hbond>
0.0000

> <Gold.Chemscore.DEClash>
1.4607

> <Gold.Chemscore.DEInternal>
1.4057

> <Gold.Chemscore.Rot>
2.4396

> <Gold.Chemscore.Internal.Correction>
   9.000000E+99

> <Gold.Chemscore.Hbonds>
donor molecule, donor type, donor heavy atom, donor atom, acceptor molecule, acceptor atom, score
      L1  H    10    33       P1  7949  0.01

> <Gold.Chemscore.Hbond.Weighted>
-6.3697

> <Gold.Chemscore.Metal.Weighted>
-0.0000

> <Gold.Chemscore.Lipo.Weighted>
-12.7184

> <Gold.Chemscore.Internal_Hbond.Weighted>
0.0000

> <Gold.Chemscore.DEClash.Weighted>
1.4607

> <Gold.Chemscore.DEInternal.Weighted>
1.4057

> <Gold.Chemscore.Rot.Weighted>
6.2454

> <Gold.Chemscore.Internal.Correction.Weighted>
   9.000000E+99

> <Gold.Protein.RotatedTorsions>
[ 6907 6896 6895 6894 ] final  -77.86 input  -60.11 | X-H torsion
[ 7974 7965 7964 7962 ] final  128.20 input  175.53 | X-H torsion
[ 8008 7997 7996 7995 ] final  164.53 input   59.86 | X-H torsion
[ 10167 10162 10161 10158 ] final  -37.27 input  -65.29 | X-H torsion
[ 10718 10713 10712 10709 ] final   77.69 input   66.30 | X-H torsion
[ 10763 10752 10751 10750 ] final  -24.63 input  -60.55 | X-H torsion
[ 11005 11000 10999 10996 ] final  118.58 input  -57.11 | X-H torsion

> <Gold.Protein.ActiveResidues>
 VAL166  LYS551  ARG553  GLY616  TRP617  ASP618  TYR619  PRO620  LYS621  CYS622 
 ASP623  PHE694  ASN695  SER759  ASP760  ASP761  ALA762  ILE779  LEU786  VAL792 
 PHE793  MET794  SER795  GLU796  ALA797  LYS798  CYS799  TRP800  GLU811  SER814 

> <Gold.Protein.RotatedAtoms>
  150.6987  134.4359  159.5269 H   0  0  0  0  0  0  0  0  0  0  0  0  # atno 6907 bound_to 6896
  152.2077  134.8527  160.0510 H   0  0  0  0  0  0  0  0  0  0  0  0  # atno 6908 bound_to 6896
  151.9424  133.3607  159.4007 H   0  0  0  0  0  0  0  0  0  0  0  0  # atno 6909 bound_to 6896
  145.0422  139.3954  143.5096 H   0  0  0  0  0  0  0  0  0  0  0  0  # atno 7974 bound_to 7965
  156.1873  140.1694  156.8161 H   0  0  0  0  0  0  0  0  0  0  0  0  # atno 8008 bound_to 7997
  154.5429  140.0733  156.8572 H   0  0  0  0  0  0  0  0  0  0  0  0  # atno 8009 bound_to 7997
  155.3180  140.3371  155.4244 H   0  0  0  0  0  0  0  0  0  0  0  0  # atno 8010 bound_to 7997
  140.7122  143.3353  151.2477 H   0  0  0  0  0  0  0  0  0  0  0  0  # atno 10167 bound_to 10162
  157.6719  130.9833  150.1678 H   0  0  0  0  0  0  0  0  0  0  0  0  # atno 10718 bound_to 10713
  153.6869  135.6964  153.5101 H   0  0  0  0  0  0  0  0  0  0  0  0  # atno 10763 bound_to 10752
  153.2442  135.4296  155.0729 H   0  0  0  0  0  0  0  0  0  0  0  0  # atno 10764 bound_to 10752
  154.8384  135.3515  154.6411 H   0  0  0  0  0  0  0  0  0  0  0  0  # atno 10765 bound_to 10752
  139.9115  134.9621  156.7525 H   0  0  0  0  0  0  0  0  0  0  0  0  # atno 11005 bound_to 11000
  146.3510  140.0028  142.8674 LP  0  0  0  0  0  0  0  0  0  0  0  0  # atno 17320 bound_to 7965
  145.1634  140.9684  143.4364 LP  0  0  0  0  0  0  0  0  0  0  0  0  # atno 17321 bound_to 7965
  139.6846  143.9795  152.2827 LP  0  0  0  0  0  0  0  0  0  0  0  0  # atno 17342 bound_to 10162
  139.9436  144.6665  150.8241 LP  0  0  0  0  0  0  0  0  0  0  0  0  # atno 17343 bound_to 10162
  156.2439  130.3693  149.8306 LP  0  0  0  0  0  0  0  0  0  0  0  0  # atno 17370 bound_to 10713
  156.6098  130.8582  151.3451 LP  0  0  0  0  0  0  0  0  0  0  0  0  # atno 17371 bound_to 10713
  140.6762  133.9515  155.7884 LP  0  0  0  0  0  0  0  0  0  0  0  0  # atno 17394 bound_to 11000
  141.0543  134.0440  157.3743 LP  0  0  0  0  0  0  0  0  0  0  0  0  # atno 17395 bound_to 11000

$$$$
