AV-unprocessed.smi:609|AV-procd|sdf|3048|dock9
  -GOLD-   2262023563D 1   1.00000     0.00000
 Structure written by MMmdl.
 42 44  0  0  0  0  0  0  0  0  1 V2000
  151.3539  145.2724  159.4947 C   0  0  0  0  0  0  0  0  0  0  0  0
  151.7074  143.7959  159.4602 C   0  0  0  0  0  0  0  0  0  0  0  0
  151.5596  143.0817  158.2499 C   0  0  0  0  0  0  0  0  0  0  0  0
  151.8774  141.7077  158.1761 C   0  0  0  0  0  0  0  0  0  0  0  0
  151.8118  140.8259  157.1108 N   0  0  0  0  0  0  0  0  0  0  0  0
  152.2387  139.6976  157.6703 C   0  0  0  0  0  0  0  0  0  0  0  0
  152.5740  139.7442  158.9737 N   0  0  0  0  0  0  0  0  0  0  0  0
  153.0626  138.6454  159.7875 C   0  0  0  0  0  0  0  0  0  0  0  0
  154.2353  137.9001  159.1243 C   0  0  1  0  0  0  0  0  0  0  0  0
  155.3014  138.8012  158.8933 O   0  0  0  0  0  0  0  0  0  0  0  0
  154.7376  136.7327  159.9949 C   0  0  0  0  0  0  0  0  0  0  0  0
  155.3504  137.2707  161.6234 S   0  0  0  0  0  0  0  0  0  0  0  0
  154.9420  135.8523  162.5956 C   0  0  0  0  0  0  0  0  0  0  0  0
  155.0561  134.5901  162.1894 N   0  0  0  0  0  0  0  0  0  0  0  0
  154.6217  133.8240  163.2653 C   0  0  0  0  0  0  0  0  0  0  0  0
  154.2521  134.6551  164.2943 C   0  0  0  0  0  0  0  0  0  0  0  0
  154.4603  135.9534  163.8484 N   0  0  0  0  0  0  0  0  0  0  0  0
  154.2063  137.1660  164.6013 C   0  0  0  0  0  0  0  0  0  0  0  0
  152.3500  141.0624  159.3561 C   0  0  0  0  0  0  0  0  0  0  0  0
  152.5018  141.7623  160.5662 C   0  0  0  0  0  0  0  0  0  0  0  0
  152.1804  143.1347  160.6223 C   0  0  0  0  0  0  0  0  0  0  0  0
  152.3490  143.8819  161.9333 C   0  0  0  0  0  0  0  0  0  0  0  0
  151.0042  145.6214  158.5227 H   0  0  0  0  0  0  0  0  0  0  0  0
  152.2243  145.8681  159.7704 H   0  0  0  0  0  0  0  0  0  0  0  0
  150.5624  145.4587  160.2208 H   0  0  0  0  0  0  0  0  0  0  0  0
  151.2000  143.5850  157.3645 H   0  0  0  0  0  0  0  0  0  0  0  0
  152.3142  138.7831  157.1002 H   0  0  0  0  0  0  0  0  0  0  0  0
  153.3557  139.0338  160.7638 H   0  0  0  0  0  0  0  0  0  0  0  0
  152.2332  137.9589  159.9626 H   0  0  0  0  0  0  0  0  0  0  0  0
  153.9037  137.5231  158.1569 H   0  0  0  0  0  0  0  0  0  0  0  0
  156.0284  138.5526  159.4435 H   0  0  0  0  0  0  0  0  0  0  0  0
  153.9309  136.0167  160.1551 H   0  0  0  0  0  0  0  0  0  0  0  0
  155.5305  136.1866  159.4834 H   0  0  0  0  0  0  0  0  0  0  0  0
  154.6083  132.7453  163.2159 H   0  0  0  0  0  0  0  0  0  0  0  0
  153.8674  134.4360  165.2795 H   0  0  0  0  0  0  0  0  0  0  0  0
  153.8184  136.9213  165.5905 H   0  0  0  0  0  0  0  0  0  0  0  0
  153.4734  137.7792  164.0765 H   0  0  0  0  0  0  0  0  0  0  0  0
  155.1324  137.7302  164.7144 H   0  0  0  0  0  0  0  0  0  0  0  0
  152.8654  141.2468  161.4428 H   0  0  0  0  0  0  0  0  0  0  0  0
  152.7222  143.2258  162.7203 H   0  0  0  0  0  0  0  0  0  0  0  0
  151.3952  144.2929  162.2648 H   0  0  0  0  0  0  0  0  0  0  0  0
  153.0584  144.7014  161.8171 H   0  0  0  0  0  0  0  0  0  0  0  0
  1  2  1  0  0  0  0
  1 23  1  0  0  0  0
  1 24  1  0  0  0  0
  1 25  1  0  0  0  0
  2 21  1  0  0  0  0
  2  3  2  0  0  0  0
  3  4  1  0  0  0  0
  3 26  1  0  0  0  0
  4 19  2  0  0  0  0
  4  5  1  0  0  0  0
  5  6  2  0  0  0  0
  6  7  1  0  0  0  0
  6 27  1  0  0  0  0
  7  8  1  0  0  0  0
  7 19  1  0  0  0  0
  8  9  1  0  0  0  0
  8 28  1  0  0  0  0
  8 29  1  0  0  0  0
  9 10  1  0  0  0  0
  9 11  1  0  0  0  0
  9 30  1  0  0  0  0
 10 31  1  0  0  0  0
 11 12  1  0  0  0  0
 11 32  1  0  0  0  0
 11 33  1  0  0  0  0
 12 13  1  0  0  0  0
 13 17  1  0  0  0  0
 13 14  2  0  0  0  0
 14 15  1  0  0  0  0
 15 16  2  0  0  0  0
 15 34  1  0  0  0  0
 16 17  1  0  0  0  0
 16 35  1  0  0  0  0
 17 18  1  0  0  0  0
 18 36  1  0  0  0  0
 18 37  1  0  0  0  0
 18 38  1  0  0  0  0
 19 20  1  0  0  0  0
 20 21  2  0  0  0  0
 20 39  1  0  0  0  0
 21 22  1  0  0  0  0
 22 40  1  0  0  0  0
 22 41  1  0  0  0  0
 22 42  1  0  0  0  0
M  END
> <s_m_source_file>
AV-unprocessed.smi

> <i_m_source_file_index>
609

> <i_lp_mmshare_version>
43012

> <i_f3d_flags>
0

> <s_epik_input>
W0NIM11jKFtjSF0xKWMoW0NIM10pW2NIXWMoYzEyKW4oW2NIXW4yKVtDSDJdW0NASF0oW09IXSlbQ0gyXVNjM25bY0hdW2NIXW4zW0NIM10=

> <s_epik_cmdline>
J2VwaWtfcHl0aG9uJywgJy1waCcsICc3LjAnLCAnLXRuJywgJzgnLCAnLW1hJywgJzIwMCcsICctbWV0YWxfYmluZGluZycsICctaW1hZScsICc8aW5maWxlLm1hZT4nLCAnLW9tYWUnLCAnPG91dGZpbGUubWFlPic=

> <r_lp_tautomer_probability>
1

> <r_epik_Ionization_Penalty>
1.15618

> <r_epik_Ionization_Penalty_Charging>
1.04908

> <r_epik_Ionization_Penalty_Neutral>
0.107097

> <r_epik_State_Penalty>
1.19446

> <r_epik_Charging_Adjusted_Penalty>
2.24354

> <i_epik_Tot_Q>
0

> <i_epik_Tot_abs_Q>
0

> <r_epik_Metal_State_Penalty>
0.487262

> <b_epik_Metal_Only>
0

> <s_lp_Force_Field>
OPLS_2005

> <r_lp_Energy>
7.62781

> <b_lp_Chiralities_Consistent>
1

> <s_lp_Variant>
AV-unprocessed.smi:609-4

> <Gold.Version>
5.8.1

> <Gold.Id.Protein>
6NUR|6NUR_protein|mol2

> <Gold.PLP.Fitness>
48.7037

> <Gold.PLP.PLP>
-46.8177

> <Gold.PLP.part.hbond>
-1.0000

> <Gold.PLP.part.metal>
0.0000

> <Gold.PLP.part.buried>
-5.6517

> <Gold.PLP.part.nonpolar>
-39.1341

> <Gold.PLP.part.repulsive>
0.0000

> <Gold.PLP.ligand.clash>
0.0000

> <Gold.PLP.ligand.torsion>
0.5811

> <Gold.PLP.Chemscore.Hbond>
1.0000

> <Gold.PLP.Chemscore.CHOScore>
0.0000

> <Gold.PLP.Chemscore.Metal>
0.0000

> <Gold.Chemscore.Hbonds>
donor molecule, donor type, donor heavy atom, donor atom, acceptor molecule, acceptor atom, score
      P1  H  7997  8008       L1    10  1.00

> <Gold.PLP.Chemscore.Internal.Correction>
0.0481

> <Gold.Rescore>
     Score         DG    S(hbond)    S(metal)    S(lipo)     H(rot)  DE(clash)    DE(int)     intcor
     16.61     -17.21       1.00        0.00     124.44       2.41       0.01       0.58       ----

> <Gold.Chemscore.Fitness>
16.6084

> <Gold.Chemscore.DG>
-17.2062

> <Gold.Chemscore.ZeroCoef>
-5.4800

> <Gold.Chemscore.Hbond>
0.9968

> <Gold.Chemscore.Metal>
0.0000

> <Gold.Chemscore.Lipo>
124.4439

> <Gold.Chemscore.Internal_Hbond>
0.0000

> <Gold.Chemscore.DEClash>
0.0146

> <Gold.Chemscore.DEInternal>
0.5832

> <Gold.Chemscore.Rot>
2.4074

> <Gold.Chemscore.Internal.Correction>
   9.000000E+99

> <Gold.Chemscore.Hbonds>
donor molecule, donor type, donor heavy atom, donor atom, acceptor molecule, acceptor atom, score
      P1  H  7997  8008       L1    10  0.90

> <Gold.Chemscore.Hbond.Weighted>
-3.3293

> <Gold.Chemscore.Metal.Weighted>
-0.0000

> <Gold.Chemscore.Lipo.Weighted>
-14.5599

> <Gold.Chemscore.Internal_Hbond.Weighted>
0.0000

> <Gold.Chemscore.DEClash.Weighted>
0.0146

> <Gold.Chemscore.DEInternal.Weighted>
0.5832

> <Gold.Chemscore.Rot.Weighted>
6.1630

> <Gold.Chemscore.Internal.Correction.Weighted>
   9.000000E+99

> <Gold.Protein.RotatedTorsions>
[ 6907 6896 6895 6894 ] final  132.00 input  -60.11 | X-H torsion
[ 7974 7965 7964 7962 ] final  138.34 input  175.53 | X-H torsion
[ 8008 7997 7996 7995 ] final -119.37 input   59.86 | X-H torsion
[ 10167 10162 10161 10158 ] final  142.68 input  -65.29 | X-H torsion
[ 10718 10713 10712 10709 ] final  118.33 input   66.30 | X-H torsion
[ 10763 10752 10751 10750 ] final   89.82 input  -60.55 | X-H torsion
[ 11005 11000 10999 10996 ] final  138.11 input  -57.11 | X-H torsion

> <Gold.Protein.ActiveResidues>
 VAL166  LYS551  ARG553  GLY616  TRP617  ASP618  TYR619  PRO620  LYS621  CYS622 
 ASP623  PHE694  ASN695  SER759  ASP760  ASP761  ALA762  ILE779  LEU786  VAL792 
 PHE793  MET794  SER795  GLU796  ALA797  LYS798  CYS799  TRP800  GLU811  SER814 

> <Gold.Protein.RotatedAtoms>
  152.3369  133.6022  159.5848 H   0  0  0  0  0  0  0  0  0  0  0  0  # atno 6907 bound_to 6896
  150.7455  133.9782  159.3576 H   0  0  0  0  0  0  0  0  0  0  0  0  # atno 6908 bound_to 6896
  151.7650  135.0801  160.0402 H   0  0  0  0  0  0  0  0  0  0  0  0  # atno 6909 bound_to 6896
  144.9382  139.4963  143.5585 H   0  0  0  0  0  0  0  0  0  0  0  0  # atno 7974 bound_to 7965
  155.1147  140.0397  157.2733 H   0  0  0  0  0  0  0  0  0  0  0  0  # atno 8008 bound_to 7997
  154.6659  140.2601  155.7033 H   0  0  0  0  0  0  0  0  0  0  0  0  # atno 8009 bound_to 7997
  156.2638  140.2807  156.1149 H   0  0  0  0  0  0  0  0  0  0  0  0  # atno 8010 bound_to 7997
  139.4988  144.6091  151.6312 H   0  0  0  0  0  0  0  0  0  0  0  0  # atno 10167 bound_to 10162
  157.6037  131.1047  150.7742 H   0  0  0  0  0  0  0  0  0  0  0  0  # atno 10718 bound_to 10713
  153.1910  135.4456  155.0150 H   0  0  0  0  0  0  0  0  0  0  0  0  # atno 10763 bound_to 10752
  154.8090  135.3286  154.7357 H   0  0  0  0  0  0  0  0  0  0  0  0  # atno 10764 bound_to 10752
  153.7811  135.6977  153.4943 H   0  0  0  0  0  0  0  0  0  0  0  0  # atno 10765 bound_to 10752
  140.0161  134.9417  157.0378 H   0  0  0  0  0  0  0  0  0  0  0  0  # atno 11005 bound_to 11000
  146.3275  139.8382  142.8895 LP  0  0  0  0  0  0  0  0  0  0  0  0  # atno 17320 bound_to 7965
  145.3033  141.0200  143.3596 LP  0  0  0  0  0  0  0  0  0  0  0  0  # atno 17321 bound_to 7965
  140.5761  144.0027  150.6242 LP  0  0  0  0  0  0  0  0  0  0  0  0  # atno 17342 bound_to 10162
  140.3160  143.3167  152.0831 LP  0  0  0  0  0  0  0  0  0  0  0  0  # atno 17343 bound_to 10162
  156.8135  130.4960  149.5352 LP  0  0  0  0  0  0  0  0  0  0  0  0  # atno 17370 bound_to 10713
  156.1117  130.6045  151.0058 LP  0  0  0  0  0  0  0  0  0  0  0  0  # atno 17371 bound_to 10713
  140.4469  134.1623  155.7178 LP  0  0  0  0  0  0  0  0  0  0  0  0  # atno 17394 bound_to 11000
  141.1743  133.8545  157.1470 LP  0  0  0  0  0  0  0  0  0  0  0  0  # atno 17395 bound_to 11000

$$$$
