AV-unprocessed.smi:2582|AV-procd|sdf|10134|dock2
  -GOLD-   2272014143D 1   1.00000     0.00000
 Structure written by MMmdl.
 36 38  0  0  0  0  0  0  0  0  2 V2000
  153.2353  139.4358  158.2687 O   0  0  0  0  0  0  0  0  0  0  0  0
  152.4477  140.2207  157.7415 C   0  0  0  0  0  0  0  0  0  0  0  0
  152.2736  141.5988  158.2073 C   0  0  0  0  0  0  0  0  0  0  0  0
  151.4204  142.4781  157.6298 C   0  0  0  0  0  0  0  0  0  0  0  0
  151.3080  143.7798  158.1350 N   0  0  0  0  0  0  0  0  0  0  0  0
  150.1700  144.1501  158.9724 C   0  0  0  0  0  0  0  0  0  0  0  0
  151.1227  145.0896  159.7036 C   0  0  0  0  0  0  0  0  0  0  0  0
  152.2500  144.2196  159.1589 C   0  0  0  0  0  0  0  0  0  0  0  0
  150.6575  141.9729  156.4981 C   0  0  0  0  0  0  0  0  0  0  0  0
  150.7788  140.7676  156.0573 N   0  0  0  0  0  0  0  0  0  0  0  0
  151.6608  139.8913  156.6710 N   0  0  0  0  0  0  0  0  0  0  0  0
  151.6974  138.5419  156.0723 C   0  0  1  0  0  0  0  0  0  0  0  0
  151.4499  137.4413  157.1273 C   0  0  0  0  0  0  0  0  0  0  0  0
  151.4781  136.0549  156.4655 C   0  0  0  0  0  0  0  0  0  0  0  0
  150.4848  135.9846  155.2929 C   0  0  0  0  0  0  0  0  0  0  0  0
  150.7545  137.0581  154.3114 N   0  3  0  0  0  0  0  0  0  0  0  0
  150.6937  138.4119  154.9047 C   0  0  0  0  0  0  0  0  0  0  0  0
  152.8616  141.9230  159.0543 H   0  0  0  0  0  0  0  0  0  0  0  0
  149.3710  144.6551  158.4289 H   0  0  0  0  0  0  0  0  0  0  0  0
  149.7952  143.3442  159.6043 H   0  0  0  0  0  0  0  0  0  0  0  0
  151.1248  146.1058  159.3050 H   0  0  0  0  0  0  0  0  0  0  0  0
  151.0259  145.0737  160.7896 H   0  0  0  0  0  0  0  0  0  0  0  0
  152.5514  143.4254  159.8440 H   0  0  0  0  0  0  0  0  0  0  0  0
  153.1014  144.7756  158.7653 H   0  0  0  0  0  0  0  0  0  0  0  0
  149.9645  142.6773  156.0386 H   0  0  0  0  0  0  0  0  0  0  0  0
  152.6836  138.3407  155.6506 H   0  0  0  0  0  0  0  0  0  0  0  0
  152.2055  137.4946  157.9118 H   0  0  0  0  0  0  0  0  0  0  0  0
  150.4840  137.5817  157.6139 H   0  0  0  0  0  0  0  0  0  0  0  0
  152.4857  135.8399  156.1070 H   0  0  0  0  0  0  0  0  0  0  0  0
  151.2415  135.2860  157.2015 H   0  0  0  0  0  0  0  0  0  0  0  0
  150.5572  135.0183  154.7931 H   0  0  0  0  0  0  0  0  0  0  0  0
  149.4608  136.0794  155.6565 H   0  0  0  0  0  0  0  0  0  0  0  0
  151.6781  136.9179  153.9270 H   0  0  0  0  0  0  0  0  0  0  0  0
  149.6720  138.5986  155.2380 H   0  0  0  0  0  0  0  0  0  0  0  0
  150.9164  139.1459  154.1296 H   0  0  0  0  0  0  0  0  0  0  0  0
  150.0779  136.9971  153.5640 H   0  0  0  0  0  0  0  0  0  0  0  0
  1  2  2  0  0  0  0
  2 11  1  0  0  0  0
  2  3  1  0  0  0  0
  3  4  2  0  0  0  0
  3 18  1  0  0  0  0
  4  5  1  0  0  0  0
  4  9  1  0  0  0  0
  5  8  1  0  0  0  0
  5  6  1  0  0  0  0
  6  7  1  0  0  0  0
  6 19  1  0  0  0  0
  6 20  1  0  0  0  0
  7  8  1  0  0  0  0
  7 21  1  0  0  0  0
  7 22  1  0  0  0  0
  8 23  1  0  0  0  0
  8 24  1  0  0  0  0
  9 10  2  0  0  0  0
  9 25  1  0  0  0  0
 10 11  1  0  0  0  0
 11 12  1  0  0  0  0
 12 17  1  0  0  0  0
 12 13  1  0  0  0  0
 12 26  1  0  0  0  0
 13 14  1  0  0  0  0
 13 27  1  0  0  0  0
 13 28  1  0  0  0  0
 14 15  1  0  0  0  0
 14 29  1  0  0  0  0
 14 30  1  0  0  0  0
 15 16  1  0  0  0  0
 15 31  1  0  0  0  0
 15 32  1  0  0  0  0
 16 17  1  0  0  0  0
 16 33  1  0  0  0  0
 16 36  1  0  0  0  0
 17 34  1  0  0  0  0
 17 35  1  0  0  0  0
M  CHG  1  16   1
M  END
> <s_m_source_file>
AV-unprocessed.smi

> <i_m_source_file_index>
2582

> <i_lp_mmshare_version>
43012

> <i_f3d_flags>
0

> <s_epik_input>
W0NIMl0xW0NIMl1bQ0gyXU4xYyhbY0hdYzI9TylbY0hdbm4yW0NAQEhdM1tDSDJdW0NIMl1bQ0gyXVtOSF1bQ0gyXTM=

> <s_epik_cmdline>
J2VwaWtfcHl0aG9uJywgJy1waCcsICc3LjAnLCAnLXRuJywgJzgnLCAnLW1hJywgJzIwMCcsICctbWV0YWxfYmluZGluZycsICctaW1hZScsICc8aW5maWxlLm1hZT4nLCAnLW9tYWUnLCAnPG91dGZpbGUubWFlPic=

> <r_lp_tautomer_probability>
1

> <r_epik_Ionization_Penalty>
0.00148886

> <r_epik_Ionization_Penalty_Charging>
0.0014053

> <r_epik_Ionization_Penalty_Neutral>
8.35615e-05

> <r_epik_State_Penalty>
-0

> <r_epik_Charging_Adjusted_Penalty>
0.0014053

> <i_epik_Tot_Q>
1

> <i_epik_Tot_abs_Q>
1

> <r_epik_Metal_State_Penalty>
-0

> <b_epik_Metal_Only>
0

> <s_lp_Force_Field>
OPLS_2005

> <r_lp_Energy>
54.8166

> <b_lp_Chiralities_Consistent>
1

> <s_lp_Variant>
AV-unprocessed.smi:2582-2

> <Gold.Version>
5.8.1

> <Gold.Id.Protein>
6NUR|6NUR_protein|mol2

> <Gold.PLP.Fitness>
40.8696

> <Gold.PLP.PLP>
-30.3347

> <Gold.PLP.part.hbond>
-3.0000

> <Gold.PLP.part.metal>
0.0000

> <Gold.PLP.part.buried>
-4.7890

> <Gold.PLP.part.nonpolar>
-23.2683

> <Gold.PLP.part.repulsive>
0.2373

> <Gold.PLP.ligand.clash>
0.0000

> <Gold.PLP.ligand.torsion>
0.3364

> <Gold.PLP.Chemscore.Hbond>
2.7000

> <Gold.PLP.Chemscore.CHOScore>
1.0000

> <Gold.PLP.Chemscore.Metal>
0.0000

> <Gold.Chemscore.Hbonds>
donor molecule, donor type, donor heavy atom, donor atom, acceptor molecule, acceptor atom, score
      L1  H    16    36       P1  7948  1.39
      P1  H  7997  8010       L1     1  0.60
      L1  C     9    25       P1  8028  1.00

> <Gold.PLP.Chemscore.Internal.Correction>
0.1077

> <Gold.Rescore>
     Score         DG    S(hbond)    S(metal)    S(lipo)     H(rot)  DE(clash)    DE(int)     intcor
     13.14     -14.61       0.74        0.00      83.31       1.20       0.09       1.38       ----

> <Gold.Chemscore.Fitness>
13.1356

> <Gold.Chemscore.DG>
-14.6051

> <Gold.Chemscore.ZeroCoef>
-5.4800

> <Gold.Chemscore.Hbond>
0.7350

> <Gold.Chemscore.Metal>
0.0000

> <Gold.Chemscore.Lipo>
83.3147

> <Gold.Chemscore.Internal_Hbond>
0.0000

> <Gold.Chemscore.DEClash>
0.0861

> <Gold.Chemscore.DEInternal>
1.3834

> <Gold.Chemscore.Rot>
1.2022

> <Gold.Chemscore.Internal.Correction>
   9.000000E+99

> <Gold.Chemscore.Hbonds>
donor molecule, donor type, donor heavy atom, donor atom, acceptor molecule, acceptor atom, score
      L1  H    16    36       P1  7948  0.16
      P1  H  7997  8010       L1     1  0.04

> <Gold.Chemscore.Hbond.Weighted>
-2.4549

> <Gold.Chemscore.Metal.Weighted>
-0.0000

> <Gold.Chemscore.Lipo.Weighted>
-9.7478

> <Gold.Chemscore.Internal_Hbond.Weighted>
0.0000

> <Gold.Chemscore.DEClash.Weighted>
0.0861

> <Gold.Chemscore.DEInternal.Weighted>
1.3834

> <Gold.Chemscore.Rot.Weighted>
3.0777

> <Gold.Chemscore.Internal.Correction.Weighted>
   9.000000E+99

> <Gold.Protein.RotatedTorsions>
[ 6907 6896 6895 6894 ] final   38.98 input  -60.11 | X-H torsion
[ 7974 7965 7964 7962 ] final  -65.76 input  175.53 | X-H torsion
[ 8008 7997 7996 7995 ] final   25.76 input   59.86 | X-H torsion
[ 10167 10162 10161 10158 ] final   44.53 input  -65.29 | X-H torsion
[ 10718 10713 10712 10709 ] final  136.16 input   66.30 | X-H torsion
[ 10763 10752 10751 10750 ] final  -22.98 input  -60.55 | X-H torsion
[ 11005 11000 10999 10996 ] final  -78.64 input  -57.11 | X-H torsion

> <Gold.Protein.ActiveResidues>
 VAL166  LYS551  ARG553  GLY616  TRP617  ASP618  TYR619  PRO620  LYS621  CYS622 
 ASP623  PHE694  ASN695  SER759  ASP760  ASP761  ALA762  ILE779  LEU786  VAL792 
 PHE793  MET794  SER795  GLU796  ALA797  LYS798  CYS799  TRP800  GLU811  SER814 

> <Gold.Protein.RotatedAtoms>
  152.1636  134.8892  160.0539 H   0  0  0  0  0  0  0  0  0  0  0  0  # atno 6907 bound_to 6896
  151.9878  133.3775  159.4141 H   0  0  0  0  0  0  0  0  0  0  0  0  # atno 6908 bound_to 6896
  150.6891  134.3891  159.5112 H   0  0  0  0  0  0  0  0  0  0  0  0  # atno 6909 bound_to 6896
  145.7503  140.8912  143.0483 H   0  0  0  0  0  0  0  0  0  0  0  0  # atno 7974 bound_to 7965
  155.0168  140.3143  155.4808 H   0  0  0  0  0  0  0  0  0  0  0  0  # atno 8008 bound_to 7997
  156.2899  140.2204  156.5226 H   0  0  0  0  0  0  0  0  0  0  0  0  # atno 8009 bound_to 7997
  154.7486  140.0468  157.0862 H   0  0  0  0  0  0  0  0  0  0  0  0  # atno 8010 bound_to 7997
  140.3334  144.2560  150.6165 H   0  0  0  0  0  0  0  0  0  0  0  0  # atno 10167 bound_to 10162
  157.4495  131.1065  151.0050 H   0  0  0  0  0  0  0  0  0  0  0  0  # atno 10718 bound_to 10713
  153.6605  135.6976  153.5179 H   0  0  0  0  0  0  0  0  0  0  0  0  # atno 10763 bound_to 10752
  153.2635  135.4237  155.0917 H   0  0  0  0  0  0  0  0  0  0  0  0  # atno 10764 bound_to 10752
  154.8453  135.3561  154.6150 H   0  0  0  0  0  0  0  0  0  0  0  0  # atno 10765 bound_to 10752
  141.1665  133.7072  156.8002 H   0  0  0  0  0  0  0  0  0  0  0  0  # atno 11005 bound_to 11000
  144.6851  139.9581  143.7479 LP  0  0  0  0  0  0  0  0  0  0  0  0  # atno 17320 bound_to 7965
  146.0363  139.3381  143.0724 LP  0  0  0  0  0  0  0  0  0  0  0  0  # atno 17321 bound_to 7965
  140.5376  143.2230  151.8137 LP  0  0  0  0  0  0  0  0  0  0  0  0  # atno 17342 bound_to 10162
  139.4852  144.4641  151.9505 LP  0  0  0  0  0  0  0  0  0  0  0  0  # atno 17343 bound_to 10162
  157.0884  130.5932  149.5434 LP  0  0  0  0  0  0  0  0  0  0  0  0  # atno 17370 bound_to 10713
  155.9981  130.5054  150.7559 LP  0  0  0  0  0  0  0  0  0  0  0  0  # atno 17371 bound_to 10713
  140.2262  134.8720  157.3429 LP  0  0  0  0  0  0  0  0  0  0  0  0  # atno 17394 bound_to 11000
  140.1937  134.4339  155.7701 LP  0  0  0  0  0  0  0  0  0  0  0  0  # atno 17395 bound_to 11000

$$$$
