AV-unprocessed.smi:699|AV-procd|sdf|3400|dock4
  -GOLD-   22720 0383D 1   1.00000     0.00000
 Structure written by MMmdl.
 34 35  0  0  0  0  0  0  0  0  1 V2000
  148.3354  137.3709  154.0943 N   0  0  0  0  0  0  0  0  0  0  0  0
  147.6453  138.1103  154.9661 C   0  0  0  0  0  0  0  0  0  0  0  0
  148.0038  138.2384  156.1356 O   0  0  0  0  0  0  0  0  0  0  0  0
  146.3744  138.8100  154.4371 C   0  0  1  0  0  0  0  0  0  0  0  0
  146.5133  140.3376  154.5169 C   0  0  0  0  0  0  0  0  0  0  0  0
  147.1652  140.7708  153.2000 C   0  0  0  0  0  0  0  0  0  0  0  0
  146.7912  139.6988  152.1675 C   0  0  0  0  0  0  0  0  0  0  0  0
  146.0718  138.5736  152.9341 C   0  0  1  0  0  0  0  0  0  0  0  0
  146.4601  137.2550  152.4300 N   0  0  0  0  0  0  0  0  0  0  0  0
  145.6091  136.3294  151.9644 C   0  0  0  0  0  0  0  0  0  0  0  0
  144.3917  136.5008  151.9067 O   0  0  0  0  0  0  0  0  0  0  0  0
  146.2646  135.2215  151.5762 N   0  0  0  0  0  0  0  0  0  0  0  0
  145.7476  134.0175  151.0229 C   0  0  0  0  0  0  0  0  0  0  0  0
  144.3502  133.9270  150.8543 C   0  0  0  0  0  0  0  0  0  0  0  0
  143.8059  132.7519  150.2989 C   0  0  0  0  0  0  0  0  0  0  0  0
  144.5557  131.6998  149.9091 N   0  0  0  0  0  0  0  0  0  0  0  0
  145.8938  131.7916  150.0599 C   0  0  0  0  0  0  0  0  0  0  0  0
  146.5391  132.9207  150.6033 C   0  0  0  0  0  0  0  0  0  0  0  0
  149.1744  136.8961  154.3944 H   0  0  0  0  0  0  0  0  0  0  0  0
  148.0184  137.2900  153.1391 H   0  0  0  0  0  0  0  0  0  0  0  0
  145.5262  138.4815  155.0403 H   0  0  0  0  0  0  0  0  0  0  0  0
  145.5207  140.7832  154.5955 H   0  0  0  0  0  0  0  0  0  0  0  0
  147.0826  140.6755  155.3842 H   0  0  0  0  0  0  0  0  0  0  0  0
  146.8389  141.7657  152.8959 H   0  0  0  0  0  0  0  0  0  0  0  0
  148.2490  140.8072  153.3155 H   0  0  0  0  0  0  0  0  0  0  0  0
  146.1466  140.1062  151.3881 H   0  0  0  0  0  0  0  0  0  0  0  0
  147.6960  139.3358  151.6777 H   0  0  0  0  0  0  0  0  0  0  0  0
  144.9984  138.7044  152.7820 H   0  0  0  0  0  0  0  0  0  0  0  0
  147.4450  137.0337  152.4475 H   0  0  0  0  0  0  0  0  0  0  0  0
  147.2709  135.2627  151.6433 H   0  0  0  0  0  0  0  0  0  0  0  0
  143.7016  134.7396  151.1476 H   0  0  0  0  0  0  0  0  0  0  0  0
  142.7390  132.6556  150.1628 H   0  0  0  0  0  0  0  0  0  0  0  0
  146.4707  130.9399  149.7315 H   0  0  0  0  0  0  0  0  0  0  0  0
  147.6153  132.9200  150.6742 H   0  0  0  0  0  0  0  0  0  0  0  0
  1  2  1  0  0  0  0
  1 19  1  0  0  0  0
  1 20  1  0  0  0  0
  2  3  2  0  0  0  0
  2  4  1  0  0  0  0
  4  8  1  0  0  0  0
  4  5  1  0  0  0  0
  4 21  1  0  0  0  0
  5  6  1  0  0  0  0
  5 22  1  0  0  0  0
  5 23  1  0  0  0  0
  6  7  1  0  0  0  0
  6 24  1  0  0  0  0
  6 25  1  0  0  0  0
  7  8  1  0  0  0  0
  7 26  1  0  0  0  0
  7 27  1  0  0  0  0
  8  9  1  0  0  0  0
  8 28  1  0  0  0  0
  9 10  1  0  0  0  0
  9 29  1  0  0  0  0
 10 11  2  0  0  0  0
 10 12  1  0  0  0  0
 12 13  1  0  0  0  0
 12 30  1  0  0  0  0
 13 18  1  0  0  0  0
 13 14  2  0  0  0  0
 14 15  1  0  0  0  0
 14 31  1  0  0  0  0
 15 16  2  0  0  0  0
 15 32  1  0  0  0  0
 16 17  1  0  0  0  0
 17 18  2  0  0  0  0
 17 33  1  0  0  0  0
 18 34  1  0  0  0  0
M  END
> <s_m_source_file>
AV-unprocessed.smi

> <i_m_source_file_index>
699

> <i_lp_mmshare_version>
43012

> <i_f3d_flags>
0

> <s_epik_input>
W05IMl1DKD1PKVtDQEBIXTFbQ0gyXVtDSDJdW0NIMl1bQ0BIXTFbTkhdQyg9TylbTkhdYzJbY0hdW2NIXW5bY0hdW2NIXTI=

> <s_epik_cmdline>
J2VwaWtfcHl0aG9uJywgJy1waCcsICc3LjAnLCAnLXRuJywgJzgnLCAnLW1hJywgJzIwMCcsICctbWV0YWxfYmluZGluZycsICctaW1hZScsICc8aW5maWxlLm1hZT4nLCAnLW9tYWUnLCAnPG91dGZpbGUubWFlPic=

> <r_epik_Ionization_Penalty>
0.113907

> <r_epik_Ionization_Penalty_Charging>
0

> <r_epik_Ionization_Penalty_Neutral>
0.113907

> <r_epik_State_Penalty>
0.103543

> <r_epik_Charging_Adjusted_Penalty>
0.103543

> <i_epik_Tot_Q>
0

> <i_epik_Tot_abs_Q>
0

> <r_epik_Metal_State_Penalty>
0.0867106

> <b_epik_Metal_Only>
0

> <s_lp_Force_Field>
OPLS_2005

> <r_lp_Energy>
19.4222

> <b_lp_Chiralities_Consistent>
1

> <s_lp_Variant>
AV-unprocessed.smi:699-2

> <Gold.Version>
5.8.1

> <Gold.Id.Protein>
6NUR|6NUR_protein|mol2

> <Gold.PLP.Fitness>
39.9380

> <Gold.PLP.PLP>
-27.0440

> <Gold.PLP.part.hbond>
-3.9432

> <Gold.PLP.part.metal>
0.0000

> <Gold.PLP.part.buried>
-0.7236

> <Gold.PLP.part.nonpolar>
-24.2276

> <Gold.PLP.part.repulsive>
1.4064

> <Gold.PLP.ligand.clash>
0.0000

> <Gold.PLP.ligand.torsion>
0.0254

> <Gold.PLP.Chemscore.Hbond>
2.5447

> <Gold.PLP.Chemscore.CHOScore>
1.7643

> <Gold.PLP.Chemscore.Metal>
0.0000

> <Gold.Chemscore.Hbonds>
donor molecule, donor type, donor heavy atom, donor atom, acceptor molecule, acceptor atom, score
      L1  H     1    20       P1  7948  0.43
      L1  H     9    29       P1  7948  1.00
      L1  H    12    30       P1  7948  1.00
      P1  H 10785 10796       L1    16  0.09
      L1  C    15    32       P1 10186  0.97
      L1  C    17    33       P1 10747  0.77

> <Gold.PLP.Chemscore.Internal.Correction>
0.0176

> <Gold.Rescore>
     Score         DG    S(hbond)    S(metal)    S(lipo)     H(rot)  DE(clash)    DE(int)     intcor
     14.75     -18.27       2.50        0.00      70.52       1.49       0.32       3.19       ----

> <Gold.Chemscore.Fitness>
14.7535

> <Gold.Chemscore.DG>
-18.2653

> <Gold.Chemscore.ZeroCoef>
-5.4800

> <Gold.Chemscore.Hbond>
2.4990

> <Gold.Chemscore.Metal>
0.0000

> <Gold.Chemscore.Lipo>
70.5199

> <Gold.Chemscore.Internal_Hbond>
0.0000

> <Gold.Chemscore.DEClash>
0.3225

> <Gold.Chemscore.DEInternal>
3.1892

> <Gold.Chemscore.Rot>
1.4892

> <Gold.Chemscore.Internal.Correction>
   9.000000E+99

> <Gold.Chemscore.Hbonds>
donor molecule, donor type, donor heavy atom, donor atom, acceptor molecule, acceptor atom, score
      L1  H     1    20       P1  7948  0.44
      L1  H     9    29       P1  7948  0.98
      L1  H    12    30       P1  7948  0.91
      P1  H 10785 10796       L1    16  0.08

> <Gold.Chemscore.Hbond.Weighted>
-8.3468

> <Gold.Chemscore.Metal.Weighted>
-0.0000

> <Gold.Chemscore.Lipo.Weighted>
-8.2508

> <Gold.Chemscore.Internal_Hbond.Weighted>
0.0000

> <Gold.Chemscore.DEClash.Weighted>
0.3225

> <Gold.Chemscore.DEInternal.Weighted>
3.1892

> <Gold.Chemscore.Rot.Weighted>
3.8123

> <Gold.Chemscore.Internal.Correction.Weighted>
   9.000000E+99

> <Gold.Protein.RotatedTorsions>
[ 6907 6896 6895 6894 ] final  176.16 input  -60.11 | X-H torsion
[ 7974 7965 7964 7962 ] final  -55.52 input  175.53 | X-H torsion
[ 8008 7997 7996 7995 ] final  106.02 input   59.86 | X-H torsion
[ 10167 10162 10161 10158 ] final  118.37 input  -65.29 | X-H torsion
[ 10718 10713 10712 10709 ] final  -12.90 input   66.30 | X-H torsion
[ 10763 10752 10751 10750 ] final  -53.83 input  -60.55 | X-H torsion
[ 11005 11000 10999 10996 ] final  -38.42 input  -57.11 | X-H torsion

> <Gold.Protein.ActiveResidues>
 VAL166  LYS551  ARG553  GLY616  TRP617  ASP618  TYR619  PRO620  LYS621  CYS622 
 ASP623  PHE694  ASN695  SER759  ASP760  ASP761  ALA762  ILE779  LEU786  VAL792 
 PHE793  MET794  SER795  GLU796  ALA797  LYS798  CYS799  TRP800  GLU811  SER814 

> <Gold.Protein.RotatedAtoms>
  151.7246  133.3315  159.3324 H   0  0  0  0  0  0  0  0  0  0  0  0  # atno 6907 bound_to 6896
  150.7638  134.6417  159.6250 H   0  0  0  0  0  0  0  0  0  0  0  0  # atno 6908 bound_to 6896
  152.3630  134.6847  160.0253 H   0  0  0  0  0  0  0  0  0  0  0  0  # atno 6909 bound_to 6896
  145.8733  140.8200  142.9877 H   0  0  0  0  0  0  0  0  0  0  0  0  # atno 7974 bound_to 7965
  156.1708  140.3120  155.8970 H   0  0  0  0  0  0  0  0  0  0  0  0  # atno 8008 bound_to 7997
  155.3590  140.0475  157.3063 H   0  0  0  0  0  0  0  0  0  0  0  0  # atno 8009 bound_to 7997
  154.5239  140.2207  155.8936 H   0  0  0  0  0  0  0  0  0  0  0  0  # atno 8010 bound_to 7997
  139.6116  144.7083  151.2832 H   0  0  0  0  0  0  0  0  0  0  0  0  # atno 10167 bound_to 10162
  156.6380  130.4920  149.6105 H   0  0  0  0  0  0  0  0  0  0  0  0  # atno 10718 bound_to 10713
  154.1651  135.6468  153.4995 H   0  0  0  0  0  0  0  0  0  0  0  0  # atno 10763 bound_to 10752
  153.0100  135.5370  154.6671 H   0  0  0  0  0  0  0  0  0  0  0  0  # atno 10764 bound_to 10752
  154.5995  135.2942  155.0523 H   0  0  0  0  0  0  0  0  0  0  0  0  # atno 10765 bound_to 10752
  141.0026  133.6947  156.2051 H   0  0  0  0  0  0  0  0  0  0  0  0  # atno 11005 bound_to 11000
  144.6726  140.1271  143.7446 LP  0  0  0  0  0  0  0  0  0  0  0  0  # atno 17320 bound_to 7965
  145.9111  139.2488  143.1437 LP  0  0  0  0  0  0  0  0  0  0  0  0  # atno 17321 bound_to 7965
  140.7323  143.6828  150.7987 LP  0  0  0  0  0  0  0  0  0  0  0  0  # atno 17342 bound_to 10162
  140.0423  143.5333  152.2712 LP  0  0  0  0  0  0  0  0  0  0  0  0  # atno 17343 bound_to 10162
  156.2182  130.6721  151.1340 LP  0  0  0  0  0  0  0  0  0  0  0  0  # atno 17370 bound_to 10713
  157.7180  131.0699  150.6251 LP  0  0  0  0  0  0  0  0  0  0  0  0  # atno 17371 bound_to 10713
  140.6864  134.4712  157.5589 LP  0  0  0  0  0  0  0  0  0  0  0  0  # atno 17394 bound_to 11000
  139.9047  134.8477  156.1755 LP  0  0  0  0  0  0  0  0  0  0  0  0  # atno 17395 bound_to 11000

$$$$
