AV-unprocessed.smi:3303|AV-procd|sdf|12693|dock3
  -GOLD-   2272019 23D 1   1.00000     0.00000
 Structure written by MMmdl.
 44 45  0  0  0  0  0  0  0  0  2 V2000
  147.8346  140.1161  154.0645 C   0  0  0  0  0  0  0  0  0  0  0  0
  148.8368  138.9487  154.0975 C   0  0  2  0  0  0  0  0  0  0  0  0
  148.2315  137.6749  154.7199 C   0  0  0  0  0  0  0  0  0  0  0  0
  149.1793  136.5353  154.6390 N   0  3  2  0  0  0  0  0  0  0  0  0
  148.5554  135.2438  155.0072 C   0  0  0  0  0  0  0  0  0  0  0  0
  150.4833  136.7973  155.3121 C   0  0  2  0  0  0  0  0  0  0  0  0
  150.4004  136.7679  156.8542 C   0  0  0  0  0  0  0  0  0  0  0  0
  151.1305  138.0898  154.7618 C   0  0  0  0  0  0  0  0  0  0  0  0
  150.1885  139.3180  154.7503 C   0  0  2  0  0  0  0  0  0  0  0  0
  149.9853  139.8762  156.0838 N   0  0  0  0  0  0  0  0  0  0  0  0
  151.2281  140.2737  156.7321 C   0  0  0  0  0  0  0  0  0  0  0  0
  151.0276  140.4088  158.2513 C   0  0  0  0  0  0  0  0  0  0  0  0
  151.3306  141.8052  158.7701 C   0  0  0  0  0  0  0  0  0  0  0  0
  151.9640  141.9830  160.0185 C   0  0  0  0  0  0  0  0  0  0  0  0
  152.1929  143.2957  160.4746 C   0  0  0  0  0  0  0  0  0  0  0  0
  151.7816  144.3751  159.6694 C   0  0  0  0  0  0  0  0  0  0  0  0
  151.1591  144.0927  158.4375 C   0  0  0  0  0  0  0  0  0  0  0  0
  150.9314  142.8381  157.9925 N   0  0  0  0  0  0  0  0  0  0  0  0
  147.4954  140.3884  155.0644 H   0  0  0  0  0  0  0  0  0  0  0  0
  146.9516  139.8549  153.4806 H   0  0  0  0  0  0  0  0  0  0  0  0
  148.2781  141.0018  153.6087 H   0  0  0  0  0  0  0  0  0  0  0  0
  149.0541  138.7113  153.0548 H   0  0  0  0  0  0  0  0  0  0  0  0
  147.9374  137.8511  155.7551 H   0  0  0  0  0  0  0  0  0  0  0  0
  147.3199  137.4131  154.1811 H   0  0  0  0  0  0  0  0  0  0  0  0
  148.1743  135.2608  156.0288 H   0  0  0  0  0  0  0  0  0  0  0  0
  149.2722  134.4268  154.9188 H   0  0  0  0  0  0  0  0  0  0  0  0
  147.7196  135.0235  154.3424 H   0  0  0  0  0  0  0  0  0  0  0  0
  151.1472  135.9793  155.0289 H   0  0  0  0  0  0  0  0  0  0  0  0
  151.3595  137.0341  157.2996 H   0  0  0  0  0  0  0  0  0  0  0  0
  150.1467  135.7749  157.2243 H   0  0  0  0  0  0  0  0  0  0  0  0
  149.6577  137.4607  157.2451 H   0  0  0  0  0  0  0  0  0  0  0  0
  152.0651  138.2962  155.2818 H   0  0  0  0  0  0  0  0  0  0  0  0
  151.4246  137.8976  153.7290 H   0  0  0  0  0  0  0  0  0  0  0  0
  150.6434  140.1005  154.1408 H   0  0  0  0  0  0  0  0  0  0  0  0
  149.3798  140.6830  156.0250 H   0  0  0  0  0  0  0  0  0  0  0  0
  152.0188  139.5501  156.5399 H   0  0  0  0  0  0  0  0  0  0  0  0
  151.5561  141.2276  156.3175 H   0  0  0  0  0  0  0  0  0  0  0  0
  149.9954  140.1619  158.5026 H   0  0  0  0  0  0  0  0  0  0  0  0
  151.6470  139.6807  158.7777 H   0  0  0  0  0  0  0  0  0  0  0  0
  152.2616  141.1344  160.6167 H   0  0  0  0  0  0  0  0  0  0  0  0
  152.6726  143.4710  161.4262 H   0  0  0  0  0  0  0  0  0  0  0  0
  151.9406  145.3947  159.9874 H   0  0  0  0  0  0  0  0  0  0  0  0
  150.8308  144.8956  157.7946 H   0  0  0  0  0  0  0  0  0  0  0  0
  149.4048  136.4486  153.6583 H   0  0  0  0  0  0  0  0  0  0  0  0
  1  2  1  0  0  0  0
  1 19  1  0  0  0  0
  1 20  1  0  0  0  0
  1 21  1  0  0  0  0
  2  9  1  0  0  0  0
  2  3  1  0  0  0  0
  2 22  1  0  0  0  0
  3  4  1  0  0  0  0
  3 23  1  0  0  0  0
  3 24  1  0  0  0  0
  4  5  1  0  0  0  0
  4  6  1  0  0  0  0
  4 44  1  0  0  0  0
  5 25  1  0  0  0  0
  5 26  1  0  0  0  0
  5 27  1  0  0  0  0
  6  7  1  0  0  0  0
  6  8  1  0  0  0  0
  6 28  1  0  0  0  0
  7 29  1  0  0  0  0
  7 30  1  0  0  0  0
  7 31  1  0  0  0  0
  8  9  1  0  0  0  0
  8 32  1  0  0  0  0
  8 33  1  0  0  0  0
  9 10  1  0  0  0  0
  9 34  1  0  0  0  0
 10 11  1  0  0  0  0
 10 35  1  0  0  0  0
 11 12  1  0  0  0  0
 11 36  1  0  0  0  0
 11 37  1  0  0  0  0
 12 13  1  0  0  0  0
 12 38  1  0  0  0  0
 12 39  1  0  0  0  0
 13 18  1  0  0  0  0
 13 14  2  0  0  0  0
 14 15  1  0  0  0  0
 14 40  1  0  0  0  0
 15 16  2  0  0  0  0
 15 41  1  0  0  0  0
 16 17  1  0  0  0  0
 16 42  1  0  0  0  0
 17 18  2  0  0  0  0
 17 43  1  0  0  0  0
M  CHG  1   4   1
M  END
> <s_m_source_file>
AV-unprocessed.smi

> <i_m_source_file_index>
3303

> <i_lp_mmshare_version>
43012

> <i_f3d_flags>
0

> <s_epik_input>
W0NIM11bQ0BASF0xW0NIMl1OKFtDSDNdKVtDQEBIXShbQ0gzXSlbQ0gyXVtDQEhdMVtOSF1bQ0gyXVtDSDJdYzJbY0hdW2NIXVtjSF1bY0hdbjI=

> <s_epik_cmdline>
J2VwaWtfcHl0aG9uJywgJy1waCcsICc3LjAnLCAnLXRuJywgJzgnLCAnLW1hJywgJzIwMCcsICctbWV0YWxfYmluZGluZycsICctaW1hZScsICc8aW5maWxlLm1hZT4nLCAnLW9tYWUnLCAnPG91dGZpbGUubWFlPic=

> <r_epik_Ionization_Penalty>
2.31085

> <r_epik_Ionization_Penalty_Charging>
0.000313057

> <r_epik_Ionization_Penalty_Neutral>
2.31054

> <r_epik_State_Penalty>
2.4087

> <r_epik_Charging_Adjusted_Penalty>
2.40902

> <i_epik_Tot_Q>
1

> <i_epik_Tot_abs_Q>
1

> <r_epik_Metal_State_Penalty>
2.30979

> <b_epik_Metal_Only>
0

> <s_lp_Force_Field>
OPLS_2005

> <r_lp_Energy>
27.6401

> <b_lp_Chiralities_Consistent>
1

> <s_lp_Variant>
AV-unprocessed.smi:3303-37

> <Gold.Version>
5.8.1

> <Gold.Id.Protein>
6NUR|6NUR_protein|mol2

> <Gold.PLP.Fitness>
44.9005

> <Gold.PLP.PLP>
-37.5010

> <Gold.PLP.part.hbond>
-1.0000

> <Gold.PLP.part.metal>
0.0000

> <Gold.PLP.part.buried>
-4.2569

> <Gold.PLP.part.nonpolar>
-32.9838

> <Gold.PLP.part.repulsive>
0.1472

> <Gold.PLP.ligand.clash>
0.0000

> <Gold.PLP.ligand.torsion>
0.7653

> <Gold.PLP.Chemscore.Hbond>
2.0000

> <Gold.PLP.Chemscore.CHOScore>
0.9736

> <Gold.PLP.Chemscore.Metal>
0.0000

> <Gold.Chemscore.Hbonds>
donor molecule, donor type, donor heavy atom, donor atom, acceptor molecule, acceptor atom, score
      L1  H     4    44       P1  7948  2.00
      L1  C    17    43       P1  8028  0.20

> <Gold.PLP.Chemscore.Internal.Correction>
0.0094

> <Gold.Rescore>
     Score         DG    S(hbond)    S(metal)    S(lipo)     H(rot)  DE(clash)    DE(int)     intcor
     17.91     -18.95       1.00        0.00     115.76       1.33       0.18       0.86       ----

> <Gold.Chemscore.Fitness>
17.9080

> <Gold.Chemscore.DG>
-18.9505

> <Gold.Chemscore.ZeroCoef>
-5.4800

> <Gold.Chemscore.Hbond>
0.9953

> <Gold.Chemscore.Metal>
0.0000

> <Gold.Chemscore.Lipo>
115.7598

> <Gold.Chemscore.Internal_Hbond>
0.0000

> <Gold.Chemscore.DEClash>
0.1794

> <Gold.Chemscore.DEInternal>
0.8631

> <Gold.Chemscore.Rot>
1.3272

> <Gold.Chemscore.Internal.Correction>
   9.000000E+99

> <Gold.Chemscore.Hbonds>
donor molecule, donor type, donor heavy atom, donor atom, acceptor molecule, acceptor atom, score
      L1  H     4    44       P1  7948  0.81

> <Gold.Chemscore.Hbond.Weighted>
-3.3242

> <Gold.Chemscore.Metal.Weighted>
-0.0000

> <Gold.Chemscore.Lipo.Weighted>
-13.5439

> <Gold.Chemscore.Internal_Hbond.Weighted>
0.0000

> <Gold.Chemscore.DEClash.Weighted>
0.1794

> <Gold.Chemscore.DEInternal.Weighted>
0.8631

> <Gold.Chemscore.Rot.Weighted>
3.3976

> <Gold.Chemscore.Internal.Correction.Weighted>
   9.000000E+99

> <Gold.Protein.RotatedTorsions>
[ 6907 6896 6895 6894 ] final  153.97 input  -60.11 | X-H torsion
[ 7974 7965 7964 7962 ] final  -24.17 input  175.53 | X-H torsion
[ 8008 7997 7996 7995 ] final -116.57 input   59.86 | X-H torsion
[ 10167 10162 10161 10158 ] final   72.24 input  -65.29 | X-H torsion
[ 10718 10713 10712 10709 ] final -159.89 input   66.30 | X-H torsion
[ 10763 10752 10751 10750 ] final   98.27 input  -60.55 | X-H torsion
[ 11005 11000 10999 10996 ] final -163.10 input  -57.11 | X-H torsion

> <Gold.Protein.ActiveResidues>
 VAL166  LYS551  ARG553  GLY616  TRP617  ASP618  TYR619  PRO620  LYS621  CYS622 
 ASP623  PHE694  ASN695  SER759  ASP760  ASP761  ALA762  ILE779  LEU786  VAL792 
 PHE793  MET794  SER795  GLU796  ALA797  LYS798  CYS799  TRP800  GLU811  SER814 

> <Gold.Protein.RotatedAtoms>
  152.0651  133.4080  159.4434 H   0  0  0  0  0  0  0  0  0  0  0  0  # atno 6907 bound_to 6896
  150.6865  134.3156  159.4774 H   0  0  0  0  0  0  0  0  0  0  0  0  # atno 6908 bound_to 6896
  152.0981  134.9360  160.0621 H   0  0  0  0  0  0  0  0  0  0  0  0  # atno 6909 bound_to 6896
  146.1571  140.4715  142.8587 H   0  0  0  0  0  0  0  0  0  0  0  0  # atno 7974 bound_to 7965
  155.0699  140.0393  157.2605 H   0  0  0  0  0  0  0  0  0  0  0  0  # atno 8008 bound_to 7997
  154.6991  140.2669  155.6713 H   0  0  0  0  0  0  0  0  0  0  0  0  # atno 8009 bound_to 7997
  156.2754  140.2744  156.1595 H   0  0  0  0  0  0  0  0  0  0  0  0  # atno 8010 bound_to 7997
  140.0374  144.5417  150.7460 H   0  0  0  0  0  0  0  0  0  0  0  0  # atno 10167 bound_to 10162
  156.5744  130.8702  151.2847 H   0  0  0  0  0  0  0  0  0  0  0  0  # atno 10718 bound_to 10713
  153.2870  135.4154  155.1132 H   0  0  0  0  0  0  0  0  0  0  0  0  # atno 10763 bound_to 10752
  154.8508  135.3509  154.6033 H   0  0  0  0  0  0  0  0  0  0  0  0  # atno 10764 bound_to 10752
  153.6455  135.7055  153.5285 H   0  0  0  0  0  0  0  0  0  0  0  0  # atno 10765 bound_to 10752
  140.6019  134.4939  157.5206 H   0  0  0  0  0  0  0  0  0  0  0  0  # atno 11005 bound_to 11000
  144.7978  140.6156  143.6498 LP  0  0  0  0  0  0  0  0  0  0  0  0  # atno 17320 bound_to 7965
  145.4680  139.1506  143.3829 LP  0  0  0  0  0  0  0  0  0  0  0  0  # atno 17321 bound_to 7965
  140.7275  143.2652  151.4069 LP  0  0  0  0  0  0  0  0  0  0  0  0  # atno 17342 bound_to 10162
  139.6036  144.1244  152.2225 LP  0  0  0  0  0  0  0  0  0  0  0  0  # atno 17343 bound_to 10162
  157.7341  130.9740  150.2010 LP  0  0  0  0  0  0  0  0  0  0  0  0  # atno 17370 bound_to 10713
  156.2686  130.3719  149.8055 LP  0  0  0  0  0  0  0  0  0  0  0  0  # atno 17371 bound_to 10713
  139.9229  134.8113  156.1157 LP  0  0  0  0  0  0  0  0  0  0  0  0  # atno 17394 bound_to 11000
  141.0867  133.6731  156.2451 LP  0  0  0  0  0  0  0  0  0  0  0  0  # atno 17395 bound_to 11000

$$$$
