AV-unprocessed.smi:2026|AV-procd|sdf|8207|dock5
  -GOLD-   2272010463D 1   1.00000     0.00000
 Structure written by MMmdl.
 46 48  0  0  0  0  0  0  0  0  3 V2000
  152.1875  145.1827  160.3430 C   0  0  0  0  0  0  0  0  0  0  0  0
  151.9911  143.9507  159.4763 C   0  0  0  0  0  0  0  0  0  0  0  0
  151.2310  144.0739  158.2904 C   0  0  0  0  0  0  0  0  0  0  0  0
  151.0686  142.9285  157.5194 C   0  0  0  0  0  0  0  0  0  0  0  0
  150.3896  142.7192  156.3162 N   0  3  0  0  0  0  0  0  0  0  0  0
  150.5152  141.4145  155.9437 C   0  0  0  0  0  0  0  0  0  0  0  0
  151.2637  140.7899  156.8918 N   0  0  0  0  0  0  0  0  0  0  0  0
  151.7066  139.3947  156.9902 C   0  0  0  0  0  0  0  0  0  0  0  0
  151.9903  138.7728  155.6070 C   0  0  2  0  0  0  0  0  0  0  0  0
  152.9108  139.5877  154.9097 O   0  0  0  0  0  0  0  0  0  0  0  0
  150.7309  138.5921  154.7357 C   0  0  0  0  0  0  0  0  0  0  0  0
  149.8729  137.5001  155.2145 N   0  0  0  0  0  0  0  0  0  0  0  0
  148.5265  137.5247  155.2525 C   0  0  0  0  0  0  0  0  0  0  0  0
  147.8744  138.4961  154.8713 O   0  0  0  0  0  0  0  0  0  0  0  0
  148.0336  136.3722  155.7638 N   0  5  0  0  0  0  0  0  0  0  0  0
  149.1388  135.4978  156.1000 C   0  0  0  0  0  0  0  0  0  0  0  0
  149.1376  135.2004  157.6116 C   0  0  0  0  0  0  0  0  0  0  0  0
  149.0655  134.2031  155.2689 C   0  0  0  0  0  0  0  0  0  0  0  0
  150.3348  136.3425  155.6999 C   0  0  0  0  0  0  0  0  0  0  0  0
  151.5099  135.9960  155.8274 O   0  0  0  0  0  0  0  0  0  0  0  0
  151.6315  141.6936  157.8930 C   0  0  0  0  0  0  0  0  0  0  0  0
  152.3848  141.5548  159.0554 C   0  0  0  0  0  0  0  0  0  0  0  0
  152.5622  142.7070  159.8529 C   0  0  0  0  0  0  0  0  0  0  0  0
  153.3806  142.5847  161.1270 C   0  0  0  0  0  0  0  0  0  0  0  0
  151.6600  146.0459  159.9356 H   0  0  0  0  0  0  0  0  0  0  0  0
  153.2452  145.4384  160.4085 H   0  0  0  0  0  0  0  0  0  0  0  0
  151.8097  145.0070  161.3505 H   0  0  0  0  0  0  0  0  0  0  0  0
  150.7961  145.0181  157.9962 H   0  0  0  0  0  0  0  0  0  0  0  0
  150.1000  140.9590  155.0563 H   0  0  0  0  0  0  0  0  0  0  0  0
  152.5903  139.3744  157.6283 H   0  0  0  0  0  0  0  0  0  0  0  0
  150.9350  138.8304  157.5155 H   0  0  0  0  0  0  0  0  0  0  0  0
  152.4679  137.8016  155.7378 H   0  0  0  0  0  0  0  0  0  0  0  0
  152.7979  139.4398  153.9833 H   0  0  0  0  0  0  0  0  0  0  0  0
  150.1755  139.5299  154.6861 H   0  0  0  0  0  0  0  0  0  0  0  0
  151.0241  138.3733  153.7073 H   0  0  0  0  0  0  0  0  0  0  0  0
  149.9875  134.5783  157.8940 H   0  0  0  0  0  0  0  0  0  0  0  0
  148.2325  134.6685  157.9063 H   0  0  0  0  0  0  0  0  0  0  0  0
  149.1849  136.1143  158.2048 H   0  0  0  0  0  0  0  0  0  0  0  0
  149.8935  133.5340  155.5063 H   0  0  0  0  0  0  0  0  0  0  0  0
  149.1039  134.4058  154.1975 H   0  0  0  0  0  0  0  0  0  0  0  0
  148.1404  133.6604  155.4669 H   0  0  0  0  0  0  0  0  0  0  0  0
  152.8209  140.6076  159.3369 H   0  0  0  0  0  0  0  0  0  0  0  0
  153.7917  141.5814  161.2421 H   0  0  0  0  0  0  0  0  0  0  0  0
  152.7624  142.7942  162.0000 H   0  0  0  0  0  0  0  0  0  0  0  0
  154.2164  143.2846  161.1165 H   0  0  0  0  0  0  0  0  0  0  0  0
  149.8795  143.4133  155.7852 H   0  0  0  0  0  0  0  0  0  0  0  0
  1  2  1  0  0  0  0
  1 25  1  0  0  0  0
  1 26  1  0  0  0  0
  1 27  1  0  0  0  0
  2 23  1  0  0  0  0
  2  3  2  0  0  0  0
  3  4  1  0  0  0  0
  3 28  1  0  0  0  0
  4 21  2  0  0  0  0
  4  5  1  0  0  0  0
  5  6  2  0  0  0  0
  5 46  1  0  0  0  0
  6  7  1  0  0  0  0
  6 29  1  0  0  0  0
  7  8  1  0  0  0  0
  7 21  1  0  0  0  0
  8  9  1  0  0  0  0
  8 30  1  0  0  0  0
  8 31  1  0  0  0  0
  9 10  1  0  0  0  0
  9 11  1  0  0  0  0
  9 32  1  0  0  0  0
 10 33  1  0  0  0  0
 11 12  1  0  0  0  0
 11 34  1  0  0  0  0
 11 35  1  0  0  0  0
 12 19  1  0  0  0  0
 12 13  1  0  0  0  0
 13 14  2  0  0  0  0
 13 15  1  0  0  0  0
 15 16  1  0  0  0  0
 16 17  1  0  0  0  0
 16 18  1  0  0  0  0
 16 19  1  0  0  0  0
 17 36  1  0  0  0  0
 17 37  1  0  0  0  0
 17 38  1  0  0  0  0
 18 39  1  0  0  0  0
 18 40  1  0  0  0  0
 18 41  1  0  0  0  0
 19 20  2  0  0  0  0
 21 22  1  0  0  0  0
 22 23  2  0  0  0  0
 22 42  1  0  0  0  0
 23 24  1  0  0  0  0
 24 43  1  0  0  0  0
 24 44  1  0  0  0  0
 24 45  1  0  0  0  0
M  CHG  1   5   1
M  CHG  1  15  -1
M  END
> <s_m_source_file>
AV-unprocessed.smi

> <i_m_source_file_index>
2026

> <i_lp_mmshare_version>
43012

> <i_f3d_flags>
0

> <s_epik_input>
W0NIM11jKFtjSF0xKWMoW0NIM10pW2NIXWMoYzEyKW4oW2NIXW4yKVtDSDJdW0NASF0oW09IXSlbQ0gyXU4oQzM9TylDKD1PKVtOSF1DMyhbQ0gzXSlbQ0gzXQ==

> <s_epik_cmdline>
J2VwaWtfcHl0aG9uJywgJy1waCcsICc3LjAnLCAnLXRuJywgJzgnLCAnLW1hJywgJzIwMCcsICctbWV0YWxfYmluZGluZycsICctaW1hZScsICc8aW5maWxlLm1hZT4nLCAnLW9tYWUnLCAnPG91dGZpbGUubWFlPic=

> <r_lp_tautomer_probability>
1

> <r_epik_Ionization_Penalty>
6.70784

> <r_epik_Ionization_Penalty_Charging>
6.70784

> <r_epik_Ionization_Penalty_Neutral>
1.13852e-06

> <r_epik_State_Penalty>
6.78089

> <r_epik_Charging_Adjusted_Penalty>
13.4887

> <i_epik_Tot_Q>
0

> <i_epik_Tot_abs_Q>
2

> <r_epik_Metal_State_Penalty>
2.84685

> <b_epik_Metal_Only>
1

> <s_lp_Force_Field>
OPLS_2005

> <r_lp_Energy>
17.8482

> <b_lp_Chiralities_Consistent>
1

> <s_lp_Variant>
AV-unprocessed.smi:2026-7

> <Gold.Version>
5.8.1

> <Gold.Id.Protein>
6NUR|6NUR_protein|mol2

> <Gold.PLP.Fitness>
59.1159

> <Gold.PLP.PLP>
-48.6172

> <Gold.PLP.part.hbond>
-3.9801

> <Gold.PLP.part.metal>
0.0000

> <Gold.PLP.part.buried>
-6.8231

> <Gold.PLP.part.nonpolar>
-39.9642

> <Gold.PLP.part.repulsive>
0.3588

> <Gold.PLP.ligand.clash>
0.0000

> <Gold.PLP.ligand.torsion>
0.7646

> <Gold.PLP.Chemscore.Hbond>
4.0000

> <Gold.PLP.Chemscore.CHOScore>
0.0000

> <Gold.PLP.Chemscore.Metal>
0.0000

> <Gold.Chemscore.Hbonds>
donor molecule, donor type, donor heavy atom, donor atom, acceptor molecule, acceptor atom, score
      L1  H     5    46       P1  8028  2.00
      P1  H  7997  8008       L1    10  1.00
      P1  H 10752 10763       L1    20  1.00

> <Gold.PLP.Chemscore.Internal.Correction>
0.0279

> <Gold.Rescore>
     Score         DG    S(hbond)    S(metal)    S(lipo)     H(rot)  DE(clash)    DE(int)     intcor
     20.24     -22.61       2.92        0.00     116.37       2.44       0.08       2.29       ----

> <Gold.Chemscore.Fitness>
20.2387

> <Gold.Chemscore.DG>
-22.6127

> <Gold.Chemscore.ZeroCoef>
-5.4800

> <Gold.Chemscore.Hbond>
2.9200

> <Gold.Chemscore.Metal>
0.0000

> <Gold.Chemscore.Lipo>
116.3684

> <Gold.Chemscore.Internal_Hbond>
0.0000

> <Gold.Chemscore.DEClash>
0.0794

> <Gold.Chemscore.DEInternal>
2.2945

> <Gold.Chemscore.Rot>
2.4357

> <Gold.Chemscore.Internal.Correction>
   9.000000E+99

> <Gold.Chemscore.Hbonds>
donor molecule, donor type, donor heavy atom, donor atom, acceptor molecule, acceptor atom, score
      L1  H     5    46       P1  8028  0.97
      P1  H  7997  8008       L1    10  0.94
      P1  H 10752 10763       L1    20  1.00

> <Gold.Chemscore.Hbond.Weighted>
-9.7529

> <Gold.Chemscore.Metal.Weighted>
-0.0000

> <Gold.Chemscore.Lipo.Weighted>
-13.6151

> <Gold.Chemscore.Internal_Hbond.Weighted>
0.0000

> <Gold.Chemscore.DEClash.Weighted>
0.0794

> <Gold.Chemscore.DEInternal.Weighted>
2.2945

> <Gold.Chemscore.Rot.Weighted>
6.2353

> <Gold.Chemscore.Internal.Correction.Weighted>
   9.000000E+99

> <Gold.Protein.RotatedTorsions>
[ 6907 6896 6895 6894 ] final -110.13 input  -60.11 | X-H torsion
[ 7974 7965 7964 7962 ] final  176.61 input  175.53 | X-H torsion
[ 8008 7997 7996 7995 ] final    2.56 input   59.86 | X-H torsion
[ 10167 10162 10161 10158 ] final  -14.04 input  -65.29 | X-H torsion
[ 10718 10713 10712 10709 ] final   58.66 input   66.30 | X-H torsion
[ 10763 10752 10751 10750 ] final   88.89 input  -60.55 | X-H torsion
[ 11005 11000 10999 10996 ] final   19.99 input  -57.11 | X-H torsion

> <Gold.Protein.ActiveResidues>
 VAL166  LYS551  ARG553  GLY616  TRP617  ASP618  TYR619  PRO620  LYS621  CYS622 
 ASP623  PHE694  ASN695  SER759  ASP760  ASP761  ALA762  ILE779  LEU786  VAL792 
 PHE793  MET794  SER795  GLU796  ALA797  LYS798  CYS799  TRP800  GLU811  SER814 

> <Gold.Protein.RotatedAtoms>
  150.7605  133.9427  159.3460 H   0  0  0  0  0  0  0  0  0  0  0  0  # atno 6907 bound_to 6896
  151.7337  135.0867  160.0313 H   0  0  0  0  0  0  0  0  0  0  0  0  # atno 6908 bound_to 6896
  152.3573  133.6216  159.6025 H   0  0  0  0  0  0  0  0  0  0  0  0  # atno 6909 bound_to 6896
  144.7181  140.0122  143.6440 H   0  0  0  0  0  0  0  0  0  0  0  0  # atno 7974 bound_to 7965
  154.6930  140.2657  155.6793 H   0  0  0  0  0  0  0  0  0  0  0  0  # atno 8008 bound_to 7997
  156.2739  140.2787  156.1438 H   0  0  0  0  0  0  0  0  0  0  0  0  # atno 8009 bound_to 7997
  155.0870  140.0373  157.2647 H   0  0  0  0  0  0  0  0  0  0  0  0  # atno 8010 bound_to 7997
  140.7194  143.5363  150.9461 H   0  0  0  0  0  0  0  0  0  0  0  0  # atno 10167 bound_to 10162
  157.5614  130.8838  149.9117 H   0  0  0  0  0  0  0  0  0  0  0  0  # atno 10718 bound_to 10713
  153.1815  135.4490  155.0034 H   0  0  0  0  0  0  0  0  0  0  0  0  # atno 10763 bound_to 10752
  154.8033  135.3264  154.7498 H   0  0  0  0  0  0  0  0  0  0  0  0  # atno 10764 bound_to 10752
  153.7962  135.6966  153.4918 H   0  0  0  0  0  0  0  0  0  0  0  0  # atno 10765 bound_to 10752
  140.4076  134.1652  155.7666 H   0  0  0  0  0  0  0  0  0  0  0  0  # atno 11005 bound_to 11000
  146.0249  139.3283  143.0790 LP  0  0  0  0  0  0  0  0  0  0  0  0  # atno 17320 bound_to 7965
  145.8523  140.9522  143.0743 LP  0  0  0  0  0  0  0  0  0  0  0  0  # atno 17321 bound_to 7965
  139.9085  143.6749  152.3119 LP  0  0  0  0  0  0  0  0  0  0  0  0  # atno 17342 bound_to 10162
  139.7124  144.7618  151.1090 LP  0  0  0  0  0  0  0  0  0  0  0  0  # atno 17343 bound_to 10162
  156.0666  130.3691  150.0866 LP  0  0  0  0  0  0  0  0  0  0  0  0  # atno 17370 bound_to 10713
  156.9029  130.9626  151.3574 LP  0  0  0  0  0  0  0  0  0  0  0  0  # atno 17371 bound_to 10713
  141.1833  133.8366  157.1178 LP  0  0  0  0  0  0  0  0  0  0  0  0  # atno 17394 bound_to 11000
  140.0291  134.9910  157.0744 LP  0  0  0  0  0  0  0  0  0  0  0  0  # atno 17395 bound_to 11000

$$$$
