AV-unprocessed.smi:1443|AV-procd|sdf|5879|dock3
  -GOLD-   22720 5553D 1   1.00000     0.00000
 Structure written by MMmdl.
 27 28  0  0  0  0  0  0  0  0  1 V2000
  153.3052  137.2917  159.2820 C   0  0  0  0  0  0  0  0  0  0  0  0
  154.1785  137.6870  157.7438 S   0  0  0  0  0  0  0  0  0  0  0  0
  152.9372  137.8578  156.5020 C   0  0  0  0  0  0  0  0  0  0  0  0
  152.7445  139.0427  155.8948 N   0  0  0  0  0  0  0  0  0  0  0  0
  151.4889  138.8774  154.7764 S   0  0  0  0  0  0  0  0  0  0  0  0
  151.2908  137.2028  155.2005 C   0  0  0  0  0  0  0  0  0  0  0  0
  150.3017  136.3777  154.5913 N   0  0  0  0  0  0  0  0  0  0  0  0
  149.6668  135.2713  155.0335 C   0  0  0  0  0  0  0  0  0  0  0  0
  149.9084  134.8056  156.1458 O   0  0  0  0  0  0  0  0  0  0  0  0
  148.7730  134.7258  154.1940 N   0  0  0  0  0  0  0  0  0  0  0  0
  148.0093  133.5448  154.4388 C   0  0  2  0  0  0  0  0  0  0  0  0
  148.4578  132.2779  153.7429 C   0  0  0  0  0  0  0  0  0  0  0  0
  147.1842  132.9540  153.3101 C   0  0  2  0  0  0  0  0  0  0  0  0
  147.0838  133.6201  151.9523 C   0  0  0  0  0  0  0  0  0  0  0  0
  152.1560  136.8231  156.1416 N   0  0  0  0  0  0  0  0  0  0  0  0
  154.0121  137.2246  160.1087 H   0  0  0  0  0  0  0  0  0  0  0  0
  152.7935  136.3345  159.1883 H   0  0  0  0  0  0  0  0  0  0  0  0
  152.5706  138.0622  159.5164 H   0  0  0  0  0  0  0  0  0  0  0  0
  150.0015  136.6931  153.6803 H   0  0  0  0  0  0  0  0  0  0  0  0
  148.6345  135.1782  153.3016 H   0  0  0  0  0  0  0  0  0  0  0  0
  147.6082  133.4144  155.4429 H   0  0  0  0  0  0  0  0  0  0  0  0
  149.3169  132.3418  153.0772 H   0  0  0  0  0  0  0  0  0  0  0  0
  148.3676  131.3444  154.2945 H   0  0  0  0  0  0  0  0  0  0  0  0
  146.2603  132.4667  153.6161 H   0  0  0  0  0  0  0  0  0  0  0  0
  148.0410  134.0450  151.6521 H   0  0  0  0  0  0  0  0  0  0  0  0
  146.3432  134.4192  151.9821 H   0  0  0  0  0  0  0  0  0  0  0  0
  146.7795  132.8914  151.2009 H   0  0  0  0  0  0  0  0  0  0  0  0
  1  2  1  0  0  0  0
  1 16  1  0  0  0  0
  1 17  1  0  0  0  0
  1 18  1  0  0  0  0
  2  3  1  0  0  0  0
  3 15  1  0  0  0  0
  3  4  2  0  0  0  0
  4  5  1  0  0  0  0
  5  6  1  0  0  0  0
  6  7  1  0  0  0  0
  6 15  2  0  0  0  0
  7  8  1  0  0  0  0
  7 19  1  0  0  0  0
  8  9  2  0  0  0  0
  8 10  1  0  0  0  0
 10 11  1  0  0  0  0
 10 20  1  0  0  0  0
 11 13  1  0  0  0  0
 11 12  1  0  0  0  0
 11 21  1  0  0  0  0
 12 13  1  0  0  0  0
 12 22  1  0  0  0  0
 12 23  1  0  0  0  0
 13 14  1  0  0  0  0
 13 24  1  0  0  0  0
 14 25  1  0  0  0  0
 14 26  1  0  0  0  0
 14 27  1  0  0  0  0
M  END
> <s_m_source_file>
AV-unprocessed.smi

> <i_m_source_file_index>
1443

> <i_lp_mmshare_version>
43012

> <i_f3d_flags>
0

> <s_epik_input>
W0NIM11TYzFuc2MobjEpW05IXUMoPU8pW05IXVtDQEBIXTJbQ0gyXVtDQEhdMltDSDNd

> <s_epik_cmdline>
J2VwaWtfcHl0aG9uJywgJy1waCcsICc3LjAnLCAnLXRuJywgJzgnLCAnLW1hJywgJzIwMCcsICctbWV0YWxfYmluZGluZycsICctaW1hZScsICc8aW5maWxlLm1hZT4nLCAnLW9tYWUnLCAnPG91dGZpbGUubWFlPic=

> <r_lp_tautomer_probability>
1

> <r_epik_Ionization_Penalty>
2.74658e-05

> <r_epik_Ionization_Penalty_Charging>
0

> <r_epik_Ionization_Penalty_Neutral>
2.74658e-05

> <r_epik_State_Penalty>
-0

> <r_epik_Charging_Adjusted_Penalty>
0

> <i_epik_Tot_Q>
0

> <i_epik_Tot_abs_Q>
0

> <r_epik_Metal_State_Penalty>
-0

> <b_epik_Metal_Only>
0

> <s_lp_Force_Field>
OPLS_2005

> <r_lp_Energy>
21.2108

> <b_lp_Chiralities_Consistent>
1

> <s_lp_Variant>
AV-unprocessed.smi:1443-3

> <Gold.Version>
5.8.1

> <Gold.Id.Protein>
6NUR|6NUR_protein|mol2

> <Gold.PLP.Fitness>
34.2631

> <Gold.PLP.PLP>
-23.0426

> <Gold.PLP.part.hbond>
-4.6358

> <Gold.PLP.part.metal>
0.0000

> <Gold.PLP.part.buried>
-1.6615

> <Gold.PLP.part.nonpolar>
-16.7768

> <Gold.PLP.part.repulsive>
0.1100

> <Gold.PLP.ligand.clash>
0.0000

> <Gold.PLP.ligand.torsion>
0.3006

> <Gold.PLP.Chemscore.Hbond>
3.9280

> <Gold.PLP.Chemscore.CHOScore>
0.0000

> <Gold.PLP.Chemscore.Metal>
0.0000

> <Gold.Chemscore.Hbonds>
donor molecule, donor type, donor heavy atom, donor atom, acceptor molecule, acceptor atom, score
      L1  H     7    19       P1  7948  0.77
      L1  H    10    20       P1  7948  1.00
      P1  H  7997  8008       L1     4  1.00
      P1  H 10752 10764       L1    15  0.80

> <Gold.PLP.Chemscore.Internal.Correction>
0.0377

> <Gold.Rescore>
     Score         DG    S(hbond)    S(metal)    S(lipo)     H(rot)  DE(clash)    DE(int)     intcor
     12.66     -13.94       2.31        0.00      34.15       1.27       0.00       1.28       ----

> <Gold.Chemscore.Fitness>
12.6576

> <Gold.Chemscore.DG>
-13.9401

> <Gold.Chemscore.ZeroCoef>
-5.4800

> <Gold.Chemscore.Hbond>
2.3100

> <Gold.Chemscore.Metal>
0.0000

> <Gold.Chemscore.Lipo>
34.1511

> <Gold.Chemscore.Internal_Hbond>
0.0000

> <Gold.Chemscore.DEClash>
0.0000

> <Gold.Chemscore.DEInternal>
1.2825

> <Gold.Chemscore.Rot>
1.2699

> <Gold.Chemscore.Internal.Correction>
   9.000000E+99

> <Gold.Chemscore.Hbonds>
donor molecule, donor type, donor heavy atom, donor atom, acceptor molecule, acceptor atom, score
      L1  H     7    19       P1  7948  0.19
      L1  H    10    20       P1  7948  0.78
      P1  H  7997  8008       L1     4  0.68
      P1  H 10752 10764       L1    15  0.09

> <Gold.Chemscore.Hbond.Weighted>
-7.7153

> <Gold.Chemscore.Metal.Weighted>
-0.0000

> <Gold.Chemscore.Lipo.Weighted>
-3.9957

> <Gold.Chemscore.Internal_Hbond.Weighted>
0.0000

> <Gold.Chemscore.DEClash.Weighted>
0.0000

> <Gold.Chemscore.DEInternal.Weighted>
1.2825

> <Gold.Chemscore.Rot.Weighted>
3.2509

> <Gold.Chemscore.Internal.Correction.Weighted>
   9.000000E+99

> <Gold.Protein.RotatedTorsions>
[ 6907 6896 6895 6894 ] final  176.63 input  -60.11 | X-H torsion
[ 7974 7965 7964 7962 ] final  -75.45 input  175.53 | X-H torsion
[ 8008 7997 7996 7995 ] final  -29.13 input   59.86 | X-H torsion
[ 10167 10162 10161 10158 ] final  -80.96 input  -65.29 | X-H torsion
[ 10718 10713 10712 10709 ] final  122.37 input   66.30 | X-H torsion
[ 10763 10752 10751 10750 ] final  -32.88 input  -60.55 | X-H torsion
[ 11005 11000 10999 10996 ] final  138.09 input  -57.11 | X-H torsion

> <Gold.Protein.ActiveResidues>
 VAL166  LYS551  ARG553  GLY616  TRP617  ASP618  TYR619  PRO620  LYS621  CYS622 
 ASP623  PHE694  ASN695  SER759  ASP760  ASP761  ALA762  ILE779  LEU786  VAL792 
 PHE793  MET794  SER795  GLU796  ALA797  LYS798  CYS799  TRP800  GLU811  SER814 

> <Gold.Protein.RotatedAtoms>
  151.7170  133.3313  159.3305 H   0  0  0  0  0  0  0  0  0  0  0  0  # atno 6907 bound_to 6896
  150.7669  134.6481  159.6283 H   0  0  0  0  0  0  0  0  0  0  0  0  # atno 6908 bound_to 6896
  152.3675  134.6785  160.0239 H   0  0  0  0  0  0  0  0  0  0  0  0  # atno 6909 bound_to 6896
  145.6258  140.9351  143.1113 H   0  0  0  0  0  0  0  0  0  0  0  0  # atno 7974 bound_to 7965
  154.4302  140.1826  156.1200 H   0  0  0  0  0  0  0  0  0  0  0  0  # atno 8008 bound_to 7997
  156.0151  140.3346  155.6955 H   0  0  0  0  0  0  0  0  0  0  0  0  # atno 8009 bound_to 7997
  155.6056  140.0645  157.2711 H   0  0  0  0  0  0  0  0  0  0  0  0  # atno 8010 bound_to 7997
  140.4455  143.2500  151.8564 H   0  0  0  0  0  0  0  0  0  0  0  0  # atno 10167 bound_to 10162
  157.5747  131.1080  150.8301 H   0  0  0  0  0  0  0  0  0  0  0  0  # atno 10718 bound_to 10713
  153.8210  135.6874  153.4827 H   0  0  0  0  0  0  0  0  0  0  0  0  # atno 10763 bound_to 10752
  153.1569  135.4595  154.9715 H   0  0  0  0  0  0  0  0  0  0  0  0  # atno 10764 bound_to 10752
  154.7927  135.3308  154.7682 H   0  0  0  0  0  0  0  0  0  0  0  0  # atno 10765 bound_to 10752
  140.0159  134.9418  157.0375 H   0  0  0  0  0  0  0  0  0  0  0  0  # atno 11005 bound_to 11000
  144.7213  139.8021  143.7381 LP  0  0  0  0  0  0  0  0  0  0  0  0  # atno 17320 bound_to 7965
  146.1395  139.4449  143.0117 LP  0  0  0  0  0  0  0  0  0  0  0  0  # atno 17321 bound_to 7965
  139.4792  144.5180  151.8841 LP  0  0  0  0  0  0  0  0  0  0  0  0  # atno 17342 bound_to 10162
  140.4268  144.2169  150.5887 LP  0  0  0  0  0  0  0  0  0  0  0  0  # atno 17343 bound_to 10162
  156.8763  130.5163  149.5293 LP  0  0  0  0  0  0  0  0  0  0  0  0  # atno 17370 bound_to 10713
  156.0792  130.5807  150.9531 LP  0  0  0  0  0  0  0  0  0  0  0  0  # atno 17371 bound_to 10713
  140.4472  134.1620  155.7178 LP  0  0  0  0  0  0  0  0  0  0  0  0  # atno 17394 bound_to 11000
  141.1742  133.8547  157.1474 LP  0  0  0  0  0  0  0  0  0  0  0  0  # atno 17395 bound_to 11000

$$$$
