AV-unprocessed.smi:21|AV-procd|sdf|151|dock3
  -GOLD-   2262015373D 1   1.00000     0.00000
 Structure written by MMmdl.
 62 65  0  0  0  0  0  0  0  0  2 V2000
  143.9570  134.7906  151.7250 C   0  0  0  0  0  0  0  0  0  0  0  0
  144.2858  133.4971  151.2422 O   0  0  0  0  0  0  0  0  0  0  0  0
  145.5823  133.4138  150.6650 C   0  0  1  0  0  0  0  0  0  0  0  0
  146.6136  133.6817  151.7540 C   0  0  0  0  0  0  0  0  0  0  0  0
  146.7838  132.3206  152.4346 C   0  0  2  0  0  0  0  0  0  0  0  0
  148.1240  132.1560  153.1804 C   0  0  0  0  0  0  0  0  0  0  0  0
  148.3372  133.1965  154.1892 N   0  0  0  0  0  0  0  0  0  0  0  0
  149.5881  133.9433  154.1441 C   0  0  0  0  0  0  0  0  0  0  0  0
  147.5696  133.2221  155.3162 C   0  0  0  0  0  0  0  0  0  0  0  0
  146.3899  132.5452  155.3020 N   0  0  0  0  0  0  0  0  0  0  0  0
  145.5948  132.5277  156.3747 C   0  0  0  0  0  0  0  0  0  0  0  0
  145.7835  133.1074  157.5594 N   0  0  0  0  0  0  0  0  0  0  0  0
  146.9635  133.7881  157.5912 C   0  0  0  0  0  0  0  0  0  0  0  0
  147.9066  133.9028  156.5277 C   0  0  0  0  0  0  0  0  0  0  0  0
  148.9849  134.6737  156.9534 N   0  0  0  0  0  0  0  0  0  0  0  0
  148.6936  134.9989  158.1825 C   0  0  0  0  0  0  0  0  0  0  0  0
  147.5017  134.4976  158.6496 N   0  0  0  0  0  0  0  0  0  0  0  0
  146.9325  134.6858  159.9723 C   0  0  0  0  0  0  0  0  0  0  0  0
  147.6947  133.8942  161.0665 C   0  0  1  0  0  0  0  0  0  0  0  0
  147.1103  134.1708  162.4712 C   0  0  0  0  0  0  0  0  0  0  0  0
  147.2315  135.5346  162.8175 O   0  0  0  0  0  0  0  0  0  0  0  0
  147.7967  132.3725  160.7702 C   0  0  1  0  0  0  0  0  0  0  0  0
  148.5819  131.5380  161.7767 C   0  0  0  0  0  0  0  0  0  0  0  0
  147.9417  130.1655  161.6253 C   0  0  0  0  0  0  0  0  0  0  0  0
  146.5666  130.4795  161.4835 O   0  0  0  0  0  0  0  0  0  0  0  0
  146.4546  131.6275  160.6493 C   0  0  0  0  0  0  0  0  0  0  0  0
  146.6443  131.3334  151.3395 N   0  3  1  0  0  0  0  0  0  0  0  0
  146.0853  130.0314  151.7648 C   0  0  0  0  0  0  0  0  0  0  0  0
  145.8914  131.9716  150.2324 C   0  0  0  0  0  0  0  0  0  0  0  0
  145.6880  134.1280  149.8466 H   0  0  0  0  0  0  0  0  0  0  0  0
  145.9524  132.1814  153.1284 H   0  0  0  0  0  0  0  0  0  0  0  0
  142.9455  134.7811  152.1307 H   0  0  0  0  0  0  0  0  0  0  0  0
  143.9927  135.5411  150.9351 H   0  0  0  0  0  0  0  0  0  0  0  0
  144.6346  135.0946  152.5240 H   0  0  0  0  0  0  0  0  0  0  0  0
  147.5526  133.9898  151.2919 H   0  0  0  0  0  0  0  0  0  0  0  0
  146.3090  134.4693  152.4443 H   0  0  0  0  0  0  0  0  0  0  0  0
  148.1324  131.1961  153.6974 H   0  0  0  0  0  0  0  0  0  0  0  0
  148.9483  132.0983  152.4694 H   0  0  0  0  0  0  0  0  0  0  0  0
  149.4431  134.9674  154.4894 H   0  0  0  0  0  0  0  0  0  0  0  0
  149.9727  133.9933  153.1250 H   0  0  0  0  0  0  0  0  0  0  0  0
  150.3463  133.4636  154.7639 H   0  0  0  0  0  0  0  0  0  0  0  0
  144.6763  131.9692  156.2687 H   0  0  0  0  0  0  0  0  0  0  0  0
  149.3493  135.6074  158.7884 H   0  0  0  0  0  0  0  0  0  0  0  0
  146.9373  135.7529  160.1939 H   0  0  0  0  0  0  0  0  0  0  0  0
  145.8858  134.3887  159.9210 H   0  0  0  0  0  0  0  0  0  0  0  0
  148.7193  134.2697  161.0723 H   0  0  0  0  0  0  0  0  0  0  0  0
  146.0498  133.9237  162.5109 H   0  0  0  0  0  0  0  0  0  0  0  0
  147.6064  133.5601  163.2260 H   0  0  0  0  0  0  0  0  0  0  0  0
  146.3696  135.8769  163.0004 H   0  0  0  0  0  0  0  0  0  0  0  0
  148.2897  132.2484  159.8050 H   0  0  0  0  0  0  0  0  0  0  0  0
  149.6535  131.5279  161.5763 H   0  0  0  0  0  0  0  0  0  0  0  0
  148.4336  131.8871  162.7974 H   0  0  0  0  0  0  0  0  0  0  0  0
  148.3002  129.6615  160.7261 H   0  0  0  0  0  0  0  0  0  0  0  0
  148.1218  129.5172  162.4831 H   0  0  0  0  0  0  0  0  0  0  0  0
  145.5918  132.2227  160.9462 H   0  0  0  0  0  0  0  0  0  0  0  0
  146.2880  131.3104  159.6191 H   0  0  0  0  0  0  0  0  0  0  0  0
  145.0688  130.1457  152.1442 H   0  0  0  0  0  0  0  0  0  0  0  0
  146.6957  129.5853  152.5504 H   0  0  0  0  0  0  0  0  0  0  0  0
  146.0611  129.3360  150.9253 H   0  0  0  0  0  0  0  0  0  0  0  0
  144.9914  131.4170  149.9647 H   0  0  0  0  0  0  0  0  0  0  0  0
  146.5378  131.9758  149.3543 H   0  0  0  0  0  0  0  0  0  0  0  0
  147.5743  131.1620  150.9845 H   0  0  0  0  0  0  0  0  0  0  0  0
  1  2  1  0  0  0  0
  1 32  1  0  0  0  0
  1 33  1  0  0  0  0
  1 34  1  0  0  0  0
  2  3  1  0  0  0  0
  3 30  1  0  0  0  0
  3 29  1  0  0  0  0
  3  4  1  0  0  0  0
  4  5  1  0  0  0  0
  4 35  1  0  0  0  0
  4 36  1  0  0  0  0
  5 31  1  0  0  0  0
  5  6  1  0  0  0  0
  5 27  1  0  0  0  0
  6  7  1  0  0  0  0
  6 37  1  0  0  0  0
  6 38  1  0  0  0  0
  7  8  1  0  0  0  0
  7  9  1  0  0  0  0
  8 39  1  0  0  0  0
  8 40  1  0  0  0  0
  8 41  1  0  0  0  0
  9 14  1  0  0  0  0
  9 10  2  0  0  0  0
 10 11  1  0  0  0  0
 11 12  2  0  0  0  0
 11 42  1  0  0  0  0
 12 13  1  0  0  0  0
 13 17  1  0  0  0  0
 13 14  2  0  0  0  0
 14 15  1  0  0  0  0
 15 16  2  0  0  0  0
 16 17  1  0  0  0  0
 16 43  1  0  0  0  0
 17 18  1  0  0  0  0
 18 19  1  0  0  0  0
 18 44  1  0  0  0  0
 18 45  1  0  0  0  0
 19 20  1  0  0  0  0
 19 22  1  0  0  0  0
 19 46  1  0  0  0  0
 20 21  1  0  0  0  0
 20 47  1  0  0  0  0
 20 48  1  0  0  0  0
 21 49  1  0  0  0  0
 22 26  1  0  0  0  0
 22 23  1  0  0  0  0
 22 50  1  0  0  0  0
 23 24  1  0  0  0  0
 23 51  1  0  0  0  0
 23 52  1  0  0  0  0
 24 25  1  0  0  0  0
 24 53  1  0  0  0  0
 24 54  1  0  0  0  0
 25 26  1  0  0  0  0
 26 55  1  0  0  0  0
 26 56  1  0  0  0  0
 27 28  1  0  0  0  0
 27 29  1  0  0  0  0
 27 62  1  0  0  0  0
 28 57  1  0  0  0  0
 28 58  1  0  0  0  0
 28 59  1  0  0  0  0
 29 60  1  0  0  0  0
 29 61  1  0  0  0  0
M  CHG  1  27   1
M  END
> <s_m_source_file>
AV-unprocessed.smi

> <i_m_source_file_index>
21

> <i_lp_mmshare_version>
43012

> <i_f3d_flags>
0

> <s_epik_input>
W0NIM11PW0NASF0xW0NIMl1bQ0BIXShOKFtDSDNdKVtDSDJdMSlbQ0gyXU4oW0NIM10pYyhuW2NIXW4yKWMoYzIzKW5bY0hdbjNbQ0gyXVtDQEhdKFtDSDJdW09IXSlbQ0BASF00W0NIMl1bQ0gyXU9bQ0gyXTQ=

> <s_epik_cmdline>
J2VwaWtfcHl0aG9uJywgJy1waCcsICc3LjAnLCAnLXRuJywgJzgnLCAnLW1hJywgJzIwMCcsICctbWV0YWxfYmluZGluZycsICctaW1hZScsICc8aW5maWxlLm1hZT4nLCAnLW9tYWUnLCAnPG91dGZpbGUubWFlPic=

> <r_lp_tautomer_probability>
1

> <r_epik_Ionization_Penalty>
0.0157465

> <r_epik_Ionization_Penalty_Charging>
0.015354

> <r_epik_Ionization_Penalty_Neutral>
0.000392529

> <r_epik_State_Penalty>
0.0120612

> <r_epik_Charging_Adjusted_Penalty>
0.0274152

> <i_epik_Tot_Q>
1

> <i_epik_Tot_abs_Q>
1

> <r_epik_Metal_State_Penalty>
0.0121253

> <b_epik_Metal_Only>
0

> <s_lp_Force_Field>
OPLS_2005

> <r_lp_Energy>
59.9021

> <b_lp_Chiralities_Consistent>
1

> <s_lp_Variant>
AV-unprocessed.smi:21-31

> <Gold.Version>
5.8.1

> <Gold.Id.Protein>
6NUR|6NUR_protein|mol2

> <Gold.PLP.Fitness>
44.5051

> <Gold.PLP.PLP>
-38.8221

> <Gold.PLP.part.hbond>
-1.0000

> <Gold.PLP.part.metal>
0.0000

> <Gold.PLP.part.buried>
-5.8423

> <Gold.PLP.part.nonpolar>
-32.2222

> <Gold.PLP.part.repulsive>
0.3219

> <Gold.PLP.ligand.clash>
0.0000

> <Gold.PLP.ligand.torsion>
0.3380

> <Gold.PLP.Chemscore.Hbond>
1.0000

> <Gold.PLP.Chemscore.CHOScore>
1.0000

> <Gold.PLP.Chemscore.Metal>
0.0000

> <Gold.Chemscore.Hbonds>
donor molecule, donor type, donor heavy atom, donor atom, acceptor molecule, acceptor atom, score
      L1  H    27    62       P1 10747  1.00
      L1  C    11    42       P1 10957  1.00

> <Gold.PLP.Chemscore.Internal.Correction>
0.3590

> <Gold.Rescore>
     Score         DG    S(hbond)    S(metal)    S(lipo)     H(rot)  DE(clash)    DE(int)     intcor
      9.91     -12.66       0.99        0.00     100.37       3.08       0.01       2.74       ----

> <Gold.Chemscore.Fitness>
9.9132

> <Gold.Chemscore.DG>
-12.6607

> <Gold.Chemscore.ZeroCoef>
-5.4800

> <Gold.Chemscore.Hbond>
0.9915

> <Gold.Chemscore.Metal>
0.0000

> <Gold.Chemscore.Lipo>
100.3709

> <Gold.Chemscore.Internal_Hbond>
0.0000

> <Gold.Chemscore.DEClash>
0.0118

> <Gold.Chemscore.DEInternal>
2.7358

> <Gold.Chemscore.Rot>
3.0758

> <Gold.Chemscore.Internal.Correction>
   9.000000E+99

> <Gold.Chemscore.Hbonds>
donor molecule, donor type, donor heavy atom, donor atom, acceptor molecule, acceptor atom, score
      L1  H    27    62       P1 10747  0.99

> <Gold.Chemscore.Hbond.Weighted>
-3.3115

> <Gold.Chemscore.Metal.Weighted>
-0.0000

> <Gold.Chemscore.Lipo.Weighted>
-11.7434

> <Gold.Chemscore.Internal_Hbond.Weighted>
0.0000

> <Gold.Chemscore.DEClash.Weighted>
0.0118

> <Gold.Chemscore.DEInternal.Weighted>
2.7358

> <Gold.Chemscore.Rot.Weighted>
7.8741

> <Gold.Chemscore.Internal.Correction.Weighted>
   9.000000E+99

> <Gold.Protein.RotatedTorsions>
[ 6907 6896 6895 6894 ] final   92.57 input  -60.11 | X-H torsion
[ 7974 7965 7964 7962 ] final -167.68 input  175.53 | X-H torsion
[ 8008 7997 7996 7995 ] final -123.49 input   59.86 | X-H torsion
[ 10167 10162 10161 10158 ] final  104.96 input  -65.29 | X-H torsion
[ 10718 10713 10712 10709 ] final -134.59 input   66.30 | X-H torsion
[ 10763 10752 10751 10750 ] final -100.21 input  -60.55 | X-H torsion
[ 11005 11000 10999 10996 ] final   46.62 input  -57.11 | X-H torsion

> <Gold.Protein.ActiveResidues>
 VAL166  LYS551  ARG553  GLY616  TRP617  ASP618  TYR619  PRO620  LYS621  CYS622 
 ASP623  PHE694  ASN695  SER759  ASP760  ASP761  ALA762  ILE779  LEU786  VAL792 
 PHE793  MET794  SER795  GLU796  ALA797  LYS798  CYS799  TRP800  GLU811  SER814 

> <Gold.Protein.RotatedAtoms>
  152.5453  134.1481  159.8506 H   0  0  0  0  0  0  0  0  0  0  0  0  # atno 6907 bound_to 6896
  151.1510  133.4900  159.2603 H   0  0  0  0  0  0  0  0  0  0  0  0  # atno 6908 bound_to 6896
  151.1472  135.0220  159.8707 H   0  0  0  0  0  0  0  0  0  0  0  0  # atno 6909 bound_to 6896
  144.7218  140.2483  143.6282 H   0  0  0  0  0  0  0  0  0  0  0  0  # atno 7974 bound_to 7965
  155.1814  140.0410  157.2883 H   0  0  0  0  0  0  0  0  0  0  0  0  # atno 8008 bound_to 7997
  154.6201  140.2498  155.7532 H   0  0  0  0  0  0  0  0  0  0  0  0  # atno 8009 bound_to 7997
  156.2429  140.2896  156.0505 H   0  0  0  0  0  0  0  0  0  0  0  0  # atno 8010 bound_to 7997
  139.7133  144.7073  151.0992 H   0  0  0  0  0  0  0  0  0  0  0  0  # atno 10167 bound_to 10162
  156.2571  130.7188  151.1108 H   0  0  0  0  0  0  0  0  0  0  0  0  # atno 10718 bound_to 10713
  154.7560  135.4943  153.9376 H   0  0  0  0  0  0  0  0  0  0  0  0  # atno 10763 bound_to 10752
  153.1197  135.6729  153.9365 H   0  0  0  0  0  0  0  0  0  0  0  0  # atno 10764 bound_to 10752
  153.9100  135.3100  155.3427 H   0  0  0  0  0  0  0  0  0  0  0  0  # atno 10765 bound_to 10752
  140.1352  134.4654  155.8491 H   0  0  0  0  0  0  0  0  0  0  0  0  # atno 11005 bound_to 11000
  145.8253  139.2061  143.1914 LP  0  0  0  0  0  0  0  0  0  0  0  0  # atno 17320 bound_to 7965
  146.0479  140.8100  142.9796 LP  0  0  0  0  0  0  0  0  0  0  0  0  # atno 17321 bound_to 7965
  140.7738  143.5264  150.9475 LP  0  0  0  0  0  0  0  0  0  0  0  0  # atno 17342 bound_to 10162
  139.8949  143.6907  152.3140 LP  0  0  0  0  0  0  0  0  0  0  0  0  # atno 17343 bound_to 10162
  157.7237  131.0665  150.6027 LP  0  0  0  0  0  0  0  0  0  0  0  0  # atno 17370 bound_to 10713
  156.6112  130.4380  149.5858 LP  0  0  0  0  0  0  0  0  0  0  0  0  # atno 17371 bound_to 10713
  141.2177  133.6811  156.7144 LP  0  0  0  0  0  0  0  0  0  0  0  0  # atno 17394 bound_to 11000
  140.2791  134.8331  157.3917 LP  0  0  0  0  0  0  0  0  0  0  0  0  # atno 17395 bound_to 11000

$$$$
