AV-unprocessed.smi:2071|AV-procd|sdf|8441|dock6
  -GOLD-   2272011143D 1   1.00000     0.00000
 Structure written by MMmdl.
 44 46  0  0  0  0  0  0  0  0  2 V2000
  148.0835  132.4399  154.0365 O   0  0  0  0  0  0  0  0  0  0  0  0
  148.1569  133.5885  153.6010 C   0  0  0  0  0  0  0  0  0  0  0  0
  149.1015  134.4643  153.9736 N   0  0  0  0  0  0  0  0  0  0  0  0
  150.1636  134.2042  154.9414 C   0  0  0  0  0  0  0  0  0  0  0  0
  150.5929  135.4817  155.6811 C   0  0  0  0  0  0  0  0  0  0  0  0
  150.0701  136.7821  155.0413 C   0  0  0  0  0  0  0  0  0  0  0  0
  150.8933  137.9321  155.4288 N   0  0  0  0  0  0  0  0  0  0  0  0
  152.1309  138.1921  154.9637 C   0  0  0  0  0  0  0  0  0  0  0  0
  152.7007  137.4512  154.1633 O   0  0  0  0  0  0  0  0  0  0  0  0
  152.6184  139.3426  155.4854 N   0  5  0  0  0  0  0  0  0  0  0  0
  151.6163  139.9126  156.3620 C   0  0  0  0  0  0  0  0  0  0  0  0
  152.1318  140.1187  157.7948 C   0  0  0  0  0  0  0  0  0  0  0  0
  151.2478  141.2259  158.3877 C   0  0  0  0  0  0  0  0  0  0  0  0
  150.6395  141.9869  157.1970 C   0  0  0  0  0  0  0  0  0  0  0  0
  151.1923  141.3242  155.9279 C   0  0  0  0  0  0  0  0  0  0  0  0
  150.4905  138.8929  156.2668 C   0  0  0  0  0  0  0  0  0  0  0  0
  149.4116  138.9719  156.8564 O   0  0  0  0  0  0  0  0  0  0  0  0
  147.3289  134.1277  152.6894 N   0  0  0  0  0  0  0  0  0  0  0  0
  146.2198  133.5264  152.0342 C   0  0  0  0  0  0  0  0  0  0  0  0
  145.0318  134.2125  151.6823 C   0  0  0  0  0  0  0  0  0  0  0  0
  144.0087  133.5057  151.0216 C   0  0  0  0  0  0  0  0  0  0  0  0
  144.2120  132.1431  150.7298 C   0  0  0  0  0  0  0  0  0  0  0  0
  145.3441  131.4799  151.0460 N   0  0  0  0  0  0  0  0  0  0  0  0
  146.3209  132.1644  151.6791 C   0  0  0  0  0  0  0  0  0  0  0  0
  149.0816  135.3862  153.5627 H   0  0  0  0  0  0  0  0  0  0  0  0
  149.8737  133.4359  155.6598 H   0  0  0  0  0  0  0  0  0  0  0  0
  151.0165  133.8002  154.3960 H   0  0  0  0  0  0  0  0  0  0  0  0
  150.2348  135.4216  156.7098 H   0  0  0  0  0  0  0  0  0  0  0  0
  151.6814  135.5156  155.7426 H   0  0  0  0  0  0  0  0  0  0  0  0
  150.0613  136.6928  153.9539 H   0  0  0  0  0  0  0  0  0  0  0  0
  149.0307  136.9476  155.3290 H   0  0  0  0  0  0  0  0  0  0  0  0
  152.1032  139.2087  158.3963 H   0  0  0  0  0  0  0  0  0  0  0  0
  153.1689  140.4580  157.7753 H   0  0  0  0  0  0  0  0  0  0  0  0
  150.4509  140.7882  158.9899 H   0  0  0  0  0  0  0  0  0  0  0  0
  151.8231  141.8845  159.0390 H   0  0  0  0  0  0  0  0  0  0  0  0
  149.5529  141.8982  157.2216 H   0  0  0  0  0  0  0  0  0  0  0  0
  150.8792  143.0501  157.2261 H   0  0  0  0  0  0  0  0  0  0  0  0
  152.0599  141.8858  155.5774 H   0  0  0  0  0  0  0  0  0  0  0  0
  150.4616  141.3228  155.1175 H   0  0  0  0  0  0  0  0  0  0  0  0
  147.5597  135.0606  152.3797 H   0  0  0  0  0  0  0  0  0  0  0  0
  144.8891  135.2611  151.8908 H   0  0  0  0  0  0  0  0  0  0  0  0
  143.0900  133.9994  150.7412 H   0  0  0  0  0  0  0  0  0  0  0  0
  143.4474  131.5724  150.2236 H   0  0  0  0  0  0  0  0  0  0  0  0
  147.2127  131.6018  151.9146 H   0  0  0  0  0  0  0  0  0  0  0  0
  1  2  2  0  0  0  0
  2  3  1  0  0  0  0
  2 18  1  0  0  0  0
  3  4  1  0  0  0  0
  3 25  1  0  0  0  0
  4  5  1  0  0  0  0
  4 26  1  0  0  0  0
  4 27  1  0  0  0  0
  5  6  1  0  0  0  0
  5 28  1  0  0  0  0
  5 29  1  0  0  0  0
  6  7  1  0  0  0  0
  6 30  1  0  0  0  0
  6 31  1  0  0  0  0
  7 16  1  0  0  0  0
  7  8  1  0  0  0  0
  8  9  2  0  0  0  0
  8 10  1  0  0  0  0
 10 11  1  0  0  0  0
 11 15  1  0  0  0  0
 11 12  1  0  0  0  0
 11 16  1  0  0  0  0
 12 13  1  0  0  0  0
 12 32  1  0  0  0  0
 12 33  1  0  0  0  0
 13 14  1  0  0  0  0
 13 34  1  0  0  0  0
 13 35  1  0  0  0  0
 14 15  1  0  0  0  0
 14 36  1  0  0  0  0
 14 37  1  0  0  0  0
 15 38  1  0  0  0  0
 15 39  1  0  0  0  0
 16 17  2  0  0  0  0
 18 19  1  0  0  0  0
 18 40  1  0  0  0  0
 19 24  1  0  0  0  0
 19 20  2  0  0  0  0
 20 21  1  0  0  0  0
 20 41  1  0  0  0  0
 21 22  2  0  0  0  0
 21 42  1  0  0  0  0
 22 23  1  0  0  0  0
 22 43  1  0  0  0  0
 23 24  2  0  0  0  0
 24 44  1  0  0  0  0
M  CHG  1  10  -1
M  END
> <s_m_source_file>
AV-unprocessed.smi

> <i_m_source_file_index>
2071

> <i_lp_mmshare_version>
43012

> <i_f3d_flags>
0

> <s_epik_input>
W2NIXTFuW2NIXVtjSF1bY0hdYzFbTkhdQyg9TylbTkhdW0NIMl1bQ0gyXVtDSDJdTihDMj1PKUMoPU8pW05IXUMyM1tDSDJdW0NIMl1bQ0gyXVtDSDJdMw==

> <s_epik_cmdline>
J2VwaWtfcHl0aG9uJywgJy1waCcsICc3LjAnLCAnLXRuJywgJzgnLCAnLW1hJywgJzIwMCcsICctbWV0YWxfYmluZGluZycsICctaW1hZScsICc8aW5maWxlLm1hZT4nLCAnLW9tYWUnLCAnPG91dGZpbGUubWFlPic=

> <r_lp_tautomer_probability>
1

> <r_epik_Ionization_Penalty>
6.36845

> <r_epik_Ionization_Penalty_Charging>
6.36366

> <r_epik_Ionization_Penalty_Neutral>
0.00479069

> <r_epik_State_Penalty>
6.36709

> <r_epik_Charging_Adjusted_Penalty>
12.7307

> <i_epik_Tot_Q>
-1

> <i_epik_Tot_abs_Q>
1

> <r_epik_Metal_State_Penalty>
2.30065

> <b_epik_Metal_Only>
1

> <s_lp_Force_Field>
OPLS_2005

> <r_lp_Energy>
36.3369

> <b_lp_Chiralities_Consistent>
1

> <s_lp_Variant>
AV-unprocessed.smi:2071-2

> <Gold.Version>
5.8.1

> <Gold.Id.Protein>
6NUR|6NUR_protein|mol2

> <Gold.PLP.Fitness>
51.6675

> <Gold.PLP.PLP>
-38.8587

> <Gold.PLP.part.hbond>
-3.9871

> <Gold.PLP.part.metal>
0.0000

> <Gold.PLP.part.buried>
-6.5248

> <Gold.PLP.part.nonpolar>
-28.2256

> <Gold.PLP.part.repulsive>
0.3064

> <Gold.PLP.ligand.clash>
0.7434

> <Gold.PLP.ligand.torsion>
1.0342

> <Gold.PLP.Chemscore.Hbond>
4.2400

> <Gold.PLP.Chemscore.CHOScore>
0.9588

> <Gold.PLP.Chemscore.Metal>
0.0000

> <Gold.Chemscore.Hbonds>
donor molecule, donor type, donor heavy atom, donor atom, acceptor molecule, acceptor atom, score
      L1  H     3    25       P1  7948  0.78
      L1  H    18    40       P1  7948  0.90
      P1  H  7997  8008       L1    10  2.00
      P1  H 10752 10763       L1     9  0.56
      L1  C    24    44       P1 10747  0.93

> <Gold.PLP.Chemscore.Internal.Correction>
0.0243

> <Gold.Rescore>
     Score         DG    S(hbond)    S(metal)    S(lipo)     H(rot)  DE(clash)    DE(int)     intcor
     16.96     -18.10       2.63        0.00      74.71       1.92       0.12       1.01       ----

> <Gold.Chemscore.Fitness>
16.9644

> <Gold.Chemscore.DG>
-18.0964

> <Gold.Chemscore.ZeroCoef>
-5.4800

> <Gold.Chemscore.Hbond>
2.6299

> <Gold.Chemscore.Metal>
0.0000

> <Gold.Chemscore.Lipo>
74.7144

> <Gold.Chemscore.Internal_Hbond>
0.0000

> <Gold.Chemscore.DEClash>
0.1239

> <Gold.Chemscore.DEInternal>
1.0082

> <Gold.Chemscore.Rot>
1.9176

> <Gold.Chemscore.Internal.Correction>
   9.000000E+99

> <Gold.Chemscore.Hbonds>
donor molecule, donor type, donor heavy atom, donor atom, acceptor molecule, acceptor atom, score
      L1  H     3    25       P1  7948  0.43
      L1  H    18    40       P1  7948  0.85
      P1  H  7997  8008       L1    10  0.42
      P1  H 10752 10763       L1     9  0.56

> <Gold.Chemscore.Hbond.Weighted>
-8.7839

> <Gold.Chemscore.Metal.Weighted>
-0.0000

> <Gold.Chemscore.Lipo.Weighted>
-8.7416

> <Gold.Chemscore.Internal_Hbond.Weighted>
0.0000

> <Gold.Chemscore.DEClash.Weighted>
0.1239

> <Gold.Chemscore.DEInternal.Weighted>
1.0082

> <Gold.Chemscore.Rot.Weighted>
4.9090

> <Gold.Chemscore.Internal.Correction.Weighted>
   9.000000E+99

> <Gold.Protein.RotatedTorsions>
[ 6907 6896 6895 6894 ] final -167.96 input  -60.11 | X-H torsion
[ 7974 7965 7964 7962 ] final -145.65 input  175.53 | X-H torsion
[ 8008 7997 7996 7995 ] final  -32.73 input   59.86 | X-H torsion
[ 10167 10162 10161 10158 ] final -122.23 input  -65.29 | X-H torsion
[ 10718 10713 10712 10709 ] final  -80.11 input   66.30 | X-H torsion
[ 10763 10752 10751 10750 ] final   28.79 input  -60.55 | X-H torsion
[ 11005 11000 10999 10996 ] final -107.42 input  -57.11 | X-H torsion

> <Gold.Protein.ActiveResidues>
 VAL166  LYS551  ARG553  GLY616  TRP617  ASP618  TYR619  PRO620  LYS621  CYS622 
 ASP623  PHE694  ASN695  SER759  ASP760  ASP761  ALA762  ILE779  LEU786  VAL792 
 PHE793  MET794  SER795  GLU796  ALA797  LYS798  CYS799  TRP800  GLU811  SER814 

> <Gold.Protein.RotatedAtoms>
  151.4679  133.3576  159.2818 H   0  0  0  0  0  0  0  0  0  0  0  0  # atno 6907 bound_to 6896
  150.8981  134.8393  159.7351 H   0  0  0  0  0  0  0  0  0  0  0  0  # atno 6908 bound_to 6896
  152.4863  134.4596  159.9653 H   0  0  0  0  0  0  0  0  0  0  0  0  # atno 6909 bound_to 6896
  144.8213  140.5556  143.5577 H   0  0  0  0  0  0  0  0  0  0  0  0  # atno 7974 bound_to 7965
  154.4170  140.1729  156.1775 H   0  0  0  0  0  0  0  0  0  0  0  0  # atno 8008 bound_to 7997
  155.9710  140.3385  155.6551 H   0  0  0  0  0  0  0  0  0  0  0  0  # atno 8009 bound_to 7997
  155.6625  140.0702  157.2539 H   0  0  0  0  0  0  0  0  0  0  0  0  # atno 8010 bound_to 7997
  140.0165  143.5388  152.2240 H   0  0  0  0  0  0  0  0  0  0  0  0  # atno 10167 bound_to 10162
  156.0077  130.4565  150.3751 H   0  0  0  0  0  0  0  0  0  0  0  0  # atno 10718 bound_to 10713
  153.0470  135.6505  154.0791 H   0  0  0  0  0  0  0  0  0  0  0  0  # atno 10763 bound_to 10752
  154.0487  135.2897  155.3345 H   0  0  0  0  0  0  0  0  0  0  0  0  # atno 10764 bound_to 10752
  154.6734  135.5347  153.8234 H   0  0  0  0  0  0  0  0  0  0  0  0  # atno 10765 bound_to 10752
  141.0955  133.8979  157.1973 H   0  0  0  0  0  0  0  0  0  0  0  0  # atno 11005 bound_to 11000
  145.5100  139.1480  143.3610 LP  0  0  0  0  0  0  0  0  0  0  0  0  # atno 17320 bound_to 7965
  146.2518  140.5240  142.8890 LP  0  0  0  0  0  0  0  0  0  0  0  0  # atno 17321 bound_to 7965
  139.6169  144.7621  151.2826 LP  0  0  0  0  0  0  0  0  0  0  0  0  # atno 17342 bound_to 10162
  140.7360  143.6720  150.8074 LP  0  0  0  0  0  0  0  0  0  0  0  0  # atno 17343 bound_to 10162
  157.1833  131.0397  151.2737 LP  0  0  0  0  0  0  0  0  0  0  0  0  # atno 17370 bound_to 10713
  157.4126  130.7393  149.6851 LP  0  0  0  0  0  0  0  0  0  0  0  0  # atno 17371 bound_to 10713
  139.9791  135.0104  156.9704 LP  0  0  0  0  0  0  0  0  0  0  0  0  # atno 17394 bound_to 11000
  140.5150  134.0964  155.7279 LP  0  0  0  0  0  0  0  0  0  0  0  0  # atno 17395 bound_to 11000

$$$$
