AV-unprocessed.smi:1222|AV-procd|sdf|5124|dock2
  -GOLD-   22720 4183D 1   1.00000     0.00000
 Structure written by MMmdl.
 36 38  0  0  0  0  0  0  0  0  3 V2000
  146.3294  136.2555  158.4561 O   0  0  0  0  0  0  0  0  0  0  0  0
  146.9133  137.2408  158.9129 C   0  0  0  0  0  0  0  0  0  0  0  0
  147.6272  137.2872  160.0600 N   0  5  0  0  0  0  0  0  0  0  0  0
  147.3571  136.4247  161.0533 C   0  0  0  0  0  0  0  0  0  0  0  0
  146.8161  135.2183  160.8471 N   0  0  0  0  0  0  0  0  0  0  0  0
  146.6249  134.4881  162.0215 C   0  0  0  0  0  0  0  0  0  0  0  0
  147.0409  135.1490  163.1467 C   0  0  0  0  0  0  0  0  0  0  0  0
  147.6847  136.7198  162.7631 S   0  0  0  0  0  0  0  0  0  0  0  0
  146.8758  138.4111  158.2591 N   0  0  0  0  0  0  0  0  0  0  0  0
  146.1950  138.6846  156.9961 C   0  0  2  0  0  0  0  0  0  0  0  0
  147.2292  138.9547  155.8909 C   0  0  0  0  0  0  0  0  0  0  0  0
  146.5426  139.3630  154.5743 C   0  0  0  0  0  0  0  0  0  0  0  0
  145.6326  140.5238  154.7534 N   0  3  2  0  0  0  0  0  0  0  0  0
  146.3475  141.8123  154.9082 C   0  0  0  0  0  0  0  0  0  0  0  0
  146.2060  142.7306  153.7166 C   0  0  0  0  0  0  0  0  0  0  0  0
  147.5012  141.9848  153.9477 C   0  0  0  0  0  0  0  0  0  0  0  0
  144.6192  140.2829  155.8127 C   0  0  0  0  0  0  0  0  0  0  0  0
  145.2655  139.8983  157.1565 C   0  0  0  0  0  0  0  0  0  0  0  0
  146.1873  133.5026  161.9631 H   0  0  0  0  0  0  0  0  0  0  0  0
  147.0085  134.8111  164.1714 H   0  0  0  0  0  0  0  0  0  0  0  0
  147.3721  139.1819  158.6819 H   0  0  0  0  0  0  0  0  0  0  0  0
  145.5855  137.8317  156.6926 H   0  0  0  0  0  0  0  0  0  0  0  0
  147.9187  139.7386  156.2072 H   0  0  0  0  0  0  0  0  0  0  0  0
  147.8365  138.0639  155.7261 H   0  0  0  0  0  0  0  0  0  0  0  0
  147.2878  139.5870  153.8101 H   0  0  0  0  0  0  0  0  0  0  0  0
  145.9577  138.5238  154.1952 H   0  0  0  0  0  0  0  0  0  0  0  0
  146.4056  142.2247  155.9138 H   0  0  0  0  0  0  0  0  0  0  0  0
  145.5809  142.4062  152.8865 H   0  0  0  0  0  0  0  0  0  0  0  0
  146.2083  143.8023  153.9051 H   0  0  0  0  0  0  0  0  0  0  0  0
  148.3558  142.5643  154.2904 H   0  0  0  0  0  0  0  0  0  0  0  0
  147.7365  141.1660  153.2700 H   0  0  0  0  0  0  0  0  0  0  0  0
  143.9879  141.1640  155.9323 H   0  0  0  0  0  0  0  0  0  0  0  0
  143.9624  139.4770  155.4826 H   0  0  0  0  0  0  0  0  0  0  0  0
  144.4867  139.6750  157.8867 H   0  0  0  0  0  0  0  0  0  0  0  0
  145.8230  140.7464  157.5558 H   0  0  0  0  0  0  0  0  0  0  0  0
  145.1175  140.6098  153.8889 H   0  0  0  0  0  0  0  0  0  0  0  0
  1  2  2  0  0  0  0
  2  3  1  0  0  0  0
  2  9  1  0  0  0  0
  3  4  1  0  0  0  0
  4  8  1  0  0  0  0
  4  5  2  0  0  0  0
  5  6  1  0  0  0  0
  6  7  2  0  0  0  0
  6 19  1  0  0  0  0
  7  8  1  0  0  0  0
  7 20  1  0  0  0  0
  9 10  1  0  0  0  0
  9 21  1  0  0  0  0
 10 18  1  0  0  0  0
 10 11  1  0  0  0  0
 10 22  1  0  0  0  0
 11 12  1  0  0  0  0
 11 23  1  0  0  0  0
 11 24  1  0  0  0  0
 12 13  1  0  0  0  0
 12 25  1  0  0  0  0
 12 26  1  0  0  0  0
 13 14  1  0  0  0  0
 13 17  1  0  0  0  0
 13 36  1  0  0  0  0
 14 16  1  0  0  0  0
 14 15  1  0  0  0  0
 14 27  1  0  0  0  0
 15 16  1  0  0  0  0
 15 28  1  0  0  0  0
 15 29  1  0  0  0  0
 16 30  1  0  0  0  0
 16 31  1  0  0  0  0
 17 18  1  0  0  0  0
 17 32  1  0  0  0  0
 17 33  1  0  0  0  0
 18 34  1  0  0  0  0
 18 35  1  0  0  0  0
M  CHG  1   3  -1
M  CHG  1  13   1
M  END
> <s_m_source_file>
AV-unprocessed.smi

> <i_m_source_file_index>
1222

> <i_lp_mmshare_version>
43012

> <i_f3d_flags>
0

> <s_epik_input>
czFbY0hdW2NIXW5jMVtOSF1DKD1PKVtOSF1bQ0hdMltDSDJdW0NIMl1OKFtDSDJdW0NIMl0yKVtDSF0zW0NIMl1bQ0gyXTM=

> <s_epik_cmdline>
J2VwaWtfcHl0aG9uJywgJy1waCcsICc3LjAnLCAnLXRuJywgJzgnLCAnLW1hJywgJzIwMCcsICctbWV0YWxfYmluZGluZycsICctaW1hZScsICc8aW5maWxlLm1hZT4nLCAnLW9tYWUnLCAnPG91dGZpbGUubWFlPic=

> <r_lp_tautomer_probability>
0.999

> <r_epik_Ionization_Penalty>
6.4609

> <r_epik_Ionization_Penalty_Charging>
5.58663

> <r_epik_Ionization_Penalty_Neutral>
0.874262

> <r_epik_State_Penalty>
5.57752

> <r_epik_Charging_Adjusted_Penalty>
11.1642

> <i_epik_Tot_Q>
0

> <i_epik_Tot_abs_Q>
2

> <r_epik_Metal_State_Penalty>
1.58738

> <b_epik_Metal_Only>
1

> <s_lp_Force_Field>
OPLS_2005

> <r_lp_Energy>
18.4685

> <b_lp_Chiralities_Consistent>
1

> <s_lp_Variant>
AV-unprocessed.smi:1222-5

> <Gold.Version>
5.8.1

> <Gold.Id.Protein>
6NUR|6NUR_protein|mol2

> <Gold.PLP.Fitness>
38.0370

> <Gold.PLP.PLP>
-27.8202

> <Gold.PLP.part.hbond>
-2.3964

> <Gold.PLP.part.metal>
0.0000

> <Gold.PLP.part.buried>
-3.3146

> <Gold.PLP.part.nonpolar>
-22.9399

> <Gold.PLP.part.repulsive>
0.1165

> <Gold.PLP.ligand.clash>
0.0000

> <Gold.PLP.ligand.torsion>
1.1474

> <Gold.PLP.Chemscore.Hbond>
3.7280

> <Gold.PLP.Chemscore.CHOScore>
0.0000

> <Gold.PLP.Chemscore.Metal>
0.0000

> <Gold.Chemscore.Hbonds>
donor molecule, donor type, donor heavy atom, donor atom, acceptor molecule, acceptor atom, score
      L1  H    13    36       P1 10175  2.00
      P1  H  6934  6947       L1     3  1.76

> <Gold.PLP.Chemscore.Internal.Correction>
1.3277

> <Gold.Rescore>
     Score         DG    S(hbond)    S(metal)    S(lipo)     H(rot)  DE(clash)    DE(int)     intcor
     11.60     -14.33       1.85        0.00      50.03       1.25       0.01       2.72       ----

> <Gold.Chemscore.Fitness>
11.6040

> <Gold.Chemscore.DG>
-14.3305

> <Gold.Chemscore.ZeroCoef>
-5.4800

> <Gold.Chemscore.Hbond>
1.8532

> <Gold.Chemscore.Metal>
0.0000

> <Gold.Chemscore.Lipo>
50.0281

> <Gold.Chemscore.Internal_Hbond>
0.0000

> <Gold.Chemscore.DEClash>
0.0089

> <Gold.Chemscore.DEInternal>
2.7176

> <Gold.Chemscore.Rot>
1.2470

> <Gold.Chemscore.Internal.Correction>
   9.000000E+99

> <Gold.Chemscore.Hbonds>
donor molecule, donor type, donor heavy atom, donor atom, acceptor molecule, acceptor atom, score
      L1  H    13    36       P1 10175  0.94
      P1  H  6934  6947       L1     3  0.16

> <Gold.Chemscore.Hbond.Weighted>
-6.1896

> <Gold.Chemscore.Metal.Weighted>
-0.0000

> <Gold.Chemscore.Lipo.Weighted>
-5.8533

> <Gold.Chemscore.Internal_Hbond.Weighted>
0.0000

> <Gold.Chemscore.DEClash.Weighted>
0.0089

> <Gold.Chemscore.DEInternal.Weighted>
2.7176

> <Gold.Chemscore.Rot.Weighted>
3.1924

> <Gold.Chemscore.Internal.Correction.Weighted>
   9.000000E+99

> <Gold.Protein.RotatedTorsions>
[ 6907 6896 6895 6894 ] final -161.20 input  -60.11 | X-H torsion
[ 7974 7965 7964 7962 ] final -112.40 input  175.53 | X-H torsion
[ 8008 7997 7996 7995 ] final   35.65 input   59.86 | X-H torsion
[ 10167 10162 10161 10158 ] final   97.59 input  -65.29 | X-H torsion
[ 10718 10713 10712 10709 ] final  -50.51 input   66.30 | X-H torsion
[ 10763 10752 10751 10750 ] final -177.34 input  -60.55 | X-H torsion
[ 11005 11000 10999 10996 ] final  106.78 input  -57.11 | X-H torsion

> <Gold.Protein.ActiveResidues>
 VAL166  LYS551  ARG553  GLY616  TRP617  ASP618  TYR619  PRO620  LYS621  CYS622 
 ASP623  PHE694  ASN695  SER759  ASP760  ASP761  ALA762  ILE779  LEU786  VAL792 
 PHE793  MET794  SER795  GLU796  ALA797  LYS798  CYS799  TRP800  GLU811  SER814 

> <Gold.Protein.RotatedAtoms>
  151.3610  133.3890  159.2689 H   0  0  0  0  0  0  0  0  0  0  0  0  # atno 6907 bound_to 6896
  150.9726  134.9097  159.7807 H   0  0  0  0  0  0  0  0  0  0  0  0  # atno 6908 bound_to 6896
  152.5190  134.3572  159.9324 H   0  0  0  0  0  0  0  0  0  0  0  0  # atno 6909 bound_to 6896
  145.1444  140.8795  143.3683 H   0  0  0  0  0  0  0  0  0  0  0  0  # atno 7974 bound_to 7965
  155.1745  140.3294  155.4386 H   0  0  0  0  0  0  0  0  0  0  0  0  # atno 8008 bound_to 7997
  156.2498  140.1937  156.6797 H   0  0  0  0  0  0  0  0  0  0  0  0  # atno 8009 bound_to 7997
  154.6314  140.0582  156.9723 H   0  0  0  0  0  0  0  0  0  0  0  0  # atno 8010 bound_to 7997
  139.7786  144.6896  151.0054 H   0  0  0  0  0  0  0  0  0  0  0  0  # atno 10167 bound_to 10162
  156.1794  130.4150  149.9530 H   0  0  0  0  0  0  0  0  0  0  0  0  # atno 10718 bound_to 10713
  154.5613  135.2820  155.0916 H   0  0  0  0  0  0  0  0  0  0  0  0  # atno 10763 bound_to 10752
  154.2324  135.6372  153.5183 H   0  0  0  0  0  0  0  0  0  0  0  0  # atno 10764 bound_to 10752
  153.0030  135.5540  154.6209 H   0  0  0  0  0  0  0  0  0  0  0  0  # atno 10765 bound_to 10752
  139.8819  134.9380  156.5719 H   0  0  0  0  0  0  0  0  0  0  0  0  # atno 11005 bound_to 11000
  145.0497  139.3191  143.5935 LP  0  0  0  0  0  0  0  0  0  0  0  0  # atno 17320 bound_to 7965
  146.3501  139.9901  142.8686 LP  0  0  0  0  0  0  0  0  0  0  0  0  # atno 17321 bound_to 7965
  140.7817  143.4508  151.0416 LP  0  0  0  0  0  0  0  0  0  0  0  0  # atno 17342 bound_to 10162
  139.8189  143.7848  152.3176 LP  0  0  0  0  0  0  0  0  0  0  0  0  # atno 17343 bound_to 10162
  156.7305  130.9041  151.3625 LP  0  0  0  0  0  0  0  0  0  0  0  0  # atno 17370 bound_to 10713
  157.6857  130.9184  150.0382 LP  0  0  0  0  0  0  0  0  0  0  0  0  # atno 17371 bound_to 10713
  140.8092  133.8443  155.8794 LP  0  0  0  0  0  0  0  0  0  0  0  0  # atno 17394 bound_to 11000
  140.9522  134.1764  157.4719 LP  0  0  0  0  0  0  0  0  0  0  0  0  # atno 17395 bound_to 11000

$$$$
