AV-unprocessed.smi:672|AV-procd|sdf|3296|dock9
  -GOLD-   22720 0253D 1   1.00000     0.00000
 Structure written by MMmdl.
 35 36  0  0  0  0  0  0  0  0  2 V2000
  145.9645  134.4275  162.4554 C   0  0  0  0  0  0  0  0  0  0  0  0
  145.8924  135.8944  162.0177 C   0  0  0  0  0  0  0  0  0  0  0  0
  146.9718  136.2581  161.0538 C   0  0  0  0  0  0  0  0  0  0  0  0
  147.0301  137.4455  160.4450 N   0  0  0  0  0  0  0  0  0  0  0  0
  148.1063  137.5344  159.5743 N   0  0  0  0  0  0  0  0  0  0  0  0
  148.8307  136.4077  159.5177 C   0  0  0  0  0  0  0  0  0  0  0  0
  149.9137  136.2848  158.7331 N   0  5  0  0  0  0  0  0  0  0  0  0
  150.0143  137.0206  157.6029 C   0  0  0  0  0  0  0  0  0  0  0  0
  149.1204  137.2163  156.7760 O   0  0  0  0  0  0  0  0  0  0  0  0
  151.2287  137.5565  157.4138 N   0  0  0  0  0  0  0  0  0  0  0  0
  151.6339  138.3852  156.2802 C   0  0  1  0  0  0  0  0  0  0  0  0
  151.1509  137.7682  154.9529 C   0  0  0  0  0  0  0  0  0  0  0  0
  150.4165  138.8837  154.2048 C   0  0  0  0  0  0  0  0  0  0  0  0
  149.8817  139.7931  155.3081 C   0  0  2  0  0  0  0  0  0  0  0  0
  149.4675  141.4550  154.7046 S   0  0  0  0  0  0  0  0  0  0  0  0
  147.9627  141.0871  153.7633 C   0  0  0  0  0  0  0  0  0  0  0  0
  151.0021  139.7897  156.3504 C   0  0  0  0  0  0  0  0  0  0  0  0
  148.2327  135.1328  160.5789 S   0  0  0  0  0  0  0  0  0  0  0  0
  145.1672  134.1926  163.1606 H   0  0  0  0  0  0  0  0  0  0  0  0
  146.9155  134.2101  162.9425 H   0  0  0  0  0  0  0  0  0  0  0  0
  145.8644  133.7564  161.6019 H   0  0  0  0  0  0  0  0  0  0  0  0
  144.9249  136.0990  161.5581 H   0  0  0  0  0  0  0  0  0  0  0  0
  145.9682  136.5456  162.8889 H   0  0  0  0  0  0  0  0  0  0  0  0
  151.9294  137.3707  158.1163 H   0  0  0  0  0  0  0  0  0  0  0  0
  152.7221  138.4722  156.2692 H   0  0  0  0  0  0  0  0  0  0  0  0
  151.9755  137.3632  154.3655 H   0  0  0  0  0  0  0  0  0  0  0  0
  150.4572  136.9464  155.1384 H   0  0  0  0  0  0  0  0  0  0  0  0
  151.1256  139.4309  153.5818 H   0  0  0  0  0  0  0  0  0  0  0  0
  149.6278  138.5027  153.5553 H   0  0  0  0  0  0  0  0  0  0  0  0
  148.9876  139.3385  155.7373 H   0  0  0  0  0  0  0  0  0  0  0  0
  147.5874  141.9934  153.2881 H   0  0  0  0  0  0  0  0  0  0  0  0
  147.1845  140.6961  154.4187 H   0  0  0  0  0  0  0  0  0  0  0  0
  148.1686  140.3497  152.9874 H   0  0  0  0  0  0  0  0  0  0  0  0
  150.6390  140.0530  157.3447 H   0  0  0  0  0  0  0  0  0  0  0  0
  151.7567  140.5299  156.0804 H   0  0  0  0  0  0  0  0  0  0  0  0
  1  2  1  0  0  0  0
  1 19  1  0  0  0  0
  1 20  1  0  0  0  0
  1 21  1  0  0  0  0
  2  3  1  0  0  0  0
  2 22  1  0  0  0  0
  2 23  1  0  0  0  0
  3 18  1  0  0  0  0
  3  4  2  0  0  0  0
  4  5  1  0  0  0  0
  5  6  2  0  0  0  0
  6  7  1  0  0  0  0
  6 18  1  0  0  0  0
  7  8  1  0  0  0  0
  8  9  2  0  0  0  0
  8 10  1  0  0  0  0
 10 11  1  0  0  0  0
 10 24  1  0  0  0  0
 11 17  1  0  0  0  0
 11 12  1  0  0  0  0
 11 25  1  0  0  0  0
 12 13  1  0  0  0  0
 12 26  1  0  0  0  0
 12 27  1  0  0  0  0
 13 14  1  0  0  0  0
 13 28  1  0  0  0  0
 13 29  1  0  0  0  0
 14 15  1  0  0  0  0
 14 17  1  0  0  0  0
 14 30  1  0  0  0  0
 15 16  1  0  0  0  0
 16 31  1  0  0  0  0
 16 32  1  0  0  0  0
 16 33  1  0  0  0  0
 17 34  1  0  0  0  0
 17 35  1  0  0  0  0
M  CHG  1   7  -1
M  END
> <s_m_source_file>
AV-unprocessed.smi

> <i_m_source_file_index>
672

> <i_lp_mmshare_version>
43012

> <i_f3d_flags>
0

> <s_epik_input>
W0NIM11bQ0gyXWMxbm5jKHMxKVtOSF1DKD1PKVtOSF1bQ0BASF0yW0NIMl1bQ0gyXVtDQEhdKFtDSDJdMilTW0NIM10=

> <s_epik_cmdline>
J2VwaWtfcHl0aG9uJywgJy1waCcsICc3LjAnLCAnLXRuJywgJzgnLCAnLW1hJywgJzIwMCcsICctbWV0YWxfYmluZGluZycsICctaW1hZScsICc8aW5maWxlLm1hZT4nLCAnLW9tYWUnLCAnPG91dGZpbGUubWFlPic=

> <r_lp_tautomer_probability>
1

> <r_epik_Ionization_Penalty>
4.49964

> <r_epik_Ionization_Penalty_Charging>
4.32991

> <r_epik_Ionization_Penalty_Neutral>
0.169727

> <r_epik_State_Penalty>
4.32952

> <r_epik_Charging_Adjusted_Penalty>
8.65943

> <i_epik_Tot_Q>
-1

> <i_epik_Tot_abs_Q>
1

> <r_epik_Metal_State_Penalty>
0.740482

> <b_epik_Metal_Only>
1

> <s_lp_Force_Field>
OPLS_2005

> <r_lp_Energy>
9.75318

> <b_lp_Chiralities_Consistent>
1

> <s_lp_Variant>
AV-unprocessed.smi:672-8

> <Gold.Version>
5.8.1

> <Gold.Id.Protein>
6NUR|6NUR_protein|mol2

> <Gold.PLP.Fitness>
35.8793

> <Gold.PLP.PLP>
-29.1172

> <Gold.PLP.part.hbond>
-4.1833

> <Gold.PLP.part.metal>
0.0000

> <Gold.PLP.part.buried>
-2.2735

> <Gold.PLP.part.nonpolar>
-23.1016

> <Gold.PLP.part.repulsive>
0.0534

> <Gold.PLP.ligand.clash>
0.0000

> <Gold.PLP.ligand.torsion>
0.7544

> <Gold.PLP.Chemscore.Hbond>
2.7500

> <Gold.PLP.Chemscore.CHOScore>
0.0000

> <Gold.PLP.Chemscore.Metal>
0.0000

> <Gold.Chemscore.Hbonds>
donor molecule, donor type, donor heavy atom, donor atom, acceptor molecule, acceptor atom, score
      P1  H  6896  6908       L1     7  1.90
      P1  H  6934  6947       L1     4  0.65

> <Gold.PLP.Chemscore.Internal.Correction>
0.0210

> <Gold.Rescore>
     Score         DG    S(hbond)    S(metal)    S(lipo)     H(rot)  DE(clash)    DE(int)     intcor
     10.32     -13.58       0.93        0.00      72.04       1.34       0.00       3.26       ----

> <Gold.Chemscore.Fitness>
10.3174

> <Gold.Chemscore.DG>
-13.5766

> <Gold.Chemscore.ZeroCoef>
-5.4800

> <Gold.Chemscore.Hbond>
0.9282

> <Gold.Chemscore.Metal>
0.0000

> <Gold.Chemscore.Lipo>
72.0447

> <Gold.Chemscore.Internal_Hbond>
0.0000

> <Gold.Chemscore.DEClash>
0.0000

> <Gold.Chemscore.DEInternal>
3.2593

> <Gold.Chemscore.Rot>
1.3410

> <Gold.Chemscore.Internal.Correction>
   9.000000E+99

> <Gold.Chemscore.Hbonds>
donor molecule, donor type, donor heavy atom, donor atom, acceptor molecule, acceptor atom, score
      P1  H  6896  6908       L1     7  0.21
      P1  H  6934  6947       L1     4  0.06

> <Gold.Chemscore.Hbond.Weighted>
-3.1003

> <Gold.Chemscore.Metal.Weighted>
-0.0000

> <Gold.Chemscore.Lipo.Weighted>
-8.4292

> <Gold.Chemscore.Internal_Hbond.Weighted>
0.0000

> <Gold.Chemscore.DEClash.Weighted>
0.0000

> <Gold.Chemscore.DEInternal.Weighted>
3.2593

> <Gold.Chemscore.Rot.Weighted>
3.4329

> <Gold.Chemscore.Internal.Correction.Weighted>
   9.000000E+99

> <Gold.Protein.RotatedTorsions>
[ 6907 6896 6895 6894 ] final -173.13 input  -60.11 | X-H torsion
[ 7974 7965 7964 7962 ] final  -93.09 input  175.53 | X-H torsion
[ 8008 7997 7996 7995 ] final  177.70 input   59.86 | X-H torsion
[ 10167 10162 10161 10158 ] final  104.17 input  -65.29 | X-H torsion
[ 10718 10713 10712 10709 ] final -127.04 input   66.30 | X-H torsion
[ 10763 10752 10751 10750 ] final   90.97 input  -60.55 | X-H torsion
[ 11005 11000 10999 10996 ] final  -17.49 input  -57.11 | X-H torsion

> <Gold.Protein.ActiveResidues>
 VAL166  LYS551  ARG553  GLY616  TRP617  ASP618  TYR619  PRO620  LYS621  CYS622 
 ASP623  PHE694  ASN695  SER759  ASP760  ASP761  ALA762  ILE779  LEU786  VAL792 
 PHE793  MET794  SER795  GLU796  ALA797  LYS798  CYS799  TRP800  GLU811  SER814 

> <Gold.Protein.RotatedAtoms>
  151.5512  133.3417  159.2953 H   0  0  0  0  0  0  0  0  0  0  0  0  # atno 6907 bound_to 6896
  150.8477  134.7794  159.6995 H   0  0  0  0  0  0  0  0  0  0  0  0  # atno 6908 bound_to 6896
  152.4531  134.5359  159.9876 H   0  0  0  0  0  0  0  0  0  0  0  0  # atno 6909 bound_to 6896
  145.3912  140.9528  143.2339 H   0  0  0  0  0  0  0  0  0  0  0  0  # atno 7974 bound_to 7965
  156.0628  140.1352  156.9921 H   0  0  0  0  0  0  0  0  0  0  0  0  # atno 8008 bound_to 7997
  154.4490  140.0988  156.6614 H   0  0  0  0  0  0  0  0  0  0  0  0  # atno 8009 bound_to 7997
  155.5350  140.3459  155.4436 H   0  0  0  0  0  0  0  0  0  0  0  0  # atno 8010 bound_to 7997
  139.7200  144.7060  151.0887 H   0  0  0  0  0  0  0  0  0  0  0  0  # atno 10167 bound_to 10162
  156.1820  130.6738  151.0317 H   0  0  0  0  0  0  0  0  0  0  0  0  # atno 10718 bound_to 10713
  153.2032  135.4414  155.0292 H   0  0  0  0  0  0  0  0  0  0  0  0  # atno 10763 bound_to 10752
  154.8159  135.3315  154.7180 H   0  0  0  0  0  0  0  0  0  0  0  0  # atno 10764 bound_to 10752
  153.7624  135.6990  153.4978 H   0  0  0  0  0  0  0  0  0  0  0  0  # atno 10765 bound_to 10752
  140.8173  133.8095  155.9624 H   0  0  0  0  0  0  0  0  0  0  0  0  # atno 11005 bound_to 11000
  144.8439  139.5428  143.6887 LP  0  0  0  0  0  0  0  0  0  0  0  0  # atno 17320 bound_to 7965
  146.2797  139.6844  142.9238 LP  0  0  0  0  0  0  0  0  0  0  0  0  # atno 17321 bound_to 7965
  140.7752  143.5178  150.9573 LP  0  0  0  0  0  0  0  0  0  0  0  0  # atno 17342 bound_to 10162
  139.8865  143.7006  152.3151 LP  0  0  0  0  0  0  0  0  0  0  0  0  # atno 17343 bound_to 10162
  157.6874  131.0820  150.7203 LP  0  0  0  0  0  0  0  0  0  0  0  0  # atno 17370 bound_to 10713
  156.7260  130.4695  149.5511 LP  0  0  0  0  0  0  0  0  0  0  0  0  # atno 17371 bound_to 10713
  140.9135  134.2230  157.4971 LP  0  0  0  0  0  0  0  0  0  0  0  0  # atno 17394 bound_to 11000
  139.8710  134.9761  156.4907 LP  0  0  0  0  0  0  0  0  0  0  0  0  # atno 17395 bound_to 11000

$$$$
