AV-unprocessed.smi:1464|AV-procd|sdf|5939|dock3
  -GOLD-   22720 6 23D 1   1.00000     0.00000
 Structure written by MMmdl.
 40 41  0  0  0  0  0  0  0  0  2 V2000
  151.8494  144.3142  157.4567 C   0  0  0  0  0  0  0  0  0  0  0  0
  151.1263  143.7678  158.7051 C   0  0  2  0  0  0  0  0  0  0  0  0
  151.8704  144.1435  160.0027 C   0  0  0  0  0  0  0  0  0  0  0  0
  153.1643  143.3349  160.1858 C   0  0  0  0  0  0  0  0  0  0  0  0
  152.8852  141.8261  160.1416 C   0  0  0  0  0  0  0  0  0  0  0  0
  152.1457  141.4136  158.8540 C   0  0  1  0  0  0  0  0  0  0  0  0
  151.8406  139.9851  158.9254 N   0  0  0  0  0  0  0  0  0  0  0  0
  152.2708  139.0404  158.0744 C   0  0  0  0  0  0  0  0  0  0  0  0
  152.9932  139.2808  157.1055 O   0  0  0  0  0  0  0  0  0  0  0  0
  151.7950  137.6115  158.3821 C   0  0  0  0  0  0  0  0  0  0  0  0
  150.3394  137.4803  158.5431 N   0  0  0  0  0  0  0  0  0  0  0  0
  149.9423  136.7590  159.7494 N   0  5  0  0  0  0  0  0  0  0  0  0
  148.6197  136.6026  160.0225 C   0  0  0  0  0  0  0  0  0  0  0  0
  148.2103  136.0275  161.0282 O   0  0  0  0  0  0  0  0  0  0  0  0
  147.6572  137.1388  159.0743 C   0  0  0  0  0  0  0  0  0  0  0  0
  148.0526  137.7748  157.9541 C   0  0  0  0  0  0  0  0  0  0  0  0
  149.4592  137.9724  157.6251 C   0  0  0  0  0  0  0  0  0  0  0  0
  149.8272  138.5453  156.5992 O   0  0  0  0  0  0  0  0  0  0  0  0
  150.8479  142.2411  158.6620 C   0  0  2  0  0  0  0  0  0  0  0  0
  150.0467  141.8246  157.4123 C   0  0  0  0  0  0  0  0  0  0  0  0
  152.8152  143.8361  157.2963 H   0  0  0  0  0  0  0  0  0  0  0  0
  152.0272  145.3859  157.5493 H   0  0  0  0  0  0  0  0  0  0  0  0
  151.2558  144.1701  156.5543 H   0  0  0  0  0  0  0  0  0  0  0  0
  150.1598  144.2727  158.7409 H   0  0  0  0  0  0  0  0  0  0  0  0
  152.0930  145.2109  160.0159 H   0  0  0  0  0  0  0  0  0  0  0  0
  151.2162  143.9619  160.8565 H   0  0  0  0  0  0  0  0  0  0  0  0
  153.8845  143.5994  159.4112 H   0  0  0  0  0  0  0  0  0  0  0  0
  153.6308  143.5952  161.1364 H   0  0  0  0  0  0  0  0  0  0  0  0
  153.8246  141.2776  160.2241 H   0  0  0  0  0  0  0  0  0  0  0  0
  152.2898  141.5484  161.0127 H   0  0  0  0  0  0  0  0  0  0  0  0
  152.8058  141.6104  158.0081 H   0  0  0  0  0  0  0  0  0  0  0  0
  151.2467  139.6891  159.6863 H   0  0  0  0  0  0  0  0  0  0  0  0
  152.1372  136.9490  157.5852 H   0  0  0  0  0  0  0  0  0  0  0  0
  152.3062  137.2699  159.2840 H   0  0  0  0  0  0  0  0  0  0  0  0
  146.6017  137.0221  159.2715 H   0  0  0  0  0  0  0  0  0  0  0  0
  147.3030  138.1555  157.2768 H   0  0  0  0  0  0  0  0  0  0  0  0
  150.2051  142.0245  159.5171 H   0  0  0  0  0  0  0  0  0  0  0  0
  150.6542  141.8805  156.5089 H   0  0  0  0  0  0  0  0  0  0  0  0
  149.1757  142.4650  157.2714 H   0  0  0  0  0  0  0  0  0  0  0  0
  149.6816  140.8007  157.4949 H   0  0  0  0  0  0  0  0  0  0  0  0
  1  2  1  0  0  0  0
  1 21  1  0  0  0  0
  1 22  1  0  0  0  0
  1 23  1  0  0  0  0
  2 19  1  0  0  0  0
  2  3  1  0  0  0  0
  2 24  1  0  0  0  0
  3  4  1  0  0  0  0
  3 25  1  0  0  0  0
  3 26  1  0  0  0  0
  4  5  1  0  0  0  0
  4 27  1  0  0  0  0
  4 28  1  0  0  0  0
  5  6  1  0  0  0  0
  5 29  1  0  0  0  0
  5 30  1  0  0  0  0
  6  7  1  0  0  0  0
  6 19  1  0  0  0  0
  6 31  1  0  0  0  0
  7  8  1  0  0  0  0
  7 32  1  0  0  0  0
  8  9  2  0  0  0  0
  8 10  1  0  0  0  0
 10 33  1  0  0  0  0
 10 34  1  0  0  0  0
 10 11  1  0  0  0  0
 11 12  1  0  0  0  0
 11 17  1  0  0  0  0
 12 13  1  0  0  0  0
 13 14  2  0  0  0  0
 13 15  1  0  0  0  0
 15 35  1  0  0  0  0
 15 16  2  0  0  0  0
 16 36  1  0  0  0  0
 16 17  1  0  0  0  0
 17 18  2  0  0  0  0
 19 20  1  0  0  0  0
 19 37  1  0  0  0  0
 20 38  1  0  0  0  0
 20 39  1  0  0  0  0
 20 40  1  0  0  0  0
M  CHG  1  12  -1
M  END
> <s_m_source_file>
AV-unprocessed.smi

> <i_m_source_file_index>
1464

> <i_lp_mmshare_version>
43012

> <i_f3d_flags>
0

> <s_epik_input>
W0NIM11bQ0BASF0xW0NIMl1bQ0gyXVtDSDJdW0NASF0oW0NASF0xW0NIM10pW05IXUMoPU8pW0NIMl1uMltuSF1jKD1PKVtjSF1bY0hdYzI9Tw==

> <s_epik_cmdline>
J2VwaWtfcHl0aG9uJywgJy1waCcsICc3LjAnLCAnLXRuJywgJzgnLCAnLW1hJywgJzIwMCcsICctbWV0YWxfYmluZGluZycsICctaW1hZScsICc8aW5maWxlLm1hZT4nLCAnLW9tYWUnLCAnPG91dGZpbGUubWFlPic=

> <r_lp_tautomer_probability>
1

> <r_epik_Ionization_Penalty>
0.101366

> <r_epik_Ionization_Penalty_Charging>
0.101366

> <r_epik_Ionization_Penalty_Neutral>
1.90469e-08

> <r_epik_State_Penalty>
0.035861

> <r_epik_Charging_Adjusted_Penalty>
0.137227

> <i_epik_Tot_Q>
-1

> <i_epik_Tot_abs_Q>
1

> <r_epik_Metal_State_Penalty>
0.035861

> <b_epik_Metal_Only>
0

> <s_lp_Force_Field>
OPLS_2005

> <r_lp_Energy>
29.8831

> <b_lp_Chiralities_Consistent>
1

> <s_lp_Variant>
AV-unprocessed.smi:1464-5

> <Gold.Version>
5.8.1

> <Gold.Id.Protein>
6NUR|6NUR_protein|mol2

> <Gold.PLP.Fitness>
43.1818

> <Gold.PLP.PLP>
-34.4739

> <Gold.PLP.part.hbond>
-2.1071

> <Gold.PLP.part.metal>
0.0000

> <Gold.PLP.part.buried>
-6.3524

> <Gold.PLP.part.nonpolar>
-26.6522

> <Gold.PLP.part.repulsive>
0.1450

> <Gold.PLP.ligand.clash>
0.0000

> <Gold.PLP.ligand.torsion>
0.1498

> <Gold.PLP.Chemscore.Hbond>
3.0000

> <Gold.PLP.Chemscore.CHOScore>
0.0000

> <Gold.PLP.Chemscore.Metal>
0.0000

> <Gold.Chemscore.Hbonds>
donor molecule, donor type, donor heavy atom, donor atom, acceptor molecule, acceptor atom, score
      P1  H  6896  6908       L1    12  1.95
      P1  H  7997  8008       L1     9  1.00

> <Gold.PLP.Chemscore.Internal.Correction>
0.0076

> <Gold.Rescore>
     Score         DG    S(hbond)    S(metal)    S(lipo)     H(rot)  DE(clash)    DE(int)     intcor
     15.97     -17.60       1.89        0.00      85.72       1.64       0.00       1.63       ----

> <Gold.Chemscore.Fitness>
15.9739

> <Gold.Chemscore.DG>
-17.6025

> <Gold.Chemscore.ZeroCoef>
-5.4800

> <Gold.Chemscore.Hbond>
1.8865

> <Gold.Chemscore.Metal>
0.0000

> <Gold.Chemscore.Lipo>
85.7235

> <Gold.Chemscore.Internal_Hbond>
0.0000

> <Gold.Chemscore.DEClash>
0.0009

> <Gold.Chemscore.DEInternal>
1.6277

> <Gold.Chemscore.Rot>
1.6438

> <Gold.Chemscore.Internal.Correction>
   9.000000E+99

> <Gold.Chemscore.Hbonds>
donor molecule, donor type, donor heavy atom, donor atom, acceptor molecule, acceptor atom, score
      P1  H  6896  6908       L1    12  0.51
      P1  H  7997  8008       L1     9  1.00

> <Gold.Chemscore.Hbond.Weighted>
-6.3008

> <Gold.Chemscore.Metal.Weighted>
-0.0000

> <Gold.Chemscore.Lipo.Weighted>
-10.0297

> <Gold.Chemscore.Internal_Hbond.Weighted>
0.0000

> <Gold.Chemscore.DEClash.Weighted>
0.0009

> <Gold.Chemscore.DEInternal.Weighted>
1.6277

> <Gold.Chemscore.Rot.Weighted>
4.2080

> <Gold.Chemscore.Internal.Correction.Weighted>
   9.000000E+99

> <Gold.Protein.RotatedTorsions>
[ 6907 6896 6895 6894 ] final -158.63 input  -60.11 | X-H torsion
[ 7974 7965 7964 7962 ] final  130.45 input  175.53 | X-H torsion
[ 8008 7997 7996 7995 ] final  -76.59 input   59.86 | X-H torsion
[ 10167 10162 10161 10158 ] final -112.66 input  -65.29 | X-H torsion
[ 10718 10713 10712 10709 ] final  151.21 input   66.30 | X-H torsion
[ 10763 10752 10751 10750 ] final  -49.81 input  -60.55 | X-H torsion
[ 11005 11000 10999 10996 ] final   47.92 input  -57.11 | X-H torsion

> <Gold.Protein.ActiveResidues>
 VAL166  LYS551  ARG553  GLY616  TRP617  ASP618  TYR619  PRO620  LYS621  CYS622 
 ASP623  PHE694  ASN695  SER759  ASP760  ASP761  ALA762  ILE779  LEU786  VAL792 
 PHE793  MET794  SER795  GLU796  ALA797  LYS798  CYS799  TRP800  GLU811  SER814 

> <Gold.Protein.RotatedAtoms>
  151.3211  133.4039  159.2654 H   0  0  0  0  0  0  0  0  0  0  0  0  # atno 6907 bound_to 6896
  151.0034  134.9340  159.7977 H   0  0  0  0  0  0  0  0  0  0  0  0  # atno 6908 bound_to 6896
  152.5281  134.3176  159.9189 H   0  0  0  0  0  0  0  0  0  0  0  0  # atno 6909 bound_to 6896
  145.0178  139.4160  143.5212 H   0  0  0  0  0  0  0  0  0  0  0  0  # atno 7974 bound_to 7965
  154.5519  140.0724  156.8681 H   0  0  0  0  0  0  0  0  0  0  0  0  # atno 8008 bound_to 7997
  155.2977  140.3382  155.4231 H   0  0  0  0  0  0  0  0  0  0  0  0  # atno 8009 bound_to 7997
  156.1968  140.1707  156.7967 H   0  0  0  0  0  0  0  0  0  0  0  0  # atno 8010 bound_to 7997
  140.1203  143.4449  152.1695 H   0  0  0  0  0  0  0  0  0  0  0  0  # atno 10167 bound_to 10162
  157.2736  131.0822  151.1582 H   0  0  0  0  0  0  0  0  0  0  0  0  # atno 10718 bound_to 10713
  154.1002  135.6564  153.4867 H   0  0  0  0  0  0  0  0  0  0  0  0  # atno 10763 bound_to 10752
  153.0291  135.5223  154.7294 H   0  0  0  0  0  0  0  0  0  0  0  0  # atno 10764 bound_to 10752
  154.6444  135.2992  155.0033 H   0  0  0  0  0  0  0  0  0  0  0  0  # atno 10765 bound_to 10752
  140.1236  134.4797  155.8577 H   0  0  0  0  0  0  0  0  0  0  0  0  # atno 11005 bound_to 11000
  146.3480  139.9658  142.8712 LP  0  0  0  0  0  0  0  0  0  0  0  0  # atno 17320 bound_to 7965
  145.1936  140.9823  143.4196 LP  0  0  0  0  0  0  0  0  0  0  0  0  # atno 17321 bound_to 7965
  139.5572  144.7381  151.4259 LP  0  0  0  0  0  0  0  0  0  0  0  0  # atno 17342 bound_to 10162
  140.6876  143.7938  150.7208 LP  0  0  0  0  0  0  0  0  0  0  0  0  # atno 17343 bound_to 10162
  157.3043  130.6858  149.6181 LP  0  0  0  0  0  0  0  0  0  0  0  0  # atno 17370 bound_to 10713
  155.9663  130.4382  150.5209 LP  0  0  0  0  0  0  0  0  0  0  0  0  # atno 17371 bound_to 10713
  141.2157  133.6770  156.6936 LP  0  0  0  0  0  0  0  0  0  0  0  0  # atno 17394 bound_to 11000
  140.2932  134.8223  157.4035 LP  0  0  0  0  0  0  0  0  0  0  0  0  # atno 17395 bound_to 11000

$$$$
