AV-unprocessed.smi:2719|AV-procd|sdf|10495|dock2
  -GOLD-   2272014543D 1   1.00000     0.00000
 Structure written by MMmdl.
 21 21  0  0  0  0  0  0  0  0  3 V2000
  152.1716  140.5715  159.2096 C   0  0  0  0  0  0  0  0  0  0  0  0
  152.0037  142.0004  158.7248 C   0  0  0  0  0  0  0  0  0  0  0  0
  152.7208  143.0378  159.3622 C   0  0  0  0  0  0  0  0  0  0  0  0
  152.5757  144.3662  158.9143 C   0  0  0  0  0  0  0  0  0  0  0  0
  151.7144  144.6316  157.8328 C   0  0  0  0  0  0  0  0  0  0  0  0
  151.0424  143.6181  157.2481 N   0  3  0  0  0  0  0  0  0  0  0  0
  151.1459  142.3250  157.6409 C   0  0  0  0  0  0  0  0  0  0  0  0
  150.3270  141.2891  156.8721 C   0  0  1  0  0  0  0  0  0  0  0  0
  149.2903  141.8694  156.1003 O   0  0  0  0  0  0  0  0  0  0  0  0
  151.2992  140.5209  155.9657 C   0  0  0  0  0  0  0  0  0  0  0  0
  150.9699  140.3907  154.7663 O   0  0  0  0  0  0  0  0  0  0  0  0
  152.3402  140.0585  156.4849 O   0  5  0  0  0  0  0  0  0  0  0  0
  152.9356  140.5023  159.9844 H   0  0  0  0  0  0  0  0  0  0  0  0
  152.4706  139.9194  158.3888 H   0  0  0  0  0  0  0  0  0  0  0  0
  151.2359  140.1987  159.6266 H   0  0  0  0  0  0  0  0  0  0  0  0
  153.3813  142.8205  160.1891 H   0  0  0  0  0  0  0  0  0  0  0  0
  153.1202  145.1680  159.3911 H   0  0  0  0  0  0  0  0  0  0  0  0
  151.5445  145.6145  157.4183 H   0  0  0  0  0  0  0  0  0  0  0  0
  149.8510  140.5903  157.5598 H   0  0  0  0  0  0  0  0  0  0  0  0
  149.3834  142.8087  156.1321 H   0  0  0  0  0  0  0  0  0  0  0  0
  150.4289  143.8288  156.4599 H   0  0  0  0  0  0  0  0  0  0  0  0
  1  2  1  0  0  0  0
  1 13  1  0  0  0  0
  1 14  1  0  0  0  0
  1 15  1  0  0  0  0
  2  7  1  0  0  0  0
  2  3  2  0  0  0  0
  3  4  1  0  0  0  0
  3 16  1  0  0  0  0
  4  5  2  0  0  0  0
  4 17  1  0  0  0  0
  5  6  1  0  0  0  0
  5 18  1  0  0  0  0
  6  7  2  0  0  0  0
  6 21  1  0  0  0  0
  7  8  1  0  0  0  0
  8  9  1  0  0  0  0
  8 10  1  0  0  0  0
  8 19  1  0  0  0  0
  9 20  1  0  0  0  0
 10 11  2  0  0  0  0
 10 12  1  0  0  0  0
M  CHG  1   6   1
M  CHG  1  12  -1
M  END
> <s_m_source_file>
AV-unprocessed.smi

> <i_m_source_file_index>
2719

> <i_lp_mmshare_version>
43012

> <i_f3d_flags>
0

> <s_epik_input>
W0NIM11jMVtjSF1bY0hdW2NIXW5jMVtDQEhdKFtPSF0pQyg9TylbT0hd

> <s_epik_cmdline>
J2VwaWtfcHl0aG9uJywgJy1waCcsICc3LjAnLCAnLXRuJywgJzgnLCAnLW1hJywgJzIwMCcsICctbWV0YWxfYmluZGluZycsICctaW1hZScsICc8aW5maWxlLm1hZT4nLCAnLW9tYWUnLCAnPG91dGZpbGUubWFlPic=

> <r_epik_Ionization_Penalty>
0.143401

> <r_epik_Ionization_Penalty_Charging>
0.1434

> <r_epik_Ionization_Penalty_Neutral>
5.11682e-08

> <r_epik_State_Penalty>
0.132703

> <r_epik_Charging_Adjusted_Penalty>
0.276103

> <i_epik_Tot_Q>
0

> <i_epik_Tot_abs_Q>
2

> <r_epik_Metal_State_Penalty>
3.27621

> <b_epik_Metal_Only>
0

> <s_lp_Force_Field>
OPLS_2005

> <r_lp_Energy>
8.63444

> <b_lp_Chiralities_Consistent>
1

> <s_lp_Variant>
AV-unprocessed.smi:2719-2

> <Gold.Version>
5.8.1

> <Gold.Id.Protein>
6NUR|6NUR_protein|mol2

> <Gold.PLP.Fitness>
44.8839

> <Gold.PLP.PLP>
-28.7948

> <Gold.PLP.part.hbond>
-3.9177

> <Gold.PLP.part.metal>
0.0000

> <Gold.PLP.part.buried>
-3.5927

> <Gold.PLP.part.nonpolar>
-21.4574

> <Gold.PLP.part.repulsive>
0.0730

> <Gold.PLP.ligand.clash>
0.7766

> <Gold.PLP.ligand.torsion>
0.5620

> <Gold.PLP.Chemscore.Hbond>
5.9913

> <Gold.PLP.Chemscore.CHOScore>
0.0000

> <Gold.PLP.Chemscore.Metal>
0.0000

> <Gold.Chemscore.Hbonds>
donor molecule, donor type, donor heavy atom, donor atom, acceptor molecule, acceptor atom, score
      L1  H     6    21       P1  8028  2.00
      L1  H     9    20       P1  8028  0.99
      P1  H  7989  7998       L1    11  0.94
      P1  H  7997  8009       L1    12  2.00

> <Gold.PLP.Chemscore.Internal.Correction>
0.0160

> <Gold.Rescore>
     Score         DG    S(hbond)    S(metal)    S(lipo)     H(rot)  DE(clash)    DE(int)     intcor
     17.95     -20.87       3.78        0.00      69.93       2.11       0.04       2.87       ----

> <Gold.Chemscore.Fitness>
17.9498

> <Gold.Chemscore.DG>
-20.8677

> <Gold.Chemscore.ZeroCoef>
-5.4800

> <Gold.Chemscore.Hbond>
3.7778

> <Gold.Chemscore.Metal>
0.0000

> <Gold.Chemscore.Lipo>
69.9342

> <Gold.Chemscore.Internal_Hbond>
0.0000

> <Gold.Chemscore.DEClash>
0.0443

> <Gold.Chemscore.DEInternal>
2.8736

> <Gold.Chemscore.Rot>
2.1142

> <Gold.Chemscore.Internal.Correction>
   9.000000E+99

> <Gold.Chemscore.Hbonds>
donor molecule, donor type, donor heavy atom, donor atom, acceptor molecule, acceptor atom, score
      L1  H     6    21       P1  8028  0.95
      L1  H     9    20       P1  8028  0.92
      P1  H  7989  7998       L1    11  0.89
      P1  H  7997  8009       L1    12  0.96

> <Gold.Chemscore.Hbond.Weighted>
-12.6177

> <Gold.Chemscore.Metal.Weighted>
-0.0000

> <Gold.Chemscore.Lipo.Weighted>
-8.1823

> <Gold.Chemscore.Internal_Hbond.Weighted>
0.0000

> <Gold.Chemscore.DEClash.Weighted>
0.0443

> <Gold.Chemscore.DEInternal.Weighted>
2.8736

> <Gold.Chemscore.Rot.Weighted>
5.4123

> <Gold.Chemscore.Internal.Correction.Weighted>
   9.000000E+99

> <Gold.Protein.RotatedTorsions>
[ 6907 6896 6895 6894 ] final   -8.65 input  -60.11 | X-H torsion
[ 7974 7965 7964 7962 ] final   25.61 input  175.53 | X-H torsion
[ 8008 7997 7996 7995 ] final -165.04 input   59.86 | X-H torsion
[ 10167 10162 10161 10158 ] final  114.62 input  -65.29 | X-H torsion
[ 10718 10713 10712 10709 ] final   -7.64 input   66.30 | X-H torsion
[ 10763 10752 10751 10750 ] final   27.95 input  -60.55 | X-H torsion
[ 11005 11000 10999 10996 ] final   52.61 input  -57.11 | X-H torsion

> <Gold.Protein.ActiveResidues>
 VAL166  LYS551  ARG553  GLY616  TRP617  ASP618  TYR619  PRO620  LYS621  CYS622 
 ASP623  PHE694  ASN695  SER759  ASP760  ASP761  ALA762  ILE779  LEU786  VAL792 
 PHE793  MET794  SER795  GLU796  ALA797  LYS798  CYS799  TRP800  GLU811  SER814 

> <Gold.Protein.RotatedAtoms>
  151.4303  135.1009  159.9640 H   0  0  0  0  0  0  0  0  0  0  0  0  # atno 6907 bound_to 6896
  152.4958  133.8624  159.7267 H   0  0  0  0  0  0  0  0  0  0  0  0  # atno 6908 bound_to 6896
  150.9160  133.6881  159.2871 H   0  0  0  0  0  0  0  0  0  0  0  0  # atno 6909 bound_to 6896
  146.1880  139.7443  142.8852 H   0  0  0  0  0  0  0  0  0  0  0  0  # atno 7974 bound_to 7965
  155.8442  140.0953  157.1715 H   0  0  0  0  0  0  0  0  0  0  0  0  # atno 8008 bound_to 7997
  154.3983  140.1395  156.3827 H   0  0  0  0  0  0  0  0  0  0  0  0  # atno 8009 bound_to 7997
  155.8031  140.3452  155.5417 H   0  0  0  0  0  0  0  0  0  0  0  0  # atno 8010 bound_to 7997
  139.6376  144.7121  151.2303 H   0  0  0  0  0  0  0  0  0  0  0  0  # atno 10167 bound_to 10162
  156.7143  130.5131  149.5884 H   0  0  0  0  0  0  0  0  0  0  0  0  # atno 10718 bound_to 10713
  153.0523  135.6525  154.0663 H   0  0  0  0  0  0  0  0  0  0  0  0  # atno 10763 bound_to 10752
  154.0349  135.2908  155.3365 H   0  0  0  0  0  0  0  0  0  0  0  0  # atno 10764 bound_to 10752
  154.6818  135.5317  153.8340 H   0  0  0  0  0  0  0  0  0  0  0  0  # atno 10765 bound_to 10752
  140.0835  134.5306  155.8923 H   0  0  0  0  0  0  0  0  0  0  0  0  # atno 11005 bound_to 11000
  145.3880  141.0368  143.3140 LP  0  0  0  0  0  0  0  0  0  0  0  0  # atno 17320 bound_to 7965
  144.8433  139.5437  143.6890 LP  0  0  0  0  0  0  0  0  0  0  0  0  # atno 17321 bound_to 7965
  140.7473  143.6369  150.8371 LP  0  0  0  0  0  0  0  0  0  0  0  0  # atno 17342 bound_to 10162
  140.0002  143.5752  152.2878 LP  0  0  0  0  0  0  0  0  0  0  0  0  # atno 17343 bound_to 10162
  156.1639  130.6392  151.0753 LP  0  0  0  0  0  0  0  0  0  0  0  0  # atno 17370 bound_to 10713
  157.6923  131.0805  150.7070 LP  0  0  0  0  0  0  0  0  0  0  0  0  # atno 17371 bound_to 10713
  141.2055  133.6647  156.6182 LP  0  0  0  0  0  0  0  0  0  0  0  0  # atno 17394 bound_to 11000
  140.3454  134.7814  157.4428 LP  0  0  0  0  0  0  0  0  0  0  0  0  # atno 17395 bound_to 11000

$$$$
