AV-unprocessed.smi:1002|AV-procd|sdf|4359|dock3
  -GOLD-   22720 2263D 1   1.00000     0.00000
 Structure written by MMmdl.
 36 37  0  0  0  0  0  0  0  0  2 V2000
  150.4875  140.5960  154.9880 O   0  0  0  0  0  0  0  0  0  0  0  0
  149.7496  141.5391  155.2734 C   0  0  0  0  0  0  0  0  0  0  0  0
  148.4035  141.6977  154.5655 C   0  0  0  0  0  0  0  0  0  0  0  0
  147.6156  140.4010  154.6274 C   0  0  0  0  0  0  0  0  0  0  0  0
  148.1503  139.2064  154.1013 C   0  0  0  0  0  0  0  0  0  0  0  0
  147.3786  138.0302  154.1841 C   0  0  0  0  0  0  0  0  0  0  0  0
  146.1494  137.9868  154.7419 N   0  0  0  0  0  0  0  0  0  0  0  0
  145.6425  139.1342  155.2419 C   0  0  0  0  0  0  0  0  0  0  0  0
  146.3304  140.3638  155.2086 C   0  0  0  0  0  0  0  0  0  0  0  0
  150.0533  142.4676  156.1939 N   0  0  0  0  0  0  0  0  0  0  0  0
  151.2741  142.5020  156.9926 C   0  0  2  0  0  0  0  0  0  0  0  0
  151.1091  141.5837  158.2182 C   0  0  0  0  0  0  0  0  0  0  0  0
  152.3419  141.6448  159.1402 C   0  0  0  0  0  0  0  0  0  0  0  0
  152.6724  143.0892  159.5913 C   0  0  2  0  0  0  0  0  0  0  0  0
  151.6489  143.6512  160.6064 C   0  0  0  0  0  0  0  0  0  0  0  0
  151.0174  144.6822  160.2850 O   0  0  0  0  0  0  0  0  0  0  0  0
  151.5282  143.0637  161.7047 O   0  5  0  0  0  0  0  0  0  0  0  0
  152.8324  143.9958  158.3463 C   0  0  0  0  0  0  0  0  0  0  0  0
  151.6008  143.9474  157.4226 C   0  0  0  0  0  0  0  0  0  0  0  0
  147.8293  142.5038  155.0248 H   0  0  0  0  0  0  0  0  0  0  0  0
  148.5680  141.9827  153.5255 H   0  0  0  0  0  0  0  0  0  0  0  0
  149.1301  139.1888  153.6469 H   0  0  0  0  0  0  0  0  0  0  0  0
  147.7595  137.0992  153.7911 H   0  0  0  0  0  0  0  0  0  0  0  0
  144.6583  139.0711  155.6819 H   0  0  0  0  0  0  0  0  0  0  0  0
  145.8819  141.2544  155.6239 H   0  0  0  0  0  0  0  0  0  0  0  0
  149.3856  143.2070  156.3585 H   0  0  0  0  0  0  0  0  0  0  0  0
  152.1021  142.1178  156.3932 H   0  0  0  0  0  0  0  0  0  0  0  0
  150.2167  141.8680  158.7774 H   0  0  0  0  0  0  0  0  0  0  0  0
  150.9486  140.5550  157.8931 H   0  0  0  0  0  0  0  0  0  0  0  0
  152.1994  140.9881  159.9991 H   0  0  0  0  0  0  0  0  0  0  0  0
  153.2013  141.2379  158.6061 H   0  0  0  0  0  0  0  0  0  0  0  0
  153.6266  143.0679  160.1190 H   0  0  0  0  0  0  0  0  0  0  0  0
  153.0416  145.0267  158.6336 H   0  0  0  0  0  0  0  0  0  0  0  0
  153.7083  143.6701  157.7840 H   0  0  0  0  0  0  0  0  0  0  0  0
  151.7839  144.5674  156.5443 H   0  0  0  0  0  0  0  0  0  0  0  0
  150.7413  144.3867  157.9308 H   0  0  0  0  0  0  0  0  0  0  0  0
  1  2  2  0  0  0  0
  2  3  1  0  0  0  0
  2 10  1  0  0  0  0
  3  4  1  0  0  0  0
  3 20  1  0  0  0  0
  3 21  1  0  0  0  0
  4  9  1  0  0  0  0
  4  5  2  0  0  0  0
  5  6  1  0  0  0  0
  5 22  1  0  0  0  0
  6  7  2  0  0  0  0
  6 23  1  0  0  0  0
  7  8  1  0  0  0  0
  8  9  2  0  0  0  0
  8 24  1  0  0  0  0
  9 25  1  0  0  0  0
 10 11  1  0  0  0  0
 10 26  1  0  0  0  0
 11 19  1  0  0  0  0
 11 12  1  0  0  0  0
 11 27  1  0  0  0  0
 12 13  1  0  0  0  0
 12 28  1  0  0  0  0
 12 29  1  0  0  0  0
 13 14  1  0  0  0  0
 13 30  1  0  0  0  0
 13 31  1  0  0  0  0
 14 15  1  0  0  0  0
 14 18  1  0  0  0  0
 14 32  1  0  0  0  0
 15 16  2  0  0  0  0
 15 17  1  0  0  0  0
 18 19  1  0  0  0  0
 18 33  1  0  0  0  0
 18 34  1  0  0  0  0
 19 35  1  0  0  0  0
 19 36  1  0  0  0  0
M  CHG  1  17  -1
M  END
> <s_m_source_file>
AV-unprocessed.smi

> <i_m_source_file_index>
1002

> <i_lp_mmshare_version>
43012

> <i_f3d_flags>
0

> <s_epik_input>
Tz1DKFtPSF0pW0NAQEhdKFtDSDJdW0NIMl0xKVtDSDJdW0NIMl1bQ0BIXTFbTkhdQyg9TylbQ0gyXWMyW2NIXVtjSF1uW2NIXVtjSF0y

> <s_epik_cmdline>
J2VwaWtfcHl0aG9uJywgJy1waCcsICc3LjAnLCAnLXRuJywgJzgnLCAnLW1hJywgJzIwMCcsICctbWV0YWxfYmluZGluZycsICctaW1hZScsICc8aW5maWxlLm1hZT4nLCAnLW9tYWUnLCAnPG91dGZpbGUubWFlPic=

> <r_lp_tautomer_probability>
1

> <r_epik_Ionization_Penalty>
0.0065671

> <r_epik_Ionization_Penalty_Charging>
0.00222897

> <r_epik_Ionization_Penalty_Neutral>
0.00433813

> <r_epik_State_Penalty>
-0

> <r_epik_Charging_Adjusted_Penalty>
0.00222897

> <i_epik_Tot_Q>
-1

> <i_epik_Tot_abs_Q>
1

> <r_epik_Metal_State_Penalty>
-0

> <b_epik_Metal_Only>
0

> <s_lp_Force_Field>
OPLS_2005

> <r_lp_Energy>
6.9224

> <b_lp_Chiralities_Consistent>
1

> <s_lp_Variant>
AV-unprocessed.smi:1002-2

> <Gold.Version>
5.8.1

> <Gold.Id.Protein>
6NUR|6NUR_protein|mol2

> <Gold.PLP.Fitness>
43.9180

> <Gold.PLP.PLP>
-32.9068

> <Gold.PLP.part.hbond>
-3.0000

> <Gold.PLP.part.metal>
0.0000

> <Gold.PLP.part.buried>
-5.9473

> <Gold.PLP.part.nonpolar>
-26.8116

> <Gold.PLP.part.repulsive>
1.1092

> <Gold.PLP.ligand.clash>
0.0000

> <Gold.PLP.ligand.torsion>
0.4591

> <Gold.PLP.Chemscore.Hbond>
2.9654

> <Gold.PLP.Chemscore.CHOScore>
1.0000

> <Gold.PLP.Chemscore.Metal>
0.0000

> <Gold.Chemscore.Hbonds>
donor molecule, donor type, donor heavy atom, donor atom, acceptor molecule, acceptor atom, score
      L1  H    10    26       P1  8028  0.80
      P1  H  6933  6945       L1    17  1.21
      P1  H  7989  7998       L1     1  0.96
      L1  C     6    23       P1  7948  1.00

> <Gold.PLP.Chemscore.Internal.Correction>
0.0334

> <Gold.Rescore>
     Score         DG    S(hbond)    S(metal)    S(lipo)     H(rot)  DE(clash)    DE(int)     intcor
     15.72     -18.49       2.28        0.00      87.31       1.88       0.11       2.66       ----

> <Gold.Chemscore.Fitness>
15.7178

> <Gold.Chemscore.DG>
-18.4900

> <Gold.Chemscore.ZeroCoef>
-5.4800

> <Gold.Chemscore.Hbond>
2.2797

> <Gold.Chemscore.Metal>
0.0000

> <Gold.Chemscore.Lipo>
87.3146

> <Gold.Chemscore.Internal_Hbond>
0.0000

> <Gold.Chemscore.DEClash>
0.1118

> <Gold.Chemscore.DEInternal>
2.6603

> <Gold.Chemscore.Rot>
1.8828

> <Gold.Chemscore.Internal.Correction>
   9.000000E+99

> <Gold.Chemscore.Hbonds>
donor molecule, donor type, donor heavy atom, donor atom, acceptor molecule, acceptor atom, score
      L1  H    10    26       P1  8028  0.80
      P1  H  6933  6945       L1    17  0.55
      P1  H  7989  7998       L1     1  0.83

> <Gold.Chemscore.Hbond.Weighted>
-7.6141

> <Gold.Chemscore.Metal.Weighted>
-0.0000

> <Gold.Chemscore.Lipo.Weighted>
-10.2158

> <Gold.Chemscore.Internal_Hbond.Weighted>
0.0000

> <Gold.Chemscore.DEClash.Weighted>
0.1118

> <Gold.Chemscore.DEInternal.Weighted>
2.6603

> <Gold.Chemscore.Rot.Weighted>
4.8199

> <Gold.Chemscore.Internal.Correction.Weighted>
   9.000000E+99

> <Gold.Protein.RotatedTorsions>
[ 6907 6896 6895 6894 ] final -117.93 input  -60.11 | X-H torsion
[ 7974 7965 7964 7962 ] final  141.46 input  175.53 | X-H torsion
[ 8008 7997 7996 7995 ] final   26.78 input   59.86 | X-H torsion
[ 10167 10162 10161 10158 ] final   66.40 input  -65.29 | X-H torsion
[ 10718 10713 10712 10709 ] final  162.70 input   66.30 | X-H torsion
[ 10763 10752 10751 10750 ] final  146.60 input  -60.55 | X-H torsion
[ 11005 11000 10999 10996 ] final -127.67 input  -57.11 | X-H torsion

> <Gold.Protein.ActiveResidues>
 VAL166  LYS551  ARG553  GLY616  TRP617  ASP618  TYR619  PRO620  LYS621  CYS622 
 ASP623  PHE694  ASN695  SER759  ASP760  ASP761  ALA762  ILE779  LEU786  VAL792 
 PHE793  MET794  SER795  GLU796  ALA797  LYS798  CYS799  TRP800  GLU811  SER814 

> <Gold.Protein.RotatedAtoms>
  150.8177  133.8307  159.3152 H   0  0  0  0  0  0  0  0  0  0  0  0  # atno 6907 bound_to 6896
  151.6074  135.1041  160.0083 H   0  0  0  0  0  0  0  0  0  0  0  0  # atno 6908 bound_to 6896
  152.4268  133.7168  159.6567 H   0  0  0  0  0  0  0  0  0  0  0  0  # atno 6909 bound_to 6896
  144.9094  139.5313  143.5716 H   0  0  0  0  0  0  0  0  0  0  0  0  # atno 7974 bound_to 7965
  155.0326  140.3160  155.4753 H   0  0  0  0  0  0  0  0  0  0  0  0  # atno 8008 bound_to 7997
  156.2871  140.2177  156.5390 H   0  0  0  0  0  0  0  0  0  0  0  0  # atno 8009 bound_to 7997
  154.7358  140.0477  157.0755 H   0  0  0  0  0  0  0  0  0  0  0  0  # atno 8010 bound_to 7997
  140.1009  144.4905  150.7038 H   0  0  0  0  0  0  0  0  0  0  0  0  # atno 10167 bound_to 10162
  157.1188  131.0487  151.2424 H   0  0  0  0  0  0  0  0  0  0  0  0  # atno 10718 bound_to 10713
  154.0246  135.2903  155.3376 H   0  0  0  0  0  0  0  0  0  0  0  0  # atno 10763 bound_to 10752
  154.7025  135.5182  153.8551 H   0  0  0  0  0  0  0  0  0  0  0  0  # atno 10764 bound_to 10752
  153.0666  135.6633  154.0464 H   0  0  0  0  0  0  0  0  0  0  0  0  # atno 10765 bound_to 10752
  140.9580  134.0975  157.3997 H   0  0  0  0  0  0  0  0  0  0  0  0  # atno 11005 bound_to 11000
  146.3151  139.7888  142.8990 LP  0  0  0  0  0  0  0  0  0  0  0  0  # atno 17320 bound_to 7965
  145.3480  141.0301  143.3355 LP  0  0  0  0  0  0  0  0  0  0  0  0  # atno 17321 bound_to 7965
  140.6978  143.2415  151.4950 LP  0  0  0  0  0  0  0  0  0  0  0  0  # atno 17342 bound_to 10162
  139.5672  144.2014  152.1782 LP  0  0  0  0  0  0  0  0  0  0  0  0  # atno 17343 bound_to 10162
  157.4494  130.7590  149.7138 LP  0  0  0  0  0  0  0  0  0  0  0  0  # atno 17370 bound_to 10713
  155.9833  130.4001  150.3370 LP  0  0  0  0  0  0  0  0  0  0  0  0  # atno 17371 bound_to 10713
  139.8868  135.0085  156.6524 LP  0  0  0  0  0  0  0  0  0  0  0  0  # atno 17394 bound_to 11000
  140.7508  133.8898  155.8346 LP  0  0  0  0  0  0  0  0  0  0  0  0  # atno 17395 bound_to 11000

$$$$
